
     RDKit          3D

 50 55  0  0  0  0  0  0  0  0999 V2000
   46.6150   71.1180   30.0470 C   0  0  0  0  0  0  0  0  0  0  0  0
   47.6150   72.0990   30.0230 C   0  0  0  0  0  0  0  0  0  0  0  0
   47.0850   73.2840   30.4590 C   0  0  0  0  0  0  0  0  0  0  0  0
   45.7660   72.9670   30.7340 C   0  0  0  0  0  0  0  0  0  0  0  0
   45.4940   71.6850   30.4890 O   0  0  0  0  0  0  0  0  0  0  0  0
   48.1810   69.2870   29.3310 C   0  0  0  0  0  0  0  0  0  0  0  0
   46.8830   69.7500   29.6350 C   0  0  0  0  0  0  0  0  0  0  0  0
   45.7830   68.8990   29.5510 C   0  0  0  0  0  0  0  0  0  0  0  0
   46.0200   67.6000   29.1620 N   0  0  0  0  0  0  0  0  0  0  0  0
   47.2730   67.1730   28.8750 C   0  0  0  0  0  0  0  0  0  0  0  0
   48.3500   68.0150   28.9590 N   0  0  0  0  0  0  0  0  0  0  0  0
   47.5250   65.8360   28.4740 N   0  0  0  0  0  0  0  0  0  0  0  0
   46.5500   65.0570   27.7330 C   0  0  0  0  0  0  0  0  0  0  0  0
   47.4010   64.0850   26.8930 C   0  0  0  0  0  0  0  0  0  0  0  0
   48.5330   64.7590   26.4700 O   0  0  0  0  0  0  0  0  0  0  0  0
   49.4780   64.9870   27.4360 C   0  0  0  0  0  0  0  0  0  0  0  0
   48.7920   65.1910   28.7980 C   0  0  0  0  0  0  0  0  0  0  0  0
   44.7540   73.8300   31.2210 N   0  0  0  0  0  0  0  0  0  0  0  0
   43.4890   73.5060   31.5090 C   0  0  0  0  0  0  0  0  0  0  0  0
   42.8690   74.6610   31.9490 C   0  0  0  0  0  0  0  0  0  0  0  0
   43.8320   75.6370   31.8950 N   0  0  0  0  0  0  0  0  0  0  0  0
   44.9740   75.1240   31.4510 C   0  0  0  0  0  0  0  0  0  0  0  0
   46.0980   75.9700   31.3220 N   0  0  0  0  0  0  0  0  0  0  0  0
   41.5030   74.7400   32.3570 N   0  0  0  0  0  0  0  0  0  0  0  0
   40.8700   75.8760   32.7530 C   0  0  0  0  0  0  0  0  0  0  0  0
   39.5750   75.5980   33.0740 N   0  0  0  0  0  0  0  0  0  0  0  0
   39.4230   74.2660   32.8680 C   0  0  0  0  0  0  0  0  0  0  0  0
   38.3750   73.3680   33.0030 C   0  0  0  0  0  0  0  0  0  0  0  0
   38.5330   72.0620   32.7130 N   0  0  0  0  0  0  0  0  0  0  0  0
   39.7090   71.5720   32.2820 C   0  0  0  0  0  0  0  0  0  0  0  0
   40.7480   72.4080   32.1390 N   0  0  0  0  0  0  0  0  0  0  0  0
   40.6370   73.7320   32.4180 C   0  0  0  0  0  0  0  0  0  0  0  0
   48.6565   71.9427   29.7055 H   0  0  0  0  0  0  0  0  0  0  0  0
   47.5879   74.2565   30.5654 H   0  0  0  0  0  0  0  0  0  0  0  0
   49.0439   69.9658   29.3996 H   0  0  0  0  0  0  0  0  0  0  0  0
   44.7675   69.2505   29.7858 H   0  0  0  0  0  0  0  0  0  0  0  0
   45.8897   64.5051   28.4181 H   0  0  0  0  0  0  0  0  0  0  0  0
   45.8928   65.6847   27.1132 H   0  0  0  0  0  0  0  0  0  0  0  0
   47.6903   63.2182   27.5054 H   0  0  0  0  0  0  0  0  0  0  0  0
   46.8256   63.7261   26.0269 H   0  0  0  0  0  0  0  0  0  0  0  0
   50.1563   64.1230   27.4945 H   0  0  0  0  0  0  0  0  0  0  0  0
   50.0501   65.8905   27.1784 H   0  0  0  0  0  0  0  0  0  0  0  0
   49.4017   65.8357   29.4481 H   0  0  0  0  0  0  0  0  0  0  0  0
   48.6535   64.2456   29.3430 H   0  0  0  0  0  0  0  0  0  0  0  0
   43.0295   72.5111   31.4141 H   0  0  0  0  0  0  0  0  0  0  0  0
   46.0231   76.9672   31.5689 H   0  0  0  0  0  0  0  0  0  0  0  0
   46.9924   75.5897   30.9810 H   0  0  0  0  0  0  0  0  0  0  0  0
   41.3342   76.8718   32.8064 H   0  0  0  0  0  0  0  0  0  0  0  0
   37.3967   73.7287   33.3533 H   0  0  0  0  0  0  0  0  0  0  0  0
   39.8170   70.5021   32.0503 H   0  0  0  0  0  0  0  0  0  0  0  0
  1  5  1  0
  2  1  2  0
  2  3  1  0
  3  4  2  0
  4 18  1  0
  5  4  1  0
  6  7  2  0
  7  1  1  0
  8  7  1  0
  9  8  2  0
 10 11  2  0
 10  9  1  0
 11  6  1  0
 12 17  1  0
 12 10  1  0
 13 12  1  0
 14 13  1  0
 15 14  1  0
 15 16  1  0
 16 17  1  0
 18 22  1  0
 18 19  1  0
 19 20  2  0
 20 24  1  0
 21 20  1  0
 22 21  2  0
 23 22  1  0
 24 32  1  0
 24 25  1  0
 25 26  2  0
 27 28  2  0
 27 26  1  0
 29 28  1  0
 30 29  2  0
 31 30  1  0
 31 32  2  0
 32 27  1  0
  2 33  1  0
  3 34  1  0
  6 35  1  0
  8 36  1  0
 13 37  1  0
 13 38  1  0
 14 39  1  0
 14 40  1  0
 16 41  1  0
 16 42  1  0
 17 43  1  0
 17 44  1  0
 19 45  1  0
 23 46  1  0
 23 47  1  0
 25 48  1  0
 28 49  1  0
 30 50  1  0
M  END
>  <Score>  (1) 
-7.19845

$$$$
