
     RDKit          3D

 52 56  0  0  0  0  0  0  0  0999 V2000
   44.1040   70.6000   31.8170 C   0  0  0  0  0  0  0  0  0  0  0  0
   45.1200   69.7380   31.4500 C   0  0  0  0  0  0  0  0  0  0  0  0
   44.9080   68.4750   30.9530 C   0  0  0  0  0  0  0  0  0  0  0  0
   43.6180   68.0160   30.8000 C   0  0  0  0  0  0  0  0  0  0  0  0
   42.5590   68.8310   31.1490 C   0  0  0  0  0  0  0  0  0  0  0  0
   41.2570   68.3970   31.0070 C   0  0  0  0  0  0  0  0  0  0  0  0
   40.1740   69.1670   31.3390 C   0  0  0  0  0  0  0  0  0  0  0  0
   40.4800   70.4220   31.8310 C   0  0  0  0  0  0  0  0  0  0  0  0
   41.7630   70.8450   31.9700 C   0  0  0  0  0  0  0  0  0  0  0  0
   42.8410   70.0780   31.6390 C   0  0  0  0  0  0  0  0  0  0  0  0
   43.4290   66.7030   30.2820 N   0  0  0  0  0  0  0  0  0  0  0  0
   42.9490   65.7100   31.0340 C   0  0  0  0  0  0  0  0  0  0  0  0
   42.7730   64.4440   30.5120 C   0  0  0  0  0  0  0  0  0  0  0  0
   43.1210   64.2730   29.1820 C   0  0  0  0  0  0  0  0  0  0  0  0
   42.9760   63.1310   28.6640 O   0  0  0  0  0  0  0  0  0  0  0  0
   43.6020   65.2840   28.4430 N   0  0  0  0  0  0  0  0  0  0  0  0
   43.7660   66.5270   28.9810 C   0  0  0  0  0  0  0  0  0  0  0  0
   44.2210   67.3850   28.1960 O   0  0  0  0  0  0  0  0  0  0  0  0
   42.2430   63.2940   31.2940 C   0  0  0  0  0  0  0  0  0  0  0  0
   45.4790   73.5590   33.8020 C   0  0  0  0  0  0  0  0  0  0  0  0
   45.1990   72.2320   33.4620 C   0  0  0  0  0  0  0  0  0  0  0  0
   44.4770   71.8880   32.3210 C   0  0  0  0  0  0  0  0  0  0  0  0
   44.0730   72.9690   31.5750 N   0  0  0  0  0  0  0  0  0  0  0  0
   44.3480   74.2430   31.9120 C   0  0  0  0  0  0  0  0  0  0  0  0
   45.0380   74.5170   33.0060 N   0  0  0  0  0  0  0  0  0  0  0  0
   43.8810   75.3700   31.0610 C   0  0  0  0  0  0  0  0  0  0  0  0
   44.4770   76.6290   31.6430 C   0  0  0  0  0  0  0  0  0  0  0  0
   43.3640   77.5090   32.1090 C   0  0  0  0  0  0  0  0  0  0  0  0
   42.0940   76.7150   32.0080 C   0  0  0  0  0  0  0  0  0  0  0  0
   42.3870   75.5360   31.1090 C   0  0  0  0  0  0  0  0  0  0  0  0
   46.1584   70.0832   31.5623 H   0  0  0  0  0  0  0  0  0  0  0  0
   45.7605   67.8359   30.6796 H   0  0  0  0  0  0  0  0  0  0  0  0
   41.0808   67.3867   30.6091 H   0  0  0  0  0  0  0  0  0  0  0  0
   39.1389   68.8134   31.2229 H   0  0  0  0  0  0  0  0  0  0  0  0
   39.6607   71.0975   32.1182 H   0  0  0  0  0  0  0  0  0  0  0  0
   41.9412   71.8546   32.3687 H   0  0  0  0  0  0  0  0  0  0  0  0
   42.6898   65.9033   32.0854 H   0  0  0  0  0  0  0  0  0  0  0  0
   43.8506   65.1198   27.4570 H   0  0  0  0  0  0  0  0  0  0  0  0
   42.3405   63.5056   32.3690 H   0  0  0  0  0  0  0  0  0  0  0  0
   41.1827   63.1391   31.0455 H   0  0  0  0  0  0  0  0  0  0  0  0
   42.8141   62.3873   31.0455 H   0  0  0  0  0  0  0  0  0  0  0  0
   46.0521   73.7995   34.7096 H   0  0  0  0  0  0  0  0  0  0  0  0
   45.5625   71.4291   34.1202 H   0  0  0  0  0  0  0  0  0  0  0  0
   44.1802   75.1738   30.0208 H   0  0  0  0  0  0  0  0  0  0  0  0
   45.1280   76.3732   32.4920 H   0  0  0  0  0  0  0  0  0  0  0  0
   45.0753   77.1498   30.8809 H   0  0  0  0  0  0  0  0  0  0  0  0
   43.5360   77.8127   33.1522 H   0  0  0  0  0  0  0  0  0  0  0  0
   43.3039   78.4191   31.4940 H   0  0  0  0  0  0  0  0  0  0  0  0
   41.7862   76.3644   33.0042 H   0  0  0  0  0  0  0  0  0  0  0  0
   41.2763   77.3281   31.6013 H   0  0  0  0  0  0  0  0  0  0  0  0
   41.9969   75.7272   30.0984 H   0  0  0  0  0  0  0  0  0  0  0  0
   41.9062   74.6244   31.4935 H   0  0  0  0  0  0  0  0  0  0  0  0
  1 22  1  0
  2  1  2  0
  3  2  1  0
  4  3  2  0
  4  5  1  0
  5 10  2  0
  6  5  1  0
  6  7  2  0
  7  8  1  0
  8  9  2  0
 10  1  1  0
 10  9  1  0
 11  4  1  0
 11 12  1  0
 13 12  2  0
 13 19  1  0
 14 13  1  0
 15 14  2  0
 16 17  1  0
 16 14  1  0
 17 11  1  0
 18 17  2  0
 21 20  2  0
 22 21  1  0
 23 24  1  0
 23 22  2  0
 24 25  2  0
 25 20  1  0
 26 30  1  0
 26 27  1  0
 26 24  1  0
 27 28  1  0
 29 28  1  0
 30 29  1  0
  2 31  1  0
  3 32  1  0
  6 33  1  0
  7 34  1  0
  8 35  1  0
  9 36  1  0
 12 37  1  0
 16 38  1  0
 19 39  1  0
 19 40  1  0
 19 41  1  0
 20 42  1  0
 21 43  1  0
 26 44  1  0
 27 45  1  0
 27 46  1  0
 28 47  1  0
 28 48  1  0
 29 49  1  0
 29 50  1  0
 30 51  1  0
 30 52  1  0
M  END
>  <Score>  (1) 
-7.40476

$$$$
