
     RDKit          3D

 48 53  0  0  0  0  0  0  0  0999 V2000
   44.5930   69.8940   31.2120 C   0  0  0  0  0  0  0  0  0  0  0  0
   44.5760   68.6410   30.6330 C   0  0  0  0  0  0  0  0  0  0  0  0
   43.3940   67.8770   30.6270 C   0  0  0  0  0  0  0  0  0  0  0  0
   42.2600   68.4180   31.2140 C   0  0  0  0  0  0  0  0  0  0  0  0
   42.2630   69.6750   31.8000 C   0  0  0  0  0  0  0  0  0  0  0  0
   43.4490   70.3880   31.7820 C   0  0  0  0  0  0  0  0  0  0  0  0
   43.4290   71.7050   32.4020 C   0  0  0  0  0  0  0  0  0  0  0  0
   43.4400   71.8770   33.7510 N   0  0  0  0  0  0  0  0  0  0  0  0
   43.4180   73.1380   34.0770 O   0  0  0  0  0  0  0  0  0  0  0  0
   43.3910   73.8440   32.9680 C   0  0  0  0  0  0  0  0  0  0  0  0
   43.3990   72.9690   31.9860 N   0  0  0  0  0  0  0  0  0  0  0  0
   43.3600   75.2040   32.5750 N   0  0  0  0  0  0  0  0  0  0  0  0
   44.0880   75.6860   31.3870 C   0  0  0  0  0  0  0  0  0  0  0  0
   44.3510   77.1470   31.7770 C   0  0  0  0  0  0  0  0  0  0  0  0
   42.9530   77.5020   32.2860 C   0  0  0  0  0  0  0  0  0  0  0  0
   42.6650   76.3340   33.1970 C   0  0  0  0  0  0  0  0  0  0  0  0
   47.3610   72.3030   30.2780 C   0  0  0  0  0  0  0  0  0  0  0  0
   46.0910   71.6520   30.2670 C   0  0  0  0  0  0  0  0  0  0  0  0
   45.8560   70.5980   31.1680 C   0  0  0  0  0  0  0  0  0  0  0  0
   46.8460   70.2430   32.0120 N   0  0  0  0  0  0  0  0  0  0  0  0
   48.0510   70.8850   31.9990 C   0  0  0  0  0  0  0  0  0  0  0  0
   48.2950   71.8820   31.1570 N   0  0  0  0  0  0  0  0  0  0  0  0
   49.0250   70.4090   32.9510 N   0  0  0  0  0  0  0  0  0  0  0  0
   49.0560   69.3410   33.7340 C   0  0  0  0  0  0  0  0  0  0  0  0
   50.2230   69.4070   34.4210 N   0  0  0  0  0  0  0  0  0  0  0  0
   50.8910   70.5030   34.0570 C   0  0  0  0  0  0  0  0  0  0  0  0
   52.1170   70.9540   34.5050 C   0  0  0  0  0  0  0  0  0  0  0  0
   52.6130   72.1020   33.9960 N   0  0  0  0  0  0  0  0  0  0  0  0
   51.8520   72.7400   33.0620 C   0  0  0  0  0  0  0  0  0  0  0  0
   50.6580   72.3190   32.6130 N   0  0  0  0  0  0  0  0  0  0  0  0
   50.1330   71.1810   33.0960 C   0  0  0  0  0  0  0  0  0  0  0  0
   45.4907   68.2377   30.1741 H   0  0  0  0  0  0  0  0  0  0  0  0
   43.3703   66.8772   30.1688 H   0  0  0  0  0  0  0  0  0  0  0  0
   41.3292   67.8319   31.2148 H   0  0  0  0  0  0  0  0  0  0  0  0
   41.3554   70.0903   32.2624 H   0  0  0  0  0  0  0  0  0  0  0  0
   43.4712   75.6151   30.4790 H   0  0  0  0  0  0  0  0  0  0  0  0
   44.9943   75.1109   31.1465 H   0  0  0  0  0  0  0  0  0  0  0  0
   45.1135   77.2346   32.5650 H   0  0  0  0  0  0  0  0  0  0  0  0
   44.7455   77.7909   30.9772 H   0  0  0  0  0  0  0  0  0  0  0  0
   42.9551   78.4530   32.8388 H   0  0  0  0  0  0  0  0  0  0  0  0
   42.2073   77.6476   31.4905 H   0  0  0  0  0  0  0  0  0  0  0  0
   41.5833   76.1421   33.2531 H   0  0  0  0  0  0  0  0  0  0  0  0
   43.0009   76.5153   34.2287 H   0  0  0  0  0  0  0  0  0  0  0  0
   47.5742   73.1302   29.5850 H   0  0  0  0  0  0  0  0  0  0  0  0
   45.3071   71.9701   29.5639 H   0  0  0  0  0  0  0  0  0  0  0  0
   48.2882   68.5571   33.8114 H   0  0  0  0  0  0  0  0  0  0  0  0
   52.6791   70.3883   35.2626 H   0  0  0  0  0  0  0  0  0  0  0  0
   52.2481   73.6762   32.6416 H   0  0  0  0  0  0  0  0  0  0  0  0
  1  6  1  0
  2  1  2  0
  3  2  1  0
  3  4  2  0
  4  5  1  0
  6  5  2  0
  6  7  1  0
  7  8  2  0
  8  9  1  0
 10  9  1  0
 11  7  1  0
 11 10  2  0
 12 10  1  0
 12 16  1  0
 13 14  1  0
 13 12  1  0
 14 15  1  0
 15 16  1  0
 17 22  2  0
 18 17  1  0
 18 19  2  0
 19  1  1  0
 19 20  1  0
 21 20  2  0
 21 23  1  0
 22 21  1  0
 23 31  1  0
 23 24  1  0
 24 25  2  0
 26 25  1  0
 26 27  2  0
 28 27  1  0
 29 28  2  0
 30 29  1  0
 30 31  2  0
 31 26  1  0
  2 32  1  0
  3 33  1  0
  4 34  1  0
  5 35  1  0
 13 36  1  0
 13 37  1  0
 14 38  1  0
 14 39  1  0
 15 40  1  0
 15 41  1  0
 16 42  1  0
 16 43  1  0
 17 44  1  0
 18 45  1  0
 24 46  1  0
 27 47  1  0
 29 48  1  0
M  END
>  <Score>  (1) 
-7.40471

$$$$
