
     RDKit          3D

 47 51  0  0  1  0  0  0  0  0999 V2000
   44.9970   70.7180   31.2510 C   0  0  0  0  0  0  0  0  0  0  0  0
   44.8500   69.3610   30.8720 C   0  0  0  0  0  0  0  0  0  0  0  0
   43.6420   68.7060   31.2400 C   0  0  0  0  0  0  0  0  0  0  0  0
   42.7080   69.4230   31.9300 N   0  0  0  0  0  0  0  0  0  0  0  0
   42.9150   70.7460   32.2690 C   0  0  0  0  0  0  0  0  0  0  0  0
   44.0270   71.3440   31.9280 N   0  0  0  0  0  0  0  0  0  0  0  0
   46.2320   71.3600   30.8560 C   0  0  0  0  0  0  0  0  0  0  0  0
   46.5420   72.0920   29.7260 C   0  0  0  0  0  0  0  0  0  0  0  0
   47.8130   72.5130   29.7560 N   0  0  0  0  0  0  0  0  0  0  0  0
   48.3630   72.0520   30.9310 C   0  0  0  0  0  0  0  0  0  0  0  0
   49.6360   72.2360   31.3910 C   0  0  0  0  0  0  0  0  0  0  0  0
   49.9920   71.6760   32.6280 C   0  0  0  0  0  0  0  0  0  0  0  0
   49.0250   70.9610   33.3160 C   0  0  0  0  0  0  0  0  0  0  0  0
   47.7520   70.8010   32.8150 C   0  0  0  0  0  0  0  0  0  0  0  0
   47.3880   71.3400   31.6130 C   0  0  0  0  0  0  0  0  0  0  0  0
   41.8530   71.4600   33.0040 C   0  0  2  0  0  0  0  0  0  0  0  0
   40.8300   70.4430   33.4490 C   0  0  0  0  0  0  0  0  0  0  0  0
   41.1390   72.4890   32.1640 C   0  0  0  0  0  0  0  0  0  0  0  0
   41.8620   73.7920   32.1320 C   0  0  0  0  0  0  0  0  0  0  0  0
   41.2620   74.7640   31.3280 C   0  0  0  0  0  0  0  0  0  0  0  0
   42.0540   75.9030   31.4090 C   0  0  0  0  0  0  0  0  0  0  0  0
   43.0610   75.6150   32.2130 N   0  0  0  0  0  0  0  0  0  0  0  0
   42.9610   74.3830   32.6420 N   0  0  0  0  0  0  0  0  0  0  0  0
   44.1230   76.4850   32.5870 C   0  0  0  0  0  0  0  0  0  0  0  0
   44.5330   76.9290   33.8200 C   0  0  0  0  0  0  0  0  0  0  0  0
   45.6230   77.7670   33.6630 C   0  0  0  0  0  0  0  0  0  0  0  0
   45.8550   77.8170   32.3570 N   0  0  0  0  0  0  0  0  0  0  0  0
   44.9910   77.0780   31.7220 N   0  0  0  0  0  0  0  0  0  0  0  0
   45.6390   68.8344   30.3150 H   0  0  0  0  0  0  0  0  0  0  0  0
   43.4659   67.6527   30.9762 H   0  0  0  0  0  0  0  0  0  0  0  0
   45.8368   72.3017   28.9083 H   0  0  0  0  0  0  0  0  0  0  0  0
   48.2890   73.0753   29.0362 H   0  0  0  0  0  0  0  0  0  0  0  0
   50.3672   72.8112   30.8041 H   0  0  0  0  0  0  0  0  0  0  0  0
   51.0053   71.8007   33.0376 H   0  0  0  0  0  0  0  0  0  0  0  0
   49.2802   70.5100   34.2863 H   0  0  0  0  0  0  0  0  0  0  0  0
   47.0132   70.2277   33.3942 H   0  0  0  0  0  0  0  0  0  0  0  0
   42.3300   71.9853   33.8445 H   0  0  0  0  0  0  0  0  0  0  0  0
   40.7983   70.4115   34.5481 H   0  0  0  0  0  0  0  0  0  0  0  0
   39.8399   70.7252   33.0616 H   0  0  0  0  0  0  0  0  0  0  0  0
   41.1063   69.4513   33.0616 H   0  0  0  0  0  0  0  0  0  0  0  0
   41.0512   72.1076   31.1360 H   0  0  0  0  0  0  0  0  0  0  0  0
   40.1501   72.6633   32.6131 H   0  0  0  0  0  0  0  0  0  0  0  0
   40.3381   74.6496   30.7421 H   0  0  0  0  0  0  0  0  0  0  0  0
   41.8759   76.8619   30.9002 H   0  0  0  0  0  0  0  0  0  0  0  0
   44.0686   76.6610   34.7804 H   0  0  0  0  0  0  0  0  0  0  0  0
   46.1818   78.2847   34.4566 H   0  0  0  0  0  0  0  0  0  0  0  0
   46.6079   78.3605   31.9113 H   0  0  0  0  0  0  0  0  0  0  0  0
  1  6  2  0
  2  3  2  0
  2  1  1  0
  3  4  1  0
  4  5  2  0
  5 16  1  0
  6  5  1  0
  7  1  1  0
  7 15  1  0
  8  9  1  0
  8  7  2  0
  9 10  1  0
 10 11  1  0
 10 15  2  0
 11 12  2  0
 12 13  1  0
 14 13  2  0
 15 14  1  0
 16 17  1  0
 18 16  1  0
 19 18  1  0
 19 23  2  0
 20 21  2  0
 20 19  1  0
 21 22  1  0
 22 24  1  0
 22 23  1  0
 24 25  1  0
 26 25  2  0
 27 26  1  0
 28 27  1  0
 28 24  2  0
  2 29  1  0
  3 30  1  0
  8 31  1  0
  9 32  1  0
 11 33  1  0
 12 34  1  0
 13 35  1  0
 14 36  1  0
 16 37  1  1
 17 38  1  0
 17 39  1  0
 17 40  1  0
 18 41  1  0
 18 42  1  0
 20 43  1  0
 21 44  1  0
 25 45  1  0
 26 46  1  0
 27 47  1  0
M  END
>  <Score>  (1) 
-7.02011

$$$$
