
     RDKit          3D

 49 54  0  0  1  0  0  0  0  0999 V2000
   44.4810   74.8910   32.6010 C   0  0  0  0  0  0  0  0  0  0  0  0
   45.9340   72.8030   32.8350 C   0  0  0  0  0  0  0  0  0  0  0  0
   45.1270   73.6970   32.1170 C   0  0  0  0  0  0  0  0  0  0  0  0
   44.9010   73.4300   30.7810 C   0  0  0  0  0  0  0  0  0  0  0  0
   45.4800   72.3090   30.2360 N   0  0  0  0  0  0  0  0  0  0  0  0
   46.2580   71.4600   30.9510 C   0  0  0  0  0  0  0  0  0  0  0  0
   46.4760   71.7250   32.2580 N   0  0  0  0  0  0  0  0  0  0  0  0
   46.8140   70.3260   30.2980 N   0  0  0  0  0  0  0  0  0  0  0  0
   46.0090   69.3230   29.9110 C   0  0  0  0  0  0  0  0  0  0  0  0
   46.4230   68.1720   29.2710 C   0  0  0  0  0  0  0  0  0  0  0  0
   47.7800   68.0600   29.0140 C   0  0  0  0  0  0  0  0  0  0  0  0
   48.2260   67.0530   28.4400 O   0  0  0  0  0  0  0  0  0  0  0  0
   48.5910   69.0840   29.4100 N   0  0  0  0  0  0  0  0  0  0  0  0
   48.1340   70.2010   30.0400 C   0  0  0  0  0  0  0  0  0  0  0  0
   48.9190   71.1130   30.3840 O   0  0  0  0  0  0  0  0  0  0  0  0
   45.4450   67.1340   28.8920 C   0  0  0  0  0  0  0  0  0  0  0  0
   44.5400   76.0350   31.6620 C   0  0  2  0  0  0  0  0  0  0  0  0
   44.5760   77.4190   32.1050 C   0  0  0  0  0  0  0  0  0  0  0  0
   43.3140   76.9680   31.5490 C   0  0  2  0  0  0  0  0  0  0  0  0
   42.1120   76.6810   32.3580 C   0  0  0  0  0  0  0  0  0  0  0  0
   41.6610   77.2220   33.5330 N   0  0  0  0  0  0  0  0  0  0  0  0
   40.5630   76.6360   33.8670 O   0  0  0  0  0  0  0  0  0  0  0  0
   40.2470   75.7220   32.9750 C   0  0  0  0  0  0  0  0  0  0  0  0
   41.2090   75.7380   32.0220 N   0  0  0  0  0  0  0  0  0  0  0  0
   39.1320   74.8410   32.9370 N   0  0  0  0  0  0  0  0  0  0  0  0
   39.2960   73.5400   32.6250 C   0  0  0  0  0  0  0  0  0  0  0  0
   38.1100   72.9070   32.6510 N   0  0  0  0  0  0  0  0  0  0  0  0
   37.1610   73.7900   32.9810 C   0  0  0  0  0  0  0  0  0  0  0  0
   35.7820   73.8090   33.1790 C   0  0  0  0  0  0  0  0  0  0  0  0
   35.1580   74.9590   33.5230 N   0  0  0  0  0  0  0  0  0  0  0  0
   35.8290   76.1280   33.6880 C   0  0  0  0  0  0  0  0  0  0  0  0
   37.1810   76.1330   33.4980 N   0  0  0  0  0  0  0  0  0  0  0  0
   37.8140   74.9910   33.1560 C   0  0  0  0  0  0  0  0  0  0  0  0
   43.4236   74.6573   32.7943 H   0  0  0  0  0  0  0  0  0  0  0  0
   45.0217   75.1979   33.5084 H   0  0  0  0  0  0  0  0  0  0  0  0
   46.1264   72.9933   33.9012 H   0  0  0  0  0  0  0  0  0  0  0  0
   44.2747   74.0964   30.1697 H   0  0  0  0  0  0  0  0  0  0  0  0
   44.9342   69.4269   30.1207 H   0  0  0  0  0  0  0  0  0  0  0  0
   49.6009   69.0077   29.2225 H   0  0  0  0  0  0  0  0  0  0  0  0
   45.0193   66.6822   29.8001 H   0  0  0  0  0  0  0  0  0  0  0  0
   44.6396   67.5889   28.2967 H   0  0  0  0  0  0  0  0  0  0  0  0
   45.9470   66.3571   28.2967 H   0  0  0  0  0  0  0  0  0  0  0  0
   45.1663   75.4280   30.9917 H   0  0  0  0  0  0  0  0  0  0  0  0
   44.6421   77.6377   33.1810 H   0  0  0  0  0  0  0  0  0  0  0  0
   45.2397   78.2653   31.8742 H   0  0  0  0  0  0  0  0  0  0  0  0
   42.6477   77.3502   30.7616 H   0  0  0  0  0  0  0  0  0  0  0  0
   40.2589   73.0657   32.3844 H   0  0  0  0  0  0  0  0  0  0  0  0
   35.1982   72.8850   33.0551 H   0  0  0  0  0  0  0  0  0  0  0  0
   35.2961   77.0487   33.9680 H   0  0  0  0  0  0  0  0  0  0  0  0
  3  1  1  0
  3  2  2  0
  4  3  1  0
  5  4  2  0
  5  6  1  0
  6  7  2  0
  7  2  1  0
  8  6  1  0
  9  8  1  0
 10  9  2  0
 11 10  1  0
 11 13  1  0
 12 11  2  0
 13 14  1  0
 14  8  1  0
 14 15  2  0
 16 10  1  0
 17 18  1  0
 17  1  1  0
 19 17  1  0
 19 18  1  0
 19 20  1  0
 20 21  2  0
 21 22  1  0
 23 22  1  0
 24 20  1  0
 24 23  2  0
 25 23  1  0
 25 33  1  0
 26 27  2  0
 26 25  1  0
 27 28  1  0
 28 33  2  0
 28 29  1  0
 29 30  2  0
 30 31  1  0
 32 31  2  0
 33 32  1  0
  1 34  1  0
  1 35  1  0
  2 36  1  0
  4 37  1  0
  9 38  1  0
 13 39  1  0
 16 40  1  0
 16 41  1  0
 16 42  1  0
 17 43  1  6
 18 44  1  0
 18 45  1  0
 19 46  1  6
 26 47  1  0
 29 48  1  0
 31 49  1  0
M  END
>  <Score>  (1) 
-7.13448

$$$$
