
     RDKit          3D

 51 56  0  0  1  0  0  0  0  0999 V2000
   44.3840   74.8510   32.5830 C   0  0  0  0  0  0  0  0  0  0  0  0
   45.8690   72.7870   32.8260 C   0  0  0  0  0  0  0  0  0  0  0  0
   45.0500   73.6660   32.1020 C   0  0  0  0  0  0  0  0  0  0  0  0
   44.8420   73.3930   30.7730 C   0  0  0  0  0  0  0  0  0  0  0  0
   45.4400   72.2860   30.2250 N   0  0  0  0  0  0  0  0  0  0  0  0
   46.2290   71.4490   30.9490 C   0  0  0  0  0  0  0  0  0  0  0  0
   46.4320   71.7170   32.2500 N   0  0  0  0  0  0  0  0  0  0  0  0
   46.8080   70.3240   30.3000 N   0  0  0  0  0  0  0  0  0  0  0  0
   46.0200   69.3090   29.9060 C   0  0  0  0  0  0  0  0  0  0  0  0
   46.4700   68.1680   29.2690 C   0  0  0  0  0  0  0  0  0  0  0  0
   47.8220   68.0740   29.0230 C   0  0  0  0  0  0  0  0  0  0  0  0
   48.2800   67.0720   28.4540 O   0  0  0  0  0  0  0  0  0  0  0  0
   48.6040   69.1060   29.4260 N   0  0  0  0  0  0  0  0  0  0  0  0
   48.1220   70.2130   30.0510 C   0  0  0  0  0  0  0  0  0  0  0  0
   48.8990   71.1450   30.4040 O   0  0  0  0  0  0  0  0  0  0  0  0
   45.4930   67.1090   28.8820 C   0  0  0  0  0  0  0  0  0  0  0  0
   44.3960   75.9820   31.6290 C   0  0  2  0  0  0  0  0  0  0  0  0
   44.4690   77.3730   32.0480 C   0  0  0  0  0  0  0  0  0  0  0  0
   43.1720   76.9240   31.5720 C   0  0  2  0  0  0  0  0  0  0  0  0
   42.0220   76.6590   32.4600 C   0  0  0  0  0  0  0  0  0  0  0  0
   41.7070   77.1330   33.7060 N   0  0  0  0  0  0  0  0  0  0  0  0
   40.6000   76.6000   34.0880 O   0  0  0  0  0  0  0  0  0  0  0  0
   40.1420   75.7850   33.1690 C   0  0  0  0  0  0  0  0  0  0  0  0
   41.0240   75.8120   32.1400 N   0  0  0  0  0  0  0  0  0  0  0  0
   38.9860   74.9480   33.0590 N   0  0  0  0  0  0  0  0  0  0  0  0
   39.1320   73.6430   32.7570 C   0  0  0  0  0  0  0  0  0  0  0  0
   37.9090   73.0570   32.7080 N   0  0  0  0  0  0  0  0  0  0  0  0
   36.9760   73.9960   32.9820 C   0  0  0  0  0  0  0  0  0  0  0  0
   35.5850   74.0940   33.0980 C   0  0  0  0  0  0  0  0  0  0  0  0
   35.0010   75.2670   33.4010 N   0  0  0  0  0  0  0  0  0  0  0  0
   35.7150   76.3960   33.6060 C   0  0  0  0  0  0  0  0  0  0  0  0
   37.0730   76.3540   33.5050 N   0  0  0  0  0  0  0  0  0  0  0  0
   37.6690   75.1740   33.2000 C   0  0  0  0  0  0  0  0  0  0  0  0
   34.8590   72.8880   32.8760 N   0  0  0  0  0  0  0  0  0  0  0  0
   43.3368   74.5941   32.8006 H   0  0  0  0  0  0  0  0  0  0  0  0
   44.9349   75.1836   33.4751 H   0  0  0  0  0  0  0  0  0  0  0  0
   46.0533   72.9813   33.8929 H   0  0  0  0  0  0  0  0  0  0  0  0
   44.2079   74.0492   30.1587 H   0  0  0  0  0  0  0  0  0  0  0  0
   44.9413   69.3922   30.1044 H   0  0  0  0  0  0  0  0  0  0  0  0
   49.6171   69.0481   29.2492 H   0  0  0  0  0  0  0  0  0  0  0  0
   45.0705   66.6510   29.7885 H   0  0  0  0  0  0  0  0  0  0  0  0
   44.6840   67.5566   28.2861 H   0  0  0  0  0  0  0  0  0  0  0  0
   46.0042   66.3386   28.2861 H   0  0  0  0  0  0  0  0  0  0  0  0
   44.9782   75.3598   30.9334 H   0  0  0  0  0  0  0  0  0  0  0  0
   44.5988   77.6073   33.1149 H   0  0  0  0  0  0  0  0  0  0  0  0
   45.1250   78.2098   31.7664 H   0  0  0  0  0  0  0  0  0  0  0  0
   42.4644   77.2987   30.8178 H   0  0  0  0  0  0  0  0  0  0  0  0
   40.0904   73.1335   32.5785 H   0  0  0  0  0  0  0  0  0  0  0  0
   35.2050   77.3391   33.8519 H   0  0  0  0  0  0  0  0  0  0  0  0
   33.8313   72.8854   32.9449 H   0  0  0  0  0  0  0  0  0  0  0  0
   35.3620   72.0189   32.6467 H   0  0  0  0  0  0  0  0  0  0  0  0
  3  1  1  0
  3  2  2  0
  4  3  1  0
  5  4  2  0
  5  6  1  0
  6  7  2  0
  7  2  1  0
  8  6  1  0
  9  8  1  0
 10  9  2  0
 11 10  1  0
 11 13  1  0
 12 11  2  0
 13 14  1  0
 14  8  1  0
 14 15  2  0
 16 10  1  0
 17 18  1  0
 17  1  1  0
 19 17  1  0
 19 18  1  0
 19 20  1  0
 20 21  2  0
 21 22  1  0
 23 22  1  0
 24 20  1  0
 24 23  2  0
 25 23  1  0
 25 33  1  0
 26 25  1  0
 27 26  2  0
 27 28  1  0
 28 29  2  0
 28 33  1  0
 29 30  1  0
 30 31  2  0
 32 31  1  0
 33 32  2  0
 34 29  1  0
  1 35  1  0
  1 36  1  0
  2 37  1  0
  4 38  1  0
  9 39  1  0
 13 40  1  0
 16 41  1  0
 16 42  1  0
 16 43  1  0
 17 44  1  6
 18 45  1  0
 18 46  1  0
 19 47  1  6
 26 48  1  0
 31 49  1  0
 34 50  1  0
 34 51  1  0
M  END
>  <Score>  (1) 
-7.41287

$$$$
