
     RDKit          3D

 43 48  0  0  0  0  0  0  0  0999 V2000
   45.0810   71.4360   31.1310 C   0  0  0  0  0  0  0  0  0  0  0  0
   46.2780   71.2030   30.4860 C   0  0  0  0  0  0  0  0  0  0  0  0
   47.0870   72.2620   30.2170 C   0  0  0  0  0  0  0  0  0  0  0  0
   46.7280   73.5470   30.5780 C   0  0  0  0  0  0  0  0  0  0  0  0
   45.5310   73.7640   31.2220 C   0  0  0  0  0  0  0  0  0  0  0  0
   44.7290   72.6930   31.4850 N   0  0  0  0  0  0  0  0  0  0  0  0
   42.5080   69.4110   32.7770 C   0  0  0  0  0  0  0  0  0  0  0  0
   42.5340   68.2110   32.0380 C   0  0  0  0  0  0  0  0  0  0  0  0
   43.4500   68.1030   30.9620 C   0  0  0  0  0  0  0  0  0  0  0  0
   44.2510   69.1730   30.7090 N   0  0  0  0  0  0  0  0  0  0  0  0
   44.2000   70.2910   31.4280 C   0  0  0  0  0  0  0  0  0  0  0  0
   43.3330   70.4160   32.4600 N   0  0  0  0  0  0  0  0  0  0  0  0
   43.5460   66.9320   30.1630 N   0  0  0  0  0  0  0  0  0  0  0  0
   43.9880   66.8240   28.9000 C   0  0  0  0  0  0  0  0  0  0  0  0
   43.9440   65.5650   28.4480 N   0  0  0  0  0  0  0  0  0  0  0  0
   43.4500   64.7940   29.4510 C   0  0  0  0  0  0  0  0  0  0  0  0
   43.2070   63.4490   29.5090 C   0  0  0  0  0  0  0  0  0  0  0  0
   42.7010   62.9270   30.6570 N   0  0  0  0  0  0  0  0  0  0  0  0
   42.4760   63.7900   31.6710 C   0  0  0  0  0  0  0  0  0  0  0  0
   42.7130   65.1190   31.6260 N   0  0  0  0  0  0  0  0  0  0  0  0
   43.2120   65.6770   30.5080 C   0  0  0  0  0  0  0  0  0  0  0  0
   44.9950   75.0620   31.6710 C   0  0  0  0  0  0  0  0  0  0  0  0
   45.2780   76.2820   31.1970 N   0  0  0  0  0  0  0  0  0  0  0  0
   44.6350   77.1990   31.8160 O   0  0  0  0  0  0  0  0  0  0  0  0
   43.8850   76.6350   32.7400 C   0  0  0  0  0  0  0  0  0  0  0  0
   44.1160   75.3200   32.6420 N   0  0  0  0  0  0  0  0  0  0  0  0
   42.9950   77.2020   33.6840 N   0  0  0  0  0  0  0  0  0  0  0  0
   41.6550   77.0070   33.5250 C   0  0  0  0  0  0  0  0  0  0  0  0
   40.9380   77.6080   34.4990 N   0  0  0  0  0  0  0  0  0  0  0  0
   41.8780   78.1910   35.2840 C   0  0  0  0  0  0  0  0  0  0  0  0
   43.0940   77.9320   34.7730 N   0  0  0  0  0  0  0  0  0  0  0  0
   46.5713   70.1833   30.1959 H   0  0  0  0  0  0  0  0  0  0  0  0
   48.0446   72.0931   29.7027 H   0  0  0  0  0  0  0  0  0  0  0  0
   47.3953   74.3917   30.3519 H   0  0  0  0  0  0  0  0  0  0  0  0
   41.8070   69.5219   33.6174 H   0  0  0  0  0  0  0  0  0  0  0  0
   41.8601   67.3790   32.2902 H   0  0  0  0  0  0  0  0  0  0  0  0
   44.3465   67.6755   28.3030 H   0  0  0  0  0  0  0  0  0  0  0  0
   43.4170   62.8031   28.6437 H   0  0  0  0  0  0  0  0  0  0  0  0
   42.0681   63.3788   32.6061 H   0  0  0  0  0  0  0  0  0  0  0  0
   41.3489   77.4196   32.5524 H   0  0  0  0  0  0  0  0  0  0  0  0
   41.4601   75.9257   33.5771 H   0  0  0  0  0  0  0  0  0  0  0  0
   41.6778   78.7800   36.1912 H   0  0  0  0  0  0  0  0  0  0  0  0
   43.9818   78.2605   35.1790 H   0  0  0  0  0  0  0  0  0  0  0  0
  1 11  1  0
  1  6  1  0
  2  1  2  0
  3  2  1  0
  3  4  2  0
  4  5  1  0
  5  6  2  0
  5 22  1  0
  8  7  2  0
  9  8  1  0
 10  9  2  0
 10 11  1  0
 11 12  2  0
 12  7  1  0
 13 21  1  0
 13  9  1  0
 14 13  1  0
 15 14  2  0
 15 16  1  0
 16 17  2  0
 16 21  1  0
 17 18  1  0
 18 19  2  0
 20 19  1  0
 21 20  2  0
 22 26  1  0
 23 22  2  0
 23 24  1  0
 24 25  1  0
 25 27  1  0
 26 25  2  0
 27 31  1  0
 28 27  1  0
 28 29  1  0
 29 30  2  0
 31 30  1  0
  2 32  1  0
  3 33  1  0
  4 34  1  0
  7 35  1  0
  8 36  1  0
 14 37  1  0
 17 38  1  0
 19 39  1  0
 28 40  1  0
 28 41  1  0
 30 42  1  0
 31 43  1  0
M  END
>  <Score>  (1) 
-7.00721

$$$$
