
     RDKit          3D

 50 55  0  0  1  0  0  0  0  0999 V2000
   44.8680   73.1640   31.2140 C   0  0  0  0  0  0  0  0  0  0  0  0
   45.3520   73.9500   32.2170 C   0  0  0  0  0  0  0  0  0  0  0  0
   44.5170   75.0260   32.4430 C   0  0  0  0  0  0  0  0  0  0  0  0
   43.5190   74.8550   31.5410 N   0  0  0  0  0  0  0  0  0  0  0  0
   43.7350   73.7860   30.8470 N   0  0  0  0  0  0  0  0  0  0  0  0
   46.4780   72.0140   29.7080 C   0  0  0  0  0  0  0  0  0  0  0  0
   45.4950   71.9670   30.7220 C   0  0  0  0  0  0  0  0  0  0  0  0
   45.1710   70.7170   31.2030 C   0  0  0  0  0  0  0  0  0  0  0  0
   45.7970   69.6270   30.6870 N   0  0  0  0  0  0  0  0  0  0  0  0
   46.7410   69.7370   29.7040 C   0  0  0  0  0  0  0  0  0  0  0  0
   47.0750   70.9260   29.2210 N   0  0  0  0  0  0  0  0  0  0  0  0
   47.2970   68.4910   29.2780 N   0  0  0  0  0  0  0  0  0  0  0  0
   48.5410   67.9740   29.1120 C   0  0  0  0  0  0  0  0  0  0  0  0
   48.4200   66.7080   28.6730 N   0  0  0  0  0  0  0  0  0  0  0  0
   47.1340   66.4040   28.5560 C   0  0  0  0  0  0  0  0  0  0  0  0
   46.5600   65.2180   28.1400 C   0  0  0  0  0  0  0  0  0  0  0  0
   45.2050   65.1730   28.1120 N   0  0  0  0  0  0  0  0  0  0  0  0
   44.4840   66.2390   28.4730 C   0  0  0  0  0  0  0  0  0  0  0  0
   45.0550   67.3690   28.8690 N   0  0  0  0  0  0  0  0  0  0  0  0
   46.4100   67.5180   28.9340 C   0  0  0  0  0  0  0  0  0  0  0  0
   47.3310   64.0840   27.7560 N   0  0  0  0  0  0  0  0  0  0  0  0
   42.4210   75.7210   31.3850 C   0  0  1  0  0  0  0  0  0  0  0  0
   41.2780   75.3410   30.5080 C   0  0  0  0  0  0  0  0  0  0  0  0
   40.9950   75.3590   31.9060 C   0  0  1  0  0  0  0  0  0  0  0  0
   40.7900   74.0990   32.6800 C   0  0  0  0  0  0  0  0  0  0  0  0
   40.3750   73.0280   31.8350 C   0  0  0  0  0  0  0  0  0  0  0  0
   40.0680   71.7760   32.3920 C   0  0  0  0  0  0  0  0  0  0  0  0
   40.1630   71.5680   33.7500 C   0  0  0  0  0  0  0  0  0  0  0  0
   40.5660   72.6360   34.5210 C   0  0  0  0  0  0  0  0  0  0  0  0
   40.8670   73.8540   34.0040 C   0  0  0  0  0  0  0  0  0  0  0  0
   41.2870   74.9730   34.8270 C   0  0  0  0  0  0  0  0  0  0  0  0
   40.5810   75.9030   35.2790 O   0  0  0  0  0  0  0  0  0  0  0  0
   42.6100   75.0860   35.1910 O   0  0  0  0  0  0  0  0  0  0  0  0
   46.2817   73.7536   32.7711 H   0  0  0  0  0  0  0  0  0  0  0  0
   44.6339   75.8328   33.1815 H   0  0  0  0  0  0  0  0  0  0  0  0
   46.7643   72.9950   29.3011 H   0  0  0  0  0  0  0  0  0  0  0  0
   44.4155   70.6031   31.9943 H   0  0  0  0  0  0  0  0  0  0  0  0
   49.4875   68.5007   29.3038 H   0  0  0  0  0  0  0  0  0  0  0  0
   43.3862   66.1776   28.4408 H   0  0  0  0  0  0  0  0  0  0  0  0
   46.8599   63.2198   27.4523 H   0  0  0  0  0  0  0  0  0  0  0  0
   48.3597   64.1279   27.7819 H   0  0  0  0  0  0  0  0  0  0  0  0
   43.1133   76.5686   31.4957 H   0  0  0  0  0  0  0  0  0  0  0  0
   40.8233   76.1035   29.8586 H   0  0  0  0  0  0  0  0  0  0  0  0
   41.1542   74.5751   29.7282 H   0  0  0  0  0  0  0  0  0  0  0  0
   40.2317   75.8482   32.5289 H   0  0  0  0  0  0  0  0  0  0  0  0
   40.2955   73.1822   30.7488 H   0  0  0  0  0  0  0  0  0  0  0  0
   39.7482   70.9526   31.7365 H   0  0  0  0  0  0  0  0  0  0  0  0
   39.9274   70.5920   34.1993 H   0  0  0  0  0  0  0  0  0  0  0  0
   40.6478   72.4946   35.6088 H   0  0  0  0  0  0  0  0  0  0  0  0
   42.9058   75.8460   35.7523 H   0  0  0  0  0  0  0  0  0  0  0  0
  1  2  1  0
  2  3  2  0
  4  3  1  0
  5  1  2  0
  5  4  1  0
  6  7  2  0
  7  8  1  0
  7  1  1  0
  9  8  2  0
 10  9  1  0
 11 10  2  0
 11  6  1  0
 12 10  1  0
 13 12  1  0
 14 13  2  0
 15 14  1  0
 15 20  2  0
 16 15  1  0
 17 16  2  0
 17 18  1  0
 18 19  2  0
 19 20  1  0
 20 12  1  0
 21 16  1  0
 22  4  1  0
 22 24  1  0
 23 22  1  0
 23 24  1  0
 24 25  1  0
 25 30  2  0
 26 27  2  0
 26 25  1  0
 27 28  1  0
 28 29  2  0
 30 29  1  0
 30 31  1  0
 31 33  1  0
 31 32  2  0
  2 34  1  0
  3 35  1  0
  6 36  1  0
  8 37  1  0
 13 38  1  0
 18 39  1  0
 21 40  1  0
 21 41  1  0
 22 42  1  6
 23 43  1  0
 23 44  1  0
 24 45  1  6
 26 46  1  0
 27 47  1  0
 28 48  1  0
 29 49  1  0
 33 50  1  0
M  END
>  <Score>  (1) 
-7.0174

$$$$
