
     RDKit          3D

 52 57  0  0  0  0  0  0  0  0999 V2000
   54.7260   72.9480   34.2520 N   0  0  0  0  0  0  0  0  0  0  0  0
   54.2330   74.1420   33.8560 C   0  0  0  0  0  0  0  0  0  0  0  0
   52.9950   73.9070   33.3800 N   0  0  0  0  0  0  0  0  0  0  0  0
   52.7390   72.6000   33.4830 C   0  0  0  0  0  0  0  0  0  0  0  0
   51.6000   71.9030   33.1220 C   0  0  0  0  0  0  0  0  0  0  0  0
   51.6120   70.5590   33.3440 N   0  0  0  0  0  0  0  0  0  0  0  0
   52.6780   69.9470   33.8850 C   0  0  0  0  0  0  0  0  0  0  0  0
   53.7700   70.6450   34.2270 N   0  0  0  0  0  0  0  0  0  0  0  0
   53.8260   71.9810   34.0350 C   0  0  0  0  0  0  0  0  0  0  0  0
   52.5340   68.4600   34.0650 C   0  0  0  0  0  0  0  0  0  0  0  0
   53.8440   67.9140   34.6360 C   0  0  0  0  0  0  0  0  0  0  0  0
   54.5560   67.2020   33.5420 C   0  0  0  0  0  0  0  0  0  0  0  0
   55.7270   67.7200   33.0420 C   0  0  0  0  0  0  0  0  0  0  0  0
   56.3010   66.9660   32.0210 C   0  0  0  0  0  0  0  0  0  0  0  0
   55.7200   65.8080   31.5720 C   0  0  0  0  0  0  0  0  0  0  0  0
   54.5350   65.3300   32.1130 C   0  0  0  0  0  0  0  0  0  0  0  0
   53.9870   66.0660   33.1010 N   0  0  0  0  0  0  0  0  0  0  0  0
   50.4560   72.4490   32.5590 O   0  0  0  0  0  0  0  0  0  0  0  0
   49.2120   71.8480   32.6480 C   0  0  0  0  0  0  0  0  0  0  0  0
   48.8660   71.5170   33.8000 O   0  0  0  0  0  0  0  0  0  0  0  0
   46.8590   72.4370   29.9260 C   0  0  0  0  0  0  0  0  0  0  0  0
   46.7550   71.2130   29.3080 C   0  0  0  0  0  0  0  0  0  0  0  0
   47.5000   70.1470   29.8200 C   0  0  0  0  0  0  0  0  0  0  0  0
   48.2970   70.3800   30.9130 N   0  0  0  0  0  0  0  0  0  0  0  0
   48.3710   71.6170   31.5000 C   0  0  0  0  0  0  0  0  0  0  0  0
   47.6550   72.6040   30.9930 N   0  0  0  0  0  0  0  0  0  0  0  0
   47.5660   68.8210   29.3740 N   0  0  0  0  0  0  0  0  0  0  0  0
   48.7970   68.2610   29.2090 C   0  0  0  0  0  0  0  0  0  0  0  0
   48.6660   66.9750   28.7720 N   0  0  0  0  0  0  0  0  0  0  0  0
   47.3540   66.6960   28.6540 C   0  0  0  0  0  0  0  0  0  0  0  0
   46.5420   65.6240   28.2770 C   0  0  0  0  0  0  0  0  0  0  0  0
   45.2030   65.7130   28.2820 N   0  0  0  0  0  0  0  0  0  0  0  0
   44.6270   66.8890   28.6670 C   0  0  0  0  0  0  0  0  0  0  0  0
   45.3680   67.9690   29.0460 N   0  0  0  0  0  0  0  0  0  0  0  0
   46.7120   67.8420   29.0280 C   0  0  0  0  0  0  0  0  0  0  0  0
   47.2360   64.4350   27.8900 N   0  0  0  0  0  0  0  0  0  0  0  0
   55.6597   72.8027   34.6618 H   0  0  0  0  0  0  0  0  0  0  0  0
   54.7427   75.1152   33.9114 H   0  0  0  0  0  0  0  0  0  0  0  0
   51.7086   68.2481   34.7606 H   0  0  0  0  0  0  0  0  0  0  0  0
   52.3142   67.9818   33.0991 H   0  0  0  0  0  0  0  0  0  0  0  0
   54.4639   68.7429   35.0083 H   0  0  0  0  0  0  0  0  0  0  0  0
   53.6420   67.2286   35.4723 H   0  0  0  0  0  0  0  0  0  0  0  0
   56.1738   68.6526   33.4170 H   0  0  0  0  0  0  0  0  0  0  0  0
   57.2418   67.3074   31.5645 H   0  0  0  0  0  0  0  0  0  0  0  0
   56.2057   65.2436   30.7623 H   0  0  0  0  0  0  0  0  0  0  0  0
   54.0678   64.4007   31.7551 H   0  0  0  0  0  0  0  0  0  0  0  0
   46.2820   73.2904   29.5405 H   0  0  0  0  0  0  0  0  0  0  0  0
   46.1023   71.0764   28.4332 H   0  0  0  0  0  0  0  0  0  0  0  0
   49.7536   68.7696   29.3996 H   0  0  0  0  0  0  0  0  0  0  0  0
   43.5299   66.9680   28.6717 H   0  0  0  0  0  0  0  0  0  0  0  0
   48.2657   64.4128   27.9017 H   0  0  0  0  0  0  0  0  0  0  0  0
   46.7062   63.6008   27.5996 H   0  0  0  0  0  0  0  0  0  0  0  0
  2  1  1  0
  3  4  1  0
  3  2  2  0
  4  9  2  0
  5  6  2  0
  5  4  1  0
  6  7  1  0
  7 10  1  0
  7  8  2  0
  9  8  1  0
  9  1  1  0
 10 11  1  0
 12 11  1  0
 13 12  2  0
 14 13  1  0
 15 14  2  0
 15 16  1  0
 16 17  2  0
 17 12  1  0
 18 19  1  0
 18  5  1  0
 19 20  2  0
 21 26  2  0
 22 23  2  0
 22 21  1  0
 23 24  1  0
 24 25  2  0
 25 19  1  0
 26 25  1  0
 27 23  1  0
 28 27  1  0
 29 28  2  0
 30 29  1  0
 30 35  2  0
 31 32  2  0
 31 30  1  0
 32 33  1  0
 33 34  2  0
 35 34  1  0
 35 27  1  0
 36 31  1  0
  1 37  1  0
  2 38  1  0
 10 39  1  0
 10 40  1  0
 11 41  1  0
 11 42  1  0
 13 43  1  0
 14 44  1  0
 15 45  1  0
 16 46  1  0
 21 47  1  0
 22 48  1  0
 28 49  1  0
 33 50  1  0
 36 51  1  0
 36 52  1  0
M  END
>  <Score>  (1) 
-7.38228

$$$$
