
     RDKit          3D

 48 53  0  0  0  0  0  0  0  0999 V2000
   46.6000   73.6760   30.1310 C   0  0  0  0  0  0  0  0  0  0  0  0
   45.8870   73.8450   31.3080 C   0  0  0  0  0  0  0  0  0  0  0  0
   46.1140   72.9080   32.3330 C   0  0  0  0  0  0  0  0  0  0  0  0
   47.0120   71.9050   32.1020 N   0  0  0  0  0  0  0  0  0  0  0  0
   47.6700   71.7890   30.9520 C   0  0  0  0  0  0  0  0  0  0  0  0
   47.4710   72.6750   29.9530 N   0  0  0  0  0  0  0  0  0  0  0  0
   44.9770   74.9270   31.4390 C   0  0  0  0  0  0  0  0  0  0  0  0
   45.3530   76.2860   31.4060 C   0  0  0  0  0  0  0  0  0  0  0  0
   44.2280   77.0570   31.5590 N   0  0  0  0  0  0  0  0  0  0  0  0
   43.1690   76.2310   31.6850 C   0  0  0  0  0  0  0  0  0  0  0  0
   41.8010   76.4960   31.8650 C   0  0  0  0  0  0  0  0  0  0  0  0
   40.9040   75.4620   31.9670 C   0  0  0  0  0  0  0  0  0  0  0  0
   41.3400   74.1600   31.8960 C   0  0  0  0  0  0  0  0  0  0  0  0
   42.6970   73.9480   31.7190 C   0  0  0  0  0  0  0  0  0  0  0  0
   43.6370   74.9360   31.6100 C   0  0  0  0  0  0  0  0  0  0  0  0
   48.6250   70.6650   30.7980 C   0  0  0  0  0  0  0  0  0  0  0  0
   47.8840   69.5150   30.2300 C   0  0  0  0  0  0  0  0  0  0  0  0
   46.4950   69.4440   30.3610 C   0  0  0  0  0  0  0  0  0  0  0  0
   46.0770   68.2850   29.7470 C   0  0  0  0  0  0  0  0  0  0  0  0
   47.1680   67.6900   29.2710 N   0  0  0  0  0  0  0  0  0  0  0  0
   48.2370   68.4330   29.5650 N   0  0  0  0  0  0  0  0  0  0  0  0
   47.0980   66.4520   28.5700 C   0  0  0  0  0  0  0  0  0  0  0  0
   45.8670   65.9890   28.2140 N   0  0  0  0  0  0  0  0  0  0  0  0
   45.6780   64.8340   27.5500 C   0  0  0  0  0  0  0  0  0  0  0  0
   46.7160   64.0370   27.1820 N   0  0  0  0  0  0  0  0  0  0  0  0
   47.9580   64.4680   27.5210 C   0  0  0  0  0  0  0  0  0  0  0  0
   49.0700   63.7240   27.1890 C   0  0  0  0  0  0  0  0  0  0  0  0
   50.3760   64.1130   27.5080 C   0  0  0  0  0  0  0  0  0  0  0  0
   50.5020   65.3200   28.1970 C   0  0  0  0  0  0  0  0  0  0  0  0
   49.4110   66.1100   28.5560 C   0  0  0  0  0  0  0  0  0  0  0  0
   48.1480   65.6520   28.2010 C   0  0  0  0  0  0  0  0  0  0  0  0
   46.4439   74.3926   29.3112 H   0  0  0  0  0  0  0  0  0  0  0  0
   45.5830   72.9812   33.2936 H   0  0  0  0  0  0  0  0  0  0  0  0
   46.3778   76.6650   31.2788 H   0  0  0  0  0  0  0  0  0  0  0  0
   44.1976   78.0864   31.5748 H   0  0  0  0  0  0  0  0  0  0  0  0
   41.4475   77.5360   31.9244 H   0  0  0  0  0  0  0  0  0  0  0  0
   39.8339   75.6756   32.1059 H   0  0  0  0  0  0  0  0  0  0  0  0
   40.6369   73.3179   31.9768 H   0  0  0  0  0  0  0  0  0  0  0  0
   43.0455   72.9062   31.6617 H   0  0  0  0  0  0  0  0  0  0  0  0
   49.4400   70.9569   30.1193 H   0  0  0  0  0  0  0  0  0  0  0  0
   49.0627   70.3970   31.7709 H   0  0  0  0  0  0  0  0  0  0  0  0
   45.8516   70.1810   30.8639 H   0  0  0  0  0  0  0  0  0  0  0  0
   45.0421   67.9213   29.6656 H   0  0  0  0  0  0  0  0  0  0  0  0
   44.6528   64.5255   27.2974 H   0  0  0  0  0  0  0  0  0  0  0  0
   48.9237   62.7782   26.6468 H   0  0  0  0  0  0  0  0  0  0  0  0
   51.2499   63.5044   27.2324 H   0  0  0  0  0  0  0  0  0  0  0  0
   51.5104   65.6645   28.4699 H   0  0  0  0  0  0  0  0  0  0  0  0
   49.5445   67.0576   29.0984 H   0  0  0  0  0  0  0  0  0  0  0  0
  1  2  2  0
  2  7  1  0
  2  3  1  0
  4  3  2  0
  5  4  1  0
  6  1  1  0
  6  5  2  0
  7 15  1  0
  8  7  2  0
  8  9  1  0
  9 10  1  0
 10 11  2  0
 11 12  1  0
 13 12  2  0
 14 13  1  0
 15 10  1  0
 15 14  2  0
 16  5  1  0
 17 18  1  0
 17 16  1  0
 19 18  2  0
 20 21  1  0
 20 19  1  0
 21 17  2  0
 22 20  1  0
 23 22  2  0
 24 23  1  0
 25 26  1  0
 25 24  2  0
 26 31  2  0
 27 28  2  0
 27 26  1  0
 28 29  1  0
 29 30  2  0
 31 30  1  0
 31 22  1  0
  1 32  1  0
  3 33  1  0
  8 34  1  0
  9 35  1  0
 11 36  1  0
 12 37  1  0
 13 38  1  0
 14 39  1  0
 16 40  1  0
 16 41  1  0
 18 42  1  0
 19 43  1  0
 24 44  1  0
 27 45  1  0
 28 46  1  0
 29 47  1  0
 30 48  1  0
M  END
>  <Score>  (1) 
-7.18734

$$$$
