
     RDKit          3D

 51 56  0  0  0  0  0  0  0  0999 V2000
   44.6480   69.9480   31.1860 C   0  0  0  0  0  0  0  0  0  0  0  0
   44.6100   68.6890   30.5970 C   0  0  0  0  0  0  0  0  0  0  0  0
   43.4360   67.9230   30.6530 C   0  0  0  0  0  0  0  0  0  0  0  0
   42.3280   68.4550   31.3070 C   0  0  0  0  0  0  0  0  0  0  0  0
   42.3510   69.7090   31.8990 C   0  0  0  0  0  0  0  0  0  0  0  0
   43.5340   70.4320   31.8190 C   0  0  0  0  0  0  0  0  0  0  0  0
   47.3590   72.3540   30.1030 C   0  0  0  0  0  0  0  0  0  0  0  0
   46.1010   71.7070   30.1540 C   0  0  0  0  0  0  0  0  0  0  0  0
   45.9060   70.6570   31.0740 C   0  0  0  0  0  0  0  0  0  0  0  0
   46.9320   70.3080   31.8740 N   0  0  0  0  0  0  0  0  0  0  0  0
   48.1380   70.9600   31.7960 C   0  0  0  0  0  0  0  0  0  0  0  0
   48.3310   71.9480   30.9330 N   0  0  0  0  0  0  0  0  0  0  0  0
   49.1530   70.5090   32.6890 N   0  0  0  0  0  0  0  0  0  0  0  0
   49.0010   69.3140   33.3270 C   0  0  0  0  0  0  0  0  0  0  0  0
   50.0550   69.0520   34.1280 N   0  0  0  0  0  0  0  0  0  0  0  0
   50.9060   70.0970   34.0070 C   0  0  0  0  0  0  0  0  0  0  0  0
   52.1330   70.4910   34.5120 C   0  0  0  0  0  0  0  0  0  0  0  0
   52.6900   69.6930   35.3390 O   0  0  0  0  0  0  0  0  0  0  0  0
   52.7100   71.6580   34.1490 N   0  0  0  0  0  0  0  0  0  0  0  0
   52.0990   72.4940   33.2670 C   0  0  0  0  0  0  0  0  0  0  0  0
   52.7970   73.6930   32.9590 N   0  0  0  0  0  0  0  0  0  0  0  0
   50.8890   72.1440   32.7450 N   0  0  0  0  0  0  0  0  0  0  0  0
   50.3290   70.9680   33.1230 C   0  0  0  0  0  0  0  0  0  0  0  0
   43.5410   71.7380   32.4420 C   0  0  0  0  0  0  0  0  0  0  0  0
   43.6420   71.9110   33.7800 N   0  0  0  0  0  0  0  0  0  0  0  0
   43.6280   73.1710   34.1180 O   0  0  0  0  0  0  0  0  0  0  0  0
   43.5160   73.8890   33.0130 C   0  0  0  0  0  0  0  0  0  0  0  0
   43.4650   73.0130   32.0200 N   0  0  0  0  0  0  0  0  0  0  0  0
   43.4420   75.2430   32.6450 N   0  0  0  0  0  0  0  0  0  0  0  0
   44.0580   75.7330   31.3950 C   0  0  0  0  0  0  0  0  0  0  0  0
   44.3420   77.2010   31.7790 C   0  0  0  0  0  0  0  0  0  0  0  0
   42.9780   77.5370   32.3700 C   0  0  0  0  0  0  0  0  0  0  0  0
   42.8110   76.3730   33.3250 C   0  0  0  0  0  0  0  0  0  0  0  0
   45.5008   68.2935   30.0870 H   0  0  0  0  0  0  0  0  0  0  0  0
   43.3919   66.9256   30.1911 H   0  0  0  0  0  0  0  0  0  0  0  0
   41.4035   67.8609   31.3558 H   0  0  0  0  0  0  0  0  0  0  0  0
   41.4667   70.1151   32.4119 H   0  0  0  0  0  0  0  0  0  0  0  0
   47.5364   73.1763   29.3942 H   0  0  0  0  0  0  0  0  0  0  0  0
   45.2862   72.0196   29.4844 H   0  0  0  0  0  0  0  0  0  0  0  0
   48.1326   68.6500   33.2049 H   0  0  0  0  0  0  0  0  0  0  0  0
   53.6245   71.9177   34.5455 H   0  0  0  0  0  0  0  0  0  0  0  0
   52.3904   74.3704   32.2981 H   0  0  0  0  0  0  0  0  0  0  0  0
   53.7095   73.8846   33.3966 H   0  0  0  0  0  0  0  0  0  0  0  0
   43.3634   75.6625   30.5450 H   0  0  0  0  0  0  0  0  0  0  0  0
   44.9412   75.1659   31.0658 H   0  0  0  0  0  0  0  0  0  0  0  0
   45.1497   77.2883   32.5206 H   0  0  0  0  0  0  0  0  0  0  0  0
   44.6875   77.8537   30.9638 H   0  0  0  0  0  0  0  0  0  0  0  0
   42.9888   78.5011   32.8995 H   0  0  0  0  0  0  0  0  0  0  0  0
   42.1693   77.6514   31.6332 H   0  0  0  0  0  0  0  0  0  0  0  0
   41.7453   76.1704   33.5073 H   0  0  0  0  0  0  0  0  0  0  0  0
   43.2624   76.5726   34.3081 H   0  0  0  0  0  0  0  0  0  0  0  0
  1  6  2  0
  2  3  2  0
  2  1  1  0
  3  4  1  0
  4  5  2  0
  6  5  1  0
  6 24  1  0
  7  8  2  0
  7 12  1  0
  8  9  1  0
  9  1  1  0
  9 10  2  0
 11 10  1  0
 11 13  1  0
 12 11  2  0
 13 23  1  0
 13 14  1  0
 14 15  2  0
 16 15  1  0
 16 17  1  0
 17 18  2  0
 19 17  1  0
 20 19  1  0
 21 20  1  0
 22 23  1  0
 22 20  2  0
 23 16  2  0
 24 25  2  0
 25 26  1  0
 27 26  1  0
 28 24  1  0
 28 27  2  0
 29 27  1  0
 29 33  1  0
 30 31  1  0
 30 29  1  0
 31 32  1  0
 32 33  1  0
  2 34  1  0
  3 35  1  0
  4 36  1  0
  5 37  1  0
  7 38  1  0
  8 39  1  0
 14 40  1  0
 19 41  1  0
 21 42  1  0
 21 43  1  0
 30 44  1  0
 30 45  1  0
 31 46  1  0
 31 47  1  0
 32 48  1  0
 32 49  1  0
 33 50  1  0
 33 51  1  0
M  END
>  <Score>  (1) 
-8.01173

$$$$
