
     RDKit          3D

 39 43  0  0  1  0  0  0  0  0999 V2000
   46.9680   73.2720   30.5940 C   0  0  0  0  0  0  0  0  0  0  0  0
   45.6320   73.4190   30.9830 C   0  0  0  0  0  0  0  0  0  0  0  0
   44.8220   72.2640   31.0760 C   0  0  0  0  0  0  0  0  0  0  0  0
   45.4150   71.0720   30.7750 N   0  0  0  0  0  0  0  0  0  0  0  0
   46.7110   70.9580   30.4020 C   0  0  0  0  0  0  0  0  0  0  0  0
   47.4790   72.0590   30.3130 N   0  0  0  0  0  0  0  0  0  0  0  0
   47.2780   69.6880   30.0990 N   0  0  0  0  0  0  0  0  0  0  0  0
   47.1380   69.1250   28.8760 C   0  0  0  0  0  0  0  0  0  0  0  0
   47.7560   67.9320   28.8340 N   0  0  0  0  0  0  0  0  0  0  0  0
   48.3060   67.7090   30.0280 C   0  0  0  0  0  0  0  0  0  0  0  0
   49.0520   66.7270   30.6500 C   0  0  0  0  0  0  0  0  0  0  0  0
   49.3490   65.7050   29.9610 O   0  0  0  0  0  0  0  0  0  0  0  0
   49.4510   66.8510   31.9370 N   0  0  0  0  0  0  0  0  0  0  0  0
   49.1340   67.9380   32.6650 C   0  0  0  0  0  0  0  0  0  0  0  0
   49.6050   67.9630   34.0090 N   0  0  0  0  0  0  0  0  0  0  0  0
   48.4000   68.9400   32.1060 N   0  0  0  0  0  0  0  0  0  0  0  0
   48.0050   68.8050   30.8110 C   0  0  0  0  0  0  0  0  0  0  0  0
   45.0230   74.6660   31.2950 N   0  0  0  0  0  0  0  0  0  0  0  0
   45.7580   75.8040   31.3870 C   0  0  0  0  0  0  0  0  0  0  0  0
   44.9990   76.8900   31.6920 N   0  0  0  0  0  0  0  0  0  0  0  0
   43.7290   76.4250   31.7990 C   0  0  0  0  0  0  0  0  0  0  0  0
   42.4760   76.9700   32.0820 C   0  0  1  0  0  0  0  0  0  0  0  0
   41.3610   76.1960   32.1120 N   0  0  0  0  0  0  0  0  0  0  0  0
   41.4700   74.8770   31.8620 C   0  0  0  0  0  0  0  0  0  0  0  0
   42.6700   74.3010   31.5810 N   0  0  0  0  0  0  0  0  0  0  0  0
   43.7640   75.0630   31.5530 C   0  0  0  0  0  0  0  0  0  0  0  0
   42.5160   78.3790   32.3270 N   0  0  0  0  0  0  0  0  0  0  0  0
   47.6105   74.1615   30.5167 H   0  0  0  0  0  0  0  0  0  0  0  0
   43.7654   72.3231   31.3763 H   0  0  0  0  0  0  0  0  0  0  0  0
   46.5948   69.5799   28.0346 H   0  0  0  0  0  0  0  0  0  0  0  0
   50.0079   66.0993   32.3679 H   0  0  0  0  0  0  0  0  0  0  0  0
   49.3933   68.7693   34.6140 H   0  0  0  0  0  0  0  0  0  0  0  0
   50.1573   67.1748   34.3759 H   0  0  0  0  0  0  0  0  0  0  0  0
   46.8463   75.8429   31.2320 H   0  0  0  0  0  0  0  0  0  0  0  0
   42.3161   77.1589   31.0102 H   0  0  0  0  0  0  0  0  0  0  0  0
   40.5665   74.2501   31.8856 H   0  0  0  0  0  0  0  0  0  0  0  0
   42.7327   73.2903   31.3925 H   0  0  0  0  0  0  0  0  0  0  0  0
   42.5209   78.5509   33.3425 H   0  0  0  0  0  0  0  0  0  0  0  0
   43.3686   78.7764   31.9074 H   0  0  0  0  0  0  0  0  0  0  0  0
  1  2  2  0
  2  3  1  0
  2 18  1  0
  4  3  2  0
  5  4  1  0
  6  5  2  0
  6  1  1  0
  7  5  1  0
  7 17  1  0
  8  7  1  0
  9  8  2  0
  9 10  1  0
 10 11  1  0
 10 17  2  0
 11 13  1  0
 12 11  2  0
 13 14  1  0
 14 15  1  0
 16 14  2  0
 17 16  1  0
 18 19  1  0
 18 26  1  0
 19 20  2  0
 20 21  1  0
 21 22  1  0
 22 23  1  0
 22 27  1  0
 24 23  2  0
 25 24  1  0
 26 25  1  0
 26 21  2  0
  1 28  1  0
  3 29  1  0
  8 30  1  0
 13 31  1  0
 15 32  1  0
 15 33  1  0
 19 34  1  0
 22 35  1  6
 24 36  1  0
 25 37  1  0
 27 38  1  0
 27 39  1  0
M  END
>  <Score>  (1) 
-7.0383

$$$$
