
     RDKit          3D

 50 55  0  0  0  0  0  0  0  0999 V2000
   44.6060   69.9470   31.1990 C   0  0  0  0  0  0  0  0  0  0  0  0
   44.6150   68.6940   30.6170 C   0  0  0  0  0  0  0  0  0  0  0  0
   43.4460   67.9000   30.6390 C   0  0  0  0  0  0  0  0  0  0  0  0
   42.3150   68.4140   31.2520 C   0  0  0  0  0  0  0  0  0  0  0  0
   42.2990   69.6650   31.8360 C   0  0  0  0  0  0  0  0  0  0  0  0
   43.4650   70.4070   31.7910 C   0  0  0  0  0  0  0  0  0  0  0  0
   43.4220   71.7210   32.4130 C   0  0  0  0  0  0  0  0  0  0  0  0
   43.4000   71.9020   33.7560 N   0  0  0  0  0  0  0  0  0  0  0  0
   43.3620   73.1630   34.0820 O   0  0  0  0  0  0  0  0  0  0  0  0
   43.3570   73.8730   32.9650 C   0  0  0  0  0  0  0  0  0  0  0  0
   43.3930   72.9930   31.9850 N   0  0  0  0  0  0  0  0  0  0  0  0
   43.3270   75.2280   32.5770 N   0  0  0  0  0  0  0  0  0  0  0  0
   44.0760   75.7110   31.4050 C   0  0  0  0  0  0  0  0  0  0  0  0
   44.3250   77.1760   31.7890 C   0  0  0  0  0  0  0  0  0  0  0  0
   42.9330   77.5300   32.2770 C   0  0  0  0  0  0  0  0  0  0  0  0
   42.6210   76.3540   33.1780 C   0  0  0  0  0  0  0  0  0  0  0  0
   47.2730   72.4440   30.2140 C   0  0  0  0  0  0  0  0  0  0  0  0
   46.0260   71.7630   30.2360 C   0  0  0  0  0  0  0  0  0  0  0  0
   45.8540   70.6870   31.1250 C   0  0  0  0  0  0  0  0  0  0  0  0
   46.8760   70.3350   31.9290 N   0  0  0  0  0  0  0  0  0  0  0  0
   48.0700   71.0150   31.8840 C   0  0  0  0  0  0  0  0  0  0  0  0
   48.2480   72.0330   31.0510 N   0  0  0  0  0  0  0  0  0  0  0  0
   49.1490   70.6680   32.7100 N   0  0  0  0  0  0  0  0  0  0  0  0
   49.1040   69.4720   33.3330 C   0  0  0  0  0  0  0  0  0  0  0  0
   50.2110   69.3230   34.0700 N   0  0  0  0  0  0  0  0  0  0  0  0
   50.9940   70.3930   33.9520 C   0  0  0  0  0  0  0  0  0  0  0  0
   52.2110   70.8720   34.4120 C   0  0  0  0  0  0  0  0  0  0  0  0
   52.6990   72.0880   34.0390 N   0  0  0  0  0  0  0  0  0  0  0  0
   51.9600   72.8300   33.1990 C   0  0  0  0  0  0  0  0  0  0  0  0
   50.7580   72.4260   32.7080 N   0  0  0  0  0  0  0  0  0  0  0  0
   50.3090   71.2130   33.1010 C   0  0  0  0  0  0  0  0  0  0  0  0
   52.9260   70.0030   35.3060 N   0  0  0  0  0  0  0  0  0  0  0  0
   45.5298   68.3153   30.1377 H   0  0  0  0  0  0  0  0  0  0  0  0
   43.4345   66.8998   30.1813 H   0  0  0  0  0  0  0  0  0  0  0  0
   41.3991   67.8051   31.2742 H   0  0  0  0  0  0  0  0  0  0  0  0
   41.3920   70.0570   32.3193 H   0  0  0  0  0  0  0  0  0  0  0  0
   43.4784   75.6320   30.4849 H   0  0  0  0  0  0  0  0  0  0  0  0
   44.9913   75.1404   31.1893 H   0  0  0  0  0  0  0  0  0  0  0  0
   45.0784   77.2720   32.5847 H   0  0  0  0  0  0  0  0  0  0  0  0
   44.7233   77.8153   30.9873 H   0  0  0  0  0  0  0  0  0  0  0  0
   42.9322   78.4767   32.8371 H   0  0  0  0  0  0  0  0  0  0  0  0
   42.2007   77.6840   31.4707 H   0  0  0  0  0  0  0  0  0  0  0  0
   41.5381   76.1628   33.2049 H   0  0  0  0  0  0  0  0  0  0  0  0
   42.9325   76.5328   34.2177 H   0  0  0  0  0  0  0  0  0  0  0  0
   47.4398   73.2884   29.5290 H   0  0  0  0  0  0  0  0  0  0  0  0
   45.2084   72.0725   29.5684 H   0  0  0  0  0  0  0  0  0  0  0  0
   48.2890   68.7380   33.2487 H   0  0  0  0  0  0  0  0  0  0  0  0
   52.3459   73.8135   32.8927 H   0  0  0  0  0  0  0  0  0  0  0  0
   53.8375   70.2937   35.6875 H   0  0  0  0  0  0  0  0  0  0  0  0
   52.5269   69.0895   35.5652 H   0  0  0  0  0  0  0  0  0  0  0  0
  1  6  2  0
  2  3  2  0
  2  1  1  0
  3  4  1  0
  4  5  2  0
  6  5  1  0
  6  7  1  0
  7  8  2  0
  8  9  1  0
 10  9  1  0
 11  7  1  0
 11 10  2  0
 12 10  1  0
 12 16  1  0
 13 14  1  0
 13 12  1  0
 14 15  1  0
 15 16  1  0
 17 18  2  0
 17 22  1  0
 18 19  1  0
 19  1  1  0
 19 20  2  0
 21 20  1  0
 21 23  1  0
 22 21  2  0
 23 31  1  0
 23 24  1  0
 24 25  2  0
 26 25  1  0
 26 27  2  0
 27 32  1  0
 28 27  1  0
 29 28  2  0
 30 31  2  0
 30 29  1  0
 31 26  1  0
  2 33  1  0
  3 34  1  0
  4 35  1  0
  5 36  1  0
 13 37  1  0
 13 38  1  0
 14 39  1  0
 14 40  1  0
 15 41  1  0
 15 42  1  0
 16 43  1  0
 16 44  1  0
 17 45  1  0
 18 46  1  0
 24 47  1  0
 29 48  1  0
 32 49  1  0
 32 50  1  0
M  END
>  <Score>  (1) 
-7.69745

$$$$
