
     RDKit          3D

 55 60  0  0  0  0  0  0  0  0999 V2000
   54.2870   72.9640   33.6210 N   0  0  0  0  0  0  0  0  0  0  0  0
   53.4220   74.0120   33.5860 C   0  0  0  0  0  0  0  0  0  0  0  0
   52.1900   73.4860   33.7120 N   0  0  0  0  0  0  0  0  0  0  0  0
   52.2990   72.1570   33.8200 C   0  0  0  0  0  0  0  0  0  0  0  0
   51.3020   71.2080   33.9670 C   0  0  0  0  0  0  0  0  0  0  0  0
   51.7030   69.9250   34.0520 N   0  0  0  0  0  0  0  0  0  0  0  0
   52.9980   69.5650   34.0000 C   0  0  0  0  0  0  0  0  0  0  0  0
   53.9550   70.5170   33.8550 N   0  0  0  0  0  0  0  0  0  0  0  0
   53.6260   71.8160   33.7630 C   0  0  0  0  0  0  0  0  0  0  0  0
   53.2800   68.1040   34.1090 C   0  0  0  0  0  0  0  0  0  0  0  0
   54.7900   67.8880   34.1750 C   0  0  0  0  0  0  0  0  0  0  0  0
   55.1480   66.9500   33.0840 C   0  0  0  0  0  0  0  0  0  0  0  0
   56.2940   67.1770   32.3490 C   0  0  0  0  0  0  0  0  0  0  0  0
   56.5340   66.2310   31.3470 C   0  0  0  0  0  0  0  0  0  0  0  0
   55.6700   65.1690   31.1400 C   0  0  0  0  0  0  0  0  0  0  0  0
   54.5440   65.0000   31.9070 C   0  0  0  0  0  0  0  0  0  0  0  0
   54.3160   65.9170   32.8750 N   0  0  0  0  0  0  0  0  0  0  0  0
   49.9420   71.4690   34.0330 O   0  0  0  0  0  0  0  0  0  0  0  0
   48.9970   70.6280   33.5000 C   0  0  0  0  0  0  0  0  0  0  0  0
   48.7480   69.5920   34.1810 O   0  0  0  0  0  0  0  0  0  0  0  0
   47.9800   72.2710   30.4070 C   0  0  0  0  0  0  0  0  0  0  0  0
   47.0480   71.4080   29.8840 C   0  0  0  0  0  0  0  0  0  0  0  0
   46.7370   70.2340   30.5670 C   0  0  0  0  0  0  0  0  0  0  0  0
   47.4060   70.0190   31.7590 N   0  0  0  0  0  0  0  0  0  0  0  0
   48.3200   70.8880   32.2510 C   0  0  0  0  0  0  0  0  0  0  0  0
   48.5730   71.9780   31.5590 N   0  0  0  0  0  0  0  0  0  0  0  0
   45.7560   69.2220   30.2590 C   0  0  0  0  0  0  0  0  0  0  0  0
   46.1230   68.2600   29.3060 C   0  0  0  0  0  0  0  0  0  0  0  0
   45.3170   67.2310   28.8810 C   0  0  0  0  0  0  0  0  0  0  0  0
   44.0510   67.1040   29.4060 C   0  0  0  0  0  0  0  0  0  0  0  0
   43.6280   68.0160   30.3440 C   0  0  0  0  0  0  0  0  0  0  0  0
   42.3560   67.9270   30.8550 C   0  0  0  0  0  0  0  0  0  0  0  0
   41.8580   68.8490   31.7810 C   0  0  0  0  0  0  0  0  0  0  0  0
   42.7460   69.8630   32.1470 C   0  0  0  0  0  0  0  0  0  0  0  0
   44.0110   69.9170   31.6140 C   0  0  0  0  0  0  0  0  0  0  0  0
   44.4880   69.0140   30.7150 C   0  0  0  0  0  0  0  0  0  0  0  0
   55.3111   73.0460   33.5479 H   0  0  0  0  0  0  0  0  0  0  0  0
   53.6778   75.0762   33.4766 H   0  0  0  0  0  0  0  0  0  0  0  0
   52.8111   67.7058   35.0209 H   0  0  0  0  0  0  0  0  0  0  0  0
   52.8699   67.5819   33.2320 H   0  0  0  0  0  0  0  0  0  0  0  0
   55.3139   68.8452   34.0358 H   0  0  0  0  0  0  0  0  0  0  0  0
   55.0830   67.4787   35.1531 H   0  0  0  0  0  0  0  0  0  0  0  0
   56.9626   68.0304   32.5356 H   0  0  0  0  0  0  0  0  0  0  0  0
   57.4260   66.3327   30.7114 H   0  0  0  0  0  0  0  0  0  0  0  0
   55.8909   64.4441   30.3427 H   0  0  0  0  0  0  0  0  0  0  0  0
   53.8577   64.1564   31.7418 H   0  0  0  0  0  0  0  0  0  0  0  0
   48.2339   73.1996   29.8748 H   0  0  0  0  0  0  0  0  0  0  0  0
   46.5501   71.6424   28.9316 H   0  0  0  0  0  0  0  0  0  0  0  0
   47.1289   68.3347   28.8671 H   0  0  0  0  0  0  0  0  0  0  0  0
   45.6803   66.5157   28.1284 H   0  0  0  0  0  0  0  0  0  0  0  0
   43.3895   66.2875   29.0810 H   0  0  0  0  0  0  0  0  0  0  0  0
   41.7071   67.1025   30.5246 H   0  0  0  0  0  0  0  0  0  0  0  0
   40.8398   68.7805   32.1917 H   0  0  0  0  0  0  0  0  0  0  0  0
   42.4285   70.6279   32.8710 H   0  0  0  0  0  0  0  0  0  0  0  0
   44.6745   70.7350   31.9314 H   0  0  0  0  0  0  0  0  0  0  0  0
  1  9  1  0
  2  1  1  0
  2  3  2  0
  3  4  1  0
  4  5  1  0
  5 18  1  0
  5  6  2  0
  7  6  1  0
  7 10  1  0
  8  7  2  0
  9  4  2  0
  9  8  1  0
 10 11  1  0
 12 11  1  0
 13 12  2  0
 14 13  1  0
 15 14  2  0
 15 16  1  0
 16 17  2  0
 17 12  1  0
 19 18  1  0
 19 20  2  0
 21 26  2  0
 22 21  1  0
 22 23  2  0
 23 24  1  0
 24 25  2  0
 25 19  1  0
 26 25  1  0
 27 23  1  0
 27 36  1  0
 28 27  2  0
 29 28  1  0
 29 30  2  0
 30 31  1  0
 31 36  2  0
 31 32  1  0
 32 33  2  0
 33 34  1  0
 35 34  2  0
 36 35  1  0
  1 37  1  0
  2 38  1  0
 10 39  1  0
 10 40  1  0
 11 41  1  0
 11 42  1  0
 13 43  1  0
 14 44  1  0
 15 45  1  0
 16 46  1  0
 21 47  1  0
 22 48  1  0
 28 49  1  0
 29 50  1  0
 30 51  1  0
 32 52  1  0
 33 53  1  0
 34 54  1  0
 35 55  1  0
M  END
>  <Score>  (1) 
-7.6434

$$$$
