
     RDKit          3D

 45 49  0  0  0  0  0  0  0  0999 V2000
   44.7140   70.1390   31.2790 C   0  0  0  0  0  0  0  0  0  0  0  0
   44.7870   68.8660   30.7770 C   0  0  0  0  0  0  0  0  0  0  0  0
   43.5920   68.1780   30.8120 C   0  0  0  0  0  0  0  0  0  0  0  0
   42.4570   68.6950   31.2890 N   0  0  0  0  0  0  0  0  0  0  0  0
   42.4640   69.9690   31.7710 C   0  0  0  0  0  0  0  0  0  0  0  0
   43.5850   70.6940   31.7690 N   0  0  0  0  0  0  0  0  0  0  0  0
   43.4370   66.8360   30.3400 N   0  0  0  0  0  0  0  0  0  0  0  0
   42.9060   66.0270   31.2770 C   0  0  0  0  0  0  0  0  0  0  0  0
   42.6850   64.6850   30.9930 C   0  0  0  0  0  0  0  0  0  0  0  0
   43.0210   64.1960   29.7230 C   0  0  0  0  0  0  0  0  0  0  0  0
   42.8050   62.8310   29.4160 N   0  0  0  0  0  0  0  0  0  0  0  0
   43.5520   65.0680   28.8290 N   0  0  0  0  0  0  0  0  0  0  0  0
   43.7600   66.3580   29.1170 C   0  0  0  0  0  0  0  0  0  0  0  0
   44.2430   67.2070   28.3400 O   0  0  0  0  0  0  0  0  0  0  0  0
   47.1740   72.8930   30.6800 C   0  0  0  0  0  0  0  0  0  0  0  0
   45.9650   72.1660   30.6200 C   0  0  0  0  0  0  0  0  0  0  0  0
   45.9330   70.9520   31.2770 C   0  0  0  0  0  0  0  0  0  0  0  0
   47.0430   70.5690   31.9100 N   0  0  0  0  0  0  0  0  0  0  0  0
   48.2110   71.2520   31.9780 C   0  0  0  0  0  0  0  0  0  0  0  0
   48.2410   72.4310   31.3410 N   0  0  0  0  0  0  0  0  0  0  0  0
   49.2170   70.5400   32.7550 C   0  0  0  0  0  0  0  0  0  0  0  0
   49.0350   69.2590   33.1680 C   0  0  0  0  0  0  0  0  0  0  0  0
   49.9560   68.5450   33.9030 C   0  0  0  0  0  0  0  0  0  0  0  0
   51.1530   69.1190   34.2690 C   0  0  0  0  0  0  0  0  0  0  0  0
   51.3790   70.4190   33.8710 C   0  0  0  0  0  0  0  0  0  0  0  0
   52.5840   70.9740   34.2470 C   0  0  0  0  0  0  0  0  0  0  0  0
   52.8780   72.2700   33.8810 C   0  0  0  0  0  0  0  0  0  0  0  0
   51.9290   72.9680   33.1390 C   0  0  0  0  0  0  0  0  0  0  0  0
   50.7460   72.3520   32.7980 C   0  0  0  0  0  0  0  0  0  0  0  0
   50.4100   71.0640   33.1390 C   0  0  0  0  0  0  0  0  0  0  0  0
   45.7166   68.4312   30.3811 H   0  0  0  0  0  0  0  0  0  0  0  0
   41.5351   70.4056   32.1665 H   0  0  0  0  0  0  0  0  0  0  0  0
   42.6472   66.4291   32.2676 H   0  0  0  0  0  0  0  0  0  0  0  0
   42.2532   64.0169   31.7527 H   0  0  0  0  0  0  0  0  0  0  0  0
   43.0505   62.4676   28.4840 H   0  0  0  0  0  0  0  0  0  0  0  0
   42.4023   62.2012   30.1246 H   0  0  0  0  0  0  0  0  0  0  0  0
   47.2400   73.8651   30.1695 H   0  0  0  0  0  0  0  0  0  0  0  0
   45.0895   72.5490   30.0752 H   0  0  0  0  0  0  0  0  0  0  0  0
   48.0925   68.7599   32.8986 H   0  0  0  0  0  0  0  0  0  0  0  0
   49.7336   67.5093   34.1995 H   0  0  0  0  0  0  0  0  0  0  0  0
   51.8988   68.5623   34.8554 H   0  0  0  0  0  0  0  0  0  0  0  0
   53.3052   70.3869   34.8346 H   0  0  0  0  0  0  0  0  0  0  0  0
   53.8319   72.7378   34.1660 H   0  0  0  0  0  0  0  0  0  0  0  0
   52.1232   74.0049   32.8273 H   0  0  0  0  0  0  0  0  0  0  0  0
   50.0184   72.9318   32.2111 H   0  0  0  0  0  0  0  0  0  0  0  0
  1  6  2  0
  2  3  2  0
  2  1  1  0
  3  4  1  0
  4  5  2  0
  6  5  1  0
  7  3  1  0
  7  8  1  0
  9  8  2  0
 10  9  1  0
 11 10  1  0
 12 13  1  0
 12 10  2  0
 13  7  1  0
 14 13  2  0
 15 20  2  0
 16 15  1  0
 16 17  2  0
 17  1  1  0
 17 18  1  0
 18 19  2  0
 19 21  1  0
 20 19  1  0
 21 30  1  0
 21 22  2  0
 22 23  1  0
 23 24  2  0
 25 26  2  0
 25 24  1  0
 27 26  1  0
 28 27  2  0
 29 28  1  0
 29 30  2  0
 30 25  1  0
  2 31  1  0
  5 32  1  0
  8 33  1  0
  9 34  1  0
 11 35  1  0
 11 36  1  0
 15 37  1  0
 16 38  1  0
 22 39  1  0
 23 40  1  0
 24 41  1  0
 26 42  1  0
 27 43  1  0
 28 44  1  0
 29 45  1  0
M  END
>  <Score>  (1) 
-7.05812

$$$$
