
     RDKit          3D

 52 56  0  0  0  0  0  0  0  0999 V2000
   46.7300   70.9960   30.0390 C   0  0  0  0  0  0  0  0  0  0  0  0
   47.7320   71.9740   30.0740 C   0  0  0  0  0  0  0  0  0  0  0  0
   47.1920   73.1660   30.5040 C   0  0  0  0  0  0  0  0  0  0  0  0
   45.8740   72.8550   30.7140 C   0  0  0  0  0  0  0  0  0  0  0  0
   45.6140   71.5710   30.4360 O   0  0  0  0  0  0  0  0  0  0  0  0
   48.3370   69.1790   29.3480 C   0  0  0  0  0  0  0  0  0  0  0  0
   47.0490   69.6440   29.6150 C   0  0  0  0  0  0  0  0  0  0  0  0
   45.9290   68.7950   29.4840 C   0  0  0  0  0  0  0  0  0  0  0  0
   46.1710   67.4960   29.0820 N   0  0  0  0  0  0  0  0  0  0  0  0
   47.4300   67.0750   28.8310 C   0  0  0  0  0  0  0  0  0  0  0  0
   48.5050   67.9090   28.9630 N   0  0  0  0  0  0  0  0  0  0  0  0
   47.6970   65.7360   28.4150 N   0  0  0  0  0  0  0  0  0  0  0  0
   46.7350   64.9620   27.6610 C   0  0  0  0  0  0  0  0  0  0  0  0
   47.5850   64.0200   26.7850 C   0  0  0  0  0  0  0  0  0  0  0  0
   48.7190   64.7040   26.3860 O   0  0  0  0  0  0  0  0  0  0  0  0
   49.6470   64.9000   27.3940 C   0  0  0  0  0  0  0  0  0  0  0  0
   48.9490   65.0990   28.7360 C   0  0  0  0  0  0  0  0  0  0  0  0
   44.8220   73.6980   31.1670 N   0  0  0  0  0  0  0  0  0  0  0  0
   43.5650   73.3700   31.4260 C   0  0  0  0  0  0  0  0  0  0  0  0
   42.9000   74.5030   31.8350 C   0  0  0  0  0  0  0  0  0  0  0  0
   43.8480   75.4860   31.7920 N   0  0  0  0  0  0  0  0  0  0  0  0
   45.0200   74.9940   31.3840 C   0  0  0  0  0  0  0  0  0  0  0  0
   46.1420   75.8570   31.2720 N   0  0  0  0  0  0  0  0  0  0  0  0
   41.5290   74.5910   32.2110 N   0  0  0  0  0  0  0  0  0  0  0  0
   40.8750   73.4150   32.1760 C   0  0  0  0  0  0  0  0  0  0  0  0
   39.5250   73.3990   32.5280 C   0  0  0  0  0  0  0  0  0  0  0  0
   38.7770   72.1250   32.5020 C   0  0  0  0  0  0  0  0  0  0  0  0
   38.9770   74.6150   32.8860 C   0  0  0  0  0  0  0  0  0  0  0  0
   37.7450   74.5330   33.1950 O   0  0  0  0  0  0  0  0  0  0  0  0
   39.6540   75.7760   32.9130 N   0  0  0  0  0  0  0  0  0  0  0  0
   40.9740   75.7660   32.5630 C   0  0  0  0  0  0  0  0  0  0  0  0
   41.6380   76.8300   32.5760 O   0  0  0  0  0  0  0  0  0  0  0  0
   48.7856   71.8150   29.8008 H   0  0  0  0  0  0  0  0  0  0  0  0
   47.6965   74.1333   30.6447 H   0  0  0  0  0  0  0  0  0  0  0  0
   49.2036   69.8484   29.4528 H   0  0  0  0  0  0  0  0  0  0  0  0
   44.9096   69.1518   29.6926 H   0  0  0  0  0  0  0  0  0  0  0  0
   46.0882   64.3835   28.3370 H   0  0  0  0  0  0  0  0  0  0  0  0
   46.0697   65.5993   27.0600 H   0  0  0  0  0  0  0  0  0  0  0  0
   47.8719   63.1305   27.3651 H   0  0  0  0  0  0  0  0  0  0  0  0
   47.0083   63.6966   25.9059 H   0  0  0  0  0  0  0  0  0  0  0  0
   50.3048   64.0205   27.4557 H   0  0  0  0  0  0  0  0  0  0  0  0
   50.2356   65.8003   27.1637 H   0  0  0  0  0  0  0  0  0  0  0  0
   49.5523   65.7419   29.3939 H   0  0  0  0  0  0  0  0  0  0  0  0
   48.8037   64.1488   29.2708 H   0  0  0  0  0  0  0  0  0  0  0  0
   43.1281   72.3650   31.3305 H   0  0  0  0  0  0  0  0  0  0  0  0
   46.0482   76.8563   31.5032 H   0  0  0  0  0  0  0  0  0  0  0  0
   47.0497   75.4837   30.9596 H   0  0  0  0  0  0  0  0  0  0  0  0
   41.3914   72.4907   31.8777 H   0  0  0  0  0  0  0  0  0  0  0  0
   38.5821   71.7931   33.5325 H   0  0  0  0  0  0  0  0  0  0  0  0
   37.8215   72.2715   31.9771 H   0  0  0  0  0  0  0  0  0  0  0  0
   39.3705   71.3620   31.9771 H   0  0  0  0  0  0  0  0  0  0  0  0
   39.1885   76.6518   33.1909 H   0  0  0  0  0  0  0  0  0  0  0  0
  1  2  2  0
  1  5  1  0
  2  3  1  0
  3  4  2  0
  4 18  1  0
  5  4  1  0
  6  7  2  0
  7  1  1  0
  8  7  1  0
  9  8  2  0
 10 11  2  0
 10  9  1  0
 11  6  1  0
 12 17  1  0
 12 10  1  0
 13 12  1  0
 14 13  1  0
 15 14  1  0
 15 16  1  0
 16 17  1  0
 18 22  1  0
 18 19  1  0
 19 20  2  0
 20 24  1  0
 21 20  1  0
 22 21  2  0
 23 22  1  0
 24 31  1  0
 25 24  1  0
 25 26  2  0
 26 28  1  0
 27 26  1  0
 28 30  1  0
 28 29  2  0
 31 32  2  0
 31 30  1  0
  2 33  1  0
  3 34  1  0
  6 35  1  0
  8 36  1  0
 13 37  1  0
 13 38  1  0
 14 39  1  0
 14 40  1  0
 16 41  1  0
 16 42  1  0
 17 43  1  0
 17 44  1  0
 19 45  1  0
 23 46  1  0
 23 47  1  0
 25 48  1  0
 27 49  1  0
 27 50  1  0
 27 51  1  0
 30 52  1  0
M  END
>  <Score>  (1) 
-7.52342

$$$$
