
     RDKit          3D

 43 47  0  0  0  0  0  0  0  0999 V2000
   44.3040   71.3550   31.7970 N   0  0  0  0  0  0  0  0  0  0  0  0
   43.3730   72.0130   32.5130 C   0  0  0  0  0  0  0  0  0  0  0  0
   42.2890   71.2250   32.6000 N   0  0  0  0  0  0  0  0  0  0  0  0
   42.5520   70.0950   31.9440 C   0  0  0  0  0  0  0  0  0  0  0  0
   41.7490   68.9770   31.7510 C   0  0  0  0  0  0  0  0  0  0  0  0
   42.3000   67.9790   31.0350 N   0  0  0  0  0  0  0  0  0  0  0  0
   43.5440   68.0290   30.5240 C   0  0  0  0  0  0  0  0  0  0  0  0
   44.3180   69.1180   30.7150 N   0  0  0  0  0  0  0  0  0  0  0  0
   43.8250   70.1550   31.4270 C   0  0  0  0  0  0  0  0  0  0  0  0
   43.8670   66.8260   29.8070 N   0  0  0  0  0  0  0  0  0  0  0  0
   43.1150   65.7160   29.9530 C   0  0  0  0  0  0  0  0  0  0  0  0
   43.4740   64.5730   29.2320 C   0  0  0  0  0  0  0  0  0  0  0  0
   42.6550   63.3330   29.3790 C   0  0  0  0  0  0  0  0  0  0  0  0
   44.5920   64.6530   28.4020 C   0  0  0  0  0  0  0  0  0  0  0  0
   44.8290   63.5640   27.7950 O   0  0  0  0  0  0  0  0  0  0  0  0
   45.3130   65.7870   28.2890 N   0  0  0  0  0  0  0  0  0  0  0  0
   44.9500   66.8830   28.9950 C   0  0  0  0  0  0  0  0  0  0  0  0
   45.6440   67.9380   28.8720 O   0  0  0  0  0  0  0  0  0  0  0  0
   45.6360   71.7410   31.4110 C   0  0  0  0  0  0  0  0  0  0  0  0
   45.8260   72.6010   30.3350 C   0  0  0  0  0  0  0  0  0  0  0  0
   47.1560   72.9460   30.0010 C   0  0  0  0  0  0  0  0  0  0  0  0
   48.1610   72.4120   30.7570 N   0  0  0  0  0  0  0  0  0  0  0  0
   47.9240   71.5820   31.7930 C   0  0  0  0  0  0  0  0  0  0  0  0
   46.6630   71.2480   32.1190 N   0  0  0  0  0  0  0  0  0  0  0  0
   48.9590   71.0310   32.5780 N   0  0  0  0  0  0  0  0  0  0  0  0
   50.0770   71.7880   32.6880 C   0  0  0  0  0  0  0  0  0  0  0  0
   50.9810   71.0800   33.4980 C   0  0  0  0  0  0  0  0  0  0  0  0
   50.3760   69.9140   33.8500 N   0  0  0  0  0  0  0  0  0  0  0  0
   49.1420   69.8890   33.2850 C   0  0  0  0  0  0  0  0  0  0  0  0
   43.4809   73.0171   32.9490 H   0  0  0  0  0  0  0  0  0  0  0  0
   41.4838   68.5765   32.7406 H   0  0  0  0  0  0  0  0  0  0  0  0
   40.8859   69.3254   31.1648 H   0  0  0  0  0  0  0  0  0  0  0  0
   45.2700   69.1579   30.3239 H   0  0  0  0  0  0  0  0  0  0  0  0
   42.2418   65.7100   30.6220 H   0  0  0  0  0  0  0  0  0  0  0  0
   42.5102   63.1137   30.4471 H   0  0  0  0  0  0  0  0  0  0  0  0
   41.6763   63.4809   28.8991 H   0  0  0  0  0  0  0  0  0  0  0  0
   43.1752   62.4909   28.8991 H   0  0  0  0  0  0  0  0  0  0  0  0
   46.1350   65.8188   27.6691 H   0  0  0  0  0  0  0  0  0  0  0  0
   44.9733   72.9982   29.7648 H   0  0  0  0  0  0  0  0  0  0  0  0
   47.3742   73.6216   29.1608 H   0  0  0  0  0  0  0  0  0  0  0  0
   50.2457   72.7732   32.2288 H   0  0  0  0  0  0  0  0  0  0  0  0
   51.9891   71.4075   33.7922 H   0  0  0  0  0  0  0  0  0  0  0  0
   48.4095   69.0744   33.3847 H   0  0  0  0  0  0  0  0  0  0  0  0
  1  2  1  0
  2  3  2  0
  4  3  1  0
  5  4  1  0
  6  5  1  0
  7  8  1  0
  7  6  2  0
  8  9  1  0
  9  1  1  0
  9  4  2  0
 10 11  1  0
 10  7  1  0
 12 13  1  0
 12 11  2  0
 14 12  1  0
 15 14  2  0
 16 14  1  0
 16 17  1  0
 17 10  1  0
 18 17  2  0
 19  1  1  0
 19 24  1  0
 20 19  2  0
 21 20  1  0
 21 22  2  0
 22 23  1  0
 23 24  2  0
 23 25  1  0
 25 26  1  0
 25 29  1  0
 26 27  2  0
 27 28  1  0
 29 28  2  0
  2 30  1  0
  5 31  1  0
  5 32  1  0
  8 33  1  0
 11 34  1  0
 13 35  1  0
 13 36  1  0
 13 37  1  0
 16 38  1  0
 20 39  1  0
 21 40  1  0
 26 41  1  0
 27 42  1  0
 29 43  1  0
M  END
>  <Score>  (1) 
-7.16852

$$$$
