
     RDKit          3D

 36 39  0  0  0  0  0  0  0  0999 V2000
   47.8170   68.2650   29.1210 C   0  0  0  0  0  0  0  0  0  0  0  0
   48.9450   67.5300   28.9960 C   0  0  0  0  0  0  0  0  0  0  0  0
   48.6060   66.2420   28.6520 C   0  0  0  0  0  0  0  0  0  0  0  0
   47.1880   66.2630   28.5810 C   0  0  0  0  0  0  0  0  0  0  0  0
   46.8020   67.4550   28.8610 O   0  0  0  0  0  0  0  0  0  0  0  0
   46.3480   65.0960   28.2410 C   0  0  0  0  0  0  0  0  0  0  0  0
   46.6600   64.3870   27.0510 C   0  0  0  0  0  0  0  0  0  0  0  0
   45.4340   63.0750   27.0070 S   0  0  0  0  0  0  0  0  0  0  0  0
   44.6660   63.6990   28.6450 C   0  0  0  0  0  0  0  0  0  0  0  0
   45.3240   64.6020   28.8960 N   0  0  0  0  0  0  0  0  0  0  0  0
   43.5010   63.1730   29.4340 N   0  0  0  0  0  0  0  0  0  0  0  0
   43.5830   63.4920   30.7140 C   0  0  0  0  0  0  0  0  0  0  0  0
   42.5490   63.0480   31.5070 C   0  0  0  0  0  0  0  0  0  0  0  0
   41.5680   62.3300   30.8630 C   0  0  0  0  0  0  0  0  0  0  0  0
   40.4560   61.8240   31.5770 N   0  0  0  0  0  0  0  0  0  0  0  0
   41.5900   62.0630   29.5440 N   0  0  0  0  0  0  0  0  0  0  0  0
   42.5890   62.4880   28.7500 C   0  0  0  0  0  0  0  0  0  0  0  0
   42.7370   62.3140   27.5160 O   0  0  0  0  0  0  0  0  0  0  0  0
   46.4880   71.7440   29.6930 C   0  0  0  0  0  0  0  0  0  0  0  0
   46.4940   70.3900   29.3190 C   0  0  0  0  0  0  0  0  0  0  0  0
   47.6710   69.6810   29.4710 C   0  0  0  0  0  0  0  0  0  0  0  0
   48.7660   70.3300   29.9740 N   0  0  0  0  0  0  0  0  0  0  0  0
   48.7210   71.6330   30.3220 C   0  0  0  0  0  0  0  0  0  0  0  0
   47.6070   72.3200   30.1840 N   0  0  0  0  0  0  0  0  0  0  0  0
   49.9260   72.1300   30.8190 N   0  0  0  0  0  0  0  0  0  0  0  0
   49.9693   67.9022   29.1454 H   0  0  0  0  0  0  0  0  0  0  0  0
   49.2792   65.3907   28.4729 H   0  0  0  0  0  0  0  0  0  0  0  0
   47.4625   64.5926   26.3273 H   0  0  0  0  0  0  0  0  0  0  0  0
   44.4233   64.0747   31.1195 H   0  0  0  0  0  0  0  0  0  0  0  0
   42.5097   63.2542   32.5868 H   0  0  0  0  0  0  0  0  0  0  0  0
   39.7279   61.2878   31.0837 H   0  0  0  0  0  0  0  0  0  0  0  0
   40.3747   61.9918   32.5900 H   0  0  0  0  0  0  0  0  0  0  0  0
   45.5683   72.3378   29.5856 H   0  0  0  0  0  0  0  0  0  0  0  0
   45.5900   69.9087   28.9176 H   0  0  0  0  0  0  0  0  0  0  0  0
   49.9949   73.1148   31.1127 H   0  0  0  0  0  0  0  0  0  0  0  0
   50.7468   71.5121   30.8923 H   0  0  0  0  0  0  0  0  0  0  0  0
  1 21  1  0
  2  1  2  0
  3  2  1  0
  4  3  2  0
  4  5  1  0
  5  1  1  0
  6  4  1  0
  6 10  1  0
  7  6  2  0
  8  7  1  0
  8  9  1  0
  9 10  2  0
  9 11  1  0
 11 12  1  0
 12 13  2  0
 14 13  1  0
 14 15  1  0
 16 14  2  0
 17 11  1  0
 17 16  1  0
 18 17  2  0
 19 24  2  0
 20 21  2  0
 20 19  1  0
 21 22  1  0
 22 23  2  0
 23 25  1  0
 24 23  1  0
  2 26  1  0
  3 27  1  0
  7 28  1  0
 12 29  1  0
 13 30  1  0
 15 31  1  0
 15 32  1  0
 19 33  1  0
 20 34  1  0
 25 35  1  0
 25 36  1  0
M  END
>  <Score>  (1) 
-7.08365

$$$$
