
     RDKit          3D

 46 51  0  0  0  0  0  0  0  0999 V2000
   45.0780   71.2380   31.2380 C   0  0  0  0  0  0  0  0  0  0  0  0
   46.1810   70.9280   30.4800 C   0  0  0  0  0  0  0  0  0  0  0  0
   46.9800   71.9520   30.0630 C   0  0  0  0  0  0  0  0  0  0  0  0
   46.7060   73.2770   30.3830 C   0  0  0  0  0  0  0  0  0  0  0  0
   45.5820   73.5480   31.1500 C   0  0  0  0  0  0  0  0  0  0  0  0
   44.7990   72.5230   31.5570 N   0  0  0  0  0  0  0  0  0  0  0  0
   45.1350   74.8920   31.5840 C   0  0  0  0  0  0  0  0  0  0  0  0
   45.5170   76.0850   31.1100 N   0  0  0  0  0  0  0  0  0  0  0  0
   44.9130   77.0410   31.7300 O   0  0  0  0  0  0  0  0  0  0  0  0
   44.1120   76.5410   32.6320 C   0  0  0  0  0  0  0  0  0  0  0  0
   44.2520   75.2130   32.5390 N   0  0  0  0  0  0  0  0  0  0  0  0
   43.2400   77.1650   33.5630 N   0  0  0  0  0  0  0  0  0  0  0  0
   41.8880   77.0780   33.3670 C   0  0  0  0  0  0  0  0  0  0  0  0
   41.2080   77.7210   34.3330 N   0  0  0  0  0  0  0  0  0  0  0  0
   42.1810   78.2210   35.1550 C   0  0  0  0  0  0  0  0  0  0  0  0
   43.3940   77.8750   34.6710 N   0  0  0  0  0  0  0  0  0  0  0  0
   42.7050   69.3460   33.3010 C   0  0  0  0  0  0  0  0  0  0  0  0
   42.5690   68.1460   32.5710 C   0  0  0  0  0  0  0  0  0  0  0  0
   43.2840   67.9810   31.3750 C   0  0  0  0  0  0  0  0  0  0  0  0
   44.0670   69.0230   31.0130 N   0  0  0  0  0  0  0  0  0  0  0  0
   44.1900   70.1530   31.7100 C   0  0  0  0  0  0  0  0  0  0  0  0
   43.5090   70.3100   32.8500 N   0  0  0  0  0  0  0  0  0  0  0  0
   43.2510   66.8560   30.4910 C   0  0  0  0  0  0  0  0  0  0  0  0
   43.5530   66.9740   29.1300 C   0  0  0  0  0  0  0  0  0  0  0  0
   43.4820   65.7980   28.5130 N   0  0  0  0  0  0  0  0  0  0  0  0
   43.1410   64.8490   29.3860 C   0  0  0  0  0  0  0  0  0  0  0  0
   42.9360   63.4860   29.3080 C   0  0  0  0  0  0  0  0  0  0  0  0
   42.5910   62.7360   30.4340 C   0  0  0  0  0  0  0  0  0  0  0  0
   42.4610   63.4270   31.6410 C   0  0  0  0  0  0  0  0  0  0  0  0
   42.6720   64.7800   31.6730 C   0  0  0  0  0  0  0  0  0  0  0  0
   43.0070   65.5160   30.5820 C   0  0  0  0  0  0  0  0  0  0  0  0
   46.4129   69.8853   30.2172 H   0  0  0  0  0  0  0  0  0  0  0  0
   47.8677   71.7225   29.4553 H   0  0  0  0  0  0  0  0  0  0  0  0
   47.3628   74.0888   30.0373 H   0  0  0  0  0  0  0  0  0  0  0  0
   41.6381   77.5270   32.3944 H   0  0  0  0  0  0  0  0  0  0  0  0
   41.6030   76.0159   33.3925 H   0  0  0  0  0  0  0  0  0  0  0  0
   42.0036   78.8114   36.0660 H   0  0  0  0  0  0  0  0  0  0  0  0
   44.2979   78.1244   35.0971 H   0  0  0  0  0  0  0  0  0  0  0  0
   42.1492   69.4861   34.2399 H   0  0  0  0  0  0  0  0  0  0  0  0
   41.9079   67.3465   32.9366 H   0  0  0  0  0  0  0  0  0  0  0  0
   43.8158   67.9196   28.6332 H   0  0  0  0  0  0  0  0  0  0  0  0
   43.6632   65.6432   27.5110 H   0  0  0  0  0  0  0  0  0  0  0  0
   43.0469   62.9799   28.3377 H   0  0  0  0  0  0  0  0  0  0  0  0
   42.4288   61.6497   30.3734 H   0  0  0  0  0  0  0  0  0  0  0  0
   42.1907   62.8875   32.5607 H   0  0  0  0  0  0  0  0  0  0  0  0
   42.5640   65.2996   32.6365 H   0  0  0  0  0  0  0  0  0  0  0  0
  1  6  1  0
  1 21  1  0
  2  1  2  0
  3  4  2  0
  3  2  1  0
  4  5  1  0
  5  6  2  0
  5  7  1  0
  7 11  1  0
  8  7  2  0
  8  9  1  0
  9 10  1  0
 10 12  1  0
 11 10  2  0
 12 16  1  0
 13 12  1  0
 13 14  1  0
 14 15  2  0
 16 15  1  0
 18 17  2  0
 19 18  1  0
 20 19  2  0
 20 21  1  0
 21 22  2  0
 22 17  1  0
 23 31  1  0
 23 19  1  0
 24 23  2  0
 25 24  1  0
 25 26  1  0
 26 31  2  0
 27 26  1  0
 27 28  2  0
 28 29  1  0
 29 30  2  0
 31 30  1  0
  2 32  1  0
  3 33  1  0
  4 34  1  0
 13 35  1  0
 13 36  1  0
 15 37  1  0
 16 38  1  0
 17 39  1  0
 18 40  1  0
 24 41  1  0
 25 42  1  0
 27 43  1  0
 28 44  1  0
 29 45  1  0
 30 46  1  0
M  END
>  <Score>  (1) 
-7.41569

$$$$
