
     RDKit          3D

 53 58  0  0  0  0  0  0  0  0999 V2000
   46.5560   71.2080   30.0660 C   0  0  0  0  0  0  0  0  0  0  0  0
   47.5180   72.2220   29.9970 C   0  0  0  0  0  0  0  0  0  0  0  0
   46.9560   73.3960   30.4280 C   0  0  0  0  0  0  0  0  0  0  0  0
   45.6590   73.0340   30.7430 C   0  0  0  0  0  0  0  0  0  0  0  0
   45.4450   71.7490   30.5240 O   0  0  0  0  0  0  0  0  0  0  0  0
   48.1860   69.4060   29.3970 C   0  0  0  0  0  0  0  0  0  0  0  0
   46.8750   69.8420   29.6660 C   0  0  0  0  0  0  0  0  0  0  0  0
   45.7860   68.9660   29.5630 C   0  0  0  0  0  0  0  0  0  0  0  0
   46.0640   67.6750   29.1890 N   0  0  0  0  0  0  0  0  0  0  0  0
   47.3390   67.2820   28.9350 C   0  0  0  0  0  0  0  0  0  0  0  0
   48.3830   68.1330   29.0360 N   0  0  0  0  0  0  0  0  0  0  0  0
   47.6280   65.9440   28.5470 N   0  0  0  0  0  0  0  0  0  0  0  0
   46.6730   65.1250   27.8070 C   0  0  0  0  0  0  0  0  0  0  0  0
   47.5510   64.1600   27.0030 C   0  0  0  0  0  0  0  0  0  0  0  0
   48.6490   64.8630   26.5550 O   0  0  0  0  0  0  0  0  0  0  0  0
   49.5980   65.1230   27.5210 C   0  0  0  0  0  0  0  0  0  0  0  0
   48.9150   65.3380   28.8830 C   0  0  0  0  0  0  0  0  0  0  0  0
   44.6350   73.8700   31.2390 N   0  0  0  0  0  0  0  0  0  0  0  0
   43.3720   73.5140   31.5290 C   0  0  0  0  0  0  0  0  0  0  0  0
   42.7420   74.6550   31.9830 C   0  0  0  0  0  0  0  0  0  0  0  0
   43.6780   75.6480   31.9400 N   0  0  0  0  0  0  0  0  0  0  0  0
   44.8380   75.1680   31.4850 C   0  0  0  0  0  0  0  0  0  0  0  0
   45.9450   76.0350   31.3610 N   0  0  0  0  0  0  0  0  0  0  0  0
   41.3880   74.7730   32.4110 N   0  0  0  0  0  0  0  0  0  0  0  0
   40.7810   75.8170   33.0040 C   0  0  0  0  0  0  0  0  0  0  0  0
   39.4930   75.5110   33.2420 N   0  0  0  0  0  0  0  0  0  0  0  0
   39.2490   74.2640   32.8060 C   0  0  0  0  0  0  0  0  0  0  0  0
   38.0830   73.5340   32.8380 C   0  0  0  0  0  0  0  0  0  0  0  0
   37.0160   73.9940   33.3240 O   0  0  0  0  0  0  0  0  0  0  0  0
   38.0670   72.2860   32.3390 N   0  0  0  0  0  0  0  0  0  0  0  0
   39.2470   71.8750   31.8420 C   0  0  0  0  0  0  0  0  0  0  0  0
   39.3560   70.5760   31.2870 N   0  0  0  0  0  0  0  0  0  0  0  0
   40.4200   72.5500   31.7860 N   0  0  0  0  0  0  0  0  0  0  0  0
   40.4480   73.8190   32.2900 C   0  0  0  0  0  0  0  0  0  0  0  0
   48.5554   72.0975   29.6532 H   0  0  0  0  0  0  0  0  0  0  0  0
   47.4246   74.3882   30.5048 H   0  0  0  0  0  0  0  0  0  0  0  0
   49.0347   70.1006   29.4822 H   0  0  0  0  0  0  0  0  0  0  0  0
   44.7580   69.2971   29.7718 H   0  0  0  0  0  0  0  0  0  0  0  0
   46.0159   64.5734   28.4955 H   0  0  0  0  0  0  0  0  0  0  0  0
   46.0098   65.7251   27.1666 H   0  0  0  0  0  0  0  0  0  0  0  0
   47.8759   63.3273   27.6441 H   0  0  0  0  0  0  0  0  0  0  0  0
   46.9880   63.7449   26.1541 H   0  0  0  0  0  0  0  0  0  0  0  0
   50.2902   64.2709   27.5907 H   0  0  0  0  0  0  0  0  0  0  0  0
   50.1532   66.0323   27.2472 H   0  0  0  0  0  0  0  0  0  0  0  0
   49.5104   66.0125   29.5159 H   0  0  0  0  0  0  0  0  0  0  0  0
   48.8048   64.4027   29.4514 H   0  0  0  0  0  0  0  0  0  0  0  0
   42.9286   72.5127   31.4252 H   0  0  0  0  0  0  0  0  0  0  0  0
   45.8539   77.0272   31.6221 H   0  0  0  0  0  0  0  0  0  0  0  0
   46.8439   75.6755   31.0094 H   0  0  0  0  0  0  0  0  0  0  0  0
   41.2635   76.7731   33.2554 H   0  0  0  0  0  0  0  0  0  0  0  0
   37.2233   71.6952   32.3374 H   0  0  0  0  0  0  0  0  0  0  0  0
   40.2562   70.2534   30.9042 H   0  0  0  0  0  0  0  0  0  0  0  0
   38.5351   69.9543   31.2663 H   0  0  0  0  0  0  0  0  0  0  0  0
  1  5  1  0
  2  1  2  0
  2  3  1  0
  3  4  2  0
  4 18  1  0
  5  4  1  0
  6  7  2  0
  7  1  1  0
  8  7  1  0
  9  8  2  0
 10 11  2  0
 10  9  1  0
 11  6  1  0
 12 17  1  0
 12 10  1  0
 13 12  1  0
 14 13  1  0
 15 14  1  0
 15 16  1  0
 16 17  1  0
 18 22  1  0
 18 19  1  0
 19 20  2  0
 20 24  1  0
 21 20  1  0
 22 21  2  0
 23 22  1  0
 24 25  1  0
 25 26  2  0
 27 28  1  0
 27 26  1  0
 28 29  2  0
 30 28  1  0
 31 30  1  0
 32 31  1  0
 33 31  2  0
 33 34  1  0
 34 24  1  0
 34 27  2  0
  2 35  1  0
  3 36  1  0
  6 37  1  0
  8 38  1  0
 13 39  1  0
 13 40  1  0
 14 41  1  0
 14 42  1  0
 16 43  1  0
 16 44  1  0
 17 45  1  0
 17 46  1  0
 19 47  1  0
 23 48  1  0
 23 49  1  0
 25 50  1  0
 30 51  1  0
 32 52  1  0
 32 53  1  0
M  END
>  <Score>  (1) 
-7.89624

$$$$
