
     RDKit          3D

 45 49  0  0  0  0  0  0  0  0999 V2000
   45.0350   70.4160   31.4770 C   0  0  0  0  0  0  0  0  0  0  0  0
   46.2920   69.8780   31.5090 C   0  0  0  0  0  0  0  0  0  0  0  0
   47.3590   70.7280   31.6590 C   0  0  0  0  0  0  0  0  0  0  0  0
   47.1850   72.0930   31.7760 C   0  0  0  0  0  0  0  0  0  0  0  0
   45.9030   72.6090   31.7400 C   0  0  0  0  0  0  0  0  0  0  0  0
   44.8540   71.7530   31.5910 N   0  0  0  0  0  0  0  0  0  0  0  0
   41.5830   69.1980   31.4820 C   0  0  0  0  0  0  0  0  0  0  0  0
   41.7230   67.8820   30.9870 C   0  0  0  0  0  0  0  0  0  0  0  0
   43.0280   67.4100   30.6500 C   0  0  0  0  0  0  0  0  0  0  0  0
   44.0500   68.2760   30.8340 N   0  0  0  0  0  0  0  0  0  0  0  0
   43.8780   69.5150   31.3050 C   0  0  0  0  0  0  0  0  0  0  0  0
   42.6570   69.9770   31.6270 N   0  0  0  0  0  0  0  0  0  0  0  0
   43.2200   66.0990   30.1490 N   0  0  0  0  0  0  0  0  0  0  0  0
   42.9100   64.9140   30.6920 C   0  0  0  0  0  0  0  0  0  0  0  0
   43.2040   63.7730   29.9960 C   0  0  0  0  0  0  0  0  0  0  0  0
   42.8450   62.4790   30.6310 C   0  0  0  0  0  0  0  0  0  0  0  0
   43.8130   63.7830   28.7460 C   0  0  0  0  0  0  0  0  0  0  0  0
   44.0730   62.7260   28.1280 O   0  0  0  0  0  0  0  0  0  0  0  0
   44.1020   64.9940   28.2480 N   0  0  0  0  0  0  0  0  0  0  0  0
   43.8170   66.1350   28.9250 C   0  0  0  0  0  0  0  0  0  0  0  0
   44.1680   67.1860   28.2920 O   0  0  0  0  0  0  0  0  0  0  0  0
   45.5180   74.0300   31.8380 C   0  0  0  0  0  0  0  0  0  0  0  0
   45.9810   75.0540   31.0910 N   0  0  0  0  0  0  0  0  0  0  0  0
   45.4350   76.1670   31.4300 O   0  0  0  0  0  0  0  0  0  0  0  0
   44.5960   75.9500   32.3990 C   0  0  0  0  0  0  0  0  0  0  0  0
   44.6510   74.6300   32.6470 N   0  0  0  0  0  0  0  0  0  0  0  0
   43.7430   76.8260   33.1290 N   0  0  0  0  0  0  0  0  0  0  0  0
   42.3860   76.7560   32.9370 C   0  0  0  0  0  0  0  0  0  0  0  0
   41.7370   77.6510   33.7050 N   0  0  0  0  0  0  0  0  0  0  0  0
   42.7160   78.2860   34.3850 C   0  0  0  0  0  0  0  0  0  0  0  0
   43.9150   77.7750   34.0250 N   0  0  0  0  0  0  0  0  0  0  0  0
   46.4438   68.7924   31.4169 H   0  0  0  0  0  0  0  0  0  0  0  0
   48.3770   70.3122   31.6867 H   0  0  0  0  0  0  0  0  0  0  0  0
   48.0524   72.7588   31.8959 H   0  0  0  0  0  0  0  0  0  0  0  0
   40.5869   69.5812   31.7484 H   0  0  0  0  0  0  0  0  0  0  0  0
   40.8433   67.2332   30.8635 H   0  0  0  0  0  0  0  0  0  0  0  0
   42.4280   64.8593   31.6792 H   0  0  0  0  0  0  0  0  0  0  0  0
   42.8749   62.5868   31.7253 H   0  0  0  0  0  0  0  0  0  0  0  0
   41.8317   62.1861   30.3190 H   0  0  0  0  0  0  0  0  0  0  0  0
   43.5626   61.7059   30.3190 H   0  0  0  0  0  0  0  0  0  0  0  0
   44.5535   65.0601   27.3246 H   0  0  0  0  0  0  0  0  0  0  0  0
   42.1625   76.9620   31.8798 H   0  0  0  0  0  0  0  0  0  0  0  0
   42.0471   75.7476   33.2168 H   0  0  0  0  0  0  0  0  0  0  0  0
   42.5621   79.0925   35.1170 H   0  0  0  0  0  0  0  0  0  0  0  0
   44.8256   78.0820   34.3959 H   0  0  0  0  0  0  0  0  0  0  0  0
  1  2  2  0
  1  6  1  0
  2  3  1  0
  3  4  2  0
  5  4  1  0
  5 22  1  0
  6  5  2  0
  7 12  2  0
  8  7  1  0
  9 10  1  0
  9  8  2  0
 10 11  2  0
 11  1  1  0
 11 12  1  0
 13  9  1  0
 13 14  1  0
 15 16  1  0
 15 14  2  0
 17 15  1  0
 18 17  2  0
 19 17  1  0
 19 20  1  0
 20 13  1  0
 21 20  2  0
 22 26  1  0
 23 24  1  0
 23 22  2  0
 24 25  1  0
 25 26  2  0
 25 27  1  0
 27 31  1  0
 28 27  1  0
 28 29  1  0
 29 30  2  0
 31 30  1  0
  2 32  1  0
  3 33  1  0
  4 34  1  0
  7 35  1  0
  8 36  1  0
 14 37  1  0
 16 38  1  0
 16 39  1  0
 16 40  1  0
 19 41  1  0
 28 42  1  0
 28 43  1  0
 30 44  1  0
 31 45  1  0
M  END
>  <Score>  (1) 
-7.23686

$$$$
