
     RDKit          3D

 34 36  0  0  0  0  0  0  0  0999 V2000
   46.2770   70.4760   31.1190 N   0  0  0  0  0  0  0  0  0  0  0  0
   47.2930   69.9610   31.8480 C   0  0  0  0  0  0  0  0  0  0  0  0
   48.5100   70.6230   31.7440 C   0  0  0  0  0  0  0  0  0  0  0  0
   48.5640   71.7300   30.9140 C   0  0  0  0  0  0  0  0  0  0  0  0
   49.7900   72.4330   30.7810 N   0  0  0  0  0  0  0  0  0  0  0  0
   47.4980   72.1930   30.2080 N   0  0  0  0  0  0  0  0  0  0  0  0
   46.3220   71.5430   30.3170 C   0  0  0  0  0  0  0  0  0  0  0  0
   45.3100   71.9420   29.6780 O   0  0  0  0  0  0  0  0  0  0  0  0
   42.6950   69.7270   31.8660 C   0  0  0  0  0  0  0  0  0  0  0  0
   43.9020   70.4480   31.8390 C   0  0  0  0  0  0  0  0  0  0  0  0
   45.0080   69.8260   31.1980 C   0  0  0  0  0  0  0  0  0  0  0  0
   44.8200   68.6030   30.6700 N   0  0  0  0  0  0  0  0  0  0  0  0
   43.6420   67.9450   30.7190 C   0  0  0  0  0  0  0  0  0  0  0  0
   42.5810   68.5200   31.3220 N   0  0  0  0  0  0  0  0  0  0  0  0
   43.4890   66.6510   30.1460 N   0  0  0  0  0  0  0  0  0  0  0  0
   42.9100   65.7580   31.0000 C   0  0  0  0  0  0  0  0  0  0  0  0
   42.7080   64.4480   30.5490 C   0  0  0  0  0  0  0  0  0  0  0  0
   42.0840   63.4060   31.4080 C   0  0  0  0  0  0  0  0  0  0  0  0
   43.1060   64.1360   29.2640 C   0  0  0  0  0  0  0  0  0  0  0  0
   42.9720   63.0060   28.7660 O   0  0  0  0  0  0  0  0  0  0  0  0
   43.6790   65.0500   28.4400 N   0  0  0  0  0  0  0  0  0  0  0  0
   43.8690   66.3080   28.8870 C   0  0  0  0  0  0  0  0  0  0  0  0
   44.3980   67.2330   28.1890 O   0  0  0  0  0  0  0  0  0  0  0  0
   47.1638   69.0728   32.4840 H   0  0  0  0  0  0  0  0  0  0  0  0
   49.3959   70.2811   32.2992 H   0  0  0  0  0  0  0  0  0  0  0  0
   49.8464   73.2584   30.1675 H   0  0  0  0  0  0  0  0  0  0  0  0
   50.6232   72.1177   31.2980 H   0  0  0  0  0  0  0  0  0  0  0  0
   41.8171   70.1765   32.3530 H   0  0  0  0  0  0  0  0  0  0  0  0
   43.9864   71.4465   32.2926 H   0  0  0  0  0  0  0  0  0  0  0  0
   42.6103   66.0590   32.0147 H   0  0  0  0  0  0  0  0  0  0  0  0
   42.2379   63.6629   32.4664 H   0  0  0  0  0  0  0  0  0  0  0  0
   41.0058   63.3537   31.1964 H   0  0  0  0  0  0  0  0  0  0  0  0
   42.5469   62.4308   31.1964 H   0  0  0  0  0  0  0  0  0  0  0  0
   43.9648   64.7862   27.4862 H   0  0  0  0  0  0  0  0  0  0  0  0
  1 11  1  0
  1  2  1  0
  3  2  2  0
  4  3  1  0
  5  4  1  0
  6  7  1  0
  6  4  2  0
  7  1  1  0
  8  7  2  0
 10  9  2  0
 11 10  1  0
 12 13  1  0
 12 11  2  0
 13 14  2  0
 14  9  1  0
 15 13  1  0
 15 16  1  0
 17 16  2  0
 17 18  1  0
 19 17  1  0
 20 19  2  0
 21 22  1  0
 21 19  1  0
 22 15  1  0
 23 22  2  0
  2 24  1  0
  3 25  1  0
  5 26  1  0
  5 27  1  0
  9 28  1  0
 10 29  1  0
 16 30  1  0
 18 31  1  0
 18 32  1  0
 18 33  1  0
 21 34  1  0
M  END
>  <Score>  (1) 
-7.03902

$$$$
