
     RDKit          3D

 45 50  0  0  0  0  0  0  0  0999 V2000
   45.1930   71.0540   31.1430 C   0  0  0  0  0  0  0  0  0  0  0  0
   46.4960   70.7190   30.8760 C   0  0  0  0  0  0  0  0  0  0  0  0
   47.4250   71.7200   30.8610 C   0  0  0  0  0  0  0  0  0  0  0  0
   47.0990   73.0400   31.1000 C   0  0  0  0  0  0  0  0  0  0  0  0
   45.7670   73.3430   31.3680 C   0  0  0  0  0  0  0  0  0  0  0  0
   44.8540   72.3440   31.3810 N   0  0  0  0  0  0  0  0  0  0  0  0
   42.0750   69.2890   31.8980 C   0  0  0  0  0  0  0  0  0  0  0  0
   42.2570   68.0530   31.2290 C   0  0  0  0  0  0  0  0  0  0  0  0
   43.4640   67.8390   30.5180 C   0  0  0  0  0  0  0  0  0  0  0  0
   44.3750   68.8460   30.5250 N   0  0  0  0  0  0  0  0  0  0  0  0
   44.1700   69.9940   31.1660 C   0  0  0  0  0  0  0  0  0  0  0  0
   43.0380   70.2210   31.8460 N   0  0  0  0  0  0  0  0  0  0  0  0
   43.6360   66.6130   29.8560 N   0  0  0  0  0  0  0  0  0  0  0  0
   44.1720   66.3870   28.6200 C   0  0  0  0  0  0  0  0  0  0  0  0
   44.1520   65.0490   28.3600 N   0  0  0  0  0  0  0  0  0  0  0  0
   43.6160   64.4360   29.4100 C   0  0  0  0  0  0  0  0  0  0  0  0
   43.3350   63.1240   29.7360 C   0  0  0  0  0  0  0  0  0  0  0  0
   42.7640   62.8260   30.9340 N   0  0  0  0  0  0  0  0  0  0  0  0
   42.4660   63.8010   31.8120 C   0  0  0  0  0  0  0  0  0  0  0  0
   42.7250   65.0860   31.5300 N   0  0  0  0  0  0  0  0  0  0  0  0
   43.2840   65.4050   30.3630 C   0  0  0  0  0  0  0  0  0  0  0  0
   43.6400   62.0770   28.8230 N   0  0  0  0  0  0  0  0  0  0  0  0
   45.2330   74.6920   31.6470 C   0  0  0  0  0  0  0  0  0  0  0  0
   45.5230   75.8610   31.0430 N   0  0  0  0  0  0  0  0  0  0  0  0
   44.8630   76.8380   31.5510 O   0  0  0  0  0  0  0  0  0  0  0  0
   44.0960   76.3790   32.5210 C   0  0  0  0  0  0  0  0  0  0  0  0
   44.3380   75.0680   32.5610 N   0  0  0  0  0  0  0  0  0  0  0  0
   43.1870   77.0420   33.3840 N   0  0  0  0  0  0  0  0  0  0  0  0
   41.8500   76.8400   33.2210 C   0  0  0  0  0  0  0  0  0  0  0  0
   41.1350   77.5380   34.1150 N   0  0  0  0  0  0  0  0  0  0  0  0
   42.0630   78.1970   34.8600 C   0  0  0  0  0  0  0  0  0  0  0  0
   43.2950   77.8780   34.3960 N   0  0  0  0  0  0  0  0  0  0  0  0
   46.7840   69.6757   30.6799 H   0  0  0  0  0  0  0  0  0  0  0  0
   48.4739   71.4645   30.6503 H   0  0  0  0  0  0  0  0  0  0  0  0
   47.8671   73.8271   31.0793 H   0  0  0  0  0  0  0  0  0  0  0  0
   41.1480   69.4831   32.4574 H   0  0  0  0  0  0  0  0  0  0  0  0
   41.4783   67.2767   31.2609 H   0  0  0  0  0  0  0  0  0  0  0  0
   44.5586   67.1620   27.9419 H   0  0  0  0  0  0  0  0  0  0  0  0
   42.0032   63.5401   32.7752 H   0  0  0  0  0  0  0  0  0  0  0  0
   43.4285   61.0998   29.0707 H   0  0  0  0  0  0  0  0  0  0  0  0
   44.0724   62.2959   27.9141 H   0  0  0  0  0  0  0  0  0  0  0  0
   41.5617   77.1561   32.2076 H   0  0  0  0  0  0  0  0  0  0  0  0
   41.6416   75.7705   33.3718 H   0  0  0  0  0  0  0  0  0  0  0  0
   41.8488   78.8755   35.6989 H   0  0  0  0  0  0  0  0  0  0  0  0
   44.1826   78.2354   34.7772 H   0  0  0  0  0  0  0  0  0  0  0  0
  1 11  1  0
  1  6  1  0
  2  1  2  0
  3  2  1  0
  3  4  2  0
  4  5  1  0
  5  6  2  0
  5 23  1  0
  8  7  2  0
  9 10  2  0
  9  8  1  0
 10 11  1  0
 11 12  2  0
 12  7  1  0
 13 21  1  0
 13  9  1  0
 14 13  1  0
 15 14  2  0
 15 16  1  0
 16 17  2  0
 16 21  1  0
 17 18  1  0
 18 19  2  0
 20 19  1  0
 21 20  2  0
 22 17  1  0
 23 27  1  0
 24 25  1  0
 24 23  2  0
 25 26  1  0
 26 27  2  0
 26 28  1  0
 28 32  1  0
 29 28  1  0
 29 30  1  0
 30 31  2  0
 32 31  1  0
  2 33  1  0
  3 34  1  0
  4 35  1  0
  7 36  1  0
  8 37  1  0
 14 38  1  0
 19 39  1  0
 22 40  1  0
 22 41  1  0
 29 42  1  0
 29 43  1  0
 31 44  1  0
 32 45  1  0
M  END
>  <Score>  (1) 
-7.05475

$$$$
