
     RDKit          3D

 52 57  0  0  1  0  0  0  0  0999 V2000
   44.3500   74.8840   32.6110 C   0  0  0  0  0  0  0  0  0  0  0  0
   45.8420   72.8270   32.8530 C   0  0  0  0  0  0  0  0  0  0  0  0
   45.0210   73.7020   32.1300 C   0  0  0  0  0  0  0  0  0  0  0  0
   44.8130   73.4280   30.8040 C   0  0  0  0  0  0  0  0  0  0  0  0
   45.4180   72.3180   30.2580 N   0  0  0  0  0  0  0  0  0  0  0  0
   46.2070   71.4880   30.9790 C   0  0  0  0  0  0  0  0  0  0  0  0
   46.4090   71.7590   32.2780 N   0  0  0  0  0  0  0  0  0  0  0  0
   46.7900   70.3660   30.3260 N   0  0  0  0  0  0  0  0  0  0  0  0
   46.0100   69.3510   29.9290 C   0  0  0  0  0  0  0  0  0  0  0  0
   46.4580   68.2130   29.2890 C   0  0  0  0  0  0  0  0  0  0  0  0
   47.8090   68.1230   29.0450 C   0  0  0  0  0  0  0  0  0  0  0  0
   48.2760   67.1230   28.4710 O   0  0  0  0  0  0  0  0  0  0  0  0
   48.6000   69.1630   29.4530 N   0  0  0  0  0  0  0  0  0  0  0  0
   48.1020   70.2570   30.0790 C   0  0  0  0  0  0  0  0  0  0  0  0
   48.8760   71.1920   30.4360 O   0  0  0  0  0  0  0  0  0  0  0  0
   45.4910   67.1520   28.8950 C   0  0  0  0  0  0  0  0  0  0  0  0
   44.3080   75.9950   31.6350 C   0  0  2  0  0  0  0  0  0  0  0  0
   44.1970   77.3910   32.0260 C   0  0  0  0  0  0  0  0  0  0  0  0
   42.9940   76.7940   31.4760 C   0  0  2  0  0  0  0  0  0  0  0  0
   41.8150   76.4130   32.2800 C   0  0  0  0  0  0  0  0  0  0  0  0
   41.3930   76.8320   33.5150 N   0  0  0  0  0  0  0  0  0  0  0  0
   40.3070   76.1970   33.8130 O   0  0  0  0  0  0  0  0  0  0  0  0
   39.9780   75.3770   32.8450 C   0  0  0  0  0  0  0  0  0  0  0  0
   40.9150   75.4960   31.8700 N   0  0  0  0  0  0  0  0  0  0  0  0
   38.8050   74.5120   32.8660 C   0  0  0  0  0  0  0  0  0  0  0  0
   38.8780   73.1400   32.7440 C   0  0  0  0  0  0  0  0  0  0  0  0
   37.6360   72.6090   32.7980 N   0  0  0  0  0  0  0  0  0  0  0  0
   36.7960   73.6430   32.9540 C   0  0  0  0  0  0  0  0  0  0  0  0
   35.4230   73.7380   33.0730 C   0  0  0  0  0  0  0  0  0  0  0  0
   34.7110   74.9090   33.2310 C   0  0  0  0  0  0  0  0  0  0  0  0
   35.4710   76.0490   33.2660 C   0  0  0  0  0  0  0  0  0  0  0  0
   36.8460   76.0690   33.1570 C   0  0  0  0  0  0  0  0  0  0  0  0
   37.4800   74.8530   33.0020 C   0  0  0  0  0  0  0  0  0  0  0  0
   43.3159   74.6127   32.8701 H   0  0  0  0  0  0  0  0  0  0  0  0
   44.9248   75.2444   33.4769 H   0  0  0  0  0  0  0  0  0  0  0  0
   46.0255   73.0222   33.9199 H   0  0  0  0  0  0  0  0  0  0  0  0
   44.1764   74.0807   30.1886 H   0  0  0  0  0  0  0  0  0  0  0  0
   44.9311   69.4309   30.1283 H   0  0  0  0  0  0  0  0  0  0  0  0
   49.6136   69.1121   29.2773 H   0  0  0  0  0  0  0  0  0  0  0  0
   45.0679   66.6878   29.7981 H   0  0  0  0  0  0  0  0  0  0  0  0
   44.6815   67.5971   28.2979 H   0  0  0  0  0  0  0  0  0  0  0  0
   46.0091   66.3871   28.2979 H   0  0  0  0  0  0  0  0  0  0  0  0
   45.0037   75.4325   30.9951 H   0  0  0  0  0  0  0  0  0  0  0  0
   44.2269   77.6544   33.0936 H   0  0  0  0  0  0  0  0  0  0  0  0
   44.7741   78.2916   31.7693 H   0  0  0  0  0  0  0  0  0  0  0  0
   42.3022   77.0795   30.6698 H   0  0  0  0  0  0  0  0  0  0  0  0
   39.8073   72.5644   32.6212 H   0  0  0  0  0  0  0  0  0  0  0  0
   37.3854   71.6121   32.7326 H   0  0  0  0  0  0  0  0  0  0  0  0
   34.8487   72.8004   33.0389 H   0  0  0  0  0  0  0  0  0  0  0  0
   33.6149   74.9265   33.3221 H   0  0  0  0  0  0  0  0  0  0  0  0
   34.9508   77.0104   33.3890 H   0  0  0  0  0  0  0  0  0  0  0  0
   37.4117   77.0118   33.1920 H   0  0  0  0  0  0  0  0  0  0  0  0
  3  1  1  0
  3  2  2  0
  4  3  1  0
  5  4  2  0
  5  6  1  0
  6  7  2  0
  7  2  1  0
  8  6  1  0
  9  8  1  0
 10  9  2  0
 11 10  1  0
 11 13  1  0
 12 11  2  0
 13 14  1  0
 14  8  1  0
 14 15  2  0
 16 10  1  0
 17 18  1  0
 17  1  1  0
 19 17  1  0
 19 18  1  0
 19 20  1  0
 20 21  2  0
 21 22  1  0
 23 25  1  0
 23 22  1  0
 24 20  1  0
 24 23  2  0
 25 33  1  0
 26 27  1  0
 26 25  2  0
 27 28  1  0
 28 33  2  0
 28 29  1  0
 29 30  2  0
 30 31  1  0
 32 31  2  0
 33 32  1  0
  1 34  1  0
  1 35  1  0
  2 36  1  0
  4 37  1  0
  9 38  1  0
 13 39  1  0
 16 40  1  0
 16 41  1  0
 16 42  1  0
 17 43  1  6
 18 44  1  0
 18 45  1  0
 19 46  1  6
 26 47  1  0
 27 48  1  0
 29 49  1  0
 30 50  1  0
 31 51  1  0
 32 52  1  0
M  END
>  <Score>  (1) 
-7.09711

$$$$
