
     RDKit          3D

 14 14  0  0  0  0  0  0  0  0999 V2000
   37.5800   30.2810   51.3230 C   0  0  0  0  0  0  0  0  0  0  0  0
   38.2330   30.9010   50.2510 C   0  0  0  0  0  0  0  0  0  0  0  0
   37.5880   30.8870   49.0180 C   0  0  0  0  0  0  0  0  0  0  0  0
   36.3850   30.2790   48.9400 N   0  0  0  0  0  0  0  0  0  0  0  0
   35.7810   29.6880   49.9980 C   0  0  0  0  0  0  0  0  0  0  0  0
   36.3910   29.6930   51.2000 N   0  0  0  0  0  0  0  0  0  0  0  0
   34.4820   29.0370   49.9040 C   0  0  0  0  0  0  0  0  0  0  0  0
   33.4760   29.4610   50.5540 O   0  0  0  0  0  0  0  0  0  0  0  0
   34.4300   27.8930   49.0300 N   0  0  0  0  0  0  0  0  0  0  0  0
   38.0693   30.2793   52.3082 H   0  0  0  0  0  0  0  0  0  0  0  0
   39.2153   31.3794   50.3781 H   0  0  0  0  0  0  0  0  0  0  0  0
   38.0442   31.3568   48.1342 H   0  0  0  0  0  0  0  0  0  0  0  0
   33.5468   27.3771   48.9090 H   0  0  0  0  0  0  0  0  0  0  0  0
   35.2760   27.5910   48.5261 H   0  0  0  0  0  0  0  0  0  0  0  0
  2  1  2  0
  3  2  1  0
  4  3  2  0
  4  5  1  0
  5  6  2  0
  6  1  1  0
  7  5  1  0
  7  8  2  0
  9  7  1  0
  1 10  1  0
  2 11  1  0
  3 12  1  0
  9 13  1  0
  9 14  1  0
M  ISO  3  10  14  11  14  12  14
M  END
>  <minimizedAffinity>  (1) 
-3.27870274

>  <minimizedRMSD>  (1) 
0.755043924

$$$$
