
     RDKit          3D

 32 33  0  0  1  0  0  0  0  0999 V2000
   36.1520   30.7010   49.0110 C   0  0  2  0  0  0  0  0  0  0  0  0
   37.0920   31.6130   49.7420 C   0  0  0  0  0  0  0  0  0  0  0  0
   38.0570   30.8680   50.6400 C   0  0  0  0  0  0  0  0  0  0  0  0
   37.2870   30.0130   51.6470 C   0  0  0  0  0  0  0  0  0  0  0  0
   36.0520   29.3640   51.0750 C   0  0  0  0  0  0  0  0  0  0  0  0
   36.1880   29.3110   49.5440 C   0  0  1  0  0  0  0  0  0  0  0  0
   36.4610   30.6690   47.5570 C   0  0  0  0  0  0  0  0  0  0  0  0
   37.7490   31.0960   47.2000 C   0  0  0  0  0  0  0  0  0  0  0  0
   38.0600   31.0720   45.8360 C   0  0  0  0  0  0  0  0  0  0  0  0
   37.1050   30.6390   44.9420 N   0  0  0  0  0  0  0  0  0  0  0  0
   35.8590   30.2320   45.3470 C   0  0  0  0  0  0  0  0  0  0  0  0
   35.5570   30.2540   46.6580 N   0  0  0  0  0  0  0  0  0  0  0  0
   33.9300   28.2610   49.0890 C   0  0  0  0  0  0  0  0  0  0  0  0
   33.1030   28.9090   49.7840 O   0  0  0  0  0  0  0  0  0  0  0  0
   35.3270   28.3890   48.8990 N   0  0  0  0  0  0  0  0  0  0  0  0
   33.0480   27.3050   48.5040 N   0  0  0  0  0  0  0  0  0  0  0  0
   35.1424   31.1089   49.1669 H   0  0  0  0  0  0  0  0  0  0  0  0
   37.6713   32.1856   49.0027 H   0  0  0  0  0  0  0  0  0  0  0  0
   36.4841   32.2687   50.3828 H   0  0  0  0  0  0  0  0  0  0  0  0
   38.6972   30.2179   50.0256 H   0  0  0  0  0  0  0  0  0  0  0  0
   38.6753   31.5961   51.1855 H   0  0  0  0  0  0  0  0  0  0  0  0
   37.9568   29.2212   52.0136 H   0  0  0  0  0  0  0  0  0  0  0  0
   36.9526   30.6865   52.4499 H   0  0  0  0  0  0  0  0  0  0  0  0
   35.9516   28.3436   51.4734 H   0  0  0  0  0  0  0  0  0  0  0  0
   35.1601   29.9450   51.3525 H   0  0  0  0  0  0  0  0  0  0  0  0
   37.1688   28.8792   49.2958 H   0  0  0  0  0  0  0  0  0  0  0  0
   38.4766   31.4322   47.9534 H   0  0  0  0  0  0  0  0  0  0  0  0
   39.0509   31.3936   45.4830 H   0  0  0  0  0  0  0  0  0  0  0  0
   35.1167   29.8922   44.6097 H   0  0  0  0  0  0  0  0  0  0  0  0
   35.7622   27.7458   48.2224 H   0  0  0  0  0  0  0  0  0  0  0  0
   33.4156   26.5947   47.8550 H   0  0  0  0  0  0  0  0  0  0  0  0
   32.0434   27.3249   48.7305 H   0  0  0  0  0  0  0  0  0  0  0  0
  1  6  1  0
  1  2  1  0
  2  3  1  0
  3  4  1  0
  5  4  1  0
  6  5  1  0
  7  1  1  0
  8  7  2  0
  9  8  1  0
 10 11  1  0
 10  9  2  0
 11 12  2  0
 12  7  1  0
 13 14  2  0
 15 13  1  0
 15  6  1  0
 16 13  1  0
  1 17  1  6
  2 18  1  0
  2 19  1  0
  3 20  1  0
  3 21  1  0
  4 22  1  0
  4 23  1  0
  5 24  1  0
  5 25  1  0
  6 26  1  1
  8 27  1  0
  9 28  1  0
 11 29  1  0
 15 30  1  0
 16 31  1  0
 16 32  1  0
M  ISO  8  17  13  18  13  19  13  20  13  21  13  22  13  23  13  24  13
M  ISO  5  25  13  26  13  27  14  28  14  29  14
M  END
>  <minimizedAffinity>  (1) 
-5.36224794

>  <minimizedRMSD>  (1) 
0.164943114

$$$$
