
     RDKit          3D

 21 22  0  0  0  0  0  0  0  0999 V2000
   37.3730   31.4600   48.7470 C   0  0  0  0  0  0  0  0  0  0  0  0
   38.1170   32.4670   49.3450 C   0  0  0  0  0  0  0  0  0  0  0  0
   39.0110   33.2760   48.6550 C   0  0  0  0  0  0  0  0  0  0  0  0
   39.1810   33.0780   47.2900 C   0  0  0  0  0  0  0  0  0  0  0  0
   38.4330   32.0760   46.7300 C   0  0  0  0  0  0  0  0  0  0  0  0
   37.5790   31.3160   47.4290 N   0  0  0  0  0  0  0  0  0  0  0  0
   36.7240   30.0680   50.7490 C   0  0  0  0  0  0  0  0  0  0  0  0
   36.4520   30.6360   49.4920 C   0  0  0  0  0  0  0  0  0  0  0  0
   35.2040   30.3850   48.9200 C   0  0  0  0  0  0  0  0  0  0  0  0
   34.3120   29.6050   49.6110 N   0  0  0  0  0  0  0  0  0  0  0  0
   34.6290   29.0820   50.8230 C   0  0  0  0  0  0  0  0  0  0  0  0
   35.8170   29.3080   51.3880 N   0  0  0  0  0  0  0  0  0  0  0  0
   40.0590   33.8350   46.4820 N   0  0  0  0  0  0  0  0  0  0  0  0
   37.9920   32.6340   50.4251 H   0  0  0  0  0  0  0  0  0  0  0  0
   39.5752   34.0606   49.1805 H   0  0  0  0  0  0  0  0  0  0  0  0
   38.5389   31.8857   45.6518 H   0  0  0  0  0  0  0  0  0  0  0  0
   37.7011   30.2494   51.2206 H   0  0  0  0  0  0  0  0  0  0  0  0
   34.9415   30.8033   47.9371 H   0  0  0  0  0  0  0  0  0  0  0  0
   33.8915   28.4591   51.3504 H   0  0  0  0  0  0  0  0  0  0  0  0
   40.1349   33.6332   45.4748 H   0  0  0  0  0  0  0  0  0  0  0  0
   40.6230   34.5885   46.9002 H   0  0  0  0  0  0  0  0  0  0  0  0
  1  2  2  0
  1  8  1  0
  3  2  1  0
  4  3  2  0
  5  4  1  0
  5  6  2  0
  6  1  1  0
  7 12  2  0
  8  7  1  0
  9  8  2  0
  9 10  1  0
 10 11  2  0
 11 12  1  0
 13  4  1  0
  2 14  1  0
  3 15  1  0
  5 16  1  0
  7 17  1  0
  9 18  1  0
 11 19  1  0
 13 20  1  0
 13 21  1  0
M  ISO  6  14  14  15  14  16  14  17  14  18  14  19  14
M  END
>  <minimizedAffinity>  (1) 
-4.77654171

>  <minimizedRMSD>  (1) 
0.940039456

$$$$
