
     RDKit          3D

 28 29  0  0  1  0  0  0  0  0999 V2000
   38.0420   30.8120   48.1400 C   0  0  1  0  0  0  0  0  0  0  0  0
   37.8530   30.4660   46.7170 C   0  0  0  0  0  0  0  0  0  0  0  0
   39.1190   30.7190   45.9700 C   0  0  0  0  0  0  0  0  0  0  0  0
   39.8690   31.8810   46.5160 C   0  0  0  0  0  0  0  0  0  0  0  0
   38.9680   32.9210   47.1320 C   0  0  0  0  0  0  0  0  0  0  0  0
   38.1460   32.3240   48.2640 C   0  0  2  0  0  0  0  0  0  0  0  0
   36.2600   29.3240   51.0400 C   0  0  0  0  0  0  0  0  0  0  0  0
   37.2930   29.7480   50.1930 C   0  0  0  0  0  0  0  0  0  0  0  0
   36.9340   30.3820   49.0140 C   0  0  0  0  0  0  0  0  0  0  0  0
   35.5990   30.5660   48.7300 N   0  0  0  0  0  0  0  0  0  0  0  0
   34.6370   30.1470   49.5620 C   0  0  0  0  0  0  0  0  0  0  0  0
   34.9630   29.5310   50.7100 N   0  0  0  0  0  0  0  0  0  0  0  0
   38.8840   32.7560   49.4440 N   0  0  0  0  0  0  0  0  0  0  0  0
   38.9518   30.2862   48.4652 H   0  0  0  0  0  0  0  0  0  0  0  0
   37.5830   29.4031   46.6311 H   0  0  0  0  0  0  0  0  0  0  0  0
   37.0482   31.0848   46.2936 H   0  0  0  0  0  0  0  0  0  0  0  0
   38.8750   30.9181   44.9160 H   0  0  0  0  0  0  0  0  0  0  0  0
   39.7555   29.8276   46.0713 H   0  0  0  0  0  0  0  0  0  0  0  0
   40.5658   31.5190   47.2864 H   0  0  0  0  0  0  0  0  0  0  0  0
   40.3988   32.3567   45.6775 H   0  0  0  0  0  0  0  0  0  0  0  0
   39.5836   33.7421   47.5280 H   0  0  0  0  0  0  0  0  0  0  0  0
   38.2816   33.2947   46.3580 H   0  0  0  0  0  0  0  0  0  0  0  0
   37.0961   32.6517   48.2812 H   0  0  0  0  0  0  0  0  0  0  0  0
   36.5058   28.8168   51.9846 H   0  0  0  0  0  0  0  0  0  0  0  0
   38.3489   29.5838   50.4541 H   0  0  0  0  0  0  0  0  0  0  0  0
   33.5795   30.3074   49.3051 H   0  0  0  0  0  0  0  0  0  0  0  0
   38.3793   32.4605   50.2918 H   0  0  0  0  0  0  0  0  0  0  0  0
   39.8220   32.3306   49.4371 H   0  0  0  0  0  0  0  0  0  0  0  0
  1  6  1  0
  1  9  1  0
  2  1  1  0
  3  4  1  0
  3  2  1  0
  4  5  1  0
  5  6  1  0
  6 13  1  0
  8  7  2  0
  9  8  1  0
 10  9  2  0
 10 11  1  0
 11 12  2  0
 12  7  1  0
  1 14  1  1
  2 15  1  0
  2 16  1  0
  3 17  1  0
  3 18  1  0
  4 19  1  0
  4 20  1  0
  5 21  1  0
  5 22  1  0
  6 23  1  1
  7 24  1  0
  8 25  1  0
 11 26  1  0
 13 27  1  0
 13 28  1  0
M  ISO  8  14  13  15  13  16  13  17  13  18  13  19  13  20  13  21  13
M  ISO  7  22  13  23  13  24  14  25  14  26  14  27   5  28   5
M  END
>  <minimizedAffinity>  (1) 
-4.59775925

>  <minimizedRMSD>  (1) 
1.00805116

$$$$
