
     RDKit          3D

 44 47  0  0  1  0  0  0  0  0999 V2000
   38.3560   31.8770   44.5160 C   0  0  0  0  0  0  0  0  0  0  0  0
   37.2720   32.4430   44.4040 O   0  0  0  0  0  0  0  0  0  0  0  0
   38.9290   31.5810   45.8160 N   0  0  0  0  0  0  0  0  0  0  0  0
   39.1410   31.4650   43.3190 C   0  0  0  0  0  0  0  0  0  0  0  0
   40.1310   30.5160   43.4720 C   0  0  0  0  0  0  0  0  0  0  0  0
   40.8590   30.1610   42.3510 C   0  0  0  0  0  0  0  0  0  0  0  0
   40.5480   30.7770   41.1570 C   0  0  0  0  0  0  0  0  0  0  0  0
   39.5570   31.7260   41.0010 C   0  0  0  0  0  0  0  0  0  0  0  0
   38.8900   32.0250   42.1280 N   0  0  0  0  0  0  0  0  0  0  0  0
   39.2440   32.3460   39.7140 C   0  0  0  0  0  0  0  0  0  0  0  0
   38.5810   33.4490   39.7590 O   0  0  0  0  0  0  0  0  0  0  0  0
   39.5190   31.9900   38.3340 C   0  0  0  0  0  0  0  0  0  0  0  0
   39.0660   30.8820   37.6510 C   0  0  0  0  0  0  0  0  0  0  0  0
   39.3270   30.6080   36.3300 C   0  0  0  0  0  0  0  0  0  0  0  0
   40.0950   31.4960   35.6160 C   0  0  0  0  0  0  0  0  0  0  0  0
   40.5900   32.6260   36.2150 C   0  0  0  0  0  0  0  0  0  0  0  0
   40.3020   32.8580   37.5440 C   0  0  0  0  0  0  0  0  0  0  0  0
   38.4210   31.0860   48.2030 C   0  0  2  0  0  0  0  0  0  0  0  0
   38.6730   32.5510   48.1080 C   0  0  0  0  0  0  0  0  0  0  0  0
   38.0660   31.6940   46.9630 C   0  0  1  0  0  0  0  0  0  0  0  0
   35.0770   30.2300   49.5340 C   0  0  0  0  0  0  0  0  0  0  0  0
   35.3840   29.5500   50.7390 C   0  0  0  0  0  0  0  0  0  0  0  0
   36.7680   29.4070   51.0710 C   0  0  0  0  0  0  0  0  0  0  0  0
   37.7420   29.9180   50.2380 N   0  0  0  0  0  0  0  0  0  0  0  0
   37.3410   30.5580   49.1010 C   0  0  0  0  0  0  0  0  0  0  0  0
   36.0310   30.7270   48.7280 N   0  0  0  0  0  0  0  0  0  0  0  0
   39.9153   31.3008   45.9144 H   0  0  0  0  0  0  0  0  0  0  0  0
   40.3340   30.0579   44.4513 H   0  0  0  0  0  0  0  0  0  0  0  0
   41.6612   29.4106   42.4099 H   0  0  0  0  0  0  0  0  0  0  0  0
   41.1294   30.4928   40.2675 H   0  0  0  0  0  0  0  0  0  0  0  0
   40.1868   32.9110   39.7569 H   0  0  0  0  0  0  0  0  0  0  0  0
   38.4279   33.7037   40.7033 H   0  0  0  0  0  0  0  0  0  0  0  0
   38.4477   30.1613   38.2062 H   0  0  0  0  0  0  0  0  0  0  0  0
   38.9302   29.6986   35.8550 H   0  0  0  0  0  0  0  0  0  0  0  0
   40.3144   31.2991   34.5562 H   0  0  0  0  0  0  0  0  0  0  0  0
   41.2069   33.3361   35.6448 H   0  0  0  0  0  0  0  0  0  0  0  0
   40.7042   33.7682   38.0128 H   0  0  0  0  0  0  0  0  0  0  0  0
   39.0640   30.2351   48.4724 H   0  0  0  0  0  0  0  0  0  0  0  0
   38.0492   33.2650   48.6657 H   0  0  0  0  0  0  0  0  0  0  0  0
   39.5320   33.2263   48.2347 H   0  0  0  0  0  0  0  0  0  0  0  0
   37.1457   31.6593   46.3614 H   0  0  0  0  0  0  0  0  0  0  0  0
   34.0221   30.3553   49.2486 H   0  0  0  0  0  0  0  0  0  0  0  0
   34.5929   29.1499   51.3902 H   0  0  0  0  0  0  0  0  0  0  0  0
   37.0575   28.8866   51.9959 H   0  0  0  0  0  0  0  0  0  0  0  0
  1  3  1  0
  2  1  2  0
  3 20  1  0
  4  5  2  0
  4  1  1  0
  6  5  1  0
  7  6  2  0
  8  7  1  0
  8  9  2  0
  9  4  1  0
 10 11  1  0
 10  8  1  0
 12 10  1  0
 13 12  2  0
 14 13  1  0
 15 16  1  0
 15 14  2  0
 16 17  2  0
 17 12  1  0
 18 25  1  0
 19 18  1  0
 20 19  1  0
 20 18  1  0
 21 22  2  0
 22 23  1  0
 24 23  2  0
 25 24  1  0
 26 25  2  0
 26 21  1  0
  3 27  1  0
  5 28  1  0
  6 29  1  0
  7 30  1  0
 10 31  1  0
 11 32  1  0
 13 33  1  0
 14 34  1  0
 15 35  1  0
 16 36  1  0
 17 37  1  0
 18 38  1  6
 19 39  1  0
 19 40  1  0
 20 41  1  6
 21 42  1  0
 22 43  1  0
 23 44  1  0
M  ISO  8  28  14  29  14  30  14  31   8  32   3  33  14  34  14  35  14
M  ISO  8  36  14  37  14  38  13  39  13  40  13  41  13  42  14  43  14
M  ISO  1  44  14
M  END
>  <minimizedAffinity>  (1) 
-4.93375444

>  <minimizedRMSD>  (1) 
0.560225725

$$$$
