
     RDKit          3D

 40 42  0  0  1  0  0  0  0  0999 V2000
   36.9630   29.1920   50.6980 C   0  0  0  0  0  0  0  0  0  0  0  0
   36.5450   29.0830   49.3760 C   0  0  0  0  0  0  0  0  0  0  0  0
   35.2230   29.1730   48.9980 C   0  0  0  0  0  0  0  0  0  0  0  0
   34.3630   29.3760   50.0190 N   0  0  0  0  0  0  0  0  0  0  0  0
   34.7270   29.4870   51.3080 C   0  0  0  0  0  0  0  0  0  0  0  0
   36.0320   29.3940   51.6390 N   0  0  0  0  0  0  0  0  0  0  0  0
   34.8070   29.0620   47.6650 N   0  0  0  0  0  0  0  0  0  0  0  0
   34.1540   27.8410   47.2900 C   0  0  0  0  0  0  0  0  0  0  0  0
   33.7470   27.7480   45.8650 C   0  0  0  0  0  0  0  0  0  0  0  0
   33.7430   28.9260   45.1150 N   0  0  0  0  0  0  0  0  0  0  0  0
   34.7630   29.8700   45.3460 C   0  0  0  0  0  0  0  0  0  0  0  0
   35.0610   30.1730   46.7790 C   0  0  2  0  0  0  0  0  0  0  0  0
   36.5030   30.6360   46.8040 C   0  0  0  0  0  0  0  0  0  0  0  0
   36.9530   30.7000   45.3510 C   0  0  0  0  0  0  0  0  0  0  0  0
   38.3470   31.2900   45.2880 C   0  0  0  0  0  0  0  0  0  0  0  0
   39.4850   30.6190   45.6640 C   0  0  0  0  0  0  0  0  0  0  0  0
   40.7090   31.2470   45.5670 C   0  0  0  0  0  0  0  0  0  0  0  0
   40.8300   32.5550   45.0940 C   0  0  0  0  0  0  0  0  0  0  0  0
   39.7090   33.2520   44.7110 C   0  0  0  0  0  0  0  0  0  0  0  0
   38.5140   32.5790   44.8270 C   0  0  0  0  0  0  0  0  0  0  0  0
   38.0278   29.1145   50.9630 H   0  0  0  0  0  0  0  0  0  0  0  0
   37.3039   28.9175   48.5971 H   0  0  0  0  0  0  0  0  0  0  0  0
   33.9677   29.6522   52.0865 H   0  0  0  0  0  0  0  0  0  0  0  0
   34.8422   27.0093   47.5013 H   0  0  0  0  0  0  0  0  0  0  0  0
   33.2227   27.8035   47.8742 H   0  0  0  0  0  0  0  0  0  0  0  0
   34.4353   27.0461   45.3714 H   0  0  0  0  0  0  0  0  0  0  0  0
   32.6935   27.4331   45.8957 H   0  0  0  0  0  0  0  0  0  0  0  0
   32.8450   29.3979   45.2937 H   0  0  0  0  0  0  0  0  0  0  0  0
   35.6855   29.4892   44.8833 H   0  0  0  0  0  0  0  0  0  0  0  0
   34.3990   30.8131   44.9122 H   0  0  0  0  0  0  0  0  0  0  0  0
   34.3867   30.9526   47.1631 H   0  0  0  0  0  0  0  0  0  0  0  0
   36.5766   31.6296   47.2702 H   0  0  0  0  0  0  0  0  0  0  0  0
   37.1341   29.9513   47.3896 H   0  0  0  0  0  0  0  0  0  0  0  0
   36.9626   29.6865   44.9236 H   0  0  0  0  0  0  0  0  0  0  0  0
   36.2583   31.3297   44.7758 H   0  0  0  0  0  0  0  0  0  0  0  0
   39.4205   29.5873   46.0401 H   0  0  0  0  0  0  0  0  0  0  0  0
   41.6151   30.7022   45.8707 H   0  0  0  0  0  0  0  0  0  0  0  0
   41.8213   33.0272   45.0279 H   0  0  0  0  0  0  0  0  0  0  0  0
   39.7635   34.2843   44.3349 H   0  0  0  0  0  0  0  0  0  0  0  0
   37.6061   33.1206   44.5232 H   0  0  0  0  0  0  0  0  0  0  0  0
  1  6  2  0
  2  1  1  0
  3  2  2  0
  3  4  1  0
  4  5  2  0
  5  6  1  0
  7  3  1  0
  8  7  1  0
  9  8  1  0
 10 11  1  0
 10  9  1  0
 11 12  1  0
 12 13  1  0
 12  7  1  0
 14 13  1  0
 15 14  1  0
 15 16  2  0
 17 16  1  0
 18 17  2  0
 19 20  2  0
 19 18  1  0
 20 15  1  0
  1 21  1  0
  2 22  1  0
  5 23  1  0
  8 24  1  0
  8 25  1  0
  9 26  1  0
  9 27  1  0
 10 28  1  0
 11 29  1  0
 11 30  1  0
 12 31  1  1
 13 32  1  0
 13 33  1  0
 14 34  1  0
 14 35  1  0
 16 36  1  0
 17 37  1  0
 18 38  1  0
 19 39  1  0
 20 40  1  0
M  ISO  8  21  14  22  14  23  14  24  13  25  13  26  13  27  13  28   5
M  ISO  8  29  13  30  13  31  13  32   8  33   8  34   8  35   8  36  14
M  ISO  4  37  14  38  14  39  14  40  14
M  END
>  <minimizedAffinity>  (1) 
-5.15696526

>  <minimizedRMSD>  (1) 
5.48203945

$$$$
