
     RDKit          3D

 41 43  0  0  1  0  0  0  0  0999 V2000
   38.8630   32.4000   47.8660 C   0  0  2  0  0  0  0  0  0  0  0  0
   38.1850   31.3900   48.7740 C   0  0  1  0  0  0  0  0  0  0  0  0
   38.7060   31.9220   50.1090 C   0  0  0  0  0  0  0  0  0  0  0  0
   38.3760   33.2690   50.0060 O   0  0  0  0  0  0  0  0  0  0  0  0
   38.6770   33.6530   48.7110 C   0  0  0  0  0  0  0  0  0  0  0  0
   36.8260   31.6030   48.6840 O   0  0  0  0  0  0  0  0  0  0  0  0
   35.9290   29.8570   46.9600 O   0  0  0  0  0  0  0  0  0  0  0  0
   35.9700   30.1740   48.4210 P   0  0  1  0  0  0  0  0  0  0  0  0
   36.7580   28.8750   49.2280 O   0  0  0  0  0  0  0  0  0  0  0  0
   34.3950   30.3350   49.0460 O   0  0  0  0  0  0  0  0  0  0  0  0
   34.1310   29.1930   49.7850 C   0  0  0  0  0  0  0  0  0  0  0  0
   33.2710   28.2220   49.0760 C   0  0  0  0  0  0  0  0  0  0  0  0
   33.9020   27.3320   48.2380 C   0  0  0  0  0  0  0  0  0  0  0  0
   33.1470   26.3880   47.5370 C   0  0  0  0  0  0  0  0  0  0  0  0
   31.7990   26.4080   47.7320 N   0  0  0  0  0  0  0  0  0  0  0  0
   31.2000   27.2880   48.5570 C   0  0  0  0  0  0  0  0  0  0  0  0
   31.9370   28.2060   49.2380 N   0  0  0  0  0  0  0  0  0  0  0  0
   38.1700   32.4450   46.6790 O   0  0  0  0  0  0  0  0  0  0  0  0
   38.6150   32.2650   45.4010 C   0  0  0  0  0  0  0  0  0  0  0  0
   37.9220   32.4990   44.2530 C   0  0  0  0  0  0  0  0  0  0  0  0
   38.5260   32.2630   43.0280 C   0  0  0  0  0  0  0  0  0  0  0  0
   39.8230   31.7940   42.9930 C   0  0  0  0  0  0  0  0  0  0  0  0
   40.5560   31.5450   44.1390 C   0  0  0  0  0  0  0  0  0  0  0  0
   39.9300   31.7890   45.3480 C   0  0  0  0  0  0  0  0  0  0  0  0
   39.9097   32.2144   47.5831 H   0  0  0  0  0  0  0  0  0  0  0  0
   38.3664   30.3222   48.5821 H   0  0  0  0  0  0  0  0  0  0  0  0
   38.1971   31.4455   50.9598 H   0  0  0  0  0  0  0  0  0  0  0  0
   39.7742   31.7296   50.2875 H   0  0  0  0  0  0  0  0  0  0  0  0
   39.6040   34.2451   48.7056 H   0  0  0  0  0  0  0  0  0  0  0  0
   37.8613   34.2664   48.3007 H   0  0  0  0  0  0  0  0  0  0  0  0
   36.6821   29.0002   50.2071 H   0  0  0  0  0  0  0  0  0  0  0  0
   35.0866   28.7033   50.0239 H   0  0  0  0  0  0  0  0  0  0  0  0
   33.5888   29.5085   50.6886 H   0  0  0  0  0  0  0  0  0  0  0  0
   34.9952   27.3633   48.1204 H   0  0  0  0  0  0  0  0  0  0  0  0
   33.6195   25.6621   46.8589 H   0  0  0  0  0  0  0  0  0  0  0  0
   30.1073   27.2641   48.6809 H   0  0  0  0  0  0  0  0  0  0  0  0
   36.8886   32.8732   44.2972 H   0  0  0  0  0  0  0  0  0  0  0  0
   37.9767   32.4478   42.0930 H   0  0  0  0  0  0  0  0  0  0  0  0
   40.2925   31.6109   42.0152 H   0  0  0  0  0  0  0  0  0  0  0  0
   41.5891   31.1702   44.0912 H   0  0  0  0  0  0  0  0  0  0  0  0
   40.4758   31.6055   46.2852 H   0  0  0  0  0  0  0  0  0  0  0  0
  1  5  1  0
  1  2  1  0
  2  3  1  0
  4  3  1  0
  5  4  1  0
  6  2  1  0
  8  7  2  0
  8  6  1  0
  8 10  1  0
  8  9  1  0
 10 11  1  0
 12 17  1  0
 12 11  1  0
 13 12  2  0
 14 15  2  0
 14 13  1  0
 15 16  1  0
 16 17  2  0
 18  1  1  0
 19 18  1  0
 20 19  2  0
 21 20  1  0
 22 21  2  0
 22 23  1  0
 23 24  2  0
 24 19  1  0
  1 25  1  6
  2 26  1  6
  3 27  1  0
  3 28  1  0
  5 29  1  0
  5 30  1  0
  9 31  1  0
 11 32  1  0
 11 33  1  0
 13 34  1  0
 14 35  1  0
 16 36  1  0
 20 37  1  0
 21 38  1  0
 22 39  1  0
 23 40  1  0
 24 41  1  0
M  ISO  8  25  13  26  13  27  13  28  13  29  13  30  13  31   3  32   8
M  ISO  8  33   8  34  14  35  14  36  14  37  14  38  14  39  14  40  14
M  ISO  1  41  14
M  END
>  <minimizedAffinity>  (1) 
-4.90434504

>  <minimizedRMSD>  (1) 
0.26105234

$$$$
