
     RDKit          3D

 26 27  0  0  0  0  0  0  0  0999 V2000
   37.1650   33.6210   49.8410 O   0  0  0  0  0  0  0  0  0  0  0  0
   38.3680   32.9390   49.1800 P   0  0  1  0  0  0  0  0  0  0  0  0
   39.7590   33.8060   49.6700 O   0  0  0  0  0  0  0  0  0  0  0  0
   38.5190   31.3950   49.8540 O   0  0  0  0  0  0  0  0  0  0  0  0
   37.0640   30.2110   51.3390 C   0  0  0  0  0  0  0  0  0  0  0  0
   37.5190   30.4840   50.0380 C   0  0  0  0  0  0  0  0  0  0  0  0
   36.8850   29.7710   49.0000 C   0  0  0  0  0  0  0  0  0  0  0  0
   35.9030   28.8940   49.3280 N   0  0  0  0  0  0  0  0  0  0  0  0
   35.5060   28.6720   50.5930 C   0  0  0  0  0  0  0  0  0  0  0  0
   36.0900   29.3340   51.6130 N   0  0  0  0  0  0  0  0  0  0  0  0
   38.1320   32.9920   47.5440 O   0  0  0  0  0  0  0  0  0  0  0  0
   39.0420   32.4220   46.6630 C   0  0  0  0  0  0  0  0  0  0  0  0
   38.8820   31.0770   46.3660 C   0  0  0  0  0  0  0  0  0  0  0  0
   39.8260   30.5640   45.4750 C   0  0  0  0  0  0  0  0  0  0  0  0
   40.8560   31.2620   44.8980 C   0  0  0  0  0  0  0  0  0  0  0  0
   40.9740   32.6160   45.2290 C   0  0  0  0  0  0  0  0  0  0  0  0
   40.0570   33.1790   46.1140 C   0  0  0  0  0  0  0  0  0  0  0  0
   39.8004   33.8318   50.6588 H   0  0  0  0  0  0  0  0  0  0  0  0
   37.5332   30.7465   52.1775 H   0  0  0  0  0  0  0  0  0  0  0  0
   37.1790   29.9219   47.9508 H   0  0  0  0  0  0  0  0  0  0  0  0
   34.7028   27.9486   50.7969 H   0  0  0  0  0  0  0  0  0  0  0  0
   38.0767   30.4643   46.7974 H   0  0  0  0  0  0  0  0  0  0  0  0
   39.7354   29.5001   45.2108 H   0  0  0  0  0  0  0  0  0  0  0  0
   41.5593   30.7778   44.2045 H   0  0  0  0  0  0  0  0  0  0  0  0
   41.7795   33.2277   44.7966 H   0  0  0  0  0  0  0  0  0  0  0  0
   40.1433   34.2431   46.3792 H   0  0  0  0  0  0  0  0  0  0  0  0
  2  3  1  0
  2  1  2  0
  2  4  1  0
  4  6  1  0
  5 10  2  0
  6  5  1  0
  7  8  1  0
  7  6  2  0
  8  9  2  0
  9 10  1  0
 11  2  1  0
 12 11  1  0
 13 12  2  0
 14 13  1  0
 15 16  1  0
 15 14  2  0
 16 17  2  0
 17 12  1  0
  3 18  1  0
  5 19  1  0
  7 20  1  0
  9 21  1  0
 13 22  1  0
 14 23  1  0
 15 24  1  0
 16 25  1  0
 17 26  1  0
M  ISO  8  18   3  19  14  20  14  21  14  22  14  23  14  24  14  25  14
M  ISO  1  26  14
M  END
>  <minimizedAffinity>  (1) 
-4.91677856

>  <minimizedRMSD>  (1) 
0.901332974

$$$$
