
     RDKit          3D

 34 36  0  0  1  0  0  0  0  0999 V2000
   32.2060   28.1500   47.6030 C   0  0  2  0  0  0  0  0  0  0  0  0
   33.5170   28.0970   48.3710 C   0  0  1  0  0  0  0  0  0  0  0  0
   34.0580   26.8570   48.1940 O   0  0  0  0  0  0  0  0  0  0  0  0
   33.3270   26.1760   47.2460 C   0  0  0  0  0  0  0  0  0  0  0  0
   32.5660   27.2410   46.4370 C   0  0  1  0  0  0  0  0  0  0  0  0
   31.9270   29.4520   47.1650 O   0  0  0  0  0  0  0  0  0  0  0  0
   34.6180   29.3150   47.5850 S   0  0  0  0  0  0  0  0  0  0  0  0
   37.2320   29.3200   50.5560 C   0  0  0  0  0  0  0  0  0  0  0  0
   37.7240   30.6270   50.6080 C   0  0  0  0  0  0  0  0  0  0  0  0
   37.2230   31.5500   49.6810 C   0  0  0  0  0  0  0  0  0  0  0  0
   36.2950   31.1230   48.7920 N   0  0  0  0  0  0  0  0  0  0  0  0
   35.8380   29.8600   48.7620 C   0  0  0  0  0  0  0  0  0  0  0  0
   36.3010   28.9580   49.6380 N   0  0  0  0  0  0  0  0  0  0  0  0
   31.4690   26.6780   45.8430 O   0  0  0  0  0  0  0  0  0  0  0  0
   30.6040   27.4360   45.0780 C   0  0  0  0  0  0  0  0  0  0  0  0
   29.2930   27.2210   45.5230 C   0  0  0  0  0  0  0  0  0  0  0  0
   28.2110   27.8580   44.9310 C   0  0  0  0  0  0  0  0  0  0  0  0
   28.4090   28.7250   43.8830 C   0  0  0  0  0  0  0  0  0  0  0  0
   29.7000   28.9300   43.4540 C   0  0  0  0  0  0  0  0  0  0  0  0
   30.7830   28.3080   44.0260 C   0  0  0  0  0  0  0  0  0  0  0  0
   31.3123   27.8554   48.1727 H   0  0  0  0  0  0  0  0  0  0  0  0
   33.3773   28.3028   49.4425 H   0  0  0  0  0  0  0  0  0  0  0  0
   33.9972   25.6045   46.5870 H   0  0  0  0  0  0  0  0  0  0  0  0
   32.6348   25.4607   47.7141 H   0  0  0  0  0  0  0  0  0  0  0  0
   33.0929   27.7316   45.6053 H   0  0  0  0  0  0  0  0  0  0  0  0
   31.8002   30.0437   47.9485 H   0  0  0  0  0  0  0  0  0  0  0  0
   37.6058   28.5724   51.2712 H   0  0  0  0  0  0  0  0  0  0  0  0
   38.4792   30.9210   51.3518 H   0  0  0  0  0  0  0  0  0  0  0  0
   37.5736   32.5926   49.6753 H   0  0  0  0  0  0  0  0  0  0  0  0
   29.1169   26.5310   46.3614 H   0  0  0  0  0  0  0  0  0  0  0  0
   27.1928   27.6685   45.3015 H   0  0  0  0  0  0  0  0  0  0  0  0
   27.5628   29.2383   43.4029 H   0  0  0  0  0  0  0  0  0  0  0  0
   29.8725   29.6221   42.6166 H   0  0  0  0  0  0  0  0  0  0  0  0
   31.7951   28.5063   43.6436 H   0  0  0  0  0  0  0  0  0  0  0  0
  1  2  1  0
  3  2  1  0
  4  3  1  0
  5  4  1  0
  5  1  1  0
  6  1  1  0
  7  2  1  0
  7 12  1  0
  8  9  2  0
 10  9  1  0
 11 10  2  0
 12 11  1  0
 12 13  2  0
 13  8  1  0
 14  5  1  0
 15 16  2  0
 15 14  1  0
 17 16  1  0
 18 17  2  0
 19 18  1  0
 19 20  2  0
 20 15  1  0
  1 21  1  1
  2 22  1  1
  4 23  1  0
  4 24  1  0
  5 25  1  6
  6 26  1  0
  8 27  1  0
  9 28  1  0
 10 29  1  0
 16 30  1  0
 17 31  1  0
 18 32  1  0
 19 33  1  0
 20 34  1  0
M  ISO  8  21  13  22  13  23  13  24  13  25  13  26   3  27  14  28  14
M  ISO  6  29  14  30  14  31  14  32  14  33  14  34  14
M  END
>  <minimizedAffinity>  (1) 
-3.94875145

>  <minimizedRMSD>  (1) 
1.65775955

$$$$
