
     RDKit          3D

 39 41  0  0  0  0  0  0  0  0999 V2000
   38.5540   30.1750   43.9320 C   0  0  0  0  0  0  0  0  0  0  0  0
   37.4380   29.4840   43.5810 C   0  0  0  0  0  0  0  0  0  0  0  0
   37.5440   28.4140   42.6970 C   0  0  0  0  0  0  0  0  0  0  0  0
   38.7440   28.0140   42.1490 C   0  0  0  0  0  0  0  0  0  0  0  0
   39.8920   28.6940   42.4810 C   0  0  0  0  0  0  0  0  0  0  0  0
   39.7540   29.7450   43.3570 C   0  0  0  0  0  0  0  0  0  0  0  0
   34.0260   30.8470   43.6600 C   0  0  0  0  0  0  0  0  0  0  0  0
   35.2840   30.4650   43.2210 C   0  0  0  0  0  0  0  0  0  0  0  0
   36.1500   29.8460   44.0650 C   0  0  0  0  0  0  0  0  0  0  0  0
   35.7220   29.6210   45.3380 N   0  0  0  0  0  0  0  0  0  0  0  0
   34.5080   29.9820   45.7680 C   0  0  0  0  0  0  0  0  0  0  0  0
   33.6690   30.5960   44.9260 N   0  0  0  0  0  0  0  0  0  0  0  0
   34.1490   29.6160   47.1640 C   0  0  0  0  0  0  0  0  0  0  0  0
   34.0870   30.7220   47.9910 F   0  0  0  0  0  0  0  0  0  0  0  0
   32.7820   29.1430   47.1740 F   0  0  0  0  0  0  0  0  0  0  0  0
   34.8210   28.6340   47.7210 F   0  0  0  0  0  0  0  0  0  0  0  0
   38.5630   31.4780   45.0390 S   0  0  0  0  0  0  0  0  0  0  0  0
   37.5570   32.5080   44.6840 O   0  0  0  0  0  0  0  0  0  0  0  0
   39.7650   32.2340   44.5080 O   0  0  0  0  0  0  0  0  0  0  0  0
   39.3100   31.5760   46.5620 C   0  0  0  0  0  0  0  0  0  0  0  0
   38.4640   31.5020   47.7340 C   0  0  0  0  0  0  0  0  0  0  0  0
   38.3450   32.6650   48.4380 C   0  0  0  0  0  0  0  0  0  0  0  0
   37.5830   32.8190   49.5950 C   0  0  0  0  0  0  0  0  0  0  0  0
   36.9010   31.6970   50.0550 C   0  0  0  0  0  0  0  0  0  0  0  0
   37.0170   30.5180   49.3500 C   0  0  0  0  0  0  0  0  0  0  0  0
   37.7830   30.4120   48.2080 C   0  0  0  0  0  0  0  0  0  0  0  0
   36.6312   27.8641   42.4240 H   0  0  0  0  0  0  0  0  0  0  0  0
   38.7826   27.1615   41.4549 H   0  0  0  0  0  0  0  0  0  0  0  0
   40.8712   28.4116   42.0669 H   0  0  0  0  0  0  0  0  0  0  0  0
   40.6668   30.2952   43.6290 H   0  0  0  0  0  0  0  0  0  0  0  0
   33.3280   31.3512   42.9754 H   0  0  0  0  0  0  0  0  0  0  0  0
   35.5833   30.6645   42.1815 H   0  0  0  0  0  0  0  0  0  0  0  0
   40.0332   30.7497   46.6266 H   0  0  0  0  0  0  0  0  0  0  0  0
   39.7412   32.5874   46.5947 H   0  0  0  0  0  0  0  0  0  0  0  0
   38.8900   33.5448   48.0653 H   0  0  0  0  0  0  0  0  0  0  0  0
   37.5236   33.7836   50.1204 H   0  0  0  0  0  0  0  0  0  0  0  0
   36.2819   31.7496   50.9627 H   0  0  0  0  0  0  0  0  0  0  0  0
   36.4789   29.6293   49.7115 H   0  0  0  0  0  0  0  0  0  0  0  0
   37.8472   29.4508   47.6770 H   0  0  0  0  0  0  0  0  0  0  0  0
  1 17  1  0
  2  1  1  0
  2  9  1  0
  3  2  2  0
  4  5  2  0
  4  3  1  0
  5  6  1  0
  6  1  2  0
  7 12  2  0
  8  7  1  0
  8  9  2  0
  9 10  1  0
 10 11  2  0
 11 13  1  0
 12 11  1  0
 13 15  1  0
 13 16  1  0
 13 14  1  0
 17 20  1  0
 18 17  2  0
 19 17  2  0
 20 21  1  0
 21 26  1  0
 21 22  2  0
 22 23  1  0
 23 24  2  0
 25 24  1  0
 26 25  2  0
  3 27  1  0
  4 28  1  0
  5 29  1  0
  6 30  1  0
  7 31  1  0
  8 32  1  0
 20 33  1  0
 20 34  1  0
 22 35  1  0
 23 36  1  0
 24 37  1  0
 25 38  1  0
 26 39  1  0
M  ISO  8  27  14  28  14  29  14  30  14  31  14  32  14  33   8  34   8
M  ISO  5  35  14  36  14  37  14  38  14  39  14
M  END
>  <minimizedAffinity>  (1) 
-5.81140471

>  <minimizedRMSD>  (1) 
5.03112125

$$$$
