
     RDKit          3D

 36 38  0  0  1  0  0  0  0  0999 V2000
   35.9100   29.6680   48.7760 N   0  0  0  0  0  0  0  0  0  0  0  0
   36.6780   28.8880   49.7100 C   0  0  0  0  0  0  0  0  0  0  0  0
   37.1810   29.5780   50.9010 C   0  0  0  0  0  0  0  0  0  0  0  0
   37.3970   31.0370   50.8550 C   0  0  0  0  0  0  0  0  0  0  0  0
   36.6180   31.7410   49.7830 C   0  0  0  0  0  0  0  0  0  0  0  0
   36.6250   30.9050   48.4980 C   0  0  1  0  0  0  0  0  0  0  0  0
   34.6440   29.2890   48.2090 C   0  0  0  0  0  0  0  0  0  0  0  0
   34.1020   29.8250   47.0460 C   0  0  0  0  0  0  0  0  0  0  0  0
   32.8720   29.3580   46.6270 C   0  0  0  0  0  0  0  0  0  0  0  0
   32.2520   28.4040   47.3610 N   0  0  0  0  0  0  0  0  0  0  0  0
   32.8060   27.9090   48.4810 C   0  0  0  0  0  0  0  0  0  0  0  0
   34.0010   28.3580   48.8960 N   0  0  0  0  0  0  0  0  0  0  0  0
   37.9690   30.6610   48.2470 O   0  0  0  0  0  0  0  0  0  0  0  0
   38.7280   31.3510   47.3320 C   0  0  0  0  0  0  0  0  0  0  0  0
   39.0200   30.5620   46.2280 C   0  0  0  0  0  0  0  0  0  0  0  0
   39.7690   31.0090   45.1570 C   0  0  0  0  0  0  0  0  0  0  0  0
   40.2600   32.3150   45.1810 C   0  0  0  0  0  0  0  0  0  0  0  0
   39.9690   33.1040   46.2830 C   0  0  0  0  0  0  0  0  0  0  0  0
   39.2200   32.6360   47.3410 C   0  0  0  0  0  0  0  0  0  0  0  0
   36.0411   28.0587   50.0517 H   0  0  0  0  0  0  0  0  0  0  0  0
   37.5782   28.5850   49.1552 H   0  0  0  0  0  0  0  0  0  0  0  0
   36.4616   29.3858   51.7106 H   0  0  0  0  0  0  0  0  0  0  0  0
   38.1942   29.1694   51.0294 H   0  0  0  0  0  0  0  0  0  0  0  0
   37.1049   31.4597   51.8276 H   0  0  0  0  0  0  0  0  0  0  0  0
   38.4616   31.1917   50.6252 H   0  0  0  0  0  0  0  0  0  0  0  0
   35.5806   31.8832   50.1199 H   0  0  0  0  0  0  0  0  0  0  0  0
   37.0810   32.7183   49.5816 H   0  0  0  0  0  0  0  0  0  0  0  0
   36.1457   31.3927   47.6363 H   0  0  0  0  0  0  0  0  0  0  0  0
   34.6376   30.5986   46.4763 H   0  0  0  0  0  0  0  0  0  0  0  0
   32.4043   29.7538   45.7135 H   0  0  0  0  0  0  0  0  0  0  0  0
   32.2794   27.1348   49.0584 H   0  0  0  0  0  0  0  0  0  0  0  0
   38.6365   29.5313   46.2049 H   0  0  0  0  0  0  0  0  0  0  0  0
   39.9744   30.3484   44.3018 H   0  0  0  0  0  0  0  0  0  0  0  0
   40.8616   32.7077   44.3481 H   0  0  0  0  0  0  0  0  0  0  0  0
   40.3479   34.1362   46.3140 H   0  0  0  0  0  0  0  0  0  0  0  0
   39.0142   33.2940   48.1982 H   0  0  0  0  0  0  0  0  0  0  0  0
  1  2  1  0
  2  3  1  0
  4  3  1  0
  5  4  1  0
  6  1  1  0
  6  5  1  0
  7  1  1  0
  7 12  1  0
  8  7  2  0
  9  8  1  0
  9 10  2  0
 10 11  1  0
 11 12  2  0
 13  6  1  0
 14 19  1  0
 14 13  1  0
 15 14  2  0
 16 17  2  0
 16 15  1  0
 17 18  1  0
 18 19  2  0
  2 20  1  0
  2 21  1  0
  3 22  1  0
  3 23  1  0
  4 24  1  0
  4 25  1  0
  5 26  1  0
  5 27  1  0
  6 28  1  6
  8 29  1  0
  9 30  1  0
 11 31  1  0
 15 32  1  0
 16 33  1  0
 17 34  1  0
 18 35  1  0
 19 36  1  0
M  ISO  8  20  13  21  13  22  13  23  13  24  13  25  13  26  13  27  13
M  ISO  8  28  13  29  14  30  14  31  14  32  14  33  14  34  14  35  14
M  ISO  1  36  14
M  END
>  <minimizedAffinity>  (1) 
-5.98221731

>  <minimizedRMSD>  (1) 
0.717342377

$$$$
