
     RDKit          3D

 30 32  0  0  0  0  0  0  0  0999 V2000
   37.3250   31.4030   49.2820 C   0  0  0  0  0  0  0  0  0  0  0  0
   37.4810   32.7170   49.7240 C   0  0  0  0  0  0  0  0  0  0  0  0
   38.3800   33.4840   49.0240 C   0  0  0  0  0  0  0  0  0  0  0  0
   39.0540   32.9570   47.9720 N   0  0  0  0  0  0  0  0  0  0  0  0
   38.8740   31.6670   47.5680 C   0  0  0  0  0  0  0  0  0  0  0  0
   37.9880   30.8580   48.2350 N   0  0  0  0  0  0  0  0  0  0  0  0
   36.3280   30.5270   49.9970 C   0  0  0  0  0  0  0  0  0  0  0  0
   36.3520   29.0890   49.9260 C   0  0  0  0  0  0  0  0  0  0  0  0
   36.9670   29.7370   51.1520 C   0  0  0  0  0  0  0  0  0  0  0  0
   39.5800   31.0990   46.4260 C   0  0  0  0  0  0  0  0  0  0  0  0
   39.0120   31.6970   45.1860 C   0  0  0  0  0  0  0  0  0  0  0  0
   39.8720   32.2470   44.2330 C   0  0  0  0  0  0  0  0  0  0  0  0
   39.5030   32.8320   43.0450 C   0  0  0  0  0  0  0  0  0  0  0  0
   38.1310   32.8750   42.7750 C   0  0  0  0  0  0  0  0  0  0  0  0
   37.2590   32.3350   43.7070 C   0  0  0  0  0  0  0  0  0  0  0  0
   37.6500   31.7570   44.8840 C   0  0  0  0  0  0  0  0  0  0  0  0
   36.9181   33.1147   50.5813 H   0  0  0  0  0  0  0  0  0  0  0  0
   38.5539   34.5297   49.3179 H   0  0  0  0  0  0  0  0  0  0  0  0
   35.5008   31.2314   49.8251 H   0  0  0  0  0  0  0  0  0  0  0  0
   35.4126   28.5252   50.0239 H   0  0  0  0  0  0  0  0  0  0  0  0
   36.7189   28.3689   49.1797 H   0  0  0  0  0  0  0  0  0  0  0  0
   38.0574   29.7397   51.2966 H   0  0  0  0  0  0  0  0  0  0  0  0
   36.8368   29.6691   52.2422 H   0  0  0  0  0  0  0  0  0  0  0  0
   40.6522   31.3344   46.4960 H   0  0  0  0  0  0  0  0  0  0  0  0
   39.4613   30.0055   46.4104 H   0  0  0  0  0  0  0  0  0  0  0  0
   40.9488   32.2084   44.4544 H   0  0  0  0  0  0  0  0  0  0  0  0
   40.2454   33.2435   42.3454 H   0  0  0  0  0  0  0  0  0  0  0  0
   37.7536   33.3264   41.8456 H   0  0  0  0  0  0  0  0  0  0  0  0
   36.1821   32.3736   43.4861 H   0  0  0  0  0  0  0  0  0  0  0  0
   36.9040   31.3466   45.5805 H   0  0  0  0  0  0  0  0  0  0  0  0
  1  2  2  0
  1  7  1  0
  3  2  1  0
  4  3  2  0
  5  4  1  0
  5  6  2  0
  6  1  1  0
  7  9  1  0
  8  7  1  0
  8  9  1  0
 10  5  1  0
 11 10  1  0
 12 11  2  0
 13 12  1  0
 14 13  2  0
 14 15  1  0
 15 16  2  0
 16 11  1  0
  2 17  1  0
  3 18  1  0
  7 19  1  0
  8 20  1  0
  8 21  1  0
  9 22  1  0
  9 23  1  0
 10 24  1  0
 10 25  1  0
 12 26  1  0
 13 27  1  0
 14 28  1  0
 15 29  1  0
 16 30  1  0
M  ISO  8  17  14  18  14  19  13  20  13  21  13  22  13  23  13  24   8
M  ISO  6  25   8  26  14  27  14  28  14  29  14  30  14
M  END
>  <minimizedAffinity>  (1) 
-5.42194891

>  <minimizedRMSD>  (1) 
0.981118679

$$$$
