
     RDKit          3D

 33 35  0  0  0  0  0  0  0  0999 V2000
   35.7890   29.8030   49.0560 C   0  0  0  0  0  0  0  0  0  0  0  0
   36.6730   29.3030   50.0100 C   0  0  0  0  0  0  0  0  0  0  0  0
   37.8090   30.0630   49.9540 C   0  0  0  0  0  0  0  0  0  0  0  0
   37.6190   30.9830   49.0050 N   0  0  0  0  0  0  0  0  0  0  0  0
   36.4230   30.8130   48.4870 N   0  0  0  0  0  0  0  0  0  0  0  0
   38.4480   32.0310   48.5110 C   0  0  0  0  0  0  0  0  0  0  0  0
   38.6800   33.0760   49.3810 C   0  0  0  0  0  0  0  0  0  0  0  0
   39.4630   34.1850   49.0700 C   0  0  0  0  0  0  0  0  0  0  0  0
   40.0270   34.1940   47.7930 C   0  0  0  0  0  0  0  0  0  0  0  0
   39.8020   33.1520   46.9130 C   0  0  0  0  0  0  0  0  0  0  0  0
   39.0190   32.0670   47.2520 C   0  0  0  0  0  0  0  0  0  0  0  0
   34.4520   29.1870   48.8660 C   0  0  0  0  0  0  0  0  0  0  0  0
   34.2790   28.5570   47.5420 C   0  0  0  0  0  0  0  0  0  0  0  0
   33.9440   29.3770   46.4140 C   0  0  0  0  0  0  0  0  0  0  0  0
   32.7490   30.0440   46.3610 C   0  0  0  0  0  0  0  0  0  0  0  0
   32.4170   30.8450   45.2430 C   0  0  0  0  0  0  0  0  0  0  0  0
   33.3740   30.8970   44.2380 N   0  0  0  0  0  0  0  0  0  0  0  0
   34.5370   30.2180   44.3430 C   0  0  0  0  0  0  0  0  0  0  0  0
   34.8200   29.4630   45.4240 N   0  0  0  0  0  0  0  0  0  0  0  0
   36.4908   28.4532   50.6843 H   0  0  0  0  0  0  0  0  0  0  0  0
   38.7093   29.9395   50.5739 H   0  0  0  0  0  0  0  0  0  0  0  0
   38.2196   33.0308   50.3790 H   0  0  0  0  0  0  0  0  0  0  0  0
   39.6269   35.0034   49.7865 H   0  0  0  0  0  0  0  0  0  0  0  0
   40.6579   35.0403   47.4834 H   0  0  0  0  0  0  0  0  0  0  0  0
   40.2602   33.1885   45.9136 H   0  0  0  0  0  0  0  0  0  0  0  0
   38.8528   31.2486   46.5361 H   0  0  0  0  0  0  0  0  0  0  0  0
   34.3095   28.4178   49.6393 H   0  0  0  0  0  0  0  0  0  0  0  0
   33.7090   29.9947   48.9407 H   0  0  0  0  0  0  0  0  0  0  0  0
   35.2254   28.0507   47.3012 H   0  0  0  0  0  0  0  0  0  0  0  0
   33.3939   27.9167   47.6713 H   0  0  0  0  0  0  0  0  0  0  0  0
   32.0395   29.9560   47.1969 H   0  0  0  0  0  0  0  0  0  0  0  0
   31.4642   31.3903   45.1744 H   0  0  0  0  0  0  0  0  0  0  0  0
   35.2714   30.2825   43.5266 H   0  0  0  0  0  0  0  0  0  0  0  0
  1  2  1  0
  3  2  2  0
  4  3  1  0
  5  4  1  0
  5  1  2  0
  6  4  1  0
  6  7  2  0
  8  7  1  0
  9  8  2  0
 10 11  2  0
 10  9  1  0
 11  6  1  0
 12  1  1  0
 13 12  1  0
 14 13  1  0
 15 14  2  0
 16 15  1  0
 17 18  1  0
 17 16  2  0
 18 19  2  0
 19 14  1  0
  2 20  1  0
  3 21  1  0
  7 22  1  0
  8 23  1  0
  9 24  1  0
 10 25  1  0
 11 26  1  0
 12 27  1  0
 12 28  1  0
 13 29  1  0
 13 30  1  0
 15 31  1  0
 16 32  1  0
 18 33  1  0
M  ISO  8  20  14  21  14  22  14  23  14  24  14  25  14  26  14  27   8
M  ISO  6  28   8  29   8  30   8  31  14  32  14  33  14
M  END
>  <minimizedAffinity>  (1) 
-5.25059652

>  <minimizedRMSD>  (1) 
5.56051874

$$$$
