
     RDKit          3D

 23 24  0  0  0  0  0  0  0  0999 V2000
   37.4120   30.2810   50.0390 C   0  0  0  0  0  0  0  0  0  0  0  0
   38.3030   31.3520   50.1620 C   0  0  0  0  0  0  0  0  0  0  0  0
   38.5380   32.1390   49.0280 C   0  0  0  0  0  0  0  0  0  0  0  0
   37.8820   31.8090   47.8840 N   0  0  0  0  0  0  0  0  0  0  0  0
   37.0290   30.7670   47.8050 C   0  0  0  0  0  0  0  0  0  0  0  0
   36.7990   30.0130   48.8780 N   0  0  0  0  0  0  0  0  0  0  0  0
   36.3690   30.4840   46.5390 C   0  0  0  0  0  0  0  0  0  0  0  0
   35.0970   29.9510   46.5070 C   0  0  0  0  0  0  0  0  0  0  0  0
   34.4720   29.6820   45.3100 C   0  0  0  0  0  0  0  0  0  0  0  0
   35.0730   29.9270   44.0900 C   0  0  0  0  0  0  0  0  0  0  0  0
   36.3480   30.4620   44.1000 C   0  0  0  0  0  0  0  0  0  0  0  0
   36.9550   30.7230   45.3120 C   0  0  0  0  0  0  0  0  0  0  0  0
   37.1640   29.4390   51.2610 C   0  0  0  0  0  0  0  0  0  0  0  0
   35.7980   29.1930   51.3810 F   0  0  0  0  0  0  0  0  0  0  0  0
   37.8970   28.2990   51.1430 F   0  0  0  0  0  0  0  0  0  0  0  0
   37.5270   30.1900   52.3690 F   0  0  0  0  0  0  0  0  0  0  0  0
   38.8025   31.5688   51.1178 H   0  0  0  0  0  0  0  0  0  0  0  0
   39.2291   32.9942   49.0616 H   0  0  0  0  0  0  0  0  0  0  0  0
   34.5746   29.7379   47.4513 H   0  0  0  0  0  0  0  0  0  0  0  0
   33.4577   29.2567   45.3254 H   0  0  0  0  0  0  0  0  0  0  0  0
   34.5558   29.7045   43.1450 H   0  0  0  0  0  0  0  0  0  0  0  0
   36.8708   30.6764   43.1562 H   0  0  0  0  0  0  0  0  0  0  0  0
   37.9694   31.1482   45.2994 H   0  0  0  0  0  0  0  0  0  0  0  0
  1  2  2  0
  1 13  1  0
  3  2  1  0
  4  3  2  0
  5  4  1  0
  5  6  2  0
  6  1  1  0
  7  5  1  0
  8  7  2  0
  9  8  1  0
 10 11  1  0
 10  9  2  0
 11 12  2  0
 12  7  1  0
 13 14  1  0
 13 16  1  0
 15 13  1  0
  2 17  1  0
  3 18  1  0
  8 19  1  0
  9 20  1  0
 10 21  1  0
 11 22  1  0
 12 23  1  0
M  ISO  7  17  14  18  14  19  14  20  14  21  14  22  14  23  14
M  END
>  <minimizedAffinity>  (1) 
-5.42867565

>  <minimizedRMSD>  (1) 
0.752708018

$$$$
