
     RDKit          3D

 35 37  0  0  1  0  0  0  0  0999 V2000
   38.8010   32.2140   47.0940 C   0  0  0  0  0  0  0  0  0  0  0  0
   39.7320   31.5140   46.3160 C   0  0  0  0  0  0  0  0  0  0  0  0
   39.2820   30.4220   45.5910 C   0  0  0  0  0  0  0  0  0  0  0  0
   37.9680   30.0780   45.6640 N   0  0  0  0  0  0  0  0  0  0  0  0
   37.0960   30.7600   46.4120 C   0  0  0  0  0  0  0  0  0  0  0  0
   37.5080   31.8320   47.1310 N   0  0  0  0  0  0  0  0  0  0  0  0
   35.7120   30.3860   46.4780 N   0  0  0  0  0  0  0  0  0  0  0  0
   34.9910   30.3650   47.7540 C   0  0  1  0  0  0  0  0  0  0  0  0
   33.9790   29.2610   47.8310 C   0  0  0  0  0  0  0  0  0  0  0  0
   34.2600   28.2510   46.7570 C   0  0  0  0  0  0  0  0  0  0  0  0
   34.0020   28.9530   45.4350 C   0  0  0  0  0  0  0  0  0  0  0  0
   35.0230   30.0270   45.2560 C   0  0  0  0  0  0  0  0  0  0  0  0
   35.9240   30.3730   48.9020 C   0  0  0  0  0  0  0  0  0  0  0  0
   36.2400   31.4970   49.6570 C   0  0  0  0  0  0  0  0  0  0  0  0
   37.1120   31.4680   50.7180 C   0  0  0  0  0  0  0  0  0  0  0  0
   37.7230   30.2810   51.0780 C   0  0  0  0  0  0  0  0  0  0  0  0
   37.4460   29.1420   50.3640 C   0  0  0  0  0  0  0  0  0  0  0  0
   36.5560   29.2110   49.2940 C   0  0  0  0  0  0  0  0  0  0  0  0
   39.1280   33.0848   47.6812 H   0  0  0  0  0  0  0  0  0  0  0  0
   40.7876   31.8215   46.2816 H   0  0  0  0  0  0  0  0  0  0  0  0
   39.9770   29.8421   44.9659 H   0  0  0  0  0  0  0  0  0  0  0  0
   34.4088   31.2966   47.8101 H   0  0  0  0  0  0  0  0  0  0  0  0
   34.0398   28.7755   48.8162 H   0  0  0  0  0  0  0  0  0  0  0  0
   32.9704   29.6767   47.6895 H   0  0  0  0  0  0  0  0  0  0  0  0
   35.3064   27.9164   46.8129 H   0  0  0  0  0  0  0  0  0  0  0  0
   33.6235   27.3608   46.8683 H   0  0  0  0  0  0  0  0  0  0  0  0
   34.0780   28.2289   44.6104 H   0  0  0  0  0  0  0  0  0  0  0  0
   32.9931   29.3912   45.4341 H   0  0  0  0  0  0  0  0  0  0  0  0
   35.7689   29.6787   44.5265 H   0  0  0  0  0  0  0  0  0  0  0  0
   34.4877   30.9249   44.9136 H   0  0  0  0  0  0  0  0  0  0  0  0
   35.7692   32.4552   49.3920 H   0  0  0  0  0  0  0  0  0  0  0  0
   37.3241   32.3888   51.2811 H   0  0  0  0  0  0  0  0  0  0  0  0
   38.4226   30.2499   51.9263 H   0  0  0  0  0  0  0  0  0  0  0  0
   37.9206   28.1868   50.6330 H   0  0  0  0  0  0  0  0  0  0  0  0
   36.3460   28.2893   48.7316 H   0  0  0  0  0  0  0  0  0  0  0  0
  1  6  2  0
  2  1  1  0
  3  4  1  0
  3  2  2  0
  4  5  2  0
  5  7  1  0
  5  6  1  0
  7  8  1  0
  8  9  1  0
  8 13  1  0
 10  9  1  0
 11 10  1  0
 12 11  1  0
 12  7  1  0
 13 18  1  0
 13 14  2  0
 14 15  1  0
 15 16  2  0
 17 16  1  0
 18 17  2  0
  1 19  1  0
  2 20  1  0
  3 21  1  0
  8 22  1  1
  9 23  1  0
  9 24  1  0
 10 25  1  0
 10 26  1  0
 11 27  1  0
 11 28  1  0
 12 29  1  0
 12 30  1  0
 14 31  1  0
 15 32  1  0
 16 33  1  0
 17 34  1  0
 18 35  1  0
M  ISO  8  19  14  20  14  21  14  22  13  23  13  24  13  25  13  26  13
M  ISO  8  27  13  28  13  29  13  30  13  31  14  32  14  33  14  34  14
M  ISO  1  35  14
M  END
>  <minimizedAffinity>  (1) 
-5.61109257

>  <minimizedRMSD>  (1) 
2.31219602

$$$$
