
     RDKit          3D

 36 38  0  0  1  0  0  0  0  0999 V2000
   35.3340   30.3220   49.9810 C   0  0  2  0  0  0  0  0  0  0  0  0
   36.2530   31.2580   49.2180 C   0  0  0  0  0  0  0  0  0  0  0  0
   37.6930   30.8430   49.2760 C   0  0  2  0  0  0  0  0  0  0  0  0
   38.1760   30.6850   50.6960 C   0  0  0  0  0  0  0  0  0  0  0  0
   37.2220   29.9230   51.5660 C   0  0  0  0  0  0  0  0  0  0  0  0
   36.0890   29.3080   50.7720 C   0  0  0  0  0  0  0  0  0  0  0  0
   34.4640   29.5890   49.0130 C   0  0  0  0  0  0  0  0  0  0  0  0
   34.3850   30.1280   47.7170 C   0  0  0  0  0  0  0  0  0  0  0  0
   33.5600   29.4440   46.8100 C   0  0  0  0  0  0  0  0  0  0  0  0
   32.8890   28.3130   47.2250 N   0  0  0  0  0  0  0  0  0  0  0  0
   33.0040   27.8390   48.4910 C   0  0  0  0  0  0  0  0  0  0  0  0
   33.7840   28.4780   49.3640 N   0  0  0  0  0  0  0  0  0  0  0  0
   38.4830   31.9270   48.6300 C   0  0  0  0  0  0  0  0  0  0  0  0
   38.7380   33.0500   49.4010 C   0  0  0  0  0  0  0  0  0  0  0  0
   39.4760   34.1020   48.8480 C   0  0  0  0  0  0  0  0  0  0  0  0
   39.9150   33.9680   47.5520 C   0  0  0  0  0  0  0  0  0  0  0  0
   39.6540   32.8420   46.7930 C   0  0  0  0  0  0  0  0  0  0  0  0
   38.9180   31.7810   47.3310 C   0  0  0  0  0  0  0  0  0  0  0  0
   34.7433   30.9400   50.6732 H   0  0  0  0  0  0  0  0  0  0  0  0
   36.1614   32.2664   49.6479 H   0  0  0  0  0  0  0  0  0  0  0  0
   35.9457   31.2317   48.1621 H   0  0  0  0  0  0  0  0  0  0  0  0
   37.8108   29.8731   48.7707 H   0  0  0  0  0  0  0  0  0  0  0  0
   39.1372   30.1504   50.6803 H   0  0  0  0  0  0  0  0  0  0  0  0
   38.2699   31.6947   51.1222 H   0  0  0  0  0  0  0  0  0  0  0  0
   37.7731   29.1197   52.0769 H   0  0  0  0  0  0  0  0  0  0  0  0
   36.7843   30.6298   52.2863 H   0  0  0  0  0  0  0  0  0  0  0  0
   35.3952   28.8158   51.4694 H   0  0  0  0  0  0  0  0  0  0  0  0
   36.5269   28.5885   50.0645 H   0  0  0  0  0  0  0  0  0  0  0  0
   34.9382   31.0343   47.4298 H   0  0  0  0  0  0  0  0  0  0  0  0
   33.4498   29.8070   45.7775 H   0  0  0  0  0  0  0  0  0  0  0  0
   32.4578   26.9340   48.7953 H   0  0  0  0  0  0  0  0  0  0  0  0
   38.3651   33.1133   50.4339 H   0  0  0  0  0  0  0  0  0  0  0  0
   39.6980   35.0076   49.4316 H   0  0  0  0  0  0  0  0  0  0  0  0
   40.4954   34.7870   47.1022 H   0  0  0  0  0  0  0  0  0  0  0  0
   40.0273   32.7802   45.7601 H   0  0  0  0  0  0  0  0  0  0  0  0
   38.6977   30.8757   46.7463 H   0  0  0  0  0  0  0  0  0  0  0  0
  1  6  1  0
  2  3  1  0
  2  1  1  0
  3  4  1  0
  4  5  1  0
  6  5  1  0
  7 12  1  0
  7  1  1  0
  8  7  2  0
  9 10  2  0
  9  8  1  0
 10 11  1  0
 11 12  2  0
 13  3  1  0
 13 14  2  0
 15 14  1  0
 16 15  2  0
 17 18  2  0
 17 16  1  0
 18 13  1  0
  1 19  1  1
  2 20  1  0
  2 21  1  0
  3 22  1  6
  4 23  1  0
  4 24  1  0
  5 25  1  0
  5 26  1  0
  6 27  1  0
  6 28  1  0
  8 29  1  0
  9 30  1  0
 11 31  1  0
 14 32  1  0
 15 33  1  0
 16 34  1  0
 17 35  1  0
 18 36  1  0
M  ISO  8  19  13  20  13  21  13  22  13  23  13  24  13  25  13  26  13
M  ISO  8  27  13  28  13  29  14  30  14  31  14  32  14  33  14  34  14
M  ISO  2  35  14  36  14
M  END
>  <minimizedAffinity>  (1) 
-6.98356295

>  <minimizedRMSD>  (1) 
0.47484675

$$$$
