
     RDKit          3D

 21 22  0  0  0  0  0  0  0  0999 V2000
   37.4780   30.0550   50.9470 C   0  0  0  0  0  0  0  0  0  0  0  0
   38.2470   31.0510   50.2980 C   0  0  0  0  0  0  0  0  0  0  0  0
   37.8600   31.4520   49.0120 C   0  0  0  0  0  0  0  0  0  0  0  0
   36.7610   30.8540   48.4600 N   0  0  0  0  0  0  0  0  0  0  0  0
   36.0490   29.9040   49.1080 C   0  0  0  0  0  0  0  0  0  0  0  0
   36.4150   29.5240   50.3280 N   0  0  0  0  0  0  0  0  0  0  0  0
   34.8850   29.3100   48.4540 C   0  0  0  0  0  0  0  0  0  0  0  0
   34.2900   29.9720   47.4000 C   0  0  0  0  0  0  0  0  0  0  0  0
   33.1870   29.3770   46.8060 C   0  0  0  0  0  0  0  0  0  0  0  0
   32.7290   28.1590   47.2810 C   0  0  0  0  0  0  0  0  0  0  0  0
   33.3540   27.5320   48.3370 C   0  0  0  0  0  0  0  0  0  0  0  0
   34.4610   28.1060   48.9530 C   0  0  0  0  0  0  0  0  0  0  0  0
   37.9720   29.7620   52.2000 O   0  0  0  0  0  0  0  0  0  0  0  0
   39.1239   31.4977   50.7895 H   0  0  0  0  0  0  0  0  0  0  0  0
   38.4221   32.2228   48.4644 H   0  0  0  0  0  0  0  0  0  0  0  0
   34.6769   30.9379   47.0432 H   0  0  0  0  0  0  0  0  0  0  0  0
   32.6792   29.8690   45.9633 H   0  0  0  0  0  0  0  0  0  0  0  0
   31.8551   27.6862   46.8091 H   0  0  0  0  0  0  0  0  0  0  0  0
   32.9725   26.5652   48.6973 H   0  0  0  0  0  0  0  0  0  0  0  0
   34.9702   27.6186   49.7975 H   0  0  0  0  0  0  0  0  0  0  0  0
   37.5248   29.0801   52.7614 H   0  0  0  0  0  0  0  0  0  0  0  0
  1 13  1  0
  2  1  2  0
  3  2  1  0
  4  3  2  0
  4  5  1  0
  5  6  2  0
  6  1  1  0
  7 12  1  0
  7  5  1  0
  8  7  2  0
  9 10  2  0
  9  8  1  0
 10 11  1  0
 11 12  2  0
  2 14  1  0
  3 15  1  0
  8 16  1  0
  9 17  1  0
 10 18  1  0
 11 19  1  0
 12 20  1  0
 13 21  1  0
M  ISO  8  14  14  15  14  16  14  17  14  18  14  19  14  20  14  21   3
M  END
>  <minimizedAffinity>  (1) 
-5.03392029

>  <minimizedRMSD>  (1) 
1.29852927

$$$$
