
     RDKit          3D

 46 49  0  0  1  0  0  0  0  0999 V2000
   36.6440   30.3140   45.9610 C   0  0  1  0  0  0  0  0  0  0  0  0
   35.1480   30.1760   45.5780 C   0  0  0  0  0  0  0  0  0  0  0  0
   35.1500   29.1550   44.4340 C   0  0  0  0  0  0  0  0  0  0  0  0
   35.7740   29.8010   43.2500 C   0  0  0  0  0  0  0  0  0  0  0  0
   37.1760   30.2530   43.5680 C   0  0  0  0  0  0  0  0  0  0  0  0
   37.2360   31.0890   44.8220 C   0  0  2  0  0  0  0  0  0  0  0  0
   36.1540   30.6000   48.4060 C   0  0  0  0  0  0  0  0  0  0  0  0
   36.4320   31.2240   49.6160 C   0  0  0  0  0  0  0  0  0  0  0  0
   37.4010   32.2360   49.6800 C   0  0  0  0  0  0  0  0  0  0  0  0
   38.0510   32.5750   48.5140 C   0  0  0  0  0  0  0  0  0  0  0  0
   37.7840   31.9650   47.3170 C   0  0  0  0  0  0  0  0  0  0  0  0
   36.8110   30.9530   47.2700 C   0  0  0  0  0  0  0  0  0  0  0  0
   34.2110   27.4200   49.0210 C   0  0  0  0  0  0  0  0  0  0  0  0
   35.2950   28.3180   49.0180 C   0  0  0  0  0  0  0  0  0  0  0  0
   35.1220   29.5860   48.4620 C   0  0  0  0  0  0  0  0  0  0  0  0
   33.9030   29.8570   47.9580 N   0  0  0  0  0  0  0  0  0  0  0  0
   32.8690   28.9950   47.9640 C   0  0  0  0  0  0  0  0  0  0  0  0
   33.0320   27.7920   48.4930 N   0  0  0  0  0  0  0  0  0  0  0  0
   38.6280   31.5180   45.0050 C   0  0  0  0  0  0  0  0  0  0  0  0
   39.0560   32.8250   44.8510 C   0  0  0  0  0  0  0  0  0  0  0  0
   40.3320   33.2970   45.0030 C   0  0  0  0  0  0  0  0  0  0  0  0
   41.3020   32.3810   45.3490 C   0  0  0  0  0  0  0  0  0  0  0  0
   40.9610   31.0540   45.5240 C   0  0  0  0  0  0  0  0  0  0  0  0
   39.6660   30.6420   45.3550 C   0  0  0  0  0  0  0  0  0  0  0  0
   37.1543   29.3479   46.0883 H   0  0  0  0  0  0  0  0  0  0  0  0
   34.5587   29.8069   46.4303 H   0  0  0  0  0  0  0  0  0  0  0  0
   34.6952   31.1356   45.2879 H   0  0  0  0  0  0  0  0  0  0  0  0
   35.7307   28.2674   44.7255 H   0  0  0  0  0  0  0  0  0  0  0  0
   34.1232   28.8364   44.2014 H   0  0  0  0  0  0  0  0  0  0  0  0
   35.1716   30.6728   42.9547 H   0  0  0  0  0  0  0  0  0  0  0  0
   35.8153   29.0703   42.4288 H   0  0  0  0  0  0  0  0  0  0  0  0
   37.8119   29.3657   43.7034 H   0  0  0  0  0  0  0  0  0  0  0  0
   37.5277   30.8746   42.7314 H   0  0  0  0  0  0  0  0  0  0  0  0
   36.6314   32.0058   44.7598 H   0  0  0  0  0  0  0  0  0  0  0  0
   35.8910   30.9237   50.5255 H   0  0  0  0  0  0  0  0  0  0  0  0
   37.6338   32.7416   50.6288 H   0  0  0  0  0  0  0  0  0  0  0  0
   38.8143   33.3665   48.5453 H   0  0  0  0  0  0  0  0  0  0  0  0
   38.3236   32.2632   46.4060 H   0  0  0  0  0  0  0  0  0  0  0  0
   34.3284   26.4159   49.4545 H   0  0  0  0  0  0  0  0  0  0  0  0
   36.2641   28.0244   49.4476 H   0  0  0  0  0  0  0  0  0  0  0  0
   31.8994   29.2867   47.5342 H   0  0  0  0  0  0  0  0  0  0  0  0
   38.2886   33.5639   44.5771 H   0  0  0  0  0  0  0  0  0  0  0  0
   40.5725   34.3602   44.8555 H   0  0  0  0  0  0  0  0  0  0  0  0
   42.3441   32.7056   45.4853 H   0  0  0  0  0  0  0  0  0  0  0  0
   41.7350   30.3231   45.8010 H   0  0  0  0  0  0  0  0  0  0  0  0
   39.4295   29.5776   45.5001 H   0  0  0  0  0  0  0  0  0  0  0  0
  1 12  1  0
  2  1  1  0
  3  2  1  0
  4  5  1  0
  4  3  1  0
  5  6  1  0
  6 19  1  0
  6  1  1  0
  7 15  1  0
  7  8  2  0
  8  9  1  0
 10  9  2  0
 11 10  1  0
 12 11  2  0
 12  7  1  0
 14 13  2  0
 15 14  1  0
 16 17  1  0
 16 15  2  0
 17 18  2  0
 18 13  1  0
 19 24  2  0
 20 21  2  0
 20 19  1  0
 21 22  1  0
 22 23  2  0
 24 23  1  0
  1 25  1  1
  2 26  1  0
  2 27  1  0
  3 28  1  0
  3 29  1  0
  4 30  1  0
  4 31  1  0
  5 32  1  0
  5 33  1  0
  6 34  1  6
  8 35  1  0
  9 36  1  0
 10 37  1  0
 11 38  1  0
 13 39  1  0
 14 40  1  0
 17 41  1  0
 20 42  1  0
 21 43  1  0
 22 44  1  0
 23 45  1  0
 24 46  1  0
M  ISO  8  25  13  26  13  27  13  28  13  29  13  30  13  31  13  32  13
M  ISO  8  33  13  34  13  35  14  36  14  37  14  38  14  39  14  40  14
M  ISO  6  41  14  42  14  43  14  44  14  45  14  46  14
M  END
>  <minimizedAffinity>  (1) 
-6.14728308

>  <minimizedRMSD>  (1) 
2.99509358

$$$$
