
     RDKit          3D

 29 31  0  0  0  0  0  0  0  0999 V2000
   38.0260   31.9930   49.1510 C   0  0  0  0  0  0  0  0  0  0  0  0
   38.5210   33.1360   49.7120 C   0  0  0  0  0  0  0  0  0  0  0  0
   39.3580   34.0250   49.0670 C   0  0  0  0  0  0  0  0  0  0  0  0
   39.7340   33.7720   47.7760 C   0  0  0  0  0  0  0  0  0  0  0  0
   39.2330   32.6240   47.2220 C   0  0  0  0  0  0  0  0  0  0  0  0
   38.4130   31.7610   47.8670 N   0  0  0  0  0  0  0  0  0  0  0  0
   37.5040   30.3970   51.0360 C   0  0  0  0  0  0  0  0  0  0  0  0
   37.1500   31.0620   49.8420 C   0  0  0  0  0  0  0  0  0  0  0  0
   35.8900   30.8160   49.2800 C   0  0  0  0  0  0  0  0  0  0  0  0
   35.0630   29.9370   49.9210 N   0  0  0  0  0  0  0  0  0  0  0  0
   35.4280   29.3210   51.0520 C   0  0  0  0  0  0  0  0  0  0  0  0
   36.6390   29.5400   51.6180 N   0  0  0  0  0  0  0  0  0  0  0  0
   39.5850   32.2800   45.8500 C   0  0  0  0  0  0  0  0  0  0  0  0
   40.3080   31.1690   45.4720 C   0  0  0  0  0  0  0  0  0  0  0  0
   40.6290   30.8630   44.1700 C   0  0  0  0  0  0  0  0  0  0  0  0
   40.2270   31.6830   43.1590 C   0  0  0  0  0  0  0  0  0  0  0  0
   39.4980   32.8190   43.4450 C   0  0  0  0  0  0  0  0  0  0  0  0
   39.2130   33.0620   44.7700 C   0  0  0  0  0  0  0  0  0  0  0  0
   38.2330   33.3639   50.7489 H   0  0  0  0  0  0  0  0  0  0  0  0
   39.7182   34.9260   49.5851 H   0  0  0  0  0  0  0  0  0  0  0  0
   40.3976   34.4487   47.2176 H   0  0  0  0  0  0  0  0  0  0  0  0
   38.4879   30.5779   51.4934 H   0  0  0  0  0  0  0  0  0  0  0  0
   35.5763   31.3152   48.3513 H   0  0  0  0  0  0  0  0  0  0  0  0
   34.7287   28.6211   51.5327 H   0  0  0  0  0  0  0  0  0  0  0  0
   40.6499   30.4837   46.2616 H   0  0  0  0  0  0  0  0  0  0  0  0
   41.2101   29.9565   43.9451 H   0  0  0  0  0  0  0  0  0  0  0  0
   40.4830   31.4400   42.1172 H   0  0  0  0  0  0  0  0  0  0  0  0
   39.1597   33.5000   42.6501 H   0  0  0  0  0  0  0  0  0  0  0  0
   38.6313   33.9686   44.9927 H   0  0  0  0  0  0  0  0  0  0  0  0
  1  2  2  0
  1  8  1  0
  3  2  1  0
  4  3  2  0
  5  4  1  0
  5  6  2  0
  6  1  1  0
  7 12  2  0
  8  7  1  0
  9  8  2  0
  9 10  1  0
 10 11  2  0
 11 12  1  0
 13  5  1  0
 14 13  2  0
 15 14  1  0
 16 17  1  0
 16 15  2  0
 17 18  2  0
 18 13  1  0
  2 19  1  0
  3 20  1  0
  4 21  1  0
  7 22  1  0
  9 23  1  0
 11 24  1  0
 14 25  1  0
 15 26  1  0
 16 27  1  0
 17 28  1  0
 18 29  1  0
M  ISO  8  19  14  20  14  21  14  22  14  23  14  24  14  25  14  26  14
M  ISO  3  27  14  28  14  29  14
M  END
>  <minimizedAffinity>  (1) 
-6.43945694

>  <minimizedRMSD>  (1) 
0.55164516

$$$$
