
     RDKit          3D

 36 38  0  0  1  0  0  0  0  0999 V2000
   33.4090   29.0340   48.0300 C   0  0  1  0  0  0  0  0  0  0  0  0
   33.5390   29.2870   46.5930 C   0  0  0  0  0  0  0  0  0  0  0  0
   34.1440   28.1920   45.7560 C   0  0  0  0  0  0  0  0  0  0  0  0
   33.7680   26.8160   46.1450 C   0  0  0  0  0  0  0  0  0  0  0  0
   33.6390   26.5370   47.5780 C   0  0  0  0  0  0  0  0  0  0  0  0
   32.9980   27.6240   48.3680 C   0  0  2  0  0  0  0  0  0  0  0  0
   35.5220   30.4230   48.4140 C   0  0  0  0  0  0  0  0  0  0  0  0
   34.5530   29.4890   48.8600 C   0  0  0  0  0  0  0  0  0  0  0  0
   34.7250   28.9800   50.1330 C   0  0  0  0  0  0  0  0  0  0  0  0
   35.7810   29.3780   50.8850 N   0  0  0  0  0  0  0  0  0  0  0  0
   36.6860   30.2760   50.4130 C   0  0  0  0  0  0  0  0  0  0  0  0
   36.5430   30.7920   49.1720 N   0  0  0  0  0  0  0  0  0  0  0  0
   31.5130   27.4830   48.5190 C   0  0  0  0  0  0  0  0  0  0  0  0
   30.7690   26.8950   47.4860 C   0  0  0  0  0  0  0  0  0  0  0  0
   29.3780   26.7240   47.5320 C   0  0  0  0  0  0  0  0  0  0  0  0
   28.7100   27.1600   48.6580 C   0  0  0  0  0  0  0  0  0  0  0  0
   29.4050   27.7420   49.6950 C   0  0  0  0  0  0  0  0  0  0  0  0
   30.7690   27.8900   49.6060 C   0  0  0  0  0  0  0  0  0  0  0  0
   32.5701   29.6869   48.3128 H   0  0  0  0  0  0  0  0  0  0  0  0
   32.5315   29.4868   46.1992 H   0  0  0  0  0  0  0  0  0  0  0  0
   34.2441   30.1276   46.5147 H   0  0  0  0  0  0  0  0  0  0  0  0
   35.2385   28.2772   45.8251 H   0  0  0  0  0  0  0  0  0  0  0  0
   33.7530   28.3370   44.7381 H   0  0  0  0  0  0  0  0  0  0  0  0
   32.7985   26.5926   45.6757 H   0  0  0  0  0  0  0  0  0  0  0  0
   34.6051   26.1871   45.8078 H   0  0  0  0  0  0  0  0  0  0  0  0
   33.0350   25.6253   47.6966 H   0  0  0  0  0  0  0  0  0  0  0  0
   34.6623   26.4318   47.9675 H   0  0  0  0  0  0  0  0  0  0  0  0
   33.4349   27.4545   49.3632 H   0  0  0  0  0  0  0  0  0  0  0  0
   35.4225   30.8544   47.4070 H   0  0  0  0  0  0  0  0  0  0  0  0
   34.0056   28.2522   50.5363 H   0  0  0  0  0  0  0  0  0  0  0  0
   37.5351   30.5828   51.0414 H   0  0  0  0  0  0  0  0  0  0  0  0
   31.3060   26.5489   46.5905 H   0  0  0  0  0  0  0  0  0  0  0  0
   28.8361   26.2568   46.6965 H   0  0  0  0  0  0  0  0  0  0  0  0
   27.6185   27.0423   48.7277 H   0  0  0  0  0  0  0  0  0  0  0  0
   28.8702   28.0875   50.5920 H   0  0  0  0  0  0  0  0  0  0  0  0
   31.2963   28.3595   50.4495 H   0  0  0  0  0  0  0  0  0  0  0  0
  1  6  1  0
  1  8  1  0
  2  1  1  0
  3  4  1  0
  3  2  1  0
  4  5  1  0
  5  6  1  0
  6 13  1  0
  7  8  2  0
  7 12  1  0
  8  9  1  0
  9 10  2  0
 11 10  1  0
 12 11  2  0
 13 18  2  0
 14 15  2  0
 14 13  1  0
 15 16  1  0
 16 17  2  0
 18 17  1  0
  1 19  1  1
  2 20  1  0
  2 21  1  0
  3 22  1  0
  3 23  1  0
  4 24  1  0
  4 25  1  0
  5 26  1  0
  5 27  1  0
  6 28  1  1
  7 29  1  0
  9 30  1  0
 11 31  1  0
 14 32  1  0
 15 33  1  0
 16 34  1  0
 17 35  1  0
 18 36  1  0
M  ISO  8  19  13  20  13  21  13  22  13  23  13  24  13  25  13  26  13
M  ISO  8  27  13  28  13  29  14  30  14  31  14  32  14  33  14  34  14
M  ISO  2  35  14  36  14
M  END
>  <minimizedAffinity>  (1) 
-4.80391026

>  <minimizedRMSD>  (1) 
2.48365688

$$$$
