
     RDKit          3D

 22 22  0  0  0  0  0  0  0  0999 V2000
   37.2420   30.1290   48.8750 C   0  0  0  0  0  0  0  0  0  0  0  0
   36.2240   29.2820   49.3430 C   0  0  0  0  0  0  0  0  0  0  0  0
   36.0890   29.1490   50.7130 C   0  0  0  0  0  0  0  0  0  0  0  0
   36.9240   29.8240   51.5450 N   0  0  0  0  0  0  0  0  0  0  0  0
   37.9010   30.6380   51.0570 C   0  0  0  0  0  0  0  0  0  0  0  0
   38.0500   30.7820   49.7170 N   0  0  0  0  0  0  0  0  0  0  0  0
   37.5220   30.3830   47.5320 O   0  0  0  0  0  0  0  0  0  0  0  0
   38.4930   32.8200   48.0950 O   0  0  0  0  0  0  0  0  0  0  0  0
   38.4350   31.7460   47.0340 P   0  0  0  0  0  0  0  0  0  0  0  0
   39.9870   31.1690   46.6560 O   0  0  0  0  0  0  0  0  0  0  0  0
   37.7100   32.4350   45.6640 O   0  0  0  0  0  0  0  0  0  0  0  0
   35.4990   28.6990   48.3510 O   0  0  0  0  0  0  0  0  0  0  0  0
   33.8850   30.5450   47.3570 O   0  0  0  0  0  0  0  0  0  0  0  0
   33.9280   29.1350   47.8490 P   0  0  0  0  0  0  0  0  0  0  0  0
   32.9080   28.8740   49.1780 O   0  0  0  0  0  0  0  0  0  0  0  0
   33.5120   28.0450   46.6020 O   0  0  0  0  0  0  0  0  0  0  0  0
   35.3063   28.4973   51.1284 H   0  0  0  0  0  0  0  0  0  0  0  0
   38.5667   31.1766   51.7475 H   0  0  0  0  0  0  0  0  0  0  0  0
   40.4833   30.9845   47.4925 H   0  0  0  0  0  0  0  0  0  0  0  0
   37.0225   33.0884   45.9478 H   0  0  0  0  0  0  0  0  0  0  0  0
   33.4183   29.0046   50.0163 H   0  0  0  0  0  0  0  0  0  0  0  0
   33.1886   27.1976   46.9987 H   0  0  0  0  0  0  0  0  0  0  0  0
  1  2  2  0
  1  6  1  0
  2  3  1  0
  3  4  2  0
  5  4  1  0
  6  5  2  0
  7  1  1  0
  9  7  1  0
  9  8  2  0
 10  9  1  0
 11  9  1  0
 12  2  1  0
 13 14  2  0
 14 12  1  0
 14 15  1  0
 16 14  1  0
  3 17  1  0
  5 18  1  0
 10 19  1  0
 11 20  1  0
 15 21  1  0
 16 22  1  0
M  ISO  6  17  14  18  14  19   3  20   3  21   3  22   3
M  END
>  <minimizedAffinity>  (1) 
-4.69519377

>  <minimizedRMSD>  (1) 
3.32780886

$$$$
