
     RDKit          3D

 34 36  0  0  0  0  0  0  0  0999 V2000
   37.2990   29.2050   50.7950 Br  0  0  0  0  0  0  0  0  0  0  0  0
   35.9530   29.3040   49.4440 C   0  0  0  0  0  0  0  0  0  0  0  0
   35.9810   30.3080   48.4710 C   0  0  0  0  0  0  0  0  0  0  0  0
   34.9830   30.3120   47.5380 C   0  0  0  0  0  0  0  0  0  0  0  0
   33.9580   29.3760   47.5170 C   0  0  0  0  0  0  0  0  0  0  0  0
   33.9550   28.4130   48.4740 C   0  0  0  0  0  0  0  0  0  0  0  0
   34.9500   28.3850   49.4270 C   0  0  0  0  0  0  0  0  0  0  0  0
   37.9990   33.1680   49.4900 C   0  0  0  0  0  0  0  0  0  0  0  0
   39.0470   33.1840   48.5030 C   0  0  0  0  0  0  0  0  0  0  0  0
   39.0350   32.2180   47.5190 C   0  0  0  0  0  0  0  0  0  0  0  0
   38.0270   31.2930   47.5310 N   0  0  0  0  0  0  0  0  0  0  0  0
   37.0490   31.3000   48.4740 C   0  0  0  0  0  0  0  0  0  0  0  0
   37.0420   32.2370   49.4470 N   0  0  0  0  0  0  0  0  0  0  0  0
   32.8990   29.3990   46.5090 C   0  0  0  0  0  0  0  0  0  0  0  0
   32.4500   28.2640   45.8460 C   0  0  0  0  0  0  0  0  0  0  0  0
   31.4410   28.3390   44.8900 C   0  0  0  0  0  0  0  0  0  0  0  0
   30.8910   29.5150   44.5990 N   0  0  0  0  0  0  0  0  0  0  0  0
   31.3190   30.6120   45.2330 C   0  0  0  0  0  0  0  0  0  0  0  0
   32.2910   30.5430   46.1550 N   0  0  0  0  0  0  0  0  0  0  0  0
   30.6970   31.8010   44.8760 O   0  0  0  0  0  0  0  0  0  0  0  0
   32.4850   32.8430   43.1590 O   0  0  0  0  0  0  0  0  0  0  0  0
   31.4450   33.1370   44.1880 P   0  0  0  0  0  0  0  0  0  0  0  0
   32.1230   34.0930   45.4310 O   0  0  0  0  0  0  0  0  0  0  0  0
   30.2070   34.1040   43.5090 O   0  0  0  0  0  0  0  0  0  0  0  0
   34.9921   31.0952   46.7657 H   0  0  0  0  0  0  0  0  0  0  0  0
   33.1581   27.6549   48.4887 H   0  0  0  0  0  0  0  0  0  0  0  0
   34.9328   27.5979   50.1952 H   0  0  0  0  0  0  0  0  0  0  0  0
   37.9862   33.9279   50.2852 H   0  0  0  0  0  0  0  0  0  0  0  0
   39.8378   33.9480   48.5331 H   0  0  0  0  0  0  0  0  0  0  0  0
   39.8157   32.1918   46.7445 H   0  0  0  0  0  0  0  0  0  0  0  0
   32.9000   27.2881   46.0807 H   0  0  0  0  0  0  0  0  0  0  0  0
   31.0992   27.4283   44.3764 H   0  0  0  0  0  0  0  0  0  0  0  0
   31.8611   33.7237   46.3114 H   0  0  0  0  0  0  0  0  0  0  0  0
   29.6764   34.5184   44.2348 H   0  0  0  0  0  0  0  0  0  0  0  0
  2  1  1  0
  3 12  1  0
  3  2  2  0
  4  3  1  0
  5  4  2  0
  5  6  1  0
  6  7  2  0
  7  2  1  0
  9  8  2  0
 10 11  2  0
 10  9  1  0
 11 12  1  0
 12 13  2  0
 13  8  1  0
 14  5  1  0
 15 14  2  0
 16 15  1  0
 17 16  2  0
 17 18  1  0
 18 19  2  0
 19 14  1  0
 20 18  1  0
 21 22  2  0
 22 20  1  0
 22 23  1  0
 24 22  1  0
  4 25  1  0
  6 26  1  0
  7 27  1  0
  8 28  1  0
  9 29  1  0
 10 30  1  0
 15 31  1  0
 16 32  1  0
 23 33  1  0
 24 34  1  0
M  ISO  8  25  14  26  14  27  14  28  14  29  14  30  14  31  14  32  14
M  ISO  2  33   3  34   3
M  END
>  <minimizedAffinity>  (1) 
-6.90126801

>  <minimizedRMSD>  (1) 
0.410969108

$$$$
