
     RDKit          3D

 29 30  0  0  0  0  0  0  0  0999 V2000
   38.5470   32.3160   47.0650 C   0  0  0  0  0  0  0  0  0  0  0  0
   38.0090   32.5970   48.3020 C   0  0  0  0  0  0  0  0  0  0  0  0
   38.6010   33.5410   49.1220 C   0  0  0  0  0  0  0  0  0  0  0  0
   39.7420   34.2070   48.6900 C   0  0  0  0  0  0  0  0  0  0  0  0
   40.2810   33.9160   47.4330 C   0  0  0  0  0  0  0  0  0  0  0  0
   39.6590   32.9710   46.6540 C   0  0  0  0  0  0  0  0  0  0  0  0
   40.1570   32.5890   45.2970 C   0  0  0  0  0  0  0  0  0  0  0  0
   41.3570   33.1490   44.9800 F   0  0  0  0  0  0  0  0  0  0  0  0
   40.3210   31.1980   45.2560 F   0  0  0  0  0  0  0  0  0  0  0  0
   39.1700   32.8340   44.3330 F   0  0  0  0  0  0  0  0  0  0  0  0
   37.3300   30.5470   45.6390 N   0  0  0  0  0  0  0  0  0  0  0  0
   37.8670   31.3280   46.2810 C   0  0  0  0  0  0  0  0  0  0  0  0
   36.8860   32.0190   48.8610 O   0  0  0  0  0  0  0  0  0  0  0  0
   36.9090   31.0310   49.7940 C   0  0  0  0  0  0  0  0  0  0  0  0
   36.2310   29.8890   49.3600 C   0  0  0  0  0  0  0  0  0  0  0  0
   36.1430   28.7790   50.1670 C   0  0  0  0  0  0  0  0  0  0  0  0
   36.7460   28.8460   51.4000 N   0  0  0  0  0  0  0  0  0  0  0  0
   37.3980   29.9550   51.8040 C   0  0  0  0  0  0  0  0  0  0  0  0
   37.4730   31.0190   51.0140 N   0  0  0  0  0  0  0  0  0  0  0  0
   34.2780   29.2050   48.0560 C   0  0  0  0  0  0  0  0  0  0  0  0
   33.4510   28.7160   48.9240 O   0  0  0  0  0  0  0  0  0  0  0  0
   35.6120   29.7130   48.1200 N   0  0  0  0  0  0  0  0  0  0  0  0
   38.1713   33.7632   50.1099 H   0  0  0  0  0  0  0  0  0  0  0  0
   40.2191   34.9600   49.3345 H   0  0  0  0  0  0  0  0  0  0  0  0
   41.1839   34.4328   47.0756 H   0  0  0  0  0  0  0  0  0  0  0  0
   35.6112   27.8738   49.8387 H   0  0  0  0  0  0  0  0  0  0  0  0
   37.8717   29.9781   52.7965 H   0  0  0  0  0  0  0  0  0  0  0  0
   33.8589   29.2365   47.0395 H   0  0  0  0  0  0  0  0  0  0  0  0
   36.1163   29.9490   47.2535 H   0  0  0  0  0  0  0  0  0  0  0  0
  1  2  2  0
  2 13  1  0
  2  3  1  0
  4  3  2  0
  5  4  1  0
  6  1  1  0
  6  5  2  0
  7  6  1  0
  8  7  1  0
  9  7  1  0
 10  7  1  0
 11 12  3  0
 12  1  1  0
 13 14  1  0
 14 19  1  0
 15 14  2  0
 15 16  1  0
 16 17  2  0
 17 18  1  0
 19 18  2  0
 20 22  1  0
 20 21  2  0
 22 15  1  0
  3 23  1  0
  4 24  1  0
  5 25  1  0
 16 26  1  0
 18 27  1  0
 20 28  1  0
 22 29  1  0
M  ISO  6  23  14  24  14  25  14  26  14  27  14  28   6
M  END
>  <minimizedAffinity>  (1) 
-5.27233028

>  <minimizedRMSD>  (1) 
0.625657916

$$$$
