
     RDKit          3D

 35 38  0  0  0  0  0  0  0  0999 V2000
   35.8340   29.1820   49.8190 C   0  0  0  0  0  0  0  0  0  0  0  0
   34.7980   29.6900   50.5240 C   0  0  0  0  0  0  0  0  0  0  0  0
   33.6340   29.1040   50.0210 C   0  0  0  0  0  0  0  0  0  0  0  0
   34.0530   28.2440   49.0050 C   0  0  0  0  0  0  0  0  0  0  0  0
   35.3530   28.3420   48.9420 O   0  0  0  0  0  0  0  0  0  0  0  0
   33.5560   26.4750   47.3210 C   0  0  0  0  0  0  0  0  0  0  0  0
   33.1290   27.4340   48.2200 C   0  0  0  0  0  0  0  0  0  0  0  0
   31.7760   27.6800   48.4280 C   0  0  0  0  0  0  0  0  0  0  0  0
   30.8700   26.9380   47.7080 C   0  0  0  0  0  0  0  0  0  0  0  0
   29.5370   26.9550   47.6970 N   0  0  0  0  0  0  0  0  0  0  0  0
   29.1110   26.0410   46.8230 N   0  0  0  0  0  0  0  0  0  0  0  0
   30.1870   25.4410   46.2760 C   0  0  0  0  0  0  0  0  0  0  0  0
   31.3280   25.9880   46.8180 C   0  0  0  0  0  0  0  0  0  0  0  0
   32.6820   25.7330   46.6010 C   0  0  0  0  0  0  0  0  0  0  0  0
   37.2110   29.5800   50.0820 C   0  0  0  0  0  0  0  0  0  0  0  0
   37.8570   28.9790   50.9670 O   0  0  0  0  0  0  0  0  0  0  0  0
   37.7510   30.6660   49.2840 C   0  0  0  0  0  0  0  0  0  0  0  0
   37.7210   31.9350   49.8370 C   0  0  0  0  0  0  0  0  0  0  0  0
   38.2260   33.0110   49.1160 C   0  0  0  0  0  0  0  0  0  0  0  0
   38.7280   32.7300   47.8750 N   0  0  0  0  0  0  0  0  0  0  0  0
   38.7490   31.5010   47.3580 C   0  0  0  0  0  0  0  0  0  0  0  0
   38.2590   30.4690   48.0650 N   0  0  0  0  0  0  0  0  0  0  0  0
   39.2960   31.2020   46.0140 C   0  0  0  0  0  0  0  0  0  0  0  0
   38.9650   32.1640   45.1030 F   0  0  0  0  0  0  0  0  0  0  0  0
   40.6700   30.9970   46.0680 F   0  0  0  0  0  0  0  0  0  0  0  0
   38.7690   29.9920   45.5470 F   0  0  0  0  0  0  0  0  0  0  0  0
   34.8601   30.4256   51.3395 H   0  0  0  0  0  0  0  0  0  0  0  0
   32.6017   29.2832   50.3561 H   0  0  0  0  0  0  0  0  0  0  0  0
   34.6353   26.3102   47.1869 H   0  0  0  0  0  0  0  0  0  0  0  0
   31.4416   28.4437   49.1456 H   0  0  0  0  0  0  0  0  0  0  0  0
   28.9377   27.5693   48.2665 H   0  0  0  0  0  0  0  0  0  0  0  0
   30.1580   24.6434   45.5191 H   0  0  0  0  0  0  0  0  0  0  0  0
   33.0211   24.9707   45.8841 H   0  0  0  0  0  0  0  0  0  0  0  0
   37.2999   32.0909   50.8412 H   0  0  0  0  0  0  0  0  0  0  0  0
   38.2221   34.0334   49.5217 H   0  0  0  0  0  0  0  0  0  0  0  0
  1 15  1  0
  1  2  2  0
  3  2  1  0
  4  3  2  0
  5  4  1  0
  5  1  1  0
  6  7  2  0
  7  8  1  0
  7  4  1  0
  9  8  2  0
 10  9  1  0
 11 10  1  0
 12 13  1  0
 12 11  2  0
 13  9  1  0
 14 13  2  0
 14  6  1  0
 15 16  2  0
 17 18  2  0
 17 15  1  0
 19 18  1  0
 20 19  2  0
 21 20  1  0
 21 22  2  0
 22 17  1  0
 23 25  1  0
 23 21  1  0
 24 23  1  0
 26 23  1  0
  2 27  1  0
  3 28  1  0
  6 29  1  0
  8 30  1  0
 10 31  1  0
 12 32  1  0
 14 33  1  0
 18 34  1  0
 19 35  1  0
M  ISO  8  27  14  28  14  29  14  30  14  31   9  32  14  33  14  34  14
M  ISO  1  35  14
M  END
>  <minimizedAffinity>  (1) 
-6.61908054

>  <minimizedRMSD>  (1) 
0.380938917

$$$$
