
     RDKit          3D

 20 21  0  0  0  0  0  0  0  0999 V2000
   36.9690   31.1130   48.0940 C   0  0  0  0  0  0  0  0  0  0  0  0
   38.0220   32.0320   48.1900 C   0  0  0  0  0  0  0  0  0  0  0  0
   38.6600   32.3100   46.9680 C   0  0  0  0  0  0  0  0  0  0  0  0
   38.2390   31.7070   45.8300 N   0  0  0  0  0  0  0  0  0  0  0  0
   37.2180   30.8270   45.7850 C   0  0  0  0  0  0  0  0  0  0  0  0
   36.5750   30.5250   46.9330 N   0  0  0  0  0  0  0  0  0  0  0  0
   36.2150   30.8740   49.3860 C   0  0  0  0  0  0  0  0  0  0  0  0
   35.1110   29.9520   49.4280 C   0  0  0  0  0  0  0  0  0  0  0  0
   36.4480   29.4250   49.8800 C   0  0  0  0  0  0  0  0  0  0  0  0
   38.4530   32.6740   49.4270 C   0  0  0  0  0  0  0  0  0  0  0  0
   39.3940   33.6620   49.2680 F   0  0  0  0  0  0  0  0  0  0  0  0
   37.3440   33.3400   49.9740 F   0  0  0  0  0  0  0  0  0  0  0  0
   38.7910   31.7250   50.3620 F   0  0  0  0  0  0  0  0  0  0  0  0
   39.5016   33.0176   46.9360 H   0  0  0  0  0  0  0  0  0  0  0  0
   36.9157   30.3653   44.8335 H   0  0  0  0  0  0  0  0  0  0  0  0
   36.3017   31.9072   49.7535 H   0  0  0  0  0  0  0  0  0  0  0  0
   34.3106   30.1007   50.1678 H   0  0  0  0  0  0  0  0  0  0  0  0
   34.3771   29.6147   48.6812 H   0  0  0  0  0  0  0  0  0  0  0  0
   37.0045   28.7050   49.2620 H   0  0  0  0  0  0  0  0  0  0  0  0
   36.8542   28.9432   50.7816 H   0  0  0  0  0  0  0  0  0  0  0  0
  1  2  2  0
  1  7  1  0
  2 10  1  0
  3  2  1  0
  4  3  2  0
  5  4  1  0
  5  6  2  0
  6  1  1  0
  7  8  1  0
  7  9  1  0
  8  9  1  0
 10 12  1  0
 10 13  1  0
 11 10  1  0
  3 14  1  0
  5 15  1  0
  7 16  1  0
  8 17  1  0
  8 18  1  0
  9 19  1  0
  9 20  1  0
M  ISO  7  14  14  15  14  16  13  17  13  18  13  19  13  20  13
M  END
>  <minimizedAffinity>  (1) 
-5.18939114

>  <minimizedRMSD>  (1) 
2.04099655

$$$$
