
     RDKit          3D

 26 28  0  0  0  0  0  0  0  0999 V2000
   34.4000   28.0180   48.6270 C   0  0  0  0  0  0  0  0  0  0  0  0
   34.8440   29.3400   48.5020 C   0  0  0  0  0  0  0  0  0  0  0  0
   34.1730   30.2130   47.6790 C   0  0  0  0  0  0  0  0  0  0  0  0
   33.0590   29.7960   46.9680 C   0  0  0  0  0  0  0  0  0  0  0  0
   32.2470   30.4600   46.1090 N   0  0  0  0  0  0  0  0  0  0  0  0
   31.3370   29.5220   45.7400 C   0  0  0  0  0  0  0  0  0  0  0  0
   31.5870   28.3430   46.3470 N   0  0  0  0  0  0  0  0  0  0  0  0
   32.6650   28.4910   47.1250 C   0  0  0  0  0  0  0  0  0  0  0  0
   33.2880   27.5820   47.9240 C   0  0  0  0  0  0  0  0  0  0  0  0
   37.6640   29.3950   50.8540 C   0  0  0  0  0  0  0  0  0  0  0  0
   38.2290   30.6670   50.6240 C   0  0  0  0  0  0  0  0  0  0  0  0
   37.6100   31.4700   49.6540 C   0  0  0  0  0  0  0  0  0  0  0  0
   36.5160   31.0010   48.9910 N   0  0  0  0  0  0  0  0  0  0  0  0
   36.0130   29.7700   49.2500 C   0  0  0  0  0  0  0  0  0  0  0  0
   36.5750   28.9690   50.1710 N   0  0  0  0  0  0  0  0  0  0  0  0
   38.0640   32.8230   49.2850 C   0  0  0  0  0  0  0  0  0  0  0  0
   38.2120   32.9880   47.9330 F   0  0  0  0  0  0  0  0  0  0  0  0
   39.2410   33.1330   49.9690 F   0  0  0  0  0  0  0  0  0  0  0  0
   37.1070   33.7190   49.7750 F   0  0  0  0  0  0  0  0  0  0  0  0
   34.9371   27.3211   49.2872 H   0  0  0  0  0  0  0  0  0  0  0  0
   34.5233   31.2514   47.5840 H   0  0  0  0  0  0  0  0  0  0  0  0
   32.3063   31.4431   45.8076 H   0  0  0  0  0  0  0  0  0  0  0  0
   30.5072   29.6995   45.0400 H   0  0  0  0  0  0  0  0  0  0  0  0
   32.9249   26.5471   48.0080 H   0  0  0  0  0  0  0  0  0  0  0  0
   38.1188   28.7335   51.6060 H   0  0  0  0  0  0  0  0  0  0  0  0
   39.1134   31.0131   51.1791 H   0  0  0  0  0  0  0  0  0  0  0  0
  2  1  2  0
  2 14  1  0
  3  2  1  0
  4  8  1  0
  4  3  2  0
  5  4  1  0
  6  5  1  0
  6  7  2  0
  7  8  1  0
  8  9  2  0
  9  1  1  0
 11 10  2  0
 12 11  1  0
 13 14  1  0
 13 12  2  0
 14 15  2  0
 15 10  1  0
 16 12  1  0
 16 19  1  0
 16 18  1  0
 17 16  1  0
  1 20  1  0
  3 21  1  0
  5 22  1  0
  6 23  1  0
  9 24  1  0
 10 25  1  0
 11 26  1  0
M  ISO  7  20  14  21  14  22   9  23  14  24  14  25  14  26  14
M  END
>  <minimizedAffinity>  (1) 
-6.15745592

>  <minimizedRMSD>  (1) 
1.02245188

$$$$
