
     RDKit          3D

 37 39  0  0  0  0  0  0  0  0999 V2000
   34.2320   28.9710   48.5080 C   0  0  0  0  0  0  0  0  0  0  0  0
   34.2730   28.7510   49.8900 C   0  0  0  0  0  0  0  0  0  0  0  0
   35.2500   29.1650   50.7330 C   0  0  0  0  0  0  0  0  0  0  0  0
   36.3090   29.8590   50.2620 C   0  0  0  0  0  0  0  0  0  0  0  0
   36.2770   30.0750   48.9260 C   0  0  0  0  0  0  0  0  0  0  0  0
   35.3020   29.6510   48.1490 N   0  0  0  0  0  0  0  0  0  0  0  0
   32.5970   27.2720   48.2960 C   0  0  0  0  0  0  0  0  0  0  0  0
   33.1070   28.4820   47.7160 C   0  0  0  0  0  0  0  0  0  0  0  0
   32.4770   28.9410   46.5990 C   0  0  0  0  0  0  0  0  0  0  0  0
   31.4120   28.2180   46.1210 N   0  0  0  0  0  0  0  0  0  0  0  0
   30.9480   27.0940   46.6720 C   0  0  0  0  0  0  0  0  0  0  0  0
   31.5650   26.6370   47.7720 N   0  0  0  0  0  0  0  0  0  0  0  0
   29.8450   26.5000   46.0480 N   0  0  0  0  0  0  0  0  0  0  0  0
   32.9530   30.1610   45.9660 C   0  0  0  0  0  0  0  0  0  0  0  0
   34.1900   29.9830   45.5270 F   0  0  0  0  0  0  0  0  0  0  0  0
   32.1690   30.6150   44.9180 F   0  0  0  0  0  0  0  0  0  0  0  0
   32.9850   31.2420   46.8970 F   0  0  0  0  0  0  0  0  0  0  0  0
   37.2860   32.4350   49.9680 F   0  0  0  0  0  0  0  0  0  0  0  0
   37.8610   32.0030   48.8010 C   0  0  0  0  0  0  0  0  0  0  0  0
   37.3690   30.8240   48.2680 C   0  0  0  0  0  0  0  0  0  0  0  0
   37.9760   30.4340   47.1060 C   0  0  0  0  0  0  0  0  0  0  0  0
   38.9900   31.1530   46.5170 C   0  0  0  0  0  0  0  0  0  0  0  0
   39.4330   32.3200   47.1000 C   0  0  0  0  0  0  0  0  0  0  0  0
   38.8660   32.7560   48.2570 C   0  0  0  0  0  0  0  0  0  0  0  0
   39.2870   34.0170   48.9620 C   0  0  0  0  0  0  0  0  0  0  0  0
   40.2510   34.6230   48.1470 F   0  0  0  0  0  0  0  0  0  0  0  0
   38.2460   34.9020   49.0580 F   0  0  0  0  0  0  0  0  0  0  0  0
   39.7560   33.7520   50.2200 F   0  0  0  0  0  0  0  0  0  0  0  0
   33.4357   28.1910   50.3320 H   0  0  0  0  0  0  0  0  0  0  0  0
   35.1803   28.9347   51.8064 H   0  0  0  0  0  0  0  0  0  0  0  0
   37.1250   30.2169   50.9070 H   0  0  0  0  0  0  0  0  0  0  0  0
   33.0772   26.8645   49.1979 H   0  0  0  0  0  0  0  0  0  0  0  0
   29.4440   25.6311   46.4289 H   0  0  0  0  0  0  0  0  0  0  0  0
   29.4342   26.9318   45.2079 H   0  0  0  0  0  0  0  0  0  0  0  0
   37.6388   29.5056   46.6218 H   0  0  0  0  0  0  0  0  0  0  0  0
   39.4465   30.7967   45.5818 H   0  0  0  0  0  0  0  0  0  0  0  0
   40.2431   32.8977   46.6310 H   0  0  0  0  0  0  0  0  0  0  0  0
  1  2  2  0
  2  3  1  0
  4  3  2  0
  5  4  1  0
  6  1  1  0
  6  5  2  0
  8  7  2  0
  8  1  1  0
  9  8  1  0
 10  9  2  0
 10 11  1  0
 11 12  2  0
 12  7  1  0
 13 11  1  0
 14  9  1  0
 14 17  1  0
 15 14  1  0
 16 14  1  0
 19 18  1  0
 20 19  2  0
 20  5  1  0
 21 20  1  0
 22 23  1  0
 22 21  2  0
 23 24  2  0
 24 19  1  0
 24 25  1  0
 25 27  1  0
 25 28  1  0
 26 25  1  0
  2 29  1  0
  3 30  1  0
  4 31  1  0
  7 32  1  0
 13 33  1  0
 13 34  1  0
 21 35  1  0
 22 36  1  0
 23 37  1  0
M  END
>  <minimizedAffinity>  (1) 
-7.34184551

>  <minimizedRMSD>  (1) 
2.20937467

$$$$
