
     RDKit          3D

 39 41  0  0  1  0  0  0  0  0999 V2000
   37.2910   29.2450   50.6720 C   0  0  0  0  0  0  0  0  0  0  0  0
   37.4560   30.6250   50.9670 C   0  0  0  0  0  0  0  0  0  0  0  0
   36.7470   31.5300   50.1900 C   0  0  0  0  0  0  0  0  0  0  0  0
   35.9460   31.0490   49.2000 N   0  0  0  0  0  0  0  0  0  0  0  0
   35.8190   29.7270   48.9540 C   0  0  0  0  0  0  0  0  0  0  0  0
   36.4880   28.8430   49.6850 N   0  0  0  0  0  0  0  0  0  0  0  0
   34.9670   29.3120   47.9110 N   0  0  0  0  0  0  0  0  0  0  0  0
   34.2970   28.0050   47.9360 C   0  0  0  0  0  0  0  0  0  0  0  0
   32.8250   28.2290   47.8130 C   0  0  0  0  0  0  0  0  0  0  0  0
   32.3990   29.4010   47.2550 N   0  0  0  0  0  0  0  0  0  0  0  0
   33.2770   30.2610   46.5090 C   0  0  0  0  0  0  0  0  0  0  0  0
   34.6990   30.1430   46.7530 C   0  0  2  0  0  0  0  0  0  0  0  0
   35.4420   29.5560   45.6410 N   0  0  0  0  0  0  0  0  0  0  0  0
   36.5280   30.4530   45.2270 C   0  0  0  0  0  0  0  0  0  0  0  0
   36.6240   30.4040   43.7270 C   0  0  0  0  0  0  0  0  0  0  0  0
   35.7470   29.2760   43.3960 C   0  0  0  0  0  0  0  0  0  0  0  0
   34.6740   29.2740   44.4920 C   0  0  1  0  0  0  0  0  0  0  0  0
   34.0960   27.9540   44.2410 C   0  0  0  0  0  0  0  0  0  0  0  0
   34.2920   26.8980   45.0140 F   0  0  0  0  0  0  0  0  0  0  0  0
   34.3780   27.5740   42.9120 F   0  0  0  0  0  0  0  0  0  0  0  0
   32.6970   28.1080   44.2160 F   0  0  0  0  0  0  0  0  0  0  0  0
   37.8340   28.4958   51.2669 H   0  0  0  0  0  0  0  0  0  0  0  0
   38.1185   30.9621   51.7779 H   0  0  0  0  0  0  0  0  0  0  0  0
   36.8304   32.6120   50.3700 H   0  0  0  0  0  0  0  0  0  0  0  0
   34.6509   27.3896   47.0957 H   0  0  0  0  0  0  0  0  0  0  0  0
   34.5230   27.4816   48.8767 H   0  0  0  0  0  0  0  0  0  0  0  0
   32.4193   27.4093   47.2018 H   0  0  0  0  0  0  0  0  0  0  0  0
   32.4660   28.2729   48.8519 H   0  0  0  0  0  0  0  0  0  0  0  0
   31.6305   29.1518   46.6161 H   0  0  0  0  0  0  0  0  0  0  0  0
   32.9898   31.2988   46.7336 H   0  0  0  0  0  0  0  0  0  0  0  0
   33.1472   29.9511   45.4616 H   0  0  0  0  0  0  0  0  0  0  0  0
   35.0341   31.1796   46.9055 H   0  0  0  0  0  0  0  0  0  0  0  0
   36.3089   31.4802   45.5538 H   0  0  0  0  0  0  0  0  0  0  0  0
   37.4787   30.1376   45.6815 H   0  0  0  0  0  0  0  0  0  0  0  0
   36.2605   31.3380   43.2736 H   0  0  0  0  0  0  0  0  0  0  0  0
   37.6524   30.2874   43.3544 H   0  0  0  0  0  0  0  0  0  0  0  0
   35.2888   29.4197   42.4063 H   0  0  0  0  0  0  0  0  0  0  0  0
   36.2961   28.3238   43.3530 H   0  0  0  0  0  0  0  0  0  0  0  0
   33.8277   29.9731   44.5633 H   0  0  0  0  0  0  0  0  0  0  0  0
  1  2  2  0
  3  2  1  0
  4  3  2  0
  5  4  1  0
  5  6  2  0
  6  1  1  0
  7  8  1  0
  7  5  1  0
  9  8  1  0
 10  9  1  0
 11 12  1  0
 11 10  1  0
 12  7  1  0
 13 14  1  0
 13 12  1  0
 15 14  1  0
 16 15  1  0
 16 17  1  0
 17 13  1  0
 18 17  1  0
 18 19  1  0
 20 18  1  0
 21 18  1  0
  1 22  1  0
  2 23  1  0
  3 24  1  0
  8 25  1  0
  8 26  1  0
  9 27  1  0
  9 28  1  0
 10 29  1  0
 11 30  1  0
 11 31  1  0
 12 32  1  1
 14 33  1  0
 14 34  1  0
 15 35  1  0
 15 36  1  0
 16 37  1  0
 16 38  1  0
 17 39  1  6
M  ISO  8  22  14  23  14  24  14  25  13  26  13  27  13  28  13  29   5
M  ISO  8  30  13  31  13  32  13  33  13  34  13  35  13  36  13  37  13
M  ISO  2  38  13  39  13
M  END
>  <minimizedAffinity>  (1) 
-4.61655855

>  <minimizedRMSD>  (1) 
0.305816919

$$$$
