
     RDKit          3D

 37 39  0  0  1  0  0  0  0  0999 V2000
   31.8830   27.6220   48.6280 N   0  0  0  0  0  0  0  0  0  0  0  0
   32.9140   28.4440   49.2610 C   0  0  0  0  0  0  0  0  0  0  0  0
   34.0180   28.8190   48.3730 C   0  0  2  0  0  0  0  0  0  0  0  0
   34.4340   27.7180   47.5160 N   0  0  0  0  0  0  0  0  0  0  0  0
   33.3060   27.1580   46.8190 C   0  0  0  0  0  0  0  0  0  0  0  0
   32.4760   26.5370   47.9240 C   0  0  0  0  0  0  0  0  0  0  0  0
   35.9960   30.4400   46.8620 Cl  0  0  0  0  0  0  0  0  0  0  0  0
   36.1100   30.1060   48.5910 C   0  0  0  0  0  0  0  0  0  0  0  0
   35.1420   29.3140   49.1500 C   0  0  0  0  0  0  0  0  0  0  0  0
   35.0980   28.9550   50.5060 C   0  0  0  0  0  0  0  0  0  0  0  0
   36.1430   29.4650   51.2900 C   0  0  0  0  0  0  0  0  0  0  0  0
   37.1380   30.2710   50.7310 C   0  0  0  0  0  0  0  0  0  0  0  0
   37.1080   30.5800   49.3920 C   0  0  0  0  0  0  0  0  0  0  0  0
   38.1280   31.4270   48.7460 C   0  0  0  0  0  0  0  0  0  0  0  0
   38.7530   30.6990   47.7470 F   0  0  0  0  0  0  0  0  0  0  0  0
   37.5740   32.5680   48.2330 F   0  0  0  0  0  0  0  0  0  0  0  0
   39.0550   31.7800   49.7130 F   0  0  0  0  0  0  0  0  0  0  0  0
   30.5030   27.9070   48.7490 C   0  0  0  0  0  0  0  0  0  0  0  0
   29.7450   28.3750   47.6740 C   0  0  0  0  0  0  0  0  0  0  0  0
   28.3930   28.6280   47.8710 C   0  0  0  0  0  0  0  0  0  0  0  0
   27.8670   28.4020   49.1340 N   0  0  0  0  0  0  0  0  0  0  0  0
   28.6430   27.9470   50.1400 C   0  0  0  0  0  0  0  0  0  0  0  0
   29.9310   27.7020   49.9660 N   0  0  0  0  0  0  0  0  0  0  0  0
   32.4407   29.3659   49.6300 H   0  0  0  0  0  0  0  0  0  0  0  0
   33.3511   27.8350   50.0660 H   0  0  0  0  0  0  0  0  0  0  0  0
   33.6529   29.6206   47.7141 H   0  0  0  0  0  0  0  0  0  0  0  0
   35.1175   28.0652   46.8281 H   0  0  0  0  0  0  0  0  0  0  0  0
   32.7392   27.9420   46.2955 H   0  0  0  0  0  0  0  0  0  0  0  0
   33.5989   26.4326   46.0457 H   0  0  0  0  0  0  0  0  0  0  0  0
   31.6975   25.8872   47.4978 H   0  0  0  0  0  0  0  0  0  0  0  0
   33.0928   25.9149   48.5893 H   0  0  0  0  0  0  0  0  0  0  0  0
   34.3024   28.3203   50.9232 H   0  0  0  0  0  0  0  0  0  0  0  0
   36.1799   29.2264   52.3632 H   0  0  0  0  0  0  0  0  0  0  0  0
   37.9485   30.6598   51.3649 H   0  0  0  0  0  0  0  0  0  0  0  0
   30.2090   28.5402   46.6904 H   0  0  0  0  0  0  0  0  0  0  0  0
   27.7596   28.9962   47.0505 H   0  0  0  0  0  0  0  0  0  0  0  0
   28.1932   27.7757   51.1291 H   0  0  0  0  0  0  0  0  0  0  0  0
  1 18  1  0
  1  2  1  0
  3  9  1  0
  3  2  1  0
  4  3  1  0
  5  4  1  0
  5  6  1  0
  6  1  1  0
  7  8  1  0
  8  9  2  0
  8 13  1  0
  9 10  1  0
 10 11  2  0
 12 11  1  0
 13 12  2  0
 14 13  1  0
 14 17  1  0
 15 14  1  0
 16 14  1  0
 18 23  2  0
 19 20  2  0
 19 18  1  0
 20 21  1  0
 21 22  2  0
 23 22  1  0
  2 24  1  0
  2 25  1  0
  3 26  1  6
  4 27  1  0
  5 28  1  0
  5 29  1  0
  6 30  1  0
  6 31  1  0
 10 32  1  0
 11 33  1  0
 12 34  1  0
 19 35  1  0
 20 36  1  0
 22 37  1  0
M  ISO  8  24  13  25  13  26  13  27   5  28  13  29  13  30  13  31  13
M  ISO  6  32  14  33  14  34  14  35  14  36  14  37  14
M  END
>  <minimizedAffinity>  (1) 
-6.50481939

>  <minimizedRMSD>  (1) 
4.01011562

$$$$
