
     RDKit          3D

 34 37  0  0  0  0  0  0  0  0999 V2000
   38.1090   32.6330   49.4860 C   0  0  0  0  0  0  0  0  0  0  0  0
   38.8210   32.8180   48.2920 C   0  0  0  0  0  0  0  0  0  0  0  0
   38.4200   32.0500   47.1980 C   0  0  0  0  0  0  0  0  0  0  0  0
   37.3890   31.1840   47.3350 N   0  0  0  0  0  0  0  0  0  0  0  0
   36.7300   31.0350   48.4980 C   0  0  0  0  0  0  0  0  0  0  0  0
   37.0840   31.7530   49.5710 N   0  0  0  0  0  0  0  0  0  0  0  0
   35.6590   29.0860   49.5220 C   0  0  0  0  0  0  0  0  0  0  0  0
   35.6220   30.0720   48.5630 C   0  0  0  0  0  0  0  0  0  0  0  0
   34.5770   30.1600   47.6850 C   0  0  0  0  0  0  0  0  0  0  0  0
   33.5410   29.2550   47.7480 C   0  0  0  0  0  0  0  0  0  0  0  0
   32.4080   29.1210   47.0130 N   0  0  0  0  0  0  0  0  0  0  0  0
   31.7800   28.0450   47.5510 C   0  0  0  0  0  0  0  0  0  0  0  0
   32.4980   27.5430   48.5720 N   0  0  0  0  0  0  0  0  0  0  0  0
   33.6090   28.2810   48.7200 C   0  0  0  0  0  0  0  0  0  0  0  0
   34.6300   28.1580   49.6150 C   0  0  0  0  0  0  0  0  0  0  0  0
   39.0460   32.1140   45.8880 C   0  0  0  0  0  0  0  0  0  0  0  0
   39.5700   33.2530   45.3390 C   0  0  0  0  0  0  0  0  0  0  0  0
   40.1690   33.3460   44.0990 C   0  0  0  0  0  0  0  0  0  0  0  0
   40.2360   32.2040   43.3780 N   0  0  0  0  0  0  0  0  0  0  0  0
   39.7360   31.0740   43.8800 C   0  0  0  0  0  0  0  0  0  0  0  0
   39.1690   31.0280   45.0730 N   0  0  0  0  0  0  0  0  0  0  0  0
   39.7810   29.7760   43.1270 C   0  0  0  0  0  0  0  0  0  0  0  0
   38.9790   29.8240   42.0080 F   0  0  0  0  0  0  0  0  0  0  0  0
   41.0780   29.5640   42.6930 F   0  0  0  0  0  0  0  0  0  0  0  0
   39.3190   28.7390   43.9360 F   0  0  0  0  0  0  0  0  0  0  0  0
   38.3902   33.2170   50.3747 H   0  0  0  0  0  0  0  0  0  0  0  0
   39.6541   33.5329   48.2213 H   0  0  0  0  0  0  0  0  0  0  0  0
   36.5084   29.0325   50.2189 H   0  0  0  0  0  0  0  0  0  0  0  0
   34.5641   30.9562   46.9261 H   0  0  0  0  0  0  0  0  0  0  0  0
   32.0951   29.7047   46.2242 H   0  0  0  0  0  0  0  0  0  0  0  0
   30.8188   27.6401   47.2014 H   0  0  0  0  0  0  0  0  0  0  0  0
   34.6384   27.3621   50.3742 H   0  0  0  0  0  0  0  0  0  0  0  0
   39.5084   34.1738   45.9377 H   0  0  0  0  0  0  0  0  0  0  0  0
   40.5699   34.2969   43.7182 H   0  0  0  0  0  0  0  0  0  0  0  0
  1  6  2  0
  2  1  1  0
  3  4  1  0
  3  2  2  0
  4  5  2  0
  5  8  1  0
  5  6  1  0
  7 15  2  0
  8  7  1  0
  9 10  1  0
  9  8  2  0
 10 14  2  0
 11 12  1  0
 11 10  1  0
 12 13  2  0
 13 14  1  0
 14 15  1  0
 16  3  1  0
 17 16  2  0
 18 17  1  0
 19 20  1  0
 19 18  2  0
 20 21  2  0
 21 16  1  0
 22 20  1  0
 22 25  1  0
 23 22  1  0
 24 22  1  0
  1 26  1  0
  2 27  1  0
  7 28  1  0
  9 29  1  0
 11 30  1  0
 12 31  1  0
 15 32  1  0
 17 33  1  0
 18 34  1  0
M  ISO  8  26  14  27  14  28  14  29  14  30   9  31  14  32  14  33  14
M  ISO  1  34  14
M  END
>  <minimizedAffinity>  (1) 
-7.04500055

>  <minimizedRMSD>  (1) 
1.20677137

$$$$
