
     RDKit          3D

 28 28  0  0  0  0  0  0  0  0999 V2000
   39.4260   32.3360   47.7670 O   0  0  0  0  0  0  0  0  0  0  0  0
   39.1110   32.5150   46.4460 C   0  0  0  0  0  0  0  0  0  0  0  0
   40.1520   33.0820   45.7330 C   0  0  0  0  0  0  0  0  0  0  0  0
   39.9910   33.3330   44.3600 C   0  0  0  0  0  0  0  0  0  0  0  0
   38.7770   32.9870   43.8100 N   0  0  0  0  0  0  0  0  0  0  0  0
   37.7750   32.4310   44.5470 C   0  0  0  0  0  0  0  0  0  0  0  0
   37.9540   32.2030   45.8490 N   0  0  0  0  0  0  0  0  0  0  0  0
   36.5330   32.4800   42.5000 C   0  0  0  0  0  0  0  0  0  0  0  0
   37.4660   33.0400   41.8560 O   0  0  0  0  0  0  0  0  0  0  0  0
   36.5690   32.1200   43.8700 N   0  0  0  0  0  0  0  0  0  0  0  0
   38.5510   31.6000   48.5370 C   0  0  0  0  0  0  0  0  0  0  0  0
   38.1930   32.5350   49.4320 C   0  0  0  0  0  0  0  0  0  0  0  0
   36.8090   32.3820   50.0000 C   0  0  0  0  0  0  0  0  0  0  0  0
   36.0940   30.7800   49.7710 S   0  0  0  0  0  0  0  0  0  0  0  0
   36.6020   29.6480   51.0750 C   0  0  0  0  0  0  0  0  0  0  0  0
   35.4660   29.1060   51.6530 F   0  0  0  0  0  0  0  0  0  0  0  0
   37.3220   30.3490   52.0260 F   0  0  0  0  0  0  0  0  0  0  0  0
   37.4300   28.6590   50.5970 F   0  0  0  0  0  0  0  0  0  0  0  0
   41.0971   33.3340   46.2363 H   0  0  0  0  0  0  0  0  0  0  0  0
   40.7929   33.7825   43.7559 H   0  0  0  0  0  0  0  0  0  0  0  0
   35.6101   32.2517   41.9468 H   0  0  0  0  0  0  0  0  0  0  0  0
   35.7745   31.6642   44.3410 H   0  0  0  0  0  0  0  0  0  0  0  0
   37.6908   31.2435   47.9513 H   0  0  0  0  0  0  0  0  0  0  0  0
   38.9714   30.6795   48.9683 H   0  0  0  0  0  0  0  0  0  0  0  0
   38.9090   32.4991   50.2663 H   0  0  0  0  0  0  0  0  0  0  0  0
   38.1963   33.4925   48.8906 H   0  0  0  0  0  0  0  0  0  0  0  0
   36.8565   32.5857   51.0799 H   0  0  0  0  0  0  0  0  0  0  0  0
   36.1678   33.0911   49.4559 H   0  0  0  0  0  0  0  0  0  0  0  0
  1 11  1  0
  2  1  1  0
  3  2  2  0
  4  3  1  0
  5  4  2  0
  5  6  1  0
  6  7  2  0
  7  2  1  0
  8 10  1  0
  9  8  2  0
 10  6  1  0
 11 12  1  0
 12 13  1  0
 14 13  1  0
 14 15  1  0
 15 16  1  0
 15 17  1  0
 18 15  1  0
  3 19  1  0
  4 20  1  0
  8 21  1  0
 10 22  1  0
 11 23  1  0
 11 24  1  0
 12 25  1  0
 12 26  1  0
 13 27  1  0
 13 28  1  0
M  ISO  8  19  14  20  14  21   6  23   8  24   8  25   8  26   8  27   8
M  ISO  1  28   8
M  END
>  <minimizedAffinity>  (1) 
-5.34666491

>  <minimizedRMSD>  (1) 
1.80379975

$$$$
