
     RDKit          3D

 35 36  0  0  1  0  0  0  0  0999 V2000
   37.0820   30.9380   49.0610 C   0  0  0  0  0  0  0  0  0  0  0  0
   36.8050   31.8690   50.0590 C   0  0  0  0  0  0  0  0  0  0  0  0
   37.3980   33.1250   50.0720 C   0  0  0  0  0  0  0  0  0  0  0  0
   38.2970   33.4730   49.0590 C   0  0  0  0  0  0  0  0  0  0  0  0
   38.5580   32.5460   48.0850 C   0  0  0  0  0  0  0  0  0  0  0  0
   37.9470   31.3010   48.1070 C   0  0  0  0  0  0  0  0  0  0  0  0
   36.4880   29.6180   49.0640 C   0  0  2  0  0  0  0  0  0  0  0  0
   33.6240   29.9600   46.8550 C   0  0  0  0  0  0  0  0  0  0  0  0
   32.8810   28.8230   47.0830 C   0  0  0  0  0  0  0  0  0  0  0  0
   33.3260   27.9400   48.0550 C   0  0  0  0  0  0  0  0  0  0  0  0
   34.4810   28.2260   48.7500 N   0  0  0  0  0  0  0  0  0  0  0  0
   35.1460   29.3300   48.4810 C   0  0  0  0  0  0  0  0  0  0  0  0
   34.7260   30.2060   47.5360 N   0  0  0  0  0  0  0  0  0  0  0  0
   36.9600   28.8630   49.9920 O   0  0  0  0  0  0  0  0  0  0  0  0
   38.3450   30.4100   47.0420 C   0  0  0  0  0  0  0  0  0  0  0  0
   38.6930   30.8230   45.8170 C   0  0  0  0  0  0  0  0  0  0  0  0
   39.1620   30.0100   44.6700 C   0  0  0  0  0  0  0  0  0  0  0  0
   40.3860   30.9290   43.7340 S   0  0  0  0  0  0  0  0  0  0  0  0
   40.7470   30.0730   42.1630 C   0  0  0  0  0  0  0  0  0  0  0  0
   39.6880   29.2050   41.9070 F   0  0  0  0  0  0  0  0  0  0  0  0
   41.9050   29.2930   42.3060 F   0  0  0  0  0  0  0  0  0  0  0  0
   40.8960   30.9530   41.1280 F   0  0  0  0  0  0  0  0  0  0  0  0
   36.0978   31.6026   50.8583 H   0  0  0  0  0  0  0  0  0  0  0  0
   37.1622   33.8407   50.8733 H   0  0  0  0  0  0  0  0  0  0  0  0
   38.7799   34.4612   49.0448 H   0  0  0  0  0  0  0  0  0  0  0  0
   39.2608   32.7919   47.2754 H   0  0  0  0  0  0  0  0  0  0  0  0
   36.8479   29.2312   48.0992 H   0  0  0  0  0  0  0  0  0  0  0  0
   33.2916   30.6769   46.0898 H   0  0  0  0  0  0  0  0  0  0  0  0
   31.9629   28.6216   46.5116 H   0  0  0  0  0  0  0  0  0  0  0  0
   32.7624   27.0200   48.2693 H   0  0  0  0  0  0  0  0  0  0  0  0
   36.7241   29.2404   50.8763 H   0  0  0  0  0  0  0  0  0  0  0  0
   38.3632   29.3299   47.2495 H   0  0  0  0  0  0  0  0  0  0  0  0
   38.6216   31.9061   45.6387 H   0  0  0  0  0  0  0  0  0  0  0  0
   39.6116   29.0778   45.0427 H   0  0  0  0  0  0  0  0  0  0  0  0
   38.3078   29.7747   44.0181 H   0  0  0  0  0  0  0  0  0  0  0  0
  1  7  1  0
  1  2  2  0
  2  3  1  0
  4  3  2  0
  5  6  2  0
  5  4  1  0
  6  1  1  0
  7 14  1  0
  8  9  2  0
  8 13  1  0
  9 10  1  0
 10 11  2  0
 12 11  1  0
 12  7  1  0
 13 12  2  0
 15  6  1  0
 16 15  2  0
 17 16  1  0
 18 17  1  0
 19 21  1  0
 19 18  1  0
 20 19  1  0
 22 19  1  0
  2 23  1  0
  3 24  1  0
  4 25  1  0
  5 26  1  0
  7 27  1  6
  8 28  1  0
  9 29  1  0
 10 30  1  0
 14 31  1  0
 15 32  1  0
 16 33  1  0
 17 34  1  0
 17 35  1  0
M  ISO  8  23  14  24  14  25  14  26  14  27   8  28  14  29  14  30  14
M  ISO  3  31   3  34   8  35   8
M  END
>  <minimizedAffinity>  (1) 
-5.75696373

>  <minimizedRMSD>  (1) 
0.627830446

$$$$
