
     RDKit          3D

 36 38  0  0  1  0  0  0  0  0999 V2000
   38.6350   31.0480   45.7240 C   0  0  0  0  0  0  0  0  0  0  0  0
   39.9760   31.0080   45.9700 C   0  0  0  0  0  0  0  0  0  0  0  0
   40.5670   31.3180   44.7320 C   0  0  0  0  0  0  0  0  0  0  0  0
   39.6090   31.5230   43.8270 N   0  0  0  0  0  0  0  0  0  0  0  0
   38.4190   31.3590   44.4300 N   0  0  0  0  0  0  0  0  0  0  0  0
   40.5150   30.6870   41.7230 C   0  0  2  0  0  0  0  0  0  0  0  0
   39.8810   31.8600   42.4550 C   0  0  1  0  0  0  0  0  0  0  0  0
   38.6230   31.9710   41.6180 C   0  0  0  0  0  0  0  0  0  0  0  0
   38.9660   31.6880   40.3230 O   0  0  0  0  0  0  0  0  0  0  0  0
   40.2040   31.1160   40.2810 C   0  0  0  0  0  0  0  0  0  0  0  0
   39.7680   29.5530   42.0250 O   0  0  0  0  0  0  0  0  0  0  0  0
   40.5410   28.3980   42.0310 C   0  0  0  0  0  0  0  0  0  0  0  0
   40.5890   27.9250   40.7340 F   0  0  0  0  0  0  0  0  0  0  0  0
   40.1020   27.4280   42.8850 F   0  0  0  0  0  0  0  0  0  0  0  0
   41.8370   28.8190   42.3240 F   0  0  0  0  0  0  0  0  0  0  0  0
   36.7940   30.6140   48.9680 C   0  0  0  0  0  0  0  0  0  0  0  0
   37.8130   30.8700   48.0750 C   0  0  0  0  0  0  0  0  0  0  0  0
   37.6060   30.7920   46.7180 C   0  0  0  0  0  0  0  0  0  0  0  0
   36.3560   30.4520   46.2910 N   0  0  0  0  0  0  0  0  0  0  0  0
   35.3610   30.2030   47.1940 C   0  0  0  0  0  0  0  0  0  0  0  0
   35.5620   30.2780   48.4900 N   0  0  0  0  0  0  0  0  0  0  0  0
   37.1790   30.7390   50.2930 O   0  0  0  0  0  0  0  0  0  0  0  0
   37.0560   29.7160   51.2390 C   0  0  0  0  0  0  0  0  0  0  0  0
   35.7360   29.3720   51.4960 F   0  0  0  0  0  0  0  0  0  0  0  0
   37.7080   30.0960   52.3800 F   0  0  0  0  0  0  0  0  0  0  0  0
   37.7050   28.5940   50.7340 F   0  0  0  0  0  0  0  0  0  0  0  0
   40.4809   30.7840   46.9213 H   0  0  0  0  0  0  0  0  0  0  0  0
   41.6483   31.3814   44.5404 H   0  0  0  0  0  0  0  0  0  0  0  0
   41.5712   30.4721   41.9425 H   0  0  0  0  0  0  0  0  0  0  0  0
   40.4766   32.7814   42.5341 H   0  0  0  0  0  0  0  0  0  0  0  0
   37.8704   31.2517   41.9733 H   0  0  0  0  0  0  0  0  0  0  0  0
   38.1940   32.9810   41.6941 H   0  0  0  0  0  0  0  0  0  0  0  0
   40.1997   30.2416   39.6136 H   0  0  0  0  0  0  0  0  0  0  0  0
   40.9603   31.8148   39.8941 H   0  0  0  0  0  0  0  0  0  0  0  0
   38.8090   31.1414   48.4550 H   0  0  0  0  0  0  0  0  0  0  0  0
   34.3612   29.9315   46.8243 H   0  0  0  0  0  0  0  0  0  0  0  0
  1  2  1  0
  1 18  1  0
  3  2  2  0
  4  5  1  0
  4  3  1  0
  5  1  2  0
  6 11  1  0
  6  7  1  0
  7  4  1  0
  8  7  1  0
  9  8  1  0
 10  9  1  0
 10  6  1  0
 11 12  1  0
 12 15  1  0
 12 14  1  0
 13 12  1  0
 16 22  1  0
 17 16  2  0
 18 17  1  0
 19 18  2  0
 19 20  1  0
 20 21  2  0
 21 16  1  0
 22 23  1  0
 23 24  1  0
 23 25  1  0
 26 23  1  0
  2 27  1  0
  3 28  1  0
  6 29  1  6
  7 30  1  1
  8 31  1  0
  8 32  1  0
 10 33  1  0
 10 34  1  0
 17 35  1  0
 20 36  1  0
M  ISO  8  27  14  28  14  29  13  30  13  31  13  32  13  33  13  34  13
M  ISO  2  35  14  36  14
M  END
>  <minimizedAffinity>  (1) 
-6.26379395

>  <minimizedRMSD>  (1) 
0.861347675

$$$$
