
     RDKit          3D

 18 18  0  0  0  0  0  0  0  0999 V2000
   36.2950   30.5590   49.0130 C   0  0  0  0  0  0  0  0  0  0  0  0
   37.4090   30.9030   48.2430 C   0  0  0  0  0  0  0  0  0  0  0  0
   37.3280   30.8190   46.8610 C   0  0  0  0  0  0  0  0  0  0  0  0
   36.1500   30.3980   46.3370 N   0  0  0  0  0  0  0  0  0  0  0  0
   35.0800   30.0680   47.0800 C   0  0  0  0  0  0  0  0  0  0  0  0
   35.1610   30.1500   48.4040 N   0  0  0  0  0  0  0  0  0  0  0  0
   38.7960   32.6840   49.1410 C   0  0  0  0  0  0  0  0  0  0  0  0
   38.0570   33.7310   49.1350 O   0  0  0  0  0  0  0  0  0  0  0  0
   38.6240   31.3350   48.7500 N   0  0  0  0  0  0  0  0  0  0  0  0
   36.5350   30.6960   50.3640 O   0  0  0  0  0  0  0  0  0  0  0  0
   36.6850   29.6790   51.3010 C   0  0  0  0  0  0  0  0  0  0  0  0
   37.4090   30.0530   52.4200 F   0  0  0  0  0  0  0  0  0  0  0  0
   35.4590   29.1460   51.6610 F   0  0  0  0  0  0  0  0  0  0  0  0
   37.4530   28.6850   50.6840 F   0  0  0  0  0  0  0  0  0  0  0  0
   38.1812   31.0821   46.2185 H   0  0  0  0  0  0  0  0  0  0  0  0
   34.1490   29.7343   46.5985 H   0  0  0  0  0  0  0  0  0  0  0  0
   39.8001   32.8801   49.5451 H   0  0  0  0  0  0  0  0  0  0  0  0
   39.4058   30.6709   48.8427 H   0  0  0  0  0  0  0  0  0  0  0  0
  1 10  1  0
  2  9  1  0
  2  1  2  0
  3  2  1  0
  4  3  2  0
  4  5  1  0
  5  6  2  0
  6  1  1  0
  8  7  2  0
  9  7  1  0
 10 11  1  0
 11 13  1  0
 11 12  1  0
 14 11  1  0
  3 15  1  0
  5 16  1  0
  7 17  1  0
  9 18  1  0
M  ISO  3  15  14  16  14  17   6
M  END
>  <minimizedAffinity>  (1) 
-5.02233696

>  <minimizedRMSD>  (1) 
2.33009315

$$$$
