
     RDKit          3D

 27 28  0  0  1  0  0  0  0  0999 V2000
   32.3480   28.3370   47.4720 C   0  0  2  0  0  0  0  0  0  0  0  0
   33.5670   28.3630   48.3680 C   0  0  1  0  0  0  0  0  0  0  0  0
   34.1150   27.1090   48.3790 O   0  0  0  0  0  0  0  0  0  0  0  0
   33.5230   26.3460   47.3780 C   0  0  0  0  0  0  0  0  0  0  0  0
   32.8410   27.3280   46.4410 C   0  0  1  0  0  0  0  0  0  0  0  0
   32.1230   29.5910   46.8910 O   0  0  0  0  0  0  0  0  0  0  0  0
   34.7740   29.4970   47.6000 S   0  0  0  0  0  0  0  0  0  0  0  0
   37.3400   29.3270   50.6240 C   0  0  0  0  0  0  0  0  0  0  0  0
   37.8340   30.6380   50.7540 C   0  0  0  0  0  0  0  0  0  0  0  0
   37.3410   31.6090   49.8570 C   0  0  0  0  0  0  0  0  0  0  0  0
   36.4310   31.2340   48.9320 N   0  0  0  0  0  0  0  0  0  0  0  0
   35.9820   29.9600   48.8410 C   0  0  0  0  0  0  0  0  0  0  0  0
   36.4290   29.0070   49.6790 N   0  0  0  0  0  0  0  0  0  0  0  0
   31.7960   26.7000   45.7780 O   0  0  0  0  0  0  0  0  0  0  0  0
   31.6810   27.1010   44.4590 C   0  0  0  0  0  0  0  0  0  0  0  0
   30.7030   28.0810   44.3970 F   0  0  0  0  0  0  0  0  0  0  0  0
   32.8670   27.7430   44.1290 F   0  0  0  0  0  0  0  0  0  0  0  0
   31.3870   26.1050   43.5770 F   0  0  0  0  0  0  0  0  0  0  0  0
   31.3952   28.0901   47.9631 H   0  0  0  0  0  0  0  0  0  0  0  0
   33.3070   28.6802   49.3887 H   0  0  0  0  0  0  0  0  0  0  0  0
   34.2873   25.7700   46.8357 H   0  0  0  0  0  0  0  0  0  0  0  0
   32.8035   25.6266   47.7961 H   0  0  0  0  0  0  0  0  0  0  0  0
   33.4584   27.7581   45.6386 H   0  0  0  0  0  0  0  0  0  0  0  0
   32.0016   30.2677   47.6033 H   0  0  0  0  0  0  0  0  0  0  0  0
   37.7036   28.5452   51.3070 H   0  0  0  0  0  0  0  0  0  0  0  0
   38.5754   30.8957   51.5247 H   0  0  0  0  0  0  0  0  0  0  0  0
   37.6907   32.6506   49.9099 H   0  0  0  0  0  0  0  0  0  0  0  0
  1  2  1  0
  2  3  1  0
  4  3  1  0
  5  4  1  0
  5  1  1  0
  6  1  1  0
  7  2  1  0
  7 12  1  0
  8  9  2  0
 10  9  1  0
 11 10  2  0
 12 11  1  0
 12 13  2  0
 13  8  1  0
 14  5  1  0
 15 14  1  0
 16 15  1  0
 17 15  1  0
 18 15  1  0
  1 19  1  1
  2 20  1  1
  4 21  1  0
  4 22  1  0
  5 23  1  6
  6 24  1  0
  8 25  1  0
  9 26  1  0
 10 27  1  0
M  ISO  8  19  13  20  13  21  13  22  13  23  13  24   3  25  14  26  14
M  ISO  1  27  14
M  END
>  <minimizedAffinity>  (1) 
-3.7359395

>  <minimizedRMSD>  (1) 
0.282184213

$$$$
