
     RDKit          3D

 37 39  0  0  0  0  0  0  0  0999 V2000
   34.1080   28.7240   47.4830 C   0  0  0  0  0  0  0  0  0  0  0  0
   31.6640   28.4860   47.3650 C   0  0  0  0  0  0  0  0  0  0  0  0
   32.8280   29.0860   46.9680 C   0  0  0  0  0  0  0  0  0  0  0  0
   32.6390   30.0120   45.9890 C   0  0  0  0  0  0  0  0  0  0  0  0
   31.4570   30.3150   45.4600 N   0  0  0  0  0  0  0  0  0  0  0  0
   30.3340   29.7290   45.8480 C   0  0  0  0  0  0  0  0  0  0  0  0
   30.4270   28.8080   46.8050 N   0  0  0  0  0  0  0  0  0  0  0  0
   31.6490   27.5310   48.5580 C   0  0  0  0  0  0  0  0  0  0  0  0
   30.5530   26.7570   48.9060 C   0  0  0  0  0  0  0  0  0  0  0  0
   31.5090   26.0730   47.9360 C   0  0  0  0  0  0  0  0  0  0  0  0
   35.1560   29.7690   47.5100 C   0  0  0  0  0  0  0  0  0  0  0  0
   37.3220   31.4970   47.4810 F   0  0  0  0  0  0  0  0  0  0  0  0
   36.9600   30.8260   48.5990 C   0  0  0  0  0  0  0  0  0  0  0  0
   35.8840   29.9480   48.7210 C   0  0  0  0  0  0  0  0  0  0  0  0
   35.6990   29.3810   49.9350 C   0  0  0  0  0  0  0  0  0  0  0  0
   36.4800   29.6210   51.0110 C   0  0  0  0  0  0  0  0  0  0  0  0
   37.5630   30.5020   50.8970 C   0  0  0  0  0  0  0  0  0  0  0  0
   37.7860   31.0940   49.6710 C   0  0  0  0  0  0  0  0  0  0  0  0
   38.8930   31.9490   49.6070 O   0  0  0  0  0  0  0  0  0  0  0  0
   38.8360   33.3050   49.3730 C   0  0  0  0  0  0  0  0  0  0  0  0
   37.6030   33.8780   49.3350 F   0  0  0  0  0  0  0  0  0  0  0  0
   39.6800   33.9930   50.2560 F   0  0  0  0  0  0  0  0  0  0  0  0
   39.4110   33.5210   48.1150 F   0  0  0  0  0  0  0  0  0  0  0  0
   34.4869   27.8936   46.8691 H   0  0  0  0  0  0  0  0  0  0  0  0
   33.9258   28.4835   48.5408 H   0  0  0  0  0  0  0  0  0  0  0  0
   33.5230   30.5456   45.6098 H   0  0  0  0  0  0  0  0  0  0  0  0
   29.3653   29.9923   45.3983 H   0  0  0  0  0  0  0  0  0  0  0  0
   32.2759   28.1441   49.2221 H   0  0  0  0  0  0  0  0  0  0  0  0
   30.4756   26.3758   49.9349 H   0  0  0  0  0  0  0  0  0  0  0  0
   29.4703   26.9474   48.8675 H   0  0  0  0  0  0  0  0  0  0  0  0
   31.2404   25.9288   46.8791 H   0  0  0  0  0  0  0  0  0  0  0  0
   32.0980   25.1454   47.8860 H   0  0  0  0  0  0  0  0  0  0  0  0
   35.8840   29.5240   46.7226 H   0  0  0  0  0  0  0  0  0  0  0  0
   34.6091   30.7135   47.3733 H   0  0  0  0  0  0  0  0  0  0  0  0
   34.8595   28.6801   50.0537 H   0  0  0  0  0  0  0  0  0  0  0  0
   36.2667   29.1276   51.9707 H   0  0  0  0  0  0  0  0  0  0  0  0
   38.2146   30.7150   51.7572 H   0  0  0  0  0  0  0  0  0  0  0  0
  1 11  1  0
  2  8  1  0
  3  2  1  0
  3  1  1  0
  4  3  2  0
  5  6  2  0
  5  4  1  0
  6  7  1  0
  7  2  2  0
  8  9  1  0
 10  8  1  0
 10  9  1  0
 11 14  1  0
 12 13  1  0
 13 14  2  0
 13 18  1  0
 14 15  1  0
 15 16  2  0
 17 16  1  0
 18 17  2  0
 19 18  1  0
 20 19  1  0
 20 22  1  0
 21 20  1  0
 23 20  1  0
  1 24  1  0
  1 25  1  0
  4 26  1  0
  6 27  1  0
  8 28  1  0
  9 29  1  0
  9 30  1  0
 10 31  1  0
 10 32  1  0
 11 33  1  0
 11 34  1  0
 15 35  1  0
 16 36  1  0
 17 37  1  0
M  ISO  8  24   8  25   8  26  14  27  14  28  13  29  13  30  13  31  13
M  ISO  6  32  13  33   8  34   8  35  14  36  14  37  14
M  END
>  <minimizedAffinity>  (1) 
-6.42544556

>  <minimizedRMSD>  (1) 
3.518893

$$$$
