
     RDKit          3D

 27 29  0  0  0  0  0  0  0  0999 V2000
   37.6470   30.4560   50.0600 C   0  0  0  0  0  0  0  0  0  0  0  0
   37.4500   31.0670   48.8390 C   0  0  0  0  0  0  0  0  0  0  0  0
   36.4270   30.6650   48.0100 C   0  0  0  0  0  0  0  0  0  0  0  0
   35.6130   29.6260   48.4560 C   0  0  0  0  0  0  0  0  0  0  0  0
   34.5440   29.0570   47.8170 N   0  0  0  0  0  0  0  0  0  0  0  0
   34.0880   28.1100   48.6320 C   0  0  0  0  0  0  0  0  0  0  0  0
   34.7990   28.0410   49.7470 N   0  0  0  0  0  0  0  0  0  0  0  0
   35.7750   28.9880   49.6690 C   0  0  0  0  0  0  0  0  0  0  0  0
   36.8190   29.4190   50.4870 C   0  0  0  0  0  0  0  0  0  0  0  0
   39.8370   33.3300   47.0170 C   0  0  0  0  0  0  0  0  0  0  0  0
   38.9900   32.2500   47.2420 C   0  0  0  0  0  0  0  0  0  0  0  0
   38.3580   32.1400   48.4700 C   0  0  0  0  0  0  0  0  0  0  0  0
   38.6020   33.1140   49.4090 N   0  0  0  0  0  0  0  0  0  0  0  0
   39.4340   34.1580   49.1650 C   0  0  0  0  0  0  0  0  0  0  0  0
   40.0380   34.2590   47.9860 N   0  0  0  0  0  0  0  0  0  0  0  0
   32.9900   27.3200   48.2940 O   0  0  0  0  0  0  0  0  0  0  0  0
   31.6760   27.6330   48.6380 C   0  0  0  0  0  0  0  0  0  0  0  0
   31.6750   28.3270   49.8350 F   0  0  0  0  0  0  0  0  0  0  0  0
   30.9160   26.4870   48.8520 F   0  0  0  0  0  0  0  0  0  0  0  0
   31.1240   28.3820   47.6150 F   0  0  0  0  0  0  0  0  0  0  0  0
   38.4706   30.7924   50.7070 H   0  0  0  0  0  0  0  0  0  0  0  0
   36.2590   31.1449   47.0346 H   0  0  0  0  0  0  0  0  0  0  0  0
   34.1688   29.3110   46.8920 H   0  0  0  0  0  0  0  0  0  0  0  0
   36.9883   28.9431   51.4642 H   0  0  0  0  0  0  0  0  0  0  0  0
   40.3471   33.4319   46.0478 H   0  0  0  0  0  0  0  0  0  0  0  0
   38.8247   31.4960   46.4583 H   0  0  0  0  0  0  0  0  0  0  0  0
   39.6077   34.9181   49.9409 H   0  0  0  0  0  0  0  0  0  0  0  0
  1  9  2  0
  2  1  1  0
  3  4  1  0
  3  2  2  0
  4  8  2  0
  5  4  1  0
  5  6  1  0
  6  7  2  0
  8  7  1  0
  8  9  1  0
 10 11  2  0
 10 15  1  0
 11 12  1  0
 12  2  1  0
 12 13  2  0
 14 13  1  0
 15 14  2  0
 16  6  1  0
 16 17  1  0
 17 19  1  0
 17 18  1  0
 20 17  1  0
  1 21  1  0
  3 22  1  0
  5 23  1  0
  9 24  1  0
 10 25  1  0
 11 26  1  0
 14 27  1  0
M  ISO  7  21  14  22  14  23   9  24  14  25  14  26  14  27  14
M  END
>  <minimizedAffinity>  (1) 
-6.04221106

>  <minimizedRMSD>  (1) 
8.07926083

$$$$
