
     RDKit          3D

 24 25  0  0  0  0  0  0  0  0999 V2000
   37.7320   31.2640   47.1190 C   0  0  0  0  0  0  0  0  0  0  0  0
   37.0810   30.8690   45.9680 C   0  0  0  0  0  0  0  0  0  0  0  0
   37.4810   31.2890   44.7030 C   0  0  0  0  0  0  0  0  0  0  0  0
   38.5360   32.1080   44.5830 N   0  0  0  0  0  0  0  0  0  0  0  0
   39.1570   32.4810   45.7100 C   0  0  0  0  0  0  0  0  0  0  0  0
   38.7780   32.0820   46.9210 N   0  0  0  0  0  0  0  0  0  0  0  0
   37.5560   30.4950   50.7960 C   0  0  0  0  0  0  0  0  0  0  0  0
   38.0770   30.9680   49.5960 C   0  0  0  0  0  0  0  0  0  0  0  0
   37.3120   30.8170   48.4450 C   0  0  0  0  0  0  0  0  0  0  0  0
   36.1150   30.2220   48.5610 N   0  0  0  0  0  0  0  0  0  0  0  0
   35.6120   29.7640   49.7220 C   0  0  0  0  0  0  0  0  0  0  0  0
   36.3570   29.9110   50.8490 N   0  0  0  0  0  0  0  0  0  0  0  0
   34.2670   29.1120   49.7710 C   0  0  0  0  0  0  0  0  0  0  0  0
   34.4420   27.7590   49.8620 F   0  0  0  0  0  0  0  0  0  0  0  0
   33.5910   29.4100   48.6030 F   0  0  0  0  0  0  0  0  0  0  0  0
   33.5150   29.6050   50.8370 F   0  0  0  0  0  0  0  0  0  0  0  0
   40.3380   33.3930   45.6060 C   0  0  0  0  0  0  0  0  0  0  0  0
   40.4400   34.1050   46.7790 F   0  0  0  0  0  0  0  0  0  0  0  0
   41.5050   32.6410   45.3900 F   0  0  0  0  0  0  0  0  0  0  0  0
   40.2270   34.2750   44.5920 F   0  0  0  0  0  0  0  0  0  0  0  0
   36.2140   30.1974   46.0537 H   0  0  0  0  0  0  0  0  0  0  0  0
   36.9362   30.9519   43.8088 H   0  0  0  0  0  0  0  0  0  0  0  0
   38.1437   30.6044   51.7194 H   0  0  0  0  0  0  0  0  0  0  0  0
   39.0661   31.4478   49.5589 H   0  0  0  0  0  0  0  0  0  0  0  0
  1  9  1  0
  2  1  2  0
  3  2  1  0
  4  3  2  0
  4  5  1  0
  5  6  2  0
  6  1  1  0
  7 12  2  0
  8  7  1  0
  9 10  1  0
  9  8  2  0
 10 11  2  0
 11 13  1  0
 11 12  1  0
 13 14  1  0
 13 16  1  0
 15 13  1  0
 17  5  1  0
 17 18  1  0
 19 17  1  0
 20 17  1  0
  2 21  1  0
  3 22  1  0
  7 23  1  0
  8 24  1  0
M  ISO  4  21  14  22  14  23  14  24  14
M  END
>  <minimizedAffinity>  (1) 
-6.42033863

>  <minimizedRMSD>  (1) 
0.682542205

$$$$
