
     RDKit          3D

 24 25  0  0  0  0  0  0  0  0999 V2000
   38.7600   32.1450   46.3810 C   0  0  0  0  0  0  0  0  0  0  0  0
   40.0210   32.5400   45.9950 C   0  0  0  0  0  0  0  0  0  0  0  0
   40.3840   32.9930   44.7420 C   0  0  0  0  0  0  0  0  0  0  0  0
   39.3790   33.0440   43.8190 N   0  0  0  0  0  0  0  0  0  0  0  0
   38.1300   32.6600   44.1760 C   0  0  0  0  0  0  0  0  0  0  0  0
   37.8250   32.2240   45.4150 N   0  0  0  0  0  0  0  0  0  0  0  0
   37.3590   33.1720   41.8790 C   0  0  0  0  0  0  0  0  0  0  0  0
   38.5440   33.5100   41.6270 O   0  0  0  0  0  0  0  0  0  0  0  0
   37.1010   32.7230   43.1940 N   0  0  0  0  0  0  0  0  0  0  0  0
   37.6360   29.9890   49.0700 C   0  0  0  0  0  0  0  0  0  0  0  0
   37.9210   30.6950   50.2460 C   0  0  0  0  0  0  0  0  0  0  0  0
   38.5250   31.9650   50.0750 C   0  0  0  0  0  0  0  0  0  0  0  0
   38.7800   32.4000   48.8240 N   0  0  0  0  0  0  0  0  0  0  0  0
   38.4870   31.6810   47.7350 C   0  0  0  0  0  0  0  0  0  0  0  0
   37.9050   30.4520   47.8330 N   0  0  0  0  0  0  0  0  0  0  0  0
   37.6130   30.1520   51.5230 N   0  0  0  0  0  0  0  0  0  0  0  0
   40.8137   32.4901   46.7560 H   0  0  0  0  0  0  0  0  0  0  0  0
   41.4150   33.2930   44.5032 H   0  0  0  0  0  0  0  0  0  0  0  0
   36.5668   33.2231   41.1176 H   0  0  0  0  0  0  0  0  0  0  0  0
   36.1455   32.4344   43.4481 H   0  0  0  0  0  0  0  0  0  0  0  0
   37.1652   28.9990   49.1614 H   0  0  0  0  0  0  0  0  0  0  0  0
   38.7814   32.5851   50.9466 H   0  0  0  0  0  0  0  0  0  0  0  0
   37.8304   30.6867   52.3761 H   0  0  0  0  0  0  0  0  0  0  0  0
   37.1724   29.2238   51.5953 H   0  0  0  0  0  0  0  0  0  0  0  0
  1 14  1  0
  2  1  2  0
  3  2  1  0
  4  5  1  0
  4  3  2  0
  5  6  2  0
  6  1  1  0
  7  9  1  0
  8  7  2  0
  9  5  1  0
 10 11  2  0
 11 16  1  0
 12 11  1  0
 13 12  2  0
 14 15  2  0
 14 13  1  0
 15 10  1  0
  2 17  1  0
  3 18  1  0
  7 19  1  0
  9 20  1  0
 10 21  1  0
 12 22  1  0
 16 23  1  0
 16 24  1  0
M  ISO  5  17  14  18  14  19   6  21  14  22  14
M  END
>  <minimizedAffinity>  (1) 
-5.46423101

>  <minimizedRMSD>  (1) 
1.64808381

$$$$
