
     RDKit          3D

 30 32  0  0  0  0  0  0  0  0999 V2000
   37.2050   30.7600   45.1260 C   0  0  0  0  0  0  0  0  0  0  0  0
   36.8450   29.7450   44.1130 C   0  0  0  0  0  0  0  0  0  0  0  0
   36.2720   31.1310   44.0150 C   0  0  0  0  0  0  0  0  0  0  0  0
   36.6280   30.6340   46.5060 C   0  0  0  0  0  0  0  0  0  0  0  0
   37.3260   31.0320   47.6000 C   0  0  0  0  0  0  0  0  0  0  0  0
   36.7860   30.9270   48.8710 C   0  0  0  0  0  0  0  0  0  0  0  0
   35.5020   30.3960   48.9880 C   0  0  0  0  0  0  0  0  0  0  0  0
   34.7810   29.9850   47.8640 C   0  0  0  0  0  0  0  0  0  0  0  0
   35.3850   30.1240   46.6670 N   0  0  0  0  0  0  0  0  0  0  0  0
   33.0790   28.1230   48.4000 C   0  0  0  0  0  0  0  0  0  0  0  0
   34.0220   27.3530   48.7560 O   0  0  0  0  0  0  0  0  0  0  0  0
   33.4700   29.4380   47.9550 N   0  0  0  0  0  0  0  0  0  0  0  0
   39.8380   33.3570   44.9380 C   0  0  0  0  0  0  0  0  0  0  0  0
   41.0100   32.6150   45.1840 C   0  0  0  0  0  0  0  0  0  0  0  0
   40.8880   31.2220   45.4080 C   0  0  0  0  0  0  0  0  0  0  0  0
   39.6490   30.6820   45.3740 N   0  0  0  0  0  0  0  0  0  0  0  0
   38.5320   31.4130   45.1360 C   0  0  0  0  0  0  0  0  0  0  0  0
   38.6410   32.7230   44.9240 N   0  0  0  0  0  0  0  0  0  0  0  0
   37.5952   29.4080   43.3825 H   0  0  0  0  0  0  0  0  0  0  0  0
   36.4210   28.7306   44.1474 H   0  0  0  0  0  0  0  0  0  0  0  0
   36.6051   31.8116   43.2176 H   0  0  0  0  0  0  0  0  0  0  0  0
   35.2601   31.5577   43.9513 H   0  0  0  0  0  0  0  0  0  0  0  0
   38.3378   31.4450   47.4749 H   0  0  0  0  0  0  0  0  0  0  0  0
   37.3506   31.2513   49.7576 H   0  0  0  0  0  0  0  0  0  0  0  0
   35.0477   30.2987   49.9851 H   0  0  0  0  0  0  0  0  0  0  0  0
   32.0259   27.8067   48.4289 H   0  0  0  0  0  0  0  0  0  0  0  0
   32.7024   30.0610   47.6661 H   0  0  0  0  0  0  0  0  0  0  0  0
   39.8944   34.4409   44.7590 H   0  0  0  0  0  0  0  0  0  0  0  0
   41.9946   33.1051   45.2016 H   0  0  0  0  0  0  0  0  0  0  0  0
   41.7733   30.5991   45.6035 H   0  0  0  0  0  0  0  0  0  0  0  0
  1 17  1  0
  1  4  1  0
  2  1  1  0
  3  2  1  0
  3  1  1  0
  4  9  1  0
  4  5  2  0
  5  6  1  0
  6  7  2  0
  8 12  1  0
  8  7  1  0
  9  8  2  0
 10 11  2  0
 12 10  1  0
 13 14  2  0
 14 15  1  0
 16 15  2  0
 17 16  1  0
 18 13  1  0
 18 17  2  0
  2 19  1  0
  2 20  1  0
  3 21  1  0
  3 22  1  0
  5 23  1  0
  6 24  1  0
  7 25  1  0
 10 26  1  0
 12 27  1  0
 13 28  1  0
 14 29  1  0
 15 30  1  0
M  ISO  8  19  13  20  13  21  13  22  13  23  14  24  14  25  14  26   6
M  ISO  3  28  14  29  14  30  14
M  END
>  <minimizedAffinity>  (1) 
-5.32606316

>  <minimizedRMSD>  (1) 
3.32806802

$$$$
