
     RDKit          3D

 40 42  0  0  1  0  0  0  0  0999 V2000
   35.0120   30.0230   46.7490 C   0  0  0  0  0  0  0  0  0  0  0  0
   36.3190   30.5650   46.8580 C   0  0  0  0  0  0  0  0  0  0  0  0
   37.0410   30.7320   45.6680 C   0  0  0  0  0  0  0  0  0  0  0  0
   36.4680   30.3750   44.4960 N   0  0  0  0  0  0  0  0  0  0  0  0
   35.2300   29.8650   44.4330 C   0  0  0  0  0  0  0  0  0  0  0  0
   34.5100   29.6920   45.5480 N   0  0  0  0  0  0  0  0  0  0  0  0
   36.7560   30.8700   48.1850 N   0  0  0  0  0  0  0  0  0  0  0  0
   37.1680   32.0420   48.9400 C   0  0  0  0  0  0  0  0  0  0  0  0
   38.4690   31.5460   49.5770 C   0  0  0  0  0  0  0  0  0  0  0  0
   38.2240   30.0580   49.8220 C   0  0  0  0  0  0  0  0  0  0  0  0
   36.8850   29.8040   49.2080 C   0  0  1  0  0  0  0  0  0  0  0  0
   34.7970   29.1310   50.3970 C   0  0  0  0  0  0  0  0  0  0  0  0
   34.5480   28.1320   49.6650 O   0  0  0  0  0  0  0  0  0  0  0  0
   35.8690   30.0600   50.2220 N   0  0  0  0  0  0  0  0  0  0  0  0
   38.3680   31.2770   45.6630 C   0  0  0  0  0  0  0  0  0  0  0  0
   38.5650   32.5470   46.1630 C   0  0  0  0  0  0  0  0  0  0  0  0
   39.8240   33.1330   46.1900 C   0  0  0  0  0  0  0  0  0  0  0  0
   40.8910   32.4160   45.7020 C   0  0  0  0  0  0  0  0  0  0  0  0
   40.7610   31.1450   45.1900 C   0  0  0  0  0  0  0  0  0  0  0  0
   39.4710   30.6280   45.1970 C   0  0  0  0  0  0  0  0  0  0  0  0
   39.3890   29.3660   43.2400 C   0  0  0  0  0  0  0  0  0  0  0  0
   39.5900   30.3300   42.4280 O   0  0  0  0  0  0  0  0  0  0  0  0
   39.2970   29.3260   44.6710 N   0  0  0  0  0  0  0  0  0  0  0  0
   34.4058   29.8729   47.6545 H   0  0  0  0  0  0  0  0  0  0  0  0
   34.8028   29.5867   43.4583 H   0  0  0  0  0  0  0  0  0  0  0  0
   37.3457   32.9041   48.2803 H   0  0  0  0  0  0  0  0  0  0  0  0
   36.4195   32.3983   49.6630 H   0  0  0  0  0  0  0  0  0  0  0  0
   39.3187   31.6941   48.8943 H   0  0  0  0  0  0  0  0  0  0  0  0
   38.7194   32.0890   50.5003 H   0  0  0  0  0  0  0  0  0  0  0  0
   38.9993   29.4489   49.3342 H   0  0  0  0  0  0  0  0  0  0  0  0
   38.2562   29.7946   50.8895 H   0  0  0  0  0  0  0  0  0  0  0  0
   36.7777   28.7845   48.8091 H   0  0  0  0  0  0  0  0  0  0  0  0
   34.1246   29.3023   51.2506 H   0  0  0  0  0  0  0  0  0  0  0  0
   35.9235   30.9050   50.8085 H   0  0  0  0  0  0  0  0  0  0  0  0
   37.7032   33.1103   46.5503 H   0  0  0  0  0  0  0  0  0  0  0  0
   39.9642   34.1471   46.5924 H   0  0  0  0  0  0  0  0  0  0  0  0
   41.8895   32.8771   45.7216 H   0  0  0  0  0  0  0  0  0  0  0  0
   41.6195   30.5772   44.8018 H   0  0  0  0  0  0  0  0  0  0  0  0
   39.2634   28.3873   42.7538 H   0  0  0  0  0  0  0  0  0  0  0  0
   39.1296   28.4778   45.2309 H   0  0  0  0  0  0  0  0  0  0  0  0
  1  2  2  0
  2  7  1  0
  3  2  1  0
  4  3  2  0
  5  4  1  0
  5  6  2  0
  6  1  1  0
  7  8  1  0
  7 11  1  0
  8  9  1  0
  9 10  1  0
 11 10  1  0
 11 14  1  0
 13 12  2  0
 14 12  1  0
 15  3  1  0
 15 16  2  0
 16 17  1  0
 18 17  2  0
 19 20  2  0
 19 18  1  0
 20 15  1  0
 21 23  1  0
 22 21  2  0
 23 20  1  0
  1 24  1  0
  5 25  1  0
  8 26  1  0
  8 27  1  0
  9 28  1  0
  9 29  1  0
 10 30  1  0
 10 31  1  0
 11 32  1  6
 12 33  1  0
 14 34  1  0
 16 35  1  0
 17 36  1  0
 18 37  1  0
 19 38  1  0
 21 39  1  0
 23 40  1  0
M  ISO  8  24  14  25  14  26  13  27  13  28  13  29  13  30  13  31  13
M  ISO  7  32  13  33   6  35  14  36  14  37  14  38  14  39   6
M  END
>  <minimizedAffinity>  (1) 
-5.80149031

>  <minimizedRMSD>  (1) 
0.834010363

$$$$
