
     RDKit          3D

 31 32  0  0  1  0  0  0  0  0999 V2000
   36.7830   31.1360   49.0600 C   0  0  0  0  0  0  0  0  0  0  0  0
   37.1270   32.2290   49.8560 C   0  0  0  0  0  0  0  0  0  0  0  0
   38.0500   33.1500   49.3410 C   0  0  0  0  0  0  0  0  0  0  0  0
   38.5550   32.9160   48.0860 N   0  0  0  0  0  0  0  0  0  0  0  0
   38.1950   31.8560   47.3650 C   0  0  0  0  0  0  0  0  0  0  0  0
   37.3170   30.9660   47.8370 N   0  0  0  0  0  0  0  0  0  0  0  0
   38.7760   31.7040   46.0770 N   0  0  0  0  0  0  0  0  0  0  0  0
   40.0140   30.9750   45.9270 C   0  0  0  0  0  0  0  0  0  0  0  0
   40.9740   31.6740   44.9960 C   0  0  0  0  0  0  0  0  0  0  0  0
   40.3410   32.1380   43.8020 N   0  0  0  0  0  0  0  0  0  0  0  0
   38.9710   31.7620   43.6830 C   0  0  0  0  0  0  0  0  0  0  0  0
   38.1610   32.2630   44.8730 C   0  0  1  0  0  0  0  0  0  0  0  0
   36.2140   30.6860   44.4340 C   0  0  0  0  0  0  0  0  0  0  0  0
   36.9690   29.6800   44.2050 O   0  0  0  0  0  0  0  0  0  0  0  0
   36.7830   31.9480   44.7600 N   0  0  0  0  0  0  0  0  0  0  0  0
   35.7950   30.1490   49.6100 C   0  0  0  0  0  0  0  0  0  0  0  0
   34.5200   30.7080   49.6000 F   0  0  0  0  0  0  0  0  0  0  0  0
   35.9100   28.9970   48.8890 F   0  0  0  0  0  0  0  0  0  0  0  0
   36.1280   29.9430   50.9510 F   0  0  0  0  0  0  0  0  0  0  0  0
   36.6881   32.3638   50.8556 H   0  0  0  0  0  0  0  0  0  0  0  0
   38.3593   34.0307   49.9230 H   0  0  0  0  0  0  0  0  0  0  0  0
   40.4879   30.8734   46.9145 H   0  0  0  0  0  0  0  0  0  0  0  0
   39.7781   29.9913   45.4949 H   0  0  0  0  0  0  0  0  0  0  0  0
   41.4099   32.5363   45.5217 H   0  0  0  0  0  0  0  0  0  0  0  0
   41.7447   30.9457   44.7034 H   0  0  0  0  0  0  0  0  0  0  0  0
   40.3963   33.1664   43.7857 H   0  0  0  0  0  0  0  0  0  0  0  0
   38.5584   32.1944   42.7595 H   0  0  0  0  0  0  0  0  0  0  0  0
   38.9104   30.6640   43.6555 H   0  0  0  0  0  0  0  0  0  0  0  0
   38.1845   33.3619   44.9171 H   0  0  0  0  0  0  0  0  0  0  0  0
   35.1210   30.5751   44.3787 H   0  0  0  0  0  0  0  0  0  0  0  0
   36.1212   32.7181   44.9331 H   0  0  0  0  0  0  0  0  0  0  0  0
  1 16  1  0
  1  2  2  0
  3  2  1  0
  4  3  2  0
  5  6  2  0
  5  4  1  0
  6  1  1  0
  7  5  1  0
  8  7  1  0
  9  8  1  0
 10  9  1  0
 11 10  1  0
 11 12  1  0
 12  7  1  0
 13 15  1  0
 14 13  2  0
 15 12  1  0
 16 19  1  0
 17 16  1  0
 18 16  1  0
  2 20  1  0
  3 21  1  0
  8 22  1  0
  8 23  1  0
  9 24  1  0
  9 25  1  0
 10 26  1  0
 11 27  1  0
 11 28  1  0
 12 29  1  1
 13 30  1  0
 15 31  1  0
M  ISO  8  20  14  21  14  22  13  23  13  24  13  25  13  26   5  27  13
M  ISO  3  28  13  29  13  30   6
M  END
>  <minimizedAffinity>  (1) 
-6.14236927

>  <minimizedRMSD>  (1) 
0.193855569

$$$$
