
     RDKit          3D

 27 28  0  0  0  0  0  0  0  0999 V2000
   36.5230   30.2700   49.0630 C   0  0  0  0  0  0  0  0  0  0  0  0
   37.0340   30.5720   47.7960 C   0  0  0  0  0  0  0  0  0  0  0  0
   36.0600   30.4870   46.8030 C   0  0  0  0  0  0  0  0  0  0  0  0
   34.7810   30.1480   47.0620 N   0  0  0  0  0  0  0  0  0  0  0  0
   34.3410   29.8670   48.2880 C   0  0  0  0  0  0  0  0  0  0  0  0
   35.2110   29.9270   49.2900 N   0  0  0  0  0  0  0  0  0  0  0  0
   37.4990   30.4420   50.2180 C   0  0  0  0  0  0  0  0  0  0  0  0
   37.1280   30.1820   51.5550 C   0  0  0  0  0  0  0  0  0  0  0  0
   37.7920   29.0300   50.8300 C   0  0  0  0  0  0  0  0  0  0  0  0
   38.4260   30.9110   47.5410 C   0  0  0  0  0  0  0  0  0  0  0  0
   38.8780   30.7880   46.1330 C   0  0  0  0  0  0  0  0  0  0  0  0
   41.0500   31.7500   45.3160 C   0  0  0  0  0  0  0  0  0  0  0  0
   40.4770   32.7450   44.8300 O   0  0  0  0  0  0  0  0  0  0  0  0
   40.3000   30.7410   45.9780 N   0  0  0  0  0  0  0  0  0  0  0  0
   36.3468   30.7058   45.7638 H   0  0  0  0  0  0  0  0  0  0  0  0
   33.2902   29.5939   48.4648 H   0  0  0  0  0  0  0  0  0  0  0  0
   38.0207   31.3140   49.7968 H   0  0  0  0  0  0  0  0  0  0  0  0
   37.6683   30.6863   52.3697 H   0  0  0  0  0  0  0  0  0  0  0  0
   36.1777   30.2761   52.1010 H   0  0  0  0  0  0  0  0  0  0  0  0
   37.2116   28.1486   50.5196 H   0  0  0  0  0  0  0  0  0  0  0  0
   38.6656   28.3779   50.9771 H   0  0  0  0  0  0  0  0  0  0  0  0
   38.5813   31.9539   47.8544 H   0  0  0  0  0  0  0  0  0  0  0  0
   39.0185   30.1777   48.1078 H   0  0  0  0  0  0  0  0  0  0  0  0
   38.4540   29.8637   45.7135 H   0  0  0  0  0  0  0  0  0  0  0  0
   38.5313   31.6906   45.6085 H   0  0  0  0  0  0  0  0  0  0  0  0
   42.1425   31.6528   45.2318 H   0  0  0  0  0  0  0  0  0  0  0  0
   40.8065   29.9329   46.3670 H   0  0  0  0  0  0  0  0  0  0  0  0
  1  6  1  0
  1  7  1  0
  2  1  2  0
  3  4  2  0
  3  2  1  0
  4  5  1  0
  5  6  2  0
  7  9  1  0
  7  8  1  0
  9  8  1  0
 10  2  1  0
 11 10  1  0
 12 14  1  0
 13 12  2  0
 14 11  1  0
  3 15  1  0
  5 16  1  0
  7 17  1  0
  8 18  1  0
  8 19  1  0
  9 20  1  0
  9 21  1  0
 10 22  1  0
 10 23  1  0
 11 24  1  0
 11 25  1  0
 12 26  1  0
 14 27  1  0
M  ISO  8  15  14  16  14  17  13  18  13  19  13  20  13  21  13  22   8
M  ISO  4  23   8  24   8  25   8  26   6
M  END
>  <minimizedAffinity>  (1) 
-4.68457079

>  <minimizedRMSD>  (1) 
3.97016859

$$$$
