
     RDKit          3D

 26 27  0  0  0  0  0  0  0  0999 V2000
   38.5230   32.5790   48.1680 C   0  0  0  0  0  0  0  0  0  0  0  0
   38.8540   32.4250   46.8120 C   0  0  0  0  0  0  0  0  0  0  0  0
   38.1480   31.4570   46.0660 C   0  0  0  0  0  0  0  0  0  0  0  0
   37.1850   30.7250   46.6960 N   0  0  0  0  0  0  0  0  0  0  0  0
   36.9040   30.9080   47.9940 C   0  0  0  0  0  0  0  0  0  0  0  0
   37.5510   31.8130   48.7280 N   0  0  0  0  0  0  0  0  0  0  0  0
   35.8730   30.0970   48.5900 N   0  0  0  0  0  0  0  0  0  0  0  0
   34.4890   30.1120   48.1270 C   0  0  0  0  0  0  0  0  0  0  0  0
   33.8460   28.9540   48.7940 C   0  0  0  0  0  0  0  0  0  0  0  0
   34.9530   28.2070   49.5120 C   0  0  0  0  0  0  0  0  0  0  0  0
   36.0510   29.1820   49.6970 C   0  0  0  0  0  0  0  0  0  0  0  0
   40.0990   33.6150   44.9230 C   0  0  0  0  0  0  0  0  0  0  0  0
   39.3590   33.2450   43.9750 O   0  0  0  0  0  0  0  0  0  0  0  0
   39.8720   33.2380   46.2540 N   0  0  0  0  0  0  0  0  0  0  0  0
   39.0535   33.3236   48.7797 H   0  0  0  0  0  0  0  0  0  0  0  0
   38.3695   31.2966   45.0005 H   0  0  0  0  0  0  0  0  0  0  0  0
   33.9941   31.0498   48.4194 H   0  0  0  0  0  0  0  0  0  0  0  0
   34.4203   30.0468   47.0311 H   0  0  0  0  0  0  0  0  0  0  0  0
   33.0910   29.3008   49.5149 H   0  0  0  0  0  0  0  0  0  0  0  0
   33.3344   28.3071   48.0661 H   0  0  0  0  0  0  0  0  0  0  0  0
   34.5977   27.8422   50.4870 H   0  0  0  0  0  0  0  0  0  0  0  0
   35.2858   27.3304   48.9369 H   0  0  0  0  0  0  0  0  0  0  0  0
   37.0315   28.6861   49.6447 H   0  0  0  0  0  0  0  0  0  0  0  0
   36.0233   29.6810   50.6769 H   0  0  0  0  0  0  0  0  0  0  0  0
   40.9601   34.2614   44.6979 H   0  0  0  0  0  0  0  0  0  0  0  0
   40.5515   33.6102   46.9327 H   0  0  0  0  0  0  0  0  0  0  0  0
  1  6  2  0
  2  1  1  0
  3  4  1  0
  3  2  2  0
  4  5  2  0
  5  7  1  0
  5  6  1  0
  7 11  1  0
  8  7  1  0
  8  9  1  0
  9 10  1  0
 10 11  1  0
 12 14  1  0
 13 12  2  0
 14  2  1  0
  1 15  1  0
  3 16  1  0
  8 17  1  0
  8 18  1  0
  9 19  1  0
  9 20  1  0
 10 21  1  0
 10 22  1  0
 11 23  1  0
 11 24  1  0
 12 25  1  0
 14 26  1  0
M  ISO  8  15  14  16  14  17  13  18  13  19  13  20  13  21  13  22  13
M  ISO  3  23  13  24  13  25   6
M  END
>  <minimizedAffinity>  (1) 
-4.94753504

>  <minimizedRMSD>  (1) 
1.42090285

$$$$
