
     RDKit          3D

 30 31  0  0  0  0  0  0  0  0999 V2000
   38.5020   32.4600   46.9210 C   0  0  0  0  0  0  0  0  0  0  0  0
   38.0400   32.6320   48.2090 C   0  0  0  0  0  0  0  0  0  0  0  0
   38.6880   33.4890   49.0900 C   0  0  0  0  0  0  0  0  0  0  0  0
   39.8100   34.1780   48.6750 C   0  0  0  0  0  0  0  0  0  0  0  0
   40.2830   34.0060   47.3640 C   0  0  0  0  0  0  0  0  0  0  0  0
   39.6150   33.1400   46.4980 C   0  0  0  0  0  0  0  0  0  0  0  0
   40.9460   31.8450   44.8720 C   0  0  0  0  0  0  0  0  0  0  0  0
   41.3130   31.1130   45.8240 O   0  0  0  0  0  0  0  0  0  0  0  0
   40.0530   32.9300   45.1600 N   0  0  0  0  0  0  0  0  0  0  0  0
   37.2140   30.8290   45.4080 N   0  0  0  0  0  0  0  0  0  0  0  0
   37.7860   31.5570   46.0960 C   0  0  0  0  0  0  0  0  0  0  0  0
   36.9400   32.0230   48.7770 O   0  0  0  0  0  0  0  0  0  0  0  0
   37.0060   31.0280   49.7100 C   0  0  0  0  0  0  0  0  0  0  0  0
   36.4040   29.8560   49.2660 C   0  0  0  0  0  0  0  0  0  0  0  0
   36.3660   28.7380   50.0590 C   0  0  0  0  0  0  0  0  0  0  0  0
   36.9490   28.8280   51.3030 N   0  0  0  0  0  0  0  0  0  0  0  0
   37.5300   29.9650   51.7240 C   0  0  0  0  0  0  0  0  0  0  0  0
   37.5540   31.0350   50.9410 N   0  0  0  0  0  0  0  0  0  0  0  0
   34.4940   29.1430   47.9210 C   0  0  0  0  0  0  0  0  0  0  0  0
   33.5770   28.8070   48.7770 O   0  0  0  0  0  0  0  0  0  0  0  0
   35.7970   29.7020   48.0160 N   0  0  0  0  0  0  0  0  0  0  0  0
   38.3084   33.6180   50.1143 H   0  0  0  0  0  0  0  0  0  0  0  0
   40.3300   34.8572   49.3666 H   0  0  0  0  0  0  0  0  0  0  0  0
   41.1751   34.5510   47.0219 H   0  0  0  0  0  0  0  0  0  0  0  0
   41.2991   31.6596   43.8468 H   0  0  0  0  0  0  0  0  0  0  0  0
   39.7313   33.5521   44.4047 H   0  0  0  0  0  0  0  0  0  0  0  0
   35.8895   27.8079   49.7155 H   0  0  0  0  0  0  0  0  0  0  0  0
   37.9879   30.0079   52.7233 H   0  0  0  0  0  0  0  0  0  0  0  0
   34.1920   28.9501   46.8810 H   0  0  0  0  0  0  0  0  0  0  0  0
   36.2949   29.9941   47.1629 H   0  0  0  0  0  0  0  0  0  0  0  0
  1  2  2  0
  2 12  1  0
  2  3  1  0
  4  3  2  0
  5  4  1  0
  6  1  1  0
  6  5  2  0
  7  9  1  0
  7  8  2  0
  9  6  1  0
 10 11  3  0
 11  1  1  0
 12 13  1  0
 13 18  1  0
 14 13  2  0
 14 15  1  0
 15 16  2  0
 16 17  1  0
 18 17  2  0
 19 21  1  0
 19 20  2  0
 21 14  1  0
  3 22  1  0
  4 23  1  0
  5 24  1  0
  7 25  1  0
  9 26  1  0
 15 27  1  0
 17 28  1  0
 19 29  1  0
 21 30  1  0
M  ISO  7  22  14  23  14  24  14  25   6  27  14  28  14  29   6
M  END
>  <minimizedAffinity>  (1) 
-4.9006238

>  <minimizedRMSD>  (1) 
0.920302212

$$$$
