
     RDKit          3D

 24 25  0  0  0  0  0  0  0  0999 V2000
   35.6390   29.3370   49.8230 C   0  0  0  0  0  0  0  0  0  0  0  0
   35.7500   30.2910   48.7890 C   0  0  0  0  0  0  0  0  0  0  0  0
   34.9100   30.1580   47.6820 C   0  0  0  0  0  0  0  0  0  0  0  0
   34.0320   29.1210   47.6580 N   0  0  0  0  0  0  0  0  0  0  0  0
   33.9440   28.2290   48.6470 C   0  0  0  0  0  0  0  0  0  0  0  0
   34.7470   28.3240   49.7470 N   0  0  0  0  0  0  0  0  0  0  0  0
   37.6440   30.0560   51.3530 C   0  0  0  0  0  0  0  0  0  0  0  0
   38.2130   30.8330   50.5440 O   0  0  0  0  0  0  0  0  0  0  0  0
   36.4330   29.3570   51.0030 N   0  0  0  0  0  0  0  0  0  0  0  0
   36.7160   31.3270   48.9510 N   0  0  0  0  0  0  0  0  0  0  0  0
   36.5480   32.3330   49.8190 C   0  0  0  0  0  0  0  0  0  0  0  0
   37.5260   33.3220   49.9360 C   0  0  0  0  0  0  0  0  0  0  0  0
   38.6080   33.1490   49.1120 C   0  0  0  0  0  0  0  0  0  0  0  0
   39.4990   34.0510   49.2220 O   0  0  0  0  0  0  0  0  0  0  0  0
   38.8110   32.1610   48.2340 N   0  0  0  0  0  0  0  0  0  0  0  0
   37.8250   31.2370   48.1700 C   0  0  0  0  0  0  0  0  0  0  0  0
   37.9950   30.2870   47.3440 O   0  0  0  0  0  0  0  0  0  0  0  0
   34.9576   30.8752   46.8493 H   0  0  0  0  0  0  0  0  0  0  0  0
   33.2159   27.4076   48.5749 H   0  0  0  0  0  0  0  0  0  0  0  0
   38.0809   29.9063   52.3513 H   0  0  0  0  0  0  0  0  0  0  0  0
   36.0715   28.7533   51.7552 H   0  0  0  0  0  0  0  0  0  0  0  0
   35.6405   32.3798   50.4389 H   0  0  0  0  0  0  0  0  0  0  0  0
   37.4361   34.1696   50.6314 H   0  0  0  0  0  0  0  0  0  0  0  0
   39.6569   32.1074   47.6488 H   0  0  0  0  0  0  0  0  0  0  0  0
  1  9  1  0
  2 10  1  0
  2  1  2  0
  3  2  1  0
  4  3  2  0
  4  5  1  0
  5  6  2  0
  6  1  1  0
  8  7  2  0
  9  7  1  0
 10 11  1  0
 11 12  2  0
 13 14  2  0
 13 12  1  0
 15 13  1  0
 16 15  1  0
 16 10  1  0
 17 16  2  0
  3 18  1  0
  5 19  1  0
  7 20  1  0
  9 21  1  0
 11 22  1  0
 12 23  1  0
 15 24  1  0
M  ISO  6  18  14  19  14  20   6  22  14  23  14  24   9
M  END
>  <minimizedAffinity>  (1) 
-5.61414433

>  <minimizedRMSD>  (1) 
0.815033317

$$$$
