
     RDKit          3D

 37 40  0  0  0  0  0  0  0  0999 V2000
   38.3980   32.9740   49.4600 C   0  0  0  0  0  0  0  0  0  0  0  0
   38.9020   32.9300   48.1720 C   0  0  0  0  0  0  0  0  0  0  0  0
   38.7380   31.7790   47.4220 C   0  0  0  0  0  0  0  0  0  0  0  0
   38.0790   30.7110   47.9740 N   0  0  0  0  0  0  0  0  0  0  0  0
   37.5970   30.7890   49.2420 C   0  0  0  0  0  0  0  0  0  0  0  0
   37.7580   31.9110   49.9700 N   0  0  0  0  0  0  0  0  0  0  0  0
   39.6280   32.7720   45.3890 C   0  0  0  0  0  0  0  0  0  0  0  0
   39.2200   31.6140   46.0590 C   0  0  0  0  0  0  0  0  0  0  0  0
   39.2820   30.3730   45.4380 C   0  0  0  0  0  0  0  0  0  0  0  0
   39.7640   30.3400   44.1330 C   0  0  0  0  0  0  0  0  0  0  0  0
   39.9170   29.2670   43.3310 N   0  0  0  0  0  0  0  0  0  0  0  0
   40.4140   29.7320   42.1660 C   0  0  0  0  0  0  0  0  0  0  0  0
   40.5730   31.0530   42.2240 N   0  0  0  0  0  0  0  0  0  0  0  0
   40.1770   31.4700   43.4370 C   0  0  0  0  0  0  0  0  0  0  0  0
   40.1060   32.7000   44.0790 C   0  0  0  0  0  0  0  0  0  0  0  0
   36.9010   29.6120   49.7790 C   0  0  0  0  0  0  0  0  0  0  0  0
   37.4960   28.8930   50.6430 O   0  0  0  0  0  0  0  0  0  0  0  0
   35.5870   29.4070   49.2460 N   0  0  0  0  0  0  0  0  0  0  0  0
   34.8180   30.1570   48.2670 C   0  0  0  0  0  0  0  0  0  0  0  0
   34.1050   29.1280   47.4220 C   0  0  0  0  0  0  0  0  0  0  0  0
   33.9710   27.9320   48.3370 C   0  0  0  0  0  0  0  0  0  0  0  0
   34.6830   28.3080   49.6130 C   0  0  0  0  0  0  0  0  0  0  0  0
   38.5224   33.8828   50.0671 H   0  0  0  0  0  0  0  0  0  0  0  0
   39.4267   33.7996   47.7496 H   0  0  0  0  0  0  0  0  0  0  0  0
   39.5719   33.7458   45.8974 H   0  0  0  0  0  0  0  0  0  0  0  0
   38.9638   29.4559   45.9555 H   0  0  0  0  0  0  0  0  0  0  0  0
   39.6981   28.2873   43.5618 H   0  0  0  0  0  0  0  0  0  0  0  0
   40.6539   29.1084   41.2922 H   0  0  0  0  0  0  0  0  0  0  0  0
   40.4253   33.6141   43.5571 H   0  0  0  0  0  0  0  0  0  0  0  0
   34.0895   30.8090   48.7711 H   0  0  0  0  0  0  0  0  0  0  0  0
   35.4648   30.8031   47.6553 H   0  0  0  0  0  0  0  0  0  0  0  0
   33.1158   29.4950   47.1110 H   0  0  0  0  0  0  0  0  0  0  0  0
   34.6475   28.8926   46.4945 H   0  0  0  0  0  0  0  0  0  0  0  0
   32.9104   27.7207   48.5383 H   0  0  0  0  0  0  0  0  0  0  0  0
   34.4019   27.0265   47.8850 H   0  0  0  0  0  0  0  0  0  0  0  0
   35.2551   27.4523   50.0010 H   0  0  0  0  0  0  0  0  0  0  0  0
   33.9775   28.6050   50.4029 H   0  0  0  0  0  0  0  0  0  0  0  0
  1  6  2  0
  2  1  1  0
  3  4  1  0
  3  2  2  0
  4  5  2  0
  5 16  1  0
  5  6  1  0
  7  8  2  0
  8  3  1  0
  9  8  1  0
 10  9  2  0
 11 10  1  0
 12 13  2  0
 12 11  1  0
 13 14  1  0
 14 15  2  0
 14 10  1  0
 15  7  1  0
 16 17  2  0
 18 22  1  0
 18 16  1  0
 19 18  1  0
 20 19  1  0
 20 21  1  0
 21 22  1  0
  1 23  1  0
  2 24  1  0
  7 25  1  0
  9 26  1  0
 11 27  1  0
 12 28  1  0
 15 29  1  0
 19 30  1  0
 19 31  1  0
 20 32  1  0
 20 33  1  0
 21 34  1  0
 21 35  1  0
 22 36  1  0
 22 37  1  0
M  ISO  8  23  14  24  14  25  14  26  14  27   9  28  14  29  14  30  13
M  ISO  7  31  13  32  13  33  13  34  13  35  13  36  13  37  13
M  END
>  <minimizedAffinity>  (1) 
-7.07616997

>  <minimizedRMSD>  (1) 
3.44209838

$$$$
