
     RDKit          3D

 36 38  0  0  1  0  0  0  0  0999 V2000
   37.4260   30.9450   48.4610 N   0  0  0  0  0  0  0  0  0  0  0  0
   37.8480   31.8210   47.3900 C   0  0  1  0  0  0  0  0  0  0  0  0
   38.6350   32.8720   48.1760 C   0  0  0  0  0  0  0  0  0  0  0  0
   38.4320   32.5640   49.6490 C   0  0  0  0  0  0  0  0  0  0  0  0
   38.3680   31.0470   49.5560 C   0  0  0  0  0  0  0  0  0  0  0  0
   36.2640   30.1210   48.4210 C   0  0  0  0  0  0  0  0  0  0  0  0
   35.2780   30.3880   47.4920 C   0  0  0  0  0  0  0  0  0  0  0  0
   34.1380   29.6060   47.3950 C   0  0  0  0  0  0  0  0  0  0  0  0
   34.0610   28.5610   48.2770 N   0  0  0  0  0  0  0  0  0  0  0  0
   35.0300   28.3040   49.1850 C   0  0  0  0  0  0  0  0  0  0  0  0
   36.1500   29.0900   49.2640 N   0  0  0  0  0  0  0  0  0  0  0  0
   38.6410   31.1500   46.3520 C   0  0  0  0  0  0  0  0  0  0  0  0
   39.8740   31.1960   46.6150 O   0  0  0  0  0  0  0  0  0  0  0  0
   38.2600   30.4740   45.1250 N   0  0  0  0  0  0  0  0  0  0  0  0
   38.7690   29.4040   44.2880 C   0  0  0  0  0  0  0  0  0  0  0  0
   38.1730   29.5110   42.9290 C   0  0  0  0  0  0  0  0  0  0  0  0
   37.3700   30.7650   42.9610 C   0  0  0  0  0  0  0  0  0  0  0  0
   37.0240   30.8850   44.4310 C   0  0  0  0  0  0  0  0  0  0  0  0
   37.0183   32.2298   46.7946 H   0  0  0  0  0  0  0  0  0  0  0  0
   39.7034   32.8135   47.9210 H   0  0  0  0  0  0  0  0  0  0  0  0
   38.2869   33.8871   47.9342 H   0  0  0  0  0  0  0  0  0  0  0  0
   39.2773   32.9061   50.2642 H   0  0  0  0  0  0  0  0  0  0  0  0
   37.5669   33.0502   50.1237 H   0  0  0  0  0  0  0  0  0  0  0  0
   37.9828   30.5900   50.4794 H   0  0  0  0  0  0  0  0  0  0  0  0
   39.3301   30.5338   49.4111 H   0  0  0  0  0  0  0  0  0  0  0  0
   35.4005   31.2434   46.8114 H   0  0  0  0  0  0  0  0  0  0  0  0
   33.3472   29.8110   46.6583 H   0  0  0  0  0  0  0  0  0  0  0  0
   34.9174   27.4511   49.8705 H   0  0  0  0  0  0  0  0  0  0  0  0
   39.8637   29.4843   44.2156 H   0  0  0  0  0  0  0  0  0  0  0  0
   38.5009   28.4333   44.7305 H   0  0  0  0  0  0  0  0  0  0  0  0
   37.5290   28.6442   42.7194 H   0  0  0  0  0  0  0  0  0  0  0  0
   38.9398   29.5300   42.1406 H   0  0  0  0  0  0  0  0  0  0  0  0
   37.9620   31.6267   42.6188 H   0  0  0  0  0  0  0  0  0  0  0  0
   36.4907   30.7437   42.3004 H   0  0  0  0  0  0  0  0  0  0  0  0
   36.7586   31.9214   44.6866 H   0  0  0  0  0  0  0  0  0  0  0  0
   36.1565   30.2700   44.7127 H   0  0  0  0  0  0  0  0  0  0  0  0
  1  5  1  0
  2  3  1  0
  2  1  1  0
  3  4  1  0
  5  4  1  0
  6  1  1  0
  6 11  1  0
  7  6  2  0
  8  7  1  0
  8  9  2  0
  9 10  1  0
 10 11  2  0
 12 13  2  0
 12  2  1  0
 14 12  1  0
 15 14  1  0
 16 17  1  0
 16 15  1  0
 17 18  1  0
 18 14  1  0
  2 19  1  6
  3 20  1  0
  3 21  1  0
  4 22  1  0
  4 23  1  0
  5 24  1  0
  5 25  1  0
  7 26  1  0
  8 27  1  0
 10 28  1  0
 15 29  1  0
 15 30  1  0
 16 31  1  0
 16 32  1  0
 17 33  1  0
 17 34  1  0
 18 35  1  0
 18 36  1  0
M  ISO  8  19  13  20  13  21  13  22  13  23  13  24  13  25  13  26  14
M  ISO  8  27  14  28  14  29  13  30  13  31  13  32  13  33  13  34  13
M  ISO  2  35  13  36  13
M  END
>  <minimizedAffinity>  (1) 
-5.01518917

>  <minimizedRMSD>  (1) 
1.89292395

$$$$
