
     RDKit          3D

 48 51  0  0  1  0  0  0  0  0999 V2000
   37.1360   29.2820   50.4590 C   0  0  0  0  0  0  0  0  0  0  0  0
   37.2540   30.6690   50.7380 C   0  0  0  0  0  0  0  0  0  0  0  0
   36.4980   31.5430   49.9560 C   0  0  0  0  0  0  0  0  0  0  0  0
   35.7040   31.0120   48.9850 N   0  0  0  0  0  0  0  0  0  0  0  0
   35.6230   29.6850   48.7540 C   0  0  0  0  0  0  0  0  0  0  0  0
   36.3340   28.8300   49.4860 N   0  0  0  0  0  0  0  0  0  0  0  0
   34.7750   29.2270   47.7310 N   0  0  0  0  0  0  0  0  0  0  0  0
   34.1510   27.8950   47.7780 C   0  0  0  0  0  0  0  0  0  0  0  0
   32.6750   28.0270   47.6290 C   0  0  0  0  0  0  0  0  0  0  0  0
   32.2120   29.3030   47.2550 N   0  0  0  0  0  0  0  0  0  0  0  0
   33.0210   29.9910   46.3010 C   0  0  0  0  0  0  0  0  0  0  0  0
   34.4550   30.0150   46.5730 C   0  0  2  0  0  0  0  0  0  0  0  0
   35.1840   29.5150   45.4480 N   0  0  0  0  0  0  0  0  0  0  0  0
   36.4310   30.2250   45.1980 C   0  0  0  0  0  0  0  0  0  0  0  0
   36.7140   30.0630   43.7190 C   0  0  0  0  0  0  0  0  0  0  0  0
   35.5990   29.2490   43.2160 C   0  0  0  0  0  0  0  0  0  0  0  0
   34.4660   29.4780   44.2320 C   0  0  2  0  0  0  0  0  0  0  0  0
   33.7940   30.6070   43.7900 N   0  0  0  0  0  0  0  0  0  0  0  0
   32.6300   30.3170   42.9770 C   0  0  0  0  0  0  0  0  0  0  0  0
   31.8950   31.6520   43.2030 C   0  0  0  0  0  0  0  0  0  0  0  0
   33.0860   32.6210   43.1540 C   0  0  0  0  0  0  0  0  0  0  0  0
   34.3200   31.6850   43.1130 C   0  0  0  0  0  0  0  0  0  0  0  0
   37.7162   28.5624   51.0552 H   0  0  0  0  0  0  0  0  0  0  0  0
   37.9135   31.0390   51.5368 H   0  0  0  0  0  0  0  0  0  0  0  0
   36.5420   32.6300   50.1191 H   0  0  0  0  0  0  0  0  0  0  0  0
   34.5473   27.2764   46.9593 H   0  0  0  0  0  0  0  0  0  0  0  0
   34.3788   27.4197   48.7435 H   0  0  0  0  0  0  0  0  0  0  0  0
   32.3470   27.3100   46.8620 H   0  0  0  0  0  0  0  0  0  0  0  0
   32.2540   27.8352   48.6270 H   0  0  0  0  0  0  0  0  0  0  0  0
   31.2697   29.1944   46.8535 H   0  0  0  0  0  0  0  0  0  0  0  0
   32.6707   31.0326   46.2523 H   0  0  0  0  0  0  0  0  0  0  0  0
   32.9081   29.4321   45.3603 H   0  0  0  0  0  0  0  0  0  0  0  0
   34.7408   31.0600   46.7635 H   0  0  0  0  0  0  0  0  0  0  0  0
   36.3222   31.2897   45.4520 H   0  0  0  0  0  0  0  0  0  0  0  0
   37.2521   29.8257   45.8115 H   0  0  0  0  0  0  0  0  0  0  0  0
   36.7369   31.0422   43.2183 H   0  0  0  0  0  0  0  0  0  0  0  0
   37.6912   29.5948   43.5298 H   0  0  0  0  0  0  0  0  0  0  0  0
   35.2952   29.5831   42.2129 H   0  0  0  0  0  0  0  0  0  0  0  0
   35.8667   28.1864   43.1203 H   0  0  0  0  0  0  0  0  0  0  0  0
   33.6580   28.7422   44.3578 H   0  0  0  0  0  0  0  0  0  0  0  0
   32.8868   30.1533   41.9200 H   0  0  0  0  0  0  0  0  0  0  0  0
   32.0726   29.4028   43.2292 H   0  0  0  0  0  0  0  0  0  0  0  0
   31.1673   31.8582   42.4042 H   0  0  0  0  0  0  0  0  0  0  0  0
   31.2941   31.7011   44.1231 H   0  0  0  0  0  0  0  0  0  0  0  0
   33.0419   33.2515   42.2537 H   0  0  0  0  0  0  0  0  0  0  0  0
   33.1059   33.3153   44.0070 H   0  0  0  0  0  0  0  0  0  0  0  0
   34.6071   31.4255   42.0833 H   0  0  0  0  0  0  0  0  0  0  0  0
   35.2458   32.1032   43.5349 H   0  0  0  0  0  0  0  0  0  0  0  0
  1  2  2  0
  3  2  1  0
  4  3  2  0
  5  4  1  0
  5  6  2  0
  6  1  1  0
  7  8  1  0
  7  5  1  0
  9  8  1  0
 10  9  1  0
 11 12  1  0
 11 10  1  0
 12  7  1  0
 13 14  1  0
 13 12  1  0
 15 14  1  0
 16 15  1  0
 16 17  1  0
 17 13  1  0
 18 19  1  0
 18 17  1  0
 19 20  1  0
 21 20  1  0
 22 21  1  0
 22 18  1  0
  1 23  1  0
  2 24  1  0
  3 25  1  0
  8 26  1  0
  8 27  1  0
  9 28  1  0
  9 29  1  0
 10 30  1  0
 11 31  1  0
 11 32  1  0
 12 33  1  1
 14 34  1  0
 14 35  1  0
 15 36  1  0
 15 37  1  0
 16 38  1  0
 16 39  1  0
 17 40  1  1
 19 41  1  0
 19 42  1  0
 20 43  1  0
 20 44  1  0
 21 45  1  0
 21 46  1  0
 22 47  1  0
 22 48  1  0
M  ISO  8  23  14  24  14  25  14  26  13  27  13  28  13  29  13  30   5
M  ISO  8  31  13  32  13  33  13  34  13  35  13  36  13  37  13  38  13
M  ISO  8  39  13  40  13  41  13  42  13  43  13  44  13  45  13  46  13
M  ISO  2  47  13  48  13
M  END
>  <minimizedAffinity>  (1) 
-4.76713848

>  <minimizedRMSD>  (1) 
0.2246387

$$$$
