
     RDKit          3D

 40 43  0  0  0  0  0  0  0  0999 V2000
   37.4080   29.1690   50.8080 Br  0  0  0  0  0  0  0  0  0  0  0  0
   35.9980   29.2730   49.5240 C   0  0  0  0  0  0  0  0  0  0  0  0
   35.9940   30.2810   48.5590 C   0  0  0  0  0  0  0  0  0  0  0  0
   34.9420   30.2890   47.6670 C   0  0  0  0  0  0  0  0  0  0  0  0
   33.9120   29.3630   47.6850 C   0  0  0  0  0  0  0  0  0  0  0  0
   33.9500   28.3940   48.6420 C   0  0  0  0  0  0  0  0  0  0  0  0
   34.9900   28.3610   49.5470 C   0  0  0  0  0  0  0  0  0  0  0  0
   32.8140   29.3910   46.7350 C   0  0  0  0  0  0  0  0  0  0  0  0
   32.0570   28.2830   46.3880 C   0  0  0  0  0  0  0  0  0  0  0  0
   31.0140   28.3380   45.4780 C   0  0  0  0  0  0  0  0  0  0  0  0
   30.7190   29.5060   44.9050 N   0  0  0  0  0  0  0  0  0  0  0  0
   31.4470   30.6010   45.2300 C   0  0  0  0  0  0  0  0  0  0  0  0
   32.4410   30.5100   46.1090 N   0  0  0  0  0  0  0  0  0  0  0  0
   31.1260   31.8440   44.6160 N   0  0  0  0  0  0  0  0  0  0  0  0
   29.7820   32.2370   44.1670 C   0  0  0  0  0  0  0  0  0  0  0  0
   30.0200   33.3780   43.1920 C   0  0  0  0  0  0  0  0  0  0  0  0
   31.1820   34.0770   43.9090 C   0  0  0  0  0  0  0  0  0  0  0  0
   32.0380   32.9310   44.3200 C   0  0  0  0  0  0  0  0  0  0  0  0
   38.0060   33.1790   49.4620 C   0  0  0  0  0  0  0  0  0  0  0  0
   39.0360   33.1790   48.4630 C   0  0  0  0  0  0  0  0  0  0  0  0
   39.0140   32.1770   47.5000 C   0  0  0  0  0  0  0  0  0  0  0  0
   38.0150   31.2420   47.5460 N   0  0  0  0  0  0  0  0  0  0  0  0
   37.0530   31.2700   48.5060 C   0  0  0  0  0  0  0  0  0  0  0  0
   37.0520   32.2400   49.4620 N   0  0  0  0  0  0  0  0  0  0  0  0
   34.9197   31.0751   46.8979 H   0  0  0  0  0  0  0  0  0  0  0  0
   33.1519   27.6387   48.6927 H   0  0  0  0  0  0  0  0  0  0  0  0
   35.0045   27.5711   50.3124 H   0  0  0  0  0  0  0  0  0  0  0  0
   32.2951   27.3166   46.8563 H   0  0  0  0  0  0  0  0  0  0  0  0
   30.4385   27.4334   45.2319 H   0  0  0  0  0  0  0  0  0  0  0  0
   29.2792   31.3968   43.6657 H   0  0  0  0  0  0  0  0  0  0  0  0
   29.1332   32.5333   45.0044 H   0  0  0  0  0  0  0  0  0  0  0  0
   29.1400   34.0316   43.1010 H   0  0  0  0  0  0  0  0  0  0  0  0
   30.2214   33.0755   42.1538 H   0  0  0  0  0  0  0  0  0  0  0  0
   31.7210   34.7527   43.2286 H   0  0  0  0  0  0  0  0  0  0  0  0
   30.8629   34.7113   44.7491 H   0  0  0  0  0  0  0  0  0  0  0  0
   32.7184   32.6486   43.5031 H   0  0  0  0  0  0  0  0  0  0  0  0
   32.6631   33.1835   45.1892 H   0  0  0  0  0  0  0  0  0  0  0  0
   38.0003   33.9597   50.2369 H   0  0  0  0  0  0  0  0  0  0  0  0
   39.8206   33.9500   48.4594 H   0  0  0  0  0  0  0  0  0  0  0  0
   39.7845   32.1360   46.7160 H   0  0  0  0  0  0  0  0  0  0  0  0
  2  7  2  0
  2  1  1  0
  3  2  1  0
  4  5  1  0
  4  3  2  0
  5  6  2  0
  6  7  1  0
  8  5  1  0
  9  8  2  0
 10  9  1  0
 11 12  1  0
 11 10  2  0
 12 13  2  0
 13  8  1  0
 14 12  1  0
 15 14  1  0
 16 17  1  0
 16 15  1  0
 17 18  1  0
 18 14  1  0
 20 19  2  0
 21 22  2  0
 21 20  1  0
 22 23  1  0
 23  3  1  0
 23 24  2  0
 24 19  1  0
  4 25  1  0
  6 26  1  0
  7 27  1  0
  9 28  1  0
 10 29  1  0
 15 30  1  0
 15 31  1  0
 16 32  1  0
 16 33  1  0
 17 34  1  0
 17 35  1  0
 18 36  1  0
 18 37  1  0
 19 38  1  0
 20 39  1  0
 21 40  1  0
M  ISO  8  25  14  26  14  27  14  28  14  29  14  30  13  31  13  32  13
M  ISO  8  33  13  34  13  35  13  36  13  37  13  38  14  39  14  40  14
M  END
>  <minimizedAffinity>  (1) 
-6.71500492

>  <minimizedRMSD>  (1) 
0.241968811

$$$$
