
     RDKit          3D

 32 34  0  0  0  0  0  0  0  0999 V2000
   38.3110   31.1620   48.2060 Br  0  0  0  0  0  0  0  0  0  0  0  0
   37.1020   30.6740   46.8150 C   0  0  0  0  0  0  0  0  0  0  0  0
   35.8920   30.0810   47.1100 C   0  0  0  0  0  0  0  0  0  0  0  0
   35.0650   29.7520   46.0680 C   0  0  0  0  0  0  0  0  0  0  0  0
   35.4420   30.0100   44.7620 C   0  0  0  0  0  0  0  0  0  0  0  0
   36.6570   30.6050   44.4540 C   0  0  0  0  0  0  0  0  0  0  0  0
   37.4840   30.9330   45.5110 C   0  0  0  0  0  0  0  0  0  0  0  0
   36.1830   29.0050   50.7370 C   0  0  0  0  0  0  0  0  0  0  0  0
   36.4750   29.2220   49.3860 C   0  0  0  0  0  0  0  0  0  0  0  0
   35.5900   29.8530   48.5210 C   0  0  0  0  0  0  0  0  0  0  0  0
   34.4230   30.2450   49.0760 N   0  0  0  0  0  0  0  0  0  0  0  0
   34.1280   30.0450   50.3720 C   0  0  0  0  0  0  0  0  0  0  0  0
   35.0020   29.4300   51.1920 N   0  0  0  0  0  0  0  0  0  0  0  0
   38.7450   31.5480   45.2430 N   0  0  0  0  0  0  0  0  0  0  0  0
   40.1120   31.0680   45.3240 C   0  0  0  0  0  0  0  0  0  0  0  0
   40.9030   32.3560   45.2660 C   0  0  0  0  0  0  0  0  0  0  0  0
   40.1220   33.1040   44.1950 C   0  0  0  0  0  0  0  0  0  0  0  0
   38.7210   32.9450   44.7930 C   0  0  0  0  0  0  0  0  0  0  0  0
   34.0931   29.2787   46.2716 H   0  0  0  0  0  0  0  0  0  0  0  0
   34.7590   29.7356   43.9446 H   0  0  0  0  0  0  0  0  0  0  0  0
   36.9493   30.8069   43.4129 H   0  0  0  0  0  0  0  0  0  0  0  0
   36.9013   28.5019   51.4010 H   0  0  0  0  0  0  0  0  0  0  0  0
   37.4437   28.8794   48.9933 H   0  0  0  0  0  0  0  0  0  0  0  0
   33.1607   30.3878   50.7680 H   0  0  0  0  0  0  0  0  0  0  0  0
   40.2916   30.5311   46.2671 H   0  0  0  0  0  0  0  0  0  0  0  0
   40.3768   30.3496   44.5342 H   0  0  0  0  0  0  0  0  0  0  0  0
   40.8863   32.8880   46.2286 H   0  0  0  0  0  0  0  0  0  0  0  0
   41.9746   32.2300   45.0521 H   0  0  0  0  0  0  0  0  0  0  0  0
   40.2090   32.6269   43.2077 H   0  0  0  0  0  0  0  0  0  0  0  0
   40.4456   34.1366   43.9977 H   0  0  0  0  0  0  0  0  0  0  0  0
   38.5642   33.6348   45.6354 H   0  0  0  0  0  0  0  0  0  0  0  0
   37.9070   33.1730   44.0891 H   0  0  0  0  0  0  0  0  0  0  0  0
  2  3  2  0
  2  1  1  0
  3 10  1  0
  4  3  1  0
  5  4  2  0
  6  5  1  0
  6  7  2  0
  7  2  1  0
  8 13  2  0
  9  8  1  0
 10 11  1  0
 10  9  2  0
 11 12  2  0
 12 13  1  0
 14 15  1  0
 14  7  1  0
 16 15  1  0
 17 18  1  0
 17 16  1  0
 18 14  1  0
  4 19  1  0
  5 20  1  0
  6 21  1  0
  8 22  1  0
  9 23  1  0
 12 24  1  0
 15 25  1  0
 15 26  1  0
 16 27  1  0
 16 28  1  0
 17 29  1  0
 17 30  1  0
 18 31  1  0
 18 32  1  0
M  ISO  8  19  14  20  14  21  14  22  14  23  14  24  14  25  13  26  13
M  ISO  6  27  13  28  13  29  13  30  13  31  13  32  13
M  END
>  <minimizedAffinity>  (1) 
-4.89934254

>  <minimizedRMSD>  (1) 
3.20714116

$$$$
