
     RDKit          3D

 34 36  0  0  1  0  0  0  0  0999 V2000
   37.0410   31.3970   49.2260 C   0  0  0  0  0  0  0  0  0  0  0  0
   37.3850   32.5220   49.9680 C   0  0  0  0  0  0  0  0  0  0  0  0
   38.2960   33.3740   49.3470 C   0  0  0  0  0  0  0  0  0  0  0  0
   38.7970   33.0960   48.0990 N   0  0  0  0  0  0  0  0  0  0  0  0
   38.4280   31.9800   47.4140 C   0  0  0  0  0  0  0  0  0  0  0  0
   37.5340   31.1230   47.9970 N   0  0  0  0  0  0  0  0  0  0  0  0
   38.9820   31.7460   46.1260 N   0  0  0  0  0  0  0  0  0  0  0  0
   38.3370   32.2500   44.9290 C   0  0  0  0  0  0  0  0  0  0  0  0
   39.1640   31.6300   43.7990 C   0  0  0  0  0  0  0  0  0  0  0  0
   40.5350   31.6060   44.4440 C   0  0  0  0  0  0  0  0  0  0  0  0
   40.1890   31.0210   45.8130 C   0  0  0  0  0  0  0  0  0  0  0  0
   36.0460   30.4670   49.8570 C   0  0  1  0  0  0  0  0  0  0  0  0
   34.8980   29.9480   49.1150 C   0  0  2  0  0  0  0  0  0  0  0  0
   36.1020   29.0590   49.2270 C   0  0  0  0  0  0  0  0  0  0  0  0
   34.6140   30.5400   47.8920 O   0  0  0  0  0  0  0  0  0  0  0  0
   33.8630   30.0850   46.8590 C   0  0  0  0  0  0  0  0  0  0  0  0
   34.0760   28.9780   46.3180 O   0  0  0  0  0  0  0  0  0  0  0  0
   32.8920   31.0450   46.5670 N   0  0  0  0  0  0  0  0  0  0  0  0
   36.9704   32.7233   50.9668 H   0  0  0  0  0  0  0  0  0  0  0  0
   38.6204   34.2876   49.8668 H   0  0  0  0  0  0  0  0  0  0  0  0
   37.2887   31.9206   44.8772 H   0  0  0  0  0  0  0  0  0  0  0  0
   38.3037   33.3487   44.8867 H   0  0  0  0  0  0  0  0  0  0  0  0
   39.1511   32.2565   42.8950 H   0  0  0  0  0  0  0  0  0  0  0  0
   38.8035   30.6511   43.4501 H   0  0  0  0  0  0  0  0  0  0  0  0
   41.2327   30.9599   43.8909 H   0  0  0  0  0  0  0  0  0  0  0  0
   41.0428   32.5812   44.4775 H   0  0  0  0  0  0  0  0  0  0  0  0
   40.0059   29.9379   45.7547 H   0  0  0  0  0  0  0  0  0  0  0  0
   40.9864   31.1228   46.5639 H   0  0  0  0  0  0  0  0  0  0  0  0
   36.1096   30.9460   50.8452 H   0  0  0  0  0  0  0  0  0  0  0  0
   33.8323   29.8023   49.3454 H   0  0  0  0  0  0  0  0  0  0  0  0
   36.0752   28.1623   49.8636 H   0  0  0  0  0  0  0  0  0  0  0  0
   36.7646   28.5296   48.5265 H   0  0  0  0  0  0  0  0  0  0  0  0
   32.2185   30.8811   45.8052 H   0  0  0  0  0  0  0  0  0  0  0  0
   32.8493   31.9170   47.1135 H   0  0  0  0  0  0  0  0  0  0  0  0
  1 12  1  0
  1  2  2  0
  3  2  1  0
  4  3  2  0
  5  6  2  0
  5  4  1  0
  6  1  1  0
  7  5  1  0
  8  7  1  0
  9 10  1  0
  9  8  1  0
 10 11  1  0
 11  7  1  0
 13 14  1  0
 13 12  1  0
 14 12  1  0
 15 13  1  0
 16 15  1  0
 17 16  2  0
 18 16  1  0
  2 19  1  0
  3 20  1  0
  8 21  1  0
  8 22  1  0
  9 23  1  0
  9 24  1  0
 10 25  1  0
 10 26  1  0
 11 27  1  0
 11 28  1  0
 12 29  1  1
 13 30  1  1
 14 31  1  0
 14 32  1  0
 18 33  1  0
 18 34  1  0
M  ISO  8  19  14  20  14  21  13  22  13  23  13  24  13  25  13  26  13
M  ISO  6  27  13  28  13  29  13  30  13  31  13  32  13
M  END
>  <minimizedAffinity>  (1) 
-5.90017366

>  <minimizedRMSD>  (1) 
2.53853321

$$$$
