
     RDKit          3D

 29 30  0  0  0  0  0  0  0  0999 V2000
   34.1670   28.6560   48.4840 C   0  0  0  0  0  0  0  0  0  0  0  0
   33.7460   27.4580   47.6750 C   0  0  0  0  0  0  0  0  0  0  0  0
   32.5620   26.8300   48.1600 N   0  0  0  0  0  0  0  0  0  0  0  0
   31.8950   25.9480   47.2670 C   0  0  0  0  0  0  0  0  0  0  0  0
   30.4410   26.3360   47.2600 C   0  0  0  0  0  0  0  0  0  0  0  0
   30.2550   27.0160   48.5960 C   0  0  0  0  0  0  0  0  0  0  0  0
   31.5980   27.7080   48.7560 C   0  0  0  0  0  0  0  0  0  0  0  0
   34.9890   28.2480   49.5660 O   0  0  0  0  0  0  0  0  0  0  0  0
   37.3460   30.2690   51.4170 C   0  0  0  0  0  0  0  0  0  0  0  0
   38.0860   30.7990   50.3640 C   0  0  0  0  0  0  0  0  0  0  0  0
   37.7440   30.4390   49.0680 C   0  0  0  0  0  0  0  0  0  0  0  0
   36.6960   29.5830   48.8990 N   0  0  0  0  0  0  0  0  0  0  0  0
   36.0030   29.0920   49.9520 C   0  0  0  0  0  0  0  0  0  0  0  0
   36.3260   29.4340   51.2260 N   0  0  0  0  0  0  0  0  0  0  0  0
   33.2730   29.1624   48.8768 H   0  0  0  0  0  0  0  0  0  0  0  0
   34.7340   29.3445   47.8402 H   0  0  0  0  0  0  0  0  0  0  0  0
   34.5628   26.7215   47.6932 H   0  0  0  0  0  0  0  0  0  0  0  0
   33.5282   27.8157   46.6579 H   0  0  0  0  0  0  0  0  0  0  0  0
   32.3161   26.0466   46.2556 H   0  0  0  0  0  0  0  0  0  0  0  0
   32.0183   24.9027   47.5865 H   0  0  0  0  0  0  0  0  0  0  0  0
   30.2217   27.0268   46.4326 H   0  0  0  0  0  0  0  0  0  0  0  0
   29.7677   25.4780   47.1169 H   0  0  0  0  0  0  0  0  0  0  0  0
   29.4276   27.7403   48.5693 H   0  0  0  0  0  0  0  0  0  0  0  0
   29.9936   26.3354   49.4197 H   0  0  0  0  0  0  0  0  0  0  0  0
   31.8259   27.8609   49.8212 H   0  0  0  0  0  0  0  0  0  0  0  0
   31.6027   28.6991   48.2787 H   0  0  0  0  0  0  0  0  0  0  0  0
   37.6137   30.5504   52.4461 H   0  0  0  0  0  0  0  0  0  0  0  0
   38.9226   31.4873   50.5546 H   0  0  0  0  0  0  0  0  0  0  0  0
   38.3007   30.8318   48.2044 H   0  0  0  0  0  0  0  0  0  0  0  0
  1  8  1  0
  2  3  1  0
  2  1  1  0
  3  7  1  0
  4  3  1  0
  5  4  1  0
  5  6  1  0
  6  7  1  0
  8 13  1  0
 10  9  2  0
 11 10  1  0
 12 11  2  0
 12 13  1  0
 13 14  2  0
 14  9  1  0
  1 15  1  0
  1 16  1  0
  2 17  1  0
  2 18  1  0
  4 19  1  0
  4 20  1  0
  5 21  1  0
  5 22  1  0
  6 23  1  0
  6 24  1  0
  7 25  1  0
  7 26  1  0
  9 27  1  0
 10 28  1  0
 11 29  1  0
M  ISO  8  15   8  16   8  17   8  18   8  19  13  20  13  21  13  22  13
M  ISO  7  23  13  24  13  25  13  26  13  27  14  28  14  29  14
M  END
>  <minimizedAffinity>  (1) 
-3.92473459

>  <minimizedRMSD>  (1) 
0.799763739

$$$$
