
     RDKit          3D

 33 35  0  0  1  0  0  0  0  0999 V2000
   37.3590   30.5450   46.8920 Cl  0  0  0  0  0  0  0  0  0  0  0  0
   38.0330   31.8090   47.8910 C   0  0  0  0  0  0  0  0  0  0  0  0
   37.6620   31.8620   49.2010 C   0  0  0  0  0  0  0  0  0  0  0  0
   38.2290   32.8900   49.9590 C   0  0  0  0  0  0  0  0  0  0  0  0
   39.1140   33.7750   49.3430 C   0  0  0  0  0  0  0  0  0  0  0  0
   39.4480   33.6720   48.0270 C   0  0  0  0  0  0  0  0  0  0  0  0
   38.8950   32.6630   47.2750 C   0  0  0  0  0  0  0  0  0  0  0  0
   37.0940   30.1600   50.9340 C   0  0  0  0  0  0  0  0  0  0  0  0
   36.7310   30.9360   49.8460 C   0  0  0  0  0  0  0  0  0  0  0  0
   35.4200   30.8080   49.3680 C   0  0  0  0  0  0  0  0  0  0  0  0
   34.5930   29.9390   49.9970 N   0  0  0  0  0  0  0  0  0  0  0  0
   34.9780   29.2090   51.0430 C   0  0  0  0  0  0  0  0  0  0  0  0
   36.2270   29.3120   51.5210 N   0  0  0  0  0  0  0  0  0  0  0  0
   39.2410   32.5730   45.9460 O   0  0  0  0  0  0  0  0  0  0  0  0
   40.8980   31.1030   45.1080 N   0  0  0  0  0  0  0  0  0  0  0  0
   40.6120   30.8390   43.7320 C   0  0  0  0  0  0  0  0  0  0  0  0
   39.7790   32.0100   43.2550 C   0  0  0  0  0  0  0  0  0  0  0  0
   40.4330   33.1510   44.0200 C   0  0  0  0  0  0  0  0  0  0  0  0
   40.5230   32.4760   45.4020 C   0  0  1  0  0  0  0  0  0  0  0  0
   37.9812   32.9996   51.0251 H   0  0  0  0  0  0  0  0  0  0  0  0
   39.5576   34.5844   49.9414 H   0  0  0  0  0  0  0  0  0  0  0  0
   40.1503   34.3860   47.5722 H   0  0  0  0  0  0  0  0  0  0  0  0
   38.1175   30.2380   51.3295 H   0  0  0  0  0  0  0  0  0  0  0  0
   35.0723   31.3966   48.5063 H   0  0  0  0  0  0  0  0  0  0  0  0
   34.2667   28.5171   51.5178 H   0  0  0  0  0  0  0  0  0  0  0  0
   41.9042   30.9722   45.2850 H   0  0  0  0  0  0  0  0  0  0  0  0
   41.5446   30.7704   43.1527 H   0  0  0  0  0  0  0  0  0  0  0  0
   40.0814   29.8841   43.6034 H   0  0  0  0  0  0  0  0  0  0  0  0
   39.8628   32.1507   42.1673 H   0  0  0  0  0  0  0  0  0  0  0  0
   38.6983   31.9031   43.4300 H   0  0  0  0  0  0  0  0  0  0  0  0
   41.4246   33.4054   43.6175 H   0  0  0  0  0  0  0  0  0  0  0  0
   39.9002   34.1129   43.9916 H   0  0  0  0  0  0  0  0  0  0  0  0
   41.2414   32.9129   46.1113 H   0  0  0  0  0  0  0  0  0  0  0  0
  1  2  1  0
  2  3  2  0
  3  9  1  0
  3  4  1  0
  5  4  2  0
  6  5  1  0
  7  2  1  0
  7  6  2  0
  8 13  2  0
  9  8  1  0
 10  9  2  0
 10 11  1  0
 11 12  2  0
 12 13  1  0
 14  7  1  0
 15 19  1  0
 16 15  1  0
 17 16  1  0
 17 18  1  0
 18 19  1  0
 19 14  1  0
  4 20  1  0
  5 21  1  0
  6 22  1  0
  8 23  1  0
 10 24  1  0
 12 25  1  0
 15 26  1  0
 16 27  1  0
 16 28  1  0
 17 29  1  0
 17 30  1  0
 18 31  1  0
 18 32  1  0
 19 33  1  1
M  ISO  8  20  14  21  14  22  14  23  14  24  14  25  14  26   5  27  13
M  ISO  6  28  13  29  13  30  13  31  13  32  13  33  13
M  END
>  <minimizedAffinity>  (1) 
-6.07619715

>  <minimizedRMSD>  (1) 
1.20652938

$$$$
