
     RDKit          3D

 34 36  0  0  0  0  0  0  0  0999 V2000
   38.3530   32.2280   48.6050 C   0  0  0  0  0  0  0  0  0  0  0  0
   38.6360   33.1350   49.6080 C   0  0  0  0  0  0  0  0  0  0  0  0
   39.4950   34.2060   49.3600 C   0  0  0  0  0  0  0  0  0  0  0  0
   40.0660   34.3640   48.1090 C   0  0  0  0  0  0  0  0  0  0  0  0
   39.7880   33.4530   47.0860 C   0  0  0  0  0  0  0  0  0  0  0  0
   38.9260   32.4040   47.3850 C   0  0  0  0  0  0  0  0  0  0  0  0
   36.8390   29.0890   50.0420 C   0  0  0  0  0  0  0  0  0  0  0  0
   37.8040   30.0800   49.8070 C   0  0  0  0  0  0  0  0  0  0  0  0
   37.4610   31.1390   48.9260 C   0  0  0  0  0  0  0  0  0  0  0  0
   36.2280   31.1240   48.3720 N   0  0  0  0  0  0  0  0  0  0  0  0
   35.3290   30.1440   48.6310 C   0  0  0  0  0  0  0  0  0  0  0  0
   35.6210   29.1340   49.4550 N   0  0  0  0  0  0  0  0  0  0  0  0
   34.0890   30.2790   47.9820 N   0  0  0  0  0  0  0  0  0  0  0  0
   38.7670   31.5990   46.2300 N   0  0  0  0  0  0  0  0  0  0  0  0
   39.1340   30.3340   45.6280 C   0  0  0  0  0  0  0  0  0  0  0  0
   39.5210   30.6240   44.1900 C   0  0  0  0  0  0  0  0  0  0  0  0
   38.7690   31.9110   43.8660 C   0  0  0  0  0  0  0  0  0  0  0  0
   37.9320   32.0840   45.1180 C   0  0  0  0  0  0  0  0  0  0  0  0
   38.1836   33.0126   50.6032 H   0  0  0  0  0  0  0  0  0  0  0  0
   39.7190   34.9265   50.1604 H   0  0  0  0  0  0  0  0  0  0  0  0
   40.7419   35.2108   47.9190 H   0  0  0  0  0  0  0  0  0  0  0  0
   40.2328   33.5616   46.0858 H   0  0  0  0  0  0  0  0  0  0  0  0
   37.0784   28.2560   50.7194 H   0  0  0  0  0  0  0  0  0  0  0  0
   38.7920   30.0378   50.2887 H   0  0  0  0  0  0  0  0  0  0  0  0
   33.3521   29.5742   48.1276 H   0  0  0  0  0  0  0  0  0  0  0  0
   33.9176   31.0826   47.3610 H   0  0  0  0  0  0  0  0  0  0  0  0
   39.9851   29.8919   46.1666 H   0  0  0  0  0  0  0  0  0  0  0  0
   38.2985   29.6199   45.6738 H   0  0  0  0  0  0  0  0  0  0  0  0
   40.6073   30.7706   44.0980 H   0  0  0  0  0  0  0  0  0  0  0  0
   39.2698   29.7997   43.5063 H   0  0  0  0  0  0  0  0  0  0  0  0
   39.4586   32.7558   43.7219 H   0  0  0  0  0  0  0  0  0  0  0  0
   38.1858   31.8716   42.9341 H   0  0  0  0  0  0  0  0  0  0  0  0
   37.6770   33.1439   45.2647 H   0  0  0  0  0  0  0  0  0  0  0  0
   36.9848   31.5287   45.0513 H   0  0  0  0  0  0  0  0  0  0  0  0
  1  9  1  0
  1  2  2  0
  3  2  1  0
  4  3  2  0
  5  6  2  0
  5  4  1  0
  6  1  1  0
  8  7  2  0
  9  8  1  0
 10 11  1  0
 10  9  2  0
 11 12  2  0
 12  7  1  0
 13 11  1  0
 14  6  1  0
 15 14  1  0
 16 15  1  0
 17 16  1  0
 17 18  1  0
 18 14  1  0
  2 19  1  0
  3 20  1  0
  4 21  1  0
  5 22  1  0
  7 23  1  0
  8 24  1  0
 13 25  1  0
 13 26  1  0
 15 27  1  0
 15 28  1  0
 16 29  1  0
 16 30  1  0
 17 31  1  0
 17 32  1  0
 18 33  1  0
 18 34  1  0
M  ISO  8  19  14  20  14  21  14  22  14  23  14  24  14  27  13  28  13
M  ISO  6  29  13  30  13  31  13  32  13  33  13  34  13
M  END
>  <minimizedAffinity>  (1) 
-6.10111189

>  <minimizedRMSD>  (1) 
2.41412759

$$$$
