
     RDKit          3D

 44 47  0  0  1  0  0  0  0  0999 V2000
   39.0590   32.4080   47.4710 C   0  0  2  0  0  0  0  0  0  0  0  0
   38.0990   32.7350   48.6660 C   0  0  2  0  0  0  0  0  0  0  0  0
   38.9920   33.5040   49.5190 C   0  0  0  0  0  0  0  0  0  0  0  0
   39.8150   34.2710   48.7070 O   0  0  0  0  0  0  0  0  0  0  0  0
   39.7180   33.8150   47.4330 C   0  0  0  0  0  0  0  0  0  0  0  0
   37.3790   29.7090   50.7820 C   0  0  0  0  0  0  0  0  0  0  0  0
   38.0440   30.8760   50.3120 C   0  0  0  0  0  0  0  0  0  0  0  0
   37.4710   31.5520   49.1950 C   0  0  0  0  0  0  0  0  0  0  0  0
   36.3210   31.0530   48.6310 N   0  0  0  0  0  0  0  0  0  0  0  0
   35.7340   29.9520   49.1090 C   0  0  0  0  0  0  0  0  0  0  0  0
   36.2430   29.2740   50.1720 N   0  0  0  0  0  0  0  0  0  0  0  0
   38.3810   32.2120   46.3170 O   0  0  0  0  0  0  0  0  0  0  0  0
   40.9050   31.2480   44.8520 Cl  0  0  0  0  0  0  0  0  0  0  0  0
   39.2710   30.6860   44.5420 C   0  0  0  0  0  0  0  0  0  0  0  0
   38.3180   31.2800   45.3450 C   0  0  0  0  0  0  0  0  0  0  0  0
   37.0240   30.8400   45.1150 C   0  0  0  0  0  0  0  0  0  0  0  0
   36.7230   29.8900   44.1640 C   0  0  0  0  0  0  0  0  0  0  0  0
   37.7410   29.3430   43.3990 C   0  0  0  0  0  0  0  0  0  0  0  0
   39.0390   29.7360   43.5790 C   0  0  0  0  0  0  0  0  0  0  0  0
   40.0560   29.1360   42.7890 N   0  0  0  0  0  0  0  0  0  0  0  0
   40.0820   27.7260   42.3560 C   0  0  0  0  0  0  0  0  0  0  0  0
   40.2930   27.8310   40.8480 C   0  0  0  0  0  0  0  0  0  0  0  0
   41.1280   29.1130   40.7080 C   0  0  0  0  0  0  0  0  0  0  0  0
   41.3070   29.4930   42.1680 C   0  0  0  0  0  0  0  0  0  0  0  0
   39.6939   31.5160   47.5770 H   0  0  0  0  0  0  0  0  0  0  0  0
   37.1891   33.3125   48.4458 H   0  0  0  0  0  0  0  0  0  0  0  0
   38.4041   34.1596   50.1782 H   0  0  0  0  0  0  0  0  0  0  0  0
   39.5965   32.8286   50.1422 H   0  0  0  0  0  0  0  0  0  0  0  0
   40.7202   33.7450   46.9850 H   0  0  0  0  0  0  0  0  0  0  0  0
   39.1102   34.5036   46.8277 H   0  0  0  0  0  0  0  0  0  0  0  0
   37.7849   29.1562   51.6420 H   0  0  0  0  0  0  0  0  0  0  0  0
   38.9638   31.2421   50.7915 H   0  0  0  0  0  0  0  0  0  0  0  0
   34.8146   29.5844   48.6299 H   0  0  0  0  0  0  0  0  0  0  0  0
   36.2061   31.2657   45.7148 H   0  0  0  0  0  0  0  0  0  0  0  0
   35.6821   29.5679   44.0128 H   0  0  0  0  0  0  0  0  0  0  0  0
   37.5027   28.5845   42.6388 H   0  0  0  0  0  0  0  0  0  0  0  0
   40.9098   27.1814   42.8336 H   0  0  0  0  0  0  0  0  0  0  0  0
   39.1706   27.1733   42.6277 H   0  0  0  0  0  0  0  0  0  0  0  0
   40.8403   26.9579   40.4630 H   0  0  0  0  0  0  0  0  0  0  0  0
   39.3525   27.8602   40.2783 H   0  0  0  0  0  0  0  0  0  0  0  0
   42.0935   28.9165   40.2190 H   0  0  0  0  0  0  0  0  0  0  0  0
   40.6654   29.8937   40.0863 H   0  0  0  0  0  0  0  0  0  0  0  0
   42.1387   28.9304   42.6172 H   0  0  0  0  0  0  0  0  0  0  0  0
   41.5493   30.5582   42.2967 H   0  0  0  0  0  0  0  0  0  0  0  0
  1  2  1  0
  2  8  1  0
  2  3  1  0
  4  3  1  0
  5  1  1  0
  5  4  1  0
  7  6  2  0
  8  7  1  0
  9 10  1  0
  9  8  2  0
 10 11  2  0
 11  6  1  0
 12  1  1  0
 14 13  1  0
 14 15  2  0
 15 12  1  0
 16 15  1  0
 17 16  2  0
 18 19  2  0
 18 17  1  0
 19 14  1  0
 20 19  1  0
 21 20  1  0
 22 21  1  0
 23 22  1  0
 23 24  1  0
 24 20  1  0
  1 25  1  1
  2 26  1  6
  3 27  1  0
  3 28  1  0
  5 29  1  0
  5 30  1  0
  6 31  1  0
  7 32  1  0
 10 33  1  0
 16 34  1  0
 17 35  1  0
 18 36  1  0
 21 37  1  0
 21 38  1  0
 22 39  1  0
 22 40  1  0
 23 41  1  0
 23 42  1  0
 24 43  1  0
 24 44  1  0
M  ISO  8  25  13  26  13  27  13  28  13  29  13  30  13  31  14  32  14
M  ISO  8  33  14  34  14  35  14  36  14  37  13  38  13  39  13  40  13
M  ISO  4  41  13  42  13  43  13  44  13
M  END
>  <minimizedAffinity>  (1) 
-6.19739771

>  <minimizedRMSD>  (1) 
0.419539332

$$$$
