
     RDKit          3D

 41 44  0  0  1  0  0  0  0  0999 V2000
   38.6740   31.4880   45.2340 C   0  0  1  0  0  0  0  0  0  0  0  0
   38.9090   32.4920   46.2740 C   0  0  2  0  0  0  0  0  0  0  0  0
   40.3460   32.9540   45.9770 C   0  0  0  0  0  0  0  0  0  0  0  0
   40.9500   31.7800   45.6420 O   0  0  0  0  0  0  0  0  0  0  0  0
   40.0860   30.9520   44.9590 C   0  0  0  0  0  0  0  0  0  0  0  0
   37.6510   32.4230   48.5650 C   0  0  1  0  0  0  0  0  0  0  0  0
   38.8800   33.1600   48.7190 C   0  0  0  0  0  0  0  0  0  0  0  0
   38.8450   31.9990   47.7070 C   0  0  2  0  0  0  0  0  0  0  0  0
   35.5910   29.7990   50.2630 C   0  0  0  0  0  0  0  0  0  0  0  0
   35.9860   30.7610   49.3440 C   0  0  0  0  0  0  0  0  0  0  0  0
   37.2110   31.3840   49.5030 C   0  0  0  0  0  0  0  0  0  0  0  0
   37.9790   31.0050   50.5810 N   0  0  0  0  0  0  0  0  0  0  0  0
   37.5840   30.0660   51.4700 C   0  0  0  0  0  0  0  0  0  0  0  0
   36.3670   29.4540   51.3050 N   0  0  0  0  0  0  0  0  0  0  0  0
   37.8220   30.4520   45.6150 O   0  0  0  0  0  0  0  0  0  0  0  0
   36.5090   30.3240   43.6560 N   0  0  0  0  0  0  0  0  0  0  0  0
   35.8470   29.0170   43.6750 C   0  0  0  0  0  0  0  0  0  0  0  0
   34.7250   29.3010   44.6470 C   0  0  0  0  0  0  0  0  0  0  0  0
   35.4620   30.0440   45.7590 C   0  0  0  0  0  0  0  0  0  0  0  0
   36.5760   30.7290   45.0430 C   0  0  1  0  0  0  0  0  0  0  0  0
   38.1660   31.9282   44.3633 H   0  0  0  0  0  0  0  0  0  0  0  0
   38.1205   33.2577   46.2292 H   0  0  0  0  0  0  0  0  0  0  0  0
   40.3724   33.6708   45.1430 H   0  0  0  0  0  0  0  0  0  0  0  0
   40.8275   33.4809   46.8139 H   0  0  0  0  0  0  0  0  0  0  0  0
   40.1796   29.9185   45.3238 H   0  0  0  0  0  0  0  0  0  0  0  0
   40.3083   30.9407   43.8818 H   0  0  0  0  0  0  0  0  0  0  0  0
   36.6233   32.7883   48.4221 H   0  0  0  0  0  0  0  0  0  0  0  0
   38.9431   34.1970   48.3574 H   0  0  0  0  0  0  0  0  0  0  0  0
   39.5217   33.4128   49.5759 H   0  0  0  0  0  0  0  0  0  0  0  0
   39.3504   31.0412   47.5142 H   0  0  0  0  0  0  0  0  0  0  0  0
   34.6163   29.3054   50.1352 H   0  0  0  0  0  0  0  0  0  0  0  0
   35.3328   31.0250   48.4992 H   0  0  0  0  0  0  0  0  0  0  0  0
   38.2317   29.7954   52.3169 H   0  0  0  0  0  0  0  0  0  0  0  0
   37.4547   30.2452   43.2557 H   0  0  0  0  0  0  0  0  0  0  0  0
   35.4651   28.7390   42.6816 H   0  0  0  0  0  0  0  0  0  0  0  0
   36.4968   28.1741   43.9531 H   0  0  0  0  0  0  0  0  0  0  0  0
   33.9479   29.9312   44.1899 H   0  0  0  0  0  0  0  0  0  0  0  0
   34.1902   28.4022   44.9878 H   0  0  0  0  0  0  0  0  0  0  0  0
   34.8012   30.7748   46.2482 H   0  0  0  0  0  0  0  0  0  0  0  0
   35.8142   29.3764   46.5591 H   0  0  0  0  0  0  0  0  0  0  0  0
   36.4627   31.8201   45.1241 H   0  0  0  0  0  0  0  0  0  0  0  0
  1 15  1  0
  1  2  1  0
  2  8  1  0
  3  2  1  0
  4  3  1  0
  5  1  1  0
  5  4  1  0
  6  7  1  0
  6 11  1  0
  8  6  1  0
  8  7  1  0
  9 14  2  0
 10 11  2  0
 10  9  1  0
 11 12  1  0
 12 13  2  0
 14 13  1  0
 16 17  1  0
 16 20  1  0
 17 18  1  0
 18 19  1  0
 20 15  1  0
 20 19  1  0
  1 21  1  6
  2 22  1  1
  3 23  1  0
  3 24  1  0
  5 25  1  0
  5 26  1  0
  6 27  1  6
  7 28  1  0
  7 29  1  0
  8 30  1  1
  9 31  1  0
 10 32  1  0
 13 33  1  0
 16 34  1  0
 17 35  1  0
 17 36  1  0
 18 37  1  0
 18 38  1  0
 19 39  1  0
 19 40  1  0
 20 41  1  6
M  ISO  8  21  13  22  13  23  13  24  13  25  13  26  13  27  13  28  13
M  ISO  8  29  13  30  13  31  14  32  14  33  14  34   5  35  13  36  13
M  ISO  5  37  13  38  13  39  13  40  13  41  13
M  END
>  <minimizedAffinity>  (1) 
-5.37711906

>  <minimizedRMSD>  (1) 
0.895208418

$$$$
