
     RDKit          3D

 50 53  0  0  1  0  0  0  0  0999 V2000
   39.0710   32.8630   47.9000 C   0  0  0  0  0  0  0  0  0  0  0  0
   39.3430   32.1580   46.7360 C   0  0  0  0  0  0  0  0  0  0  0  0
   38.8020   30.9060   46.6240 C   0  0  0  0  0  0  0  0  0  0  0  0
   38.0390   30.4330   47.6450 N   0  0  0  0  0  0  0  0  0  0  0  0
   37.8020   31.1230   48.7290 C   0  0  0  0  0  0  0  0  0  0  0  0
   38.3150   32.3880   48.9070 N   0  0  0  0  0  0  0  0  0  0  0  0
   40.1180   32.7460   45.7940 O   0  0  0  0  0  0  0  0  0  0  0  0
   40.1090   32.2520   44.4910 C   0  0  0  0  0  0  0  0  0  0  0  0
   40.6540   31.0820   44.0300 C   0  0  0  0  0  0  0  0  0  0  0  0
   40.5390   30.7710   42.7110 C   0  0  0  0  0  0  0  0  0  0  0  0
   39.8880   31.6260   41.8820 C   0  0  0  0  0  0  0  0  0  0  0  0
   39.3370   32.8200   42.3730 C   0  0  0  0  0  0  0  0  0  0  0  0
   39.4610   33.1130   43.6890 N   0  0  0  0  0  0  0  0  0  0  0  0
   38.6130   33.7590   41.4190 C   0  0  0  0  0  0  0  0  0  0  0  0
   36.7560   30.2380   49.9160 S   0  0  0  0  0  0  0  0  0  0  0  0
   35.0760   30.8110   49.5460 C   0  0  0  0  0  0  0  0  0  0  0  0
   33.4880   28.6740   50.2270 F   0  0  0  0  0  0  0  0  0  0  0  0
   33.7590   28.8870   48.9020 C   0  0  0  0  0  0  0  0  0  0  0  0
   34.5520   29.9400   48.4360 C   0  0  0  0  0  0  0  0  0  0  0  0
   34.7970   30.1220   47.1120 C   0  0  0  0  0  0  0  0  0  0  0  0
   34.2470   29.2410   46.1780 C   0  0  0  0  0  0  0  0  0  0  0  0
   33.4600   28.1940   46.6210 C   0  0  0  0  0  0  0  0  0  0  0  0
   33.2220   28.0240   47.9620 C   0  0  0  0  0  0  0  0  0  0  0  0
   32.4300   26.9660   48.3480 O   0  0  0  0  0  0  0  0  0  0  0  0
   30.5680   28.3070   48.6200 N   0  0  0  0  0  0  0  0  0  0  0  0
   29.3700   28.3670   47.8410 C   0  0  0  0  0  0  0  0  0  0  0  0
   29.0470   26.9560   47.3970 C   0  0  0  0  0  0  0  0  0  0  0  0
   30.4250   26.3350   47.3180 C   0  0  0  0  0  0  0  0  0  0  0  0
   31.0670   26.9460   48.5680 C   0  0  1  0  0  0  0  0  0  0  0  0
   39.4991   33.8707   48.0059 H   0  0  0  0  0  0  0  0  0  0  0  0
   38.9807   30.2952   45.7268 H   0  0  0  0  0  0  0  0  0  0  0  0
   41.1781   30.4027   44.7185 H   0  0  0  0  0  0  0  0  0  0  0  0
   40.9689   29.8368   42.3204 H   0  0  0  0  0  0  0  0  0  0  0  0
   39.7912   31.3807   40.8141 H   0  0  0  0  0  0  0  0  0  0  0  0
   38.0416   34.5001   41.9972 H   0  0  0  0  0  0  0  0  0  0  0  0
   39.3483   34.2762   40.7851 H   0  0  0  0  0  0  0  0  0  0  0  0
   37.9258   33.1794   40.7851 H   0  0  0  0  0  0  0  0  0  0  0  0
   34.4381   30.7133   50.4368 H   0  0  0  0  0  0  0  0  0  0  0  0
   35.0776   31.8700   49.2484 H   0  0  0  0  0  0  0  0  0  0  0  0
   35.4260   30.9599   46.7770 H   0  0  0  0  0  0  0  0  0  0  0  0
   34.4376   29.3784   45.1034 H   0  0  0  0  0  0  0  0  0  0  0  0
   33.0222   27.4934   45.8947 H   0  0  0  0  0  0  0  0  0  0  0  0
   31.2706   28.9522   48.2315 H   0  0  0  0  0  0  0  0  0  0  0  0
   28.5457   28.7676   48.4493 H   0  0  0  0  0  0  0  0  0  0  0  0
   29.5053   29.0264   46.9710 H   0  0  0  0  0  0  0  0  0  0  0  0
   28.4158   26.4384   48.1343 H   0  0  0  0  0  0  0  0  0  0  0  0
   28.4793   26.9033   46.4563 H   0  0  0  0  0  0  0  0  0  0  0  0
   30.3817   25.2374   47.3768 H   0  0  0  0  0  0  0  0  0  0  0  0
   30.9657   26.5272   46.3795 H   0  0  0  0  0  0  0  0  0  0  0  0
   30.8455   26.3986   49.4961 H   0  0  0  0  0  0  0  0  0  0  0  0
  1  6  2  0
  2  1  1  0
  3  2  2  0
  3  4  1  0
  4  5  2  0
  5  6  1  0
  5 15  1  0
  7  2  1  0
  8  7  1  0
  9  8  2  0
 10  9  1  0
 11 12  1  0
 11 10  2  0
 12 13  2  0
 13  8  1  0
 14 12  1  0
 16 15  1  0
 18 17  1  0
 19 18  2  0
 19 16  1  0
 20 19  1  0
 21 22  1  0
 21 20  2  0
 22 23  2  0
 23 24  1  0
 23 18  1  0
 26 25  1  0
 27 26  1  0
 28 27  1  0
 28 29  1  0
 29 24  1  0
 29 25  1  0
  1 30  1  0
  3 31  1  0
  9 32  1  0
 10 33  1  0
 11 34  1  0
 14 35  1  0
 14 36  1  0
 14 37  1  0
 16 38  1  0
 16 39  1  0
 20 40  1  0
 21 41  1  0
 22 42  1  0
 25 43  1  0
 26 44  1  0
 26 45  1  0
 27 46  1  0
 27 47  1  0
 28 48  1  0
 28 49  1  0
 29 50  1  1
M  ISO  8  30  14  31  14  32  14  33  14  34  14  35   8  36   8  37   8
M  ISO  8  38   8  39   8  40  14  41  14  42  14  43   5  44  13  45  13
M  ISO  5  46  13  47  13  48  13  49  13  50  13
M  END
>  <minimizedAffinity>  (1) 
-6.21785641

>  <minimizedRMSD>  (1) 
2.08349037

$$$$
