
     RDKit          3D

 34 36  0  0  1  0  0  0  0  0999 V2000
   34.8900   29.2980   48.4530 C   0  0  0  0  0  0  0  0  0  0  0  0
   34.4650   28.0910   48.9520 C   0  0  0  0  0  0  0  0  0  0  0  0
   33.3550   27.5770   48.3110 C   0  0  0  0  0  0  0  0  0  0  0  0
   32.7150   28.1980   47.2680 C   0  0  0  0  0  0  0  0  0  0  0  0
   33.2170   29.4090   46.8370 C   0  0  0  0  0  0  0  0  0  0  0  0
   34.2980   29.9500   47.4310 N   0  0  0  0  0  0  0  0  0  0  0  0
   37.5720   30.1560   50.8160 C   0  0  0  0  0  0  0  0  0  0  0  0
   38.2700   31.1850   50.1390 C   0  0  0  0  0  0  0  0  0  0  0  0
   37.7970   31.5550   48.8860 C   0  0  0  0  0  0  0  0  0  0  0  0
   36.7050   30.9140   48.3930 N   0  0  0  0  0  0  0  0  0  0  0  0
   36.0670   29.9450   49.0570 C   0  0  0  0  0  0  0  0  0  0  0  0
   36.5110   29.5740   50.2670 N   0  0  0  0  0  0  0  0  0  0  0  0
   37.9720   29.6960   52.1110 N   0  0  0  0  0  0  0  0  0  0  0  0
   33.4420   30.3130   44.5140 C   0  0  1  0  0  0  0  0  0  0  0  0
   32.6090   30.1490   45.7350 C   0  0  2  0  0  0  0  0  0  0  0  0
   32.2340   31.4490   46.0070 O   0  0  0  0  0  0  0  0  0  0  0  0
   31.6670   31.8380   44.7930 C   0  0  0  0  0  0  0  0  0  0  0  0
   32.4910   31.1960   43.6910 C   0  0  1  0  0  0  0  0  0  0  0  0
   34.5900   31.0590   44.6600 O   0  0  0  0  0  0  0  0  0  0  0  0
   33.1500   32.1480   42.9540 O   0  0  0  0  0  0  0  0  0  0  0  0
   34.9644   27.5792   49.7879 H   0  0  0  0  0  0  0  0  0  0  0  0
   32.9597   26.6108   48.6577 H   0  0  0  0  0  0  0  0  0  0  0  0
   31.8323   27.7461   46.7919 H   0  0  0  0  0  0  0  0  0  0  0  0
   39.1497   31.6711   50.5861 H   0  0  0  0  0  0  0  0  0  0  0  0
   38.2943   32.3474   48.3074 H   0  0  0  0  0  0  0  0  0  0  0  0
   37.4427   28.9453   52.5770 H   0  0  0  0  0  0  0  0  0  0  0  0
   38.7891   30.1157   52.5769 H   0  0  0  0  0  0  0  0  0  0  0  0
   33.7770   29.3366   44.1341 H   0  0  0  0  0  0  0  0  0  0  0  0
   31.7483   29.4830   45.5752 H   0  0  0  0  0  0  0  0  0  0  0  0
   30.6244   31.4921   44.7352 H   0  0  0  0  0  0  0  0  0  0  0  0
   31.6657   32.9335   44.6940 H   0  0  0  0  0  0  0  0  0  0  0  0
   31.9147   30.6348   42.9407 H   0  0  0  0  0  0  0  0  0  0  0  0
   34.7822   31.1839   45.6231 H   0  0  0  0  0  0  0  0  0  0  0  0
   33.5937   32.7890   43.5642 H   0  0  0  0  0  0  0  0  0  0  0  0
  1  2  2  0
  1 11  1  0
  3  2  1  0
  4  3  2  0
  5  4  1  0
  5  6  2  0
  6  1  1  0
  7 13  1  0
  8  7  2  0
  9  8  1  0
 10  9  2  0
 10 11  1  0
 11 12  2  0
 12  7  1  0
 14 19  1  0
 14 15  1  0
 15 16  1  0
 15  5  1  0
 17 16  1  0
 18 20  1  0
 18 14  1  0
 18 17  1  0
  2 21  1  0
  3 22  1  0
  4 23  1  0
  8 24  1  0
  9 25  1  0
 13 26  1  0
 13 27  1  0
 14 28  1  6
 15 29  1  6
 17 30  1  0
 17 31  1  0
 18 32  1  6
 19 33  1  0
 20 34  1  0
M  ISO  8  21  14  22  14  23  14  24  14  25  14  28  13  29  13  30  13
M  ISO  4  31  13  32  13  33   3  34   3
M  END
>  <minimizedAffinity>  (1) 
-5.78889227

>  <minimizedRMSD>  (1) 
0.380387187

$$$$
