
     RDKit          3D

 40 43  0  0  1  0  0  0  0  0999 V2000
   35.1070   29.2980   50.6150 C   0  0  0  0  0  0  0  0  0  0  0  0
   36.8050   31.1230   50.1830 C   0  0  1  0  0  0  0  0  0  0  0  0
   36.4630   29.7360   50.1600 C   0  0  1  0  0  0  0  0  0  0  0  0
   37.5340   30.1550   51.1350 C   0  0  0  0  0  0  0  0  0  0  0  0
   37.7570   31.7230   49.1650 C   0  0  0  0  0  0  0  0  0  0  0  0
   38.2470   32.9780   49.4820 C   0  0  0  0  0  0  0  0  0  0  0  0
   39.1100   33.5380   48.5140 C   0  0  0  0  0  0  0  0  0  0  0  0
   39.4050   32.8640   47.3860 N   0  0  0  0  0  0  0  0  0  0  0  0
   38.8920   31.6190   47.1180 C   0  0  0  0  0  0  0  0  0  0  0  0
   38.0480   31.0390   48.0330 N   0  0  0  0  0  0  0  0  0  0  0  0
   34.1810   29.0300   49.4760 C   0  0  0  0  0  0  0  0  0  0  0  0
   34.1990   29.7860   48.3190 C   0  0  0  0  0  0  0  0  0  0  0  0
   33.2850   29.3720   47.4300 N   0  0  0  0  0  0  0  0  0  0  0  0
   32.6800   28.3300   48.0450 C   0  0  0  0  0  0  0  0  0  0  0  0
   33.2140   28.1240   49.2650 N   0  0  0  0  0  0  0  0  0  0  0  0
   30.3560   28.3520   47.1300 C   0  0  2  0  0  0  0  0  0  0  0  0
   31.5780   27.5040   47.4810 C   0  0  2  0  0  0  0  0  0  0  0  0
   31.1050   26.5750   48.3770 O   0  0  0  0  0  0  0  0  0  0  0  0
   30.0570   27.1020   49.0860 C   0  0  0  0  0  0  0  0  0  0  0  0
   29.4710   28.2530   48.3290 C   0  0  2  0  0  0  0  0  0  0  0  0
   29.7430   27.9390   45.9550 O   0  0  0  0  0  0  0  0  0  0  0  0
   28.1680   28.0290   47.8880 O   0  0  0  0  0  0  0  0  0  0  0  0
   35.2140   28.3770   51.2069 H   0  0  0  0  0  0  0  0  0  0  0  0
   34.6749   30.1146   51.2120 H   0  0  0  0  0  0  0  0  0  0  0  0
   36.1657   32.0166   50.2344 H   0  0  0  0  0  0  0  0  0  0  0  0
   36.4281   28.9631   49.3781 H   0  0  0  0  0  0  0  0  0  0  0  0
   38.5863   29.8849   50.9628 H   0  0  0  0  0  0  0  0  0  0  0  0
   37.7069   30.0752   52.2184 H   0  0  0  0  0  0  0  0  0  0  0  0
   37.9849   33.4987   50.4148 H   0  0  0  0  0  0  0  0  0  0  0  0
   39.5452   34.5340   48.6831 H   0  0  0  0  0  0  0  0  0  0  0  0
   39.1525   31.0952   46.1865 H   0  0  0  0  0  0  0  0  0  0  0  0
   34.8839   30.6295   48.1476 H   0  0  0  0  0  0  0  0  0  0  0  0
   33.0889   29.7578   46.4954 H   0  0  0  0  0  0  0  0  0  0  0  0
   30.6230   29.3979   46.9182 H   0  0  0  0  0  0  0  0  0  0  0  0
   32.0231   27.0248   46.5966 H   0  0  0  0  0  0  0  0  0  0  0  0
   29.2877   26.3294   49.2320 H   0  0  0  0  0  0  0  0  0  0  0  0
   30.4158   27.4518   50.0652 H   0  0  0  0  0  0  0  0  0  0  0  0
   29.4201   29.1486   48.9656 H   0  0  0  0  0  0  0  0  0  0  0  0
   28.9421   27.3994   46.1727 H   0  0  0  0  0  0  0  0  0  0  0  0
   27.5684   27.9259   48.6690 H   0  0  0  0  0  0  0  0  0  0  0  0
  2  4  1  0
  3  2  1  0
  3  1  1  0
  3  4  1  0
  5  6  2  0
  5  2  1  0
  7  6  1  0
  8  7  2  0
  9  8  1  0
  9 10  2  0
 10  5  1  0
 11  1  1  0
 12 11  2  0
 13 14  1  0
 13 12  1  0
 14 15  2  0
 15 11  1  0
 16 21  1  0
 16 17  1  0
 16 20  1  0
 17 14  1  0
 17 18  1  0
 18 19  1  0
 20 22  1  0
 20 19  1  0
  1 23  1  0
  1 24  1  0
  2 25  1  1
  3 26  1  6
  4 27  1  0
  4 28  1  0
  6 29  1  0
  7 30  1  0
  9 31  1  0
 12 32  1  0
 13 33  1  0
 16 34  1  6
 17 35  1  6
 19 36  1  0
 19 37  1  0
 20 38  1  1
 21 39  1  0
 22 40  1  0
M  ISO  8  23   8  24   8  25  13  26  13  27  13  28  13  29  14  30  14
M  ISO  8  31  14  32  14  33   9  34  13  35  13  36  13  37  13  38  13
M  ISO  2  39   3  40   3
M  END
>  <minimizedAffinity>  (1) 
-6.16917038

>  <minimizedRMSD>  (1) 
0.683022261

$$$$
