
     RDKit          3D

 45 49  0  0  1  0  0  0  0  0999 V2000
   35.6380   29.7300   49.6450 C   0  0  0  0  0  0  0  0  0  0  0  0
   36.6280   29.6050   50.6020 C   0  0  0  0  0  0  0  0  0  0  0  0
   37.7530   30.1660   49.9950 C   0  0  0  0  0  0  0  0  0  0  0  0
   37.4010   30.5900   48.7370 C   0  0  0  0  0  0  0  0  0  0  0  0
   36.1250   30.3140   48.5590 O   0  0  0  0  0  0  0  0  0  0  0  0
   38.8080   32.4770   48.0420 C   0  0  0  0  0  0  0  0  0  0  0  0
   38.2690   31.2350   47.7530 C   0  0  0  0  0  0  0  0  0  0  0  0
   38.5280   30.5800   46.5540 C   0  0  0  0  0  0  0  0  0  0  0  0
   39.3470   31.1740   45.6090 C   0  0  0  0  0  0  0  0  0  0  0  0
   39.7850   30.8120   44.3780 N   0  0  0  0  0  0  0  0  0  0  0  0
   40.5580   31.7930   43.9350 N   0  0  0  0  0  0  0  0  0  0  0  0
   40.6270   32.7810   44.8580 C   0  0  0  0  0  0  0  0  0  0  0  0
   39.8590   32.4090   45.9420 C   0  0  0  0  0  0  0  0  0  0  0  0
   39.6400   33.0980   47.1020 C   0  0  0  0  0  0  0  0  0  0  0  0
   34.2710   29.2790   49.8290 C   0  0  0  0  0  0  0  0  0  0  0  0
   33.7030   29.5190   50.9070 O   0  0  0  0  0  0  0  0  0  0  0  0
   31.7770   27.2770   48.0700 C   0  0  0  0  0  0  0  0  0  0  0  0
   32.2800   27.1880   46.7880 C   0  0  0  0  0  0  0  0  0  0  0  0
   33.4720   27.8050   46.5020 C   0  0  0  0  0  0  0  0  0  0  0  0
   34.1120   28.4760   47.4730 N   0  0  0  0  0  0  0  0  0  0  0  0
   33.6070   28.5600   48.7440 C   0  0  0  0  0  0  0  0  0  0  0  0
   32.4300   27.9510   49.0260 N   0  0  0  0  0  0  0  0  0  0  0  0
   34.8110   28.9990   44.7590 C   0  0  1  0  0  0  0  0  0  0  0  0
   34.0820   27.7540   45.1390 C   0  0  2  0  0  0  0  0  0  0  0  0
   33.1620   27.4720   44.1410 O   0  0  0  0  0  0  0  0  0  0  0  0
   32.7960   28.6710   43.5500 C   0  0  0  0  0  0  0  0  0  0  0  0
   34.0910   29.4600   43.5290 C   0  0  2  0  0  0  0  0  0  0  0  0
   34.8730   29.9600   45.7620 O   0  0  0  0  0  0  0  0  0  0  0  0
   34.7780   29.1020   42.3630 O   0  0  0  0  0  0  0  0  0  0  0  0
   36.5479   29.1659   51.6074 H   0  0  0  0  0  0  0  0  0  0  0  0
   38.7518   30.2536   50.4475 H   0  0  0  0  0  0  0  0  0  0  0  0
   38.5852   32.9707   48.9994 H   0  0  0  0  0  0  0  0  0  0  0  0
   38.0836   29.5932   46.3571 H   0  0  0  0  0  0  0  0  0  0  0  0
   39.5594   29.9387   43.8807 H   0  0  0  0  0  0  0  0  0  0  0  0
   41.1962   33.7172   44.7606 H   0  0  0  0  0  0  0  0  0  0  0  0
   40.0915   34.0839   47.2867 H   0  0  0  0  0  0  0  0  0  0  0  0
   30.8228   26.7857   48.3112 H   0  0  0  0  0  0  0  0  0  0  0  0
   31.7356   26.6329   46.0099 H   0  0  0  0  0  0  0  0  0  0  0  0
   35.8796   28.8090   44.5800 H   0  0  0  0  0  0  0  0  0  0  0  0
   34.8054   26.9290   45.2163 H   0  0  0  0  0  0  0  0  0  0  0  0
   32.4174   28.5081   42.5301 H   0  0  0  0  0  0  0  0  0  0  0  0
   31.9868   29.1865   44.0881 H   0  0  0  0  0  0  0  0  0  0  0  0
   33.9724   30.5536   43.5269 H   0  0  0  0  0  0  0  0  0  0  0  0
   34.8444   29.5162   46.6465 H   0  0  0  0  0  0  0  0  0  0  0  0
   35.6294   28.6583   42.6047 H   0  0  0  0  0  0  0  0  0  0  0  0
  1 15  1  0
  1  2  2  0
  3  2  1  0
  4  3  2  0
  5  4  1  0
  5  1  1  0
  7  6  2  0
  7  4  1  0
  8  7  1  0
  9 13  1  0
  9  8  2  0
 10  9  1  0
 11 10  1  0
 11 12  2  0
 12 13  1  0
 13 14  2  0
 14  6  1  0
 15 16  2  0
 17 22  2  0
 18 17  1  0
 19 18  2  0
 19 20  1  0
 20 21  2  0
 21 22  1  0
 21 15  1  0
 23 24  1  0
 23 28  1  0
 24 19  1  0
 25 24  1  0
 26 25  1  0
 27 29  1  0
 27 26  1  0
 27 23  1  0
  2 30  1  0
  3 31  1  0
  6 32  1  0
  8 33  1  0
 10 34  1  0
 12 35  1  0
 14 36  1  0
 17 37  1  0
 18 38  1  0
 23 39  1  6
 24 40  1  1
 26 41  1  0
 26 42  1  0
 27 43  1  1
 28 44  1  0
 29 45  1  0
M  ISO  8  30  14  31  14  32  14  33  14  34   9  35  14  36  14  37  14
M  ISO  8  38  14  39  13  40  13  41  13  42  13  43  13  44   3  45   3
M  END
>  <minimizedAffinity>  (1) 
-6.55755377

>  <minimizedRMSD>  (1) 
1.71168566

$$$$
