
     RDKit          3D

 45 48  0  0  1  0  0  0  0  0999 V2000
   32.3900   28.9450   46.4250 N   0  0  0  0  0  0  0  0  0  0  0  0
   33.2390   28.5470   45.3130 C   0  0  0  0  0  0  0  0  0  0  0  0
   34.5960   29.0470   45.7230 C   0  0  0  0  0  0  0  0  0  0  0  0
   34.3360   29.8960   47.0430 C   0  0  1  0  0  0  0  0  0  0  0  0
   33.2400   29.1150   47.6240 C   0  0  0  0  0  0  0  0  0  0  0  0
   36.6620   31.1240   46.0130 F   0  0  0  0  0  0  0  0  0  0  0  0
   36.6330   30.5920   47.2380 C   0  0  0  0  0  0  0  0  0  0  0  0
   35.5840   29.9340   47.8110 C   0  0  0  0  0  0  0  0  0  0  0  0
   35.7400   29.4600   49.1240 C   0  0  0  0  0  0  0  0  0  0  0  0
   36.8970   29.6400   49.8350 C   0  0  0  0  0  0  0  0  0  0  0  0
   37.9480   30.3160   49.2170 C   0  0  0  0  0  0  0  0  0  0  0  0
   37.8220   30.8020   47.8960 C   0  0  0  0  0  0  0  0  0  0  0  0
   38.9070   32.8830   46.9220 C   0  0  2  0  0  0  0  0  0  0  0  0
   39.0020   31.4920   47.3640 C   0  0  2  0  0  0  0  0  0  0  0  0
   39.5210   30.7600   46.2710 O   0  0  0  0  0  0  0  0  0  0  0  0
   40.4290   31.6360   45.6580 C   0  0  0  0  0  0  0  0  0  0  0  0
   39.5650   32.8810   45.5560 C   0  0  1  0  0  0  0  0  0  0  0  0
   39.6970   33.7470   47.6940 O   0  0  0  0  0  0  0  0  0  0  0  0
   38.6940   32.6620   44.5060 O   0  0  0  0  0  0  0  0  0  0  0  0
   30.9990   29.1510   46.4080 C   0  0  0  0  0  0  0  0  0  0  0  0
   30.5210   30.0050   45.4030 C   0  0  0  0  0  0  0  0  0  0  0  0
   29.1450   30.2700   45.3250 C   0  0  0  0  0  0  0  0  0  0  0  0
   28.3520   29.6500   46.2720 N   0  0  0  0  0  0  0  0  0  0  0  0
   28.8440   28.8390   47.2180 C   0  0  0  0  0  0  0  0  0  0  0  0
   30.1750   28.5900   47.2850 N   0  0  0  0  0  0  0  0  0  0  0  0
   32.9103   29.0206   44.3762 H   0  0  0  0  0  0  0  0  0  0  0  0
   33.2179   27.4644   45.1192 H   0  0  0  0  0  0  0  0  0  0  0  0
   35.2724   28.2049   45.9311 H   0  0  0  0  0  0  0  0  0  0  0  0
   35.0739   29.6448   44.9329 H   0  0  0  0  0  0  0  0  0  0  0  0
   34.0635   30.9577   46.9506 H   0  0  0  0  0  0  0  0  0  0  0  0
   32.7197   29.6688   48.4193 H   0  0  0  0  0  0  0  0  0  0  0  0
   33.5446   28.1791   48.1153 H   0  0  0  0  0  0  0  0  0  0  0  0
   34.9036   28.9254   49.5980 H   0  0  0  0  0  0  0  0  0  0  0  0
   36.9939   29.2622   50.8635 H   0  0  0  0  0  0  0  0  0  0  0  0
   38.8885   30.4733   49.7653 H   0  0  0  0  0  0  0  0  0  0  0  0
   37.8593   33.2146   46.9696 H   0  0  0  0  0  0  0  0  0  0  0  0
   39.6354   31.5386   48.2621 H   0  0  0  0  0  0  0  0  0  0  0  0
   41.3180   31.8059   46.2832 H   0  0  0  0  0  0  0  0  0  0  0  0
   40.8441   31.2802   44.7035 H   0  0  0  0  0  0  0  0  0  0  0  0
   40.0539   33.8448   45.3506 H   0  0  0  0  0  0  0  0  0  0  0  0
   39.5362   33.5711   48.6549 H   0  0  0  0  0  0  0  0  0  0  0  0
   37.7981   32.4367   44.8619 H   0  0  0  0  0  0  0  0  0  0  0  0
   31.2169   30.4619   44.6840 H   0  0  0  0  0  0  0  0  0  0  0  0
   28.7224   30.9324   44.5552 H   0  0  0  0  0  0  0  0  0  0  0  0
   28.1635   28.3720   47.9452 H   0  0  0  0  0  0  0  0  0  0  0  0
  1  5  1  0
  2  3  1  0
  2  1  1  0
  3  4  1  0
  4  5  1  0
  4  8  1  0
  6  7  1  0
  7  8  2  0
  7 12  1  0
  8  9  1  0
  9 10  2  0
 11 10  1  0
 12 11  2  0
 13 14  1  0
 13 18  1  0
 14 12  1  0
 15 14  1  0
 16 15  1  0
 17 19  1  0
 17 16  1  0
 17 13  1  0
 20  1  1  0
 20 25  1  0
 21 20  2  0
 22 21  1  0
 22 23  2  0
 23 24  1  0
 24 25  2  0
  2 26  1  0
  2 27  1  0
  3 28  1  0
  3 29  1  0
  4 30  1  6
  5 31  1  0
  5 32  1  0
  9 33  1  0
 10 34  1  0
 11 35  1  0
 13 36  1  6
 14 37  1  1
 16 38  1  0
 16 39  1  0
 17 40  1  6
 18 41  1  0
 19 42  1  0
 21 43  1  0
 22 44  1  0
 24 45  1  0
M  ISO  8  26  13  27  13  28  13  29  13  30  13  31  13  32  13  33  14
M  ISO  8  34  14  35  14  36  13  37  13  38  13  39  13  40  13  41   3
M  ISO  4  42   3  43  14  44  14  45  14
M  END
>  <minimizedAffinity>  (1) 
-6.34448767

>  <minimizedRMSD>  (1) 
2.68523693

$$$$
