
     RDKit          3D

 39 41  0  0  1  0  0  0  0  0999 V2000
   35.5160   30.6140   48.8280 C   0  0  1  0  0  0  0  0  0  0  0  0
   34.7000   30.5390   50.0370 C   0  0  0  0  0  0  0  0  0  0  0  0
   34.9280   29.3460   50.9220 C   0  0  0  0  0  0  0  0  0  0  0  0
   36.3260   28.8970   51.0310 C   0  0  0  0  0  0  0  0  0  0  0  0
   37.1580   28.9790   49.8110 C   0  0  0  0  0  0  0  0  0  0  0  0
   36.9610   30.2510   49.0460 C   0  0  2  0  0  0  0  0  0  0  0  0
   33.7610   29.2770   47.6120 C   0  0  0  0  0  0  0  0  0  0  0  0
   34.9420   30.0190   47.6070 C   0  0  0  0  0  0  0  0  0  0  0  0
   35.5450   30.1850   46.3810 C   0  0  0  0  0  0  0  0  0  0  0  0
   34.9850   29.6390   45.2690 N   0  0  0  0  0  0  0  0  0  0  0  0
   33.8400   28.9290   45.3230 C   0  0  0  0  0  0  0  0  0  0  0  0
   33.2170   28.7440   46.5110 N   0  0  0  0  0  0  0  0  0  0  0  0
   38.8670   31.8270   49.5380 C   0  0  2  0  0  0  0  0  0  0  0  0
   37.5010   31.3480   49.9520 C   0  0  1  0  0  0  0  0  0  0  0  0
   36.6260   32.4230   49.8420 O   0  0  0  0  0  0  0  0  0  0  0  0
   37.2810   33.4520   49.1690 C   0  0  0  0  0  0  0  0  0  0  0  0
   38.6730   33.3320   49.7520 C   0  0  2  0  0  0  0  0  0  0  0  0
   39.2160   31.6130   48.2400 O   0  0  0  0  0  0  0  0  0  0  0  0
   39.6290   34.0720   49.1010 O   0  0  0  0  0  0  0  0  0  0  0  0
   35.4979   31.6909   48.6044 H   0  0  0  0  0  0  0  0  0  0  0  0
   34.9005   31.4415   50.6330 H   0  0  0  0  0  0  0  0  0  0  0  0
   33.6619   30.4483   49.6847 H   0  0  0  0  0  0  0  0  0  0  0  0
   34.5738   29.6003   51.9319 H   0  0  0  0  0  0  0  0  0  0  0  0
   34.3786   28.5145   50.4564 H   0  0  0  0  0  0  0  0  0  0  0  0
   36.8114   29.5101   51.8047 H   0  0  0  0  0  0  0  0  0  0  0  0
   36.2624   27.8230   51.2599 H   0  0  0  0  0  0  0  0  0  0  0  0
   38.2159   28.9077   50.1040 H   0  0  0  0  0  0  0  0  0  0  0  0
   36.8545   28.1517   49.1526 H   0  0  0  0  0  0  0  0  0  0  0  0
   37.4441   30.1362   48.0645 H   0  0  0  0  0  0  0  0  0  0  0  0
   33.2487   29.1213   48.5729 H   0  0  0  0  0  0  0  0  0  0  0  0
   36.4798   30.7593   46.3009 H   0  0  0  0  0  0  0  0  0  0  0  0
   33.4129   28.5010   44.4041 H   0  0  0  0  0  0  0  0  0  0  0  0
   39.6639   31.3077   50.0905 H   0  0  0  0  0  0  0  0  0  0  0  0
   37.5837   30.9493   50.9739 H   0  0  0  0  0  0  0  0  0  0  0  0
   36.8320   34.4313   49.3915 H   0  0  0  0  0  0  0  0  0  0  0  0
   37.2388   33.3779   48.0723 H   0  0  0  0  0  0  0  0  0  0  0  0
   38.7726   33.7070   50.7813 H   0  0  0  0  0  0  0  0  0  0  0  0
   40.0595   31.0958   48.2060 H   0  0  0  0  0  0  0  0  0  0  0  0
   40.2087   34.5207   49.7663 H   0  0  0  0  0  0  0  0  0  0  0  0
  1  6  1  0
  1  2  1  0
  2  3  1  0
  3  4  1  0
  5  4  1  0
  6  5  1  0
  6 14  1  0
  8  7  2  0
  8  1  1  0
  9  8  1  0
 10 11  1  0
 10  9  2  0
 11 12  2  0
 12  7  1  0
 13 18  1  0
 13 17  1  0
 13 14  1  0
 14 15  1  0
 16 17  1  0
 16 15  1  0
 17 19  1  0
  1 20  1  6
  2 21  1  0
  2 22  1  0
  3 23  1  0
  3 24  1  0
  4 25  1  0
  4 26  1  0
  5 27  1  0
  5 28  1  0
  6 29  1  6
  7 30  1  0
  9 31  1  0
 11 32  1  0
 13 33  1  1
 14 34  1  1
 16 35  1  0
 16 36  1  0
 17 37  1  1
 18 38  1  0
 19 39  1  0
M  ISO  8  20  13  21  13  22  13  23  13  24  13  25  13  26  13  27  13
M  ISO  8  28  13  29  13  30  14  31  14  32  14  33  13  34  13  35  13
M  ISO  4  36  13  37  13  38   3  39   3
M  END
>  <minimizedAffinity>  (1) 
-4.66221523

>  <minimizedRMSD>  (1) 
6.30018282

$$$$
