
     RDKit          3D

 43 46  0  0  1  0  0  0  0  0999 V2000
   38.0010   31.5050   45.1230 C   0  0  0  0  0  0  0  0  0  0  0  0
   36.9170   30.8950   45.3040 O   0  0  0  0  0  0  0  0  0  0  0  0
   38.5160   32.3820   46.1430 N   0  0  0  0  0  0  0  0  0  0  0  0
   38.7730   31.3460   43.8760 C   0  0  0  0  0  0  0  0  0  0  0  0
   39.9820   30.7080   43.9350 C   0  0  0  0  0  0  0  0  0  0  0  0
   40.6960   30.5710   42.7560 C   0  0  0  0  0  0  0  0  0  0  0  0
   40.1500   31.0810   41.5990 C   0  0  0  0  0  0  0  0  0  0  0  0
   38.9140   31.7350   41.5380 C   0  0  0  0  0  0  0  0  0  0  0  0
   38.2700   31.8350   42.7210 N   0  0  0  0  0  0  0  0  0  0  0  0
   38.2820   33.7490   40.2070 C   0  0  1  0  0  0  0  0  0  0  0  0
   38.3980   32.2520   40.2650 C   0  0  2  0  0  0  0  0  0  0  0  0
   37.1520   31.7350   39.9380 O   0  0  0  0  0  0  0  0  0  0  0  0
   36.2040   32.6640   40.2930 C   0  0  0  0  0  0  0  0  0  0  0  0
   36.8120   34.0290   40.2180 C   0  0  2  0  0  0  0  0  0  0  0  0
   38.8360   34.3060   41.3680 O   0  0  0  0  0  0  0  0  0  0  0  0
   36.4060   34.7310   39.0680 O   0  0  0  0  0  0  0  0  0  0  0  0
   38.5060   31.4700   48.4600 C   0  0  2  0  0  0  0  0  0  0  0  0
   38.8100   32.9060   48.5730 C   0  0  0  0  0  0  0  0  0  0  0  0
   37.9040   32.3140   47.4590 C   0  0  1  0  0  0  0  0  0  0  0  0
   35.6800   29.6020   49.9420 C   0  0  0  0  0  0  0  0  0  0  0  0
   36.0770   29.4790   51.3110 C   0  0  0  0  0  0  0  0  0  0  0  0
   37.3430   30.0670   51.6870 C   0  0  0  0  0  0  0  0  0  0  0  0
   38.0780   30.6960   50.7450 N   0  0  0  0  0  0  0  0  0  0  0  0
   37.6380   30.7770   49.4590 C   0  0  0  0  0  0  0  0  0  0  0  0
   36.4430   30.2400   49.0270 N   0  0  0  0  0  0  0  0  0  0  0  0
   39.2895   33.0332   45.9467 H   0  0  0  0  0  0  0  0  0  0  0  0
   40.3734   30.3174   44.8859 H   0  0  0  0  0  0  0  0  0  0  0  0
   41.6741   30.0678   42.7441 H   0  0  0  0  0  0  0  0  0  0  0  0
   40.7204   30.9674   40.6653 H   0  0  0  0  0  0  0  0  0  0  0  0
   38.7954   34.1636   39.3269 H   0  0  0  0  0  0  0  0  0  0  0  0
   39.1579   31.9209   39.5418 H   0  0  0  0  0  0  0  0  0  0  0  0
   35.3495   32.6019   39.6031 H   0  0  0  0  0  0  0  0  0  0  0  0
   35.8543   32.4673   41.3172 H   0  0  0  0  0  0  0  0  0  0  0  0
   36.5024   34.6758   41.0521 H   0  0  0  0  0  0  0  0  0  0  0  0
   38.4213   33.8890   42.1644 H   0  0  0  0  0  0  0  0  0  0  0  0
   35.9289   35.5559   39.3362 H   0  0  0  0  0  0  0  0  0  0  0  0
   39.1495   30.5788   48.4187 H   0  0  0  0  0  0  0  0  0  0  0  0
   38.3757   33.5066   49.3858 H   0  0  0  0  0  0  0  0  0  0  0  0
   39.7172   33.5267   48.6152 H   0  0  0  0  0  0  0  0  0  0  0  0
   36.8733   32.4283   47.0922 H   0  0  0  0  0  0  0  0  0  0  0  0
   34.7228   29.1631   49.6239 H   0  0  0  0  0  0  0  0  0  0  0  0
   35.4456   28.9590   52.0464 H   0  0  0  0  0  0  0  0  0  0  0  0
   37.7021   30.0030   52.7248 H   0  0  0  0  0  0  0  0  0  0  0  0
  1  2  2  0
  1  3  1  0
  3 19  1  0
  4  5  2  0
  4  1  1  0
  6  5  1  0
  7  6  2  0
  8  7  1  0
  8  9  2  0
  9  4  1  0
 10 14  1  0
 10 11  1  0
 10 15  1  0
 11  8  1  0
 12 11  1  0
 12 13  1  0
 14 16  1  0
 14 13  1  0
 17 18  1  0
 17 24  1  0
 19 17  1  0
 19 18  1  0
 20 21  2  0
 21 22  1  0
 23 22  2  0
 24 23  1  0
 25 24  2  0
 25 20  1  0
  3 26  1  0
  5 27  1  0
  6 28  1  0
  7 29  1  0
 10 30  1  6
 11 31  1  6
 13 32  1  0
 13 33  1  0
 14 34  1  1
 15 35  1  0
 16 36  1  0
 17 37  1  6
 18 38  1  0
 18 39  1  0
 19 40  1  6
 20 41  1  0
 21 42  1  0
 22 43  1  0
M  ISO  8  27  14  28  14  29  14  30  13  31  13  32  13  33  13  34  13
M  ISO  8  35   3  36   3  37  13  38  13  39  13  40  13  41  14  42  14
M  ISO  1  43  14
M  END
>  <minimizedAffinity>  (1) 
-5.78948689

>  <minimizedRMSD>  (1) 
1.22600472

$$$$
