
     RDKit          3D

 30 32  0  0  1  0  0  0  0  0999 V2000
   37.5340   31.4690   47.8310 C   0  0  1  0  0  0  0  0  0  0  0  0
   38.4550   32.5820   47.8390 C   0  0  0  0  0  0  0  0  0  0  0  0
   39.0050   31.2040   47.4620 C   0  0  2  0  0  0  0  0  0  0  0  0
   35.7810   29.1060   50.1370 C   0  0  0  0  0  0  0  0  0  0  0  0
   36.1180   29.7590   48.9480 C   0  0  0  0  0  0  0  0  0  0  0  0
   37.1220   30.7240   49.0350 C   0  0  0  0  0  0  0  0  0  0  0  0
   37.7060   30.9690   50.2570 N   0  0  0  0  0  0  0  0  0  0  0  0
   37.3290   30.2960   51.3760 C   0  0  0  0  0  0  0  0  0  0  0  0
   36.3640   29.3590   51.3230 N   0  0  0  0  0  0  0  0  0  0  0  0
   40.6620   31.5140   45.5720 C   0  0  2  0  0  0  0  0  0  0  0  0
   39.3490   30.9660   46.0330 C   0  0  2  0  0  0  0  0  0  0  0  0
   38.4000   31.5040   45.1750 O   0  0  0  0  0  0  0  0  0  0  0  0
   38.9950   31.6200   43.9270 C   0  0  0  0  0  0  0  0  0  0  0  0
   40.4710   31.4860   44.0690 C   0  0  2  0  0  0  0  0  0  0  0  0
   41.7330   30.6830   45.8920 O   0  0  0  0  0  0  0  0  0  0  0  0
   40.8850   30.2530   43.5740 O   0  0  0  0  0  0  0  0  0  0  0  0
   36.5305   31.3979   47.3861 H   0  0  0  0  0  0  0  0  0  0  0  0
   38.3707   33.3630   47.0690 H   0  0  0  0  0  0  0  0  0  0  0  0
   38.7342   33.3378   48.5879 H   0  0  0  0  0  0  0  0  0  0  0  0
   39.8030   30.5321   47.8109 H   0  0  0  0  0  0  0  0  0  0  0  0
   34.9925   28.3399   50.1010 H   0  0  0  0  0  0  0  0  0  0  0  0
   35.6191   29.5250   47.9960 H   0  0  0  0  0  0  0  0  0  0  0  0
   37.8179   30.5195   52.3357 H   0  0  0  0  0  0  0  0  0  0  0  0
   40.8956   32.4896   46.0232 H   0  0  0  0  0  0  0  0  0  0  0  0
   39.3933   29.8676   45.9930 H   0  0  0  0  0  0  0  0  0  0  0  0
   38.7554   32.6033   43.4961 H   0  0  0  0  0  0  0  0  0  0  0  0
   38.6161   30.8282   43.2640 H   0  0  0  0  0  0  0  0  0  0  0  0
   41.0366   32.2605   43.5303 H   0  0  0  0  0  0  0  0  0  0  0  0
   41.8173   30.6176   46.8762 H   0  0  0  0  0  0  0  0  0  0  0  0
   41.0888   29.6459   44.3290 H   0  0  0  0  0  0  0  0  0  0  0  0
  1  2  1  0
  1  6  1  0
  3  1  1  0
  3  2  1  0
  4  9  2  0
  5  6  2  0
  5  4  1  0
  6  7  1  0
  7  8  2  0
  9  8  1  0
 10 15  1  0
 10 11  1  0
 11 12  1  0
 11  3  1  0
 13 14  1  0
 13 12  1  0
 14 16  1  0
 14 10  1  0
  1 17  1  6
  2 18  1  0
  2 19  1  0
  3 20  1  1
  4 21  1  0
  5 22  1  0
  8 23  1  0
 10 24  1  1
 11 25  1  1
 13 26  1  0
 13 27  1  0
 14 28  1  6
 15 29  1  0
 16 30  1  0
M  ISO  8  17  13  18  13  19  13  20  13  21  14  22  14  23  14  24  13
M  ISO  6  25  13  26  13  27  13  28  13  29   3  30   3
M  END
>  <minimizedAffinity>  (1) 
-5.86523628

>  <minimizedRMSD>  (1) 
3.17391539

$$$$
