
     RDKit          3D

 35 37  0  0  1  0  0  0  0  0999 V2000
   39.0580   31.0730   45.9060 C   0  0  1  0  0  0  0  0  0  0  0  0
   38.8980   30.8760   44.3920 C   0  0  2  0  0  0  0  0  0  0  0  0
   39.9770   31.8480   43.9770 C   0  0  0  0  0  0  0  0  0  0  0  0
   41.0540   31.5980   44.8080 O   0  0  0  0  0  0  0  0  0  0  0  0
   40.5940   31.0100   45.9580 C   0  0  0  0  0  0  0  0  0  0  0  0
   37.5510   31.2190   43.9350 C   0  0  0  0  0  0  0  0  0  0  0  0
   36.4710   30.3350   44.1720 C   0  0  0  0  0  0  0  0  0  0  0  0
   35.2270   30.7430   43.6790 C   0  0  0  0  0  0  0  0  0  0  0  0
   35.1100   31.9370   43.0110 N   0  0  0  0  0  0  0  0  0  0  0  0
   36.1810   32.7480   42.8100 C   0  0  0  0  0  0  0  0  0  0  0  0
   37.3990   32.3820   43.2760 N   0  0  0  0  0  0  0  0  0  0  0  0
   38.7300   32.3330   46.3000 O   0  0  0  0  0  0  0  0  0  0  0  0
   37.3720   31.0440   47.8140 C   0  0  1  0  0  0  0  0  0  0  0  0
   37.8490   32.3910   47.3510 C   0  0  1  0  0  0  0  0  0  0  0  0
   38.3940   33.0580   48.4060 O   0  0  0  0  0  0  0  0  0  0  0  0
   37.9890   32.4740   49.5840 C   0  0  0  0  0  0  0  0  0  0  0  0
   37.6210   31.0470   49.3000 C   0  0  2  0  0  0  0  0  0  0  0  0
   36.0270   30.8390   47.5560 O   0  0  0  0  0  0  0  0  0  0  0  0
   38.6290   30.1420   49.6620 O   0  0  0  0  0  0  0  0  0  0  0  0
   38.4590   30.3789   46.5138 H   0  0  0  0  0  0  0  0  0  0  0  0
   39.0012   29.8580   43.9882 H   0  0  0  0  0  0  0  0  0  0  0  0
   40.2579   31.6819   42.9265 H   0  0  0  0  0  0  0  0  0  0  0  0
   39.6354   32.8902   44.0618 H   0  0  0  0  0  0  0  0  0  0  0  0
   40.9658   31.5562   46.8374 H   0  0  0  0  0  0  0  0  0  0  0  0
   40.9438   29.9701   46.0366 H   0  0  0  0  0  0  0  0  0  0  0  0
   36.6020   29.3851   44.7110 H   0  0  0  0  0  0  0  0  0  0  0  0
   34.3419   30.1068   43.8266 H   0  0  0  0  0  0  0  0  0  0  0  0
   36.0595   33.6989   42.2705 H   0  0  0  0  0  0  0  0  0  0  0  0
   37.8979   30.2358   47.2846 H   0  0  0  0  0  0  0  0  0  0  0  0
   36.9729   32.9343   46.9674 H   0  0  0  0  0  0  0  0  0  0  0  0
   38.8084   32.5080   50.3171 H   0  0  0  0  0  0  0  0  0  0  0  0
   37.1240   33.0136   49.9969 H   0  0  0  0  0  0  0  0  0  0  0  0
   36.7512   30.7166   49.8867 H   0  0  0  0  0  0  0  0  0  0  0  0
   35.5346   30.7639   48.4116 H   0  0  0  0  0  0  0  0  0  0  0  0
   38.6869   30.0900   50.6489 H   0  0  0  0  0  0  0  0  0  0  0  0
  1  5  1  0
  1 12  1  0
  2  1  1  0
  3  2  1  0
  3  4  1  0
  4  5  1  0
  6  7  2  0
  6  2  1  0
  8  7  1  0
  9  8  2  0
 10  9  1  0
 10 11  2  0
 11  6  1  0
 13 18  1  0
 13 17  1  0
 14 12  1  0
 14 13  1  0
 14 15  1  0
 15 16  1  0
 17 16  1  0
 17 19  1  0
  1 20  1  1
  2 21  1  1
  3 22  1  0
  3 23  1  0
  5 24  1  0
  5 25  1  0
  7 26  1  0
  8 27  1  0
 10 28  1  0
 13 29  1  6
 14 30  1  6
 16 31  1  0
 16 32  1  0
 17 33  1  1
 18 34  1  0
 19 35  1  0
M  ISO  8  20  13  21  13  22  13  23  13  24  13  25  13  26  14  27  14
M  ISO  8  28  14  29  13  30  13  31  13  32  13  33  13  34   3  35   3
M  END
>  <minimizedAffinity>  (1) 
-4.73172808

>  <minimizedRMSD>  (1) 
4.64829111

$$$$
