
     RDKit          3D

 42 44  0  0  1  0  0  0  0  0999 V2000
   33.1740   27.2870   45.8660 C   0  0  1  0  0  0  0  0  0  0  0  0
   33.9180   27.4550   47.2120 C   0  0  2  0  0  0  0  0  0  0  0  0
   33.7740   26.2410   47.8030 O   0  0  0  0  0  0  0  0  0  0  0  0
   34.0500   25.3290   46.7980 C   0  0  0  0  0  0  0  0  0  0  0  0
   33.5520   25.8920   45.4940 C   0  0  2  0  0  0  0  0  0  0  0  0
   31.8180   27.4950   46.0360 O   0  0  0  0  0  0  0  0  0  0  0  0
   33.2990   28.5120   47.8130 O   0  0  0  0  0  0  0  0  0  0  0  0
   35.3540   29.7980   46.7730 O   0  0  0  0  0  0  0  0  0  0  0  0
   34.0920   29.9810   47.6040 P   0  0  1  0  0  0  0  0  0  0  0  0
   33.1200   31.0380   46.7070 O   0  0  0  0  0  0  0  0  0  0  0  0
   34.3910   30.6070   49.1620 O   0  0  0  0  0  0  0  0  0  0  0  0
   35.6210   30.4920   49.7790 C   0  0  0  0  0  0  0  0  0  0  0  0
   35.9600   29.4790   50.7000 C   0  0  0  0  0  0  0  0  0  0  0  0
   37.2420   29.4930   51.2410 C   0  0  0  0  0  0  0  0  0  0  0  0
   38.0980   30.4800   50.8560 N   0  0  0  0  0  0  0  0  0  0  0  0
   37.7470   31.4480   49.9650 C   0  0  0  0  0  0  0  0  0  0  0  0
   36.4970   31.4480   49.4240 N   0  0  0  0  0  0  0  0  0  0  0  0
   34.5640   25.8930   44.5480 O   0  0  0  0  0  0  0  0  0  0  0  0
   36.4290   24.4610   44.0230 C   0  0  2  0  0  0  0  0  0  0  0  0
   34.9420   24.6260   44.1160 C   0  0  2  0  0  0  0  0  0  0  0  0
   34.3710   24.2510   42.9220 O   0  0  0  0  0  0  0  0  0  0  0  0
   35.3750   24.0120   42.0090 C   0  0  0  0  0  0  0  0  0  0  0  0
   36.5650   23.5560   42.8130 C   0  0  1  0  0  0  0  0  0  0  0  0
   36.9810   23.7670   45.0920 O   0  0  0  0  0  0  0  0  0  0  0  0
   37.7730   23.8460   42.1820 O   0  0  0  0  0  0  0  0  0  0  0  0
   33.4363   28.0053   45.0753 H   0  0  0  0  0  0  0  0  0  0  0  0
   34.9925   27.6904   47.2061 H   0  0  0  0  0  0  0  0  0  0  0  0
   35.1352   25.1589   46.7387 H   0  0  0  0  0  0  0  0  0  0  0  0
   33.5522   24.3713   47.0103 H   0  0  0  0  0  0  0  0  0  0  0  0
   32.7250   25.3175   45.0512 H   0  0  0  0  0  0  0  0  0  0  0  0
   31.6078   27.5273   47.0029 H   0  0  0  0  0  0  0  0  0  0  0  0
   32.5958   31.6080   47.3238 H   0  0  0  0  0  0  0  0  0  0  0  0
   35.2338   28.7023   50.9818 H   0  0  0  0  0  0  0  0  0  0  0  0
   37.5567   28.7249   51.9627 H   0  0  0  0  0  0  0  0  0  0  0  0
   38.4704   32.2272   49.6831 H   0  0  0  0  0  0  0  0  0  0  0  0
   36.9301   25.4397   43.9891 H   0  0  0  0  0  0  0  0  0  0  0  0
   34.5559   23.9577   44.8998 H   0  0  0  0  0  0  0  0  0  0  0  0
   35.6165   24.9320   41.4564 H   0  0  0  0  0  0  0  0  0  0  0  0
   35.0752   23.2565   41.2678 H   0  0  0  0  0  0  0  0  0  0  0  0
   36.5772   22.4717   42.9979 H   0  0  0  0  0  0  0  0  0  0  0  0
   36.6650   24.1643   45.9419 H   0  0  0  0  0  0  0  0  0  0  0  0
   38.4701   24.0133   42.8647 H   0  0  0  0  0  0  0  0  0  0  0  0
  1  6  1  0
  1  2  1  0
  2  3  1  0
  2  7  1  0
  4  3  1  0
  5  1  1  0
  5  4  1  0
  9  8  2  0
  9  7  1  0
  9 11  1  0
 10  9  1  0
 11 12  1  0
 12 13  2  0
 13 14  1  0
 15 14  2  0
 16 15  1  0
 17 12  1  0
 17 16  2  0
 18  5  1  0
 19 20  1  0
 19 24  1  0
 20 18  1  0
 21 20  1  0
 22 23  1  0
 22 21  1  0
 23 25  1  0
 23 19  1  0
  1 26  1  6
  2 27  1  6
  4 28  1  0
  4 29  1  0
  5 30  1  6
  6 31  1  0
 10 32  1  0
 13 33  1  0
 14 34  1  0
 16 35  1  0
 19 36  1  6
 20 37  1  1
 22 38  1  0
 22 39  1  0
 23 40  1  1
 24 41  1  0
 25 42  1  0
M  ISO  8  26  13  27  13  28  13  29  13  30  13  31   3  32   3  33  14
M  ISO  8  34  14  35  14  36  13  37  13  38  13  39  13  40  13  41   3
M  ISO  1  42   3
M  END
>  <minimizedAffinity>  (1) 
-4.20438719

>  <minimizedRMSD>  (1) 
1.23324049

$$$$
