
     RDKit          3D

 24 25  0  0  0  0  0  0  0  0999 V2000
   38.5650   31.9790   48.1320 C   0  0  0  0  0  0  0  0  0  0  0  0
   39.0920   33.0600   48.5340 O   0  0  0  0  0  0  0  0  0  0  0  0
   38.8060   31.8330   46.7380 N   0  0  0  0  0  0  0  0  0  0  0  0
   39.5420   32.8230   46.0290 C   0  0  0  0  0  0  0  0  0  0  0  0
   40.7510   32.3090   45.3070 C   0  0  0  0  0  0  0  0  0  0  0  0
   40.8190   30.9020   45.1420 N   0  0  0  0  0  0  0  0  0  0  0  0
   39.5610   30.2290   45.0110 C   0  0  0  0  0  0  0  0  0  0  0  0
   38.4430   30.8160   45.7870 C   0  0  0  0  0  0  0  0  0  0  0  0
   37.4100   30.0420   51.0540 C   0  0  0  0  0  0  0  0  0  0  0  0
   38.1540   30.9690   50.3050 C   0  0  0  0  0  0  0  0  0  0  0  0
   37.8330   31.0420   48.9560 C   0  0  0  0  0  0  0  0  0  0  0  0
   36.8610   30.2500   48.4530 N   0  0  0  0  0  0  0  0  0  0  0  0
   36.1760   29.3800   49.2000 C   0  0  0  0  0  0  0  0  0  0  0  0
   36.4520   29.2780   50.5000 N   0  0  0  0  0  0  0  0  0  0  0  0
   38.8713   33.2837   45.2888 H   0  0  0  0  0  0  0  0  0  0  0  0
   39.9101   33.5348   46.7826 H   0  0  0  0  0  0  0  0  0  0  0  0
   40.7674   32.7673   44.3072 H   0  0  0  0  0  0  0  0  0  0  0  0
   41.6120   32.5782   45.9364 H   0  0  0  0  0  0  0  0  0  0  0  0
   41.7159   30.3961   45.1179 H   0  0  0  0  0  0  0  0  0  0  0  0
   39.4337   29.3382   44.3783 H   0  0  0  0  0  0  0  0  0  0  0  0
   37.4008   30.4943   45.6448 H   0  0  0  0  0  0  0  0  0  0  0  0
   37.6180   29.9377   52.1291 H   0  0  0  0  0  0  0  0  0  0  0  0
   38.9379   31.5947   50.7567 H   0  0  0  0  0  0  0  0  0  0  0  0
   35.3926   28.7545   48.7472 H   0  0  0  0  0  0  0  0  0  0  0  0
  1  2  2  0
  1 11  1  0
  3  1  1  0
  4  3  1  0
  5  4  1  0
  6  5  1  0
  7  6  1  0
  7  8  2  0
  8  3  1  0
 10  9  2  0
 11 10  1  0
 12 11  2  0
 12 13  1  0
 13 14  2  0
 14  9  1  0
  4 15  1  0
  4 16  1  0
  5 17  1  0
  5 18  1  0
  6 19  1  0
  7 20  1  0
  8 21  1  0
  9 22  1  0
 10 23  1  0
 13 24  1  0
M  ISO  8  15  13  16  13  17  13  18  13  20  13  21  13  22  14  23  14
M  ISO  1  24  14
M  END
>  <minimizedAffinity>  (1) 
-5.29080057

>  <minimizedRMSD>  (1) 
1.58229351

$$$$
