
     RDKit          3D

 38 40  0  0  1  0  0  0  0  0999 V2000
   36.6650   30.1100   49.0080 N   0  0  0  0  0  0  0  0  0  0  0  0
   37.1270   31.4770   48.8670 C   0  0  1  0  0  0  0  0  0  0  0  0
   37.7400   31.7180   50.2440 C   0  0  0  0  0  0  0  0  0  0  0  0
   37.3700   30.4950   51.0990 C   0  0  0  0  0  0  0  0  0  0  0  0
   37.4510   29.4240   50.0130 C   0  0  0  0  0  0  0  0  0  0  0  0
   38.0750   31.6900   47.7900 C   0  0  0  0  0  0  0  0  0  0  0  0
   39.1270   32.2520   48.0240 O   0  0  0  0  0  0  0  0  0  0  0  0
   38.4190   31.5540   46.4280 N   0  0  0  0  0  0  0  0  0  0  0  0
   39.3860   30.5800   45.9760 C   0  0  0  0  0  0  0  0  0  0  0  0
   40.5460   31.3710   45.3520 C   0  0  0  0  0  0  0  0  0  0  0  0
   40.0570   31.8530   44.0750 N   0  0  0  0  0  0  0  0  0  0  0  0
   39.0220   32.8140   44.3800 C   0  0  0  0  0  0  0  0  0  0  0  0
   37.9440   32.2720   45.2540 C   0  0  0  0  0  0  0  0  0  0  0  0
   35.5900   29.5510   48.2610 C   0  0  0  0  0  0  0  0  0  0  0  0
   35.1780   30.1780   47.0960 C   0  0  0  0  0  0  0  0  0  0  0  0
   34.1380   29.6690   46.3330 C   0  0  0  0  0  0  0  0  0  0  0  0
   33.5550   28.5070   46.8190 N   0  0  0  0  0  0  0  0  0  0  0  0
   33.9660   27.9120   47.9490 C   0  0  0  0  0  0  0  0  0  0  0  0
   34.9850   28.4480   48.6580 N   0  0  0  0  0  0  0  0  0  0  0  0
   36.3231   32.1735   48.5866 H   0  0  0  0  0  0  0  0  0  0  0  0
   38.8332   31.8104   50.1638 H   0  0  0  0  0  0  0  0  0  0  0  0
   37.3635   32.6491   50.6927 H   0  0  0  0  0  0  0  0  0  0  0  0
   38.0950   30.3204   51.9077 H   0  0  0  0  0  0  0  0  0  0  0  0
   36.4112   30.5598   51.6343 H   0  0  0  0  0  0  0  0  0  0  0  0
   36.9923   28.4747   50.3267 H   0  0  0  0  0  0  0  0  0  0  0  0
   38.4619   29.1128   49.7111 H   0  0  0  0  0  0  0  0  0  0  0  0
   39.7479   29.9819   46.8253 H   0  0  0  0  0  0  0  0  0  0  0  0
   38.9405   29.8871   45.2470 H   0  0  0  0  0  0  0  0  0  0  0  0
   40.8244   32.2161   45.9988 H   0  0  0  0  0  0  0  0  0  0  0  0
   41.4425   30.7451   45.2309 H   0  0  0  0  0  0  0  0  0  0  0  0
   39.6703   31.0741   43.5230 H   0  0  0  0  0  0  0  0  0  0  0  0
   39.4838   33.6727   44.8892 H   0  0  0  0  0  0  0  0  0  0  0  0
   38.5526   33.0964   43.4261 H   0  0  0  0  0  0  0  0  0  0  0  0
   37.3229   33.1135   45.5946 H   0  0  0  0  0  0  0  0  0  0  0  0
   37.3875   31.5429   44.6468 H   0  0  0  0  0  0  0  0  0  0  0  0
   35.6859   31.0976   46.7700 H   0  0  0  0  0  0  0  0  0  0  0  0
   33.7982   30.1532   45.4056 H   0  0  0  0  0  0  0  0  0  0  0  0
   33.4756   26.9911   48.2976 H   0  0  0  0  0  0  0  0  0  0  0  0
  1  5  1  0
  2  1  1  0
  2  3  1  0
  3  4  1  0
  5  4  1  0
  6  7  2  0
  6  2  1  0
  8  6  1  0
  9  8  1  0
 10  9  1  0
 11 12  1  0
 11 10  1  0
 12 13  1  0
 13  8  1  0
 14 19  1  0
 14  1  1  0
 15 14  2  0
 16 17  2  0
 16 15  1  0
 17 18  1  0
 18 19  2  0
  2 20  1  6
  3 21  1  0
  3 22  1  0
  4 23  1  0
  4 24  1  0
  5 25  1  0
  5 26  1  0
  9 27  1  0
  9 28  1  0
 10 29  1  0
 10 30  1  0
 11 31  1  0
 12 32  1  0
 12 33  1  0
 13 34  1  0
 13 35  1  0
 15 36  1  0
 16 37  1  0
 18 38  1  0
M  ISO  8  20  13  21  13  22  13  23  13  24  13  25  13  26  13  27  13
M  ISO  8  28  13  29  13  30  13  31   5  32  13  33  13  34  13  35  13
M  ISO  3  36  14  37  14  38  14
M  END
>  <minimizedAffinity>  (1) 
-5.72668839

>  <minimizedRMSD>  (1) 
1.28905571

$$$$
