
     RDKit          3D

 46 50  0  0  1  0  0  0  0  0999 V2000
   36.3910   30.4440   45.9270 C   0  0  0  0  0  0  0  0  0  0  0  0
   36.9560   30.7450   47.1200 C   0  0  0  0  0  0  0  0  0  0  0  0
   36.3210   30.4150   48.3120 C   0  0  0  0  0  0  0  0  0  0  0  0
   35.0890   29.7660   48.2440 C   0  0  0  0  0  0  0  0  0  0  0  0
   34.5090   29.4580   47.0170 C   0  0  0  0  0  0  0  0  0  0  0  0
   35.1950   29.8150   45.9030 N   0  0  0  0  0  0  0  0  0  0  0  0
   37.0610   30.7920   44.6280 C   0  0  0  0  0  0  0  0  0  0  0  0
   36.7570   29.9790   43.4280 C   0  0  0  0  0  0  0  0  0  0  0  0
   36.2000   31.3790   43.5400 C   0  0  0  0  0  0  0  0  0  0  0  0
   39.7460   33.3110   44.9540 C   0  0  0  0  0  0  0  0  0  0  0  0
   40.8690   32.5280   45.2630 C   0  0  0  0  0  0  0  0  0  0  0  0
   40.6830   31.1380   45.3550 C   0  0  0  0  0  0  0  0  0  0  0  0
   39.4490   30.6350   45.1440 N   0  0  0  0  0  0  0  0  0  0  0  0
   38.3850   31.4180   44.8470 C   0  0  0  0  0  0  0  0  0  0  0  0
   38.5310   32.7450   44.7530 N   0  0  0  0  0  0  0  0  0  0  0  0
   33.2200   28.7790   46.8760 C   0  0  0  0  0  0  0  0  0  0  0  0
   32.7110   28.0340   45.8600 N   0  0  0  0  0  0  0  0  0  0  0  0
   31.4680   27.6230   46.2140 C   0  0  0  0  0  0  0  0  0  0  0  0
   31.1970   28.1140   47.4620 N   0  0  0  0  0  0  0  0  0  0  0  0
   32.2600   28.8050   47.8430 N   0  0  0  0  0  0  0  0  0  0  0  0
   29.1010   29.0500   48.1580 N   0  0  0  0  0  0  0  0  0  0  0  0
   29.9960   27.9250   48.2220 C   0  0  2  0  0  0  0  0  0  0  0  0
   30.2700   27.6410   49.6840 C   0  0  0  0  0  0  0  0  0  0  0  0
   29.1260   28.0330   50.4490 N   0  0  0  0  0  0  0  0  0  0  0  0
   27.8590   27.8470   49.7820 C   0  0  0  0  0  0  0  0  0  0  0  0
   27.7580   28.6260   48.5020 C   0  0  0  0  0  0  0  0  0  0  0  0
   37.9293   31.2569   47.1465 H   0  0  0  0  0  0  0  0  0  0  0  0
   36.7782   30.6593   49.2822 H   0  0  0  0  0  0  0  0  0  0  0  0
   34.5679   29.4934   49.1736 H   0  0  0  0  0  0  0  0  0  0  0  0
   36.0840   29.1126   43.5082 H   0  0  0  0  0  0  0  0  0  0  0  0
   37.3614   29.4427   42.6816 H   0  0  0  0  0  0  0  0  0  0  0  0
   36.5904   32.1828   42.8985 H   0  0  0  0  0  0  0  0  0  0  0  0
   35.1987   31.8317   43.4898 H   0  0  0  0  0  0  0  0  0  0  0  0
   39.8538   34.4028   44.8736 H   0  0  0  0  0  0  0  0  0  0  0  0
   41.8563   32.9845   45.4268 H   0  0  0  0  0  0  0  0  0  0  0  0
   41.5264   30.4736   45.5942 H   0  0  0  0  0  0  0  0  0  0  0  0
   30.7948   27.0028   45.6039 H   0  0  0  0  0  0  0  0  0  0  0  0
   29.4123   29.7734   48.8219 H   0  0  0  0  0  0  0  0  0  0  0  0
   29.5192   27.0522   47.7521 H   0  0  0  0  0  0  0  0  0  0  0  0
   30.4582   26.5662   49.8235 H   0  0  0  0  0  0  0  0  0  0  0  0
   31.1544   28.2044   50.0162 H   0  0  0  0  0  0  0  0  0  0  0  0
   29.1156   27.4786   51.3170 H   0  0  0  0  0  0  0  0  0  0  0  0
   27.7348   26.7780   49.5541 H   0  0  0  0  0  0  0  0  0  0  0  0
   27.0713   28.2132   50.4569 H   0  0  0  0  0  0  0  0  0  0  0  0
   27.1093   29.5031   48.6435 H   0  0  0  0  0  0  0  0  0  0  0  0
   27.3228   28.0107   47.7008 H   0  0  0  0  0  0  0  0  0  0  0  0
  1  2  2  0
  2  3  1  0
  4  3  2  0
  5  4  1  0
  6  1  1  0
  6  5  2  0
  7 14  1  0
  7  1  1  0
  8  9  1  0
  8  7  1  0
  9  7  1  0
 10 11  2  0
 11 12  1  0
 13 12  2  0
 14 13  1  0
 15 14  2  0
 15 10  1  0
 16  5  1  0
 16 20  2  0
 17 18  2  0
 17 16  1  0
 18 19  1  0
 19 20  1  0
 21 22  1  0
 21 26  1  0
 22 19  1  0
 22 23  1  0
 23 24  1  0
 25 24  1  0
 26 25  1  0
  2 27  1  0
  3 28  1  0
  4 29  1  0
  8 30  1  0
  8 31  1  0
  9 32  1  0
  9 33  1  0
 10 34  1  0
 11 35  1  0
 12 36  1  0
 18 37  1  0
 21 38  1  0
 22 39  1  6
 23 40  1  0
 23 41  1  0
 24 42  1  0
 25 43  1  0
 25 44  1  0
 26 45  1  0
 26 46  1  0
M  ISO  8  27  14  28  14  29  14  30  13  31  13  32  13  33  13  34  14
M  ISO  8  35  14  36  14  37  14  38   5  39  13  40  13  41  13  42   5
M  ISO  4  43  13  44  13  45  13  46  13
M  END
>  <minimizedAffinity>  (1) 
-6.08416748

>  <minimizedRMSD>  (1) 
1.19932795

$$$$
