
     RDKit          3D

 38 40  0  0  0  0  0  0  0  0999 V2000
   37.1060   31.3660   48.5690 C   0  0  0  0  0  0  0  0  0  0  0  0
   37.2090   32.3670   49.5210 C   0  0  0  0  0  0  0  0  0  0  0  0
   38.1680   33.3580   49.3670 C   0  0  0  0  0  0  0  0  0  0  0  0
   39.0090   33.3400   48.2710 C   0  0  0  0  0  0  0  0  0  0  0  0
   38.8800   32.3320   47.3450 C   0  0  0  0  0  0  0  0  0  0  0  0
   37.9450   31.3880   47.5200 N   0  0  0  0  0  0  0  0  0  0  0  0
   39.7260   32.3000   46.2280 N   0  0  0  0  0  0  0  0  0  0  0  0
   40.3420   31.0540   45.8210 C   0  0  0  0  0  0  0  0  0  0  0  0
   40.9150   31.3240   44.4280 C   0  0  0  0  0  0  0  0  0  0  0  0
   39.8520   31.8970   43.6530 N   0  0  0  0  0  0  0  0  0  0  0  0
   39.7190   33.2880   43.9740 C   0  0  0  0  0  0  0  0  0  0  0  0
   40.0230   33.4790   45.4380 C   0  0  0  0  0  0  0  0  0  0  0  0
   35.1560   28.6240   50.2330 C   0  0  0  0  0  0  0  0  0  0  0  0
   36.1990   29.5530   49.9560 C   0  0  0  0  0  0  0  0  0  0  0  0
   36.0570   30.4080   48.8750 C   0  0  0  0  0  0  0  0  0  0  0  0
   34.9150   30.3210   48.1180 N   0  0  0  0  0  0  0  0  0  0  0  0
   33.9420   29.4110   48.4250 C   0  0  0  0  0  0  0  0  0  0  0  0
   34.0460   28.5780   49.4540 N   0  0  0  0  0  0  0  0  0  0  0  0
   32.8620   29.5120   47.5000 N   0  0  0  0  0  0  0  0  0  0  0  0
   37.3910   29.5500   50.8530 C   0  0  0  0  0  0  0  0  0  0  0  0
   38.5550   29.8210   50.1290 F   0  0  0  0  0  0  0  0  0  0  0  0
   37.2330   30.5250   51.7880 F   0  0  0  0  0  0  0  0  0  0  0  0
   37.5840   28.3470   51.4950 F   0  0  0  0  0  0  0  0  0  0  0  0
   36.5365   32.3762   50.3914 H   0  0  0  0  0  0  0  0  0  0  0  0
   38.2586   34.1575   50.1171 H   0  0  0  0  0  0  0  0  0  0  0  0
   39.7717   34.1219   48.1410 H   0  0  0  0  0  0  0  0  0  0  0  0
   41.1439   30.7741   46.5200 H   0  0  0  0  0  0  0  0  0  0  0  0
   39.6215   30.2228   45.8144 H   0  0  0  0  0  0  0  0  0  0  0  0
   41.7585   32.0270   44.4940 H   0  0  0  0  0  0  0  0  0  0  0  0
   41.2892   30.3985   43.9661 H   0  0  0  0  0  0  0  0  0  0  0  0
   38.9702   31.4098   43.8675 H   0  0  0  0  0  0  0  0  0  0  0  0
   40.4253   33.8762   43.3698 H   0  0  0  0  0  0  0  0  0  0  0  0
   38.6948   33.6257   43.7574 H   0  0  0  0  0  0  0  0  0  0  0  0
   41.0914   33.7166   45.5478 H   0  0  0  0  0  0  0  0  0  0  0  0
   39.3855   34.2961   45.8066 H   0  0  0  0  0  0  0  0  0  0  0  0
   35.2511   27.9370   51.0868 H   0  0  0  0  0  0  0  0  0  0  0  0
   32.0446   28.8923   47.5930 H   0  0  0  0  0  0  0  0  0  0  0  0
   32.8991   30.2047   46.7386 H   0  0  0  0  0  0  0  0  0  0  0  0
  1 15  1  0
  1  2  2  0
  3  2  1  0
  4  3  2  0
  5  6  2  0
  5  4  1  0
  6  1  1  0
  7  5  1  0
  8  7  1  0
  9  8  1  0
 10 11  1  0
 10  9  1  0
 11 12  1  0
 12  7  1  0
 14 13  2  0
 14 20  1  0
 15 14  1  0
 16 17  1  0
 16 15  2  0
 17 18  2  0
 18 13  1  0
 19 17  1  0
 20 23  1  0
 20 22  1  0
 21 20  1  0
  2 24  1  0
  3 25  1  0
  4 26  1  0
  8 27  1  0
  8 28  1  0
  9 29  1  0
  9 30  1  0
 10 31  1  0
 11 32  1  0
 11 33  1  0
 12 34  1  0
 12 35  1  0
 13 36  1  0
 19 37  1  0
 19 38  1  0
M  ISO  8  24  14  25  14  26  14  27  13  28  13  29  13  30  13  31   5
M  ISO  5  32  13  33  13  34  13  35  13  36  14
M  END
>  <minimizedAffinity>  (1) 
-7.79194832

>  <minimizedRMSD>  (1) 
0.411712289

$$$$
