
     RDKit          3D

 48 50  0  0  1  0  0  0  0  0999 V2000
   37.4070   30.2770   48.6740 Cl  0  0  0  0  0  0  0  0  0  0  0  0
   36.2840   30.1620   47.3230 C   0  0  0  0  0  0  0  0  0  0  0  0
   36.6710   30.5980   46.0930 C   0  0  0  0  0  0  0  0  0  0  0  0
   35.8080   30.5140   45.0340 C   0  0  0  0  0  0  0  0  0  0  0  0
   34.5480   29.9820   45.2400 C   0  0  0  0  0  0  0  0  0  0  0  0
   34.1990   29.5480   46.5200 C   0  0  0  0  0  0  0  0  0  0  0  0
   35.0440   29.6250   47.5860 C   0  0  0  0  0  0  0  0  0  0  0  0
   39.6550   32.7700   46.2940 C   0  0  0  0  0  0  0  0  0  0  0  0
   40.5340   32.1060   45.3980 C   0  0  0  0  0  0  0  0  0  0  0  0
   40.0670   30.9430   44.7640 C   0  0  0  0  0  0  0  0  0  0  0  0
   38.8090   30.5030   45.0280 N   0  0  0  0  0  0  0  0  0  0  0  0
   38.0010   31.1600   45.8850 C   0  0  0  0  0  0  0  0  0  0  0  0
   38.4270   32.2790   46.5070 N   0  0  0  0  0  0  0  0  0  0  0  0
   40.9590   30.2990   43.8770 N   0  0  0  0  0  0  0  0  0  0  0  0
   34.6620   29.1760   48.9060 C   0  0  0  0  0  0  0  0  0  0  0  0
   33.7400   28.0550   49.0450 C   0  0  0  0  0  0  0  0  0  0  0  0
   32.4990   28.4550   49.4740 O   0  0  0  0  0  0  0  0  0  0  0  0
   31.8640   26.4420   47.8980 O   0  0  0  0  0  0  0  0  0  0  0  0
   31.2980   27.5960   48.6880 P   0  0  2  0  0  0  0  0  0  0  0  0
   30.5030   28.7100   47.6500 O   0  0  0  0  0  0  0  0  0  0  0  0
   30.1360   27.0190   49.7400 O   0  0  0  0  0  0  0  0  0  0  0  0
   28.8960   28.9010   50.2670 N   0  0  0  0  0  0  0  0  0  0  0  0
   28.9540   27.7030   49.4170 C   0  0  2  0  0  0  0  0  0  0  0  0
   27.7190   26.8990   49.6330 C   0  0  0  0  0  0  0  0  0  0  0  0
   26.6860   27.7760   50.1530 N   0  0  0  0  0  0  0  0  0  0  0  0
   26.6640   29.0630   49.4750 C   0  0  0  0  0  0  0  0  0  0  0  0
   27.9690   29.7920   49.5520 C   0  0  0  0  0  0  0  0  0  0  0  0
   36.1113   30.8636   44.0361 H   0  0  0  0  0  0  0  0  0  0  0  0
   33.8324   29.9022   44.4084 H   0  0  0  0  0  0  0  0  0  0  0  0
   33.1958   29.1244   46.6751 H   0  0  0  0  0  0  0  0  0  0  0  0
   39.9813   33.6843   46.8113 H   0  0  0  0  0  0  0  0  0  0  0  0
   41.5470   32.4897   45.2068 H   0  0  0  0  0  0  0  0  0  0  0  0
   41.9006   30.6866   43.7220 H   0  0  0  0  0  0  0  0  0  0  0  0
   40.6675   29.4421   43.3855 H   0  0  0  0  0  0  0  0  0  0  0  0
   35.5882   28.8950   49.4287 H   0  0  0  0  0  0  0  0  0  0  0  0
   34.0970   30.0269   49.3144 H   0  0  0  0  0  0  0  0  0  0  0  0
   33.6347   27.5597   48.0685 H   0  0  0  0  0  0  0  0  0  0  0  0
   34.1533   27.3691   49.7991 H   0  0  0  0  0  0  0  0  0  0  0  0
   30.0226   29.3831   48.1943 H   0  0  0  0  0  0  0  0  0  0  0  0
   28.5344   28.6698   51.2033 H   0  0  0  0  0  0  0  0  0  0  0  0
   28.9837   27.9420   48.3437 H   0  0  0  0  0  0  0  0  0  0  0  0
   27.3892   26.4613   48.6792 H   0  0  0  0  0  0  0  0  0  0  0  0
   27.9179   26.0853   50.3460 H   0  0  0  0  0  0  0  0  0  0  0  0
   25.7707   27.3202   50.0289 H   0  0  0  0  0  0  0  0  0  0  0  0
   25.8862   29.6885   49.9373 H   0  0  0  0  0  0  0  0  0  0  0  0
   26.4600   28.8690   48.4116 H   0  0  0  0  0  0  0  0  0  0  0  0
   28.3474   30.0040   48.5411 H   0  0  0  0  0  0  0  0  0  0  0  0
   27.8595   30.7558   50.0708 H   0  0  0  0  0  0  0  0  0  0  0  0
  2  7  2  0
  2  1  1  0
  3  2  1  0
  4  5  1  0
  4  3  2  0
  5  6  2  0
  6  7  1  0
  7 15  1  0
  8 13  2  0
  9  8  1  0
 10 11  1  0
 10  9  2  0
 11 12  2  0
 12  3  1  0
 12 13  1  0
 14 10  1  0
 15 16  1  0
 16 17  1  0
 19 18  2  0
 19 17  1  0
 19 21  1  0
 20 19  1  0
 23 24  1  0
 23 21  1  0
 23 22  1  0
 24 25  1  0
 26 27  1  0
 26 25  1  0
 27 22  1  0
  4 28  1  0
  5 29  1  0
  6 30  1  0
  8 31  1  0
  9 32  1  0
 14 33  1  0
 14 34  1  0
 15 35  1  0
 15 36  1  0
 16 37  1  0
 16 38  1  0
 20 39  1  0
 22 40  1  0
 23 41  1  6
 24 42  1  0
 24 43  1  0
 25 44  1  0
 26 45  1  0
 26 46  1  0
 27 47  1  0
 27 48  1  0
M  ISO  8  28  14  29  14  30  14  31  14  32  14  35   8  36   8  37   8
M  ISO  8  38   8  39   3  40   5  41  13  42  13  43  13  44   5  45  13
M  ISO  3  46  13  47  13  48  13
M  END
>  <minimizedAffinity>  (1) 
-6.54858685

>  <minimizedRMSD>  (1) 
2.29070687

$$$$
