
     RDKit          3D

 41 44  0  0  1  0  0  0  0  0999 V2000
   35.2070   29.1930   50.5700 C   0  0  0  0  0  0  0  0  0  0  0  0
   34.2710   29.0810   49.4250 C   0  0  0  0  0  0  0  0  0  0  0  0
   34.3930   29.8420   48.2690 C   0  0  0  0  0  0  0  0  0  0  0  0
   33.4360   29.5590   47.3810 N   0  0  0  0  0  0  0  0  0  0  0  0
   32.6930   28.5960   47.9920 C   0  0  0  0  0  0  0  0  0  0  0  0
   33.2000   28.3220   49.2050 N   0  0  0  0  0  0  0  0  0  0  0  0
   31.5980   28.1560   47.1600 N   0  0  0  0  0  0  0  0  0  0  0  0
   31.1950   26.7590   46.9760 C   0  0  0  0  0  0  0  0  0  0  0  0
   29.7640   26.6410   47.4950 C   0  0  0  0  0  0  0  0  0  0  0  0
   28.9090   27.5710   46.7830 N   0  0  0  0  0  0  0  0  0  0  0  0
   29.3530   28.9230   47.0240 C   0  0  0  0  0  0  0  0  0  0  0  0
   30.7390   29.0250   46.3800 C   0  0  0  0  0  0  0  0  0  0  0  0
   36.8020   31.1380   50.2030 C   0  0  1  0  0  0  0  0  0  0  0  0
   36.5560   29.7300   50.1750 C   0  0  1  0  0  0  0  0  0  0  0  0
   37.5360   30.2230   51.2020 C   0  0  0  0  0  0  0  0  0  0  0  0
   37.7720   31.7770   49.2240 C   0  0  0  0  0  0  0  0  0  0  0  0
   38.2180   33.0470   49.5670 C   0  0  0  0  0  0  0  0  0  0  0  0
   39.0920   33.6400   48.6440 C   0  0  0  0  0  0  0  0  0  0  0  0
   39.4460   32.9770   47.5070 N   0  0  0  0  0  0  0  0  0  0  0  0
   38.9750   31.7230   47.2150 C   0  0  0  0  0  0  0  0  0  0  0  0
   38.1210   31.1160   48.0990 N   0  0  0  0  0  0  0  0  0  0  0  0
   34.7663   29.8679   51.3185 H   0  0  0  0  0  0  0  0  0  0  0  0
   35.3600   28.1801   50.9707 H   0  0  0  0  0  0  0  0  0  0  0  0
   35.1837   30.5888   48.1045 H   0  0  0  0  0  0  0  0  0  0  0  0
   33.2933   29.9738   46.4491 H   0  0  0  0  0  0  0  0  0  0  0  0
   31.2346   26.4907   45.9100 H   0  0  0  0  0  0  0  0  0  0  0  0
   31.8688   26.0791   47.5179 H   0  0  0  0  0  0  0  0  0  0  0  0
   29.4007   25.6149   47.3363 H   0  0  0  0  0  0  0  0  0  0  0  0
   29.7449   26.8769   48.5692 H   0  0  0  0  0  0  0  0  0  0  0  0
   27.9390   27.4654   47.1128 H   0  0  0  0  0  0  0  0  0  0  0  0
   28.6612   29.6421   46.5612 H   0  0  0  0  0  0  0  0  0  0  0  0
   29.3868   29.1537   48.0990 H   0  0  0  0  0  0  0  0  0  0  0  0
   30.7015   28.6885   45.3334 H   0  0  0  0  0  0  0  0  0  0  0  0
   31.1083   30.0611   46.3725 H   0  0  0  0  0  0  0  0  0  0  0  0
   36.1075   31.9910   50.2145 H   0  0  0  0  0  0  0  0  0  0  0  0
   36.6144   28.9571   49.3945 H   0  0  0  0  0  0  0  0  0  0  0  0
   38.6119   30.0221   51.0922 H   0  0  0  0  0  0  0  0  0  0  0  0
   37.6508   30.1596   52.2942 H   0  0  0  0  0  0  0  0  0  0  0  0
   37.9084   33.5508   50.4946 H   0  0  0  0  0  0  0  0  0  0  0  0
   39.4938   34.6453   48.8388 H   0  0  0  0  0  0  0  0  0  0  0  0
   39.2769   31.2132   46.2882 H   0  0  0  0  0  0  0  0  0  0  0  0
  2  1  1  0
  3  2  2  0
  4  5  1  0
  4  3  1  0
  5  6  2  0
  6  2  1  0
  7  5  1  0
  8  7  1  0
  8  9  1  0
 10 11  1  0
 10  9  1  0
 12 11  1  0
 12  7  1  0
 13 15  1  0
 14 13  1  0
 14  1  1  0
 14 15  1  0
 16 17  2  0
 16 13  1  0
 18 17  1  0
 19 18  2  0
 20 19  1  0
 20 21  2  0
 21 16  1  0
  1 22  1  0
  1 23  1  0
  3 24  1  0
  4 25  1  0
  8 26  1  0
  8 27  1  0
  9 28  1  0
  9 29  1  0
 10 30  1  0
 11 31  1  0
 11 32  1  0
 12 33  1  0
 12 34  1  0
 13 35  1  1
 14 36  1  6
 15 37  1  0
 15 38  1  0
 17 39  1  0
 18 40  1  0
 20 41  1  0
M  ISO  8  22   8  23   8  24  14  25   9  26  13  27  13  28  13  29  13
M  ISO  8  30   5  31  13  32  13  33  13  34  13  35  13  36  13  37  13
M  ISO  4  38  13  39  14  40  14  41  14
M  END
>  <minimizedAffinity>  (1) 
-6.13727474

>  <minimizedRMSD>  (1) 
0.430943668

$$$$
