
     RDKit          3D

 31 32  0  0  0  0  0  0  0  0999 V2000
   39.1450   32.4720   46.8360 C   0  0  0  0  0  0  0  0  0  0  0  0
   38.7270   32.4200   45.4770 N   0  0  0  0  0  0  0  0  0  0  0  0
   39.6620   32.9240   44.5320 C   0  0  0  0  0  0  0  0  0  0  0  0
   40.3170   31.8660   43.6740 C   0  0  0  0  0  0  0  0  0  0  0  0
   40.4380   30.6610   44.4300 N   0  0  0  0  0  0  0  0  0  0  0  0
   39.1820   30.0970   44.8220 C   0  0  0  0  0  0  0  0  0  0  0  0
   38.1430   31.1420   45.1620 C   0  0  0  0  0  0  0  0  0  0  0  0
   37.7040   31.9080   48.7310 C   0  0  0  0  0  0  0  0  0  0  0  0
   38.4520   31.5280   47.7520 C   0  0  0  0  0  0  0  0  0  0  0  0
   37.0200   29.7400   51.6660 C   0  0  0  0  0  0  0  0  0  0  0  0
   37.6850   30.6120   50.7860 C   0  0  0  0  0  0  0  0  0  0  0  0
   37.0400   31.0180   49.6300 C   0  0  0  0  0  0  0  0  0  0  0  0
   35.7780   30.5620   49.3730 N   0  0  0  0  0  0  0  0  0  0  0  0
   35.1660   29.7310   50.2250 C   0  0  0  0  0  0  0  0  0  0  0  0
   35.7730   29.3130   51.3730 N   0  0  0  0  0  0  0  0  0  0  0  0
   38.9712   33.4933   47.2059 H   0  0  0  0  0  0  0  0  0  0  0  0
   40.2043   32.1755   46.8393 H   0  0  0  0  0  0  0  0  0  0  0  0
   39.1359   33.6268   43.8692 H   0  0  0  0  0  0  0  0  0  0  0  0
   40.4669   33.4001   45.1111 H   0  0  0  0  0  0  0  0  0  0  0  0
   41.3154   32.2087   43.3646 H   0  0  0  0  0  0  0  0  0  0  0  0
   39.7040   31.6824   42.7793 H   0  0  0  0  0  0  0  0  0  0  0  0
   40.9410   29.9677   43.8579 H   0  0  0  0  0  0  0  0  0  0  0  0
   38.8011   29.4810   43.9941 H   0  0  0  0  0  0  0  0  0  0  0  0
   39.3586   29.5022   45.7303 H   0  0  0  0  0  0  0  0  0  0  0  0
   37.4709   31.2644   44.2999 H   0  0  0  0  0  0  0  0  0  0  0  0
   37.5996   30.7947   46.0531 H   0  0  0  0  0  0  0  0  0  0  0  0
   37.5681   32.9888   48.8842 H   0  0  0  0  0  0  0  0  0  0  0  0
   38.5844   30.4487   47.5857 H   0  0  0  0  0  0  0  0  0  0  0  0
   37.5142   29.4066   52.5905 H   0  0  0  0  0  0  0  0  0  0  0  0
   38.7016   30.9660   51.0123 H   0  0  0  0  0  0  0  0  0  0  0  0
   34.1504   29.3769   49.9944 H   0  0  0  0  0  0  0  0  0  0  0  0
  1  9  1  0
  2  1  1  0
  3  2  1  0
  4  5  1  0
  4  3  1  0
  5  6  1  0
  6  7  1  0
  7  2  1  0
  8 12  1  0
  9  8  2  0
 11 10  2  0
 12 11  1  0
 13 12  2  0
 13 14  1  0
 14 15  2  0
 15 10  1  0
  1 16  1  0
  1 17  1  0
  3 18  1  0
  3 19  1  0
  4 20  1  0
  4 21  1  0
  5 22  1  0
  6 23  1  0
  6 24  1  0
  7 25  1  0
  7 26  1  0
  8 27  1  0
  9 28  1  0
 10 29  1  0
 11 30  1  0
 14 31  1  0
M  ISO  8  16   8  17   8  18  13  19  13  20  13  21  13  22   5  23  13
M  ISO  6  24  13  25  13  26  13  29  14  30  14  31  14
M  END
>  <minimizedAffinity>  (1) 
-5.05914927

>  <minimizedRMSD>  (1) 
1.35608017

$$$$
