
     RDKit          3D

 31 33  0  0  0  0  0  0  0  0999 V2000
   36.0910   30.0950   48.8170 C   0  0  0  0  0  0  0  0  0  0  0  0
   35.9370   29.1960   49.8010 C   0  0  0  0  0  0  0  0  0  0  0  0
   34.9070   28.2940   49.7510 C   0  0  0  0  0  0  0  0  0  0  0  0
   34.0760   28.3870   48.6470 C   0  0  0  0  0  0  0  0  0  0  0  0
   34.7990   29.7730   47.7050 S   0  0  0  0  0  0  0  0  0  0  0  0
   38.0040   33.1340   49.4350 C   0  0  0  0  0  0  0  0  0  0  0  0
   38.9690   33.1210   48.3850 C   0  0  0  0  0  0  0  0  0  0  0  0
   38.9300   32.0490   47.4790 C   0  0  0  0  0  0  0  0  0  0  0  0
   37.9840   31.0830   47.6430 N   0  0  0  0  0  0  0  0  0  0  0  0
   37.0880   31.1350   48.6500 C   0  0  0  0  0  0  0  0  0  0  0  0
   37.1020   32.1420   49.5280 N   0  0  0  0  0  0  0  0  0  0  0  0
   32.9320   27.6450   48.2730 N   0  0  0  0  0  0  0  0  0  0  0  0
   31.5950   27.7320   48.7760 C   0  0  0  0  0  0  0  0  0  0  0  0
   30.5990   26.9980   47.9620 C   0  0  0  0  0  0  0  0  0  0  0  0
   31.0580   25.8470   47.2430 N   0  0  0  0  0  0  0  0  0  0  0  0
   32.4030   25.4710   47.5060 C   0  0  0  0  0  0  0  0  0  0  0  0
   33.2700   26.6910   47.2360 C   0  0  0  0  0  0  0  0  0  0  0  0
   36.6382   29.1832   50.6484 H   0  0  0  0  0  0  0  0  0  0  0  0
   34.7498   27.5426   50.5388 H   0  0  0  0  0  0  0  0  0  0  0  0
   37.9979   33.9546   50.1675 H   0  0  0  0  0  0  0  0  0  0  0  0
   39.7169   33.9219   48.2884 H   0  0  0  0  0  0  0  0  0  0  0  0
   39.6514   31.9904   46.6507 H   0  0  0  0  0  0  0  0  0  0  0  0
   31.5809   27.3193   49.7956 H   0  0  0  0  0  0  0  0  0  0  0  0
   31.3111   28.7943   48.7466 H   0  0  0  0  0  0  0  0  0  0  0  0
   29.7981   26.6668   48.6394 H   0  0  0  0  0  0  0  0  0  0  0  0
   30.2887   27.7115   47.1844 H   0  0  0  0  0  0  0  0  0  0  0  0
   30.9727   26.0446   46.2357 H   0  0  0  0  0  0  0  0  0  0  0  0
   32.5088   25.1577   48.5551 H   0  0  0  0  0  0  0  0  0  0  0  0
   32.7053   24.6273   46.8682 H   0  0  0  0  0  0  0  0  0  0  0  0
   34.3358   26.4248   47.2915 H   0  0  0  0  0  0  0  0  0  0  0  0
   33.0936   27.1019   46.2310 H   0  0  0  0  0  0  0  0  0  0  0  0
  1  2  2  0
  3  2  1  0
  4  3  2  0
  5  4  1  0
  5  1  1  0
  6 11  2  0
  7  6  1  0
  8  9  1  0
  8  7  2  0
  9 10  2  0
 10  1  1  0
 10 11  1  0
 12  4  1  0
 12 13  1  0
 14 13  1  0
 15 16  1  0
 15 14  1  0
 17 16  1  0
 17 12  1  0
  2 18  1  0
  3 19  1  0
  6 20  1  0
  7 21  1  0
  8 22  1  0
 13 23  1  0
 13 24  1  0
 14 25  1  0
 14 26  1  0
 15 27  1  0
 16 28  1  0
 16 29  1  0
 17 30  1  0
 17 31  1  0
M  ISO  8  18  14  19  14  20  14  21  14  22  14  23  13  24  13  25  13
M  ISO  6  26  13  27   5  28  13  29  13  30  13  31  13
M  END
>  <minimizedAffinity>  (1) 
-5.09400654

>  <minimizedRMSD>  (1) 
0.408976644

$$$$
