
     RDKit          3D

 36 38  0  0  0  0  0  0  0  0999 V2000
   36.1820   30.4730   45.4060 C   0  0  0  0  0  0  0  0  0  0  0  0
   35.7940   30.2480   46.6890 C   0  0  0  0  0  0  0  0  0  0  0  0
   34.5350   29.7170   46.9530 C   0  0  0  0  0  0  0  0  0  0  0  0
   33.6360   29.4030   45.9510 C   0  0  0  0  0  0  0  0  0  0  0  0
   33.9900   29.6210   44.6440 C   0  0  0  0  0  0  0  0  0  0  0  0
   35.2390   30.1450   44.4180 C   0  0  0  0  0  0  0  0  0  0  0  0
   38.3000   32.0170   48.7170 C   0  0  0  0  0  0  0  0  0  0  0  0
   37.4600   31.6660   47.6730 C   0  0  0  0  0  0  0  0  0  0  0  0
   36.6310   30.5840   47.7870 C   0  0  0  0  0  0  0  0  0  0  0  0
   36.6730   29.8940   48.9590 N   0  0  0  0  0  0  0  0  0  0  0  0
   37.4800   30.2340   49.9700 C   0  0  0  0  0  0  0  0  0  0  0  0
   38.2900   31.2910   49.8420 N   0  0  0  0  0  0  0  0  0  0  0  0
   37.3680   29.4310   51.2170 C   0  0  0  0  0  0  0  0  0  0  0  0
   37.6900   30.1690   52.3390 F   0  0  0  0  0  0  0  0  0  0  0  0
   35.9730   29.1200   51.4420 F   0  0  0  0  0  0  0  0  0  0  0  0
   37.9510   28.2550   51.2280 F   0  0  0  0  0  0  0  0  0  0  0  0
   37.7080   31.0830   44.9500 S   0  0  0  0  0  0  0  0  0  0  0  0
   37.6210   32.5250   44.5660 O   0  0  0  0  0  0  0  0  0  0  0  0
   37.7620   30.5510   43.5380 O   0  0  0  0  0  0  0  0  0  0  0  0
   39.2180   30.3620   45.1930 C   0  0  0  0  0  0  0  0  0  0  0  0
   40.3880   31.1540   44.6780 C   0  0  0  0  0  0  0  0  0  0  0  0
   41.5330   31.2390   45.7100 C   0  0  0  0  0  0  0  0  0  0  0  0
   40.7520   32.4600   45.2730 C   0  0  0  0  0  0  0  0  0  0  0  0
   34.2441   29.5404   47.9990 H   0  0  0  0  0  0  0  0  0  0  0  0
   32.6496   28.9838   46.1986 H   0  0  0  0  0  0  0  0  0  0  0  0
   33.3053   29.3870   43.8154 H   0  0  0  0  0  0  0  0  0  0  0  0
   35.5263   30.3236   43.3713 H   0  0  0  0  0  0  0  0  0  0  0  0
   38.9695   32.8847   48.6226 H   0  0  0  0  0  0  0  0  0  0  0  0
   37.4596   32.2605   46.7475 H   0  0  0  0  0  0  0  0  0  0  0  0
   39.3555   30.2131   46.2742 H   0  0  0  0  0  0  0  0  0  0  0  0
   39.2065   29.4219   44.6220 H   0  0  0  0  0  0  0  0  0  0  0  0
   40.2329   30.8502   43.6322 H   0  0  0  0  0  0  0  0  0  0  0  0
   41.4010   30.8276   46.7216 H   0  0  0  0  0  0  0  0  0  0  0  0
   42.5935   30.9484   45.7389 H   0  0  0  0  0  0  0  0  0  0  0  0
   41.2403   33.2244   44.6507 H   0  0  0  0  0  0  0  0  0  0  0  0
   40.1908   33.2411   45.8067 H   0  0  0  0  0  0  0  0  0  0  0  0
  1  2  1  0
  2  3  2  0
  2  9  1  0
  4  3  1  0
  5  4  2  0
  6  5  1  0
  6  1  2  0
  7 12  2  0
  8  9  2  0
  8  7  1  0
  9 10  1  0
 10 11  2  0
 11 13  1  0
 12 11  1  0
 13 16  1  0
 13 15  1  0
 13 14  1  0
 17 20  1  0
 17  1  1  0
 18 17  2  0
 19 17  2  0
 21 20  1  0
 21 23  1  0
 21 22  1  0
 23 22  1  0
  3 24  1  0
  4 25  1  0
  5 26  1  0
  6 27  1  0
  7 28  1  0
  8 29  1  0
 20 30  1  0
 20 31  1  0
 21 32  1  0
 22 33  1  0
 22 34  1  0
 23 35  1  0
 23 36  1  0
M  ISO  8  24  14  25  14  26  14  27  14  28  14  29  14  30   8  31   8
M  ISO  5  32  13  33  13  34  13  35  13  36  13
M  END
>  <minimizedAffinity>  (1) 
-6.00007915

>  <minimizedRMSD>  (1) 
1.9123441

$$$$
