
     RDKit          3D

 19 20  0  0  0  0  0  0  0  0999 V2000
   37.3070   29.9640   51.2460 C   0  0  0  0  0  0  0  0  0  0  0  0
   38.1000   30.8750   50.5340 C   0  0  0  0  0  0  0  0  0  0  0  0
   37.5660   31.4320   49.3820 C   0  0  0  0  0  0  0  0  0  0  0  0
   36.3160   31.0770   48.9940 N   0  0  0  0  0  0  0  0  0  0  0  0
   35.5830   30.1930   49.7120 C   0  0  0  0  0  0  0  0  0  0  0  0
   36.0560   29.6330   50.8260 N   0  0  0  0  0  0  0  0  0  0  0  0
   38.3220   32.3850   48.5860 C   0  0  0  0  0  0  0  0  0  0  0  0
   38.9780   33.3420   49.0960 O   0  0  0  0  0  0  0  0  0  0  0  0
   38.3730   32.2960   47.1190 C   0  0  0  0  0  0  0  0  0  0  0  0
   39.3120   31.1720   46.6240 C   0  0  0  0  0  0  0  0  0  0  0  0
   39.5830   32.6280   46.3440 C   0  0  0  0  0  0  0  0  0  0  0  0
   37.7049   29.5070   52.1641 H   0  0  0  0  0  0  0  0  0  0  0  0
   39.1111   31.1388   50.8775 H   0  0  0  0  0  0  0  0  0  0  0  0
   34.5719   29.9303   49.3675 H   0  0  0  0  0  0  0  0  0  0  0  0
   37.3300   32.6265   47.0053 H   0  0  0  0  0  0  0  0  0  0  0  0
   39.9390   30.6168   47.3372 H   0  0  0  0  0  0  0  0  0  0  0  0
   39.2025   30.2580   46.0219 H   0  0  0  0  0  0  0  0  0  0  0  0
   40.4263   33.1290   46.8418 H   0  0  0  0  0  0  0  0  0  0  0  0
   39.7670   33.2075   45.4273 H   0  0  0  0  0  0  0  0  0  0  0  0
  2  1  2  0
  3  2  1  0
  4  3  2  0
  4  5  1  0
  5  6  2  0
  6  1  1  0
  7  8  2  0
  7  3  1  0
  9  7  1  0
 10  9  1  0
 11 10  1  0
 11  9  1  0
  1 12  1  0
  2 13  1  0
  5 14  1  0
  9 15  1  0
 10 16  1  0
 10 17  1  0
 11 18  1  0
 11 19  1  0
M  ISO  8  12  14  13  14  14  14  15  13  16  13  17  13  18  13  19  13
M  END
>  <minimizedAffinity>  (1) 
-4.3312993

>  <minimizedRMSD>  (1) 
1.9200995

$$$$
