
     RDKit          3D

 37 39  0  0  1  0  0  0  0  0999 V2000
   36.1810   30.7310   49.0210 C   0  0  2  0  0  0  0  0  0  0  0  0
   37.1660   31.6110   49.7280 C   0  0  0  0  0  0  0  0  0  0  0  0
   38.1150   30.8420   50.6200 C   0  0  0  0  0  0  0  0  0  0  0  0
   37.3420   30.0080   51.6370 C   0  0  0  0  0  0  0  0  0  0  0  0
   36.0710   29.4120   51.0980 C   0  0  0  0  0  0  0  0  0  0  0  0
   36.1790   29.3370   49.5660 C   0  0  1  0  0  0  0  0  0  0  0  0
   36.4760   30.6660   47.5660 C   0  0  0  0  0  0  0  0  0  0  0  0
   37.7650   31.0440   47.1850 C   0  0  0  0  0  0  0  0  0  0  0  0
   38.0620   30.9840   45.8170 C   0  0  0  0  0  0  0  0  0  0  0  0
   37.0920   30.5660   44.9440 N   0  0  0  0  0  0  0  0  0  0  0  0
   35.8350   30.2030   45.3730 C   0  0  0  0  0  0  0  0  0  0  0  0
   35.5570   30.2620   46.6750 N   0  0  0  0  0  0  0  0  0  0  0  0
   33.8560   28.3680   49.1650 C   0  0  0  0  0  0  0  0  0  0  0  0
   33.1170   28.9910   49.9810 O   0  0  0  0  0  0  0  0  0  0  0  0
   35.2680   28.4390   48.9560 N   0  0  0  0  0  0  0  0  0  0  0  0
   33.0150   27.4250   48.3260 C   0  0  0  0  0  0  0  0  0  0  0  0
   33.1920   27.4270   46.8340 C   0  0  0  0  0  0  0  0  0  0  0  0
   33.7710   26.2970   47.5960 C   0  0  0  0  0  0  0  0  0  0  0  0
   35.1907   31.1802   49.1868 H   0  0  0  0  0  0  0  0  0  0  0  0
   37.7558   32.1527   48.9739 H   0  0  0  0  0  0  0  0  0  0  0  0
   36.5925   32.2946   50.3712 H   0  0  0  0  0  0  0  0  0  0  0  0
   38.7324   30.1749   50.0005 H   0  0  0  0  0  0  0  0  0  0  0  0
   38.7514   31.5582   51.1603 H   0  0  0  0  0  0  0  0  0  0  0  0
   37.9915   29.1881   51.9775 H   0  0  0  0  0  0  0  0  0  0  0  0
   37.0546   30.6869   52.4534 H   0  0  0  0  0  0  0  0  0  0  0  0
   35.9309   28.4018   51.5101 H   0  0  0  0  0  0  0  0  0  0  0  0
   35.2110   30.0348   51.3853 H   0  0  0  0  0  0  0  0  0  0  0  0
   37.1374   28.8704   49.2943 H   0  0  0  0  0  0  0  0  0  0  0  0
   38.5113   31.3730   47.9231 H   0  0  0  0  0  0  0  0  0  0  0  0
   39.0590   31.2682   45.4493 H   0  0  0  0  0  0  0  0  0  0  0  0
   35.0730   29.8699   44.6530 H   0  0  0  0  0  0  0  0  0  0  0  0
   35.6673   27.7634   48.2889 H   0  0  0  0  0  0  0  0  0  0  0  0
   32.1523   27.5056   49.0037 H   0  0  0  0  0  0  0  0  0  0  0  0
   33.8592   28.1662   46.3666 H   0  0  0  0  0  0  0  0  0  0  0  0
   32.4999   27.4997   45.9821 H   0  0  0  0  0  0  0  0  0  0  0  0
   33.3250   25.2944   47.5192 H   0  0  0  0  0  0  0  0  0  0  0  0
   34.7698   25.8442   47.6820 H   0  0  0  0  0  0  0  0  0  0  0  0
  1  6  1  0
  1  2  1  0
  2  3  1  0
  3  4  1  0
  5  4  1  0
  6  5  1  0
  7  1  1  0
  8  7  2  0
  9  8  1  0
 10 11  1  0
 10  9  2  0
 11 12  2  0
 12  7  1  0
 13 14  2  0
 15 13  1  0
 15  6  1  0
 16 13  1  0
 17 18  1  0
 17 16  1  0
 18 16  1  0
  1 19  1  6
  2 20  1  0
  2 21  1  0
  3 22  1  0
  3 23  1  0
  4 24  1  0
  4 25  1  0
  5 26  1  0
  5 27  1  0
  6 28  1  1
  8 29  1  0
  9 30  1  0
 11 31  1  0
 15 32  1  0
 16 33  1  0
 17 34  1  0
 17 35  1  0
 18 36  1  0
 18 37  1  0
M  ISO  8  19  13  20  13  21  13  22  13  23  13  24  13  25  13  26  13
M  ISO  8  27  13  28  13  29  14  30  14  31  14  33  13  34  13  35  13
M  ISO  2  36  13  37  13
M  END
>  <minimizedAffinity>  (1) 
-5.70003462

>  <minimizedRMSD>  (1) 
0.219307378

$$$$
