
     RDKit          3D

 32 33  0  0  0  0  0  0  0  0999 V2000
   39.1610   32.0370   47.9220 O   0  0  0  0  0  0  0  0  0  0  0  0
   39.0160   32.3400   46.5910 C   0  0  0  0  0  0  0  0  0  0  0  0
   40.1880   32.7810   46.0320 C   0  0  0  0  0  0  0  0  0  0  0  0
   40.2100   33.1350   44.6640 C   0  0  0  0  0  0  0  0  0  0  0  0
   39.0140   33.0070   43.9760 N   0  0  0  0  0  0  0  0  0  0  0  0
   37.8770   32.5650   44.5770 C   0  0  0  0  0  0  0  0  0  0  0  0
   37.9050   32.2440   45.8610 N   0  0  0  0  0  0  0  0  0  0  0  0
   36.8740   32.8600   42.4300 C   0  0  0  0  0  0  0  0  0  0  0  0
   37.9580   33.2820   41.8880 O   0  0  0  0  0  0  0  0  0  0  0  0
   36.7060   32.4670   43.7830 N   0  0  0  0  0  0  0  0  0  0  0  0
   38.0600   32.1770   48.7450 C   0  0  0  0  0  0  0  0  0  0  0  0
   38.1750   31.0500   49.4520 C   0  0  0  0  0  0  0  0  0  0  0  0
   37.3340   30.9600   50.7060 C   0  0  0  0  0  0  0  0  0  0  0  0
   36.4480   29.4500   50.8550 S   0  0  0  0  0  0  0  0  0  0  0  0
   34.9290   29.2800   49.9510 C   0  0  0  0  0  0  0  0  0  0  0  0
   35.0780   29.1770   48.4080 C   0  0  0  0  0  0  0  0  0  0  0  0
   34.4890   28.0890   49.2310 C   0  0  0  0  0  0  0  0  0  0  0  0
   41.1005   32.8583   46.6414 H   0  0  0  0  0  0  0  0  0  0  0  0
   41.1266   33.4927   44.1722 H   0  0  0  0  0  0  0  0  0  0  0  0
   35.9876   32.7967   41.7817 H   0  0  0  0  0  0  0  0  0  0  0  0
   35.8055   32.1369   44.1585 H   0  0  0  0  0  0  0  0  0  0  0  0
   38.1334   33.0711   49.3815 H   0  0  0  0  0  0  0  0  0  0  0  0
   37.0992   32.3110   48.2265 H   0  0  0  0  0  0  0  0  0  0  0  0
   37.8920   30.2126   48.7972 H   0  0  0  0  0  0  0  0  0  0  0  0
   39.2197   31.0230   49.7954 H   0  0  0  0  0  0  0  0  0  0  0  0
   37.9978   31.0607   51.5773 H   0  0  0  0  0  0  0  0  0  0  0  0
   36.5880   31.7665   50.6515 H   0  0  0  0  0  0  0  0  0  0  0  0
   34.4231   29.8924   50.7120 H   0  0  0  0  0  0  0  0  0  0  0  0
   36.0711   29.0547   47.9510 H   0  0  0  0  0  0  0  0  0  0  0  0
   34.7628   29.7736   47.5392 H   0  0  0  0  0  0  0  0  0  0  0  0
   33.4133   27.8737   49.1507 H   0  0  0  0  0  0  0  0  0  0  0  0
   34.7111   27.0169   49.3369 H   0  0  0  0  0  0  0  0  0  0  0  0
  1 11  1  0
  2  1  1  0
  3  2  2  0
  4  3  1  0
  5  6  1  0
  5  4  2  0
  6  7  2  0
  7  2  1  0
  8 10  1  0
  9  8  2  0
 10  6  1  0
 11 12  1  0
 12 13  1  0
 13 14  1  0
 15 14  1  0
 16 17  1  0
 16 15  1  0
 17 15  1  0
  3 18  1  0
  4 19  1  0
  8 20  1  0
 10 21  1  0
 11 22  1  0
 11 23  1  0
 12 24  1  0
 12 25  1  0
 13 26  1  0
 13 27  1  0
 15 28  1  0
 16 29  1  0
 16 30  1  0
 17 31  1  0
 17 32  1  0
M  ISO  8  18  14  19  14  20   6  22   8  23   8  24   8  25   8  26   8
M  ISO  6  27   8  28  13  29  13  30  13  31  13  32  13
M  END
>  <minimizedAffinity>  (1) 
-4.91889906

>  <minimizedRMSD>  (1) 
1.54843545

$$$$
