
     RDKit          3D

 24 25  0  0  0  0  0  0  0  0999 V2000
   37.2840   30.1800   51.4150 C   0  0  0  0  0  0  0  0  0  0  0  0
   38.0160   30.9000   50.4450 C   0  0  0  0  0  0  0  0  0  0  0  0
   37.7200   30.6630   49.1140 C   0  0  0  0  0  0  0  0  0  0  0  0
   36.7620   29.7730   48.8040 N   0  0  0  0  0  0  0  0  0  0  0  0
   36.0660   29.0900   49.7290 C   0  0  0  0  0  0  0  0  0  0  0  0
   36.3260   29.2910   51.0420 N   0  0  0  0  0  0  0  0  0  0  0  0
   38.4560   31.3840   48.1300 C   0  0  0  0  0  0  0  0  0  0  0  0
   38.8720   32.6100   48.2570 C   0  0  0  0  0  0  0  0  0  0  0  0
   39.6420   33.3380   47.2150 C   0  0  0  0  0  0  0  0  0  0  0  0
   39.5980   32.6630   45.8830 C   0  0  0  0  0  0  0  0  0  0  0  0
   40.9020   32.3780   45.1740 C   0  0  0  0  0  0  0  0  0  0  0  0
   39.9870   33.4480   44.7060 C   0  0  0  0  0  0  0  0  0  0  0  0
   37.4914   30.3404   52.4833 H   0  0  0  0  0  0  0  0  0  0  0  0
   38.7926   31.6224   50.7367 H   0  0  0  0  0  0  0  0  0  0  0  0
   35.2907   28.3729   49.4212 H   0  0  0  0  0  0  0  0  0  0  0  0
   38.6907   30.8635   47.1898 H   0  0  0  0  0  0  0  0  0  0  0  0
   38.6397   33.1400   49.1925 H   0  0  0  0  0  0  0  0  0  0  0  0
   39.2219   34.3492   47.1103 H   0  0  0  0  0  0  0  0  0  0  0  0
   40.6932   33.3633   47.5381 H   0  0  0  0  0  0  0  0  0  0  0  0
   38.7238   32.0600   46.1698 H   0  0  0  0  0  0  0  0  0  0  0  0
   41.8592   32.6371   45.6501 H   0  0  0  0  0  0  0  0  0  0  0  0
   41.3728   31.4931   44.7209 H   0  0  0  0  0  0  0  0  0  0  0  0
   40.2753   34.5029   44.8248 H   0  0  0  0  0  0  0  0  0  0  0  0
   39.5057   33.6811   43.7448 H   0  0  0  0  0  0  0  0  0  0  0  0
  2  1  2  0
  3  2  1  0
  4  3  2  0
  4  5  1  0
  5  6  2  0
  6  1  1  0
  7  8  2  0
  7  3  1  0
  9  8  1  0
 10  9  1  0
 11 10  1  0
 12 11  1  0
 12 10  1  0
  1 13  1  0
  2 14  1  0
  5 15  1  0
  7 16  1  0
  8 17  1  0
  9 18  1  0
  9 19  1  0
 10 20  1  0
 11 21  1  0
 11 22  1  0
 12 23  1  0
 12 24  1  0
M  ISO  8  13  14  14  14  15  14  18   8  19   8  20  13  21  13  22  13
M  ISO  2  23  13  24  13
M  END
>  <minimizedAffinity>  (1) 
-4.73020315

>  <minimizedRMSD>  (1) 
1.1836983

$$$$
