
     RDKit          3D

 29 31  0  0  1  0  0  0  0  0999 V2000
   38.6100   31.4680   47.7930 C   0  0  2  0  0  0  0  0  0  0  0  0
   37.6150   32.1180   48.7910 C   0  0  2  0  0  0  0  0  0  0  0  0
   38.5320   33.0750   49.4330 C   0  0  0  0  0  0  0  0  0  0  0  0
   39.3350   33.5910   48.4200 O   0  0  0  0  0  0  0  0  0  0  0  0
   39.2690   32.7630   47.3310 C   0  0  0  0  0  0  0  0  0  0  0  0
   36.9370   29.6650   51.5670 C   0  0  0  0  0  0  0  0  0  0  0  0
   37.6110   30.6230   50.7670 C   0  0  0  0  0  0  0  0  0  0  0  0
   36.9580   31.1540   49.6300 C   0  0  0  0  0  0  0  0  0  0  0  0
   35.6920   30.7030   49.3620 N   0  0  0  0  0  0  0  0  0  0  0  0
   35.0830   29.7970   50.1370 C   0  0  0  0  0  0  0  0  0  0  0  0
   35.6820   29.2690   51.2350 N   0  0  0  0  0  0  0  0  0  0  0  0
   37.9260   30.8770   46.7280 O   0  0  0  0  0  0  0  0  0  0  0  0
   38.6580   31.1440   45.5710 C   0  0  0  0  0  0  0  0  0  0  0  0
   37.9650   30.8440   44.2750 C   0  0  0  0  0  0  0  0  0  0  0  0
   39.1180   30.0070   44.7310 C   0  0  0  0  0  0  0  0  0  0  0  0
   39.2640   30.6768   48.1884 H   0  0  0  0  0  0  0  0  0  0  0  0
   36.7215   32.6053   48.3737 H   0  0  0  0  0  0  0  0  0  0  0  0
   37.9621   33.8829   49.9152 H   0  0  0  0  0  0  0  0  0  0  0  0
   39.1369   32.5865   50.2111 H   0  0  0  0  0  0  0  0  0  0  0  0
   40.2807   32.5572   46.9514 H   0  0  0  0  0  0  0  0  0  0  0  0
   38.6913   33.2287   46.5190 H   0  0  0  0  0  0  0  0  0  0  0  0
   37.4307   29.2437   52.4551 H   0  0  0  0  0  0  0  0  0  0  0  0
   38.6288   30.9490   51.0275 H   0  0  0  0  0  0  0  0  0  0  0  0
   34.0656   29.4702   49.8760 H   0  0  0  0  0  0  0  0  0  0  0  0
   39.1655   32.0104   46.0203 H   0  0  0  0  0  0  0  0  0  0  0  0
   38.0816   31.5229   43.4174 H   0  0  0  0  0  0  0  0  0  0  0  0
   36.9263   30.6441   43.9731 H   0  0  0  0  0  0  0  0  0  0  0  0
   38.9474   28.9731   45.0655 H   0  0  0  0  0  0  0  0  0  0  0  0
   40.0807   29.7074   44.2912 H   0  0  0  0  0  0  0  0  0  0  0  0
  1  2  1  0
  2  3  1  0
  2  8  1  0
  4  3  1  0
  5  1  1  0
  5  4  1  0
  7  6  2  0
  8  7  1  0
  9  8  2  0
  9 10  1  0
 10 11  2  0
 11  6  1  0
 12  1  1  0
 13 12  1  0
 14 15  1  0
 14 13  1  0
 15 13  1  0
  1 16  1  1
  2 17  1  6
  3 18  1  0
  3 19  1  0
  5 20  1  0
  5 21  1  0
  6 22  1  0
  7 23  1  0
 10 24  1  0
 13 25  1  0
 14 26  1  0
 14 27  1  0
 15 28  1  0
 15 29  1  0
M  ISO  8  16  13  17  13  18  13  19  13  20  13  21  13  22  14  23  14
M  ISO  6  24  14  25  13  26  13  27  13  28  13  29  13
M  END
>  <minimizedAffinity>  (1) 
-4.83170366

>  <minimizedRMSD>  (1) 
1.95554936

$$$$
