
     RDKit          3D

 30 32  0  0  0  0  0  0  0  0999 V2000
   36.4280   31.0500   49.8960 C   0  0  0  0  0  0  0  0  0  0  0  0
   37.3810   31.7060   48.9670 C   0  0  0  0  0  0  0  0  0  0  0  0
   38.2230   32.7140   49.4160 C   0  0  0  0  0  0  0  0  0  0  0  0
   38.9810   33.1250   48.3560 C   0  0  0  0  0  0  0  0  0  0  0  0
   38.6100   32.3910   47.3070 N   0  0  0  0  0  0  0  0  0  0  0  0
   37.6670   31.5590   47.6830 N   0  0  0  0  0  0  0  0  0  0  0  0
   39.1420   32.4710   45.9580 C   0  0  0  0  0  0  0  0  0  0  0  0
   40.4000   31.6780   45.6260 C   0  0  0  0  0  0  0  0  0  0  0  0
   40.4280   33.1580   45.7770 C   0  0  0  0  0  0  0  0  0  0  0  0
   36.2220   29.6150   49.5900 C   0  0  0  0  0  0  0  0  0  0  0  0
   35.0290   29.2380   48.8740 C   0  0  0  0  0  0  0  0  0  0  0  0
   34.7330   29.7780   47.6510 C   0  0  0  0  0  0  0  0  0  0  0  0
   33.5530   29.3950   46.9690 C   0  0  0  0  0  0  0  0  0  0  0  0
   32.7610   28.4650   47.6220 N   0  0  0  0  0  0  0  0  0  0  0  0
   33.1010   27.9630   48.8320 C   0  0  0  0  0  0  0  0  0  0  0  0
   34.2460   28.3510   49.4670 N   0  0  0  0  0  0  0  0  0  0  0  0
   36.8190   31.1381   50.9204 H   0  0  0  0  0  0  0  0  0  0  0  0
   35.4570   31.5547   49.7845 H   0  0  0  0  0  0  0  0  0  0  0  0
   38.2714   33.1106   50.4409 H   0  0  0  0  0  0  0  0  0  0  0  0
   39.7503   33.9112   48.3664 H   0  0  0  0  0  0  0  0  0  0  0  0
   38.1380   32.5522   45.5159 H   0  0  0  0  0  0  0  0  0  0  0  0
   40.5206   31.2196   44.6334 H   0  0  0  0  0  0  0  0  0  0  0  0
   40.9379   30.8305   46.0759 H   0  0  0  0  0  0  0  0  0  0  0  0
   40.9322   33.6071   46.6454 H   0  0  0  0  0  0  0  0  0  0  0  0
   40.7705   33.9864   45.1395 H   0  0  0  0  0  0  0  0  0  0  0  0
   37.0819   29.2822   48.9901 H   0  0  0  0  0  0  0  0  0  0  0  0
   36.1122   29.1381   50.5751 H   0  0  0  0  0  0  0  0  0  0  0  0
   35.4146   30.5122   47.1967 H   0  0  0  0  0  0  0  0  0  0  0  0
   33.2831   29.8084   45.9860 H   0  0  0  0  0  0  0  0  0  0  0  0
   32.4410   27.2268   49.3142 H   0  0  0  0  0  0  0  0  0  0  0  0
  2  3  1  0
  2  1  1  0
  4  3  2  0
  5  6  1  0
  5  4  1  0
  6  2  2  0
  7  5  1  0
  8  9  1  0
  8  7  1  0
  9  7  1  0
 10  1  1  0
 11 16  1  0
 11 10  1  0
 12 11  2  0
 13 14  2  0
 13 12  1  0
 14 15  1  0
 15 16  2  0
  1 17  1  0
  1 18  1  0
  3 19  1  0
  4 20  1  0
  7 21  1  0
  8 22  1  0
  8 23  1  0
  9 24  1  0
  9 25  1  0
 10 26  1  0
 10 27  1  0
 12 28  1  0
 13 29  1  0
 15 30  1  0
M  ISO  8  17   8  18   8  19  14  20  14  21  13  22  13  23  13  24  13
M  ISO  6  25  13  26   8  27   8  28  14  29  14  30  14
M  END
>  <minimizedAffinity>  (1) 
-5.10446501

>  <minimizedRMSD>  (1) 
6.23003626

$$$$
