
     RDKit          3D

 22 23  0  0  0  0  0  0  0  0999 V2000
   36.3290   30.7510   48.4460 C   0  0  0  0  0  0  0  0  0  0  0  0
   37.5110   31.0220   47.7530 C   0  0  0  0  0  0  0  0  0  0  0  0
   37.5360   30.8520   46.3720 C   0  0  0  0  0  0  0  0  0  0  0  0
   36.3890   30.4230   45.7600 N   0  0  0  0  0  0  0  0  0  0  0  0
   35.2570   30.1690   46.4710 C   0  0  0  0  0  0  0  0  0  0  0  0
   35.2290   30.3310   47.7970 N   0  0  0  0  0  0  0  0  0  0  0  0
   38.8050   32.7550   48.8550 C   0  0  0  0  0  0  0  0  0  0  0  0
   38.0070   33.7630   48.9880 O   0  0  0  0  0  0  0  0  0  0  0  0
   38.7160   31.4600   48.2960 N   0  0  0  0  0  0  0  0  0  0  0  0
   36.4920   30.9750   49.7990 O   0  0  0  0  0  0  0  0  0  0  0  0
   36.3950   29.8120   50.6130 C   0  0  0  0  0  0  0  0  0  0  0  0
   37.0330   29.7550   51.9290 C   0  0  0  0  0  0  0  0  0  0  0  0
   37.6880   29.0320   50.8060 C   0  0  0  0  0  0  0  0  0  0  0  0
   38.4476   31.0557   45.7911 H   0  0  0  0  0  0  0  0  0  0  0  0
   34.3528   29.8257   45.9471 H   0  0  0  0  0  0  0  0  0  0  0  0
   39.7988   32.9542   49.2824 H   0  0  0  0  0  0  0  0  0  0  0  0
   39.5400   30.8421   48.2903 H   0  0  0  0  0  0  0  0  0  0  0  0
   35.3697   29.6105   50.2692 H   0  0  0  0  0  0  0  0  0  0  0  0
   37.5054   30.6575   52.3442 H   0  0  0  0  0  0  0  0  0  0  0  0
   36.6919   29.4614   52.9327 H   0  0  0  0  0  0  0  0  0  0  0  0
   37.6826   27.9324   50.7756 H   0  0  0  0  0  0  0  0  0  0  0  0
   38.6859   29.0329   50.3431 H   0  0  0  0  0  0  0  0  0  0  0  0
  1 10  1  0
  2  9  1  0
  2  1  2  0
  3  2  1  0
  4  3  2  0
  4  5  1  0
  5  6  2  0
  6  1  1  0
  7  8  2  0
  9  7  1  0
 10 11  1  0
 11 13  1  0
 11 12  1  0
 13 12  1  0
  3 14  1  0
  5 15  1  0
  7 16  1  0
  9 17  1  0
 11 18  1  0
 12 19  1  0
 12 20  1  0
 13 21  1  0
 13 22  1  0
M  ISO  8  14  14  15  14  16   6  18  13  19  13  20  13  21  13  22  13
M  END
>  <minimizedAffinity>  (1) 
-4.13672495

>  <minimizedRMSD>  (1) 
2.81593418

$$$$
