
     RDKit          3D

 22 23  0  0  0  0  0  0  0  0999 V2000
   34.8100   29.4160   50.2640 C   0  0  0  0  0  0  0  0  0  0  0  0
   35.8720   30.1210   49.6450 C   0  0  0  0  0  0  0  0  0  0  0  0
   35.9270   30.1550   48.2590 C   0  0  0  0  0  0  0  0  0  0  0  0
   34.9380   29.4990   47.5870 N   0  0  0  0  0  0  0  0  0  0  0  0
   33.9370   28.8350   48.1700 C   0  0  0  0  0  0  0  0  0  0  0  0
   33.8940   28.8080   49.5170 N   0  0  0  0  0  0  0  0  0  0  0  0
   32.9990   28.2120   47.2940 N   0  0  0  0  0  0  0  0  0  0  0  0
   37.0280   30.8850   47.6000 C   0  0  0  0  0  0  0  0  0  0  0  0
   38.1390   30.1380   47.7230 F   0  0  0  0  0  0  0  0  0  0  0  0
   36.7700   31.1640   46.2760 F   0  0  0  0  0  0  0  0  0  0  0  0
   37.2670   32.1210   48.2370 F   0  0  0  0  0  0  0  0  0  0  0  0
   36.8680   30.7810   50.5300 C   0  0  0  0  0  0  0  0  0  0  0  0
   38.2280   30.2600   50.7460 C   0  0  0  0  0  0  0  0  0  0  0  0
   37.2290   30.0250   51.7880 C   0  0  0  0  0  0  0  0  0  0  0  0
   34.7438   29.3720   51.3611 H   0  0  0  0  0  0  0  0  0  0  0  0
   32.2039   27.6845   47.6818 H   0  0  0  0  0  0  0  0  0  0  0  0
   33.1169   28.2897   46.2737 H   0  0  0  0  0  0  0  0  0  0  0  0
   36.4917   31.7722   50.2369 H   0  0  0  0  0  0  0  0  0  0  0  0
   38.5907   29.4170   50.1395 H   0  0  0  0  0  0  0  0  0  0  0  0
   39.2315   30.7104   50.7347 H   0  0  0  0  0  0  0  0  0  0  0  0
   37.2992   30.5549   52.7494 H   0  0  0  0  0  0  0  0  0  0  0  0
   36.8352   29.1393   52.3080 H   0  0  0  0  0  0  0  0  0  0  0  0
  2  1  2  0
  2 12  1  0
  3  2  1  0
  4  5  1  0
  4  3  2  0
  5  6  2  0
  6  1  1  0
  7  5  1  0
  8  9  1  0
  8 11  1  0
  8  3  1  0
 10  8  1  0
 12 13  1  0
 12 14  1  0
 13 14  1  0
  1 15  1  0
  7 16  1  0
  7 17  1  0
 12 18  1  0
 13 19  1  0
 13 20  1  0
 14 21  1  0
 14 22  1  0
M  ISO  6  15  14  18  13  19  13  20  13  21  13  22  13
M  END
>  <minimizedAffinity>  (1) 
-4.79700327

>  <minimizedRMSD>  (1) 
2.47620344

$$$$
