
     RDKit          3D

 19 20  0  0  0  0  0  0  0  0999 V2000
   37.9710   31.0100   49.2490 C   0  0  0  0  0  0  0  0  0  0  0  0
   38.2780   32.3240   49.6440 C   0  0  0  0  0  0  0  0  0  0  0  0
   38.8410   33.1720   48.6850 C   0  0  0  0  0  0  0  0  0  0  0  0
   39.0580   32.6640   47.4200 N   0  0  0  0  0  0  0  0  0  0  0  0
   38.7450   31.3940   47.0940 C   0  0  0  0  0  0  0  0  0  0  0  0
   38.1980   30.5570   48.0130 N   0  0  0  0  0  0  0  0  0  0  0  0
   37.3890   30.1480   50.2580 C   0  0  0  0  0  0  0  0  0  0  0  0
   37.6280   30.2670   51.5010 O   0  0  0  0  0  0  0  0  0  0  0  0
   36.4480   29.0360   49.9280 C   0  0  0  0  0  0  0  0  0  0  0  0
   35.0550   29.2910   50.5110 C   0  0  0  0  0  0  0  0  0  0  0  0
   35.3220   29.2410   49.0110 C   0  0  0  0  0  0  0  0  0  0  0  0
   38.0826   32.6720   50.6691 H   0  0  0  0  0  0  0  0  0  0  0  0
   39.1028   34.2117   48.9311 H   0  0  0  0  0  0  0  0  0  0  0  0
   38.9347   31.0318   46.0728 H   0  0  0  0  0  0  0  0  0  0  0  0
   37.2244   28.2570   49.9455 H   0  0  0  0  0  0  0  0  0  0  0  0
   34.5009   28.4796   51.0057 H   0  0  0  0  0  0  0  0  0  0  0  0
   34.6089   30.0103   51.2135 H   0  0  0  0  0  0  0  0  0  0  0  0
   35.2644   30.1641   48.4155 H   0  0  0  0  0  0  0  0  0  0  0  0
   34.8984   28.6669   48.1737 H   0  0  0  0  0  0  0  0  0  0  0  0
  1  2  2  0
  1  7  1  0
  3  2  1  0
  4  3  2  0
  5  4  1  0
  5  6  2  0
  6  1  1  0
  7  8  2  0
  9  7  1  0
  9 10  1  0
 11  9  1  0
 11 10  1  0
  2 12  1  0
  3 13  1  0
  5 14  1  0
  9 15  1  0
 10 16  1  0
 10 17  1  0
 11 18  1  0
 11 19  1  0
M  ISO  8  12  14  13  14  14  14  15  13  16  13  17  13  18  13  19  13
M  END
>  <minimizedAffinity>  (1) 
-4.48817873

>  <minimizedRMSD>  (1) 
1.55989075

$$$$
