
     RDKit          3D

 39 41  0  0  1  0  0  0  0  0999 V2000
   37.0530   30.9250   49.0650 C   0  0  0  0  0  0  0  0  0  0  0  0
   36.7720   31.8300   50.0900 C   0  0  0  0  0  0  0  0  0  0  0  0
   37.3600   33.0870   50.1390 C   0  0  0  0  0  0  0  0  0  0  0  0
   38.2590   33.4610   49.1360 C   0  0  0  0  0  0  0  0  0  0  0  0
   38.5240   32.5660   48.1410 C   0  0  0  0  0  0  0  0  0  0  0  0
   37.9180   31.3180   48.1250 C   0  0  0  0  0  0  0  0  0  0  0  0
   36.4640   29.6030   49.0370 C   0  0  2  0  0  0  0  0  0  0  0  0
   33.6020   29.9680   46.8290 C   0  0  0  0  0  0  0  0  0  0  0  0
   32.8580   28.8250   47.0530 C   0  0  0  0  0  0  0  0  0  0  0  0
   33.3010   27.9380   48.0160 C   0  0  0  0  0  0  0  0  0  0  0  0
   34.4570   28.2200   48.7130 N   0  0  0  0  0  0  0  0  0  0  0  0
   35.1220   29.3270   48.4510 C   0  0  0  0  0  0  0  0  0  0  0  0
   34.7030   30.2070   47.5140 N   0  0  0  0  0  0  0  0  0  0  0  0
   36.9400   28.8300   49.9480 O   0  0  0  0  0  0  0  0  0  0  0  0
   38.3130   30.4590   47.0320 C   0  0  0  0  0  0  0  0  0  0  0  0
   38.9180   30.8960   45.9230 C   0  0  0  0  0  0  0  0  0  0  0  0
   39.4010   30.1060   44.7670 C   0  0  0  0  0  0  0  0  0  0  0  0
   40.2450   31.1860   43.6060 S   0  0  0  0  0  0  0  0  0  0  0  0
   39.3000   32.7410   43.4130 C   0  0  0  0  0  0  0  0  0  0  0  0
   37.9310   32.5930   42.8680 C   0  0  0  0  0  0  0  0  0  0  0  0
   38.9960   33.2210   42.0420 C   0  0  0  0  0  0  0  0  0  0  0  0
   36.0650   31.5393   50.8810 H   0  0  0  0  0  0  0  0  0  0  0  0
   37.1209   33.7810   50.9583 H   0  0  0  0  0  0  0  0  0  0  0  0
   38.7398   34.4503   49.1486 H   0  0  0  0  0  0  0  0  0  0  0  0
   39.2278   32.8376   47.3404 H   0  0  0  0  0  0  0  0  0  0  0  0
   36.8231   29.2339   48.0650 H   0  0  0  0  0  0  0  0  0  0  0  0
   33.2706   30.6894   46.0676 H   0  0  0  0  0  0  0  0  0  0  0  0
   31.9394   28.6269   46.4812 H   0  0  0  0  0  0  0  0  0  0  0  0
   32.7373   27.0167   48.2243 H   0  0  0  0  0  0  0  0  0  0  0  0
   36.7155   29.1946   50.8406 H   0  0  0  0  0  0  0  0  0  0  0  0
   38.1035   29.3825   47.1177 H   0  0  0  0  0  0  0  0  0  0  0  0
   39.0778   31.9826   45.8609 H   0  0  0  0  0  0  0  0  0  0  0  0
   40.0982   29.3315   45.1191 H   0  0  0  0  0  0  0  0  0  0  0  0
   38.5441   29.6316   44.2664 H   0  0  0  0  0  0  0  0  0  0  0  0
   39.7571   33.2081   44.2978 H   0  0  0  0  0  0  0  0  0  0  0  0
   37.5482   31.5956   42.6061 H   0  0  0  0  0  0  0  0  0  0  0  0
   36.9255   32.8920   43.1990 H   0  0  0  0  0  0  0  0  0  0  0  0
   39.4021   32.6883   41.1695 H   0  0  0  0  0  0  0  0  0  0  0  0
   39.1065   34.1768   41.5089 H   0  0  0  0  0  0  0  0  0  0  0  0
  1  2  2  0
  2  3  1  0
  4  3  2  0
  5  4  1  0
  6  5  2  0
  6  1  1  0
  7  1  1  0
  7 14  1  0
  8  9  2  0
  8 13  1  0
  9 10  1  0
 10 11  2  0
 12 11  1  0
 12  7  1  0
 13 12  2  0
 15  6  1  0
 16 15  2  0
 17 16  1  0
 18 17  1  0
 19 18  1  0
 20 19  1  0
 21 20  1  0
 21 19  1  0
  2 22  1  0
  3 23  1  0
  4 24  1  0
  5 25  1  0
  7 26  1  6
  8 27  1  0
  9 28  1  0
 10 29  1  0
 14 30  1  0
 15 31  1  0
 16 32  1  0
 17 33  1  0
 17 34  1  0
 19 35  1  0
 20 36  1  0
 20 37  1  0
 21 38  1  0
 21 39  1  0
M  ISO  8  22  14  23  14  24  14  25  14  26   8  27  14  28  14  29  14
M  ISO  8  30   3  33   8  34   8  35  13  36  13  37  13  38  13  39  13
M  END
>  <minimizedAffinity>  (1) 
-5.5186367

>  <minimizedRMSD>  (1) 
0.969102859

$$$$
