
     RDKit          3D

 28 30  0  0  1  0  0  0  0  0999 V2000
   38.5960   31.9950   49.1980 C   0  0  2  0  0  0  0  0  0  0  0  0
   38.5340   33.4490   49.2790 C   0  0  0  0  0  0  0  0  0  0  0  0
   38.2680   32.6990   47.9630 C   0  0  1  0  0  0  0  0  0  0  0  0
   35.4760   30.0880   49.7750 C   0  0  0  0  0  0  0  0  0  0  0  0
   35.7410   29.4430   51.0110 C   0  0  0  0  0  0  0  0  0  0  0  0
   37.0150   29.6850   51.6290 C   0  0  0  0  0  0  0  0  0  0  0  0
   37.8920   30.5060   51.0130 N   0  0  0  0  0  0  0  0  0  0  0  0
   37.5800   31.0960   49.8270 C   0  0  0  0  0  0  0  0  0  0  0  0
   36.4030   30.9110   49.1960 N   0  0  0  0  0  0  0  0  0  0  0  0
   38.9890   32.5650   45.6070 C   0  0  0  0  0  0  0  0  0  0  0  0
   37.7900   32.3810   45.2770 O   0  0  0  0  0  0  0  0  0  0  0  0
   39.3460   32.8350   46.9760 N   0  0  0  0  0  0  0  0  0  0  0  0
   40.1280   32.5220   44.6510 C   0  0  0  0  0  0  0  0  0  0  0  0
   40.6460   31.1490   44.2180 C   0  0  0  0  0  0  0  0  0  0  0  0
   39.9570   32.0630   43.2670 C   0  0  0  0  0  0  0  0  0  0  0  0
   39.3710   31.2756   49.5011 H   0  0  0  0  0  0  0  0  0  0  0  0
   37.7081   33.9402   49.8144 H   0  0  0  0  0  0  0  0  0  0  0  0
   39.2134   34.2498   49.6063 H   0  0  0  0  0  0  0  0  0  0  0  0
   37.4559   32.6289   47.2243 H   0  0  0  0  0  0  0  0  0  0  0  0
   34.5102   29.9237   49.2747 H   0  0  0  0  0  0  0  0  0  0  0  0
   34.9973   28.7813   51.4791 H   0  0  0  0  0  0  0  0  0  0  0  0
   37.2715   29.2097   52.5873 H   0  0  0  0  0  0  0  0  0  0  0  0
   40.3017   33.1075   47.2466 H   0  0  0  0  0  0  0  0  0  0  0  0
   40.5476   33.4338   45.1011 H   0  0  0  0  0  0  0  0  0  0  0  0
   41.7271   30.9668   44.1280 H   0  0  0  0  0  0  0  0  0  0  0  0
   40.5063   30.1114   44.5555 H   0  0  0  0  0  0  0  0  0  0  0  0
   40.5317   32.5420   42.4607 H   0  0  0  0  0  0  0  0  0  0  0  0
   39.0895   31.9576   42.5989 H   0  0  0  0  0  0  0  0  0  0  0  0
  1  2  1  0
  1  8  1  0
  3  1  1  0
  3  2  1  0
  4  5  2  0
  5  6  1  0
  7  6  2  0
  8  7  1  0
  9  4  1  0
  9  8  2  0
 10 12  1  0
 11 10  2  0
 12  3  1  0
 13 10  1  0
 14 13  1  0
 15 14  1  0
 15 13  1  0
  1 16  1  6
  2 17  1  0
  2 18  1  0
  3 19  1  6
  4 20  1  0
  5 21  1  0
  6 22  1  0
 12 23  1  0
 13 24  1  0
 14 25  1  0
 14 26  1  0
 15 27  1  0
 15 28  1  0
M  ISO  8  16  13  17  13  18  13  19  13  20  14  21  14  22  14  24  13
M  ISO  4  25  13  26  13  27  13  28  13
M  END
>  <minimizedAffinity>  (1) 
-5.5297637

>  <minimizedRMSD>  (1) 
6.47645426

$$$$
