
     RDKit          3D

 33 36  0  0  0  0  0  0  0  0999 V2000
   34.6290   29.3020   48.6050 C   0  0  0  0  0  0  0  0  0  0  0  0
   33.7420   28.6030   49.3580 N   0  0  0  0  0  0  0  0  0  0  0  0
   32.7050   27.9570   48.8130 C   0  0  0  0  0  0  0  0  0  0  0  0
   32.4350   27.9290   47.4900 N   0  0  0  0  0  0  0  0  0  0  0  0
   33.2880   28.6090   46.6940 C   0  0  0  0  0  0  0  0  0  0  0  0
   33.0260   28.5910   45.3440 C   0  0  0  0  0  0  0  0  0  0  0  0
   33.8640   29.2710   44.4710 C   0  0  0  0  0  0  0  0  0  0  0  0
   34.9370   29.9400   45.0310 C   0  0  0  0  0  0  0  0  0  0  0  0
   35.1420   29.9180   46.3860 C   0  0  0  0  0  0  0  0  0  0  0  0
   34.3400   29.2620   47.2710 C   0  0  0  0  0  0  0  0  0  0  0  0
   37.4150   29.7390   50.8440 C   0  0  0  0  0  0  0  0  0  0  0  0
   37.9600   31.0200   50.5900 C   0  0  0  0  0  0  0  0  0  0  0  0
   37.3210   31.7490   49.5940 C   0  0  0  0  0  0  0  0  0  0  0  0
   36.2810   31.2080   48.9720 N   0  0  0  0  0  0  0  0  0  0  0  0
   35.7570   30.0190   49.1910 C   0  0  0  0  0  0  0  0  0  0  0  0
   36.3810   29.3360   50.1470 N   0  0  0  0  0  0  0  0  0  0  0  0
   37.9790   28.8770   51.8520 N   0  0  0  0  0  0  0  0  0  0  0  0
   37.8060   33.0920   49.2510 C   0  0  0  0  0  0  0  0  0  0  0  0
   38.9960   33.2880   48.3860 C   0  0  0  0  0  0  0  0  0  0  0  0
   39.1750   33.4020   49.8400 C   0  0  0  0  0  0  0  0  0  0  0  0
   32.0274   27.4126   49.4871 H   0  0  0  0  0  0  0  0  0  0  0  0
   32.1559   28.0400   44.9576 H   0  0  0  0  0  0  0  0  0  0  0  0
   33.6833   29.2774   43.3860 H   0  0  0  0  0  0  0  0  0  0  0  0
   35.6320   30.4946   44.3833 H   0  0  0  0  0  0  0  0  0  0  0  0
   36.0093   30.4648   46.7845 H   0  0  0  0  0  0  0  0  0  0  0  0
   38.8277   31.4110   51.1416 H   0  0  0  0  0  0  0  0  0  0  0  0
   37.5690   27.9477   52.0231 H   0  0  0  0  0  0  0  0  0  0  0  0
   38.7921   29.1902   52.4013 H   0  0  0  0  0  0  0  0  0  0  0  0
   36.7930   33.5197   49.2232 H   0  0  0  0  0  0  0  0  0  0  0  0
   39.4268   32.4293   47.8503 H   0  0  0  0  0  0  0  0  0  0  0  0
   39.2226   33.9444   47.5329 H   0  0  0  0  0  0  0  0  0  0  0  0
   39.3696   34.3837   50.2964 H   0  0  0  0  0  0  0  0  0  0  0  0
   39.8299   32.9278   50.5858 H   0  0  0  0  0  0  0  0  0  0  0  0
  1 15  1  0
  1  2  2  0
  3  2  1  0
  4  3  2  0
  5 10  2  0
  5  4  1  0
  6  5  1  0
  7  8  1  0
  7  6  2  0
  8  9  2  0
  9 10  1  0
 10  1  1  0
 11 17  1  0
 12 11  2  0
 13 12  1  0
 14 15  1  0
 14 13  2  0
 15 16  2  0
 16 11  1  0
 18 13  1  0
 18 20  1  0
 19 18  1  0
 19 20  1  0
  3 21  1  0
  6 22  1  0
  7 23  1  0
  8 24  1  0
  9 25  1  0
 12 26  1  0
 17 27  1  0
 17 28  1  0
 18 29  1  0
 19 30  1  0
 19 31  1  0
 20 32  1  0
 20 33  1  0
M  ISO  8  21  14  22  14  23  14  24  14  25  14  26  14  29  13  30  13
M  ISO  3  31  13  32  13  33  13
M  END
>  <minimizedAffinity>  (1) 
-6.0230484

>  <minimizedRMSD>  (1) 
0.677628696

$$$$
