
     RDKit          3D

 27 29  0  0  0  0  0  0  0  0999 V2000
   38.6700   32.0440   48.6690 Cl  0  0  0  0  0  0  0  0  0  0  0  0
   37.9390   31.5560   47.1630 C   0  0  0  0  0  0  0  0  0  0  0  0
   36.8550   30.7300   47.1710 C   0  0  0  0  0  0  0  0  0  0  0  0
   36.3300   30.3850   45.9420 C   0  0  0  0  0  0  0  0  0  0  0  0
   36.8330   30.8230   44.7450 C   0  0  0  0  0  0  0  0  0  0  0  0
   37.9260   31.6540   44.7730 C   0  0  0  0  0  0  0  0  0  0  0  0
   38.4970   32.0350   45.9750 C   0  0  0  0  0  0  0  0  0  0  0  0
   36.5730   29.1750   50.6120 C   0  0  0  0  0  0  0  0  0  0  0  0
   37.1020   29.6110   49.3930 C   0  0  0  0  0  0  0  0  0  0  0  0
   36.3270   30.2690   48.4410 C   0  0  0  0  0  0  0  0  0  0  0  0
   35.0160   30.4620   48.7690 N   0  0  0  0  0  0  0  0  0  0  0  0
   34.5160   30.0400   49.9450 C   0  0  0  0  0  0  0  0  0  0  0  0
   35.2820   29.4030   50.8570 N   0  0  0  0  0  0  0  0  0  0  0  0
   39.6800   32.9330   46.0510 C   0  0  0  0  0  0  0  0  0  0  0  0
   40.8630   32.4780   45.2520 C   0  0  0  0  0  0  0  0  0  0  0  0
   40.1100   33.6690   44.8050 C   0  0  0  0  0  0  0  0  0  0  0  0
   35.4552   29.7184   45.9223 H   0  0  0  0  0  0  0  0  0  0  0  0
   36.3758   30.5187   43.7919 H   0  0  0  0  0  0  0  0  0  0  0  0
   38.3531   32.0215   43.8283 H   0  0  0  0  0  0  0  0  0  0  0  0
   37.2049   28.6578   51.3491 H   0  0  0  0  0  0  0  0  0  0  0  0
   38.1654   29.4282   49.1790 H   0  0  0  0  0  0  0  0  0  0  0  0
   33.4541   30.2188   50.1697 H   0  0  0  0  0  0  0  0  0  0  0  0
   39.4751   33.2416   47.0868 H   0  0  0  0  0  0  0  0  0  0  0  0
   41.8773   32.5936   45.6616 H   0  0  0  0  0  0  0  0  0  0  0  0
   41.1575   31.5288   44.7805 H   0  0  0  0  0  0  0  0  0  0  0  0
   40.5633   34.6680   44.8858 H   0  0  0  0  0  0  0  0  0  0  0  0
   39.6143   33.9688   43.8699 H   0  0  0  0  0  0  0  0  0  0  0  0
  2  3  2  0
  2  1  1  0
  3 10  1  0
  4  3  1  0
  5  6  1  0
  5  4  2  0
  6  7  2  0
  7 14  1  0
  7  2  1  0
  8 13  2  0
  9  8  1  0
 10 11  1  0
 10  9  2  0
 11 12  2  0
 12 13  1  0
 15 14  1  0
 16 15  1  0
 16 14  1  0
  4 17  1  0
  5 18  1  0
  6 19  1  0
  8 20  1  0
  9 21  1  0
 12 22  1  0
 14 23  1  0
 15 24  1  0
 15 25  1  0
 16 26  1  0
 16 27  1  0
M  ISO  8  17  14  18  14  19  14  20  14  21  14  22  14  23  13  24  13
M  ISO  3  25  13  26  13  27  13
M  END
>  <minimizedAffinity>  (1) 
-5.51242495

>  <minimizedRMSD>  (1) 
1.85387361

$$$$
