
     RDKit          3D

 27 29  0  0  0  0  0  0  0  0999 V2000
   35.9130   29.8980   48.4950 C   0  0  0  0  0  0  0  0  0  0  0  0
   37.1790   30.3980   48.0990 C   0  0  0  0  0  0  0  0  0  0  0  0
   37.3740   30.6970   46.7660 C   0  0  0  0  0  0  0  0  0  0  0  0
   36.3620   30.5060   45.8640 N   0  0  0  0  0  0  0  0  0  0  0  0
   35.1480   30.0170   46.2870 C   0  0  0  0  0  0  0  0  0  0  0  0
   34.9460   29.7230   47.5930 N   0  0  0  0  0  0  0  0  0  0  0  0
   38.6240   31.2560   46.2540 C   0  0  0  0  0  0  0  0  0  0  0  0
   38.8040   32.6270   46.4530 C   0  0  0  0  0  0  0  0  0  0  0  0
   39.9740   33.2280   45.9780 C   0  0  0  0  0  0  0  0  0  0  0  0
   40.9150   32.4450   45.3250 C   0  0  0  0  0  0  0  0  0  0  0  0
   40.7520   31.0850   45.1190 C   0  0  0  0  0  0  0  0  0  0  0  0
   39.5730   30.4980   45.6030 C   0  0  0  0  0  0  0  0  0  0  0  0
   38.2360   30.5130   49.1440 C   0  0  0  0  0  0  0  0  0  0  0  0
   38.2520   31.8850   49.9020 C   0  0  0  0  0  0  0  0  0  0  0  0
   37.7940   30.6800   50.5830 C   0  0  0  0  0  0  0  0  0  0  0  0
   35.7272   29.6532   49.5512 H   0  0  0  0  0  0  0  0  0  0  0  0
   34.3367   29.8639   45.5601 H   0  0  0  0  0  0  0  0  0  0  0  0
   38.0397   33.2227   46.9736 H   0  0  0  0  0  0  0  0  0  0  0  0
   40.1456   34.3052   46.1199 H   0  0  0  0  0  0  0  0  0  0  0  0
   41.8321   32.9261   44.9541 H   0  0  0  0  0  0  0  0  0  0  0  0
   41.5156   30.4895   44.5973 H   0  0  0  0  0  0  0  0  0  0  0  0
   39.4043   29.4203   45.4611 H   0  0  0  0  0  0  0  0  0  0  0  0
   38.9479   29.8603   48.6175 H   0  0  0  0  0  0  0  0  0  0  0  0
   39.2098   32.3463   50.1846 H   0  0  0  0  0  0  0  0  0  0  0  0
   37.8271   32.8823   49.7150 H   0  0  0  0  0  0  0  0  0  0  0  0
   36.7287   30.5749   50.8360 H   0  0  0  0  0  0  0  0  0  0  0  0
   38.0813   30.1880   51.5240 H   0  0  0  0  0  0  0  0  0  0  0  0
  2  1  2  0
  2 13  1  0
  3  2  1  0
  4  5  1  0
  4  3  2  0
  5  6  2  0
  6  1  1  0
  7  8  2  0
  7  3  1  0
  9  8  1  0
 10  9  2  0
 11 10  1  0
 11 12  2  0
 12  7  1  0
 13 14  1  0
 13 15  1  0
 14 15  1  0
  1 16  1  0
  5 17  1  0
  8 18  1  0
  9 19  1  0
 10 20  1  0
 11 21  1  0
 12 22  1  0
 13 23  1  0
 14 24  1  0
 14 25  1  0
 15 26  1  0
 15 27  1  0
M  ISO  8  16  14  17  14  18  14  19  14  20  14  21  14  22  14  23  13
M  ISO  4  24  13  25  13  26  13  27  13
M  END
>  <minimizedAffinity>  (1) 
-5.38591528

>  <minimizedRMSD>  (1) 
2.5256145

$$$$
