
     RDKit          3D

 45 49  0  0  0  0  0  0  0  0999 V2000
   38.1410   31.3640   47.8850 C   0  0  0  0  0  0  0  0  0  0  0  0
   37.2970   31.5810   48.9540 C   0  0  0  0  0  0  0  0  0  0  0  0
   37.5160   32.7870   49.6210 C   0  0  0  0  0  0  0  0  0  0  0  0
   38.5160   33.6890   49.2200 C   0  0  0  0  0  0  0  0  0  0  0  0
   39.3260   33.3690   48.1100 C   0  0  0  0  0  0  0  0  0  0  0  0
   39.1200   32.1670   47.4330 C   0  0  0  0  0  0  0  0  0  0  0  0
   35.1630   30.4510   48.5560 C   0  0  0  0  0  0  0  0  0  0  0  0
   36.2790   30.6640   49.3620 C   0  0  0  0  0  0  0  0  0  0  0  0
   36.3490   29.9490   50.5610 C   0  0  0  0  0  0  0  0  0  0  0  0
   35.3420   29.1000   50.8730 N   0  0  0  0  0  0  0  0  0  0  0  0
   34.2690   28.9260   50.0510 C   0  0  0  0  0  0  0  0  0  0  0  0
   34.1860   29.5980   48.9060 N   0  0  0  0  0  0  0  0  0  0  0  0
   37.5160   30.1330   51.4610 C   0  0  0  0  0  0  0  0  0  0  0  0
   38.0100   30.1800   47.1390 O   0  0  0  0  0  0  0  0  0  0  0  0
   39.9520   31.9280   46.3590 O   0  0  0  0  0  0  0  0  0  0  0  0
   40.0630   30.8470   44.1250 C   0  0  0  0  0  0  0  0  0  0  0  0
   39.5730   31.7260   45.0670 C   0  0  0  0  0  0  0  0  0  0  0  0
   38.5250   32.5720   44.7060 C   0  0  0  0  0  0  0  0  0  0  0  0
   37.9770   32.5300   43.4090 C   0  0  0  0  0  0  0  0  0  0  0  0
   37.0040   33.1820   42.7670 N   0  0  0  0  0  0  0  0  0  0  0  0
   36.8910   32.7430   41.5100 C   0  0  0  0  0  0  0  0  0  0  0  0
   37.8310   31.7720   41.3470 N   0  0  0  0  0  0  0  0  0  0  0  0
   38.5180   31.6230   42.5110 C   0  0  0  0  0  0  0  0  0  0  0  0
   39.5470   30.7880   42.8570 C   0  0  0  0  0  0  0  0  0  0  0  0
   40.1080   29.8240   41.8740 C   0  0  0  0  0  0  0  0  0  0  0  0
   41.5010   29.3190   42.1420 C   0  0  0  0  0  0  0  0  0  0  0  0
   40.3010   28.4000   42.1860 C   0  0  0  0  0  0  0  0  0  0  0  0
   36.8866   33.0392   50.4871 H   0  0  0  0  0  0  0  0  0  0  0  0
   38.6655   34.6329   49.7647 H   0  0  0  0  0  0  0  0  0  0  0  0
   40.1141   34.0623   47.7809 H   0  0  0  0  0  0  0  0  0  0  0  0
   35.0793   30.9973   47.6050 H   0  0  0  0  0  0  0  0  0  0  0  0
   33.4685   28.2272   50.3354 H   0  0  0  0  0  0  0  0  0  0  0  0
   37.1833   30.0805   52.5082 H   0  0  0  0  0  0  0  0  0  0  0  0
   38.2544   29.3402   51.2707 H   0  0  0  0  0  0  0  0  0  0  0  0
   37.9746   31.1146   51.2707 H   0  0  0  0  0  0  0  0  0  0  0  0
   38.6091   30.0112   46.3691 H   0  0  0  0  0  0  0  0  0  0  0  0
   40.8900   30.1752   44.3984 H   0  0  0  0  0  0  0  0  0  0  0  0
   38.1210   33.2812   45.4434 H   0  0  0  0  0  0  0  0  0  0  0  0
   36.4208   33.9217   43.1837 H   0  0  0  0  0  0  0  0  0  0  0  0
   36.1762   33.0978   40.7529 H   0  0  0  0  0  0  0  0  0  0  0  0
   39.5793   30.3343   41.0554 H   0  0  0  0  0  0  0  0  0  0  0  0
   42.2298   29.2406   41.3219 H   0  0  0  0  0  0  0  0  0  0  0  0
   42.3157   29.5841   42.8320 H   0  0  0  0  0  0  0  0  0  0  0  0
   39.9535   27.9977   43.1490 H   0  0  0  0  0  0  0  0  0  0  0  0
   40.0307   27.4555   41.6911 H   0  0  0  0  0  0  0  0  0  0  0  0
  1  2  2  0
  2  8  1  0
  2  3  1  0
  4  3  2  0
  5  4  1  0
  6  1  1  0
  6  5  2  0
  7 12  2  0
  7  8  1  0
  8  9  2  0
  9 10  1  0
  9 13  1  0
 11 10  2  0
 12 11  1  0
 14  1  1  0
 15  6  1  0
 16 17  2  0
 17 15  1  0
 18 17  1  0
 19 18  2  0
 20 19  1  0
 21 20  1  0
 22 21  2  0
 22 23  1  0
 23 24  2  0
 23 19  1  0
 24 16  1  0
 25 26  1  0
 25 27  1  0
 25 24  1  0
 26 27  1  0
  3 28  1  0
  4 29  1  0
  5 30  1  0
  7 31  1  0
 11 32  1  0
 13 33  1  0
 13 34  1  0
 13 35  1  0
 14 36  1  0
 16 37  1  0
 18 38  1  0
 20 39  1  0
 21 40  1  0
 25 41  1  0
 26 42  1  0
 26 43  1  0
 27 44  1  0
 27 45  1  0
M  ISO  8  28  14  29  14  30  14  31  14  32  14  33   8  34   8  35   8
M  ISO  8  36   3  37  14  38  14  39   9  40  14  41  13  42  13  43  13
M  ISO  2  44  13  45  13
M  END
>  <minimizedAffinity>  (1) 
-7.34576941

>  <minimizedRMSD>  (1) 
0.811363637

$$$$
