
     RDKit          3D

 22 23  0  0  0  0  0  0  0  0999 V2000
   35.0030   29.6760   50.1800 C   0  0  0  0  0  0  0  0  0  0  0  0
   36.3680   29.9560   49.9260 C   0  0  0  0  0  0  0  0  0  0  0  0
   36.7200   30.4260   48.6570 C   0  0  0  0  0  0  0  0  0  0  0  0
   35.7320   30.5910   47.7270 N   0  0  0  0  0  0  0  0  0  0  0  0
   34.4290   30.3090   48.0140 C   0  0  0  0  0  0  0  0  0  0  0  0
   34.0650   29.8590   49.2170 N   0  0  0  0  0  0  0  0  0  0  0  0
   33.5760   30.5420   46.9100 N   0  0  0  0  0  0  0  0  0  0  0  0
   37.3530   29.7310   51.0300 C   0  0  0  0  0  0  0  0  0  0  0  0
   38.2860   30.7710   51.0620 F   0  0  0  0  0  0  0  0  0  0  0  0
   36.6610   29.7700   52.2090 F   0  0  0  0  0  0  0  0  0  0  0  0
   38.0280   28.5520   50.9110 F   0  0  0  0  0  0  0  0  0  0  0  0
   38.1310   30.7180   48.3900 C   0  0  0  0  0  0  0  0  0  0  0  0
   38.5200   32.1080   47.9060 C   0  0  0  0  0  0  0  0  0  0  0  0
   38.4830   30.9960   46.9330 C   0  0  0  0  0  0  0  0  0  0  0  0
   34.6996   29.3056   51.1703 H   0  0  0  0  0  0  0  0  0  0  0  0
   32.5644   30.3676   46.9950 H   0  0  0  0  0  0  0  0  0  0  0  0
   33.9664   30.8860   46.0211 H   0  0  0  0  0  0  0  0  0  0  0  0
   38.4826   30.0566   49.1956 H   0  0  0  0  0  0  0  0  0  0  0  0
   37.7610   32.9027   47.8576 H   0  0  0  0  0  0  0  0  0  0  0  0
   39.2790   32.8453   48.2066 H   0  0  0  0  0  0  0  0  0  0  0  0
   37.6964   30.9669   46.1646 H   0  0  0  0  0  0  0  0  0  0  0  0
   39.2026   30.5713   46.2176 H   0  0  0  0  0  0  0  0  0  0  0  0
  2  1  2  0
  2  8  1  0
  3  2  1  0
  4  5  1  0
  4  3  2  0
  5  6  2  0
  6  1  1  0
  7  5  1  0
  8  9  1  0
  8 10  1  0
 11  8  1  0
 12  3  1  0
 13 12  1  0
 14 13  1  0
 14 12  1  0
  1 15  1  0
  7 16  1  0
  7 17  1  0
 12 18  1  0
 13 19  1  0
 13 20  1  0
 14 21  1  0
 14 22  1  0
M  ISO  6  15  14  18  13  19  13  20  13  21  13  22  13
M  END
>  <minimizedAffinity>  (1) 
-5.45271826

>  <minimizedRMSD>  (1) 
1.8114773

$$$$
