
     RDKit          3D

 18 19  0  0  0  0  0  0  0  0999 V2000
   37.3450   29.9750   51.1450 C   0  0  0  0  0  0  0  0  0  0  0  0
   37.9490   30.9740   50.3540 C   0  0  0  0  0  0  0  0  0  0  0  0
   37.2940   31.3700   49.2000 C   0  0  0  0  0  0  0  0  0  0  0  0
   36.1130   30.7780   48.8900 N   0  0  0  0  0  0  0  0  0  0  0  0
   35.5430   29.8210   49.6580 C   0  0  0  0  0  0  0  0  0  0  0  0
   36.1700   29.4270   50.7840 N   0  0  0  0  0  0  0  0  0  0  0  0
   34.2640   29.1980   49.2990 C   0  0  0  0  0  0  0  0  0  0  0  0
   34.3070   27.8120   48.6780 C   0  0  0  0  0  0  0  0  0  0  0  0
   33.8730   29.0120   47.8810 C   0  0  0  0  0  0  0  0  0  0  0  0
   38.0980   29.6740   52.2640 O   0  0  0  0  0  0  0  0  0  0  0  0
   38.9097   31.4243   50.6444 H   0  0  0  0  0  0  0  0  0  0  0  0
   37.7215   32.1470   48.5492 H   0  0  0  0  0  0  0  0  0  0  0  0
   33.7735   29.6706   50.1627 H   0  0  0  0  0  0  0  0  0  0  0  0
   35.2728   27.3287   48.4693 H   0  0  0  0  0  0  0  0  0  0  0  0
   33.8732   26.8301   48.9182 H   0  0  0  0  0  0  0  0  0  0  0  0
   34.5198   29.3996   47.0801 H   0  0  0  0  0  0  0  0  0  0  0  0
   32.9810   29.2622   47.2880 H   0  0  0  0  0  0  0  0  0  0  0  0
   37.7825   28.9865   52.9027 H   0  0  0  0  0  0  0  0  0  0  0  0
  1 10  1  0
  2  1  2  0
  3  2  1  0
  4  3  2  0
  4  5  1  0
  5  6  2  0
  6  1  1  0
  7  5  1  0
  8  7  1  0
  9  8  1  0
  9  7  1  0
  2 11  1  0
  3 12  1  0
  7 13  1  0
  8 14  1  0
  8 15  1  0
  9 16  1  0
  9 17  1  0
 10 18  1  0
M  ISO  8  11  14  12  14  13  13  14  13  15  13  16  13  17  13  18   3
M  END
>  <minimizedAffinity>  (1) 
-4.21965408

>  <minimizedRMSD>  (1) 
0.348437816

$$$$
