
     RDKit          3D

 38 42  0  0  0  0  0  0  0  0999 V2000
   38.5870   32.5670   48.6630 C   0  0  0  0  0  0  0  0  0  0  0  0
   39.1500   32.6850   47.3800 C   0  0  0  0  0  0  0  0  0  0  0  0
   38.5730   31.8880   46.3690 C   0  0  0  0  0  0  0  0  0  0  0  0
   37.5350   31.0660   46.6610 N   0  0  0  0  0  0  0  0  0  0  0  0
   37.0380   31.0020   47.9260 C   0  0  0  0  0  0  0  0  0  0  0  0
   37.5510   31.7380   48.9220 N   0  0  0  0  0  0  0  0  0  0  0  0
   35.9920   29.1890   49.2150 C   0  0  0  0  0  0  0  0  0  0  0  0
   35.9120   30.0890   48.1670 C   0  0  0  0  0  0  0  0  0  0  0  0
   34.7990   30.1220   47.3770 C   0  0  0  0  0  0  0  0  0  0  0  0
   33.7430   29.2740   47.5950 C   0  0  0  0  0  0  0  0  0  0  0  0
   32.5490   29.1090   46.9690 N   0  0  0  0  0  0  0  0  0  0  0  0
   31.9470   28.1090   47.6630 C   0  0  0  0  0  0  0  0  0  0  0  0
   32.7250   27.6820   48.6600 N   0  0  0  0  0  0  0  0  0  0  0  0
   33.8680   28.3940   48.6510 C   0  0  0  0  0  0  0  0  0  0  0  0
   34.9520   28.3190   49.4680 C   0  0  0  0  0  0  0  0  0  0  0  0
   39.0290   31.8840   44.9920 C   0  0  0  0  0  0  0  0  0  0  0  0
   38.7290   32.8590   44.0780 C   0  0  0  0  0  0  0  0  0  0  0  0
   39.1510   32.8780   42.7630 C   0  0  0  0  0  0  0  0  0  0  0  0
   39.9150   31.8510   42.3660 N   0  0  0  0  0  0  0  0  0  0  0  0
   40.2290   30.8860   43.2190 C   0  0  0  0  0  0  0  0  0  0  0  0
   39.8070   30.9030   44.4690 N   0  0  0  0  0  0  0  0  0  0  0  0
   41.0820   29.7090   42.8350 C   0  0  0  0  0  0  0  0  0  0  0  0
   41.2720   29.5340   41.2960 C   0  0  0  0  0  0  0  0  0  0  0  0
   40.4720   28.5700   42.1210 C   0  0  0  0  0  0  0  0  0  0  0  0
   39.0035   33.1695   49.4836 H   0  0  0  0  0  0  0  0  0  0  0  0
   39.9934   33.3611   47.1759 H   0  0  0  0  0  0  0  0  0  0  0  0
   36.8900   29.1672   49.8499 H   0  0  0  0  0  0  0  0  0  0  0  0
   34.7480   30.8437   46.5484 H   0  0  0  0  0  0  0  0  0  0  0  0
   32.1841   29.6240   46.1550 H   0  0  0  0  0  0  0  0  0  0  0  0
   30.9501   27.7044   47.4339 H   0  0  0  0  0  0  0  0  0  0  0  0
   34.9977   27.5955   50.2953 H   0  0  0  0  0  0  0  0  0  0  0  0
   38.1008   33.6951   44.4191 H   0  0  0  0  0  0  0  0  0  0  0  0
   38.8746   33.6930   42.0778 H   0  0  0  0  0  0  0  0  0  0  0  0
   41.7157   29.7834   43.7311 H   0  0  0  0  0  0  0  0  0  0  0  0
   42.2489   29.2382   40.8860 H   0  0  0  0  0  0  0  0  0  0  0  0
   41.0928   30.1486   40.4015 H   0  0  0  0  0  0  0  0  0  0  0  0
   39.3795   28.5307   41.9989 H   0  0  0  0  0  0  0  0  0  0  0  0
   40.5089   27.4796   42.2612 H   0  0  0  0  0  0  0  0  0  0  0  0
  1  6  2  0
  2  1  1  0
  3  4  1  0
  3  2  2  0
  4  5  2  0
  5  8  1  0
  5  6  1  0
  7 15  2  0
  8  7  1  0
  9 10  1  0
  9  8  2  0
 10 14  2  0
 11 10  1  0
 11 12  1  0
 12 13  2  0
 14 13  1  0
 14 15  1  0
 16  3  1  0
 17 16  2  0
 18 17  1  0
 19 18  2  0
 19 20  1  0
 20 21  2  0
 21 16  1  0
 22 20  1  0
 23 24  1  0
 23 22  1  0
 24 22  1  0
  1 25  1  0
  2 26  1  0
  7 27  1  0
  9 28  1  0
 11 29  1  0
 12 30  1  0
 15 31  1  0
 17 32  1  0
 18 33  1  0
 22 34  1  0
 23 35  1  0
 23 36  1  0
 24 37  1  0
 24 38  1  0
M  ISO  8  25  14  26  14  27  14  28  14  29   9  30  14  31  14  32  14
M  ISO  6  33  14  34  13  35  13  36  13  37  13  38  13
M  END
>  <minimizedAffinity>  (1) 
-6.71832705

>  <minimizedRMSD>  (1) 
0.936509609

$$$$
