
     RDKit          3D

 38 41  0  0  0  0  0  0  0  0999 V2000
   36.4220   30.9000   45.7190 Cl  0  0  0  0  0  0  0  0  0  0  0  0
   36.7050   30.7910   47.4350 C   0  0  0  0  0  0  0  0  0  0  0  0
   37.9610   31.1260   47.8960 C   0  0  0  0  0  0  0  0  0  0  0  0
   38.1940   31.0430   49.2560 C   0  0  0  0  0  0  0  0  0  0  0  0
   37.2050   30.6400   50.0970 C   0  0  0  0  0  0  0  0  0  0  0  0
   35.9500   30.3130   49.5680 C   0  0  0  0  0  0  0  0  0  0  0  0
   35.6430   30.3710   48.2390 C   0  0  0  0  0  0  0  0  0  0  0  0
   40.2220   33.3310   46.0770 C   0  0  0  0  0  0  0  0  0  0  0  0
   40.9320   32.4710   45.2170 C   0  0  0  0  0  0  0  0  0  0  0  0
   40.6130   31.1090   45.2790 C   0  0  0  0  0  0  0  0  0  0  0  0
   39.6490   30.6970   46.1530 N   0  0  0  0  0  0  0  0  0  0  0  0
   39.0080   31.5600   46.9450 C   0  0  0  0  0  0  0  0  0  0  0  0
   39.2910   32.8610   46.9070 N   0  0  0  0  0  0  0  0  0  0  0  0
   34.0770   29.9660   47.5550 S   0  0  0  0  0  0  0  0  0  0  0  0
   33.8750   29.2290   44.5060 Cl  0  0  0  0  0  0  0  0  0  0  0  0
   33.8710   27.9790   45.7430 C   0  0  0  0  0  0  0  0  0  0  0  0
   33.9580   28.2310   47.1110 C   0  0  0  0  0  0  0  0  0  0  0  0
   33.9460   27.1830   47.9980 C   0  0  0  0  0  0  0  0  0  0  0  0
   33.8510   25.8990   47.5540 C   0  0  0  0  0  0  0  0  0  0  0  0
   33.7640   25.5980   46.2090 C   0  0  0  0  0  0  0  0  0  0  0  0
   33.7760   26.6490   45.3390 C   0  0  0  0  0  0  0  0  0  0  0  0
   33.6820   26.3660   43.8830 C   0  0  0  0  0  0  0  0  0  0  0  0
   34.9400   26.0420   43.1680 C   0  0  0  0  0  0  0  0  0  0  0  0
   33.8680   24.9480   43.3880 C   0  0  0  0  0  0  0  0  0  0  0  0
   39.1836   31.3041   49.6593 H   0  0  0  0  0  0  0  0  0  0  0  0
   37.3880   30.5716   51.1795 H   0  0  0  0  0  0  0  0  0  0  0  0
   35.1637   29.9897   50.2660 H   0  0  0  0  0  0  0  0  0  0  0  0
   40.4395   34.4092   46.0635 H   0  0  0  0  0  0  0  0  0  0  0  0
   41.7012   32.8514   44.5288 H   0  0  0  0  0  0  0  0  0  0  0  0
   41.1305   30.3834   44.6343 H   0  0  0  0  0  0  0  0  0  0  0  0
   34.0138   27.3824   49.0777 H   0  0  0  0  0  0  0  0  0  0  0  0
   33.8434   25.0789   48.2871 H   0  0  0  0  0  0  0  0  0  0  0  0
   33.6885   24.5591   45.8555 H   0  0  0  0  0  0  0  0  0  0  0  0
   32.8834   27.1110   43.7515 H   0  0  0  0  0  0  0  0  0  0  0  0
   35.8910   25.9994   43.7192 H   0  0  0  0  0  0  0  0  0  0  0  0
   35.4660   26.4518   42.2931 H   0  0  0  0  0  0  0  0  0  0  0  0
   33.2749   24.5729   42.5409 H   0  0  0  0  0  0  0  0  0  0  0  0
   33.8444   23.9448   43.8386 H   0  0  0  0  0  0  0  0  0  0  0  0
  1  2  1  0
  2  3  2  0
  2  7  1  0
  3  4  1  0
  4  5  2  0
  6  5  1  0
  7  6  2  0
  8 13  2  0
  9 10  2  0
  9  8  1  0
 10 11  1  0
 11 12  2  0
 12  3  1  0
 13 12  1  0
 14  7  1  0
 15 16  1  0
 16 17  2  0
 17 14  1  0
 17 18  1  0
 19 18  2  0
 20 19  1  0
 21 16  1  0
 21 20  2  0
 22 21  1  0
 23 24  1  0
 23 22  1  0
 24 22  1  0
  4 25  1  0
  5 26  1  0
  6 27  1  0
  8 28  1  0
  9 29  1  0
 10 30  1  0
 18 31  1  0
 19 32  1  0
 20 33  1  0
 22 34  1  0
 23 35  1  0
 23 36  1  0
 24 37  1  0
 24 38  1  0
M  ISO  8  25  14  26  14  27  14  28  14  29  14  30  14  31  14  32  14
M  ISO  6  33  14  34  13  35  13  36  13  37  13  38  13
M  END
>  <minimizedAffinity>  (1) 
-5.68327427

>  <minimizedRMSD>  (1) 
0.320641458

$$$$
