
     RDKit          3D

 32 34  0  0  0  0  0  0  0  0999 V2000
   36.3760   30.9050   45.6980 Cl  0  0  0  0  0  0  0  0  0  0  0  0
   36.6770   30.7460   47.4090 C   0  0  0  0  0  0  0  0  0  0  0  0
   37.9440   31.0620   47.8610 C   0  0  0  0  0  0  0  0  0  0  0  0
   38.1780   30.9360   49.2130 C   0  0  0  0  0  0  0  0  0  0  0  0
   37.1830   30.5120   50.0590 C   0  0  0  0  0  0  0  0  0  0  0  0
   35.9270   30.2130   49.5240 C   0  0  0  0  0  0  0  0  0  0  0  0
   35.6250   30.3150   48.1940 C   0  0  0  0  0  0  0  0  0  0  0  0
   40.1950   33.3010   46.0900 C   0  0  0  0  0  0  0  0  0  0  0  0
   40.9020   32.4650   45.2150 C   0  0  0  0  0  0  0  0  0  0  0  0
   40.5870   31.0990   45.2450 C   0  0  0  0  0  0  0  0  0  0  0  0
   39.6260   30.6680   46.1110 N   0  0  0  0  0  0  0  0  0  0  0  0
   38.9860   31.5130   46.9210 C   0  0  0  0  0  0  0  0  0  0  0  0
   39.2720   32.8150   46.9060 N   0  0  0  0  0  0  0  0  0  0  0  0
   34.0370   29.9360   47.5160 S   0  0  0  0  0  0  0  0  0  0  0  0
   33.7130   29.1760   44.4640 Cl  0  0  0  0  0  0  0  0  0  0  0  0
   33.7530   27.9570   45.7060 C   0  0  0  0  0  0  0  0  0  0  0  0
   33.8930   28.1980   47.0820 C   0  0  0  0  0  0  0  0  0  0  0  0
   33.9100   27.1430   47.9650 C   0  0  0  0  0  0  0  0  0  0  0  0
   33.7920   25.8560   47.5170 C   0  0  0  0  0  0  0  0  0  0  0  0
   33.6510   25.5550   46.1670 C   0  0  0  0  0  0  0  0  0  0  0  0
   33.6360   26.6320   45.2980 C   0  0  0  0  0  0  0  0  0  0  0  0
   33.4540   26.2360   43.5580 S   0  0  0  0  0  0  0  0  0  0  0  0
   39.1716   31.1774   49.6186 H   0  0  0  0  0  0  0  0  0  0  0  0
   37.3710   30.4096   51.1380 H   0  0  0  0  0  0  0  0  0  0  0  0
   35.1368   29.8767   50.2113 H   0  0  0  0  0  0  0  0  0  0  0  0
   40.4105   34.3796   46.0991 H   0  0  0  0  0  0  0  0  0  0  0  0
   41.6698   32.8628   44.5351 H   0  0  0  0  0  0  0  0  0  0  0  0
   41.1048   30.3892   44.5831 H   0  0  0  0  0  0  0  0  0  0  0  0
   34.0196   27.3365   49.0423 H   0  0  0  0  0  0  0  0  0  0  0  0
   33.8092   25.0337   48.2474 H   0  0  0  0  0  0  0  0  0  0  0  0
   33.5567   24.5189   45.8097 H   0  0  0  0  0  0  0  0  0  0  0  0
   32.8844   24.9967   43.4288 H   0  0  0  0  0  0  0  0  0  0  0  0
  1  2  1  0
  2  3  2  0
  2  7  1  0
  3  4  1  0
  4  5  2  0
  6  5  1  0
  7  6  2  0
  8 13  2  0
  9 10  2  0
  9  8  1  0
 10 11  1  0
 11 12  2  0
 12  3  1  0
 13 12  1  0
 14  7  1  0
 15 16  1  0
 16 17  2  0
 17 14  1  0
 17 18  1  0
 19 18  2  0
 20 19  1  0
 21 16  1  0
 21 20  2  0
 22 21  1  0
  4 23  1  0
  5 24  1  0
  6 25  1  0
  8 26  1  0
  9 27  1  0
 10 28  1  0
 18 29  1  0
 19 30  1  0
 20 31  1  0
 22 32  1  0
M  ISO  8  23  14  24  14  25  14  26  14  27  14  28  14  29  14  30  14
M  ISO  2  31  14  32  11
M  END
>  <minimizedAffinity>  (1) 
-5.74094105

>  <minimizedRMSD>  (1) 
0.0235365182

$$$$
