
     RDKit          3D

 27 28  0  0  1  0  0  0  0  0999 V2000
   34.0110   29.1910   48.4330 C   0  0  1  0  0  0  0  0  0  0  0  0
   33.7200   29.6060   47.0470 C   0  0  0  0  0  0  0  0  0  0  0  0
   34.0190   28.6110   45.9670 C   0  0  0  0  0  0  0  0  0  0  0  0
   33.7370   27.1980   46.3110 C   0  0  0  0  0  0  0  0  0  0  0  0
   34.0230   26.7590   47.7050 C   0  0  0  0  0  0  0  0  0  0  0  0
   33.5970   27.7910   48.7130 C   0  0  2  0  0  0  0  0  0  0  0  0
   36.2240   30.4250   48.2730 C   0  0  0  0  0  0  0  0  0  0  0  0
   35.3620   29.5310   48.9340 C   0  0  0  0  0  0  0  0  0  0  0  0
   35.8220   28.9680   50.1110 C   0  0  0  0  0  0  0  0  0  0  0  0
   37.0590   29.2890   50.5780 N   0  0  0  0  0  0  0  0  0  0  0  0
   37.8570   30.1590   49.9040 C   0  0  0  0  0  0  0  0  0  0  0  0
   37.4430   30.7300   48.7510 N   0  0  0  0  0  0  0  0  0  0  0  0
   31.7540   27.8090   48.5970 S   0  0  0  0  0  0  0  0  0  0  0  0
   33.3610   29.8321   49.0466 H   0  0  0  0  0  0  0  0  0  0  0  0
   32.6483   29.8472   46.9899 H   0  0  0  0  0  0  0  0  0  0  0  0
   34.3941   30.4532   46.8526 H   0  0  0  0  0  0  0  0  0  0  0  0
   35.0868   28.6928   45.7159 H   0  0  0  0  0  0  0  0  0  0  0  0
   33.3488   28.8596   45.1309 H   0  0  0  0  0  0  0  0  0  0  0  0
   32.6680   27.0201   46.1224 H   0  0  0  0  0  0  0  0  0  0  0  0
   34.4289   26.6142   45.6861 H   0  0  0  0  0  0  0  0  0  0  0  0
   33.4800   25.8229   47.9022 H   0  0  0  0  0  0  0  0  0  0  0  0
   35.1090   26.6134   47.8021 H   0  0  0  0  0  0  0  0  0  0  0  0
   34.0526   27.5138   49.6751 H   0  0  0  0  0  0  0  0  0  0  0  0
   35.8895   30.8899   47.3339 H   0  0  0  0  0  0  0  0  0  0  0  0
   35.1888   28.2620   50.6684 H   0  0  0  0  0  0  0  0  0  0  0  0
   38.8532   30.4016   50.3024 H   0  0  0  0  0  0  0  0  0  0  0  0
   31.2171   27.8142   49.8574 H   0  0  0  0  0  0  0  0  0  0  0  0
  1  6  1  0
  1  8  1  0
  2  1  1  0
  3  4  1  0
  3  2  1  0
  4  5  1  0
  5  6  1  0
  7 12  2  0
  7  8  1  0
  8  9  2  0
  9 10  1  0
 11 10  2  0
 12 11  1  0
 13  6  1  0
  1 14  1  1
  2 15  1  0
  2 16  1  0
  3 17  1  0
  3 18  1  0
  4 19  1  0
  4 20  1  0
  5 21  1  0
  5 22  1  0
  6 23  1  1
  7 24  1  0
  9 25  1  0
 11 26  1  0
 13 27  1  0
M  ISO  8  14  13  15  13  16  13  17  13  18  13  19  13  20  13  21  13
M  ISO  6  22  13  23  13  24  14  25  14  26  14  27  11
M  END
>  <minimizedAffinity>  (1) 
-3.9506743

>  <minimizedRMSD>  (1) 
1.24779701

$$$$
