
     RDKit          3D

 34 36  0  0  0  0  0  0  0  0999 V2000
   34.0320   28.8060   48.2910 C   0  0  0  0  0  0  0  0  0  0  0  0
   34.6690   28.3690   49.4020 C   0  0  0  0  0  0  0  0  0  0  0  0
   35.8970   28.8020   49.8230 C   0  0  0  0  0  0  0  0  0  0  0  0
   36.5800   29.7350   49.1190 C   0  0  0  0  0  0  0  0  0  0  0  0
   35.9350   30.2050   47.9570 C   0  0  0  0  0  0  0  0  0  0  0  0
   34.7230   29.7520   47.5780 N   0  0  0  0  0  0  0  0  0  0  0  0
   31.9330   27.5030   48.5750 C   0  0  0  0  0  0  0  0  0  0  0  0
   32.7490   28.3620   47.8410 C   0  0  0  0  0  0  0  0  0  0  0  0
   32.2630   28.7820   46.6280 C   0  0  0  0  0  0  0  0  0  0  0  0
   31.0350   28.3540   46.2020 N   0  0  0  0  0  0  0  0  0  0  0  0
   30.2840   27.5150   46.9650 C   0  0  0  0  0  0  0  0  0  0  0  0
   30.7270   27.0770   48.1690 N   0  0  0  0  0  0  0  0  0  0  0  0
   37.8180   30.2910   49.3800 O   0  0  0  0  0  0  0  0  0  0  0  0
   38.3950   31.2600   48.5810 C   0  0  0  0  0  0  0  0  0  0  0  0
   38.4790   32.5150   49.1860 C   0  0  0  0  0  0  0  0  0  0  0  0
   39.0820   33.3630   48.2430 C   0  0  0  0  0  0  0  0  0  0  0  0
   39.3290   32.6210   47.1560 N   0  0  0  0  0  0  0  0  0  0  0  0
   38.9280   31.3920   47.3510 N   0  0  0  0  0  0  0  0  0  0  0  0
   39.9470   33.1350   45.9620 C   0  0  0  0  0  0  0  0  0  0  0  0
   40.8240   32.0240   45.4090 C   0  0  0  0  0  0  0  0  0  0  0  0
   40.1450   31.5780   43.7780 S   0  0  0  0  0  0  0  0  0  0  0  0
   34.1613   27.6081   50.0130 H   0  0  0  0  0  0  0  0  0  0  0  0
   36.3339   28.3874   50.7435 H   0  0  0  0  0  0  0  0  0  0  0  0
   36.4363   30.9653   47.3400 H   0  0  0  0  0  0  0  0  0  0  0  0
   32.3013   27.1515   49.5501 H   0  0  0  0  0  0  0  0  0  0  0  0
   32.8589   29.4607   46.0001 H   0  0  0  0  0  0  0  0  0  0  0  0
   29.3002   27.1862   46.5988 H   0  0  0  0  0  0  0  0  0  0  0  0
   38.1411   32.7853   50.1973 H   0  0  0  0  0  0  0  0  0  0  0  0
   39.3081   34.4317   48.3724 H   0  0  0  0  0  0  0  0  0  0  0  0
   39.1775   33.4119   45.2263 H   0  0  0  0  0  0  0  0  0  0  0  0
   40.5406   34.0349   46.1806 H   0  0  0  0  0  0  0  0  0  0  0  0
   41.8605   32.3769   45.3038 H   0  0  0  0  0  0  0  0  0  0  0  0
   40.8320   31.1552   46.0837 H   0  0  0  0  0  0  0  0  0  0  0  0
   39.0085   30.8315   43.9451 H   0  0  0  0  0  0  0  0  0  0  0  0
  1  2  2  0
  2  3  1  0
  4 13  1  0
  4  3  2  0
  5  4  1  0
  6  5  2  0
  6  1  1  0
  8  1  1  0
  8  7  2  0
  9  8  1  0
 10  9  2  0
 10 11  1  0
 11 12  2  0
 12  7  1  0
 14 15  1  0
 14 13  1  0
 16 15  2  0
 17 18  1  0
 17 16  1  0
 18 14  2  0
 19 17  1  0
 20 19  1  0
 21 20  1  0
  2 22  1  0
  3 23  1  0
  5 24  1  0
  7 25  1  0
  9 26  1  0
 11 27  1  0
 15 28  1  0
 16 29  1  0
 19 30  1  0
 19 31  1  0
 20 32  1  0
 20 33  1  0
 21 34  1  0
M  ISO  8  22  14  23  14  24  14  25  14  26  14  27  14  28  14  29  14
M  ISO  5  30   8  31   8  32   8  33   8  34  11
M  END
>  <minimizedAffinity>  (1) 
-5.42983961

>  <minimizedRMSD>  (1) 
0.369199753

$$$$
