
     RDKit          3D

 23 24  0  0  0  0  0  0  0  0999 V2000
   37.9660   31.3770   47.5990 C   0  0  0  0  0  0  0  0  0  0  0  0
   37.0370   31.2950   48.6070 C   0  0  0  0  0  0  0  0  0  0  0  0
   37.1420   32.2970   49.5870 C   0  0  0  0  0  0  0  0  0  0  0  0
   38.1290   33.2920   49.5110 C   0  0  0  0  0  0  0  0  0  0  0  0
   39.0220   33.2880   48.4500 C   0  0  0  0  0  0  0  0  0  0  0  0
   38.9410   32.3140   47.4740 C   0  0  0  0  0  0  0  0  0  0  0  0
   34.9380   30.3180   47.8000 C   0  0  0  0  0  0  0  0  0  0  0  0
   36.0280   30.2790   48.6850 C   0  0  0  0  0  0  0  0  0  0  0  0
   36.0740   29.2400   49.6050 C   0  0  0  0  0  0  0  0  0  0  0  0
   35.0720   28.3210   49.6060 N   0  0  0  0  0  0  0  0  0  0  0  0
   34.0350   28.3910   48.7350 C   0  0  0  0  0  0  0  0  0  0  0  0
   33.9670   29.3920   47.8310 N   0  0  0  0  0  0  0  0  0  0  0  0
   37.4220   29.1290   50.7540 S   0  0  0  0  0  0  0  0  0  0  0  0
   37.9430   30.4190   46.5710 O   0  0  0  0  0  0  0  0  0  0  0  0
   39.8560   32.3530   46.4330 O   0  0  0  0  0  0  0  0  0  0  0  0
   36.4363   32.3015   50.4307 H   0  0  0  0  0  0  0  0  0  0  0  0
   38.1937   34.0689   50.2870 H   0  0  0  0  0  0  0  0  0  0  0  0
   39.7986   34.0643   48.3854 H   0  0  0  0  0  0  0  0  0  0  0  0
   34.8785   31.1303   47.0607 H   0  0  0  0  0  0  0  0  0  0  0  0
   33.2439   27.6273   48.7650 H   0  0  0  0  0  0  0  0  0  0  0  0
   36.9354   29.1691   52.0341 H   0  0  0  0  0  0  0  0  0  0  0  0
   38.6060   30.4644   45.8372 H   0  0  0  0  0  0  0  0  0  0  0  0
   40.5423   33.0659   46.4036 H   0  0  0  0  0  0  0  0  0  0  0  0
  1  2  2  0
  2  8  1  0
  2  3  1  0
  4  3  2  0
  5  4  1  0
  6  1  1  0
  6  5  2  0
  7 12  2  0
  7  8  1  0
  8  9  2  0
  9 10  1  0
  9 13  1  0
 11 10  2  0
 12 11  1  0
 14  1  1  0
 15  6  1  0
  3 16  1  0
  4 17  1  0
  5 18  1  0
  7 19  1  0
 11 20  1  0
 13 21  1  0
 14 22  1  0
 15 23  1  0
M  ISO  8  16  14  17  14  18  14  19  14  20  14  21  11  22   3  23   3
M  END
>  <minimizedAffinity>  (1) 
-5.56789351

>  <minimizedRMSD>  (1) 
2.07214141

$$$$
