
     RDKit          3D

 38 40  0  0  0  0  0  0  0  0999 V2000
   38.6020   32.7760   48.3610 C   0  0  0  0  0  0  0  0  0  0  0  0
   38.9510   32.1420   47.1670 C   0  0  0  0  0  0  0  0  0  0  0  0
   38.5030   30.8520   46.9870 C   0  0  0  0  0  0  0  0  0  0  0  0
   37.7570   30.2850   47.9760 N   0  0  0  0  0  0  0  0  0  0  0  0
   37.4520   30.9090   49.0770 C   0  0  0  0  0  0  0  0  0  0  0  0
   37.8690   32.2010   49.3200 N   0  0  0  0  0  0  0  0  0  0  0  0
   39.6980   32.8250   46.2690 O   0  0  0  0  0  0  0  0  0  0  0  0
   39.8930   32.2980   44.9970 C   0  0  0  0  0  0  0  0  0  0  0  0
   40.6400   31.1940   44.6470 C   0  0  0  0  0  0  0  0  0  0  0  0
   40.7130   30.8300   43.3490 C   0  0  0  0  0  0  0  0  0  0  0  0
   40.0410   31.5720   42.4140 C   0  0  0  0  0  0  0  0  0  0  0  0
   39.2890   32.6850   42.7810 C   0  0  0  0  0  0  0  0  0  0  0  0
   39.2300   33.0350   44.0960 N   0  0  0  0  0  0  0  0  0  0  0  0
   38.5580   33.4900   41.7260 C   0  0  0  0  0  0  0  0  0  0  0  0
   36.4540   29.9050   50.2010 S   0  0  0  0  0  0  0  0  0  0  0  0
   34.7250   30.3700   49.7960 C   0  0  0  0  0  0  0  0  0  0  0  0
   34.3150   27.6390   49.7040 F   0  0  0  0  0  0  0  0  0  0  0  0
   34.2350   28.3580   48.5370 C   0  0  0  0  0  0  0  0  0  0  0  0
   34.4240   29.7390   48.4690 C   0  0  0  0  0  0  0  0  0  0  0  0
   34.3340   30.4030   47.2800 C   0  0  0  0  0  0  0  0  0  0  0  0
   34.0480   29.7160   46.0920 C   0  0  0  0  0  0  0  0  0  0  0  0
   33.8570   28.3400   46.1460 C   0  0  0  0  0  0  0  0  0  0  0  0
   33.9540   27.6870   47.3680 C   0  0  0  0  0  0  0  0  0  0  0  0
   33.7050   25.9160   47.4110 S   0  0  0  0  0  0  0  0  0  0  0  0
   38.9498   33.8071   48.5218 H   0  0  0  0  0  0  0  0  0  0  0  0
   38.7412   30.2944   46.0692 H   0  0  0  0  0  0  0  0  0  0  0  0
   41.1712   30.6155   45.4172 H   0  0  0  0  0  0  0  0  0  0  0  0
   41.3026   29.9518   43.0471 H   0  0  0  0  0  0  0  0  0  0  0  0
   40.0964   31.2834   41.3540 H   0  0  0  0  0  0  0  0  0  0  0  0
   37.8956   34.2195   42.2150 H   0  0  0  0  0  0  0  0  0  0  0  0
   39.2887   34.0213   41.0985 H   0  0  0  0  0  0  0  0  0  0  0  0
   37.9589   32.8137   41.0985 H   0  0  0  0  0  0  0  0  0  0  0  0
   34.0371   29.9885   50.5649 H   0  0  0  0  0  0  0  0  0  0  0  0
   34.6011   31.4624   49.7587 H   0  0  0  0  0  0  0  0  0  0  0  0
   34.4879   31.4919   47.2536 H   0  0  0  0  0  0  0  0  0  0  0  0
   33.9761   30.2551   45.1358 H   0  0  0  0  0  0  0  0  0  0  0  0
   33.6313   27.7741   45.2301 H   0  0  0  0  0  0  0  0  0  0  0  0
   33.6458   25.4947   48.7133 H   0  0  0  0  0  0  0  0  0  0  0  0
  1  6  2  0
  2  1  1  0
  3  2  2  0
  3  4  1  0
  4  5  2  0
  5  6  1  0
  5 15  1  0
  7  2  1  0
  8  7  1  0
  9  8  2  0
 10  9  1  0
 11 12  1  0
 11 10  2  0
 12 13  2  0
 13  8  1  0
 14 12  1  0
 16 15  1  0
 18 17  1  0
 19 18  2  0
 19 16  1  0
 20 19  1  0
 21 22  1  0
 21 20  2  0
 22 23  2  0
 23 24  1  0
 23 18  1  0
  1 25  1  0
  3 26  1  0
  9 27  1  0
 10 28  1  0
 11 29  1  0
 14 30  1  0
 14 31  1  0
 14 32  1  0
 16 33  1  0
 16 34  1  0
 20 35  1  0
 21 36  1  0
 22 37  1  0
 24 38  1  0
M  ISO  8  25  14  26  14  27  14  28  14  29  14  30   8  31   8  32   8
M  ISO  6  33   8  34   8  35  14  36  14  37  14  38  11
M  END
>  <minimizedAffinity>  (1) 
-5.91713333

>  <minimizedRMSD>  (1) 
1.78157222

$$$$
