
     RDKit          3D

 38 40  0  0  0  0  0  0  0  0999 V2000
   38.7190   31.7020   47.8810 C   0  0  0  0  0  0  0  0  0  0  0  0
   38.1120   31.9960   49.0890 C   0  0  0  0  0  0  0  0  0  0  0  0
   38.3980   33.2600   49.6020 C   0  0  0  0  0  0  0  0  0  0  0  0
   39.2370   34.1470   48.9270 C   0  0  0  0  0  0  0  0  0  0  0  0
   39.7980   33.7610   47.7210 C   0  0  0  0  0  0  0  0  0  0  0  0
   39.5370   32.5070   47.1780 C   0  0  0  0  0  0  0  0  0  0  0  0
   35.9410   30.8730   49.3480 C   0  0  0  0  0  0  0  0  0  0  0  0
   37.2460   31.0850   49.7890 C   0  0  0  0  0  0  0  0  0  0  0  0
   37.6520   30.3800   50.9210 C   0  0  0  0  0  0  0  0  0  0  0  0
   36.7660   29.5370   51.5260 N   0  0  0  0  0  0  0  0  0  0  0  0
   35.5100   29.3680   51.0560 C   0  0  0  0  0  0  0  0  0  0  0  0
   35.0960   30.0340   49.9680 N   0  0  0  0  0  0  0  0  0  0  0  0
   38.4820   30.4530   47.3030 O   0  0  0  0  0  0  0  0  0  0  0  0
   40.1120   32.1630   45.9810 O   0  0  0  0  0  0  0  0  0  0  0  0
   39.7650   32.4960   44.6950 C   0  0  0  0  0  0  0  0  0  0  0  0
   38.2750   32.6520   44.4760 C   0  0  0  0  0  0  0  0  0  0  0  0
   37.8170   31.7200   43.3730 C   0  0  0  0  0  0  0  0  0  0  0  0
   38.1350   30.3080   43.8370 C   0  0  0  0  0  0  0  0  0  0  0  0
   39.6350   30.1440   43.8330 C   0  0  0  0  0  0  0  0  0  0  0  0
   40.3590   31.4600   43.7650 C   0  0  0  0  0  0  0  0  0  0  0  0
   37.9523   33.5649   50.5603 H   0  0  0  0  0  0  0  0  0  0  0  0
   39.4504   35.1408   49.3475 H   0  0  0  0  0  0  0  0  0  0  0  0
   40.4600   34.4565   47.1843 H   0  0  0  0  0  0  0  0  0  0  0  0
   35.5897   31.4143   48.4572 H   0  0  0  0  0  0  0  0  0  0  0  0
   38.6699   30.5013   51.3199 H   0  0  0  0  0  0  0  0  0  0  0  0
   34.8227   28.6795   51.5694 H   0  0  0  0  0  0  0  0  0  0  0  0
   38.9049   30.2191   46.4390 H   0  0  0  0  0  0  0  0  0  0  0  0
   40.1754   33.4937   44.4800 H   0  0  0  0  0  0  0  0  0  0  0  0
   37.7417   32.4065   45.4062 H   0  0  0  0  0  0  0  0  0  0  0  0
   38.0577   33.6908   44.1867 H   0  0  0  0  0  0  0  0  0  0  0  0
   38.3551   31.9430   42.4399 H   0  0  0  0  0  0  0  0  0  0  0  0
   36.7417   31.8393   43.1741 H   0  0  0  0  0  0  0  0  0  0  0  0
   37.7449   30.1521   44.8536 H   0  0  0  0  0  0  0  0  0  0  0  0
   37.6677   29.5708   43.1675 H   0  0  0  0  0  0  0  0  0  0  0  0
   39.9352   29.6236   44.7545 H   0  0  0  0  0  0  0  0  0  0  0  0
   39.9053   29.5676   42.9360 H   0  0  0  0  0  0  0  0  0  0  0  0
   41.4112   31.2987   44.0423 H   0  0  0  0  0  0  0  0  0  0  0  0
   40.2659   31.8404   42.7371 H   0  0  0  0  0  0  0  0  0  0  0  0
  1  2  2  0
  2  3  1  0
  2  8  1  0
  4  3  2  0
  5  4  1  0
  6  5  2  0
  6  1  1  0
  7  8  2  0
  7 12  1  0
  8  9  1  0
  9 10  2  0
 11 10  1  0
 12 11  2  0
 13  1  1  0
 14  6  1  0
 15 14  1  0
 16 15  1  0
 17 18  1  0
 17 16  1  0
 19 18  1  0
 20 19  1  0
 20 15  1  0
  3 21  1  0
  4 22  1  0
  5 23  1  0
  7 24  1  0
  9 25  1  0
 11 26  1  0
 13 27  1  0
 15 28  1  0
 16 29  1  0
 16 30  1  0
 17 31  1  0
 17 32  1  0
 18 33  1  0
 18 34  1  0
 19 35  1  0
 19 36  1  0
 20 37  1  0
 20 38  1  0
M  ISO  8  21  14  22  14  23  14  24  14  25  14  26  14  27   3  28  13
M  ISO  8  29  13  30  13  31  13  32  13  33  13  34  13  35  13  36  13
M  ISO  2  37  13  38  13
M  END
>  <minimizedAffinity>  (1) 
-6.25371504

>  <minimizedRMSD>  (1) 
2.31676865

$$$$
