
     RDKit          3D

 52 55  0  0  1  0  0  0  0  0999 V2000
   38.2110   30.3910   45.0200 C   0  0  2  0  0  0  0  0  0  0  0  0
   38.7060   31.1180   46.2550 C   0  0  2  0  0  0  0  0  0  0  0  0
   40.1980   31.1390   46.2100 C   0  0  0  0  0  0  0  0  0  0  0  0
   40.6570   31.1980   44.9280 O   0  0  0  0  0  0  0  0  0  0  0  0
   39.8590   32.0570   44.1880 C   0  0  0  0  0  0  0  0  0  0  0  0
   38.5820   31.3310   43.8410 C   0  0  2  0  0  0  0  0  0  0  0  0
   36.8740   30.2010   44.9170 O   0  0  0  0  0  0  0  0  0  0  0  0
   38.2070   30.6990   47.4500 O   0  0  0  0  0  0  0  0  0  0  0  0
   37.4870   31.6500   48.0510 C   0  0  1  0  0  0  0  0  0  0  0  0
   36.6130   31.1640   49.1810 C   0  0  2  0  0  0  0  0  0  0  0  0
   37.7320   30.6320   50.0870 C   0  0  0  0  0  0  0  0  0  0  0  0
   38.7470   31.5570   50.0450 O   0  0  0  0  0  0  0  0  0  0  0  0
   38.5140   32.3550   48.9950 C   0  0  0  0  0  0  0  0  0  0  0  0
   35.7000   30.0960   48.7550 C   0  0  0  0  0  0  0  0  0  0  0  0
   34.8910   30.3330   47.6440 C   0  0  0  0  0  0  0  0  0  0  0  0
   34.0070   29.2850   47.2690 C   0  0  0  0  0  0  0  0  0  0  0  0
   34.0010   28.1270   48.0050 N   0  0  0  0  0  0  0  0  0  0  0  0
   34.8070   27.9450   49.0770 C   0  0  0  0  0  0  0  0  0  0  0  0
   35.6500   28.9310   49.4440 N   0  0  0  0  0  0  0  0  0  0  0  0
   37.6030   32.3130   43.7080 O   0  0  0  0  0  0  0  0  0  0  0  0
   37.0480   32.4400   42.4480 C   0  0  2  0  0  0  0  0  0  0  0  0
   38.0020   32.8140   41.3750 C   0  0  0  0  0  0  0  0  0  0  0  0
   37.6980   34.1260   40.6870 C   0  0  0  0  0  0  0  0  0  0  0  0
   36.2700   33.9410   40.1540 C   0  0  0  0  0  0  0  0  0  0  0  0
   35.4520   34.1360   41.4100 C   0  0  0  0  0  0  0  0  0  0  0  0
   35.7830   33.2330   42.5300 C   0  0  0  0  0  0  0  0  0  0  0  0
   38.6594   29.3868   45.0421 H   0  0  0  0  0  0  0  0  0  0  0  0
   38.3012   32.1399   46.2110 H   0  0  0  0  0  0  0  0  0  0  0  0
   40.5601   32.0198   46.7605 H   0  0  0  0  0  0  0  0  0  0  0  0
   40.5708   30.2112   46.6684 H   0  0  0  0  0  0  0  0  0  0  0  0
   39.6281   32.9545   44.7807 H   0  0  0  0  0  0  0  0  0  0  0  0
   40.3817   32.3668   43.2711 H   0  0  0  0  0  0  0  0  0  0  0  0
   38.6804   30.7341   42.9223 H   0  0  0  0  0  0  0  0  0  0  0  0
   36.4780   30.1447   45.8226 H   0  0  0  0  0  0  0  0  0  0  0  0
   36.9394   32.1675   47.2496 H   0  0  0  0  0  0  0  0  0  0  0  0
   35.9344   31.9074   49.6247 H   0  0  0  0  0  0  0  0  0  0  0  0
   37.3641   30.5193   51.1175 H   0  0  0  0  0  0  0  0  0  0  0  0
   38.0810   29.6457   49.7473 H   0  0  0  0  0  0  0  0  0  0  0  0
   39.4531   32.5361   48.4516 H   0  0  0  0  0  0  0  0  0  0  0  0
   38.1092   33.3186   49.3379 H   0  0  0  0  0  0  0  0  0  0  0  0
   34.9347   31.2808   47.0874 H   0  0  0  0  0  0  0  0  0  0  0  0
   33.3387   29.4004   46.4030 H   0  0  0  0  0  0  0  0  0  0  0  0
   34.7746   27.0023   49.6429 H   0  0  0  0  0  0  0  0  0  0  0  0
   36.7603   31.4385   42.0957 H   0  0  0  0  0  0  0  0  0  0  0  0
   39.0060   32.8846   41.8188 H   0  0  0  0  0  0  0  0  0  0  0  0
   37.9231   32.0336   40.6038 H   0  0  0  0  0  0  0  0  0  0  0  0
   37.7443   34.9620   41.4004 H   0  0  0  0  0  0  0  0  0  0  0  0
   38.4198   34.3656   39.8923 H   0  0  0  0  0  0  0  0  0  0  0  0
   36.0241   34.6963   39.3930 H   0  0  0  0  0  0  0  0  0  0  0  0
   36.0997   32.9766   39.6530 H   0  0  0  0  0  0  0  0  0  0  0  0
   34.6633   34.8992   41.4845 H   0  0  0  0  0  0  0  0  0  0  0  0
   35.1171   33.1459   43.4012 H   0  0  0  0  0  0  0  0  0  0  0  0
  1  2  1  0
  2  8  1  0
  3  2  1  0
  4  3  1  0
  5  4  1  0
  6  5  1  0
  6  1  1  0
  7  1  1  0
  8  9  1  0
  9 13  1  0
  9 10  1  0
 10 11  1  0
 12 11  1  0
 13 12  1  0
 14 10  1  0
 14 19  1  0
 15 14  2  0
 16 15  1  0
 16 17  2  0
 17 18  1  0
 18 19  2  0
 20  6  1  0
 21 26  1  0
 21 20  1  0
 22 21  1  0
 23 22  1  0
 24 23  1  0
 24 25  1  0
 25 26  2  0
  1 27  1  6
  2 28  1  6
  3 29  1  0
  3 30  1  0
  5 31  1  0
  5 32  1  0
  6 33  1  6
  7 34  1  0
  9 35  1  6
 10 36  1  1
 11 37  1  0
 11 38  1  0
 13 39  1  0
 13 40  1  0
 15 41  1  0
 16 42  1  0
 18 43  1  0
 21 44  1  6
 22 45  1  0
 22 46  1  0
 23 47  1  0
 23 48  1  0
 24 49  1  0
 24 50  1  0
 25 51  1  0
 26 52  1  0
M  ISO  8  27  13  28  13  29  13  30  13  31  13  32  13  33  13  34   3
M  ISO  8  35  13  36  13  37  13  38  13  39  13  40  13  41  14  42  14
M  ISO  8  43  14  44  13  45  13  46  13  47  13  48  13  49  13  50  13
M  ISO  2  51  13  52  13
M  END
>  <minimizedAffinity>  (1) 
-5.6404686

>  <minimizedRMSD>  (1) 
2.37888575

$$$$
