
     RDKit          3D

 28 29  0  0  0  0  0  0  0  0999 V2000
   37.5090   30.0300   51.2080 C   0  0  0  0  0  0  0  0  0  0  0  0
   38.1470   31.0090   50.4100 C   0  0  0  0  0  0  0  0  0  0  0  0
   37.8440   31.0290   49.0550 C   0  0  0  0  0  0  0  0  0  0  0  0
   36.9560   30.1200   48.5560 N   0  0  0  0  0  0  0  0  0  0  0  0
   36.3740   29.2050   49.3620 C   0  0  0  0  0  0  0  0  0  0  0  0
   36.6420   29.1570   50.6670 N   0  0  0  0  0  0  0  0  0  0  0  0
   38.4760   32.0150   48.2070 C   0  0  0  0  0  0  0  0  0  0  0  0
   38.5150   33.2580   48.4390 O   0  0  0  0  0  0  0  0  0  0  0  0
   39.1300   31.5690   46.9810 C   0  0  0  0  0  0  0  0  0  0  0  0
   39.8770   32.6620   46.2360 C   0  0  0  0  0  0  0  0  0  0  0  0
   40.8760   31.9200   45.3570 C   0  0  0  0  0  0  0  0  0  0  0  0
   40.2100   30.9400   44.4620 C   0  0  0  0  0  0  0  0  0  0  0  0
   39.0810   30.1590   45.0260 C   0  0  0  0  0  0  0  0  0  0  0  0
   38.2080   30.9410   45.9790 C   0  0  0  0  0  0  0  0  0  0  0  0
   37.7255   29.9828   52.2855 H   0  0  0  0  0  0  0  0  0  0  0  0
   38.8564   31.7273   50.8467 H   0  0  0  0  0  0  0  0  0  0  0  0
   35.6634   28.4838   48.9319 H   0  0  0  0  0  0  0  0  0  0  0  0
   39.8346   30.8212   47.3739 H   0  0  0  0  0  0  0  0  0  0  0  0
   39.1843   33.2545   45.6204 H   0  0  0  0  0  0  0  0  0  0  0  0
   40.3699   33.3687   46.9198 H   0  0  0  0  0  0  0  0  0  0  0  0
   41.4188   32.6519   44.7407 H   0  0  0  0  0  0  0  0  0  0  0  0
   41.5621   31.3669   46.0153 H   0  0  0  0  0  0  0  0  0  0  0  0
   40.9750   30.2223   44.1307 H   0  0  0  0  0  0  0  0  0  0  0  0
   39.7607   31.5480   43.6630 H   0  0  0  0  0  0  0  0  0  0  0  0
   38.4546   29.8062   44.1935 H   0  0  0  0  0  0  0  0  0  0  0  0
   39.5225   29.3335   45.6036 H   0  0  0  0  0  0  0  0  0  0  0  0
   37.6519   31.7183   45.4345 H   0  0  0  0  0  0  0  0  0  0  0  0
   37.4707   30.2889   46.4700 H   0  0  0  0  0  0  0  0  0  0  0  0
  2  1  2  0
  3  2  1  0
  4  3  2  0
  4  5  1  0
  5  6  2  0
  6  1  1  0
  7  8  2  0
  7  3  1  0
  9  7  1  0
 10  9  1  0
 11 10  1  0
 12 13  1  0
 12 11  1  0
 13 14  1  0
 14  9  1  0
  1 15  1  0
  2 16  1  0
  5 17  1  0
  9 18  1  0
 10 19  1  0
 10 20  1  0
 11 21  1  0
 11 22  1  0
 12 23  1  0
 12 24  1  0
 13 25  1  0
 13 26  1  0
 14 27  1  0
 14 28  1  0
M  ISO  8  15  14  16  14  17  14  18  13  19  13  20  13  21  13  22  13
M  ISO  6  23  13  24  13  25  13  26  13  27  13  28  13
M  END
>  <minimizedAffinity>  (1) 
-5.31755495

>  <minimizedRMSD>  (1) 
2.01115918

$$$$
