
     RDKit          3D

 37 39  0  0  1  0  0  0  0  0999 V2000
   38.1180   30.8960   44.0460 C   0  0  2  0  0  0  0  0  0  0  0  0
   37.7320   32.1960   44.5790 C   0  0  0  0  0  0  0  0  0  0  0  0
   38.6050   31.2150   45.3830 C   0  0  1  0  0  0  0  0  0  0  0  0
   41.0250   29.7390   42.0700 C   0  0  0  0  0  0  0  0  0  0  0  0
   40.9030   30.4880   40.8690 C   0  0  0  0  0  0  0  0  0  0  0  0
   39.7930   31.3940   40.7720 C   0  0  0  0  0  0  0  0  0  0  0  0
   38.9260   31.4940   41.8080 N   0  0  0  0  0  0  0  0  0  0  0  0
   39.1030   30.7460   42.9310 C   0  0  0  0  0  0  0  0  0  0  0  0
   40.1380   29.8640   43.0890 N   0  0  0  0  0  0  0  0  0  0  0  0
   38.2710   31.0540   47.8230 C   0  0  0  0  0  0  0  0  0  0  0  0
   39.0800   32.0050   47.9730 O   0  0  0  0  0  0  0  0  0  0  0  0
   37.8990   30.5950   46.5100 N   0  0  0  0  0  0  0  0  0  0  0  0
   37.6450   30.3400   48.9620 C   0  0  0  0  0  0  0  0  0  0  0  0
   37.6350   31.1670   50.2390 C   0  0  0  0  0  0  0  0  0  0  0  0
   37.3910   30.1860   51.3680 C   0  0  0  0  0  0  0  0  0  0  0  0
   36.0960   29.4550   51.1800 C   0  0  0  0  0  0  0  0  0  0  0  0
   35.8400   28.9590   49.7980 C   0  0  0  0  0  0  0  0  0  0  0  0
   36.1900   29.9810   48.7110 C   0  0  0  0  0  0  0  0  0  0  0  0
   37.5277   30.0763   43.6105 H   0  0  0  0  0  0  0  0  0  0  0  0
   38.1687   33.1172   44.1658 H   0  0  0  0  0  0  0  0  0  0  0  0
   36.7849   32.7292   44.7480 H   0  0  0  0  0  0  0  0  0  0  0  0
   39.5946   31.2180   45.8634 H   0  0  0  0  0  0  0  0  0  0  0  0
   41.8644   29.0361   42.1770 H   0  0  0  0  0  0  0  0  0  0  0  0
   41.6276   30.3787   40.0486 H   0  0  0  0  0  0  0  0  0  0  0  0
   39.6483   32.0005   39.8658 H   0  0  0  0  0  0  0  0  0  0  0  0
   37.1783   29.8726   46.3698 H   0  0  0  0  0  0  0  0  0  0  0  0
   38.2650   29.4377   49.0694 H   0  0  0  0  0  0  0  0  0  0  0  0
   38.6022   31.6732   50.3745 H   0  0  0  0  0  0  0  0  0  0  0  0
   36.8606   31.9477   50.2082 H   0  0  0  0  0  0  0  0  0  0  0  0
   38.2142   29.4568   51.3940 H   0  0  0  0  0  0  0  0  0  0  0  0
   37.3403   30.7474   52.3126 H   0  0  0  0  0  0  0  0  0  0  0  0
   36.0930   28.5888   51.8580 H   0  0  0  0  0  0  0  0  0  0  0  0
   35.3009   30.1844   51.3938 H   0  0  0  0  0  0  0  0  0  0  0  0
   36.4446   28.0547   49.6343 H   0  0  0  0  0  0  0  0  0  0  0  0
   34.7615   28.7573   49.7195 H   0  0  0  0  0  0  0  0  0  0  0  0
   35.5513   30.8723   48.7984 H   0  0  0  0  0  0  0  0  0  0  0  0
   36.0325   29.5784   47.6995 H   0  0  0  0  0  0  0  0  0  0  0  0
  1  2  1  0
  1  3  1  0
  2  3  1  0
  3 12  1  0
  4  9  2  0
  5  4  1  0
  6  5  2  0
  6  7  1  0
  7  8  2  0
  8  9  1  0
  8  1  1  0
 10 11  2  0
 10 13  1  0
 12 10  1  0
 13 14  1  0
 14 15  1  0
 16 15  1  0
 17 16  1  0
 18 13  1  0
 18 17  1  0
  1 19  1  1
  2 20  1  0
  2 21  1  0
  3 22  1  6
  4 23  1  0
  5 24  1  0
  6 25  1  0
 12 26  1  0
 13 27  1  0
 14 28  1  0
 14 29  1  0
 15 30  1  0
 15 31  1  0
 16 32  1  0
 16 33  1  0
 17 34  1  0
 17 35  1  0
 18 36  1  0
 18 37  1  0
M  ISO  8  19  13  20  13  21  13  22  13  23  14  24  14  25  14  27  13
M  ISO  8  28  13  29  13  30  13  31  13  32  13  33  13  34  13  35  13
M  ISO  2  36  13  37  13
M  END
>  <minimizedAffinity>  (1) 
-5.6306777

>  <minimizedRMSD>  (1) 
3.60322213

$$$$
