
     RDKit          3D

 35 37  0  0  0  0  0  0  0  0999 V2000
   38.0860   32.1000   49.1300 C   0  0  0  0  0  0  0  0  0  0  0  0
   38.6260   33.1880   49.7580 C   0  0  0  0  0  0  0  0  0  0  0  0
   39.4580   34.1240   49.1910 C   0  0  0  0  0  0  0  0  0  0  0  0
   39.7920   33.9620   47.8520 C   0  0  0  0  0  0  0  0  0  0  0  0
   39.2460   32.8600   47.2080 C   0  0  0  0  0  0  0  0  0  0  0  0
   38.4370   31.9840   47.8270 N   0  0  0  0  0  0  0  0  0  0  0  0
   37.5440   30.4610   50.9570 C   0  0  0  0  0  0  0  0  0  0  0  0
   37.2110   31.1360   49.7630 C   0  0  0  0  0  0  0  0  0  0  0  0
   35.9820   30.8670   49.1570 C   0  0  0  0  0  0  0  0  0  0  0  0
   35.1610   29.9540   49.7590 N   0  0  0  0  0  0  0  0  0  0  0  0
   35.5040   29.3270   50.8930 C   0  0  0  0  0  0  0  0  0  0  0  0
   36.6890   29.5700   51.5020 N   0  0  0  0  0  0  0  0  0  0  0  0
   39.6020   32.6820   45.7690 C   0  0  0  0  0  0  0  0  0  0  0  0
   40.5860   31.5740   45.5450 C   0  0  0  0  0  0  0  0  0  0  0  0
   40.3380   30.9420   44.1920 C   0  0  0  0  0  0  0  0  0  0  0  0
   39.9850   32.0580   43.2230 C   0  0  0  0  0  0  0  0  0  0  0  0
   38.5650   32.4750   43.5050 C   0  0  0  0  0  0  0  0  0  0  0  0
   38.3050   32.4510   44.9930 C   0  0  0  0  0  0  0  0  0  0  0  0
   38.3701   33.3277   50.8187 H   0  0  0  0  0  0  0  0  0  0  0  0
   39.8455   34.9709   49.7764 H   0  0  0  0  0  0  0  0  0  0  0  0
   40.4536   34.6691   47.3302 H   0  0  0  0  0  0  0  0  0  0  0  0
   38.5079   30.6626   51.4472 H   0  0  0  0  0  0  0  0  0  0  0  0
   35.6843   31.3726   48.2265 H   0  0  0  0  0  0  0  0  0  0  0  0
   34.8087   28.6001   51.3381 H   0  0  0  0  0  0  0  0  0  0  0  0
   40.1082   33.5894   45.4080 H   0  0  0  0  0  0  0  0  0  0  0  0
   41.6080   31.9795   45.5781 H   0  0  0  0  0  0  0  0  0  0  0  0
   40.4664   30.8140   46.3312 H   0  0  0  0  0  0  0  0  0  0  0  0
   41.2439   30.4203   43.8497 H   0  0  0  0  0  0  0  0  0  0  0  0
   39.5205   30.2084   44.2516 H   0  0  0  0  0  0  0  0  0  0  0  0
   40.0711   31.6967   42.1876 H   0  0  0  0  0  0  0  0  0  0  0  0
   40.6697   32.9097   43.3491 H   0  0  0  0  0  0  0  0  0  0  0  0
   38.4019   33.4936   43.1231 H   0  0  0  0  0  0  0  0  0  0  0  0
   37.8776   31.7752   43.0071 H   0  0  0  0  0  0  0  0  0  0  0  0
   37.5855   33.2433   45.2472 H   0  0  0  0  0  0  0  0  0  0  0  0
   37.8984   31.4662   45.2664 H   0  0  0  0  0  0  0  0  0  0  0  0
  1  2  2  0
  1  8  1  0
  3  2  1  0
  4  3  2  0
  5  6  2  0
  5  4  1  0
  6  1  1  0
  7 12  2  0
  8  7  1  0
  9 10  1  0
  9  8  2  0
 10 11  2  0
 11 12  1  0
 13  5  1  0
 14 13  1  0
 15 14  1  0
 16 17  1  0
 16 15  1  0
 17 18  1  0
 18 13  1  0
  2 19  1  0
  3 20  1  0
  4 21  1  0
  7 22  1  0
  9 23  1  0
 11 24  1  0
 13 25  1  0
 14 26  1  0
 14 27  1  0
 15 28  1  0
 15 29  1  0
 16 30  1  0
 16 31  1  0
 17 32  1  0
 17 33  1  0
 18 34  1  0
 18 35  1  0
M  ISO  8  19  14  20  14  21  14  22  14  23  14  24  14  25  13  26  13
M  ISO  8  27  13  28  13  29  13  30  13  31  13  32  13  33  13  34  13
M  ISO  1  35  13
M  END
>  <minimizedAffinity>  (1) 
-6.45461559

>  <minimizedRMSD>  (1) 
0.620910406

$$$$
