
     RDKit          3D

 39 41  0  0  0  0  0  0  0  0999 V2000
   38.3530   30.5490   46.6620 Cl  0  0  0  0  0  0  0  0  0  0  0  0
   36.8750   30.5050   45.6730 C   0  0  0  0  0  0  0  0  0  0  0  0
   35.6500   30.1430   46.1830 C   0  0  0  0  0  0  0  0  0  0  0  0
   34.6180   30.1570   45.3090 C   0  0  0  0  0  0  0  0  0  0  0  0
   34.7600   30.5110   43.9900 C   0  0  0  0  0  0  0  0  0  0  0  0
   35.9900   30.8760   43.4740 C   0  0  0  0  0  0  0  0  0  0  0  0
   37.0620   30.8660   44.3550 C   0  0  0  0  0  0  0  0  0  0  0  0
   36.2890   29.9920   49.8790 C   0  0  0  0  0  0  0  0  0  0  0  0
   36.3830   30.3590   48.5320 C   0  0  0  0  0  0  0  0  0  0  0  0
   35.5740   29.7840   47.5750 C   0  0  0  0  0  0  0  0  0  0  0  0
   34.6890   28.8470   48.0340 N   0  0  0  0  0  0  0  0  0  0  0  0
   34.5930   28.4930   49.3170 C   0  0  0  0  0  0  0  0  0  0  0  0
   35.3950   29.0700   50.2290 N   0  0  0  0  0  0  0  0  0  0  0  0
   37.1910   30.6490   50.8710 C   0  0  0  0  0  0  0  0  0  0  0  0
   36.9610   30.1000   52.1170 F   0  0  0  0  0  0  0  0  0  0  0  0
   38.4710   30.4980   50.4270 F   0  0  0  0  0  0  0  0  0  0  0  0
   36.8530   31.9940   50.9110 F   0  0  0  0  0  0  0  0  0  0  0  0
   38.4040   31.2630   43.7980 C   0  0  0  0  0  0  0  0  0  0  0  0
   38.6360   32.7390   43.8730 C   0  0  0  0  0  0  0  0  0  0  0  0
   39.3950   33.1780   45.1150 C   0  0  0  0  0  0  0  0  0  0  0  0
   40.7620   32.5190   44.9210 C   0  0  0  0  0  0  0  0  0  0  0  0
   40.4900   31.0560   45.2240 C   0  0  0  0  0  0  0  0  0  0  0  0
   39.5190   30.4160   44.3010 C   0  0  0  0  0  0  0  0  0  0  0  0
   33.6193   29.8718   45.6714 H   0  0  0  0  0  0  0  0  0  0  0  0
   33.8789   30.5041   43.3315 H   0  0  0  0  0  0  0  0  0  0  0  0
   36.1124   31.1600   42.4184 H   0  0  0  0  0  0  0  0  0  0  0  0
   37.1167   31.1212   48.2307 H   0  0  0  0  0  0  0  0  0  0  0  0
   33.8611   27.7326   49.6271 H   0  0  0  0  0  0  0  0  0  0  0  0
   38.3847   31.0443   42.7201 H   0  0  0  0  0  0  0  0  0  0  0  0
   39.2128   33.0449   42.9877 H   0  0  0  0  0  0  0  0  0  0  0  0
   37.6464   33.2173   43.9163 H   0  0  0  0  0  0  0  0  0  0  0  0
   39.4849   34.2734   45.1589 H   0  0  0  0  0  0  0  0  0  0  0  0
   38.9002   32.8907   46.0545 H   0  0  0  0  0  0  0  0  0  0  0  0
   41.1188   32.6480   43.8885 H   0  0  0  0  0  0  0  0  0  0  0  0
   41.5442   32.9532   45.5610 H   0  0  0  0  0  0  0  0  0  0  0  0
   41.4412   30.5073   45.1595 H   0  0  0  0  0  0  0  0  0  0  0  0
   40.0447   31.0178   46.2291 H   0  0  0  0  0  0  0  0  0  0  0  0
   39.0731   29.5607   44.8298 H   0  0  0  0  0  0  0  0  0  0  0  0
   40.1047   30.1554   43.4071 H   0  0  0  0  0  0  0  0  0  0  0  0
  2  3  2  0
  2  1  1  0
  3 10  1  0
  4  3  1  0
  5  4  2  0
  6  5  1  0
  6  7  2  0
  7  2  1  0
  8 13  2  0
  8 14  1  0
  9  8  1  0
 10 11  1  0
 10  9  2  0
 11 12  2  0
 12 13  1  0
 14 17  1  0
 14 15  1  0
 16 14  1  0
 18 19  1  0
 18 23  1  0
 18  7  1  0
 19 20  1  0
 21 20  1  0
 21 22  1  0
 23 22  1  0
  4 24  1  0
  5 25  1  0
  6 26  1  0
  9 27  1  0
 12 28  1  0
 18 29  1  0
 19 30  1  0
 19 31  1  0
 20 32  1  0
 20 33  1  0
 21 34  1  0
 21 35  1  0
 22 36  1  0
 22 37  1  0
 23 38  1  0
 23 39  1  0
M  ISO  8  24  14  25  14  26  14  27  14  28  14  29  13  30  13  31  13
M  ISO  8  32  13  33  13  34  13  35  13  36  13  37  13  38  13  39  13
M  END
>  <minimizedAffinity>  (1) 
-6.60790968

>  <minimizedRMSD>  (1) 
3.75517559

$$$$
