
     RDKit          3D

 41 43  0  0  0  0  0  0  0  0999 V2000
   37.8470   30.5880   50.2000 C   0  0  0  0  0  0  0  0  0  0  0  0
   37.3480   30.7210   48.9230 C   0  0  0  0  0  0  0  0  0  0  0  0
   36.0390   30.2720   48.6150 C   0  0  0  0  0  0  0  0  0  0  0  0
   35.3350   29.7170   49.6410 N   0  0  0  0  0  0  0  0  0  0  0  0
   35.8590   29.5980   50.8950 C   0  0  0  0  0  0  0  0  0  0  0  0
   37.1100   30.0330   51.1670 N   0  0  0  0  0  0  0  0  0  0  0  0
   35.0350   28.9880   51.8940 N   0  0  0  0  0  0  0  0  0  0  0  0
   38.3040   33.5790   49.1750 Cl  0  0  0  0  0  0  0  0  0  0  0  0
   38.7400   32.5920   47.8270 C   0  0  0  0  0  0  0  0  0  0  0  0
   38.2200   31.3380   47.8930 C   0  0  0  0  0  0  0  0  0  0  0  0
   38.5170   30.4360   46.8350 C   0  0  0  0  0  0  0  0  0  0  0  0
   39.2870   30.7830   45.7840 C   0  0  0  0  0  0  0  0  0  0  0  0
   39.8070   32.0740   45.7400 C   0  0  0  0  0  0  0  0  0  0  0  0
   40.8160   32.6030   44.4270 Cl  0  0  0  0  0  0  0  0  0  0  0  0
   39.5250   32.9510   46.7590 C   0  0  0  0  0  0  0  0  0  0  0  0
   35.5190   30.4060   47.2670 C   0  0  0  0  0  0  0  0  0  0  0  0
   34.0690   30.0350   47.0720 C   0  0  0  0  0  0  0  0  0  0  0  0
   33.8640   30.1120   45.5520 C   0  0  0  0  0  0  0  0  0  0  0  0
   32.8360   29.1220   45.0760 C   0  0  0  0  0  0  0  0  0  0  0  0
   33.4950   27.7530   45.2720 C   0  0  0  0  0  0  0  0  0  0  0  0
   33.9180   27.5390   46.6830 C   0  0  0  0  0  0  0  0  0  0  0  0
   33.6990   28.6900   47.6120 C   0  0  0  0  0  0  0  0  0  0  0  0
   38.8634   30.9425   50.4264 H   0  0  0  0  0  0  0  0  0  0  0  0
   35.3881   28.8766   52.8552 H   0  0  0  0  0  0  0  0  0  0  0  0
   34.0890   28.6604   51.6517 H   0  0  0  0  0  0  0  0  0  0  0  0
   38.1034   29.4175   46.8753 H   0  0  0  0  0  0  0  0  0  0  0  0
   39.4995   30.0630   44.9800 H   0  0  0  0  0  0  0  0  0  0  0  0
   39.9395   33.9691   46.7183 H   0  0  0  0  0  0  0  0  0  0  0  0
   35.6404   31.4563   46.9633 H   0  0  0  0  0  0  0  0  0  0  0  0
   36.0905   29.6896   46.6585 H   0  0  0  0  0  0  0  0  0  0  0  0
   33.4145   30.7159   47.6359 H   0  0  0  0  0  0  0  0  0  0  0  0
   33.5300   31.1265   45.2887 H   0  0  0  0  0  0  0  0  0  0  0  0
   34.8209   29.8720   45.0654 H   0  0  0  0  0  0  0  0  0  0  0  0
   32.5979   29.2897   44.0152 H   0  0  0  0  0  0  0  0  0  0  0  0
   31.8874   29.2100   45.6259 H   0  0  0  0  0  0  0  0  0  0  0  0
   32.7759   26.9687   44.9932 H   0  0  0  0  0  0  0  0  0  0  0  0
   34.3920   27.7117   44.6366 H   0  0  0  0  0  0  0  0  0  0  0  0
   33.3580   26.6775   47.0758 H   0  0  0  0  0  0  0  0  0  0  0  0
   35.0070   27.3879   46.6477 H   0  0  0  0  0  0  0  0  0  0  0  0
   34.2973   28.5126   48.5178 H   0  0  0  0  0  0  0  0  0  0  0  0
   32.6151   28.7269   47.7956 H   0  0  0  0  0  0  0  0  0  0  0  0
  1  6  2  0
  2  1  1  0
  3  2  2  0
  3  4  1  0
  4  5  2  0
  5  6  1  0
  5  7  1  0
  9 10  2  0
  9  8  1  0
 10  2  1  0
 11 10  1  0
 12 11  2  0
 13 12  1  0
 13 15  2  0
 14 13  1  0
 15  9  1  0
 16  3  1  0
 17 16  1  0
 17 22  1  0
 18 17  1  0
 19 20  1  0
 19 18  1  0
 20 21  1  0
 21 22  1  0
  1 23  1  0
  7 24  1  0
  7 25  1  0
 11 26  1  0
 12 27  1  0
 15 28  1  0
 16 29  1  0
 16 30  1  0
 17 31  1  0
 18 32  1  0
 18 33  1  0
 19 34  1  0
 19 35  1  0
 20 36  1  0
 20 37  1  0
 21 38  1  0
 21 39  1  0
 22 40  1  0
 22 41  1  0
M  ISO  8  23  14  26  14  27  14  28  14  29   8  30   8  31  13  32  13
M  ISO  8  33  13  34  13  35  13  36  13  37  13  38  13  39  13  40  13
M  ISO  1  41  13
M  END
>  <minimizedAffinity>  (1) 
-6.02280712

>  <minimizedRMSD>  (1) 
2.43690133

$$$$
