
     RDKit          3D

 41 43  0  0  0  0  0  0  0  0999 V2000
   34.7220   29.4710   48.0560 C   0  0  0  0  0  0  0  0  0  0  0  0
   34.1220   28.1070   47.9240 C   0  0  0  0  0  0  0  0  0  0  0  0
   32.6410   28.1330   47.8480 C   0  0  0  0  0  0  0  0  0  0  0  0
   31.9470   27.6250   48.9270 C   0  0  0  0  0  0  0  0  0  0  0  0
   30.5690   27.5920   48.9780 C   0  0  0  0  0  0  0  0  0  0  0  0
   29.8880   28.0780   47.9310 N   0  0  0  0  0  0  0  0  0  0  0  0
   30.5580   28.5760   46.8740 C   0  0  0  0  0  0  0  0  0  0  0  0
   31.9020   28.6090   46.8240 N   0  0  0  0  0  0  0  0  0  0  0  0
   35.9510   29.4210   48.7680 O   0  0  0  0  0  0  0  0  0  0  0  0
   37.5170   32.5730   49.6150 C   0  0  0  0  0  0  0  0  0  0  0  0
   38.4950   32.6400   48.6100 C   0  0  0  0  0  0  0  0  0  0  0  0
   38.5500   31.5850   47.7000 C   0  0  0  0  0  0  0  0  0  0  0  0
   37.6440   30.5580   47.8540 N   0  0  0  0  0  0  0  0  0  0  0  0
   36.7290   30.5380   48.8280 C   0  0  0  0  0  0  0  0  0  0  0  0
   36.6780   31.5560   49.7020 N   0  0  0  0  0  0  0  0  0  0  0  0
   39.5690   31.6460   46.6480 C   0  0  0  0  0  0  0  0  0  0  0  0
   39.1960   30.7460   45.4980 C   0  0  0  0  0  0  0  0  0  0  0  0
   38.5820   31.4240   44.3260 C   0  0  0  0  0  0  0  0  0  0  0  0
   39.1880   32.7410   43.9500 C   0  0  0  0  0  0  0  0  0  0  0  0
   40.4250   32.9460   44.8000 C   0  0  0  0  0  0  0  0  0  0  0  0
   39.9130   33.0320   46.2380 C   0  0  0  0  0  0  0  0  0  0  0  0
   34.0194   30.1221   48.5968 H   0  0  0  0  0  0  0  0  0  0  0  0
   34.9171   29.8666   47.0483 H   0  0  0  0  0  0  0  0  0  0  0  0
   34.5123   27.6390   47.0083 H   0  0  0  0  0  0  0  0  0  0  0  0
   34.3965   27.5371   48.8239 H   0  0  0  0  0  0  0  0  0  0  0  0
   32.5160   27.2301   49.7816 H   0  0  0  0  0  0  0  0  0  0  0  0
   30.0445   27.1790   49.8522 H   0  0  0  0  0  0  0  0  0  0  0  0
   29.9858   28.9698   46.0211 H   0  0  0  0  0  0  0  0  0  0  0  0
   37.4474   33.3889   50.3495 H   0  0  0  0  0  0  0  0  0  0  0  0
   39.1897   33.4903   48.5432 H   0  0  0  0  0  0  0  0  0  0  0  0
   40.5070   31.2580   47.0718 H   0  0  0  0  0  0  0  0  0  0  0  0
   40.1096   30.2383   45.1552 H   0  0  0  0  0  0  0  0  0  0  0  0
   38.4274   30.0622   45.8874 H   0  0  0  0  0  0  0  0  0  0  0  0
   38.6712   30.7509   43.4605 H   0  0  0  0  0  0  0  0  0  0  0  0
   37.5431   31.6420   44.6144 H   0  0  0  0  0  0  0  0  0  0  0  0
   39.4635   32.7349   42.8851 H   0  0  0  0  0  0  0  0  0  0  0  0
   38.4683   33.5554   44.1194 H   0  0  0  0  0  0  0  0  0  0  0  0
   41.1160   32.0977   44.6866 H   0  0  0  0  0  0  0  0  0  0  0  0
   40.9807   33.8488   44.5066 H   0  0  0  0  0  0  0  0  0  0  0  0
   40.6947   33.4397   46.8958 H   0  0  0  0  0  0  0  0  0  0  0  0
   39.0390   33.6961   46.3096 H   0  0  0  0  0  0  0  0  0  0  0  0
  1  9  1  0
  2  1  1  0
  3  2  1  0
  3  4  2  0
  4  5  1  0
  6  5  2  0
  7  6  1  0
  8  7  2  0
  8  3  1  0
  9 14  1  0
 10 15  2  0
 11 10  1  0
 12 13  1  0
 12 11  2  0
 13 14  2  0
 14 15  1  0
 16 12  1  0
 17 16  1  0
 18 17  1  0
 19 18  1  0
 19 20  1  0
 20 21  1  0
 21 16  1  0
  1 22  1  0
  1 23  1  0
  2 24  1  0
  2 25  1  0
  4 26  1  0
  5 27  1  0
  7 28  1  0
 10 29  1  0
 11 30  1  0
 16 31  1  0
 17 32  1  0
 17 33  1  0
 18 34  1  0
 18 35  1  0
 19 36  1  0
 19 37  1  0
 20 38  1  0
 20 39  1  0
 21 40  1  0
 21 41  1  0
M  ISO  8  22   8  23   8  24   8  25   8  26  14  27  14  28  14  29  14
M  ISO  8  30  14  31  13  32  13  33  13  34  13  35  13  36  13  37  13
M  ISO  4  38  13  39  13  40  13  41  13
M  END
>  <minimizedAffinity>  (1) 
-5.57353115

>  <minimizedRMSD>  (1) 
2.09646726

$$$$
