
     RDKit          3D

 36 38  0  0  0  0  0  0  0  0999 V2000
   35.3320   29.0440   50.7780 C   0  0  0  0  0  0  0  0  0  0  0  0
   36.3050   29.8280   50.1430 C   0  0  0  0  0  0  0  0  0  0  0  0
   36.3320   29.9950   48.7680 C   0  0  0  0  0  0  0  0  0  0  0  0
   35.3590   29.3530   48.0610 N   0  0  0  0  0  0  0  0  0  0  0  0
   34.4300   28.6020   48.6870 C   0  0  0  0  0  0  0  0  0  0  0  0
   34.4140   28.4490   50.0210 N   0  0  0  0  0  0  0  0  0  0  0  0
   36.8600   32.5580   50.1370 Cl  0  0  0  0  0  0  0  0  0  0  0  0
   37.6580   32.0380   48.6680 C   0  0  0  0  0  0  0  0  0  0  0  0
   37.3440   30.8120   48.0940 C   0  0  0  0  0  0  0  0  0  0  0  0
   38.0060   30.4620   46.9440 C   0  0  0  0  0  0  0  0  0  0  0  0
   38.9540   31.2800   46.3540 C   0  0  0  0  0  0  0  0  0  0  0  0
   39.2340   32.5100   46.9770 C   0  0  0  0  0  0  0  0  0  0  0  0
   40.4450   33.5090   46.1880 Cl  0  0  0  0  0  0  0  0  0  0  0  0
   38.5960   32.9030   48.1310 C   0  0  0  0  0  0  0  0  0  0  0  0
   33.3740   27.9110   47.8920 C   0  0  0  0  0  0  0  0  0  0  0  0
   33.7540   26.5130   47.5270 C   0  0  0  0  0  0  0  0  0  0  0  0
   32.7620   26.0130   46.4990 C   0  0  0  0  0  0  0  0  0  0  0  0
   31.3690   26.0980   47.0330 C   0  0  0  0  0  0  0  0  0  0  0  0
   31.3370   26.5550   48.4810 C   0  0  0  0  0  0  0  0  0  0  0  0
   32.0530   27.8790   48.6270 C   0  0  0  0  0  0  0  0  0  0  0  0
   35.3276   28.9241   51.8714 H   0  0  0  0  0  0  0  0  0  0  0  0
   37.0710   30.3262   50.7555 H   0  0  0  0  0  0  0  0  0  0  0  0
   37.7746   29.4951   46.4734 H   0  0  0  0  0  0  0  0  0  0  0  0
   39.4703   30.9790   45.4305 H   0  0  0  0  0  0  0  0  0  0  0  0
   38.8226   33.8676   48.6086 H   0  0  0  0  0  0  0  0  0  0  0  0
   33.2683   28.4993   46.9686 H   0  0  0  0  0  0  0  0  0  0  0  0
   34.7691   26.5004   47.1035 H   0  0  0  0  0  0  0  0  0  0  0  0
   33.7398   25.8678   48.4178 H   0  0  0  0  0  0  0  0  0  0  0  0
   32.9923   24.9659   46.2528 H   0  0  0  0  0  0  0  0  0  0  0  0
   32.8368   26.6392   45.5977 H   0  0  0  0  0  0  0  0  0  0  0  0
   30.7987   26.8139   46.4228 H   0  0  0  0  0  0  0  0  0  0  0  0
   30.9273   25.0916   46.9865 H   0  0  0  0  0  0  0  0  0  0  0  0
   30.2914   26.6700   48.8026 H   0  0  0  0  0  0  0  0  0  0  0  0
   31.8417   25.8033   49.1057 H   0  0  0  0  0  0  0  0  0  0  0  0
   32.2400   28.0622   49.6954 H   0  0  0  0  0  0  0  0  0  0  0  0
   31.4092   28.6555   48.1882 H   0  0  0  0  0  0  0  0  0  0  0  0
  2  1  2  0
  3  2  1  0
  4  5  1  0
  4  3  2  0
  5  6  2  0
  6  1  1  0
  8  7  1  0
  9  8  2  0
  9  3  1  0
 10  9  1  0
 11 10  2  0
 11 12  1  0
 12 14  2  0
 13 12  1  0
 14  8  1  0
 15 20  1  0
 15  5  1  0
 16 15  1  0
 17 18  1  0
 17 16  1  0
 18 19  1  0
 19 20  1  0
  1 21  1  0
  2 22  1  0
 10 23  1  0
 11 24  1  0
 14 25  1  0
 15 26  1  0
 16 27  1  0
 16 28  1  0
 17 29  1  0
 17 30  1  0
 18 31  1  0
 18 32  1  0
 19 33  1  0
 19 34  1  0
 20 35  1  0
 20 36  1  0
M  ISO  8  21  14  22  14  23  14  24  14  25  14  26  13  27  13  28  13
M  ISO  8  29  13  30  13  31  13  32  13  33  13  34  13  35  13  36  13
M  END
>  <minimizedAffinity>  (1) 
-6.19935656

>  <minimizedRMSD>  (1) 
2.48271585

$$$$
