
     RDKit          3D

 34 36  0  0  1  0  0  0  0  0999 V2000
   36.5740   31.2250   49.2470 C   0  0  0  0  0  0  0  0  0  0  0  0
   37.1710   31.4360   47.9740 C   0  0  0  0  0  0  0  0  0  0  0  0
   36.7900   30.5770   46.9390 C   0  0  0  0  0  0  0  0  0  0  0  0
   35.8780   29.5770   47.1620 N   0  0  0  0  0  0  0  0  0  0  0  0
   35.3390   29.4260   48.4180 C   0  0  0  0  0  0  0  0  0  0  0  0
   35.6950   30.2500   49.4340 N   0  0  0  0  0  0  0  0  0  0  0  0
   37.3330   30.7060   45.6100 C   0  0  0  0  0  0  0  0  0  0  0  0
   36.7500   31.5970   44.7560 C   0  0  0  0  0  0  0  0  0  0  0  0
   37.2340   31.7640   43.4500 C   0  0  0  0  0  0  0  0  0  0  0  0
   38.3250   30.9900   43.0590 C   0  0  0  0  0  0  0  0  0  0  0  0
   38.9570   30.0640   43.8910 C   0  0  0  0  0  0  0  0  0  0  0  0
   38.4110   29.9720   45.1540 C   0  0  0  0  0  0  0  0  0  0  0  0
   38.1230   32.5460   47.9720 C   0  0  1  0  0  0  0  0  0  0  0  0
   38.6290   32.9330   49.3380 C   0  0  0  0  0  0  0  0  0  0  0  0
   39.4280   34.1910   49.2960 C   0  0  0  0  0  0  0  0  0  0  0  0
   40.1860   34.4450   48.0510 C   0  0  0  0  0  0  0  0  0  0  0  0
   40.1080   33.4700   46.9500 C   0  0  0  0  0  0  0  0  0  0  0  0
   39.4380   32.1540   47.2630 C   0  0  0  0  0  0  0  0  0  0  0  0
   36.8451   31.8796   50.0884 H   0  0  0  0  0  0  0  0  0  0  0  0
   34.6080   28.6246   48.6011 H   0  0  0  0  0  0  0  0  0  0  0  0
   35.8895   32.1918   45.0963 H   0  0  0  0  0  0  0  0  0  0  0  0
   36.7683   32.4813   42.7582 H   0  0  0  0  0  0  0  0  0  0  0  0
   38.7102   31.1159   42.0364 H   0  0  0  0  0  0  0  0  0  0  0  0
   39.8169   29.4595   43.5668 H   0  0  0  0  0  0  0  0  0  0  0  0
   38.8700   29.2579   45.8536 H   0  0  0  0  0  0  0  0  0  0  0  0
   37.5503   33.3537   47.4928 H   0  0  0  0  0  0  0  0  0  0  0  0
   37.7690   33.0795   50.0080 H   0  0  0  0  0  0  0  0  0  0  0  0
   39.2810   32.1256   49.7027 H   0  0  0  0  0  0  0  0  0  0  0  0
   39.4526   34.8916   50.1437 H   0  0  0  0  0  0  0  0  0  0  0  0
   40.8006   35.3515   47.9489 H   0  0  0  0  0  0  0  0  0  0  0  0
   41.1354   33.2526   46.6225 H   0  0  0  0  0  0  0  0  0  0  0  0
   39.4758   33.9443   46.1849 H   0  0  0  0  0  0  0  0  0  0  0  0
   39.2294   31.5949   46.3390 H   0  0  0  0  0  0  0  0  0  0  0  0
   40.0690   31.5018   47.8846 H   0  0  0  0  0  0  0  0  0  0  0  0
  1  6  2  0
  2  1  1  0
  3  4  1  0
  3  2  2  0
  4  5  2  0
  5  6  1  0
  7  3  1  0
  8  7  2  0
  9  8  1  0
 10  9  2  0
 10 11  1  0
 11 12  2  0
 12  7  1  0
 13  2  1  0
 13 14  1  0
 15 14  1  0
 16 15  2  0
 17 18  1  0
 17 16  1  0
 18 13  1  0
  1 19  1  0
  5 20  1  0
  8 21  1  0
  9 22  1  0
 10 23  1  0
 11 24  1  0
 12 25  1  0
 13 26  1  6
 14 27  1  0
 14 28  1  0
 15 29  1  0
 16 30  1  0
 17 31  1  0
 17 32  1  0
 18 33  1  0
 18 34  1  0
M  ISO  8  19  14  20  14  21  14  22  14  23  14  24  14  25  14  26  13
M  ISO  8  27  13  28  13  29  13  30  13  31  13  32  13  33  13  34  13
M  END
>  <minimizedAffinity>  (1) 
-4.56370974

>  <minimizedRMSD>  (1) 
3.2540946

$$$$
