
     RDKit          3D

 44 47  0  0  0  0  0  0  0  0999 V2000
   37.3500   29.1640   50.8170 Br  0  0  0  0  0  0  0  0  0  0  0  0
   35.9800   29.3000   49.4960 C   0  0  0  0  0  0  0  0  0  0  0  0
   36.0100   30.3360   48.5520 C   0  0  0  0  0  0  0  0  0  0  0  0
   34.9830   30.3710   47.6240 C   0  0  0  0  0  0  0  0  0  0  0  0
   33.9560   29.4380   47.6030 C   0  0  0  0  0  0  0  0  0  0  0  0
   33.9640   28.4490   48.5380 C   0  0  0  0  0  0  0  0  0  0  0  0
   34.9740   28.3930   49.4710 C   0  0  0  0  0  0  0  0  0  0  0  0
   37.9710   33.2230   49.5810 C   0  0  0  0  0  0  0  0  0  0  0  0
   39.0410   33.2450   48.6440 C   0  0  0  0  0  0  0  0  0  0  0  0
   39.0630   32.2590   47.6740 C   0  0  0  0  0  0  0  0  0  0  0  0
   38.0710   31.3150   47.6520 N   0  0  0  0  0  0  0  0  0  0  0  0
   37.0740   31.3240   48.5520 C   0  0  0  0  0  0  0  0  0  0  0  0
   37.0310   32.2820   49.5150 N   0  0  0  0  0  0  0  0  0  0  0  0
   32.8820   29.4800   46.6290 C   0  0  0  0  0  0  0  0  0  0  0  0
   32.0020   28.4380   46.3870 C   0  0  0  0  0  0  0  0  0  0  0  0
   30.9840   28.5300   45.4370 C   0  0  0  0  0  0  0  0  0  0  0  0
   30.8350   29.6490   44.7250 N   0  0  0  0  0  0  0  0  0  0  0  0
   31.6920   30.6690   44.9580 C   0  0  0  0  0  0  0  0  0  0  0  0
   32.6630   30.5670   45.8720 N   0  0  0  0  0  0  0  0  0  0  0  0
   31.5170   31.9050   44.1620 C   0  0  0  0  0  0  0  0  0  0  0  0
   30.2110   31.9060   43.3960 C   0  0  0  0  0  0  0  0  0  0  0  0
   29.7770   33.2840   43.0040 C   0  0  0  0  0  0  0  0  0  0  0  0
   30.9280   34.2510   42.8710 C   0  0  0  0  0  0  0  0  0  0  0  0
   31.8180   34.3220   44.0690 C   0  0  0  0  0  0  0  0  0  0  0  0
   31.5000   33.1610   45.0150 C   0  0  0  0  0  0  0  0  0  0  0  0
   34.9811   31.1729   46.8710 H   0  0  0  0  0  0  0  0  0  0  0  0
   33.1634   27.6947   48.5479 H   0  0  0  0  0  0  0  0  0  0  0  0
   34.9642   27.5870   50.2195 H   0  0  0  0  0  0  0  0  0  0  0  0
   37.9195   33.9904   50.3674 H   0  0  0  0  0  0  0  0  0  0  0  0
   39.8224   34.0179   48.6891 H   0  0  0  0  0  0  0  0  0  0  0  0
   39.8701   32.2334   46.9270 H   0  0  0  0  0  0  0  0  0  0  0  0
   32.1092   27.5070   46.9629 H   0  0  0  0  0  0  0  0  0  0  0  0
   30.3044   27.6803   45.2750 H   0  0  0  0  0  0  0  0  0  0  0  0
   32.3820   31.9130   43.4825 H   0  0  0  0  0  0  0  0  0  0  0  0
   30.3362   31.3030   42.4846 H   0  0  0  0  0  0  0  0  0  0  0  0
   29.4367   31.4868   44.0553 H   0  0  0  0  0  0  0  0  0  0  0  0
   29.2555   33.2252   42.0373 H   0  0  0  0  0  0  0  0  0  0  0  0
   29.1217   33.6615   43.8028 H   0  0  0  0  0  0  0  0  0  0  0  0
   31.5370   33.9438   42.0080 H   0  0  0  0  0  0  0  0  0  0  0  0
   30.4850   35.2506   42.7502 H   0  0  0  0  0  0  0  0  0  0  0  0
   32.8684   34.2563   43.7490 H   0  0  0  0  0  0  0  0  0  0  0  0
   31.6511   35.2753   44.5919 H   0  0  0  0  0  0  0  0  0  0  0  0
   30.5081   33.3000   45.4698 H   0  0  0  0  0  0  0  0  0  0  0  0
   32.2307   33.0995   45.8349 H   0  0  0  0  0  0  0  0  0  0  0  0
  2  1  1  0
  3  2  2  0
  4  3  1  0
  5  4  2  0
  5  6  1  0
  6  7  2  0
  7  2  1  0
  9  8  2  0
 10  9  1  0
 11 10  2  0
 11 12  1  0
 12  3  1  0
 12 13  2  0
 13  8  1  0
 14  5  1  0
 15 14  2  0
 16 15  1  0
 17 18  1  0
 17 16  2  0
 18 19  2  0
 19 14  1  0
 20 18  1  0
 20 25  1  0
 21 20  1  0
 22 21  1  0
 23 22  1  0
 23 24  1  0
 24 25  1  0
  4 26  1  0
  6 27  1  0
  7 28  1  0
  8 29  1  0
  9 30  1  0
 10 31  1  0
 15 32  1  0
 16 33  1  0
 20 34  1  0
 21 35  1  0
 21 36  1  0
 22 37  1  0
 22 38  1  0
 23 39  1  0
 23 40  1  0
 24 41  1  0
 24 42  1  0
 25 43  1  0
 25 44  1  0
M  ISO  8  26  14  27  14  28  14  29  14  30  14  31  14  32  14  33  14
M  ISO  8  34  13  35  13  36  13  37  13  38  13  39  13  40  13  41  13
M  ISO  3  42  13  43  13  44  13
M  END
>  <minimizedAffinity>  (1) 
-6.63714266

>  <minimizedRMSD>  (1) 
0.853540659

$$$$
