
     RDKit          3D

 27 28  0  0  1  0  0  0  0  0999 V2000
   35.4240   29.2160   50.4670 C   0  0  0  0  0  0  0  0  0  0  0  0
   36.1870   30.1500   49.7440 C   0  0  0  0  0  0  0  0  0  0  0  0
   35.9650   30.2620   48.3700 C   0  0  0  0  0  0  0  0  0  0  0  0
   35.0190   29.4570   47.8080 N   0  0  0  0  0  0  0  0  0  0  0  0
   34.3020   28.5670   48.5330 C   0  0  0  0  0  0  0  0  0  0  0  0
   34.5000   28.4460   49.8460 N   0  0  0  0  0  0  0  0  0  0  0  0
   33.3010   27.7500   47.7970 C   0  0  1  0  0  0  0  0  0  0  0  0
   33.7410   26.3470   47.5250 C   0  0  0  0  0  0  0  0  0  0  0  0
   32.6880   25.7690   46.6060 C   0  0  0  0  0  0  0  0  0  0  0  0
   31.3220   25.7680   47.1800 C   0  0  0  0  0  0  0  0  0  0  0  0
   30.9720   26.8520   48.1230 C   0  0  0  0  0  0  0  0  0  0  0  0
   32.0650   27.6820   48.6600 C   0  0  0  0  0  0  0  0  0  0  0  0
   37.1900   30.9650   50.4980 C   0  0  0  0  0  0  0  0  0  0  0  0
   38.4470   30.8740   49.8750 F   0  0  0  0  0  0  0  0  0  0  0  0
   36.8020   32.2840   50.4140 F   0  0  0  0  0  0  0  0  0  0  0  0
   37.3300   30.5990   51.8080 F   0  0  0  0  0  0  0  0  0  0  0  0
   35.5799   29.1098   51.5507 H   0  0  0  0  0  0  0  0  0  0  0  0
   36.5357   30.9776   47.7599 H   0  0  0  0  0  0  0  0  0  0  0  0
   33.1373   28.2289   46.8203 H   0  0  0  0  0  0  0  0  0  0  0  0
   34.7257   26.3403   47.0348 H   0  0  0  0  0  0  0  0  0  0  0  0
   33.8423   25.7623   48.4512 H   0  0  0  0  0  0  0  0  0  0  0  0
   32.9655   24.7307   46.3718 H   0  0  0  0  0  0  0  0  0  0  0  0
   32.6576   26.4110   45.7133 H   0  0  0  0  0  0  0  0  0  0  0  0
   30.5935   24.9880   46.9139 H   0  0  0  0  0  0  0  0  0  0  0  0
   29.9271   27.0334   48.4149 H   0  0  0  0  0  0  0  0  0  0  0  0
   32.3549   27.2719   49.6387 H   0  0  0  0  0  0  0  0  0  0  0  0
   31.6722   28.7081   48.7137 H   0  0  0  0  0  0  0  0  0  0  0  0
  2  1  2  0
  2 13  1  0
  3  2  1  0
  4  3  2  0
  4  5  1  0
  5  6  2  0
  6  1  1  0
  7  5  1  0
  7 12  1  0
  8  7  1  0
  9 10  1  0
  9  8  1  0
 10 11  2  0
 11 12  1  0
 13 16  1  0
 14 13  1  0
 15 13  1  0
  1 17  1  0
  3 18  1  0
  7 19  1  6
  8 20  1  0
  8 21  1  0
  9 22  1  0
  9 23  1  0
 10 24  1  0
 11 25  1  0
 12 26  1  0
 12 27  1  0
M  ISO  8  17  14  18  14  19  13  20  13  21  13  22  13  23  13  24  13
M  ISO  3  25  13  26  13  27  13
M  END
>  <minimizedAffinity>  (1) 
-5.34090662

>  <minimizedRMSD>  (1) 
0.747343421

$$$$
