
     RDKit          3D

 47 49  0  0  1  0  0  0  0  0999 V2000
   38.3930   31.4240   48.3080 C   0  0  2  0  0  0  0  0  0  0  0  0
   38.3160   32.1170   49.6700 C   0  0  0  0  0  0  0  0  0  0  0  0
   38.4510   33.6290   49.5130 C   0  0  0  0  0  0  0  0  0  0  0  0
   39.5220   33.8730   48.5470 C   0  0  0  0  0  0  0  0  0  0  0  0
   39.5070   33.0500   47.3030 C   0  0  0  0  0  0  0  0  0  0  0  0
   38.1730   32.3150   47.1870 C   0  0  1  0  0  0  0  0  0  0  0  0
   38.2700   32.1470   45.7510 C   0  0  2  0  0  0  0  0  0  0  0  0
   38.1880   30.8410   45.0430 C   0  0  0  0  0  0  0  0  0  0  0  0
   39.3850   30.3010   44.3590 C   0  0  0  0  0  0  0  0  0  0  0  0
   40.6350   31.0660   44.2510 C   0  0  0  0  0  0  0  0  0  0  0  0
   40.7520   32.2670   45.1660 C   0  0  0  0  0  0  0  0  0  0  0  0
   39.4180   32.8820   45.1270 C   0  0  0  0  0  0  0  0  0  0  0  0
   37.1890   30.1070   48.4500 S   0  0  0  0  0  0  0  0  0  0  0  0
   35.6310   30.4060   47.7820 C   0  0  0  0  0  0  0  0  0  0  0  0
   34.6640   29.7220   48.6960 C   0  0  0  0  0  0  0  0  0  0  0  0
   33.3260   26.4580   47.6150 C   0  0  0  0  0  0  0  0  0  0  0  0
   34.0910   27.4380   48.2460 C   0  0  0  0  0  0  0  0  0  0  0  0
   33.8560   28.7610   47.9780 C   0  0  0  0  0  0  0  0  0  0  0  0
   32.8510   29.0330   47.0780 N   0  0  0  0  0  0  0  0  0  0  0  0
   32.1350   28.0720   46.4900 C   0  0  0  0  0  0  0  0  0  0  0  0
   32.3500   26.7820   46.7380 N   0  0  0  0  0  0  0  0  0  0  0  0
   39.3996   31.0418   48.0828 H   0  0  0  0  0  0  0  0  0  0  0  0
   37.3473   31.8874   50.1380 H   0  0  0  0  0  0  0  0  0  0  0  0
   39.1400   31.7514   50.3004 H   0  0  0  0  0  0  0  0  0  0  0  0
   37.5065   34.0547   49.1432 H   0  0  0  0  0  0  0  0  0  0  0  0
   38.6833   34.1013   50.4789 H   0  0  0  0  0  0  0  0  0  0  0  0
   39.4653   34.9299   48.2473 H   0  0  0  0  0  0  0  0  0  0  0  0
   40.4488   33.5902   49.0677 H   0  0  0  0  0  0  0  0  0  0  0  0
   39.6404   33.7053   46.4296 H   0  0  0  0  0  0  0  0  0  0  0  0
   40.3249   32.3155   47.3426 H   0  0  0  0  0  0  0  0  0  0  0  0
   37.1091   32.5583   47.3246 H   0  0  0  0  0  0  0  0  0  0  0  0
   37.2665   32.5704   45.5968 H   0  0  0  0  0  0  0  0  0  0  0  0
   37.2424   30.2792   45.0278 H   0  0  0  0  0  0  0  0  0  0  0  0
   39.3370   29.2947   43.9174 H   0  0  0  0  0  0  0  0  0  0  0  0
   41.4684   30.3852   44.4789 H   0  0  0  0  0  0  0  0  0  0  0  0
   40.6532   31.4669   43.2268 H   0  0  0  0  0  0  0  0  0  0  0  0
   41.0076   31.9543   46.1892 H   0  0  0  0  0  0  0  0  0  0  0  0
   41.5450   32.9610   44.8506 H   0  0  0  0  0  0  0  0  0  0  0  0
   39.4945   33.8548   45.6348 H   0  0  0  0  0  0  0  0  0  0  0  0
   39.1674   32.9110   44.0563 H   0  0  0  0  0  0  0  0  0  0  0  0
   35.4286   31.4867   47.7480 H   0  0  0  0  0  0  0  0  0  0  0  0
   35.5513   30.0315   46.7508 H   0  0  0  0  0  0  0  0  0  0  0  0
   35.2244   29.2006   49.4860 H   0  0  0  0  0  0  0  0  0  0  0  0
   33.9978   30.4820   49.1302 H   0  0  0  0  0  0  0  0  0  0  0  0
   33.5210   25.3982   47.8357 H   0  0  0  0  0  0  0  0  0  0  0  0
   34.8801   27.1502   48.9562 H   0  0  0  0  0  0  0  0  0  0  0  0
   31.3441   28.3544   45.7796 H   0  0  0  0  0  0  0  0  0  0  0  0
  1 13  1  0
  1  2  1  0
  3  2  1  0
  4  3  1  0
  5  4  1  0
  6  5  1  0
  6  1  1  0
  7  8  1  0
  7  6  1  0
  9  8  2  0
 10  9  1  0
 10 11  1  0
 12 11  1  0
 12  7  1  0
 14 13  1  0
 14 15  1  0
 16 17  2  0
 18 17  1  0
 18 15  1  0
 19 18  2  0
 20 21  2  0
 20 19  1  0
 21 16  1  0
  1 22  1  6
  2 23  1  0
  2 24  1  0
  3 25  1  0
  3 26  1  0
  4 27  1  0
  4 28  1  0
  5 29  1  0
  5 30  1  0
  6 31  1  6
  7 32  1  6
  8 33  1  0
  9 34  1  0
 10 35  1  0
 10 36  1  0
 11 37  1  0
 11 38  1  0
 12 39  1  0
 12 40  1  0
 14 41  1  0
 14 42  1  0
 15 43  1  0
 15 44  1  0
 16 45  1  0
 17 46  1  0
 20 47  1  0
M  ISO  8  22  13  23  13  24  13  25  13  26  13  27  13  28  13  29  13
M  ISO  8  30  13  31  13  32  13  33  13  34  13  35  13  36  13  37  13
M  ISO  8  38  13  39  13  40  13  41   8  42   8  43   8  44   8  45  14
M  ISO  2  46  14  47  14
M  END
>  <minimizedAffinity>  (1) 
-5.68353605

>  <minimizedRMSD>  (1) 
1.62042689

$$$$
