
     RDKit          3D

 43 46  0  0  0  0  0  0  0  0999 V2000
   37.8860   31.1730   47.5140 C   0  0  0  0  0  0  0  0  0  0  0  0
   38.8550   32.0890   47.3620 C   0  0  0  0  0  0  0  0  0  0  0  0
   39.1940   32.5030   46.1370 C   0  0  0  0  0  0  0  0  0  0  0  0
   38.5190   31.9580   45.0620 C   0  0  0  0  0  0  0  0  0  0  0  0
   37.3610   30.8120   45.8850 S   0  0  0  0  0  0  0  0  0  0  0  0
   40.9090   30.5950   43.7300 Cl  0  0  0  0  0  0  0  0  0  0  0  0
   39.6450   31.5500   42.9680 C   0  0  0  0  0  0  0  0  0  0  0  0
   38.5910   32.1370   43.6390 C   0  0  0  0  0  0  0  0  0  0  0  0
   37.6120   32.8700   43.0870 C   0  0  0  0  0  0  0  0  0  0  0  0
   37.6230   33.0800   41.7110 C   0  0  0  0  0  0  0  0  0  0  0  0
   38.6490   32.5210   40.9660 C   0  0  0  0  0  0  0  0  0  0  0  0
   38.7530   32.7280   39.2300 Cl  0  0  0  0  0  0  0  0  0  0  0  0
   39.6550   31.7620   41.5840 C   0  0  0  0  0  0  0  0  0  0  0  0
   37.1990   30.1960   51.0900 C   0  0  0  0  0  0  0  0  0  0  0  0
   37.8150   30.8470   49.9920 C   0  0  0  0  0  0  0  0  0  0  0  0
   37.3220   30.5540   48.7190 C   0  0  0  0  0  0  0  0  0  0  0  0
   36.3060   29.6870   48.5780 N   0  0  0  0  0  0  0  0  0  0  0  0
   35.7450   29.0860   49.6540 C   0  0  0  0  0  0  0  0  0  0  0  0
   36.1890   29.3410   50.8860 N   0  0  0  0  0  0  0  0  0  0  0  0
   34.6160   28.1330   49.3970 C   0  0  0  0  0  0  0  0  0  0  0  0
   33.3120   28.7740   49.7860 C   0  0  0  0  0  0  0  0  0  0  0  0
   32.1170   28.1300   49.1580 C   0  0  0  0  0  0  0  0  0  0  0  0
   32.1750   28.0420   47.6670 C   0  0  0  0  0  0  0  0  0  0  0  0
   33.5200   28.5870   47.2300 C   0  0  0  0  0  0  0  0  0  0  0  0
   34.5600   27.7350   47.9400 C   0  0  0  0  0  0  0  0  0  0  0  0
   39.3694   32.4984   48.2439 H   0  0  0  0  0  0  0  0  0  0  0  0
   39.9848   33.2533   45.9898 H   0  0  0  0  0  0  0  0  0  0  0  0
   36.8139   33.2979   43.7115 H   0  0  0  0  0  0  0  0  0  0  0  0
   36.8356   33.6758   41.2263 H   0  0  0  0  0  0  0  0  0  0  0  0
   40.4610   31.3285   40.9737 H   0  0  0  0  0  0  0  0  0  0  0  0
   37.5518   30.3938   52.1129 H   0  0  0  0  0  0  0  0  0  0  0  0
   38.6461   31.5530   50.1366 H   0  0  0  0  0  0  0  0  0  0  0  0
   34.7870   27.2298   50.0012 H   0  0  0  0  0  0  0  0  0  0  0  0
   33.2063   28.7116   50.8791 H   0  0  0  0  0  0  0  0  0  0  0  0
   33.3440   29.8134   49.4273 H   0  0  0  0  0  0  0  0  0  0  0  0
   32.0251   27.1100   49.5595 H   0  0  0  0  0  0  0  0  0  0  0  0
   31.2533   28.7662   49.4015 H   0  0  0  0  0  0  0  0  0  0  0  0
   32.0730   26.9941   47.3485 H   0  0  0  0  0  0  0  0  0  0  0  0
   31.3568   28.6202   47.2128 H   0  0  0  0  0  0  0  0  0  0  0  0
   33.6329   28.5001   46.1393 H   0  0  0  0  0  0  0  0  0  0  0  0
   33.6275   29.6523   47.4820 H   0  0  0  0  0  0  0  0  0  0  0  0
   34.2839   26.6733   47.8587 H   0  0  0  0  0  0  0  0  0  0  0  0
   35.5451   27.8902   47.4758 H   0  0  0  0  0  0  0  0  0  0  0  0
  1 16  1  0
  2  1  2  0
  3  2  1  0
  4  5  1  0
  4  3  2  0
  5  1  1  0
  7  8  2  0
  7  6  1  0
  8  4  1  0
  9  8  1  0
 10  9  2  0
 11 13  2  0
 11 10  1  0
 12 11  1  0
 13  7  1  0
 15 14  2  0
 16 15  1  0
 17 16  2  0
 17 18  1  0
 18 19  2  0
 19 14  1  0
 20 18  1  0
 20 21  1  0
 22 21  1  0
 23 22  1  0
 24 23  1  0
 24 25  1  0
 25 20  1  0
  2 26  1  0
  3 27  1  0
  9 28  1  0
 10 29  1  0
 13 30  1  0
 14 31  1  0
 15 32  1  0
 20 33  1  0
 21 34  1  0
 21 35  1  0
 22 36  1  0
 22 37  1  0
 23 38  1  0
 23 39  1  0
 24 40  1  0
 24 41  1  0
 25 42  1  0
 25 43  1  0
M  ISO  8  26  14  27  14  28  14  29  14  30  14  31  14  32  14  33  13
M  ISO  8  34  13  35  13  36  13  37  13  38  13  39  13  40  13  41  13
M  ISO  2  42  13  43  13
M  END
>  <minimizedAffinity>  (1) 
-6.11856365

>  <minimizedRMSD>  (1) 
1.12454426

$$$$
