
     RDKit          3D

 40 43  0  0  0  0  0  0  0  0999 V2000
   37.3400   31.1400   47.1190 N   0  0  0  0  0  0  0  0  0  0  0  0
   36.6820   30.9200   45.9520 C   0  0  0  0  0  0  0  0  0  0  0  0
   37.1150   31.4520   44.7450 C   0  0  0  0  0  0  0  0  0  0  0  0
   38.2760   32.2410   44.7620 C   0  0  0  0  0  0  0  0  0  0  0  0
   38.7100   32.7440   43.7030 O   0  0  0  0  0  0  0  0  0  0  0  0
   38.9370   32.4580   45.9500 N   0  0  0  0  0  0  0  0  0  0  0  0
   38.4240   31.8950   47.0390 C   0  0  0  0  0  0  0  0  0  0  0  0
   39.0540   32.1180   48.0920 O   0  0  0  0  0  0  0  0  0  0  0  0
   37.2830   29.4090   50.3980 C   0  0  0  0  0  0  0  0  0  0  0  0
   37.7390   29.9550   49.1890 C   0  0  0  0  0  0  0  0  0  0  0  0
   36.8910   30.5980   48.3150 C   0  0  0  0  0  0  0  0  0  0  0  0
   35.6080   30.6740   48.6840 N   0  0  0  0  0  0  0  0  0  0  0  0
   35.1200   30.1610   49.8460 C   0  0  0  0  0  0  0  0  0  0  0  0
   35.9780   29.5270   50.6950 N   0  0  0  0  0  0  0  0  0  0  0  0
   36.4500   31.2480   43.4730 C   0  0  0  0  0  0  0  0  0  0  0  0
   36.7140   30.1870   42.6420 C   0  0  0  0  0  0  0  0  0  0  0  0
   36.1020   29.9620   41.4290 C   0  0  0  0  0  0  0  0  0  0  0  0
   35.1330   30.8820   40.9980 C   0  0  0  0  0  0  0  0  0  0  0  0
   34.9020   31.9340   41.8660 C   0  0  0  0  0  0  0  0  0  0  0  0
   35.5280   32.0940   43.0280 N   0  0  0  0  0  0  0  0  0  0  0  0
   33.9020   32.9190   41.4650 C   0  0  0  0  0  0  0  0  0  0  0  0
   33.4240   33.8680   42.3640 C   0  0  0  0  0  0  0  0  0  0  0  0
   32.4780   34.7980   41.9770 C   0  0  0  0  0  0  0  0  0  0  0  0
   31.9860   34.8170   40.7120 N   0  0  0  0  0  0  0  0  0  0  0  0
   32.4630   33.8880   39.8570 C   0  0  0  0  0  0  0  0  0  0  0  0
   33.3860   32.9760   40.2240 N   0  0  0  0  0  0  0  0  0  0  0  0
   40.1290   33.2680   45.9660 C   0  0  0  0  0  0  0  0  0  0  0  0
   40.0650   34.2440   45.0260 F   0  0  0  0  0  0  0  0  0  0  0  0
   41.2860   32.5450   45.6960 F   0  0  0  0  0  0  0  0  0  0  0  0
   40.2350   33.8830   47.2180 F   0  0  0  0  0  0  0  0  0  0  0  0
   35.7743   30.2987   45.9632 H   0  0  0  0  0  0  0  0  0  0  0  0
   37.9748   28.8983   51.0840 H   0  0  0  0  0  0  0  0  0  0  0  0
   38.8048   29.8670   48.9316 H   0  0  0  0  0  0  0  0  0  0  0  0
   34.0530   30.2560   50.0958 H   0  0  0  0  0  0  0  0  0  0  0  0
   37.4725   29.4612   42.9705 H   0  0  0  0  0  0  0  0  0  0  0  0
   36.3646   29.0873   40.8159 H   0  0  0  0  0  0  0  0  0  0  0  0
   34.5982   30.7744   40.0428 H   0  0  0  0  0  0  0  0  0  0  0  0
   33.8043   33.8778   43.3961 H   0  0  0  0  0  0  0  0  0  0  0  0
   32.1169   35.5367   42.7077 H   0  0  0  0  0  0  0  0  0  0  0  0
   32.0854   33.8743   38.8239 H   0  0  0  0  0  0  0  0  0  0  0  0
  1 11  1  0
  2  1  1  0
  3  4  1  0
  3  2  2  0
  4  6  1  0
  5  4  2  0
  6 27  1  0
  6  7  1  0
  7  1  1  0
  7  8  2  0
  9 14  2  0
 10  9  1  0
 11 12  1  0
 11 10  2  0
 12 13  2  0
 13 14  1  0
 15  3  1  0
 16 15  2  0
 17 16  1  0
 18 17  2  0
 18 19  1  0
 19 20  2  0
 20 15  1  0
 21 19  1  0
 21 22  2  0
 23 22  1  0
 24 23  2  0
 25 26  2  0
 25 24  1  0
 26 21  1  0
 27 30  1  0
 28 27  1  0
 29 27  1  0
  2 31  1  0
  9 32  1  0
 10 33  1  0
 13 34  1  0
 16 35  1  0
 17 36  1  0
 18 37  1  0
 22 38  1  0
 23 39  1  0
 25 40  1  0
M  ISO  8  31  14  32  14  33  14  34  14  35  14  36  14  37  14  38  14
M  ISO  2  39  14  40  14
M  END
>  <minimizedAffinity>  (1) 
-6.47795534

>  <minimizedRMSD>  (1) 
0.476769656

$$$$
