
     RDKit          3D

 35 37  0  0  1  0  0  0  0  0999 V2000
   37.2220   30.4740   49.2820 C   0  0  0  0  0  0  0  0  0  0  0  0
   37.2450   31.6940   49.9790 C   0  0  0  0  0  0  0  0  0  0  0  0
   37.8060   32.8050   49.3360 C   0  0  0  0  0  0  0  0  0  0  0  0
   38.2980   32.6300   48.0700 N   0  0  0  0  0  0  0  0  0  0  0  0
   38.2570   31.4380   47.4370 C   0  0  0  0  0  0  0  0  0  0  0  0
   37.7240   30.3740   48.0410 N   0  0  0  0  0  0  0  0  0  0  0  0
   38.7970   31.3750   46.1250 N   0  0  0  0  0  0  0  0  0  0  0  0
   40.2000   31.0570   45.9540 C   0  0  0  0  0  0  0  0  0  0  0  0
   40.8370   31.9770   44.9300 C   0  0  0  0  0  0  0  0  0  0  0  0
   40.0670   32.0580   43.7250 N   0  0  0  0  0  0  0  0  0  0  0  0
   38.8530   31.3060   43.7380 C   0  0  0  0  0  0  0  0  0  0  0  0
   37.9740   31.6220   44.9440 C   0  0  1  0  0  0  0  0  0  0  0  0
   36.8370   30.6740   44.9160 C   0  0  0  0  0  0  0  0  0  0  0  0
   36.6770   29.6720   43.9570 C   0  0  0  0  0  0  0  0  0  0  0  0
   35.6140   28.8020   43.9490 C   0  0  0  0  0  0  0  0  0  0  0  0
   34.6780   28.9170   44.9080 N   0  0  0  0  0  0  0  0  0  0  0  0
   34.8210   29.8910   45.8510 C   0  0  0  0  0  0  0  0  0  0  0  0
   35.8730   30.7340   45.8400 N   0  0  0  0  0  0  0  0  0  0  0  0
   36.6270   29.2910   49.9600 C   0  0  0  0  0  0  0  0  0  0  0  0
   35.8030   29.7170   51.0100 F   0  0  0  0  0  0  0  0  0  0  0  0
   35.9870   28.5410   49.0200 F   0  0  0  0  0  0  0  0  0  0  0  0
   37.6780   28.5840   50.5500 F   0  0  0  0  0  0  0  0  0  0  0  0
   36.8356   31.7740   50.9968 H   0  0  0  0  0  0  0  0  0  0  0  0
   37.8499   33.7859   49.8318 H   0  0  0  0  0  0  0  0  0  0  0  0
   40.7173   31.1758   46.9175 H   0  0  0  0  0  0  0  0  0  0  0  0
   40.2869   30.0192   45.5998 H   0  0  0  0  0  0  0  0  0  0  0  0
   40.9239   32.9842   45.3637 H   0  0  0  0  0  0  0  0  0  0  0  0
   41.8246   31.5660   44.6737 H   0  0  0  0  0  0  0  0  0  0  0  0
   40.6494   31.7127   42.9488 H   0  0  0  0  0  0  0  0  0  0  0  0
   38.2883   31.5346   42.8221 H   0  0  0  0  0  0  0  0  0  0  0  0
   39.1238   30.2414   43.7958 H   0  0  0  0  0  0  0  0  0  0  0  0
   37.5961   32.6551   44.9449 H   0  0  0  0  0  0  0  0  0  0  0  0
   37.4390   29.5745   43.1697 H   0  0  0  0  0  0  0  0  0  0  0  0
   35.5299   28.0265   43.1735 H   0  0  0  0  0  0  0  0  0  0  0  0
   34.0603   29.9914   46.6392 H   0  0  0  0  0  0  0  0  0  0  0  0
  1 19  1  0
  1  2  2  0
  3  2  1  0
  4  3  2  0
  5  6  2  0
  5  4  1  0
  6  1  1  0
  7  5  1  0
  8  7  1  0
  9  8  1  0
 10 11  1  0
 10  9  1  0
 11 12  1  0
 12  7  1  0
 13 12  1  0
 13 18  1  0
 14 13  2  0
 15 14  1  0
 15 16  2  0
 16 17  1  0
 18 17  2  0
 19 22  1  0
 19 20  1  0
 21 19  1  0
  2 23  1  0
  3 24  1  0
  8 25  1  0
  8 26  1  0
  9 27  1  0
  9 28  1  0
 10 29  1  0
 11 30  1  0
 11 31  1  0
 12 32  1  6
 14 33  1  0
 15 34  1  0
 17 35  1  0
M  ISO  8  23  14  24  14  25  13  26  13  27  13  28  13  29   5  30  13
M  ISO  5  31  13  32  13  33  14  34  14  35  14
M  END
>  <minimizedAffinity>  (1) 
-6.14158201

>  <minimizedRMSD>  (1) 
1.28004885

$$$$
