
     RDKit          3D

 24 25  0  0  0  0  0  0  0  0999 V2000
   34.7650   28.3070   49.4860 C   0  0  0  0  0  0  0  0  0  0  0  0
   37.2820   30.1760   51.4380 C   0  0  0  0  0  0  0  0  0  0  0  0
   38.0850   30.7180   50.4200 C   0  0  0  0  0  0  0  0  0  0  0  0
   37.7670   30.4470   49.0760 C   0  0  0  0  0  0  0  0  0  0  0  0
   36.6870   29.6640   48.8280 N   0  0  0  0  0  0  0  0  0  0  0  0
   35.9360   29.1590   49.8540 C   0  0  0  0  0  0  0  0  0  0  0  0
   36.2330   29.4140   51.1360 N   0  0  0  0  0  0  0  0  0  0  0  0
   34.4400   28.4790   48.0250 C   0  0  0  0  0  0  0  0  0  0  0  0
   32.9840   28.3830   47.7740 C   0  0  0  0  0  0  0  0  0  0  0  0
   32.2360   27.7500   48.7630 C   0  0  0  0  0  0  0  0  0  0  0  0
   30.8680   27.5750   48.6920 C   0  0  0  0  0  0  0  0  0  0  0  0
   30.2440   28.0530   47.5880 N   0  0  0  0  0  0  0  0  0  0  0  0
   30.9910   28.6660   46.6370 C   0  0  0  0  0  0  0  0  0  0  0  0
   32.3410   28.8490   46.6870 N   0  0  0  0  0  0  0  0  0  0  0  0
   35.0059   27.2521   49.6836 H   0  0  0  0  0  0  0  0  0  0  0  0
   33.8952   28.6106   50.0870 H   0  0  0  0  0  0  0  0  0  0  0  0
   37.5218   30.3828   52.4914 H   0  0  0  0  0  0  0  0  0  0  0  0
   38.9521   31.3468   50.6707 H   0  0  0  0  0  0  0  0  0  0  0  0
   38.3735   30.8561   48.2545 H   0  0  0  0  0  0  0  0  0  0  0  0
   34.7946   29.4665   47.6946 H   0  0  0  0  0  0  0  0  0  0  0  0
   34.9388   27.6741   47.4652 H   0  0  0  0  0  0  0  0  0  0  0  0
   32.7636   27.3683   49.6496 H   0  0  0  0  0  0  0  0  0  0  0  0
   30.3103   27.0707   49.4949 H   0  0  0  0  0  0  0  0  0  0  0  0
   30.4634   29.0478   45.7505 H   0  0  0  0  0  0  0  0  0  0  0  0
  1  6  1  0
  3  2  2  0
  4  3  1  0
  5  4  2  0
  5  6  1  0
  6  7  2  0
  7  2  1  0
  8  1  1  0
  9  8  1  0
  9 10  2  0
 11 10  1  0
 12 11  2  0
 13 14  2  0
 13 12  1  0
 14  9  1  0
  1 15  1  0
  1 16  1  0
  2 17  1  0
  3 18  1  0
  4 19  1  0
  8 20  1  0
  8 21  1  0
 10 22  1  0
 11 23  1  0
 13 24  1  0
M  ISO  8  15   8  16   8  17  14  18  14  19  14  20   8  21   8  22  14
M  ISO  2  23  14  24  14
M  END
>  <minimizedAffinity>  (1) 
-4.43331671

>  <minimizedRMSD>  (1) 
1.20817006

$$$$
