
     RDKit          3D

 25 27  0  0  1  0  0  0  0  0999 V2000
   36.8750   31.0120   47.7050 C   0  0  1  0  0  0  0  0  0  0  0  0
   38.0280   30.4990   48.4110 C   0  0  0  0  0  0  0  0  0  0  0  0
   38.1810   31.7830   47.6280 C   0  0  1  0  0  0  0  0  0  0  0  0
   34.6410   29.5020   45.0960 C   0  0  0  0  0  0  0  0  0  0  0  0
   35.0660   30.0410   46.3410 C   0  0  0  0  0  0  0  0  0  0  0  0
   36.4060   30.4620   46.4260 C   0  0  0  0  0  0  0  0  0  0  0  0
   37.2150   30.3310   45.3180 N   0  0  0  0  0  0  0  0  0  0  0  0
   36.7550   29.8180   44.1740 C   0  0  0  0  0  0  0  0  0  0  0  0
   35.4790   29.4060   44.0630 N   0  0  0  0  0  0  0  0  0  0  0  0
   38.9850   31.8670   46.4170 C   0  0  0  0  0  0  0  0  0  0  0  0
   40.0340   31.0650   46.0140 C   0  0  0  0  0  0  0  0  0  0  0  0
   40.7130   31.2550   44.8280 C   0  0  0  0  0  0  0  0  0  0  0  0
   40.3880   32.2390   43.9870 N   0  0  0  0  0  0  0  0  0  0  0  0
   39.3680   33.0280   44.3650 C   0  0  0  0  0  0  0  0  0  0  0  0
   38.6940   32.8590   45.5170 N   0  0  0  0  0  0  0  0  0  0  0  0
   35.8412   31.1831   48.0396 H   0  0  0  0  0  0  0  0  0  0  0  0
   38.0500   30.5251   49.5105 H   0  0  0  0  0  0  0  0  0  0  0  0
   38.5586   29.5354   48.4162 H   0  0  0  0  0  0  0  0  0  0  0  0
   38.5053   32.8132   47.8365 H   0  0  0  0  0  0  0  0  0  0  0  0
   33.6023   29.1580   44.9827 H   0  0  0  0  0  0  0  0  0  0  0  0
   34.3801   30.1249   47.1969 H   0  0  0  0  0  0  0  0  0  0  0  0
   37.4295   29.7310   43.3094 H   0  0  0  0  0  0  0  0  0  0  0  0
   40.3426   30.2365   46.6685 H   0  0  0  0  0  0  0  0  0  0  0  0
   41.5418   30.5795   44.5695 H   0  0  0  0  0  0  0  0  0  0  0  0
   39.0697   33.8521   43.7002 H   0  0  0  0  0  0  0  0  0  0  0  0
  1  2  1  0
  3  1  1  0
  3  2  1  0
  4  5  2  0
  5  6  1  0
  6  1  1  0
  7  6  2  0
  8  7  1  0
  9  8  2  0
  9  4  1  0
 10  3  1  0
 11 10  2  0
 12 11  1  0
 13 14  1  0
 13 12  2  0
 14 15  2  0
 15 10  1  0
  1 16  1  1
  2 17  1  0
  2 18  1  0
  3 19  1  1
  4 20  1  0
  5 21  1  0
  8 22  1  0
 11 23  1  0
 12 24  1  0
 14 25  1  0
M  ISO  8  16  13  17  13  18  13  19  13  20  14  21  14  22  14  23  14
M  ISO  2  24  14  25  14
M  END
>  <minimizedAffinity>  (1) 
-4.02363873

>  <minimizedRMSD>  (1) 
5.27679253

$$$$
