
     RDKit          3D

 28 30  0  0  0  0  0  0  0  0999 V2000
   38.1820   31.0350   48.3080 Cl  0  0  0  0  0  0  0  0  0  0  0  0
   37.0170   30.6270   47.0820 C   0  0  0  0  0  0  0  0  0  0  0  0
   35.8250   30.0500   47.4230 C   0  0  0  0  0  0  0  0  0  0  0  0
   34.9650   29.7580   46.3970 C   0  0  0  0  0  0  0  0  0  0  0  0
   35.2110   29.9970   45.0860 C   0  0  0  0  0  0  0  0  0  0  0  0
   36.4080   30.5730   44.7650 C   0  0  0  0  0  0  0  0  0  0  0  0
   37.3210   30.8930   45.7550 C   0  0  0  0  0  0  0  0  0  0  0  0
   36.2510   29.2290   51.0990 C   0  0  0  0  0  0  0  0  0  0  0  0
   36.5340   29.4680   49.7570 C   0  0  0  0  0  0  0  0  0  0  0  0
   35.5570   29.7940   48.8340 C   0  0  0  0  0  0  0  0  0  0  0  0
   34.2890   29.8630   49.3350 N   0  0  0  0  0  0  0  0  0  0  0  0
   34.0190   29.6320   50.6270 C   0  0  0  0  0  0  0  0  0  0  0  0
   34.9710   29.3190   51.5060 N   0  0  0  0  0  0  0  0  0  0  0  0
   38.6110   31.5080   45.4690 C   0  0  0  0  0  0  0  0  0  0  0  0
   39.8160   30.8420   45.4930 C   0  0  0  0  0  0  0  0  0  0  0  0
   41.0280   31.4330   45.2200 C   0  0  0  0  0  0  0  0  0  0  0  0
   41.0430   32.7460   44.9090 N   0  0  0  0  0  0  0  0  0  0  0  0
   39.8760   33.4250   44.8770 C   0  0  0  0  0  0  0  0  0  0  0  0
   38.7270   32.8180   45.1470 N   0  0  0  0  0  0  0  0  0  0  0  0
   34.0020   29.2945   46.6572 H   0  0  0  0  0  0  0  0  0  0  0  0
   34.4756   29.7374   44.3102 H   0  0  0  0  0  0  0  0  0  0  0  0
   36.6477   30.7838   43.7123 H   0  0  0  0  0  0  0  0  0  0  0  0
   37.0522   28.9734   51.8081 H   0  0  0  0  0  0  0  0  0  0  0  0
   37.5775   29.3945   49.4168 H   0  0  0  0  0  0  0  0  0  0  0  0
   32.9775   29.7030   50.9737 H   0  0  0  0  0  0  0  0  0  0  0  0
   39.8091   29.7715   45.7460 H   0  0  0  0  0  0  0  0  0  0  0  0
   41.9604   30.8504   45.2543 H   0  0  0  0  0  0  0  0  0  0  0  0
   39.8778   34.4955   44.6238 H   0  0  0  0  0  0  0  0  0  0  0  0
  2  3  2  0
  2  1  1  0
  3 10  1  0
  4  3  1  0
  5  4  2  0
  6  5  1  0
  6  7  2  0
  7  2  1  0
  8 13  2  0
  9  8  1  0
 10 11  1  0
 10  9  2  0
 11 12  2  0
 12 13  1  0
 14 15  2  0
 14  7  1  0
 16 15  1  0
 17 16  2  0
 18 17  1  0
 18 19  2  0
 19 14  1  0
  4 20  1  0
  5 21  1  0
  6 22  1  0
  8 23  1  0
  9 24  1  0
 12 25  1  0
 15 26  1  0
 16 27  1  0
 18 28  1  0
M  ISO  8  20  14  21  14  22  14  23  14  24  14  25  14  26  14  27  14
M  ISO  1  28  14
M  END
>  <minimizedAffinity>  (1) 
-5.45787907

>  <minimizedRMSD>  (1) 
3.58835626

$$$$
