
     RDKit          3D

 35 38  0  0  0  0  0  0  0  0999 V2000
   38.9150   30.8900   45.7650 C   0  0  0  0  0  0  0  0  0  0  0  0
   40.1200   31.5300   46.0240 C   0  0  0  0  0  0  0  0  0  0  0  0
   40.9350   31.4620   44.9060 C   0  0  0  0  0  0  0  0  0  0  0  0
   40.1830   30.7720   43.9990 N   0  0  0  0  0  0  0  0  0  0  0  0
   39.0080   30.4380   44.4950 N   0  0  0  0  0  0  0  0  0  0  0  0
   37.7940   30.7440   46.6750 C   0  0  0  0  0  0  0  0  0  0  0  0
   38.0170   30.9700   48.0570 C   0  0  0  0  0  0  0  0  0  0  0  0
   36.9320   30.8270   48.9190 C   0  0  0  0  0  0  0  0  0  0  0  0
   35.7260   30.4800   48.3840 N   0  0  0  0  0  0  0  0  0  0  0  0
   35.5400   30.2690   47.0600 C   0  0  0  0  0  0  0  0  0  0  0  0
   36.5800   30.4040   46.2140 N   0  0  0  0  0  0  0  0  0  0  0  0
   37.1430   31.0610   50.3780 C   0  0  0  0  0  0  0  0  0  0  0  0
   36.6160   32.3070   50.6260 F   0  0  0  0  0  0  0  0  0  0  0  0
   36.4740   30.1370   51.1590 F   0  0  0  0  0  0  0  0  0  0  0  0
   38.4870   31.0750   50.7050 F   0  0  0  0  0  0  0  0  0  0  0  0
   40.5450   30.4100   42.6320 C   0  0  0  0  0  0  0  0  0  0  0  0
   40.1730   31.2180   41.5460 C   0  0  0  0  0  0  0  0  0  0  0  0
   40.5490   30.8370   40.2920 C   0  0  0  0  0  0  0  0  0  0  0  0
   41.3040   29.6360   40.1200 C   0  0  0  0  0  0  0  0  0  0  0  0
   41.4710   29.0380   41.8750 S   0  0  0  0  0  0  0  0  0  0  0  0
   41.8230   29.0050   38.9560 C   0  0  0  0  0  0  0  0  0  0  0  0
   41.1080   28.8720   37.7580 C   0  0  0  0  0  0  0  0  0  0  0  0
   41.7710   28.2320   36.7340 C   0  0  0  0  0  0  0  0  0  0  0  0
   43.0110   27.7790   36.8970 N   0  0  0  0  0  0  0  0  0  0  0  0
   43.6930   27.9070   38.0390 C   0  0  0  0  0  0  0  0  0  0  0  0
   43.0750   28.5270   39.0600 N   0  0  0  0  0  0  0  0  0  0  0  0
   40.3869   32.0172   46.9734 H   0  0  0  0  0  0  0  0  0  0  0  0
   41.9493   31.8683   44.7788 H   0  0  0  0  0  0  0  0  0  0  0  0
   39.0117   31.2484   48.4351 H   0  0  0  0  0  0  0  0  0  0  0  0
   34.5473   29.9894   46.6775 H   0  0  0  0  0  0  0  0  0  0  0  0
   39.5911   32.1381   41.7032 H   0  0  0  0  0  0  0  0  0  0  0  0
   40.2736   31.4488   39.4203 H   0  0  0  0  0  0  0  0  0  0  0  0
   40.0830   29.2542   37.6427 H   0  0  0  0  0  0  0  0  0  0  0  0
   41.2670   28.0934   35.7662 H   0  0  0  0  0  0  0  0  0  0  0  0
   44.7181   27.5210   38.1399 H   0  0  0  0  0  0  0  0  0  0  0  0
  1  2  1  0
  1  6  1  0
  3  2  2  0
  4  5  1  0
  4  3  1  0
  5  1  2  0
  6  7  2  0
  7  8  1  0
  8 12  1  0
  9  8  2  0
 10  9  1  0
 11  6  1  0
 11 10  2  0
 12 13  1  0
 12 15  1  0
 12 14  1  0
 16  4  1  0
 17 16  2  0
 18 17  1  0
 19 18  2  0
 19 20  1  0
 20 16  1  0
 21 26  1  0
 21 19  1  0
 22 21  2  0
 23 24  2  0
 23 22  1  0
 24 25  1  0
 25 26  2  0
  2 27  1  0
  3 28  1  0
  7 29  1  0
 10 30  1  0
 17 31  1  0
 18 32  1  0
 22 33  1  0
 23 34  1  0
 25 35  1  0
M  ISO  8  27  14  28  14  29  14  30  14  31  14  32  14  33  14  34  14
M  ISO  1  35  14
M  END
>  <minimizedAffinity>  (1) 
-6.32338285

>  <minimizedRMSD>  (1) 
0.0232780259

$$$$
