
     RDKit          3D

 24 25  0  0  0  0  0  0  0  0999 V2000
   34.8540   29.2210   45.7030 O   0  0  0  0  0  0  0  0  0  0  0  0
   34.7460   29.8020   47.1060 P   0  0  0  0  0  0  0  0  0  0  0  0
   33.4210   30.8720   47.1870 O   0  0  0  0  0  0  0  0  0  0  0  0
   34.4770   28.6040   48.2970 O   0  0  0  0  0  0  0  0  0  0  0  0
   33.4730   27.6640   48.1800 C   0  0  0  0  0  0  0  0  0  0  0  0
   32.1440   27.8230   48.6240 C   0  0  0  0  0  0  0  0  0  0  0  0
   31.2590   26.7760   48.4270 C   0  0  0  0  0  0  0  0  0  0  0  0
   31.6940   25.6350   47.8170 N   0  0  0  0  0  0  0  0  0  0  0  0
   32.9850   25.5140   47.4010 C   0  0  0  0  0  0  0  0  0  0  0  0
   33.8840   26.5230   47.5770 N   0  0  0  0  0  0  0  0  0  0  0  0
   36.1840   30.6270   47.4190 O   0  0  0  0  0  0  0  0  0  0  0  0
   37.1220   30.8560   46.4210 C   0  0  0  0  0  0  0  0  0  0  0  0
   36.9720   31.1670   45.0770 C   0  0  0  0  0  0  0  0  0  0  0  0
   38.0800   31.3450   44.3050 C   0  0  0  0  0  0  0  0  0  0  0  0
   39.2890   31.2190   44.8450 N   0  0  0  0  0  0  0  0  0  0  0  0
   39.4680   30.9210   46.1350 C   0  0  0  0  0  0  0  0  0  0  0  0
   38.3780   30.7390   46.9280 N   0  0  0  0  0  0  0  0  0  0  0  0
   33.1991   31.0512   48.1350 H   0  0  0  0  0  0  0  0  0  0  0  0
   31.8191   28.7530   49.1134 H   0  0  0  0  0  0  0  0  0  0  0  0
   30.2141   26.8632   48.7594 H   0  0  0  0  0  0  0  0  0  0  0  0
   33.3088   24.5829   46.9130 H   0  0  0  0  0  0  0  0  0  0  0  0
   35.9680   31.2688   44.6393 H   0  0  0  0  0  0  0  0  0  0  0  0
   37.9753   31.5922   43.2383 H   0  0  0  0  0  0  0  0  0  0  0  0
   40.4822   30.8242   46.5498 H   0  0  0  0  0  0  0  0  0  0  0  0
  2  1  2  0
  2  3  1  0
  2 11  1  0
  2  4  1  0
  5  4  1  0
  5  6  2  0
  7  6  1  0
  8  7  2  0
  9 10  2  0
  9  8  1  0
 10  5  1  0
 12 17  1  0
 12 11  1  0
 13 12  2  0
 14 15  2  0
 14 13  1  0
 15 16  1  0
 16 17  2  0
  3 18  1  0
  6 19  1  0
  7 20  1  0
  9 21  1  0
 13 22  1  0
 14 23  1  0
 16 24  1  0
M  ISO  7  18   3  19  14  20  14  21  14  22  14  23  14  24  14
M  END
>  <minimizedAffinity>  (1) 
-3.83938861

>  <minimizedRMSD>  (1) 
5.26616955

$$$$
