
     RDKit          3D

 26 28  0  0  1  0  0  0  0  0999 V2000
   36.4610   29.4540   50.3100 C   0  0  2  0  0  0  0  0  0  0  0  0
   36.8230   30.7890   50.7770 C   0  0  0  0  0  0  0  0  0  0  0  0
   37.7300   30.0440   49.8010 C   0  0  2  0  0  0  0  0  0  0  0  0
   33.9080   30.0070   47.6570 C   0  0  0  0  0  0  0  0  0  0  0  0
   33.4050   28.7140   47.4800 C   0  0  0  0  0  0  0  0  0  0  0  0
   33.9370   27.6600   48.2580 C   0  0  0  0  0  0  0  0  0  0  0  0
   34.9330   27.9560   49.1610 N   0  0  0  0  0  0  0  0  0  0  0  0
   35.3880   29.2030   49.3020 C   0  0  0  0  0  0  0  0  0  0  0  0
   34.8880   30.2030   48.5690 N   0  0  0  0  0  0  0  0  0  0  0  0
   37.7490   30.6080   48.0830 S   0  0  0  0  0  0  0  0  0  0  0  0
   38.7470   32.0520   47.8060 C   0  0  0  0  0  0  0  0  0  0  0  0
   38.6830   32.8190   48.9770 C   0  0  0  0  0  0  0  0  0  0  0  0
   39.3520   34.0440   49.1030 C   0  0  0  0  0  0  0  0  0  0  0  0
   40.1010   34.5420   48.0770 N   0  0  0  0  0  0  0  0  0  0  0  0
   40.1350   33.7660   46.9620 C   0  0  0  0  0  0  0  0  0  0  0  0
   39.5020   32.6070   46.8450 N   0  0  0  0  0  0  0  0  0  0  0  0
   36.1593   28.5509   50.8608 H   0  0  0  0  0  0  0  0  0  0  0  0
   36.2507   31.6650   50.4377 H   0  0  0  0  0  0  0  0  0  0  0  0
   36.9582   31.2599   51.7619 H   0  0  0  0  0  0  0  0  0  0  0  0
   38.7887   29.7463   49.7781 H   0  0  0  0  0  0  0  0  0  0  0  0
   33.5147   30.8477   47.0666 H   0  0  0  0  0  0  0  0  0  0  0  0
   32.6080   28.5201   46.7470 H   0  0  0  0  0  0  0  0  0  0  0  0
   33.5650   26.6310   48.1447 H   0  0  0  0  0  0  0  0  0  0  0  0
   38.0885   32.4476   49.8247 H   0  0  0  0  0  0  0  0  0  0  0  0
   39.2722   34.6117   50.0418 H   0  0  0  0  0  0  0  0  0  0  0  0
   40.7240   34.1214   46.1036 H   0  0  0  0  0  0  0  0  0  0  0  0
  1  2  1  0
  3  1  1  0
  3  2  1  0
  4  9  2  0
  5  4  1  0
  5  6  2  0
  6  7  1  0
  7  8  2  0
  8  1  1  0
  9  8  1  0
 10  3  1  0
 11 10  1  0
 11 12  2  0
 12 13  1  0
 14 13  2  0
 15 14  1  0
 16 15  2  0
 16 11  1  0
  1 17  1  1
  2 18  1  0
  2 19  1  0
  3 20  1  1
  4 21  1  0
  5 22  1  0
  6 23  1  0
 12 24  1  0
 13 25  1  0
 15 26  1  0
M  ISO  8  17  13  18  13  19  13  20  13  21  14  22  14  23  14  24  14
M  ISO  2  25  14  26  14
M  END
>  <minimizedAffinity>  (1) 
-4.85639763

>  <minimizedRMSD>  (1) 
4.94675493

$$$$
