
     RDKit          3D

 34 36  0  0  0  0  0  0  0  0999 V2000
   39.7390   31.9900   46.8300 C   0  0  0  0  0  0  0  0  0  0  0  0
   39.7700   32.0150   45.4030 C   0  0  0  0  0  0  0  0  0  0  0  0
   39.6030   33.1910   44.7400 C   0  0  0  0  0  0  0  0  0  0  0  0
   39.6240   33.2690   43.3340 C   0  0  0  0  0  0  0  0  0  0  0  0
   39.8270   32.0630   42.6990 N   0  0  0  0  0  0  0  0  0  0  0  0
   39.9890   30.9170   43.3810 C   0  0  0  0  0  0  0  0  0  0  0  0
   39.9600   30.8920   44.7240 N   0  0  0  0  0  0  0  0  0  0  0  0
   40.1970   29.7010   42.6010 C   0  0  0  0  0  0  0  0  0  0  0  0
   39.5140   28.5330   42.8230 C   0  0  0  0  0  0  0  0  0  0  0  0
   39.7760   27.4380   42.0380 C   0  0  0  0  0  0  0  0  0  0  0  0
   40.6750   27.4470   41.0550 N   0  0  0  0  0  0  0  0  0  0  0  0
   41.3460   28.6170   40.8480 C   0  0  0  0  0  0  0  0  0  0  0  0
   41.1100   29.7250   41.6100 N   0  0  0  0  0  0  0  0  0  0  0  0
   38.5650   32.4660   47.5670 C   0  0  0  0  0  0  0  0  0  0  0  0
   37.8800   31.4470   48.3820 C   0  0  0  0  0  0  0  0  0  0  0  0
   36.9280   30.6080   47.8250 C   0  0  0  0  0  0  0  0  0  0  0  0
   36.4570   29.7660   48.7980 C   0  0  0  0  0  0  0  0  0  0  0  0
   37.1040   30.0850   49.9160 N   0  0  0  0  0  0  0  0  0  0  0  0
   37.9350   31.0750   49.6500 N   0  0  0  0  0  0  0  0  0  0  0  0
   36.9690   29.4860   51.2420 C   0  0  0  0  0  0  0  0  0  0  0  0
   37.7860   28.3690   51.3540 F   0  0  0  0  0  0  0  0  0  0  0  0
   35.6800   29.0960   51.5050 F   0  0  0  0  0  0  0  0  0  0  0  0
   37.3720   30.3590   52.2310 F   0  0  0  0  0  0  0  0  0  0  0  0
   40.5904   32.5966   47.1722 H   0  0  0  0  0  0  0  0  0  0  0  0
   39.7454   30.9130   47.0537 H   0  0  0  0  0  0  0  0  0  0  0  0
   39.4464   34.1116   45.3214 H   0  0  0  0  0  0  0  0  0  0  0  0
   39.4895   34.2144   42.7879 H   0  0  0  0  0  0  0  0  0  0  0  0
   38.7621   28.4740   43.6238 H   0  0  0  0  0  0  0  0  0  0  0  0
   39.2176   26.5098   42.2295 H   0  0  0  0  0  0  0  0  0  0  0  0
   42.0970   28.6688   40.0459 H   0  0  0  0  0  0  0  0  0  0  0  0
   38.8892   33.2760   48.2369 H   0  0  0  0  0  0  0  0  0  0  0  0
   37.8378   32.7886   46.8073 H   0  0  0  0  0  0  0  0  0  0  0  0
   36.6036   30.6166   46.7740 H   0  0  0  0  0  0  0  0  0  0  0  0
   35.6950   28.9817   48.6785 H   0  0  0  0  0  0  0  0  0  0  0  0
  1 14  1  0
  2  1  1  0
  3  2  2  0
  4  3  1  0
  5  4  2  0
  5  6  1  0
  6  7  2  0
  7  2  1  0
  8  9  2  0
  8  6  1  0
 10  9  1  0
 11 10  2  0
 12 11  1  0
 12 13  2  0
 13  8  1  0
 14 15  1  0
 15 19  2  0
 16 15  1  0
 16 17  2  0
 17 18  1  0
 18 20  1  0
 19 18  1  0
 20 21  1  0
 20 22  1  0
 20 23  1  0
  1 24  1  0
  1 25  1  0
  3 26  1  0
  4 27  1  0
  9 28  1  0
 10 29  1  0
 12 30  1  0
 14 31  1  0
 14 32  1  0
 16 33  1  0
 17 34  1  0
M  ISO  8  24   8  25   8  26  14  27  14  28  14  29  14  30  14  31   8
M  ISO  3  32   8  33  14  34  14
M  END
>  <minimizedAffinity>  (1) 
-6.11914301

>  <minimizedRMSD>  (1) 
0.949683428

$$$$
