
     RDKit          3D

 33 35  0  0  1  0  0  0  0  0999 V2000
   36.3330   29.1860   49.6080 S   0  0  0  0  0  0  0  0  0  0  0  0
   33.8130   28.3090   49.1450 N   0  0  0  0  0  0  0  0  0  0  0  0
   34.5530   29.5400   49.2750 C   0  0  2  0  0  0  0  0  0  0  0  0
   34.4430   30.2850   47.9740 C   0  0  0  0  0  0  0  0  0  0  0  0
   33.3780   29.7960   47.1870 O   0  0  0  0  0  0  0  0  0  0  0  0
   33.8040   28.5190   46.7730 C   0  0  0  0  0  0  0  0  0  0  0  0
   34.2280   27.6620   47.9300 C   0  0  2  0  0  0  0  0  0  0  0  0
   33.5840   26.4030   47.8640 O   0  0  0  0  0  0  0  0  0  0  0  0
   37.3500   30.5060   49.0040 C   0  0  0  0  0  0  0  0  0  0  0  0
   37.6320   31.4920   49.9620 C   0  0  0  0  0  0  0  0  0  0  0  0
   38.4190   32.5750   49.6060 C   0  0  0  0  0  0  0  0  0  0  0  0
   38.8900   32.6270   48.3120 N   0  0  0  0  0  0  0  0  0  0  0  0
   38.6030   31.6690   47.4200 C   0  0  0  0  0  0  0  0  0  0  0  0
   37.8450   30.6340   47.7740 N   0  0  0  0  0  0  0  0  0  0  0  0
   39.1420   31.7980   46.0670 C   0  0  0  0  0  0  0  0  0  0  0  0
   40.2780   31.0840   45.7390 C   0  0  0  0  0  0  0  0  0  0  0  0
   40.7100   31.2710   44.4410 C   0  0  0  0  0  0  0  0  0  0  0  0
   40.1040   32.0720   43.5460 N   0  0  0  0  0  0  0  0  0  0  0  0
   38.9930   32.7520   43.9110 C   0  0  0  0  0  0  0  0  0  0  0  0
   38.5260   32.6020   45.1810 N   0  0  0  0  0  0  0  0  0  0  0  0
   34.0091   27.6975   49.9503 H   0  0  0  0  0  0  0  0  0  0  0  0
   34.1461   30.1313   50.1086 H   0  0  0  0  0  0  0  0  0  0  0  0
   34.2712   31.3507   48.1856 H   0  0  0  0  0  0  0  0  0  0  0  0
   35.3794   30.1432   47.4145 H   0  0  0  0  0  0  0  0  0  0  0  0
   32.9750   28.0215   46.2483 H   0  0  0  0  0  0  0  0  0  0  0  0
   34.6736   28.6500   46.1122 H   0  0  0  0  0  0  0  0  0  0  0  0
   35.3187   27.5220   47.9006 H   0  0  0  0  0  0  0  0  0  0  0  0
   33.4141   26.0708   48.7810 H   0  0  0  0  0  0  0  0  0  0  0  0
   37.2329   31.4059   50.9834 H   0  0  0  0  0  0  0  0  0  0  0  0
   38.6597   33.3662   50.3313 H   0  0  0  0  0  0  0  0  0  0  0  0
   40.7942   30.4231   46.4508 H   0  0  0  0  0  0  0  0  0  0  0  0
   41.6103   30.7285   44.1169 H   0  0  0  0  0  0  0  0  0  0  0  0
   38.4781   33.4118   43.1972 H   0  0  0  0  0  0  0  0  0  0  0  0
  2  3  1  0
  3  1  1  0
  4  3  1  0
  5  4  1  0
  6  5  1  0
  6  7  1  0
  7  2  1  0
  8  7  1  0
  9  1  1  0
  9 10  2  0
 11 10  1  0
 12 11  2  0
 13 14  2  0
 13 12  1  0
 14  9  1  0
 15 13  1  0
 16 15  2  0
 17 16  1  0
 18 19  1  0
 18 17  2  0
 19 20  2  0
 20 15  1  0
  2 21  1  0
  3 22  1  1
  4 23  1  0
  4 24  1  0
  6 25  1  0
  6 26  1  0
  7 27  1  1
  8 28  1  0
 10 29  1  0
 11 30  1  0
 16 31  1  0
 17 32  1  0
 19 33  1  0
M  ISO  8  21   5  22  13  23  13  24  13  25  13  26  13  27  13  28   3
M  ISO  5  29  14  30  14  31  14  32  14  33  14
M  END
>  <minimizedAffinity>  (1) 
-5.82726431

>  <minimizedRMSD>  (1) 
0.763017952

$$$$
