
     RDKit          3D

 34 36  0  0  1  0  0  0  0  0999 V2000
   33.6760   29.2180   48.6250 C   0  0  1  0  0  0  0  0  0  0  0  0
   33.5550   29.7180   47.2450 C   0  0  0  0  0  0  0  0  0  0  0  0
   34.0920   28.8380   46.1530 C   0  0  0  0  0  0  0  0  0  0  0  0
   33.9030   27.3800   46.3610 C   0  0  0  0  0  0  0  0  0  0  0  0
   34.0420   26.8660   47.7460 C   0  0  0  0  0  0  0  0  0  0  0  0
   33.3910   27.7640   48.7560 C   0  0  2  0  0  0  0  0  0  0  0  0
   35.8180   30.6010   48.8380 C   0  0  0  0  0  0  0  0  0  0  0  0
   34.8970   29.6470   49.3430 C   0  0  0  0  0  0  0  0  0  0  0  0
   35.1820   29.1160   50.5850 C   0  0  0  0  0  0  0  0  0  0  0  0
   36.2920   29.5100   51.2590 N   0  0  0  0  0  0  0  0  0  0  0  0
   37.1450   30.4280   50.7340 C   0  0  0  0  0  0  0  0  0  0  0  0
   36.8990   30.9740   49.5130 N   0  0  0  0  0  0  0  0  0  0  0  0
   31.8900   27.5780   48.7050 C   0  0  0  0  0  0  0  0  0  0  0  0
   31.3460   26.7830   47.6890 C   0  0  0  0  0  0  0  0  0  0  0  0
   29.9690   26.5600   47.5660 C   0  0  0  0  0  0  0  0  0  0  0  0
   29.1580   27.1420   48.4680 N   0  0  0  0  0  0  0  0  0  0  0  0
   29.6770   27.9130   49.4540 C   0  0  0  0  0  0  0  0  0  0  0  0
   30.9820   28.1050   49.5440 N   0  0  0  0  0  0  0  0  0  0  0  0
   32.8638   29.7309   49.1610 H   0  0  0  0  0  0  0  0  0  0  0  0
   32.4861   29.8822   47.0438 H   0  0  0  0  0  0  0  0  0  0  0  0
   34.1766   30.6250   47.2135 H   0  0  0  0  0  0  0  0  0  0  0  0
   35.1710   29.0309   46.0611 H   0  0  0  0  0  0  0  0  0  0  0  0
   33.5196   29.0925   45.2488 H   0  0  0  0  0  0  0  0  0  0  0  0
   32.8906   27.1254   46.0142 H   0  0  0  0  0  0  0  0  0  0  0  0
   34.7227   26.9065   45.8007 H   0  0  0  0  0  0  0  0  0  0  0  0
   33.5739   25.8722   47.8029 H   0  0  0  0  0  0  0  0  0  0  0  0
   35.1156   26.8192   47.9807 H   0  0  0  0  0  0  0  0  0  0  0  0
   33.8328   27.4553   49.7149 H   0  0  0  0  0  0  0  0  0  0  0  0
   35.6295   31.0481   47.8508 H   0  0  0  0  0  0  0  0  0  0  0  0
   34.5066   28.3705   51.0301 H   0  0  0  0  0  0  0  0  0  0  0  0
   38.0387   30.7310   51.2992 H   0  0  0  0  0  0  0  0  0  0  0  0
   32.0253   26.3163   46.9605 H   0  0  0  0  0  0  0  0  0  0  0  0
   29.5644   25.9306   46.7597 H   0  0  0  0  0  0  0  0  0  0  0  0
   29.0057   28.3840   50.1871 H   0  0  0  0  0  0  0  0  0  0  0  0
  1  6  1  0
  1  8  1  0
  2  1  1  0
  3  4  1  0
  3  2  1  0
  4  5  1  0
  5  6  1  0
  7  8  2  0
  7 12  1  0
  8  9  1  0
  9 10  2  0
 11 10  1  0
 12 11  2  0
 13  6  1  0
 13 18  1  0
 14 13  2  0
 15 14  1  0
 15 16  2  0
 16 17  1  0
 17 18  2  0
  1 19  1  1
  2 20  1  0
  2 21  1  0
  3 22  1  0
  3 23  1  0
  4 24  1  0
  4 25  1  0
  5 26  1  0
  5 27  1  0
  6 28  1  1
  7 29  1  0
  9 30  1  0
 11 31  1  0
 14 32  1  0
 15 33  1  0
 17 34  1  0
M  ISO  8  19  13  20  13  21  13  22  13  23  13  24  13  25  13  26  13
M  ISO  8  27  13  28  13  29  14  30  14  31  14  32  14  33  14  34  14
M  END
>  <minimizedAffinity>  (1) 
-4.73953247

>  <minimizedRMSD>  (1) 
1.67888224

$$$$
