
     RDKit          3D

 27 29  0  0  0  0  0  0  0  0999 V2000
   37.9930   31.9250   49.1040 C   0  0  0  0  0  0  0  0  0  0  0  0
   38.5140   33.0680   49.6690 C   0  0  0  0  0  0  0  0  0  0  0  0
   39.3410   33.9640   49.0170 C   0  0  0  0  0  0  0  0  0  0  0  0
   39.6840   33.7190   47.7050 C   0  0  0  0  0  0  0  0  0  0  0  0
   39.1540   32.5640   47.1420 C   0  0  0  0  0  0  0  0  0  0  0  0
   38.3590   31.7370   47.8270 N   0  0  0  0  0  0  0  0  0  0  0  0
   37.4700   30.3750   51.0180 C   0  0  0  0  0  0  0  0  0  0  0  0
   37.1340   31.0160   49.8190 C   0  0  0  0  0  0  0  0  0  0  0  0
   35.8750   30.7600   49.2710 C   0  0  0  0  0  0  0  0  0  0  0  0
   35.0470   29.8930   49.9470 N   0  0  0  0  0  0  0  0  0  0  0  0
   35.4170   29.3040   51.0930 C   0  0  0  0  0  0  0  0  0  0  0  0
   36.6240   29.5360   51.6380 N   0  0  0  0  0  0  0  0  0  0  0  0
   39.5210   32.3090   45.7490 C   0  0  0  0  0  0  0  0  0  0  0  0
   40.3160   31.1880   45.4820 C   0  0  0  0  0  0  0  0  0  0  0  0
   40.6720   30.9300   44.1740 C   0  0  0  0  0  0  0  0  0  0  0  0
   40.2410   31.7640   43.2330 N   0  0  0  0  0  0  0  0  0  0  0  0
   39.4710   32.8480   43.5180 C   0  0  0  0  0  0  0  0  0  0  0  0
   39.1100   33.1190   44.7840 N   0  0  0  0  0  0  0  0  0  0  0  0
   38.2531   33.2838   50.7156 H   0  0  0  0  0  0  0  0  0  0  0  0
   39.7186   34.8570   49.5366 H   0  0  0  0  0  0  0  0  0  0  0  0
   40.3382   34.3970   47.1372 H   0  0  0  0  0  0  0  0  0  0  0  0
   38.4568   30.5644   51.4656 H   0  0  0  0  0  0  0  0  0  0  0  0
   35.5562   31.2350   48.3314 H   0  0  0  0  0  0  0  0  0  0  0  0
   34.7201   28.6181   51.5969 H   0  0  0  0  0  0  0  0  0  0  0  0
   40.6493   30.5279   46.2964 H   0  0  0  0  0  0  0  0  0  0  0  0
   41.2941   30.0598   43.9176 H   0  0  0  0  0  0  0  0  0  0  0  0
   39.1402   33.5099   42.7041 H   0  0  0  0  0  0  0  0  0  0  0  0
  1  2  2  0
  1  8  1  0
  3  2  1  0
  4  3  2  0
  5  4  1  0
  5  6  2  0
  6  1  1  0
  7 12  2  0
  8  7  1  0
  9  8  2  0
  9 10  1  0
 10 11  2  0
 11 12  1  0
 13  5  1  0
 14 13  2  0
 15 14  1  0
 16 17  1  0
 16 15  2  0
 17 18  2  0
 18 13  1  0
  2 19  1  0
  3 20  1  0
  4 21  1  0
  7 22  1  0
  9 23  1  0
 11 24  1  0
 14 25  1  0
 15 26  1  0
 17 27  1  0
M  ISO  8  19  14  20  14  21  14  22  14  23  14  24  14  25  14  26  14
M  ISO  1  27  14
M  END
>  <minimizedAffinity>  (1) 
-6.26449776

>  <minimizedRMSD>  (1) 
0.445813119

$$$$
