
     RDKit          3D

 41 44  0  0  0  0  0  0  0  0999 V2000
   34.5320   29.4140   50.3480 C   0  0  0  0  0  0  0  0  0  0  0  0
   35.8650   30.0510   50.2690 C   0  0  0  0  0  0  0  0  0  0  0  0
   36.8490   29.8330   51.2420 C   0  0  0  0  0  0  0  0  0  0  0  0
   37.9540   30.5480   50.8980 C   0  0  0  0  0  0  0  0  0  0  0  0
   37.6650   31.1820   49.7580 N   0  0  0  0  0  0  0  0  0  0  0  0
   36.4260   30.8680   49.4120 N   0  0  0  0  0  0  0  0  0  0  0  0
   38.4200   32.0650   48.9300 C   0  0  0  0  0  0  0  0  0  0  0  0
   38.7980   33.2590   49.5330 C   0  0  0  0  0  0  0  0  0  0  0  0
   39.5420   34.2310   48.8570 C   0  0  0  0  0  0  0  0  0  0  0  0
   39.8920   33.9530   47.5440 C   0  0  0  0  0  0  0  0  0  0  0  0
   39.5150   32.7700   46.9560 C   0  0  0  0  0  0  0  0  0  0  0  0
   38.7810   31.8150   47.6290 C   0  0  0  0  0  0  0  0  0  0  0  0
   34.3790   28.2630   49.4340 C   0  0  0  0  0  0  0  0  0  0  0  0
   33.8230   28.4810   48.1300 C   0  0  0  0  0  0  0  0  0  0  0  0
   32.5750   27.9990   47.8330 C   0  0  0  0  0  0  0  0  0  0  0  0
   32.0120   28.2040   46.5510 C   0  0  0  0  0  0  0  0  0  0  0  0
   32.7920   28.9050   45.6570 N   0  0  0  0  0  0  0  0  0  0  0  0
   34.0200   29.3580   46.0090 C   0  0  0  0  0  0  0  0  0  0  0  0
   34.5360   29.1520   47.2320 N   0  0  0  0  0  0  0  0  0  0  0  0
   34.8040   30.0950   45.0200 C   0  0  0  0  0  0  0  0  0  0  0  0
   36.1470   30.3330   45.2150 C   0  0  0  0  0  0  0  0  0  0  0  0
   36.9450   31.0200   44.3240 C   0  0  0  0  0  0  0  0  0  0  0  0
   36.3390   31.4670   43.2170 N   0  0  0  0  0  0  0  0  0  0  0  0
   35.0210   31.2610   42.9790 C   0  0  0  0  0  0  0  0  0  0  0  0
   34.2790   30.5790   43.8850 N   0  0  0  0  0  0  0  0  0  0  0  0
   34.3725   29.0648   51.3788 H   0  0  0  0  0  0  0  0  0  0  0  0
   33.7915   30.1697   50.0470 H   0  0  0  0  0  0  0  0  0  0  0  0
   36.7459   29.1937   52.1312 H   0  0  0  0  0  0  0  0  0  0  0  0
   38.9031   30.5951   51.4520 H   0  0  0  0  0  0  0  0  0  0  0  0
   38.5022   33.4453   50.5760 H   0  0  0  0  0  0  0  0  0  0  0  0
   39.8361   35.1725   49.3440 H   0  0  0  0  0  0  0  0  0  0  0  0
   40.4764   34.6860   46.9686 H   0  0  0  0  0  0  0  0  0  0  0  0
   39.8082   32.5776   45.9134 H   0  0  0  0  0  0  0  0  0  0  0  0
   38.4919   30.8756   47.1350 H   0  0  0  0  0  0  0  0  0  0  0  0
   35.3800   27.8305   49.2896 H   0  0  0  0  0  0  0  0  0  0  0  0
   33.6361   27.6248   49.9348 H   0  0  0  0  0  0  0  0  0  0  0  0
   32.0065   27.4485   48.5970 H   0  0  0  0  0  0  0  0  0  0  0  0
   31.0135   27.8271   46.2846 H   0  0  0  0  0  0  0  0  0  0  0  0
   36.6108   29.9522   46.1369 H   0  0  0  0  0  0  0  0  0  0  0  0
   38.0154   31.1904   44.5118 H   0  0  0  0  0  0  0  0  0  0  0  0
   34.5572   31.6442   42.0581 H   0  0  0  0  0  0  0  0  0  0  0  0
  2  1  1  0
  2  3  1  0
  4  3  2  0
  5  4  1  0
  6  5  1  0
  6  2  2  0
  7  8  2  0
  7  5  1  0
  9  8  1  0
 10  9  2  0
 11 10  1  0
 11 12  2  0
 12  7  1  0
 13  1  1  0
 14 13  1  0
 15 14  2  0
 16 15  1  0
 17 18  1  0
 17 16  2  0
 18 19  2  0
 19 14  1  0
 20 21  2  0
 20 18  1  0
 22 21  1  0
 23 22  2  0
 24 23  1  0
 24 25  2  0
 25 20  1  0
  1 26  1  0
  1 27  1  0
  3 28  1  0
  4 29  1  0
  8 30  1  0
  9 31  1  0
 10 32  1  0
 11 33  1  0
 12 34  1  0
 13 35  1  0
 13 36  1  0
 15 37  1  0
 16 38  1  0
 21 39  1  0
 22 40  1  0
 24 41  1  0
M  ISO  8  26   8  27   8  28  14  29  14  30  14  31  14  32  14  33  14
M  ISO  8  34  14  35   8  36   8  37  14  38  14  39  14  40  14  41  14
M  END
>  <minimizedAffinity>  (1) 
-6.17351246

>  <minimizedRMSD>  (1) 
1.77635038

$$$$
