
     RDKit          3D

 34 36  0  0  0  0  0  0  0  0999 V2000
   35.5200   30.3000   49.8180 C   0  0  0  0  0  0  0  0  0  0  0  0
   36.4400   31.2160   49.0380 C   0  0  0  0  0  0  0  0  0  0  0  0
   37.8910   30.8550   49.1740 C   0  0  0  0  0  0  0  0  0  0  0  0
   38.3400   30.7670   50.6080 C   0  0  0  0  0  0  0  0  0  0  0  0
   37.3350   30.1210   51.5120 C   0  0  0  0  0  0  0  0  0  0  0  0
   36.2570   29.3880   50.7390 C   0  0  0  0  0  0  0  0  0  0  0  0
   34.7440   29.4430   48.8700 C   0  0  0  0  0  0  0  0  0  0  0  0
   34.1430   30.1050   47.7750 C   0  0  0  0  0  0  0  0  0  0  0  0
   33.4170   29.3280   46.8870 C   0  0  0  0  0  0  0  0  0  0  0  0
   33.3070   27.9660   47.0970 N   0  0  0  0  0  0  0  0  0  0  0  0
   33.9080   27.3740   48.1750 C   0  0  0  0  0  0  0  0  0  0  0  0
   34.6100   28.1050   49.0390 N   0  0  0  0  0  0  0  0  0  0  0  0
   32.7330   29.8360   45.7060 C   0  0  0  0  0  0  0  0  0  0  0  0
   32.1750   31.0950   45.6470 C   0  0  0  0  0  0  0  0  0  0  0  0
   31.5180   31.6150   44.5460 C   0  0  0  0  0  0  0  0  0  0  0  0
   31.4120   30.8290   43.4360 N   0  0  0  0  0  0  0  0  0  0  0  0
   31.9630   29.5830   43.4900 C   0  0  0  0  0  0  0  0  0  0  0  0
   32.5920   29.1160   44.5800 N   0  0  0  0  0  0  0  0  0  0  0  0
   34.8653   30.9518   50.4151 H   0  0  0  0  0  0  0  0  0  0  0  0
   36.3002   32.2444   49.4026 H   0  0  0  0  0  0  0  0  0  0  0  0
   36.1768   31.1143   47.9748 H   0  0  0  0  0  0  0  0  0  0  0  0
   38.0566   29.8794   48.6937 H   0  0  0  0  0  0  0  0  0  0  0  0
   38.4764   31.6523   48.6928 H   0  0  0  0  0  0  0  0  0  0  0  0
   39.2698   30.1805   50.6460 H   0  0  0  0  0  0  0  0  0  0  0  0
   38.4809   31.7975   50.9660 H   0  0  0  0  0  0  0  0  0  0  0  0
   37.8545   29.4026   52.1632 H   0  0  0  0  0  0  0  0  0  0  0  0
   36.8493   30.9147   52.0986 H   0  0  0  0  0  0  0  0  0  0  0  0
   35.5435   28.9490   51.4519 H   0  0  0  0  0  0  0  0  0  0  0  0
   36.7408   28.6076   50.1332 H   0  0  0  0  0  0  0  0  0  0  0  0
   34.2474   31.1909   47.6340 H   0  0  0  0  0  0  0  0  0  0  0  0
   33.8107   26.2891   48.3284 H   0  0  0  0  0  0  0  0  0  0  0  0
   32.2580   31.7323   46.5397 H   0  0  0  0  0  0  0  0  0  0  0  0
   31.0945   32.6300   44.5651 H   0  0  0  0  0  0  0  0  0  0  0  0
   31.8891   28.9343   42.6047 H   0  0  0  0  0  0  0  0  0  0  0  0
  1  6  1  0
  2  3  1  0
  2  1  1  0
  3  4  1  0
  4  5  1  0
  6  5  1  0
  7 12  1  0
  7  1  1  0
  8  7  2  0
  9 10  2  0
  9  8  1  0
 10 11  1  0
 11 12  2  0
 13  9  1  0
 14 13  2  0
 15 14  1  0
 16 17  1  0
 16 15  2  0
 17 18  2  0
 18 13  1  0
  1 19  1  0
  2 20  1  0
  2 21  1  0
  3 22  1  0
  3 23  1  0
  4 24  1  0
  4 25  1  0
  5 26  1  0
  5 27  1  0
  6 28  1  0
  6 29  1  0
  8 30  1  0
 11 31  1  0
 14 32  1  0
 15 33  1  0
 17 34  1  0
M  ISO  8  19  13  20  13  21  13  22  13  23  13  24  13  25  13  26  13
M  ISO  8  27  13  28  13  29  13  30  14  31  14  32  14  33  14  34  14
M  END
>  <minimizedAffinity>  (1) 
-5.26176405

>  <minimizedRMSD>  (1) 
0.395625532

$$$$
