
     RDKit          3D

 30 32  0  0  0  0  0  0  0  0999 V2000
   37.5930   30.3200   51.0570 C   0  0  0  0  0  0  0  0  0  0  0  0
   38.0510   30.8860   49.8480 C   0  0  0  0  0  0  0  0  0  0  0  0
   37.3290   30.5710   48.6930 C   0  0  0  0  0  0  0  0  0  0  0  0
   36.2540   29.7580   48.8010 N   0  0  0  0  0  0  0  0  0  0  0  0
   35.8370   29.2320   49.9590 C   0  0  0  0  0  0  0  0  0  0  0  0
   36.5160   29.5190   51.0950 N   0  0  0  0  0  0  0  0  0  0  0  0
   37.6980   31.0700   47.3840 C   0  0  0  0  0  0  0  0  0  0  0  0
   36.9820   30.7340   46.2600 C   0  0  0  0  0  0  0  0  0  0  0  0
   37.3050   31.1780   44.9960 C   0  0  0  0  0  0  0  0  0  0  0  0
   38.3770   31.9880   44.8400 N   0  0  0  0  0  0  0  0  0  0  0  0
   39.0720   32.3120   45.9420 C   0  0  0  0  0  0  0  0  0  0  0  0
   38.7610   31.8810   47.1790 N   0  0  0  0  0  0  0  0  0  0  0  0
   40.2490   33.1970   45.8030 C   0  0  0  0  0  0  0  0  0  0  0  0
   40.3530   33.9450   46.9860 F   0  0  0  0  0  0  0  0  0  0  0  0
   41.4000   32.4900   45.5590 F   0  0  0  0  0  0  0  0  0  0  0  0
   40.0770   34.1250   44.8000 F   0  0  0  0  0  0  0  0  0  0  0  0
   34.7470   28.4290   49.9410 O   0  0  0  0  0  0  0  0  0  0  0  0
   34.0000   27.8940   48.9800 C   0  0  0  0  0  0  0  0  0  0  0  0
   34.1840   27.1440   47.8400 C   0  0  0  0  0  0  0  0  0  0  0  0
   33.1810   26.7150   47.0000 C   0  0  0  0  0  0  0  0  0  0  0  0
   31.9320   27.0630   47.3350 N   0  0  0  0  0  0  0  0  0  0  0  0
   31.7100   27.7950   48.4410 C   0  0  0  0  0  0  0  0  0  0  0  0
   32.7140   28.2170   49.2700 N   0  0  0  0  0  0  0  0  0  0  0  0
   38.1313   30.5403   51.9907 H   0  0  0  0  0  0  0  0  0  0  0  0
   38.9328   31.5428   49.8160 H   0  0  0  0  0  0  0  0  0  0  0  0
   36.1069   30.0775   46.3751 H   0  0  0  0  0  0  0  0  0  0  0  0
   36.7004   30.8783   44.1273 H   0  0  0  0  0  0  0  0  0  0  0  0
   35.2156   26.8651   47.5793 H   0  0  0  0  0  0  0  0  0  0  0  0
   33.3944   26.1179   46.1011 H   0  0  0  0  0  0  0  0  0  0  0  0
   30.6739   28.0671   48.6909 H   0  0  0  0  0  0  0  0  0  0  0  0
  1  6  2  0
  2  1  1  0
  3  4  1  0
  3  2  2  0
  4  5  2  0
  5  6  1  0
  7  3  1  0
  8  7  2  0
  9  8  1  0
 10  9  2  0
 10 11  1  0
 11 12  2  0
 12  7  1  0
 13 11  1  0
 13 14  1  0
 15 13  1  0
 16 13  1  0
 17  5  1  0
 18 23  1  0
 18 17  1  0
 19 18  2  0
 20 21  2  0
 20 19  1  0
 21 22  1  0
 22 23  2  0
  1 24  1  0
  2 25  1  0
  8 26  1  0
  9 27  1  0
 19 28  1  0
 20 29  1  0
 22 30  1  0
M  ISO  7  24  14  25  14  26  14  27  14  28  14  29  14  30  14
M  END
>  <minimizedAffinity>  (1) 
-6.54421186

>  <minimizedRMSD>  (1) 
0.426583022

$$$$
