
     RDKit          3D

 28 30  0  0  0  0  0  0  0  0999 V2000
   37.4140   31.1120   48.5590 C   0  0  0  0  0  0  0  0  0  0  0  0
   36.3650   30.8470   47.7340 C   0  0  0  0  0  0  0  0  0  0  0  0
   35.4750   29.8130   47.9310 C   0  0  0  0  0  0  0  0  0  0  0  0
   35.6010   28.9740   48.9930 C   0  0  0  0  0  0  0  0  0  0  0  0
   36.6850   29.2620   49.8290 C   0  0  0  0  0  0  0  0  0  0  0  0
   37.5540   30.2790   49.6280 N   0  0  0  0  0  0  0  0  0  0  0  0
   39.0670   32.3970   47.1530 C   0  0  0  0  0  0  0  0  0  0  0  0
   38.3480   32.2000   48.3450 C   0  0  0  0  0  0  0  0  0  0  0  0
   38.5630   33.1100   49.3580 C   0  0  0  0  0  0  0  0  0  0  0  0
   39.4450   34.1370   49.1520 N   0  0  0  0  0  0  0  0  0  0  0  0
   40.1020   34.2780   47.9990 C   0  0  0  0  0  0  0  0  0  0  0  0
   39.9210   33.4030   46.9750 N   0  0  0  0  0  0  0  0  0  0  0  0
   34.8360   27.8900   49.3780 O   0  0  0  0  0  0  0  0  0  0  0  0
   33.6210   27.6550   48.7760 C   0  0  0  0  0  0  0  0  0  0  0  0
   33.8580   26.7230   47.7550 C   0  0  0  0  0  0  0  0  0  0  0  0
   32.8320   26.2470   46.9240 C   0  0  0  0  0  0  0  0  0  0  0  0
   31.5810   26.7240   47.1430 N   0  0  0  0  0  0  0  0  0  0  0  0
   31.3430   27.6190   48.1190 C   0  0  0  0  0  0  0  0  0  0  0  0
   32.3510   28.0390   48.8820 N   0  0  0  0  0  0  0  0  0  0  0  0
   36.2185   31.4962   46.8582 H   0  0  0  0  0  0  0  0  0  0  0  0
   34.6505   29.6646   47.2181 H   0  0  0  0  0  0  0  0  0  0  0  0
   36.8410   28.6191   50.7078 H   0  0  0  0  0  0  0  0  0  0  0  0
   38.9168   31.6857   46.3275 H   0  0  0  0  0  0  0  0  0  0  0  0
   38.0339   33.0126   50.3175 H   0  0  0  0  0  0  0  0  0  0  0  0
   40.8023   35.1172   47.8753 H   0  0  0  0  0  0  0  0  0  0  0  0
   34.8822   26.3528   47.6004 H   0  0  0  0  0  0  0  0  0  0  0  0
   33.0341   25.5163   46.1270 H   0  0  0  0  0  0  0  0  0  0  0  0
   30.3248   28.0006   48.2855 H   0  0  0  0  0  0  0  0  0  0  0  0
  1  6  2  0
  2  3  2  0
  2  1  1  0
  3  4  1  0
  4 13  1  0
  4  5  2  0
  6  5  1  0
  7  8  2  0
  8  1  1  0
  8  9  1  0
 10  9  2  0
 11 10  1  0
 12  7  1  0
 12 11  2  0
 14 19  1  0
 14 13  1  0
 15 14  2  0
 16 17  2  0
 16 15  1  0
 17 18  1  0
 18 19  2  0
  2 20  1  0
  3 21  1  0
  5 22  1  0
  7 23  1  0
  9 24  1  0
 11 25  1  0
 15 26  1  0
 16 27  1  0
 18 28  1  0
M  ISO  8  20  14  21  14  22  14  23  14  24  14  25  14  26  14  27  14
M  ISO  1  28  14
M  END
>  <minimizedAffinity>  (1) 
-5.23771429

>  <minimizedRMSD>  (1) 
8.55624294

$$$$
