
     RDKit          3D

 21 22  0  0  0  0  0  0  0  0999 V2000
   38.5210   33.4920   49.4440 Cl  0  0  0  0  0  0  0  0  0  0  0  0
   38.8310   32.5790   47.9940 C   0  0  0  0  0  0  0  0  0  0  0  0
   38.1690   31.3790   47.9450 C   0  0  0  0  0  0  0  0  0  0  0  0
   38.3480   30.5590   46.8160 C   0  0  0  0  0  0  0  0  0  0  0  0
   39.1560   30.9350   45.7830 C   0  0  0  0  0  0  0  0  0  0  0  0
   39.8070   32.1420   45.8550 C   0  0  0  0  0  0  0  0  0  0  0  0
   40.8480   32.6500   44.5520 Cl  0  0  0  0  0  0  0  0  0  0  0  0
   39.6410   32.9370   46.9400 C   0  0  0  0  0  0  0  0  0  0  0  0
   37.8320   30.0930   50.0290 C   0  0  0  0  0  0  0  0  0  0  0  0
   37.2560   30.7700   48.9290 C   0  0  0  0  0  0  0  0  0  0  0  0
   35.8700   30.8240   48.8360 C   0  0  0  0  0  0  0  0  0  0  0  0
   35.1350   30.2230   49.8070 N   0  0  0  0  0  0  0  0  0  0  0  0
   35.7170   29.5810   50.8500 C   0  0  0  0  0  0  0  0  0  0  0  0
   37.0620   29.5170   50.9570 N   0  0  0  0  0  0  0  0  0  0  0  0
   34.9510   28.9770   51.8260 O   0  0  0  0  0  0  0  0  0  0  0  0
   37.8247   29.5928   46.7649 H   0  0  0  0  0  0  0  0  0  0  0  0
   39.2839   30.2822   44.9070 H   0  0  0  0  0  0  0  0  0  0  0  0
   40.1710   33.9001   46.9798 H   0  0  0  0  0  0  0  0  0  0  0  0
   38.9268   30.0399   50.1218 H   0  0  0  0  0  0  0  0  0  0  0  0
   35.3809   31.3406   47.9970 H   0  0  0  0  0  0  0  0  0  0  0  0
   35.3894   28.5117   52.5820 H   0  0  0  0  0  0  0  0  0  0  0  0
  2  1  1  0
  3  2  2  0
  3 10  1  0
  4  3  1  0
  5  6  1  0
  5  4  2  0
  6  8  2  0
  7  6  1  0
  8  2  1  0
  9 14  2  0
 10  9  1  0
 11 10  2  0
 11 12  1  0
 12 13  2  0
 13 14  1  0
 13 15  1  0
  4 16  1  0
  5 17  1  0
  8 18  1  0
  9 19  1  0
 11 20  1  0
 15 21  1  0
M  ISO  6  16  14  17  14  18  14  19  14  20  14  21   3
M  END
>  <minimizedAffinity>  (1) 
-5.55048084

>  <minimizedRMSD>  (1) 
0.208453432

$$$$
