
     RDKit          3D

 31 32  0  0  1  0  0  0  0  0999 V2000
   36.1040   30.6840   49.0610 C   0  0  2  0  0  0  0  0  0  0  0  0
   37.0520   31.6180   49.7500 C   0  0  0  0  0  0  0  0  0  0  0  0
   38.0520   30.9000   50.6290 C   0  0  0  0  0  0  0  0  0  0  0  0
   37.3370   30.0280   51.6580 C   0  0  0  0  0  0  0  0  0  0  0  0
   36.0780   29.3790   51.1400 C   0  0  0  0  0  0  0  0  0  0  0  0
   36.1830   29.2970   49.6040 C   0  0  1  0  0  0  0  0  0  0  0  0
   36.3640   30.6440   47.5980 C   0  0  0  0  0  0  0  0  0  0  0  0
   37.6330   31.0970   47.1930 C   0  0  0  0  0  0  0  0  0  0  0  0
   37.8980   31.0630   45.8200 C   0  0  0  0  0  0  0  0  0  0  0  0
   36.9240   30.5970   44.9630 N   0  0  0  0  0  0  0  0  0  0  0  0
   35.7020   30.1660   45.4150 C   0  0  0  0  0  0  0  0  0  0  0  0
   35.4450   30.1990   46.7340 N   0  0  0  0  0  0  0  0  0  0  0  0
   33.9020   28.2560   49.1830 C   0  0  0  0  0  0  0  0  0  0  0  0
   33.0890   28.9420   49.8680 O   0  0  0  0  0  0  0  0  0  0  0  0
   35.3070   28.3620   48.9940 N   0  0  0  0  0  0  0  0  0  0  0  0
   33.1470   27.2630   48.5620 O   0  0  0  0  0  0  0  0  0  0  0  0
   35.0935   31.0757   49.2494 H   0  0  0  0  0  0  0  0  0  0  0  0
   37.6016   32.1870   48.9857 H   0  0  0  0  0  0  0  0  0  0  0  0
   36.4544   32.2751   50.3990 H   0  0  0  0  0  0  0  0  0  0  0  0
   38.6942   30.2648   50.0011 H   0  0  0  0  0  0  0  0  0  0  0  0
   38.6582   31.6488   51.1599 H   0  0  0  0  0  0  0  0  0  0  0  0
   38.0281   29.2351   51.9801 H   0  0  0  0  0  0  0  0  0  0  0  0
   37.0383   30.6894   52.4846 H   0  0  0  0  0  0  0  0  0  0  0  0
   35.9780   28.3681   51.5620 H   0  0  0  0  0  0  0  0  0  0  0  0
   35.1959   29.9676   51.4324 H   0  0  0  0  0  0  0  0  0  0  0  0
   37.1599   28.8681   49.3363 H   0  0  0  0  0  0  0  0  0  0  0  0
   38.3773   31.4587   47.9177 H   0  0  0  0  0  0  0  0  0  0  0  0
   38.8688   31.4029   45.4301 H   0  0  0  0  0  0  0  0  0  0  0  0
   34.9436   29.7987   44.7080 H   0  0  0  0  0  0  0  0  0  0  0  0
   35.7353   27.6873   48.3442 H   0  0  0  0  0  0  0  0  0  0  0  0
   33.5878   26.6040   47.9692 H   0  0  0  0  0  0  0  0  0  0  0  0
  1  6  1  0
  1  2  1  0
  2  3  1  0
  3  4  1  0
  5  4  1  0
  6  5  1  0
  7  1  1  0
  8  7  2  0
  9  8  1  0
 10 11  1  0
 10  9  2  0
 11 12  2  0
 12  7  1  0
 13 14  2  0
 15 13  1  0
 15  6  1  0
 16 13  1  0
  1 17  1  6
  2 18  1  0
  2 19  1  0
  3 20  1  0
  3 21  1  0
  4 22  1  0
  4 23  1  0
  5 24  1  0
  5 25  1  0
  6 26  1  1
  8 27  1  0
  9 28  1  0
 11 29  1  0
 15 30  1  0
 16 31  1  0
M  ISO  8  17  13  18  13  19  13  20  13  21  13  22  13  23  13  24  13
M  ISO  6  25  13  26  13  27  14  28  14  29  14  31   3
M  END
>  <minimizedAffinity>  (1) 
-5.38858032

>  <minimizedRMSD>  (1) 
0.063708365

$$$$
