
     RDKit          3D

 44 46  0  0  1  0  0  0  0  0999 V2000
   33.5620   28.4810   48.0280 C   0  0  0  0  0  0  0  0  0  0  0  0
   34.9650   30.6900   47.0970 F   0  0  0  0  0  0  0  0  0  0  0  0
   35.2880   30.0980   48.3000 C   0  0  0  0  0  0  0  0  0  0  0  0
   34.6070   28.9890   48.8300 C   0  0  0  0  0  0  0  0  0  0  0  0
   35.0720   28.5830   50.0010 C   0  0  0  0  0  0  0  0  0  0  0  0
   36.1120   29.1470   50.6760 C   0  0  0  0  0  0  0  0  0  0  0  0
   36.7940   30.2450   50.1560 C   0  0  0  0  0  0  0  0  0  0  0  0
   36.3220   30.6530   48.9740 C   0  0  0  0  0  0  0  0  0  0  0  0
   37.9130   30.8470   50.8790 C   0  0  0  0  0  0  0  0  0  0  0  0
   37.0360   31.7900   48.4250 O   0  0  0  0  0  0  0  0  0  0  0  0
   38.1580   31.4980   47.7330 C   0  0  0  0  0  0  0  0  0  0  0  0
   39.0610   32.3960   47.8230 O   0  0  0  0  0  0  0  0  0  0  0  0
   38.5720   30.4340   46.9320 N   0  0  0  0  0  0  0  0  0  0  0  0
   32.3770   27.9190   48.7520 C   0  0  0  0  0  0  0  0  0  0  0  0
   30.0760   27.2680   48.2670 C   0  0  0  0  0  0  0  0  0  0  0  0
   31.4140   27.2390   47.9340 C   0  0  0  0  0  0  0  0  0  0  0  0
   31.7100   26.5670   46.8150 C   0  0  0  0  0  0  0  0  0  0  0  0
   30.7640   25.9650   46.0690 N   0  0  0  0  0  0  0  0  0  0  0  0
   29.4560   25.9760   46.3680 C   0  0  0  0  0  0  0  0  0  0  0  0
   29.1000   26.6290   47.4700 N   0  0  0  0  0  0  0  0  0  0  0  0
   29.5580   27.8930   49.5200 C   0  0  1  0  0  0  0  0  0  0  0  0
   28.6280   28.9960   49.4170 C   0  0  0  0  0  0  0  0  0  0  0  0
   28.1110   27.5700   49.7730 C   0  0  2  0  0  0  0  0  0  0  0  0
   27.6080   27.4930   51.1490 C   0  0  0  0  0  0  0  0  0  0  0  0
   26.4370   27.8120   51.3060 O   0  0  0  0  0  0  0  0  0  0  0  0
   28.4400   27.0780   52.1800 O   0  0  0  0  0  0  0  0  0  0  0  0
   33.9810   27.6804   47.4007 H   0  0  0  0  0  0  0  0  0  0  0  0
   33.1777   29.3462   47.4679 H   0  0  0  0  0  0  0  0  0  0  0  0
   34.5775   27.7184   50.4677 H   0  0  0  0  0  0  0  0  0  0  0  0
   36.4181   28.7292   51.6464 H   0  0  0  0  0  0  0  0  0  0  0  0
   37.7420   30.7550   51.9617 H   0  0  0  0  0  0  0  0  0  0  0  0
   38.8450   30.3285   50.6096 H   0  0  0  0  0  0  0  0  0  0  0  0
   37.9940   31.9104   50.6096 H   0  0  0  0  0  0  0  0  0  0  0  0
   37.9421   29.6352   46.7708 H   0  0  0  0  0  0  0  0  0  0  0  0
   39.5077   30.4470   46.5016 H   0  0  0  0  0  0  0  0  0  0  0  0
   32.7468   27.2053   49.5030 H   0  0  0  0  0  0  0  0  0  0  0  0
   31.8494   28.7837   49.1808 H   0  0  0  0  0  0  0  0  0  0  0  0
   32.7603   26.5043   46.4941 H   0  0  0  0  0  0  0  0  0  0  0  0
   28.7146   25.4696   45.7325 H   0  0  0  0  0  0  0  0  0  0  0  0
   30.5017   27.7961   50.0768 H   0  0  0  0  0  0  0  0  0  0  0  0
   28.6271   29.7880   50.1804 H   0  0  0  0  0  0  0  0  0  0  0  0
   28.3867   29.7408   48.6443 H   0  0  0  0  0  0  0  0  0  0  0  0
   27.4298   26.7982   49.3853 H   0  0  0  0  0  0  0  0  0  0  0  0
   28.0937   27.0285   53.1061 H   0  0  0  0  0  0  0  0  0  0  0  0
  1 14  1  0
  1  4  1  0
  2  3  1  0
  3  4  2  0
  3  8  1  0
  4  5  1  0
  5  6  2  0
  7  6  1  0
  7  9  1  0
  8  7  2  0
 10  8  1  0
 11 12  2  0
 11 10  1  0
 13 11  1  0
 15 21  1  0
 16 15  1  0
 16 14  1  0
 17 16  2  0
 18 19  2  0
 18 17  1  0
 19 20  1  0
 20 15  2  0
 21 23  1  0
 22 21  1  0
 22 23  1  0
 23 24  1  0
 24 25  2  0
 24 26  1  0
  1 27  1  0
  1 28  1  0
  5 29  1  0
  6 30  1  0
  9 31  1  0
  9 32  1  0
  9 33  1  0
 13 34  1  0
 13 35  1  0
 14 36  1  0
 14 37  1  0
 17 38  1  0
 19 39  1  0
 21 40  1  1
 22 41  1  0
 22 42  1  0
 23 43  1  6
 26 44  1  0
M  ISO  8  27   8  28   8  29  14  30  14  31   8  32   8  33   8  36   8
M  ISO  8  37   8  38  14  39  14  40  13  41  13  42  13  43  13  44   3
M  END
>  <minimizedAffinity>  (1) 
-6.50575256

>  <minimizedRMSD>  (1) 
0.545549989

$$$$
