
     RDKit          3D

 51 55  0  0  0  0  0  0  0  0999 V2000
   31.9900   28.1140   47.3850 N   0  0  0  0  0  0  0  0  0  0  0  0
   32.2930   27.7730   48.7310 C   0  0  0  0  0  0  0  0  0  0  0  0
   33.5260   28.3670   49.3020 C   0  0  0  0  0  0  0  0  0  0  0  0
   34.6860   28.4520   48.4150 C   0  0  0  0  0  0  0  0  0  0  0  0
   34.2810   28.7460   46.9590 C   0  0  0  0  0  0  0  0  0  0  0  0
   33.1450   27.7780   46.5980 C   0  0  0  0  0  0  0  0  0  0  0  0
   30.7840   28.6780   46.8610 C   0  0  0  0  0  0  0  0  0  0  0  0
   30.5980   29.1520   45.5650 C   0  0  0  0  0  0  0  0  0  0  0  0
   29.3330   29.6630   45.2590 C   0  0  0  0  0  0  0  0  0  0  0  0
   28.3670   29.6730   46.2210 N   0  0  0  0  0  0  0  0  0  0  0  0
   28.5960   29.2110   47.4410 C   0  0  0  0  0  0  0  0  0  0  0  0
   29.7830   28.7170   47.7710 N   0  0  0  0  0  0  0  0  0  0  0  0
   27.5200   29.2700   48.3630 N   0  0  0  0  0  0  0  0  0  0  0  0
   26.5620   28.1930   48.5170 C   0  0  0  0  0  0  0  0  0  0  0  0
   25.3560   28.6410   49.3120 C   0  0  0  0  0  0  0  0  0  0  0  0
   24.8980   29.8850   48.9710 O   0  0  0  0  0  0  0  0  0  0  0  0
   25.8370   30.8690   48.8180 C   0  0  0  0  0  0  0  0  0  0  0  0
   27.1800   30.3430   49.2750 C   0  0  0  0  0  0  0  0  0  0  0  0
   35.9030   29.7360   50.1140 C   0  0  0  0  0  0  0  0  0  0  0  0
   35.6570   29.5180   48.7670 C   0  0  0  0  0  0  0  0  0  0  0  0
   36.2340   30.2400   47.7580 C   0  0  0  0  0  0  0  0  0  0  0  0
   37.1200   31.2560   48.1180 C   0  0  0  0  0  0  0  0  0  0  0  0
   37.3670   31.4790   49.4510 C   0  0  0  0  0  0  0  0  0  0  0  0
   36.7810   30.7430   50.4790 C   0  0  0  0  0  0  0  0  0  0  0  0
   38.2760   32.5340   49.6030 O   0  0  0  0  0  0  0  0  0  0  0  0
   38.8280   32.7250   48.3060 C   0  0  0  0  0  0  0  0  0  0  0  0
   37.8860   32.1840   47.4120 O   0  0  0  0  0  0  0  0  0  0  0  0
   31.4467   28.0944   49.3559 H   0  0  0  0  0  0  0  0  0  0  0  0
   32.4689   26.6872   48.7240 H   0  0  0  0  0  0  0  0  0  0  0  0
   33.2826   29.3880   49.6311 H   0  0  0  0  0  0  0  0  0  0  0  0
   33.8289   27.6839   50.1093 H   0  0  0  0  0  0  0  0  0  0  0  0
   35.1530   27.4631   48.5337 H   0  0  0  0  0  0  0  0  0  0  0  0
   33.9334   29.7856   46.8673 H   0  0  0  0  0  0  0  0  0  0  0  0
   35.1372   28.6124   46.2815 H   0  0  0  0  0  0  0  0  0  0  0  0
   32.9047   27.8707   45.5286 H   0  0  0  0  0  0  0  0  0  0  0  0
   33.4530   26.7425   46.8050 H   0  0  0  0  0  0  0  0  0  0  0  0
   31.4060   29.1257   44.8191 H   0  0  0  0  0  0  0  0  0  0  0  0
   29.1195   30.0528   44.2528 H   0  0  0  0  0  0  0  0  0  0  0  0
   26.2321   27.8616   47.5214 H   0  0  0  0  0  0  0  0  0  0  0  0
   27.0493   27.3693   49.0592 H   0  0  0  0  0  0  0  0  0  0  0  0
   24.5447   27.9164   49.1485 H   0  0  0  0  0  0  0  0  0  0  0  0
   25.6693   28.6936   50.3651 H   0  0  0  0  0  0  0  0  0  0  0  0
   25.8961   31.1610   47.7591 H   0  0  0  0  0  0  0  0  0  0  0  0
   25.5573   31.7466   49.4192 H   0  0  0  0  0  0  0  0  0  0  0  0
   27.1110   29.9620   50.3046 H   0  0  0  0  0  0  0  0  0  0  0  0
   27.9450   31.1334   49.2703 H   0  0  0  0  0  0  0  0  0  0  0  0
   35.4092   29.1196   50.8797 H   0  0  0  0  0  0  0  0  0  0  0  0
   36.0079   30.0274   46.7027 H   0  0  0  0  0  0  0  0  0  0  0  0
   37.0061   30.9528   51.5351 H   0  0  0  0  0  0  0  0  0  0  0  0
   38.9767   33.7963   48.1057 H   0  0  0  0  0  0  0  0  0  0  0  0
   39.8104   32.2403   48.2057 H   0  0  0  0  0  0  0  0  0  0  0  0
  1  2  1  0
  2  3  1  0
  4 20  1  0
  4  3  1  0
  5  4  1  0
  6  5  1  0
  6  1  1  0
  7  1  1  0
  7 12  1  0
  8  7  2  0
  9  8  1  0
  9 10  2  0
 10 11  1  0
 11 12  2  0
 11 13  1  0
 13 14  1  0
 13 18  1  0
 14 15  1  0
 16 15  1  0
 17 16  1  0
 17 18  1  0
 19 24  2  0
 20 19  1  0
 21 22  1  0
 21 20  2  0
 22 23  2  0
 23 25  1  0
 23 24  1  0
 26 25  1  0
 27 22  1  0
 27 26  1  0
  2 28  1  0
  2 29  1  0
  3 30  1  0
  3 31  1  0
  4 32  1  0
  5 33  1  0
  5 34  1  0
  6 35  1  0
  6 36  1  0
  8 37  1  0
  9 38  1  0
 14 39  1  0
 14 40  1  0
 15 41  1  0
 15 42  1  0
 17 43  1  0
 17 44  1  0
 18 45  1  0
 18 46  1  0
 19 47  1  0
 21 48  1  0
 24 49  1  0
 26 50  1  0
 26 51  1  0
M  ISO  8  28  13  29  13  30  13  31  13  32  13  33  13  34  13  35  13
M  ISO  8  36  13  37  14  38  14  39  13  40  13  41  13  42  13  43  13
M  ISO  8  44  13  45  13  46  13  47  14  48  14  49  14  50  13  51  13
M  END
>  <minimizedAffinity>  (1) 
-8.13240623

>  <minimizedRMSD>  (1) 
1.44569898

$$$$
