
     RDKit          3D

 31 32  0  0  1  0  0  0  0  0999 V2000
   35.4020   29.7870   46.0770 O   0  0  0  0  0  0  0  0  0  0  0  0
   34.4120   29.4520   47.1740 P   0  0  1  0  0  0  0  0  0  0  0  0
   34.6010   27.8910   47.7570 O   0  0  0  0  0  0  0  0  0  0  0  0
   34.5850   30.5240   48.5250 O   0  0  0  0  0  0  0  0  0  0  0  0
   35.7510   30.5560   49.2840 C   0  0  0  0  0  0  0  0  0  0  0  0
   36.0050   29.8370   50.4490 C   0  0  0  0  0  0  0  0  0  0  0  0
   37.2300   29.9960   51.0740 C   0  0  0  0  0  0  0  0  0  0  0  0
   38.1460   30.8430   50.5370 N   0  0  0  0  0  0  0  0  0  0  0  0
   37.8710   31.5340   49.3970 C   0  0  0  0  0  0  0  0  0  0  0  0
   36.6690   31.3910   48.7640 N   0  0  0  0  0  0  0  0  0  0  0  0
   34.9490   29.0070   50.8680 N   0  0  0  0  0  0  0  0  0  0  0  0
   32.8760   29.7040   46.4910 O   0  0  0  0  0  0  0  0  0  0  0  0
   32.2150   28.5860   48.3580 N   0  0  0  0  0  0  0  0  0  0  0  0
   31.9540   28.7890   46.9440 C   0  0  2  0  0  0  0  0  0  0  0  0
   32.1640   27.4810   46.2150 C   0  0  0  0  0  0  0  0  0  0  0  0
   31.4280   26.4410   46.7390 O   0  0  0  0  0  0  0  0  0  0  0  0
   31.5150   26.2840   48.0980 C   0  0  0  0  0  0  0  0  0  0  0  0
   31.2760   27.5890   48.8340 C   0  0  0  0  0  0  0  0  0  0  0  0
   34.5992   27.9060   48.7469 H   0  0  0  0  0  0  0  0  0  0  0  0
   37.4592   29.4420   51.9962 H   0  0  0  0  0  0  0  0  0  0  0  0
   38.6264   32.2163   48.9801 H   0  0  0  0  0  0  0  0  0  0  0  0
   35.0485   28.4378   51.7206 H   0  0  0  0  0  0  0  0  0  0  0  0
   34.0764   28.9686   50.3221 H   0  0  0  0  0  0  0  0  0  0  0  0
   32.0809   29.4690   48.8710 H   0  0  0  0  0  0  0  0  0  0  0  0
   30.9260   29.1422   46.7752 H   0  0  0  0  0  0  0  0  0  0  0  0
   33.2304   27.2172   46.2713 H   0  0  0  0  0  0  0  0  0  0  0  0
   31.8277   27.6282   45.1781 H   0  0  0  0  0  0  0  0  0  0  0  0
   30.7613   25.5505   48.4204 H   0  0  0  0  0  0  0  0  0  0  0  0
   32.5316   25.9386   48.3372 H   0  0  0  0  0  0  0  0  0  0  0  0
   31.4203   27.4339   49.9134 H   0  0  0  0  0  0  0  0  0  0  0  0
   30.2477   27.9333   48.6496 H   0  0  0  0  0  0  0  0  0  0  0  0
  2  1  2  0
  2  3  1  0
  2  4  1  0
  4  5  1  0
  5  6  2  0
  6 11  1  0
  6  7  1  0
  8  7  2  0
  9  8  1  0
 10  5  1  0
 10  9  2  0
 12  2  1  0
 13 18  1  0
 14 12  1  0
 14 13  1  0
 15 16  1  0
 15 14  1  0
 16 17  1  0
 17 18  1  0
  3 19  1  0
  7 20  1  0
  9 21  1  0
 11 22  1  0
 11 23  1  0
 13 24  1  0
 14 25  1  1
 15 26  1  0
 15 27  1  0
 17 28  1  0
 17 29  1  0
 18 30  1  0
 18 31  1  0
M  ISO  8  19   3  20  14  21  14  24   5  25  13  26  13  27  13  28  13
M  ISO  3  29  13  30  13  31  13
M  END
>  <minimizedAffinity>  (1) 
-4.11396742

>  <minimizedRMSD>  (1) 
2.7800343

$$$$
