
     RDKit          3D

 41 44  0  0  0  0  0  0  0  0999 V2000
   37.3400   29.1970   50.8260 Br  0  0  0  0  0  0  0  0  0  0  0  0
   35.9600   29.3050   49.5190 C   0  0  0  0  0  0  0  0  0  0  0  0
   35.9770   30.3130   48.5440 C   0  0  0  0  0  0  0  0  0  0  0  0
   34.9490   30.3300   47.6340 C   0  0  0  0  0  0  0  0  0  0  0  0
   33.9120   29.4080   47.6370 C   0  0  0  0  0  0  0  0  0  0  0  0
   33.9260   28.4380   48.6020 C   0  0  0  0  0  0  0  0  0  0  0  0
   34.9450   28.4000   49.5260 C   0  0  0  0  0  0  0  0  0  0  0  0
   32.8250   29.4270   46.6740 C   0  0  0  0  0  0  0  0  0  0  0  0
   31.9160   28.4130   46.4900 C   0  0  0  0  0  0  0  0  0  0  0  0
   30.8950   28.4730   45.5590 C   0  0  0  0  0  0  0  0  0  0  0  0
   30.7690   29.5700   44.7850 N   0  0  0  0  0  0  0  0  0  0  0  0
   31.6530   30.5580   44.9630 C   0  0  0  0  0  0  0  0  0  0  0  0
   32.6290   30.4860   45.8620 N   0  0  0  0  0  0  0  0  0  0  0  0
   31.5360   31.7210   44.1580 N   0  0  0  0  0  0  0  0  0  0  0  0
   32.1990   31.8690   42.8780 C   0  0  0  0  0  0  0  0  0  0  0  0
   32.9340   33.2120   42.8070 C   0  0  0  0  0  0  0  0  0  0  0  0
   32.1530   34.2500   43.2690 O   0  0  0  0  0  0  0  0  0  0  0  0
   31.7070   34.0500   44.5560 C   0  0  0  0  0  0  0  0  0  0  0  0
   30.7400   32.8690   44.5480 C   0  0  0  0  0  0  0  0  0  0  0  0
   38.0100   33.1850   49.4910 C   0  0  0  0  0  0  0  0  0  0  0  0
   39.0530   33.1790   48.5000 C   0  0  0  0  0  0  0  0  0  0  0  0
   39.0230   32.1900   47.5390 C   0  0  0  0  0  0  0  0  0  0  0  0
   38.0150   31.2610   47.5650 N   0  0  0  0  0  0  0  0  0  0  0  0
   37.0420   31.2890   48.5110 C   0  0  0  0  0  0  0  0  0  0  0  0
   37.0570   32.2550   49.4630 N   0  0  0  0  0  0  0  0  0  0  0  0
   34.9474   31.1147   46.8631 H   0  0  0  0  0  0  0  0  0  0  0  0
   33.1221   27.6881   48.6392 H   0  0  0  0  0  0  0  0  0  0  0  0
   34.9383   27.6129   50.2944 H   0  0  0  0  0  0  0  0  0  0  0  0
   32.0046   27.5106   47.1128 H   0  0  0  0  0  0  0  0  0  0  0  0
   30.1923   27.6337   45.4509 H   0  0  0  0  0  0  0  0  0  0  0  0
   32.9243   31.0520   42.7493 H   0  0  0  0  0  0  0  0  0  0  0  0
   31.4433   31.8341   42.0795 H   0  0  0  0  0  0  0  0  0  0  0  0
   33.8450   33.1518   43.4206 H   0  0  0  0  0  0  0  0  0  0  0  0
   33.1784   33.4118   41.7533 H   0  0  0  0  0  0  0  0  0  0  0  0
   32.5593   33.8288   45.2152 H   0  0  0  0  0  0  0  0  0  0  0  0
   31.2004   34.9532   44.9270 H   0  0  0  0  0  0  0  0  0  0  0  0
   29.9302   33.0397   43.8234 H   0  0  0  0  0  0  0  0  0  0  0  0
   30.2653   32.7228   45.5295 H   0  0  0  0  0  0  0  0  0  0  0  0
   37.9996   33.9587   50.2728 H   0  0  0  0  0  0  0  0  0  0  0  0
   39.8486   33.9386   48.5084 H   0  0  0  0  0  0  0  0  0  0  0  0
   39.7990   32.1471   46.7606 H   0  0  0  0  0  0  0  0  0  0  0  0
  2  7  2  0
  2  1  1  0
  3  2  1  0
  4  5  1  0
  4  3  2  0
  5  6  2  0
  6  7  1  0
  8  5  1  0
  9  8  2  0
 10  9  1  0
 11 12  1  0
 11 10  2  0
 12 13  2  0
 13  8  1  0
 14 19  1  0
 14 12  1  0
 15 14  1  0
 16 15  1  0
 16 17  1  0
 17 18  1  0
 19 18  1  0
 21 20  2  0
 22 23  2  0
 22 21  1  0
 23 24  1  0
 24  3  1  0
 24 25  2  0
 25 20  1  0
  4 26  1  0
  6 27  1  0
  7 28  1  0
  9 29  1  0
 10 30  1  0
 15 31  1  0
 15 32  1  0
 16 33  1  0
 16 34  1  0
 18 35  1  0
 18 36  1  0
 19 37  1  0
 19 38  1  0
 20 39  1  0
 21 40  1  0
 22 41  1  0
M  ISO  8  26  14  27  14  28  14  29  14  30  14  31  13  32  13  33  13
M  ISO  8  34  13  35  13  36  13  37  13  38  13  39  14  40  14  41  14
M  END
>  <minimizedAffinity>  (1) 
-6.87257195

>  <minimizedRMSD>  (1) 
0.585801899

$$$$
