
     RDKit          3D

 33 35  0  0  0  0  0  0  0  0999 V2000
   37.4670   29.2210   50.8890 Br  0  0  0  0  0  0  0  0  0  0  0  0
   36.0390   29.2950   49.6210 C   0  0  0  0  0  0  0  0  0  0  0  0
   36.0080   30.2780   48.6360 C   0  0  0  0  0  0  0  0  0  0  0  0
   34.9450   30.2550   47.7700 C   0  0  0  0  0  0  0  0  0  0  0  0
   33.9190   29.3390   47.8060 C   0  0  0  0  0  0  0  0  0  0  0  0
   33.9840   28.3810   48.7950 C   0  0  0  0  0  0  0  0  0  0  0  0
   35.0400   28.3660   49.6930 C   0  0  0  0  0  0  0  0  0  0  0  0
   38.0290   33.2020   49.4290 C   0  0  0  0  0  0  0  0  0  0  0  0
   39.0400   33.1910   48.4450 C   0  0  0  0  0  0  0  0  0  0  0  0
   39.0120   32.1660   47.5110 C   0  0  0  0  0  0  0  0  0  0  0  0
   38.0200   31.2260   47.5840 N   0  0  0  0  0  0  0  0  0  0  0  0
   37.0630   31.2700   48.5490 C   0  0  0  0  0  0  0  0  0  0  0  0
   37.0810   32.2600   49.4610 N   0  0  0  0  0  0  0  0  0  0  0  0
   32.8340   29.3510   46.8860 N   0  0  0  0  0  0  0  0  0  0  0  0
   31.9420   28.2090   46.8140 C   0  0  0  0  0  0  0  0  0  0  0  0
   30.6590   28.5500   46.0970 C   0  0  0  0  0  0  0  0  0  0  0  0
   30.8530   29.3720   45.0110 O   0  0  0  0  0  0  0  0  0  0  0  0
   31.3830   30.6020   45.3270 C   0  0  0  0  0  0  0  0  0  0  0  0
   32.6910   30.5550   46.0520 C   0  0  0  0  0  0  0  0  0  0  0  0
   34.9099   31.0272   46.9874 H   0  0  0  0  0  0  0  0  0  0  0  0
   33.1914   27.6222   48.8723 H   0  0  0  0  0  0  0  0  0  0  0  0
   35.0741   27.5940   50.4758 H   0  0  0  0  0  0  0  0  0  0  0  0
   38.0206   34.0013   50.1846 H   0  0  0  0  0  0  0  0  0  0  0  0
   39.8206   33.9657   48.4195 H   0  0  0  0  0  0  0  0  0  0  0  0
   39.7767   32.1094   46.7223 H   0  0  0  0  0  0  0  0  0  0  0  0
   32.4473   27.3950   46.2736 H   0  0  0  0  0  0  0  0  0  0  0  0
   31.6914   27.9032   47.8405 H   0  0  0  0  0  0  0  0  0  0  0  0
   30.1918   27.6162   45.7510 H   0  0  0  0  0  0  0  0  0  0  0  0
   30.0176   29.0904   46.8087 H   0  0  0  0  0  0  0  0  0  0  0  0
   31.5304   31.1615   44.3915 H   0  0  0  0  0  0  0  0  0  0  0  0
   30.6671   31.0807   46.0113 H   0  0  0  0  0  0  0  0  0  0  0  0
   33.5046   30.5692   45.3118 H   0  0  0  0  0  0  0  0  0  0  0  0
   32.7333   31.4287   46.7190 H   0  0  0  0  0  0  0  0  0  0  0  0
  2  7  2  0
  2  1  1  0
  3  2  1  0
  4  5  1  0
  4  3  2  0
  5  6  2  0
  6  7  1  0
  8 13  2  0
  9  8  1  0
 10 11  1  0
 10  9  2  0
 11 12  2  0
 12  3  1  0
 12 13  1  0
 14  5  1  0
 15 14  1  0
 16 15  1  0
 17 18  1  0
 17 16  1  0
 18 19  1  0
 19 14  1  0
  4 20  1  0
  6 21  1  0
  7 22  1  0
  8 23  1  0
  9 24  1  0
 10 25  1  0
 15 26  1  0
 15 27  1  0
 16 28  1  0
 16 29  1  0
 18 30  1  0
 18 31  1  0
 19 32  1  0
 19 33  1  0
M  ISO  8  20  14  21  14  22  14  23  14  24  14  25  14  26  13  27  13
M  ISO  6  28  13  29  13  30  13  31  13  32  13  33  13
M  END
>  <minimizedAffinity>  (1) 
-5.88985443

>  <minimizedRMSD>  (1) 
0.547143638

$$$$
