
     RDKit          3D

 39 41  0  0  1  0  0  0  0  0999 V2000
   37.3800   30.0610   50.6930 C   0  0  0  0  0  0  0  0  0  0  0  0
   37.8820   30.7080   49.5430 C   0  0  0  0  0  0  0  0  0  0  0  0
   37.2460   30.4530   48.3380 C   0  0  0  0  0  0  0  0  0  0  0  0
   36.1920   29.6100   48.3300 N   0  0  0  0  0  0  0  0  0  0  0  0
   35.7350   29.0070   49.4450 C   0  0  0  0  0  0  0  0  0  0  0  0
   36.3380   29.2410   50.6200 N   0  0  0  0  0  0  0  0  0  0  0  0
   37.6500   31.0450   47.0670 C   0  0  0  0  0  0  0  0  0  0  0  0
   36.9580   30.7960   45.8930 C   0  0  0  0  0  0  0  0  0  0  0  0
   37.3210   31.3430   44.6780 C   0  0  0  0  0  0  0  0  0  0  0  0
   38.4120   32.1660   44.6300 N   0  0  0  0  0  0  0  0  0  0  0  0
   39.0600   32.3900   45.7710 C   0  0  0  0  0  0  0  0  0  0  0  0
   38.7190   31.8670   46.9530 N   0  0  0  0  0  0  0  0  0  0  0  0
   40.2460   33.2820   45.7320 C   0  0  0  0  0  0  0  0  0  0  0  0
   40.3290   33.9390   46.9590 F   0  0  0  0  0  0  0  0  0  0  0  0
   41.4160   32.5590   45.5180 F   0  0  0  0  0  0  0  0  0  0  0  0
   40.1510   34.2470   44.7780 F   0  0  0  0  0  0  0  0  0  0  0  0
   34.6450   28.1650   49.2960 O   0  0  0  0  0  0  0  0  0  0  0  0
   32.2800   27.6790   49.0270 C   0  0  2  0  0  0  0  0  0  0  0  0
   33.4700   28.5160   48.6340 C   0  0  2  0  0  0  0  0  0  0  0  0
   33.7130   28.4090   47.2670 O   0  0  0  0  0  0  0  0  0  0  0  0
   33.7930   27.1050   46.8370 C   0  0  0  0  0  0  0  0  0  0  0  0
   32.3960   26.5220   46.8100 C   0  0  2  0  0  0  0  0  0  0  0  0
   31.5410   27.3010   47.7640 C   0  0  1  0  0  0  0  0  0  0  0  0
   31.3700   28.4650   49.7690 O   0  0  0  0  0  0  0  0  0  0  0  0
   32.4240   25.1650   47.0990 O   0  0  0  0  0  0  0  0  0  0  0  0
   30.3790   26.6350   48.0940 O   0  0  0  0  0  0  0  0  0  0  0  0
   37.8603   30.2392   51.6664 H   0  0  0  0  0  0  0  0  0  0  0  0
   38.7445   31.3882   49.6009 H   0  0  0  0  0  0  0  0  0  0  0  0
   36.0807   30.1334   45.9302 H   0  0  0  0  0  0  0  0  0  0  0  0
   36.7445   31.1213   43.7678 H   0  0  0  0  0  0  0  0  0  0  0  0
   32.6267   26.8090   49.6039 H   0  0  0  0  0  0  0  0  0  0  0  0
   33.2047   29.5445   48.9200 H   0  0  0  0  0  0  0  0  0  0  0  0
   34.2280   27.0732   45.8272 H   0  0  0  0  0  0  0  0  0  0  0  0
   34.4317   26.5222   47.5170 H   0  0  0  0  0  0  0  0  0  0  0  0
   31.9610   26.6075   45.8033 H   0  0  0  0  0  0  0  0  0  0  0  0
   31.2752   28.2231   47.2263 H   0  0  0  0  0  0  0  0  0  0  0  0
   31.5284   28.3282   50.7366 H   0  0  0  0  0  0  0  0  0  0  0  0
   32.4266   25.0366   48.0806 H   0  0  0  0  0  0  0  0  0  0  0  0
   30.2947   26.5867   49.0792 H   0  0  0  0  0  0  0  0  0  0  0  0
  2  1  2  0
  3  2  1  0
  4  3  2  0
  4  5  1  0
  5  6  2  0
  6  1  1  0
  7  3  1  0
  8  7  2  0
  9  8  1  0
 10  9  2  0
 10 11  1  0
 11 12  2  0
 12  7  1  0
 13 11  1  0
 13 14  1  0
 15 13  1  0
 16 13  1  0
 17  5  1  0
 18 24  1  0
 19 18  1  0
 19 17  1  0
 20 19  1  0
 21 20  1  0
 22 21  1  0
 22 25  1  0
 22 23  1  0
 23 26  1  0
 23 18  1  0
  1 27  1  0
  2 28  1  0
  8 29  1  0
  9 30  1  0
 18 31  1  1
 19 32  1  6
 21 33  1  0
 21 34  1  0
 22 35  1  6
 23 36  1  6
 24 37  1  0
 25 38  1  0
 26 39  1  0
M  ISO  8  27  14  28  14  29  14  30  14  31  13  32  13  33  13  34  13
M  ISO  5  35  13  36  13  37   3  38   3  39   3
M  END
>  <minimizedAffinity>  (1) 
-6.69671679

>  <minimizedRMSD>  (1) 
1.4155345

$$$$
