
     RDKit          3D

 28 29  0  0  1  0  0  0  0  0999 V2000
   39.8390   30.9310   45.6650 C   0  0  2  0  0  0  0  0  0  0  0  0
   39.2010   31.3240   46.9730 C   0  0  1  0  0  0  0  0  0  0  0  0
   39.1650   32.6830   47.1760 O   0  0  0  0  0  0  0  0  0  0  0  0
   40.2380   33.3790   46.6710 C   0  0  0  0  0  0  0  0  0  0  0  0
   40.2890   33.2890   45.1530 C   0  0  1  0  0  0  0  0  0  0  0  0
   39.6630   32.0190   44.6440 C   0  0  1  0  0  0  0  0  0  0  0  0
   39.3980   29.7170   45.1910 O   0  0  0  0  0  0  0  0  0  0  0  0
   39.6710   34.3930   44.5680 O   0  0  0  0  0  0  0  0  0  0  0  0
   40.3450   31.6580   43.4710 O   0  0  0  0  0  0  0  0  0  0  0  0
   37.4470   30.7800   47.0150 S   0  0  0  0  0  0  0  0  0  0  0  0
   37.4050   30.2930   51.0680 C   0  0  0  0  0  0  0  0  0  0  0  0
   37.8030   30.7310   49.8060 C   0  0  0  0  0  0  0  0  0  0  0  0
   37.0750   30.3150   48.6860 C   0  0  0  0  0  0  0  0  0  0  0  0
   35.9990   29.4930   48.9050 N   0  0  0  0  0  0  0  0  0  0  0  0
   35.6410   29.0900   50.1330 C   0  0  0  0  0  0  0  0  0  0  0  0
   36.3390   29.4860   51.2180 N   0  0  0  0  0  0  0  0  0  0  0  0
   40.9139   30.8030   45.8603 H   0  0  0  0  0  0  0  0  0  0  0  0
   39.8197   30.8451   47.7462 H   0  0  0  0  0  0  0  0  0  0  0  0
   40.1505   34.4354   46.9648 H   0  0  0  0  0  0  0  0  0  0  0  0
   41.1605   32.9380   47.0766 H   0  0  0  0  0  0  0  0  0  0  0  0
   41.3514   33.2806   44.8678 H   0  0  0  0  0  0  0  0  0  0  0  0
   38.5896   32.1636   44.4518 H   0  0  0  0  0  0  0  0  0  0  0  0
   39.1824   29.1236   45.9536 H   0  0  0  0  0  0  0  0  0  0  0  0
   39.3334   34.9962   45.2767 H   0  0  0  0  0  0  0  0  0  0  0  0
   41.1945   31.2084   43.7083 H   0  0  0  0  0  0  0  0  0  0  0  0
   37.9714   30.6122   51.9553 H   0  0  0  0  0  0  0  0  0  0  0  0
   38.6746   31.3924   49.6926 H   0  0  0  0  0  0  0  0  0  0  0  0
   34.7697   28.4301   50.2571 H   0  0  0  0  0  0  0  0  0  0  0  0
  1  7  1  0
  1  2  1  0
  2 10  1  0
  2  3  1  0
  4  3  1  0
  5  8  1  0
  5  4  1  0
  6  9  1  0
  6  5  1  0
  6  1  1  0
 10 13  1  0
 11 16  2  0
 12 11  1  0
 13 14  1  0
 13 12  2  0
 14 15  2  0
 15 16  1  0
  1 17  1  1
  2 18  1  1
  4 19  1  0
  4 20  1  0
  5 21  1  1
  6 22  1  6
  7 23  1  0
  8 24  1  0
  9 25  1  0
 11 26  1  0
 12 27  1  0
 15 28  1  0
M  ISO  8  17  13  18  13  19  13  20  13  21  13  22  13  23   3  24   3
M  ISO  4  25   3  26  14  27  14  28  14
M  END
>  <minimizedAffinity>  (1) 
-5.04108286

>  <minimizedRMSD>  (1) 
1.37028348

$$$$
