
     RDKit          3D

 51 53  0  0  1  0  0  0  0  0999 V2000
   34.5320   29.5630   48.9980 C   0  0  0  0  0  0  0  0  0  0  0  0
   37.2730   30.6770   48.8000 Cl  0  0  0  0  0  0  0  0  0  0  0  0
   36.2420   30.3690   47.4050 C   0  0  0  0  0  0  0  0  0  0  0  0
   36.7020   30.6520   46.1560 C   0  0  0  0  0  0  0  0  0  0  0  0
   35.9090   30.4170   45.0670 C   0  0  0  0  0  0  0  0  0  0  0  0
   34.6440   29.8920   45.2600 C   0  0  0  0  0  0  0  0  0  0  0  0
   34.2180   29.6190   46.5620 C   0  0  0  0  0  0  0  0  0  0  0  0
   34.9930   29.8460   47.6590 C   0  0  0  0  0  0  0  0  0  0  0  0
   39.7010   32.7980   46.4150 C   0  0  0  0  0  0  0  0  0  0  0  0
   40.5820   32.1270   45.5000 C   0  0  0  0  0  0  0  0  0  0  0  0
   40.1090   30.9770   44.8410 C   0  0  0  0  0  0  0  0  0  0  0  0
   38.8450   30.5520   45.0980 N   0  0  0  0  0  0  0  0  0  0  0  0
   38.0360   31.2070   45.9670 C   0  0  0  0  0  0  0  0  0  0  0  0
   38.4710   32.3060   46.6040 N   0  0  0  0  0  0  0  0  0  0  0  0
   40.9990   30.3580   43.9610 N   0  0  0  0  0  0  0  0  0  0  0  0
   33.9070   28.2760   49.2850 C   0  0  0  0  0  0  0  0  0  0  0  0
   32.5590   28.3990   49.5030 O   0  0  0  0  0  0  0  0  0  0  0  0
   32.5440   26.5650   47.6160 O   0  0  0  0  0  0  0  0  0  0  0  0
   31.6880   27.5900   48.3200 P   0  0  2  0  0  0  0  0  0  0  0  0
   31.1240   28.7790   47.2180 O   0  0  0  0  0  0  0  0  0  0  0  0
   30.3380   26.8230   48.9350 O   0  0  0  0  0  0  0  0  0  0  0  0
   28.4530   27.2310   50.4080 C   0  0  2  0  0  0  0  0  0  0  0  0
   29.5430   27.7880   49.5560 C   0  0  2  0  0  0  0  0  0  0  0  0
   29.0600   28.6710   48.5930 O   0  0  0  0  0  0  0  0  0  0  0  0
   27.8560   28.2280   48.0460 C   0  0  0  0  0  0  0  0  0  0  0  0
   26.7270   28.2830   49.0420 C   0  0  2  0  0  0  0  0  0  0  0  0
   27.3110   28.2290   50.4320 C   0  0  1  0  0  0  0  0  0  0  0  0
   28.9000   26.9650   51.7180 O   0  0  0  0  0  0  0  0  0  0  0  0
   25.8870   27.2260   48.7950 O   0  0  0  0  0  0  0  0  0  0  0  0
   26.3570   27.8920   51.3880 O   0  0  0  0  0  0  0  0  0  0  0  0
   33.7969   30.3401   49.2544 H   0  0  0  0  0  0  0  0  0  0  0  0
   35.4583   29.5386   49.5908 H   0  0  0  0  0  0  0  0  0  0  0  0
   36.2716   30.6420   44.0531 H   0  0  0  0  0  0  0  0  0  0  0  0
   33.9844   29.6928   44.4025 H   0  0  0  0  0  0  0  0  0  0  0  0
   33.2108   29.2017   46.7081 H   0  0  0  0  0  0  0  0  0  0  0  0
   40.0316   33.7001   46.9507 H   0  0  0  0  0  0  0  0  0  0  0  0
   41.6000   32.5024   45.3191 H   0  0  0  0  0  0  0  0  0  0  0  0
   41.9426   30.7476   43.8242 H   0  0  0  0  0  0  0  0  0  0  0  0
   40.7119   29.5118   43.4487 H   0  0  0  0  0  0  0  0  0  0  0  0
   34.0689   27.6035   48.4297 H   0  0  0  0  0  0  0  0  0  0  0  0
   34.3645   27.8716   50.1999 H   0  0  0  0  0  0  0  0  0  0  0  0
   30.7587   29.5490   47.7217 H   0  0  0  0  0  0  0  0  0  0  0  0
   28.1177   26.2734   49.9831 H   0  0  0  0  0  0  0  0  0  0  0  0
   30.1829   28.3306   50.2674 H   0  0  0  0  0  0  0  0  0  0  0  0
   27.6016   28.8648   47.1859 H   0  0  0  0  0  0  0  0  0  0  0  0
   27.9879   27.1794   47.7410 H   0  0  0  0  0  0  0  0  0  0  0  0
   26.1475   29.2138   48.9533 H   0  0  0  0  0  0  0  0  0  0  0  0
   27.6791   29.2246   50.7204 H   0  0  0  0  0  0  0  0  0  0  0  0
   28.2592   27.3463   52.3692 H   0  0  0  0  0  0  0  0  0  0  0  0
   25.5805   26.8404   49.6538 H   0  0  0  0  0  0  0  0  0  0  0  0
   26.7353   28.0256   52.2931 H   0  0  0  0  0  0  0  0  0  0  0  0
  1 16  1  0
  3  8  2  0
  3  2  1  0
  4  3  1  0
  5  6  1  0
  5  4  2  0
  6  7  2  0
  7  8  1  0
  8  1  1  0
  9 14  2  0
 10  9  1  0
 11 12  1  0
 11 10  2  0
 12 13  2  0
 13  4  1  0
 13 14  1  0
 15 11  1  0
 16 17  1  0
 19 18  2  0
 19 21  1  0
 19 17  1  0
 20 19  1  0
 22 27  1  0
 22 28  1  0
 23 21  1  0
 23 22  1  0
 24 23  1  0
 25 24  1  0
 25 26  1  0
 26 29  1  0
 26 27  1  0
 27 30  1  0
  1 31  1  0
  1 32  1  0
  5 33  1  0
  6 34  1  0
  7 35  1  0
  9 36  1  0
 10 37  1  0
 15 38  1  0
 15 39  1  0
 16 40  1  0
 16 41  1  0
 20 42  1  0
 22 43  1  6
 23 44  1  1
 25 45  1  0
 25 46  1  0
 26 47  1  1
 27 48  1  1
 28 49  1  0
 29 50  1  0
 30 51  1  0
M  ISO  8  31   8  32   8  33  14  34  14  35  14  36  14  37  14  40   8
M  ISO  8  41   8  42   3  43  13  44  13  45  13  46  13  47  13  48  13
M  ISO  3  49   3  50   3  51   3
M  END
>  <minimizedAffinity>  (1) 
-7.52337551

>  <minimizedRMSD>  (1) 
0.625601828

$$$$
