
     RDKit          3D

 37 39  0  0  1  0  0  0  0  0999 V2000
   37.3100   30.5140   50.4020 C   0  0  0  0  0  0  0  0  0  0  0  0
   38.3890   31.4090   50.1880 C   0  0  0  0  0  0  0  0  0  0  0  0
   38.5460   31.9530   48.8980 C   0  0  0  0  0  0  0  0  0  0  0  0
   37.6570   31.5830   47.9560 N   0  0  0  0  0  0  0  0  0  0  0  0
   36.6410   30.7310   48.1870 C   0  0  0  0  0  0  0  0  0  0  0  0
   36.4600   30.1910   49.4080 N   0  0  0  0  0  0  0  0  0  0  0  0
   35.6960   30.3340   47.2010 N   0  0  0  0  0  0  0  0  0  0  0  0
   36.0690   30.4050   45.9130 C   0  0  0  0  0  0  0  0  0  0  0  0
   35.1050   30.0050   45.0060 C   0  0  0  0  0  0  0  0  0  0  0  0
   33.8390   29.5560   45.3660 C   0  0  0  0  0  0  0  0  0  0  0  0
   32.9770   29.1960   44.5310 O   0  0  0  0  0  0  0  0  0  0  0  0
   33.5230   29.5070   46.7040 N   0  0  0  0  0  0  0  0  0  0  0  0
   34.4820   29.9040   47.5580 C   0  0  0  0  0  0  0  0  0  0  0  0
   34.2210   29.8700   48.8090 O   0  0  0  0  0  0  0  0  0  0  0  0
   32.3340   27.5640   47.3400 C   0  0  1  0  0  0  0  0  0  0  0  0
   32.2100   29.0440   47.1120 C   0  0  2  0  0  0  0  0  0  0  0  0
   31.3050   29.3270   46.1210 O   0  0  0  0  0  0  0  0  0  0  0  0
   30.0340   28.9410   46.4730 C   0  0  0  0  0  0  0  0  0  0  0  0
   29.8740   27.4800   46.7670 C   0  0  2  0  0  0  0  0  0  0  0  0
   31.0390   26.8370   47.4460 C   0  0  2  0  0  0  0  0  0  0  0  0
   33.1070   27.0690   46.2890 O   0  0  0  0  0  0  0  0  0  0  0  0
   29.4860   26.7980   45.6140 O   0  0  0  0  0  0  0  0  0  0  0  0
   30.7840   26.5680   48.7900 O   0  0  0  0  0  0  0  0  0  0  0  0
   37.1641   30.0746   51.3998 H   0  0  0  0  0  0  0  0  0  0  0  0
   39.0807   31.6699   51.0025 H   0  0  0  0  0  0  0  0  0  0  0  0
   39.3631   32.6529   48.6688 H   0  0  0  0  0  0  0  0  0  0  0  0
   37.0649   30.7545   45.6032 H   0  0  0  0  0  0  0  0  0  0  0  0
   35.3545   30.0443   43.9354 H   0  0  0  0  0  0  0  0  0  0  0  0
   32.8027   27.3970   48.3210 H   0  0  0  0  0  0  0  0  0  0  0  0
   31.8573   29.5386   48.0290 H   0  0  0  0  0  0  0  0  0  0  0  0
   29.7432   29.5038   47.3723 H   0  0  0  0  0  0  0  0  0  0  0  0
   29.3967   29.1507   45.6013 H   0  0  0  0  0  0  0  0  0  0  0  0
   29.0720   27.4071   47.5163 H   0  0  0  0  0  0  0  0  0  0  0  0
   31.1589   25.9010   46.8807 H   0  0  0  0  0  0  0  0  0  0  0  0
   33.8818   26.5728   46.6544 H   0  0  0  0  0  0  0  0  0  0  0  0
   29.0126   25.9659   45.8663 H   0  0  0  0  0  0  0  0  0  0  0  0
   31.3427   27.1573   49.3563 H   0  0  0  0  0  0  0  0  0  0  0  0
  2  1  2  0
  3  2  1  0
  4  5  1  0
  4  3  2  0
  5  6  2  0
  6  1  1  0
  7 13  1  0
  7  5  1  0
  8  7  1  0
  9 10  1  0
  9  8  2  0
 10 12  1  0
 11 10  2  0
 12 13  1  0
 13 14  2  0
 15 21  1  0
 15 20  1  0
 16 12  1  0
 16 15  1  0
 17 18  1  0
 17 16  1  0
 18 19  1  0
 19 22  1  0
 19 20  1  0
 20 23  1  0
  1 24  1  0
  2 25  1  0
  3 26  1  0
  8 27  1  0
  9 28  1  0
 15 29  1  1
 16 30  1  1
 18 31  1  0
 18 32  1  0
 19 33  1  1
 20 34  1  6
 21 35  1  0
 22 36  1  0
 23 37  1  0
M  ISO  8  24  14  25  14  26  14  27  14  28  14  29  13  30  13  31  13
M  ISO  6  32  13  33  13  34  13  35   3  36   3  37   3
M  END
>  <minimizedAffinity>  (1) 
-5.14153385

>  <minimizedRMSD>  (1) 
2.94512773

$$$$
