
     RDKit          3D

 33 34  0  0  1  0  0  0  0  0999 V2000
   40.1390   31.1390   46.3700 O   0  0  0  0  0  0  0  0  0  0  0  0
   38.9790   31.9440   45.8130 P   0  0  2  0  0  0  0  0  0  0  0  0
   39.6030   33.4190   45.2990 O   0  0  0  0  0  0  0  0  0  0  0  0
   37.7650   32.2250   46.9980 O   0  0  0  0  0  0  0  0  0  0  0  0
   37.5670   31.3620   48.0760 C   0  0  0  0  0  0  0  0  0  0  0  0
   36.7100   30.2480   48.0880 C   0  0  0  0  0  0  0  0  0  0  0  0
   36.6480   29.5100   49.2570 C   0  0  0  0  0  0  0  0  0  0  0  0
   37.3940   29.8720   50.3310 N   0  0  0  0  0  0  0  0  0  0  0  0
   38.2170   30.9630   50.2830 C   0  0  0  0  0  0  0  0  0  0  0  0
   38.2920   31.6980   49.1480 N   0  0  0  0  0  0  0  0  0  0  0  0
   38.2230   31.1030   44.5410 O   0  0  0  0  0  0  0  0  0  0  0  0
   38.5850   29.2800   43.0280 C   0  0  2  0  0  0  0  0  0  0  0  0
   39.1720   30.1770   44.0720 C   0  0  1  0  0  0  0  0  0  0  0  0
   40.2780   30.8960   43.6680 O   0  0  0  0  0  0  0  0  0  0  0  0
   40.5870   30.7920   42.3310 C   0  0  0  0  0  0  0  0  0  0  0  0
   40.7860   29.3850   41.8400 C   0  0  2  0  0  0  0  0  0  0  0  0
   39.6490   28.5310   42.2980 C   0  0  1  0  0  0  0  0  0  0  0  0
   37.7100   29.9380   42.1680 O   0  0  0  0  0  0  0  0  0  0  0  0
   42.0080   28.8590   42.2440 O   0  0  0  0  0  0  0  0  0  0  0  0
   40.0790   27.4970   43.1450 O   0  0  0  0  0  0  0  0  0  0  0  0
   39.8366   33.9711   46.0869 H   0  0  0  0  0  0  0  0  0  0  0  0
   36.1136   29.9743   47.2052 H   0  0  0  0  0  0  0  0  0  0  0  0
   35.9928   28.6284   49.3156 H   0  0  0  0  0  0  0  0  0  0  0  0
   38.8156   31.2424   51.1626 H   0  0  0  0  0  0  0  0  0  0  0  0
   37.9667   28.5410   43.5586 H   0  0  0  0  0  0  0  0  0  0  0  0
   39.4908   29.4802   44.8612 H   0  0  0  0  0  0  0  0  0  0  0  0
   39.7669   31.2437   41.7536 H   0  0  0  0  0  0  0  0  0  0  0  0
   41.5486   31.3081   42.1932 H   0  0  0  0  0  0  0  0  0  0  0  0
   40.8033   29.4018   40.7403 H   0  0  0  0  0  0  0  0  0  0  0  0
   39.2281   28.1303   41.3640 H   0  0  0  0  0  0  0  0  0  0  0  0
   37.0418   30.4405   42.6982 H   0  0  0  0  0  0  0  0  0  0  0  0
   42.0489   28.8414   43.2330 H   0  0  0  0  0  0  0  0  0  0  0  0
   39.9639   27.7739   44.0885 H   0  0  0  0  0  0  0  0  0  0  0  0
  2  1  2  0
  2  4  1  0
  3  2  1  0
  4  5  1  0
  5  6  2  0
  5 10  1  0
  6  7  1  0
  7  8  2  0
  9  8  1  0
 10  9  2  0
 11  2  1  0
 12 18  1  0
 12 13  1  0
 13 11  1  0
 14 13  1  0
 15 14  1  0
 16 19  1  0
 16 17  1  0
 16 15  1  0
 17 12  1  0
 17 20  1  0
  3 21  1  0
  6 22  1  0
  7 23  1  0
  9 24  1  0
 12 25  1  1
 13 26  1  1
 15 27  1  0
 15 28  1  0
 16 29  1  6
 17 30  1  6
 18 31  1  0
 19 32  1  0
 20 33  1  0
M  ISO  8  21   3  22  14  23  14  24  14  25  13  26  13  27  13  28  13
M  ISO  5  29  13  30  13  31   3  32   3  33   3
M  END
>  <minimizedAffinity>  (1) 
-5.54388428

>  <minimizedRMSD>  (1) 
8.03720284

$$$$
