
     RDKit          3D

 31 32  0  0  1  0  0  0  0  0999 V2000
   36.4270   29.7360   49.9660 C   0  0  0  0  0  0  0  0  0  0  0  0
   34.3190   28.6710   49.4720 C   0  0  2  0  0  0  0  0  0  0  0  0
   35.5860   29.1760   48.8180 C   0  0  1  0  0  0  0  0  0  0  0  0
   35.2690   30.2390   48.0100 O   0  0  0  0  0  0  0  0  0  0  0  0
   34.3930   29.9490   46.9970 C   0  0  0  0  0  0  0  0  0  0  0  0
   33.1020   29.3160   47.4370 C   0  0  2  0  0  0  0  0  0  0  0  0
   33.2730   28.2480   48.4660 C   0  0  2  0  0  0  0  0  0  0  0  0
   33.8220   29.7070   50.2630 O   0  0  0  0  0  0  0  0  0  0  0  0
   32.5340   28.7540   46.2940 O   0  0  0  0  0  0  0  0  0  0  0  0
   32.0760   28.0570   49.1840 O   0  0  0  0  0  0  0  0  0  0  0  0
   36.4000   31.5380   50.0110 S   0  0  0  0  0  0  0  0  0  0  0  0
   37.7250   32.0960   48.9350 C   0  0  0  0  0  0  0  0  0  0  0  0
   38.2830   33.3060   49.3560 C   0  0  0  0  0  0  0  0  0  0  0  0
   39.3320   33.8680   48.6180 C   0  0  0  0  0  0  0  0  0  0  0  0
   39.7460   33.1890   47.5160 N   0  0  0  0  0  0  0  0  0  0  0  0
   39.1760   32.0220   47.1460 C   0  0  0  0  0  0  0  0  0  0  0  0
   38.1690   31.4760   47.8530 N   0  0  0  0  0  0  0  0  0  0  0  0
   37.4669   29.4000   49.8405 H   0  0  0  0  0  0  0  0  0  0  0  0
   35.9993   29.3674   50.9100 H   0  0  0  0  0  0  0  0  0  0  0  0
   34.5554   27.7770   50.0677 H   0  0  0  0  0  0  0  0  0  0  0  0
   36.0916   28.3894   48.2387 H   0  0  0  0  0  0  0  0  0  0  0  0
   34.8921   29.2586   46.3011 H   0  0  0  0  0  0  0  0  0  0  0  0
   34.1234   30.9115   46.5379 H   0  0  0  0  0  0  0  0  0  0  0  0
   32.4750   30.0888   47.9057 H   0  0  0  0  0  0  0  0  0  0  0  0
   33.5653   27.3248   47.9442 H   0  0  0  0  0  0  0  0  0  0  0  0
   33.9334   29.4749   51.2189 H   0  0  0  0  0  0  0  0  0  0  0  0
   31.8558   28.0830   46.5583 H   0  0  0  0  0  0  0  0  0  0  0  0
   32.2654   28.0872   50.1552 H   0  0  0  0  0  0  0  0  0  0  0  0
   37.9028   33.8109   50.2563 H   0  0  0  0  0  0  0  0  0  0  0  0
   39.8003   34.8173   48.9171 H   0  0  0  0  0  0  0  0  0  0  0  0
   39.5429   31.5059   46.2465 H   0  0  0  0  0  0  0  0  0  0  0  0
  1 11  1  0
  2  8  1  0
  3  2  1  0
  3  1  1  0
  4  3  1  0
  5  6  1  0
  5  4  1  0
  6  9  1  0
  6  7  1  0
  7 10  1  0
  7  2  1  0
 12 13  2  0
 12 11  1  0
 14 13  1  0
 15 14  2  0
 16 15  1  0
 16 17  2  0
 17 12  1  0
  1 18  1  0
  1 19  1  0
  2 20  1  1
  3 21  1  6
  5 22  1  0
  5 23  1  0
  6 24  1  1
  7 25  1  6
  8 26  1  0
  9 27  1  0
 10 28  1  0
 13 29  1  0
 14 30  1  0
 16 31  1  0
M  ISO  8  18   8  19   8  20  13  21  13  22  13  23  13  24  13  25  13
M  ISO  6  26   3  27   3  28   3  29  14  30  14  31  14
M  END
>  <minimizedAffinity>  (1) 
-4.74167585

>  <minimizedRMSD>  (1) 
3.33460045

$$$$
