
     RDKit          3D

 57 61  0  0  1  0  0  0  0  0999 V2000
   38.7960   29.3380   43.9280 C   0  0  0  0  0  0  0  0  0  0  0  0
   39.5680   30.4930   44.0100 C   0  0  0  0  0  0  0  0  0  0  0  0
   40.6290   30.6840   43.1300 C   0  0  0  0  0  0  0  0  0  0  0  0
   40.9310   29.7480   42.1730 C   0  0  0  0  0  0  0  0  0  0  0  0
   41.8770   29.7000   41.2310 N   0  0  0  0  0  0  0  0  0  0  0  0
   41.7120   28.5380   40.5630 C   0  0  0  0  0  0  0  0  0  0  0  0
   40.6570   27.8020   41.0490 C   0  0  0  0  0  0  0  0  0  0  0  0
   40.1660   28.5930   42.0850 C   0  0  0  0  0  0  0  0  0  0  0  0
   39.1130   28.4040   42.9590 C   0  0  0  0  0  0  0  0  0  0  0  0
   39.1560   25.9030   42.9590 C   0  0  2  0  0  0  0  0  0  0  0  0
   38.3270   27.1460   42.8180 C   0  0  2  0  0  0  0  0  0  0  0  0
   37.6320   27.1760   41.6070 O   0  0  0  0  0  0  0  0  0  0  0  0
   36.6180   26.1940   41.6160 C   0  0  0  0  0  0  0  0  0  0  0  0
   37.1770   24.8200   41.9470 C   0  0  1  0  0  0  0  0  0  0  0  0
   38.6930   24.9410   41.8640 C   0  0  2  0  0  0  0  0  0  0  0  0
   39.1110   25.3250   44.2110 O   0  0  0  0  0  0  0  0  0  0  0  0
   36.7500   24.3950   43.2010 O   0  0  0  0  0  0  0  0  0  0  0  0
   39.3450   23.7340   41.8980 O   0  0  0  0  0  0  0  0  0  0  0  0
   39.2180   31.5010   45.0620 C   0  0  0  0  0  0  0  0  0  0  0  0
   38.7510   30.7470   46.2920 C   0  0  0  0  0  0  0  0  0  0  0  0
   37.9450   32.4110   48.0150 C   0  0  1  0  0  0  0  0  0  0  0  0
   39.3250   32.9020   47.6450 C   0  0  0  0  0  0  0  0  0  0  0  0
   38.9850   31.4670   47.5670 C   0  0  2  0  0  0  0  0  0  0  0  0
   37.5860   32.5610   49.4600 C   0  0  0  0  0  0  0  0  0  0  0  0
   36.6970   29.5050   51.4460 C   0  0  0  0  0  0  0  0  0  0  0  0
   37.4000   30.6430   50.9530 C   0  0  0  0  0  0  0  0  0  0  0  0
   36.8310   31.3840   49.9510 C   0  0  0  0  0  0  0  0  0  0  0  0
   35.6370   30.9940   49.4860 N   0  0  0  0  0  0  0  0  0  0  0  0
   34.9740   29.9260   49.9460 C   0  0  0  0  0  0  0  0  0  0  0  0
   35.5190   29.1960   50.9230 N   0  0  0  0  0  0  0  0  0  0  0  0
   37.9546   29.1723   44.6169 H   0  0  0  0  0  0  0  0  0  0  0  0
   41.2348   31.5992   43.2026 H   0  0  0  0  0  0  0  0  0  0  0  0
   42.5963   30.4143   41.0486 H   0  0  0  0  0  0  0  0  0  0  0  0
   42.3489   28.2169   39.7256 H   0  0  0  0  0  0  0  0  0  0  0  0
   40.2896   26.8246   40.7031 H   0  0  0  0  0  0  0  0  0  0  0  0
   40.2178   26.1658   42.8424 H   0  0  0  0  0  0  0  0  0  0  0  0
   37.6113   27.0999   43.6521 H   0  0  0  0  0  0  0  0  0  0  0  0
   35.8647   26.4648   42.3705 H   0  0  0  0  0  0  0  0  0  0  0  0
   36.1692   26.1517   40.6126 H   0  0  0  0  0  0  0  0  0  0  0  0
   36.8167   24.0581   41.2401 H   0  0  0  0  0  0  0  0  0  0  0  0
   38.9624   25.3497   40.8789 H   0  0  0  0  0  0  0  0  0  0  0  0
   39.1660   26.0312   44.9027 H   0  0  0  0  0  0  0  0  0  0  0  0
   37.2450   24.8877   43.9026 H   0  0  0  0  0  0  0  0  0  0  0  0
   39.4908   23.4641   42.8393 H   0  0  0  0  0  0  0  0  0  0  0  0
   40.1025   32.1068   45.3083 H   0  0  0  0  0  0  0  0  0  0  0  0
   38.4258   32.1732   44.7005 H   0  0  0  0  0  0  0  0  0  0  0  0
   37.6715   30.5600   46.1937 H   0  0  0  0  0  0  0  0  0  0  0  0
   39.3397   29.8190   46.3384 H   0  0  0  0  0  0  0  0  0  0  0  0
   36.9036   32.5734   47.7002 H   0  0  0  0  0  0  0  0  0  0  0  0
   39.4755   33.4849   46.7243 H   0  0  0  0  0  0  0  0  0  0  0  0
   40.1047   33.4958   48.1444 H   0  0  0  0  0  0  0  0  0  0  0  0
   39.4872   30.5734   47.9661 H   0  0  0  0  0  0  0  0  0  0  0  0
   38.5086   32.6666   50.0496 H   0  0  0  0  0  0  0  0  0  0  0  0
   36.9506   33.4522   49.5698 H   0  0  0  0  0  0  0  0  0  0  0  0
   37.1271   28.8907   52.2508 H   0  0  0  0  0  0  0  0  0  0  0  0
   38.3798   30.9206   51.3689 H   0  0  0  0  0  0  0  0  0  0  0  0
   33.9947   29.6535   49.5256 H   0  0  0  0  0  0  0  0  0  0  0  0
  1  2  2  0
  2 19  1  0
  3  2  1  0
  4  3  2  0
  5  4  1  0
  6  7  2  0
  6  5  1  0
  7  8  1  0
  8  4  1  0
  8  9  2  0
  9  1  1  0
 10 16  1  0
 11  9  1  0
 11 10  1  0
 12 13  1  0
 12 11  1  0
 13 14  1  0
 14 17  1  0
 15 18  1  0
 15 14  1  0
 15 10  1  0
 19 20  1  0
 20 23  1  0
 21 24  1  0
 22 21  1  0
 23 22  1  0
 23 21  1  0
 24 27  1  0
 26 25  2  0
 27 26  1  0
 28 29  1  0
 28 27  2  0
 29 30  2  0
 30 25  1  0
  1 31  1  0
  3 32  1  0
  5 33  1  0
  6 34  1  0
  7 35  1  0
 10 36  1  6
 11 37  1  1
 13 38  1  0
 13 39  1  0
 14 40  1  6
 15 41  1  6
 16 42  1  0
 17 43  1  0
 18 44  1  0
 19 45  1  0
 19 46  1  0
 20 47  1  0
 20 48  1  0
 21 49  1  6
 22 50  1  0
 22 51  1  0
 23 52  1  1
 24 53  1  0
 24 54  1  0
 25 55  1  0
 26 56  1  0
 29 57  1  0
M  ISO  8  31  14  32  14  33   9  34  14  35  14  36  13  37  13  38  13
M  ISO  8  39  13  40  13  41  13  42   3  43   3  44   3  45   8  46   8
M  ISO  8  47   8  48   8  49  13  50  13  51  13  52  13  53   8  54   8
M  ISO  3  55  14  56  14  57  14
M  END
>  <minimizedAffinity>  (1) 
-6.57264185

>  <minimizedRMSD>  (1) 
1.57973003

$$$$
