
     RDKit          3D

 42 46  0  0  0  0  0  0  0  0999 V2000
   38.2620   31.4280   46.6890 C   0  0  0  0  0  0  0  0  0  0  0  0
   38.6660   31.4010   45.3880 N   0  0  0  0  0  0  0  0  0  0  0  0
   39.5300   32.3420   44.9290 C   0  0  0  0  0  0  0  0  0  0  0  0
   40.0170   33.3150   45.7050 N   0  0  0  0  0  0  0  0  0  0  0  0
   39.6460   33.3850   47.0000 C   0  0  0  0  0  0  0  0  0  0  0  0
   40.1560   34.3670   47.7960 C   0  0  0  0  0  0  0  0  0  0  0  0
   39.8130   34.4540   49.1180 C   0  0  0  0  0  0  0  0  0  0  0  0
   38.9300   33.5210   49.6360 C   0  0  0  0  0  0  0  0  0  0  0  0
   38.4180   32.5270   48.8090 C   0  0  0  0  0  0  0  0  0  0  0  0
   38.7580   32.4350   47.5040 C   0  0  0  0  0  0  0  0  0  0  0  0
   37.5030   31.6890   49.5840 C   0  0  0  0  0  0  0  0  0  0  0  0
   37.9820   30.7560   50.5300 C   0  0  0  0  0  0  0  0  0  0  0  0
   37.0450   29.9840   51.1450 C   0  0  0  0  0  0  0  0  0  0  0  0
   35.9340   30.4370   50.5770 N   0  0  0  0  0  0  0  0  0  0  0  0
   36.2410   31.3450   49.7530 N   0  0  0  0  0  0  0  0  0  0  0  0
   37.2020   30.2410   47.4200 S   0  0  0  0  0  0  0  0  0  0  0  0
   34.8040   28.7830   48.2720 F   0  0  0  0  0  0  0  0  0  0  0  0
   34.6820   29.2260   46.9840 C   0  0  0  0  0  0  0  0  0  0  0  0
   33.5350   28.9740   46.2380 C   0  0  0  0  0  0  0  0  0  0  0  0
   33.4670   29.4510   44.9260 C   0  0  0  0  0  0  0  0  0  0  0  0
   34.5180   30.1650   44.3630 C   0  0  0  0  0  0  0  0  0  0  0  0
   35.6290   30.3790   45.1610 C   0  0  0  0  0  0  0  0  0  0  0  0
   35.7340   29.9280   46.4550 C   0  0  0  0  0  0  0  0  0  0  0  0
   32.8470   26.9680   47.2760 C   0  0  0  0  0  0  0  0  0  0  0  0
   32.4990   28.2410   46.8670 C   0  0  0  0  0  0  0  0  0  0  0  0
   31.1940   28.6320   47.1220 C   0  0  0  0  0  0  0  0  0  0  0  0
   30.3580   27.7580   47.7430 N   0  0  0  0  0  0  0  0  0  0  0  0
   30.7350   26.5500   48.1170 C   0  0  0  0  0  0  0  0  0  0  0  0
   31.9800   26.1280   47.8950 N   0  0  0  0  0  0  0  0  0  0  0  0
   39.8421   32.3020   43.8750 H   0  0  0  0  0  0  0  0  0  0  0  0
   40.8546   35.1015   47.3688 H   0  0  0  0  0  0  0  0  0  0  0  0
   40.2296   35.2478   49.7555 H   0  0  0  0  0  0  0  0  0  0  0  0
   38.6356   33.5660   50.6949 H   0  0  0  0  0  0  0  0  0  0  0  0
   39.0539   30.6587   50.7573 H   0  0  0  0  0  0  0  0  0  0  0  0
   37.1732   29.1992   51.9050 H   0  0  0  0  0  0  0  0  0  0  0  0
   34.9797   30.1037   50.7750 H   0  0  0  0  0  0  0  0  0  0  0  0
   32.5644   29.2576   44.3277 H   0  0  0  0  0  0  0  0  0  0  0  0
   34.4694   30.5427   43.3310 H   0  0  0  0  0  0  0  0  0  0  0  0
   36.4739   30.9407   44.7361 H   0  0  0  0  0  0  0  0  0  0  0  0
   33.8739   26.6197   47.0913 H   0  0  0  0  0  0  0  0  0  0  0  0
   30.8411   29.6313   46.8273 H   0  0  0  0  0  0  0  0  0  0  0  0
   30.0153   25.8849   48.6166 H   0  0  0  0  0  0  0  0  0  0  0  0
  1 16  1  0
  1 10  1  0
  2  1  2  0
  3  2  1  0
  3  4  2  0
  4  5  1  0
  5 10  2  0
  5  6  1  0
  6  7  2  0
  7  8  1  0
  9 11  1  0
  9  8  2  0
 10  9  1  0
 11 15  2  0
 11 12  1  0
 12 13  2  0
 14 13  1  0
 15 14  1  0
 18 17  1  0
 19 25  1  0
 19 18  2  0
 20 19  1  0
 21 20  2  0
 21 22  1  0
 22 23  2  0
 23 18  1  0
 23 16  1  0
 24 29  2  0
 25 26  2  0
 25 24  1  0
 26 27  1  0
 27 28  2  0
 29 28  1  0
  3 30  1  0
  6 31  1  0
  7 32  1  0
  8 33  1  0
 12 34  1  0
 13 35  1  0
 14 36  1  0
 20 37  1  0
 21 38  1  0
 22 39  1  0
 24 40  1  0
 26 41  1  0
 28 42  1  0
M  ISO  8  30  14  31  14  32  14  33  14  34  14  35  14  36   9  37  14
M  ISO  5  38  14  39  14  40  14  41  14  42  14
M  END
>  <minimizedAffinity>  (1) 
-6.51581621

>  <minimizedRMSD>  (1) 
1.0047009

$$$$
