
     RDKit          3D

 26 28  0  0  0  0  0  0  0  0999 V2000
   35.7430   29.3880   48.9080 C   0  0  0  0  0  0  0  0  0  0  0  0
   35.1710   30.1840   47.9510 C   0  0  0  0  0  0  0  0  0  0  0  0
   33.9650   29.5680   47.5840 C   0  0  0  0  0  0  0  0  0  0  0  0
   33.8830   28.4120   48.3600 C   0  0  0  0  0  0  0  0  0  0  0  0
   34.9590   28.3590   49.1220 O   0  0  0  0  0  0  0  0  0  0  0  0
   32.7620   27.4790   48.2790 C   0  0  0  0  0  0  0  0  0  0  0  0
   31.4630   27.6550   48.7230 C   0  0  0  0  0  0  0  0  0  0  0  0
   30.7600   26.5260   48.4380 C   0  0  0  0  0  0  0  0  0  0  0  0
   31.6010   25.6550   47.8240 N   0  0  0  0  0  0  0  0  0  0  0  0
   32.7870   26.2420   47.7400 N   0  0  0  0  0  0  0  0  0  0  0  0
   37.0070   29.7290   49.5130 C   0  0  0  0  0  0  0  0  0  0  0  0
   37.4300   29.0400   50.4790 O   0  0  0  0  0  0  0  0  0  0  0  0
   37.7370   30.8650   48.9720 C   0  0  0  0  0  0  0  0  0  0  0  0
   37.7500   32.0290   49.7410 C   0  0  0  0  0  0  0  0  0  0  0  0
   38.4470   33.1240   49.2300 C   0  0  0  0  0  0  0  0  0  0  0  0
   39.0700   32.9980   48.0210 N   0  0  0  0  0  0  0  0  0  0  0  0
   39.0320   31.8550   47.3110 C   0  0  0  0  0  0  0  0  0  0  0  0
   38.3670   30.8020   47.7930 N   0  0  0  0  0  0  0  0  0  0  0  0
   35.5780   31.1234   47.5486 H   0  0  0  0  0  0  0  0  0  0  0  0
   33.2366   29.9226   46.8399 H   0  0  0  0  0  0  0  0  0  0  0  0
   31.0674   28.5528   49.2204 H   0  0  0  0  0  0  0  0  0  0  0  0
   29.6981   26.3499   48.6648 H   0  0  0  0  0  0  0  0  0  0  0  0
   31.3619   24.7120   47.4857 H   0  0  0  0  0  0  0  0  0  0  0  0
   37.2321   32.0811   50.7101 H   0  0  0  0  0  0  0  0  0  0  0  0
   38.4940   34.0699   49.7895 H   0  0  0  0  0  0  0  0  0  0  0  0
   39.5452   31.7888   46.3403 H   0  0  0  0  0  0  0  0  0  0  0  0
  1  5  1  0
  1 11  1  0
  2  1  2  0
  3  2  1  0
  3  4  2  0
  4  5  1  0
  6  4  1  0
  6  7  1  0
  8  7  2  0
  9  8  1  0
 10  9  1  0
 10  6  2  0
 11 12  2  0
 13 11  1  0
 13 14  2  0
 15 14  1  0
 16 15  2  0
 17 18  2  0
 17 16  1  0
 18 13  1  0
  2 19  1  0
  3 20  1  0
  7 21  1  0
  8 22  1  0
  9 23  1  0
 14 24  1  0
 15 25  1  0
 17 26  1  0
M  ISO  8  19  14  20  14  21  14  22  14  23   9  24  14  25  14  26  14
M  END
>  <minimizedAffinity>  (1) 
-5.32017517

>  <minimizedRMSD>  (1) 
1.48060632

$$$$
