
     RDKit          3D

 39 42  0  0  1  0  0  0  0  0999 V2000
   32.5220   27.9500   48.7830 N   0  0  0  0  0  0  0  0  0  0  0  0
   33.4100   27.3110   47.8250 C   0  0  0  0  0  0  0  0  0  0  0  0
   34.6990   28.0560   48.0070 C   0  0  0  0  0  0  0  0  0  0  0  0
   34.3340   29.2750   48.9680 C   0  0  1  0  0  0  0  0  0  0  0  0
   33.3490   28.6010   49.8190 C   0  0  0  0  0  0  0  0  0  0  0  0
   36.0600   31.1850   47.7760 F   0  0  0  0  0  0  0  0  0  0  0  0
   36.2990   30.6740   49.0000 C   0  0  0  0  0  0  0  0  0  0  0  0
   35.5710   29.7030   49.6360 C   0  0  0  0  0  0  0  0  0  0  0  0
   35.9970   29.2780   50.9070 C   0  0  0  0  0  0  0  0  0  0  0  0
   37.1110   29.8100   51.5170 C   0  0  0  0  0  0  0  0  0  0  0  0
   37.8340   30.7960   50.8480 C   0  0  0  0  0  0  0  0  0  0  0  0
   37.4160   31.2240   49.5760 C   0  0  0  0  0  0  0  0  0  0  0  0
   38.2510   32.2580   48.9790 C   0  0  0  0  0  0  0  0  0  0  0  0
   38.7490   33.4320   49.4740 C   0  0  0  0  0  0  0  0  0  0  0  0
   39.5040   34.1060   48.5410 C   0  0  0  0  0  0  0  0  0  0  0  0
   39.4380   33.2960   47.4740 N   0  0  0  0  0  0  0  0  0  0  0  0
   38.7150   32.2230   47.7200 N   0  0  0  0  0  0  0  0  0  0  0  0
   31.1150   27.9730   48.7620 C   0  0  0  0  0  0  0  0  0  0  0  0
   30.5260   28.0520   47.4920 C   0  0  0  0  0  0  0  0  0  0  0  0
   29.1240   28.0890   47.3990 C   0  0  0  0  0  0  0  0  0  0  0  0
   28.4280   28.0430   48.5930 N   0  0  0  0  0  0  0  0  0  0  0  0
   29.0230   27.9680   49.7830 C   0  0  0  0  0  0  0  0  0  0  0  0
   30.3780   27.9330   49.8700 N   0  0  0  0  0  0  0  0  0  0  0  0
   33.0304   27.4234   46.7987 H   0  0  0  0  0  0  0  0  0  0  0  0
   33.5106   26.2273   47.9845 H   0  0  0  0  0  0  0  0  0  0  0  0
   35.4576   27.4096   48.4724 H   0  0  0  0  0  0  0  0  0  0  0  0
   35.1211   28.3947   47.0494 H   0  0  0  0  0  0  0  0  0  0  0  0
   33.9364   30.2055   48.5367 H   0  0  0  0  0  0  0  0  0  0  0  0
   32.7664   29.3178   50.4163 H   0  0  0  0  0  0  0  0  0  0  0  0
   33.7737   27.9191   50.5705 H   0  0  0  0  0  0  0  0  0  0  0  0
   35.4236   28.4979   51.4291 H   0  0  0  0  0  0  0  0  0  0  0  0
   37.4242   29.4635   52.5129 H   0  0  0  0  0  0  0  0  0  0  0  0
   38.7277   31.2373   51.3133 H   0  0  0  0  0  0  0  0  0  0  0  0
   38.5676   33.7945   50.4966 H   0  0  0  0  0  0  0  0  0  0  0  0
   40.0292   35.0670   48.6445 H   0  0  0  0  0  0  0  0  0  0  0  0
   39.8967   33.4895   46.5723 H   0  0  0  0  0  0  0  0  0  0  0  0
   31.1490   28.0844   46.5860 H   0  0  0  0  0  0  0  0  0  0  0  0
   28.6085   28.1512   46.4292 H   0  0  0  0  0  0  0  0  0  0  0  0
   28.4143   27.9343   50.6986 H   0  0  0  0  0  0  0  0  0  0  0  0
  1  5  1  0
  2  3  1  0
  2  1  1  0
  3  4  1  0
  4  8  1  0
  4  5  1  0
  6  7  1  0
  7 12  2  0
  7  8  1  0
  8  9  2  0
  9 10  1  0
 11 10  2  0
 12 11  1  0
 13 14  1  0
 13 12  1  0
 15 14  2  0
 16 17  1  0
 16 15  1  0
 17 13  2  0
 18  1  1  0
 18 23  1  0
 19 18  2  0
 20 19  1  0
 20 21  2  0
 21 22  1  0
 22 23  2  0
  2 24  1  0
  2 25  1  0
  3 26  1  0
  3 27  1  0
  4 28  1  6
  5 29  1  0
  5 30  1  0
  9 31  1  0
 10 32  1  0
 11 33  1  0
 14 34  1  0
 15 35  1  0
 16 36  1  0
 19 37  1  0
 20 38  1  0
 22 39  1  0
M  ISO  8  24  13  25  13  26  13  27  13  28  13  29  13  30  13  31  14
M  ISO  8  32  14  33  14  34  14  35  14  36   9  37  14  38  14  39  14
M  END
>  <minimizedAffinity>  (1) 
-7.18004131

>  <minimizedRMSD>  (1) 
2.93853784

$$$$
