
     RDKit          3D

 23 24  0  0  0  0  0  0  0  0999 V2000
   38.0840   30.6470   47.6910 C   0  0  0  0  0  0  0  0  0  0  0  0
   37.3440   30.2120   51.3780 C   0  0  0  0  0  0  0  0  0  0  0  0
   38.0130   30.6550   50.2140 C   0  0  0  0  0  0  0  0  0  0  0  0
   37.4900   30.2620   48.9930 C   0  0  0  0  0  0  0  0  0  0  0  0
   36.3670   29.4770   48.9840 N   0  0  0  0  0  0  0  0  0  0  0  0
   35.7550   29.0730   50.1130 C   0  0  0  0  0  0  0  0  0  0  0  0
   36.2480   29.4440   51.3190 N   0  0  0  0  0  0  0  0  0  0  0  0
   38.8380   31.9620   47.8260 C   0  0  0  0  0  0  0  0  0  0  0  0
   39.0140   32.4720   46.4180 C   0  0  0  0  0  0  0  0  0  0  0  0
   40.1330   33.0860   45.8710 C   0  0  0  0  0  0  0  0  0  0  0  0
   39.8340   33.3790   44.5560 C   0  0  0  0  0  0  0  0  0  0  0  0
   38.5700   32.9530   44.3140 N   0  0  0  0  0  0  0  0  0  0  0  0
   38.0890   32.4100   45.4440 N   0  0  0  0  0  0  0  0  0  0  0  0
   37.2830   30.7622   46.9460 H   0  0  0  0  0  0  0  0  0  0  0  0
   38.7851   29.8624   47.3701 H   0  0  0  0  0  0  0  0  0  0  0  0
   37.7356   30.5071   52.3627 H   0  0  0  0  0  0  0  0  0  0  0  0
   38.9120   31.2859   50.2754 H   0  0  0  0  0  0  0  0  0  0  0  0
   34.8556   28.4423   50.0563 H   0  0  0  0  0  0  0  0  0  0  0  0
   38.2567   32.6787   48.4246 H   0  0  0  0  0  0  0  0  0  0  0  0
   39.8038   31.8282   48.3352 H   0  0  0  0  0  0  0  0  0  0  0  0
   41.0799   33.2989   46.3887 H   0  0  0  0  0  0  0  0  0  0  0  0
   40.5020   33.8704   43.8333 H   0  0  0  0  0  0  0  0  0  0  0  0
   38.0662   33.0321   43.4191 H   0  0  0  0  0  0  0  0  0  0  0  0
  1  8  1  0
  1  4  1  0
  3  2  2  0
  4  3  1  0
  5  4  2  0
  5  6  1  0
  6  7  2  0
  7  2  1  0
  9  8  1  0
 10  9  1  0
 11 10  2  0
 12 11  1  0
 12 13  1  0
 13  9  2  0
  1 14  1  0
  1 15  1  0
  2 16  1  0
  3 17  1  0
  6 18  1  0
  8 19  1  0
  8 20  1  0
 10 21  1  0
 11 22  1  0
 12 23  1  0
M  ISO  8  14   8  15   8  16  14  17  14  18  14  19   8  20   8  21  14
M  ISO  2  22  14  23   9
M  END
>  <minimizedAffinity>  (1) 
-5.04310417

>  <minimizedRMSD>  (1) 
0.879639685

$$$$
