
     RDKit          3D

 43 46  0  0  1  0  0  0  0  0999 V2000
   35.1390   30.2360   50.1230 C   0  0  2  0  0  0  0  0  0  0  0  0
   36.0740   31.1750   49.4590 C   0  0  0  0  0  0  0  0  0  0  0  0
   37.5420   30.7130   49.5380 C   0  0  2  0  0  0  0  0  0  0  0  0
   38.0150   30.4610   50.9000 C   0  0  0  0  0  0  0  0  0  0  0  0
   36.9640   29.8240   51.8050 C   0  0  0  0  0  0  0  0  0  0  0  0
   35.8380   29.2280   51.0050 C   0  0  0  0  0  0  0  0  0  0  0  0
   38.0330   30.4480   46.6530 Cl  0  0  0  0  0  0  0  0  0  0  0  0
   38.6090   31.8250   47.5760 C   0  0  0  0  0  0  0  0  0  0  0  0
   38.2980   31.8470   48.9310 C   0  0  0  0  0  0  0  0  0  0  0  0
   38.7860   32.9620   49.5710 C   0  0  0  0  0  0  0  0  0  0  0  0
   39.5060   33.9460   48.9340 C   0  0  0  0  0  0  0  0  0  0  0  0
   39.7770   33.8510   47.5780 C   0  0  0  0  0  0  0  0  0  0  0  0
   39.3030   32.7390   46.8810 C   0  0  0  0  0  0  0  0  0  0  0  0
   39.6530   32.7570   45.4740 C   0  0  0  0  0  0  0  0  0  0  0  0
   39.8770   31.7740   44.5410 C   0  0  0  0  0  0  0  0  0  0  0  0
   40.1910   32.2540   43.3000 C   0  0  0  0  0  0  0  0  0  0  0  0
   40.1530   33.5810   43.4960 N   0  0  0  0  0  0  0  0  0  0  0  0
   39.8450   33.8700   44.7440 N   0  0  0  0  0  0  0  0  0  0  0  0
   34.3030   29.4860   49.1730 C   0  0  0  0  0  0  0  0  0  0  0  0
   34.3620   29.9310   47.8510 C   0  0  0  0  0  0  0  0  0  0  0  0
   33.5950   29.2390   46.9030 C   0  0  0  0  0  0  0  0  0  0  0  0
   32.8260   28.1610   47.3140 N   0  0  0  0  0  0  0  0  0  0  0  0
   32.7990   27.7650   48.6090 C   0  0  0  0  0  0  0  0  0  0  0  0
   33.5380   28.4390   49.4920 N   0  0  0  0  0  0  0  0  0  0  0  0
   34.5054   30.8917   50.7383 H   0  0  0  0  0  0  0  0  0  0  0  0
   35.9885   32.1582   49.9448 H   0  0  0  0  0  0  0  0  0  0  0  0
   35.7980   31.2197   48.3951 H   0  0  0  0  0  0  0  0  0  0  0  0
   37.6753   29.7491   49.0250 H   0  0  0  0  0  0  0  0  0  0  0  0
   38.8828   29.7871   50.8474 H   0  0  0  0  0  0  0  0  0  0  0  0
   38.2687   31.4373   51.3387 H   0  0  0  0  0  0  0  0  0  0  0  0
   37.4386   29.0305   52.4009 H   0  0  0  0  0  0  0  0  0  0  0  0
   36.5486   30.6067   52.4568 H   0  0  0  0  0  0  0  0  0  0  0  0
   35.1010   28.8018   51.7016 H   0  0  0  0  0  0  0  0  0  0  0  0
   36.2733   28.4621   50.3463 H   0  0  0  0  0  0  0  0  0  0  0  0
   38.5906   33.0728   50.6478 H   0  0  0  0  0  0  0  0  0  0  0  0
   39.8690   34.8137   49.5044 H   0  0  0  0  0  0  0  0  0  0  0  0
   40.3526   34.6343   47.0631 H   0  0  0  0  0  0  0  0  0  0  0  0
   39.8100   30.7004   44.7710 H   0  0  0  0  0  0  0  0  0  0  0  0
   40.4165   31.6965   42.3789 H   0  0  0  0  0  0  0  0  0  0  0  0
   40.3403   34.2826   42.7655 H   0  0  0  0  0  0  0  0  0  0  0  0
   34.9856   30.7906   47.5645 H   0  0  0  0  0  0  0  0  0  0  0  0
   33.6032   29.5473   45.8471 H   0  0  0  0  0  0  0  0  0  0  0  0
   32.1836   26.9096   48.9246 H   0  0  0  0  0  0  0  0  0  0  0  0
  1  6  1  0
  2  3  1  0
  2  1  1  0
  3  4  1  0
  4  5  1  0
  6  5  1  0
  7  8  1  0
  8  9  2  0
  9  3  1  0
  9 10  1  0
 11 10  2  0
 12 11  1  0
 13  8  1  0
 13 12  2  0
 14 13  1  0
 15 14  1  0
 16 17  1  0
 16 15  2  0
 17 18  1  0
 18 14  2  0
 19 24  1  0
 19  1  1  0
 20 19  2  0
 21 22  2  0
 21 20  1  0
 22 23  1  0
 23 24  2  0
  1 25  1  1
  2 26  1  0
  2 27  1  0
  3 28  1  6
  4 29  1  0
  4 30  1  0
  5 31  1  0
  5 32  1  0
  6 33  1  0
  6 34  1  0
 10 35  1  0
 11 36  1  0
 12 37  1  0
 15 38  1  0
 16 39  1  0
 17 40  1  0
 20 41  1  0
 21 42  1  0
 23 43  1  0
M  ISO  8  25  13  26  13  27  13  28  13  29  13  30  13  31  13  32  13
M  ISO  8  33  13  34  13  35  14  36  14  37  14  38  14  39  14  40   9
M  ISO  3  41  14  42  14  43  14
M  END
>  <minimizedAffinity>  (1) 
-7.48707056

>  <minimizedRMSD>  (1) 
0.46620965

$$$$
