
     RDKit          3D

 28 30  0  0  0  0  0  0  0  0999 V2000
   34.3650   30.1630   48.7300 F   0  0  0  0  0  0  0  0  0  0  0  0
   34.9790   30.1900   47.4880 C   0  0  0  0  0  0  0  0  0  0  0  0
   34.3020   29.8410   46.3280 C   0  0  0  0  0  0  0  0  0  0  0  0
   34.9750   29.8940   45.1260 C   0  0  0  0  0  0  0  0  0  0  0  0
   36.3090   30.2890   45.0640 C   0  0  0  0  0  0  0  0  0  0  0  0
   36.9340   30.6260   46.2530 C   0  0  0  0  0  0  0  0  0  0  0  0
   36.3100   30.5890   47.4690 C   0  0  0  0  0  0  0  0  0  0  0  0
   32.7330   28.2790   47.1650 C   0  0  0  0  0  0  0  0  0  0  0  0
   32.9480   29.4530   46.4850 C   0  0  0  0  0  0  0  0  0  0  0  0
   31.8110   30.1550   46.0160 C   0  0  0  0  0  0  0  0  0  0  0  0
   30.5780   29.6230   46.2680 N   0  0  0  0  0  0  0  0  0  0  0  0
   30.4330   28.4650   46.9430 C   0  0  0  0  0  0  0  0  0  0  0  0
   31.4920   27.7790   47.3990 N   0  0  0  0  0  0  0  0  0  0  0  0
   37.1500   31.0310   48.9950 S   0  0  0  0  0  0  0  0  0  0  0  0
   38.2560   32.4050   48.7270 C   0  0  0  0  0  0  0  0  0  0  0  0
   38.9690   32.6860   47.5730 C   0  0  0  0  0  0  0  0  0  0  0  0
   39.6770   33.8060   47.7940 N   0  0  0  0  0  0  0  0  0  0  0  0
   39.4180   34.2290   49.0640 C   0  0  0  0  0  0  0  0  0  0  0  0
   38.5380   33.3450   49.6160 N   0  0  0  0  0  0  0  0  0  0  0  0
   34.4491   29.6195   44.1997 H   0  0  0  0  0  0  0  0  0  0  0  0
   36.8468   30.3318   44.1054 H   0  0  0  0  0  0  0  0  0  0  0  0
   37.9877   30.9399   46.2172 H   0  0  0  0  0  0  0  0  0  0  0  0
   33.6041   27.7192   47.5363 H   0  0  0  0  0  0  0  0  0  0  0  0
   31.9174   31.1010   45.4649 H   0  0  0  0  0  0  0  0  0  0  0  0
   29.4214   28.0729   47.1244 H   0  0  0  0  0  0  0  0  0  0  0  0
   38.9575   32.0981   46.6434 H   0  0  0  0  0  0  0  0  0  0  0  0
   40.3065   34.2656   47.1207 H   0  0  0  0  0  0  0  0  0  0  0  0
   39.8407   35.1189   49.5532 H   0  0  0  0  0  0  0  0  0  0  0  0
  2  1  1  0
  3  9  1  0
  3  2  2  0
  4  3  1  0
  5  4  2  0
  5  6  1  0
  6  7  2  0
  7  2  1  0
  7 14  1  0
  8 13  2  0
  9  8  1  0
 10 11  1  0
 10  9  2  0
 11 12  2  0
 12 13  1  0
 15 14  1  0
 15 19  1  0
 16 17  1  0
 16 15  2  0
 17 18  1  0
 18 19  2  0
  4 20  1  0
  5 21  1  0
  6 22  1  0
  8 23  1  0
 10 24  1  0
 12 25  1  0
 16 26  1  0
 17 27  1  0
 18 28  1  0
M  ISO  8  20  14  21  14  22  14  23  14  24  14  25  14  26  14  27   9
M  ISO  1  28  14
M  END
>  <minimizedAffinity>  (1) 
-5.00608253

>  <minimizedRMSD>  (1) 
3.71241689

$$$$
