
     RDKit          3D

 41 44  0  0  1  0  0  0  0  0999 V2000
   31.1520   28.1040   47.4260 C   0  0  2  0  0  0  0  0  0  0  0  0
   32.2340   27.4130   48.2040 C   0  0  1  0  0  0  0  0  0  0  0  0
   32.0220   26.0700   48.1180 O   0  0  0  0  0  0  0  0  0  0  0  0
   31.0700   25.8140   47.1370 C   0  0  0  0  0  0  0  0  0  0  0  0
   30.9690   27.0540   46.2820 C   0  0  1  0  0  0  0  0  0  0  0  0
   31.6320   29.3080   46.8720 O   0  0  0  0  0  0  0  0  0  0  0  0
   33.8340   27.7840   47.3790 S   0  0  0  0  0  0  0  0  0  0  0  0
   35.5780   29.3410   50.5750 C   0  0  0  0  0  0  0  0  0  0  0  0
   36.2440   30.4760   50.1060 C   0  0  0  0  0  0  0  0  0  0  0  0
   36.1500   30.7730   48.7390 C   0  0  0  0  0  0  0  0  0  0  0  0
   35.4180   29.9440   47.9450 N   0  0  0  0  0  0  0  0  0  0  0  0
   34.7900   28.8550   48.4450 C   0  0  0  0  0  0  0  0  0  0  0  0
   34.8610   28.5380   49.7640 N   0  0  0  0  0  0  0  0  0  0  0  0
   29.7080   27.1310   45.7440 O   0  0  0  0  0  0  0  0  0  0  0  0
   29.1930   29.7830   44.5990 Cl  0  0  0  0  0  0  0  0  0  0  0  0
   28.3100   28.9570   45.8600 C   0  0  0  0  0  0  0  0  0  0  0  0
   28.6440   27.6980   46.3030 C   0  0  0  0  0  0  0  0  0  0  0  0
   27.8500   27.1130   47.2910 C   0  0  0  0  0  0  0  0  0  0  0  0
   26.7620   27.7890   47.8020 C   0  0  0  0  0  0  0  0  0  0  0  0
   26.4190   29.0560   47.3630 C   0  0  0  0  0  0  0  0  0  0  0  0
   27.2200   29.6430   46.3690 C   0  0  0  0  0  0  0  0  0  0  0  0
   26.7540   30.9680   45.9990 C   0  0  0  0  0  0  0  0  0  0  0  0
   26.5160   32.1170   46.7110 C   0  0  0  0  0  0  0  0  0  0  0  0
   26.0830   33.1390   45.9820 N   0  0  0  0  0  0  0  0  0  0  0  0
   26.0340   32.6410   44.7360 C   0  0  0  0  0  0  0  0  0  0  0  0
   26.4330   31.3620   44.7660 N   0  0  0  0  0  0  0  0  0  0  0  0
   30.2535   28.3682   48.0030 H   0  0  0  0  0  0  0  0  0  0  0  0
   32.2400   27.7427   49.2534 H   0  0  0  0  0  0  0  0  0  0  0  0
   31.3823   24.9566   46.5228 H   0  0  0  0  0  0  0  0  0  0  0  0
   30.0975   25.5702   47.5894 H   0  0  0  0  0  0  0  0  0  0  0  0
   31.6593   27.1422   45.4301 H   0  0  0  0  0  0  0  0  0  0  0  0
   31.8802   29.9306   47.6006 H   0  0  0  0  0  0  0  0  0  0  0  0
   35.6411   29.0937   51.6450 H   0  0  0  0  0  0  0  0  0  0  0  0
   36.8236   31.1161   50.7874 H   0  0  0  0  0  0  0  0  0  0  0  0
   36.6555   31.6546   48.3181 H   0  0  0  0  0  0  0  0  0  0  0  0
   28.0935   26.1072   47.6640 H   0  0  0  0  0  0  0  0  0  0  0  0
   26.1502   27.3082   48.5795 H   0  0  0  0  0  0  0  0  0  0  0  0
   25.5488   29.5855   47.7782 H   0  0  0  0  0  0  0  0  0  0  0  0
   26.6714   32.1857   47.7978 H   0  0  0  0  0  0  0  0  0  0  0  0
   25.8417   34.0893   46.2978 H   0  0  0  0  0  0  0  0  0  0  0  0
   25.7182   33.1923   43.8381 H   0  0  0  0  0  0  0  0  0  0  0  0
  1  2  1  0
  3  2  1  0
  4  3  1  0
  5  4  1  0
  5  1  1  0
  6  1  1  0
  7  2  1  0
  7 12  1  0
  9  8  2  0
 10  9  1  0
 11 12  1  0
 11 10  2  0
 12 13  2  0
 13  8  1  0
 14  5  1  0
 14 17  1  0
 15 16  1  0
 16 17  2  0
 16 21  1  0
 17 18  1  0
 18 19  2  0
 20 19  1  0
 21 20  2  0
 22 21  1  0
 22 23  2  0
 24 23  1  0
 25 26  2  0
 25 24  1  0
 26 22  1  0
  1 27  1  1
  2 28  1  1
  4 29  1  0
  4 30  1  0
  5 31  1  6
  6 32  1  0
  8 33  1  0
  9 34  1  0
 10 35  1  0
 18 36  1  0
 19 37  1  0
 20 38  1  0
 23 39  1  0
 24 40  1  0
 25 41  1  0
M  ISO  8  27  13  28  13  29  13  30  13  31  13  32   3  33  14  34  14
M  ISO  7  35  14  36  14  37  14  38  14  39  14  40   9  41  14
M  END
>  <minimizedAffinity>  (1) 
-5.66734266

>  <minimizedRMSD>  (1) 
1.81860197

$$$$
