
     RDKit          3D

 28 30  0  0  0  0  0  0  0  0999 V2000
   36.9980   29.6490   49.7130 C   0  0  0  0  0  0  0  0  0  0  0  0
   37.6270   30.3300   48.6580 C   0  0  0  0  0  0  0  0  0  0  0  0
   36.9400   30.4990   47.4700 C   0  0  0  0  0  0  0  0  0  0  0  0
   35.6830   29.9890   47.3920 N   0  0  0  0  0  0  0  0  0  0  0  0
   35.1030   29.3410   48.4130 C   0  0  0  0  0  0  0  0  0  0  0  0
   35.7670   29.1740   49.5740 N   0  0  0  0  0  0  0  0  0  0  0  0
   37.4670   31.1830   46.2930 C   0  0  0  0  0  0  0  0  0  0  0  0
   36.8910   31.0810   45.0580 C   0  0  0  0  0  0  0  0  0  0  0  0
   37.3900   31.7290   43.9420 C   0  0  0  0  0  0  0  0  0  0  0  0
   38.4950   32.5010   44.0620 N   0  0  0  0  0  0  0  0  0  0  0  0
   39.0480   32.5920   45.2790 C   0  0  0  0  0  0  0  0  0  0  0  0
   38.5720   31.9710   46.3560 N   0  0  0  0  0  0  0  0  0  0  0  0
   40.2650   33.4360   45.4360 C   0  0  0  0  0  0  0  0  0  0  0  0
   40.2760   33.9090   46.7440 F   0  0  0  0  0  0  0  0  0  0  0  0
   41.4240   32.7150   45.1690 F   0  0  0  0  0  0  0  0  0  0  0  0
   40.2460   34.5290   44.6320 F   0  0  0  0  0  0  0  0  0  0  0  0
   33.7480   28.8350   48.2180 C   0  0  0  0  0  0  0  0  0  0  0  0
   32.8770   28.9860   47.1590 C   0  0  0  0  0  0  0  0  0  0  0  0
   31.7100   28.3310   47.4210 N   0  0  0  0  0  0  0  0  0  0  0  0
   31.8640   27.7760   48.6450 C   0  0  0  0  0  0  0  0  0  0  0  0
   33.0860   28.0750   49.1290 N   0  0  0  0  0  0  0  0  0  0  0  0
   37.5315   29.5080   50.6645 H   0  0  0  0  0  0  0  0  0  0  0  0
   38.6481   30.7220   48.7747 H   0  0  0  0  0  0  0  0  0  0  0  0
   35.9921   30.4569   44.9463 H   0  0  0  0  0  0  0  0  0  0  0  0
   36.8934   31.6178   42.9668 H   0  0  0  0  0  0  0  0  0  0  0  0
   33.0919   29.5508   46.2399 H   0  0  0  0  0  0  0  0  0  0  0  0
   30.8815   28.2711   46.8120 H   0  0  0  0  0  0  0  0  0  0  0  0
   31.1067   27.1721   49.1664 H   0  0  0  0  0  0  0  0  0  0  0  0
  2  1  2  0
  3  2  1  0
  4  3  2  0
  4  5  1  0
  5  6  2  0
  6  1  1  0
  7 12  1  0
  7  3  1  0
  8  7  2  0
  9 10  2  0
  9  8  1  0
 10 11  1  0
 11 13  1  0
 11 12  2  0
 13 14  1  0
 15 13  1  0
 16 13  1  0
 17  5  1  0
 17 21  1  0
 18 19  1  0
 18 17  2  0
 19 20  1  0
 20 21  2  0
  1 22  1  0
  2 23  1  0
  8 24  1  0
  9 25  1  0
 18 26  1  0
 19 27  1  0
 20 28  1  0
M  ISO  7  22  14  23  14  24  14  25  14  26  14  27   9  28  14
M  END
>  <minimizedAffinity>  (1) 
-5.89781761

>  <minimizedRMSD>  (1) 
1.80596578

$$$$
