
     RDKit          3D

 41 44  0  0  0  0  0  0  0  0999 V2000
   32.8640   27.7750   48.6770 C   0  0  0  0  0  0  0  0  0  0  0  0
   33.2290   27.0030   47.4610 C   0  0  0  0  0  0  0  0  0  0  0  0
   33.7510   25.7130   47.5240 C   0  0  0  0  0  0  0  0  0  0  0  0
   34.0930   25.0060   46.4050 C   0  0  0  0  0  0  0  0  0  0  0  0
   33.9300   25.5560   45.1510 C   0  0  0  0  0  0  0  0  0  0  0  0
   33.4240   26.8080   45.0810 C   0  0  0  0  0  0  0  0  0  0  0  0
   33.0720   27.5390   46.2040 C   0  0  0  0  0  0  0  0  0  0  0  0
   32.5320   28.8780   45.9980 C   0  0  0  0  0  0  0  0  0  0  0  0
   31.2170   29.2080   45.7290 C   0  0  0  0  0  0  0  0  0  0  0  0
   31.0440   30.5340   45.5910 N   0  0  0  0  0  0  0  0  0  0  0  0
   32.2570   31.0730   45.7700 C   0  0  0  0  0  0  0  0  0  0  0  0
   33.0990   30.0790   46.0060 N   0  0  0  0  0  0  0  0  0  0  0  0
   35.2520   28.4300   48.9550 C   0  0  0  0  0  0  0  0  0  0  0  0
   33.9780   28.5660   49.2280 C   0  0  0  0  0  0  0  0  0  0  0  0
   37.3050   30.1320   51.4510 C   0  0  0  0  0  0  0  0  0  0  0  0
   38.0420   31.0240   50.6500 C   0  0  0  0  0  0  0  0  0  0  0  0
   37.8090   31.0120   49.2640 C   0  0  0  0  0  0  0  0  0  0  0  0
   36.8780   30.1340   48.7670 N   0  0  0  0  0  0  0  0  0  0  0  0
   36.2080   29.3060   49.6010 C   0  0  0  0  0  0  0  0  0  0  0  0
   36.4090   29.2980   50.9120 N   0  0  0  0  0  0  0  0  0  0  0  0
   38.5180   31.8990   48.3280 C   0  0  0  0  0  0  0  0  0  0  0  0
   38.8710   31.5160   47.0610 C   0  0  0  0  0  0  0  0  0  0  0  0
   39.5190   32.5900   46.4540 C   0  0  0  0  0  0  0  0  0  0  0  0
   39.5340   33.5860   47.3830 N   0  0  0  0  0  0  0  0  0  0  0  0
   38.9340   33.1570   48.4890 N   0  0  0  0  0  0  0  0  0  0  0  0
   32.5236   27.0687   49.4485 H   0  0  0  0  0  0  0  0  0  0  0  0
   32.0767   28.4854   48.3847 H   0  0  0  0  0  0  0  0  0  0  0  0
   33.8932   25.2463   48.5099 H   0  0  0  0  0  0  0  0  0  0  0  0
   34.5017   23.9897   46.5058 H   0  0  0  0  0  0  0  0  0  0  0  0
   34.2011   24.9978   44.2427 H   0  0  0  0  0  0  0  0  0  0  0  0
   33.2860   27.2656   44.0902 H   0  0  0  0  0  0  0  0  0  0  0  0
   30.4057   28.4707   45.6383 H   0  0  0  0  0  0  0  0  0  0  0  0
   30.1643   31.0306   45.3900 H   0  0  0  0  0  0  0  0  0  0  0  0
   32.5073   32.1434   45.7286 H   0  0  0  0  0  0  0  0  0  0  0  0
   35.5912   27.6613   48.2451 H   0  0  0  0  0  0  0  0  0  0  0  0
   33.7114   29.3557   49.9458 H   0  0  0  0  0  0  0  0  0  0  0  0
   37.4686   30.1205   52.5387 H   0  0  0  0  0  0  0  0  0  0  0  0
   38.7780   31.7097   51.0951 H   0  0  0  0  0  0  0  0  0  0  0  0
   38.6772   30.5345   46.6037 H   0  0  0  0  0  0  0  0  0  0  0  0
   39.9328   32.6260   45.4354 H   0  0  0  0  0  0  0  0  0  0  0  0
   39.9443   34.5213   47.2500 H   0  0  0  0  0  0  0  0  0  0  0  0
  1 14  1  0
  2  3  2  0
  2  1  1  0
  4  3  1  0
  5  4  2  0
  6  5  1  0
  6  7  2  0
  7  2  1  0
  8 12  1  0
  8  7  1  0
  9  8  2  0
 10  9  1  0
 10 11  1  0
 11 12  2  0
 13 14  2  0
 13 19  1  0
 16 15  2  0
 17 16  1  0
 18 17  2  0
 18 19  1  0
 19 20  2  0
 20 15  1  0
 21 25  2  0
 21 17  1  0
 22 21  1  0
 23 22  2  0
 23 24  1  0
 24 25  1  0
  1 26  1  0
  1 27  1  0
  3 28  1  0
  4 29  1  0
  5 30  1  0
  6 31  1  0
  9 32  1  0
 10 33  1  0
 11 34  1  0
 13 35  1  0
 14 36  1  0
 15 37  1  0
 16 38  1  0
 22 39  1  0
 23 40  1  0
 24 41  1  0
M  ISO  8  26   8  27   8  28  14  29  14  30  14  31  14  32  14  33   9
M  ISO  6  34  14  37  14  38  14  39  14  40  14  41   9
M  END
>  <minimizedAffinity>  (1) 
-6.4147954

>  <minimizedRMSD>  (1) 
1.12699521

$$$$
