
     RDKit          3D

 24 26  0  0  0  0  0  0  0  0999 V2000
   36.0800   30.0920   48.8220 C   0  0  0  0  0  0  0  0  0  0  0  0
   35.9590   29.1910   49.8030 C   0  0  0  0  0  0  0  0  0  0  0  0
   34.9320   28.2910   49.7910 C   0  0  0  0  0  0  0  0  0  0  0  0
   34.0620   28.3860   48.7220 C   0  0  0  0  0  0  0  0  0  0  0  0
   34.7550   29.7770   47.7630 S   0  0  0  0  0  0  0  0  0  0  0  0
   38.0130   33.1320   49.4130 C   0  0  0  0  0  0  0  0  0  0  0  0
   38.9610   33.1050   48.3600 C   0  0  0  0  0  0  0  0  0  0  0  0
   38.9170   32.0300   47.4550 C   0  0  0  0  0  0  0  0  0  0  0  0
   37.9690   31.0680   47.6330 N   0  0  0  0  0  0  0  0  0  0  0  0
   37.0920   31.1370   48.6450 C   0  0  0  0  0  0  0  0  0  0  0  0
   37.0900   32.1440   49.5400 N   0  0  0  0  0  0  0  0  0  0  0  0
   32.8810   27.5910   48.4130 C   0  0  0  0  0  0  0  0  0  0  0  0
   32.7600   26.5200   47.5430 C   0  0  0  0  0  0  0  0  0  0  0  0
   31.4700   26.1450   47.6230 N   0  0  0  0  0  0  0  0  0  0  0  0
   30.8020   26.9240   48.4900 C   0  0  0  0  0  0  0  0  0  0  0  0
   31.6820   27.8370   48.9920 N   0  0  0  0  0  0  0  0  0  0  0  0
   36.6908   29.1748   50.6241 H   0  0  0  0  0  0  0  0  0  0  0  0
   34.8054   27.5378   50.5826 H   0  0  0  0  0  0  0  0  0  0  0  0
   38.0249   33.9618   50.1350 H   0  0  0  0  0  0  0  0  0  0  0  0
   39.7105   33.9030   48.2537 H   0  0  0  0  0  0  0  0  0  0  0  0
   39.6322   31.9671   46.6216 H   0  0  0  0  0  0  0  0  0  0  0  0
   33.5487   26.0723   46.9205 H   0  0  0  0  0  0  0  0  0  0  0  0
   31.0522   25.3674   47.0923 H   0  0  0  0  0  0  0  0  0  0  0  0
   29.7361   26.8404   48.7487 H   0  0  0  0  0  0  0  0  0  0  0  0
  1  2  2  0
  3  2  1  0
  4  3  2  0
  5  4  1  0
  5  1  1  0
  6 11  2  0
  7  6  1  0
  8  9  1  0
  8  7  2  0
  9 10  2  0
 10  1  1  0
 10 11  1  0
 12  4  1  0
 12 16  1  0
 13 14  1  0
 13 12  2  0
 14 15  1  0
 15 16  2  0
  2 17  1  0
  3 18  1  0
  6 19  1  0
  7 20  1  0
  8 21  1  0
 13 22  1  0
 14 23  1  0
 15 24  1  0
M  ISO  8  17  14  18  14  19  14  20  14  21  14  22  14  23   9  24  14
M  END
>  <minimizedAffinity>  (1) 
-5.05169821

>  <minimizedRMSD>  (1) 
0.380077332

$$$$
