
     RDKit          3D

 51 54  0  0  0  0  0  0  0  0999 V2000
   34.6720   29.4090   48.7430 C   0  0  0  0  0  0  0  0  0  0  0  0
   37.4390   30.4730   48.4960 Cl  0  0  0  0  0  0  0  0  0  0  0  0
   36.3240   30.2990   47.1360 C   0  0  0  0  0  0  0  0  0  0  0  0
   36.7300   30.6630   45.9010 C   0  0  0  0  0  0  0  0  0  0  0  0
   35.8730   30.5340   44.8310 C   0  0  0  0  0  0  0  0  0  0  0  0
   34.5970   30.0250   45.0520 C   0  0  0  0  0  0  0  0  0  0  0  0
   34.2480   29.6670   46.3680 C   0  0  0  0  0  0  0  0  0  0  0  0
   35.0790   29.7900   47.4220 C   0  0  0  0  0  0  0  0  0  0  0  0
   39.7240   32.8130   46.0300 C   0  0  0  0  0  0  0  0  0  0  0  0
   40.6060   32.0850   45.1480 C   0  0  0  0  0  0  0  0  0  0  0  0
   40.1320   30.9000   44.5570 C   0  0  0  0  0  0  0  0  0  0  0  0
   38.8700   30.4900   44.8400 N   0  0  0  0  0  0  0  0  0  0  0  0
   38.0630   31.1970   45.6730 C   0  0  0  0  0  0  0  0  0  0  0  0
   38.4940   32.3320   46.2490 N   0  0  0  0  0  0  0  0  0  0  0  0
   41.0220   30.2300   43.7110 N   0  0  0  0  0  0  0  0  0  0  0  0
   34.0640   28.0940   48.9790 C   0  0  0  0  0  0  0  0  0  0  0  0
   32.7390   28.2060   49.3090 O   0  0  0  0  0  0  0  0  0  0  0  0
   32.6000   26.4500   47.3630 O   0  0  0  0  0  0  0  0  0  0  0  0
   31.7850   27.3850   48.2160 P   0  0  2  0  0  0  0  0  0  0  0  0
   31.0460   28.6000   47.2350 O   0  0  0  0  0  0  0  0  0  0  0  0
   29.8050   27.2450   45.5830 C   0  0  0  0  0  0  0  0  0  0  0  0
   30.0490   28.3730   46.3150 C   0  0  0  0  0  0  0  0  0  0  0  0
   29.2120   29.4880   46.1570 C   0  0  0  0  0  0  0  0  0  0  0  0
   28.1450   29.4750   45.2820 C   0  0  0  0  0  0  0  0  0  0  0  0
   27.1960   30.3830   44.9370 N   0  0  0  0  0  0  0  0  0  0  0  0
   26.3710   29.8610   44.0170 C   0  0  0  0  0  0  0  0  0  0  0  0
   26.8180   28.5690   43.7720 C   0  0  0  0  0  0  0  0  0  0  0  0
   27.9310   28.3090   44.5560 C   0  0  0  0  0  0  0  0  0  0  0  0
   28.7450   27.2010   44.6970 C   0  0  0  0  0  0  0  0  0  0  0  0
   30.5490   26.5480   48.9290 O   0  0  0  0  0  0  0  0  0  0  0  0
   29.8240   27.3600   49.7700 C   0  0  0  0  0  0  0  0  0  0  0  0
   29.3590   26.6730   50.8910 F   0  0  0  0  0  0  0  0  0  0  0  0
   30.6010   28.3840   50.2630 F   0  0  0  0  0  0  0  0  0  0  0  0
   28.7270   27.8810   49.0970 F   0  0  0  0  0  0  0  0  0  0  0  0
   33.9414   30.1600   49.0779 H   0  0  0  0  0  0  0  0  0  0  0  0
   35.6244   29.3459   49.2897 H   0  0  0  0  0  0  0  0  0  0  0  0
   36.1913   30.8280   43.8199 H   0  0  0  0  0  0  0  0  0  0  0  0
   33.8829   29.9060   44.2238 H   0  0  0  0  0  0  0  0  0  0  0  0
   33.2401   29.2641   46.5462 H   0  0  0  0  0  0  0  0  0  0  0  0
   40.0563   33.7442   46.5122 H   0  0  0  0  0  0  0  0  0  0  0  0
   41.6238   32.4485   44.9434 H   0  0  0  0  0  0  0  0  0  0  0  0
   41.9652   30.6112   43.5499 H   0  0  0  0  0  0  0  0  0  0  0  0
   40.7341   29.3555   43.2492 H   0  0  0  0  0  0  0  0  0  0  0  0
   34.1549   27.4888   48.0649 H   0  0  0  0  0  0  0  0  0  0  0  0
   34.5899   27.6160   49.8186 H   0  0  0  0  0  0  0  0  0  0  0  0
   30.4564   26.3664   45.6997 H   0  0  0  0  0  0  0  0  0  0  0  0
   29.4114   30.3956   46.7456 H   0  0  0  0  0  0  0  0  0  0  0  0
   27.1206   31.3341   45.3252 H   0  0  0  0  0  0  0  0  0  0  0  0
   25.5092   30.3587   43.5484 H   0  0  0  0  0  0  0  0  0  0  0  0
   26.3597   27.8616   43.0652 H   0  0  0  0  0  0  0  0  0  0  0  0
   28.5509   26.2918   44.1091 H   0  0  0  0  0  0  0  0  0  0  0  0
  1 16  1  0
  3  8  2  0
  3  2  1  0
  4  3  1  0
  5  6  1  0
  5  4  2  0
  6  7  2  0
  7  8  1  0
  8  1  1  0
  9 14  2  0
 10  9  1  0
 11 12  1  0
 11 10  2  0
 12 13  2  0
 13  4  1  0
 13 14  1  0
 15 11  1  0
 16 17  1  0
 19 18  2  0
 19 30  1  0
 19 17  1  0
 20 19  1  0
 21 22  2  0
 22 20  1  0
 23 22  1  0
 24 23  2  0
 25 24  1  0
 26 25  1  0
 27 26  2  0
 27 28  1  0
 28 29  2  0
 28 24  1  0
 29 21  1  0
 30 31  1  0
 31 33  1  0
 31 32  1  0
 34 31  1  0
  1 35  1  0
  1 36  1  0
  5 37  1  0
  6 38  1  0
  7 39  1  0
  9 40  1  0
 10 41  1  0
 15 42  1  0
 15 43  1  0
 16 44  1  0
 16 45  1  0
 21 46  1  0
 23 47  1  0
 25 48  1  0
 26 49  1  0
 27 50  1  0
 29 51  1  0
M  ISO  8  35   8  36   8  37  14  38  14  39  14  40  14  41  14  44   8
M  ISO  7  45   8  46  14  47  14  48   9  49  14  50  14  51  14
M  END
>  <minimizedAffinity>  (1) 
-6.21316051

>  <minimizedRMSD>  (1) 
0.841445446

$$$$
