
     RDKit          3D

 42 46  0  0  0  0  0  0  0  0999 V2000
   32.7740   29.3930   46.8290 C   0  0  0  0  0  0  0  0  0  0  0  0
   31.8150   28.4160   46.7380 C   0  0  0  0  0  0  0  0  0  0  0  0
   30.7620   28.4830   45.8400 C   0  0  0  0  0  0  0  0  0  0  0  0
   30.6560   29.5330   45.0200 N   0  0  0  0  0  0  0  0  0  0  0  0
   31.5840   30.4940   45.0970 C   0  0  0  0  0  0  0  0  0  0  0  0
   32.5930   30.4100   45.9710 N   0  0  0  0  0  0  0  0  0  0  0  0
   32.6740   32.2350   43.6790 C   0  0  0  0  0  0  0  0  0  0  0  0
   31.5460   31.6770   44.2390 C   0  0  0  0  0  0  0  0  0  0  0  0
   30.3560   32.3340   43.9180 C   0  0  0  0  0  0  0  0  0  0  0  0
   30.3130   33.4490   43.1100 C   0  0  0  0  0  0  0  0  0  0  0  0
   29.2300   34.1450   42.7480 N   0  0  0  0  0  0  0  0  0  0  0  0
   29.6780   35.1310   41.9660 C   0  0  0  0  0  0  0  0  0  0  0  0
   31.0690   35.0570   41.8340 C   0  0  0  0  0  0  0  0  0  0  0  0
   31.4710   33.9600   42.5810 C   0  0  0  0  0  0  0  0  0  0  0  0
   32.6750   33.3480   42.8660 C   0  0  0  0  0  0  0  0  0  0  0  0
   37.4470   29.1570   50.7980 Br  0  0  0  0  0  0  0  0  0  0  0  0
   36.0160   29.2680   49.5460 C   0  0  0  0  0  0  0  0  0  0  0  0
   35.9850   30.2790   48.5870 C   0  0  0  0  0  0  0  0  0  0  0  0
   34.9250   30.3000   47.7170 C   0  0  0  0  0  0  0  0  0  0  0  0
   33.8960   29.3660   47.7540 C   0  0  0  0  0  0  0  0  0  0  0  0
   33.9560   28.3910   48.7050 C   0  0  0  0  0  0  0  0  0  0  0  0
   35.0120   28.3560   49.5840 C   0  0  0  0  0  0  0  0  0  0  0  0
   38.0270   33.1830   49.4480 C   0  0  0  0  0  0  0  0  0  0  0  0
   39.0360   33.1860   48.4400 C   0  0  0  0  0  0  0  0  0  0  0  0
   38.9910   32.1870   47.4880 C   0  0  0  0  0  0  0  0  0  0  0  0
   37.9920   31.2550   47.5550 N   0  0  0  0  0  0  0  0  0  0  0  0
   37.0450   31.2710   48.5190 C   0  0  0  0  0  0  0  0  0  0  0  0
   37.0790   32.2440   49.4580 N   0  0  0  0  0  0  0  0  0  0  0  0
   31.8850   27.5441   47.4051 H   0  0  0  0  0  0  0  0  0  0  0  0
   30.0163   27.6752   45.8021 H   0  0  0  0  0  0  0  0  0  0  0  0
   33.6417   31.7590   43.8958 H   0  0  0  0  0  0  0  0  0  0  0  0
   29.4125   31.9444   44.3280 H   0  0  0  0  0  0  0  0  0  0  0  0
   28.2531   33.9593   43.0165 H   0  0  0  0  0  0  0  0  0  0  0  0
   29.0426   35.8939   41.4924 H   0  0  0  0  0  0  0  0  0  0  0  0
   31.7142   35.7333   41.2541 H   0  0  0  0  0  0  0  0  0  0  0  0
   33.6159   33.7405   42.4528 H   0  0  0  0  0  0  0  0  0  0  0  0
   34.8873   31.0923   46.9549 H   0  0  0  0  0  0  0  0  0  0  0  0
   33.1607   27.6337   48.7687 H   0  0  0  0  0  0  0  0  0  0  0  0
   35.0444   27.5616   50.3442 H   0  0  0  0  0  0  0  0  0  0  0  0
   38.0303   33.9621   50.2245 H   0  0  0  0  0  0  0  0  0  0  0  0
   39.8213   33.9560   48.4217 H   0  0  0  0  0  0  0  0  0  0  0  0
   39.7458   32.1413   46.6891 H   0  0  0  0  0  0  0  0  0  0  0  0
  1 20  1  0
  2  1  2  0
  3  2  1  0
  4  5  1  0
  4  3  2  0
  5  6  2  0
  6  1  1  0
  7  8  2  0
  8  5  1  0
  9  8  1  0
 10  9  2  0
 11 10  1  0
 12 11  1  0
 13 12  2  0
 13 14  1  0
 14 15  2  0
 14 10  1  0
 15  7  1  0
 17 22  2  0
 17 16  1  0
 18 17  1  0
 19 20  1  0
 19 18  2  0
 20 21  2  0
 21 22  1  0
 23 28  2  0
 24 23  1  0
 25 26  1  0
 25 24  2  0
 26 27  2  0
 27 18  1  0
 27 28  1  0
  2 29  1  0
  3 30  1  0
  7 31  1  0
  9 32  1  0
 11 33  1  0
 12 34  1  0
 13 35  1  0
 15 36  1  0
 19 37  1  0
 21 38  1  0
 22 39  1  0
 23 40  1  0
 24 41  1  0
 25 42  1  0
M  ISO  8  29  14  30  14  31  14  32  14  33   9  34  14  35  14  36  14
M  ISO  6  37  14  38  14  39  14  40  14  41  14  42  14
M  END
>  <minimizedAffinity>  (1) 
-7.12376022

>  <minimizedRMSD>  (1) 
0.756895959

$$$$
