
     RDKit          3D

 39 42  0  0  1  0  0  0  0  0999 V2000
   36.9010   29.2170   50.7650 C   0  0  0  0  0  0  0  0  0  0  0  0
   37.3540   29.7100   49.5380 C   0  0  0  0  0  0  0  0  0  0  0  0
   36.4290   30.2980   48.6940 C   0  0  0  0  0  0  0  0  0  0  0  0
   35.1450   30.3580   49.1110 N   0  0  0  0  0  0  0  0  0  0  0  0
   34.7290   29.8780   50.2940 C   0  0  0  0  0  0  0  0  0  0  0  0
   35.6100   29.3050   51.1250 N   0  0  0  0  0  0  0  0  0  0  0  0
   36.6660   30.8610   47.4040 N   0  0  0  0  0  0  0  0  0  0  0  0
   37.7600   31.7400   47.1030 C   0  0  0  0  0  0  0  0  0  0  0  0
   38.5060   31.4740   45.8580 C   0  0  0  0  0  0  0  0  0  0  0  0
   37.7120   30.9930   44.6930 C   0  0  0  0  0  0  0  0  0  0  0  0
   36.7420   29.9440   45.1640 C   0  0  0  0  0  0  0  0  0  0  0  0
   35.8750   30.6500   46.2330 C   0  0  1  0  0  0  0  0  0  0  0  0
   34.8030   28.3810   46.6470 C   0  0  0  0  0  0  0  0  0  0  0  0
   34.7150   29.7380   46.4160 C   0  0  0  0  0  0  0  0  0  0  0  0
   33.4000   30.2130   46.3630 C   0  0  0  0  0  0  0  0  0  0  0  0
   32.2710   29.4550   46.5190 C   0  0  0  0  0  0  0  0  0  0  0  0
   30.9640   29.7700   46.4950 N   0  0  0  0  0  0  0  0  0  0  0  0
   30.2730   28.6590   46.7020 C   0  0  0  0  0  0  0  0  0  0  0  0
   31.1270   27.6070   46.8640 C   0  0  0  0  0  0  0  0  0  0  0  0
   32.4250   28.1100   46.7490 C   0  0  0  0  0  0  0  0  0  0  0  0
   33.6950   27.5760   46.8120 C   0  0  0  0  0  0  0  0  0  0  0  0
   37.6190   28.7457   51.4522 H   0  0  0  0  0  0  0  0  0  0  0  0
   38.4134   29.6328   49.2523 H   0  0  0  0  0  0  0  0  0  0  0  0
   33.6695   29.9549   50.5796 H   0  0  0  0  0  0  0  0  0  0  0  0
   37.3574   32.7616   47.0375 H   0  0  0  0  0  0  0  0  0  0  0  0
   38.4872   31.5812   47.9129 H   0  0  0  0  0  0  0  0  0  0  0  0
   39.0020   32.4095   45.5601 H   0  0  0  0  0  0  0  0  0  0  0  0
   39.1912   30.6487   46.1018 H   0  0  0  0  0  0  0  0  0  0  0  0
   38.3867   30.5603   43.9397 H   0  0  0  0  0  0  0  0  0  0  0  0
   37.1628   31.8336   44.2438 H   0  0  0  0  0  0  0  0  0  0  0  0
   36.1170   29.5931   44.3296 H   0  0  0  0  0  0  0  0  0  0  0  0
   37.2552   29.0587   45.5676 H   0  0  0  0  0  0  0  0  0  0  0  0
   35.5122   31.6518   45.9597 H   0  0  0  0  0  0  0  0  0  0  0  0
   35.8005   27.9205   46.7021 H   0  0  0  0  0  0  0  0  0  0  0  0
   33.2615   31.2888   46.1801 H   0  0  0  0  0  0  0  0  0  0  0  0
   30.5698   30.7093   46.3426 H   0  0  0  0  0  0  0  0  0  0  0  0
   29.1755   28.5941   46.7379 H   0  0  0  0  0  0  0  0  0  0  0  0
   30.8460   26.5599   47.0501 H   0  0  0  0  0  0  0  0  0  0  0  0
   33.8255   26.4993   46.9953 H   0  0  0  0  0  0  0  0  0  0  0  0
  1  6  2  0
  2  1  1  0
  3  4  1  0
  3  2  2  0
  4  5  2  0
  5  6  1  0
  7  3  1  0
  8  7  1  0
  9  8  1  0
 10 11  1  0
 10  9  1  0
 11 12  1  0
 12 14  1  0
 12  7  1  0
 13 21  2  0
 14 13  1  0
 15 14  2  0
 15 16  1  0
 16 20  2  0
 17 16  1  0
 17 18  1  0
 18 19  2  0
 20 21  1  0
 20 19  1  0
  1 22  1  0
  2 23  1  0
  5 24  1  0
  8 25  1  0
  8 26  1  0
  9 27  1  0
  9 28  1  0
 10 29  1  0
 10 30  1  0
 11 31  1  0
 11 32  1  0
 12 33  1  6
 13 34  1  0
 15 35  1  0
 17 36  1  0
 18 37  1  0
 19 38  1  0
 21 39  1  0
M  ISO  8  22  14  23  14  24  14  25  13  26  13  27  13  28  13  29  13
M  ISO  8  30  13  31  13  32  13  33  13  34  14  35  14  36   9  37  14
M  ISO  2  38  14  39  14
M  END
>  <minimizedAffinity>  (1) 
-4.62129545

>  <minimizedRMSD>  (1) 
2.85272408

$$$$
