
     RDKit          3D

 50 54  0  0  1  0  0  0  0  0999 V2000
   35.3830   30.5490   49.9280 C   0  0  2  0  0  0  0  0  0  0  0  0
   36.3040   31.3450   49.0830 C   0  0  0  0  0  0  0  0  0  0  0  0
   37.7540   30.8320   49.1430 C   0  0  2  0  0  0  0  0  0  0  0  0
   38.3080   30.7550   50.4940 C   0  0  0  0  0  0  0  0  0  0  0  0
   37.3060   30.2640   51.5330 C   0  0  0  0  0  0  0  0  0  0  0  0
   36.1000   29.6380   50.8960 C   0  0  0  0  0  0  0  0  0  0  0  0
   38.1370   30.1070   46.3140 Cl  0  0  0  0  0  0  0  0  0  0  0  0
   38.7750   31.5920   46.9980 C   0  0  0  0  0  0  0  0  0  0  0  0
   38.5110   31.8370   48.3360 C   0  0  0  0  0  0  0  0  0  0  0  0
   39.0450   33.0290   48.7790 C   0  0  0  0  0  0  0  0  0  0  0  0
   39.7670   33.8760   47.9580 C   0  0  0  0  0  0  0  0  0  0  0  0
   39.9870   33.5520   46.6240 C   0  0  0  0  0  0  0  0  0  0  0  0
   39.4650   32.3600   46.1350 C   0  0  0  0  0  0  0  0  0  0  0  0
   39.1060   32.9390   43.8450 C   0  0  0  0  0  0  0  0  0  0  0  0
   39.7020   32.0360   44.7320 C   0  0  0  0  0  0  0  0  0  0  0  0
   40.4100   30.9910   44.1770 C   0  0  0  0  0  0  0  0  0  0  0  0
   40.5090   30.8720   42.8170 C   0  0  0  0  0  0  0  0  0  0  0  0
   41.1570   29.9220   42.1140 N   0  0  0  0  0  0  0  0  0  0  0  0
   40.9810   30.2080   40.8200 C   0  0  0  0  0  0  0  0  0  0  0  0
   40.2120   31.3550   40.6740 C   0  0  0  0  0  0  0  0  0  0  0  0
   39.9240   31.7580   41.9650 C   0  0  0  0  0  0  0  0  0  0  0  0
   39.2050   32.8190   42.4670 C   0  0  0  0  0  0  0  0  0  0  0  0
   34.4570   29.7170   49.1440 C   0  0  0  0  0  0  0  0  0  0  0  0
   34.3810   30.0320   47.7870 C   0  0  0  0  0  0  0  0  0  0  0  0
   33.5240   29.2580   46.9900 C   0  0  0  0  0  0  0  0  0  0  0  0
   32.8010   28.2290   47.5830 N   0  0  0  0  0  0  0  0  0  0  0  0
   32.9080   27.9620   48.9010 C   0  0  0  0  0  0  0  0  0  0  0  0
   33.7300   28.7120   49.6390 N   0  0  0  0  0  0  0  0  0  0  0  0
   34.8195   31.3113   50.4859 H   0  0  0  0  0  0  0  0  0  0  0  0
   36.2851   32.3893   49.4281 H   0  0  0  0  0  0  0  0  0  0  0  0
   35.9617   31.2560   48.0414 H   0  0  0  0  0  0  0  0  0  0  0  0
   37.8155   29.7993   48.7691 H   0  0  0  0  0  0  0  0  0  0  0  0
   39.1636   30.0638   50.4810 H   0  0  0  0  0  0  0  0  0  0  0  0
   38.6014   31.7750   50.7829 H   0  0  0  0  0  0  0  0  0  0  0  0
   37.7966   29.5177   52.1752 H   0  0  0  0  0  0  0  0  0  0  0  0
   36.9698   31.1321   52.1190 H   0  0  0  0  0  0  0  0  0  0  0  0
   35.3956   29.3531   51.6914 H   0  0  0  0  0  0  0  0  0  0  0  0
   36.4546   28.7711   50.3191 H   0  0  0  0  0  0  0  0  0  0  0  0
   38.8902   33.3180   49.8290 H   0  0  0  0  0  0  0  0  0  0  0  0
   40.1710   34.8150   48.3643 H   0  0  0  0  0  0  0  0  0  0  0  0
   40.5616   34.2242   45.9698 H   0  0  0  0  0  0  0  0  0  0  0  0
   38.5333   33.7819   44.2592 H   0  0  0  0  0  0  0  0  0  0  0  0
   40.8967   30.2508   44.8291 H   0  0  0  0  0  0  0  0  0  0  0  0
   41.6866   29.1274   42.5000 H   0  0  0  0  0  0  0  0  0  0  0  0
   41.3887   29.6169   39.9867 H   0  0  0  0  0  0  0  0  0  0  0  0
   39.9000   31.8377   39.7361 H   0  0  0  0  0  0  0  0  0  0  0  0
   38.7248   33.5476   41.7973 H   0  0  0  0  0  0  0  0  0  0  0  0
   34.9705   30.8558   47.3582 H   0  0  0  0  0  0  0  0  0  0  0  0
   33.4257   29.4620   45.9136 H   0  0  0  0  0  0  0  0  0  0  0  0
   32.3308   27.1445   49.3576 H   0  0  0  0  0  0  0  0  0  0  0  0
  1  6  1  0
  2  3  1  0
  2  1  1  0
  3  4  1  0
  4  5  1  0
  6  5  1  0
  7  8  1  0
  8  9  2  0
  9 10  1  0
  9  3  1  0
 11 10  2  0
 12 11  1  0
 13 12  2  0
 13  8  1  0
 14 15  2  0
 15 13  1  0
 16 15  1  0
 17 16  2  0
 18 17  1  0
 19 18  1  0
 20 19  2  0
 20 21  1  0
 21 22  2  0
 21 17  1  0
 22 14  1  0
 23 28  1  0
 23  1  1  0
 24 23  2  0
 25 26  2  0
 25 24  1  0
 26 27  1  0
 27 28  2  0
  1 29  1  1
  2 30  1  0
  2 31  1  0
  3 32  1  6
  4 33  1  0
  4 34  1  0
  5 35  1  0
  5 36  1  0
  6 37  1  0
  6 38  1  0
 10 39  1  0
 11 40  1  0
 12 41  1  0
 14 42  1  0
 16 43  1  0
 18 44  1  0
 19 45  1  0
 20 46  1  0
 22 47  1  0
 24 48  1  0
 25 49  1  0
 27 50  1  0
M  ISO  8  29  13  30  13  31  13  32  13  33  13  34  13  35  13  36  13
M  ISO  8  37  13  38  13  39  14  40  14  41  14  42  14  43  14  44   9
M  ISO  6  45  14  46  14  47  14  48  14  49  14  50  14
M  END
>  <minimizedAffinity>  (1) 
-8.23261929

>  <minimizedRMSD>  (1) 
1.05213916

$$$$
