
     RDKit          3D

 23 24  0  0  0  0  0  0  0  0999 V2000
   35.2890   30.0890   47.1930 C   0  0  0  0  0  0  0  0  0  0  0  0
   32.7000   27.8360   48.7200 C   0  0  0  0  0  0  0  0  0  0  0  0
   33.9110   28.5410   48.5800 C   0  0  0  0  0  0  0  0  0  0  0  0
   34.0520   29.3190   47.4440 C   0  0  0  0  0  0  0  0  0  0  0  0
   33.0240   29.3590   46.5370 N   0  0  0  0  0  0  0  0  0  0  0  0
   31.8840   28.6720   46.7060 C   0  0  0  0  0  0  0  0  0  0  0  0
   31.7130   27.9060   47.7990 N   0  0  0  0  0  0  0  0  0  0  0  0
   36.2680   29.9730   48.3360 C   0  0  0  0  0  0  0  0  0  0  0  0
   37.2350   31.0810   48.3830 C   0  0  0  0  0  0  0  0  0  0  0  0
   38.2410   31.5880   47.6420 C   0  0  0  0  0  0  0  0  0  0  0  0
   38.9140   32.6950   48.0750 C   0  0  0  0  0  0  0  0  0  0  0  0
   38.5380   33.2710   49.2790 C   0  0  0  0  0  0  0  0  0  0  0  0
   37.1830   32.2350   49.8500 S   0  0  0  0  0  0  0  0  0  0  0  0
   35.7650   29.7080   46.2774 H   0  0  0  0  0  0  0  0  0  0  0  0
   35.0143   31.1488   47.0867 H   0  0  0  0  0  0  0  0  0  0  0  0
   32.5521   27.2064   49.6098 H   0  0  0  0  0  0  0  0  0  0  0  0
   34.7065   28.4765   49.3370 H   0  0  0  0  0  0  0  0  0  0  0  0
   31.0877   28.7351   45.9497 H   0  0  0  0  0  0  0  0  0  0  0  0
   35.7038   29.9606   49.2802 H   0  0  0  0  0  0  0  0  0  0  0  0
   36.8395   29.0453   48.1852 H   0  0  0  0  0  0  0  0  0  0  0  0
   38.5192   31.1111   46.6906 H   0  0  0  0  0  0  0  0  0  0  0  0
   39.7366   33.1204   47.4813 H   0  0  0  0  0  0  0  0  0  0  0  0
   38.9684   34.1559   49.7707 H   0  0  0  0  0  0  0  0  0  0  0  0
  1  4  1  0
  1  8  1  0
  3  2  2  0
  4  3  1  0
  5  6  1  0
  5  4  2  0
  6  7  2  0
  7  2  1  0
  8  9  1  0
  9 13  1  0
 10 11  1  0
 10  9  2  0
 11 12  2  0
 12 13  1  0
  1 14  1  0
  1 15  1  0
  2 16  1  0
  3 17  1  0
  6 18  1  0
  8 19  1  0
  8 20  1  0
 10 21  1  0
 11 22  1  0
 12 23  1  0
M  ISO  8  14   8  15   8  16  14  17  14  18  14  19   8  20   8  21  14
M  ISO  2  22  14  23  14
M  END
>  <minimizedAffinity>  (1) 
-3.90604067

>  <minimizedRMSD>  (1) 
4.21254492

$$$$
