
     RDKit          3D

 34 37  0  0  0  0  0  0  0  0999 V2000
   38.8750   30.8830   45.7980 C   0  0  0  0  0  0  0  0  0  0  0  0
   40.0580   31.5570   46.0660 C   0  0  0  0  0  0  0  0  0  0  0  0
   40.8970   31.4950   44.9650 C   0  0  0  0  0  0  0  0  0  0  0  0
   40.1770   30.7740   44.0580 N   0  0  0  0  0  0  0  0  0  0  0  0
   38.9960   30.4120   44.5350 N   0  0  0  0  0  0  0  0  0  0  0  0
   37.7490   30.7280   46.6980 C   0  0  0  0  0  0  0  0  0  0  0  0
   37.9550   30.9280   48.0850 C   0  0  0  0  0  0  0  0  0  0  0  0
   36.8550   30.7740   48.9270 C   0  0  0  0  0  0  0  0  0  0  0  0
   35.6560   30.4440   48.3760 N   0  0  0  0  0  0  0  0  0  0  0  0
   35.4830   30.2570   47.0440 C   0  0  0  0  0  0  0  0  0  0  0  0
   36.5380   30.4010   46.2170 N   0  0  0  0  0  0  0  0  0  0  0  0
   37.0560   30.9830   50.3950 C   0  0  0  0  0  0  0  0  0  0  0  0
   36.5570   32.2390   50.6490 F   0  0  0  0  0  0  0  0  0  0  0  0
   36.3460   30.0660   51.1570 F   0  0  0  0  0  0  0  0  0  0  0  0
   38.3920   30.9640   50.7440 F   0  0  0  0  0  0  0  0  0  0  0  0
   40.5680   30.4020   42.7090 C   0  0  0  0  0  0  0  0  0  0  0  0
   40.2110   31.1880   41.6000 C   0  0  0  0  0  0  0  0  0  0  0  0
   40.6060   30.8180   40.3550 C   0  0  0  0  0  0  0  0  0  0  0  0
   41.3730   29.6370   40.2010 C   0  0  0  0  0  0  0  0  0  0  0  0
   41.5190   29.0510   41.9520 S   0  0  0  0  0  0  0  0  0  0  0  0
   41.9310   28.9600   39.1860 C   0  0  0  0  0  0  0  0  0  0  0  0
   41.7640   27.7170   38.6550 C   0  0  0  0  0  0  0  0  0  0  0  0
   42.5260   27.3500   37.5930 C   0  0  0  0  0  0  0  0  0  0  0  0
   43.4930   28.2680   37.0410 C   0  0  0  0  0  0  0  0  0  0  0  0
   43.2470   29.7450   38.1690 S   0  0  0  0  0  0  0  0  0  0  0  0
   40.2947   32.0653   47.0124 H   0  0  0  0  0  0  0  0  0  0  0  0
   41.9031   31.9245   44.8499 H   0  0  0  0  0  0  0  0  0  0  0  0
   38.9454   31.1947   48.4825 H   0  0  0  0  0  0  0  0  0  0  0  0
   34.4938   29.9910   46.6431 H   0  0  0  0  0  0  0  0  0  0  0  0
   39.6131   32.1006   41.7404 H   0  0  0  0  0  0  0  0  0  0  0  0
   40.3347   31.4259   39.4793 H   0  0  0  0  0  0  0  0  0  0  0  0
   41.0243   27.0222   39.0794 H   0  0  0  0  0  0  0  0  0  0  0  0
   42.4059   26.3495   37.1518 H   0  0  0  0  0  0  0  0  0  0  0  0
   44.1826   28.1374   36.1940 H   0  0  0  0  0  0  0  0  0  0  0  0
  1  2  1  0
  1  6  1  0
  3  2  2  0
  4  5  1  0
  4  3  1  0
  5  1  2  0
  6  7  2  0
  7  8  1  0
  8 12  1  0
  9  8  2  0
 10  9  1  0
 11  6  1  0
 11 10  2  0
 12 13  1  0
 12 15  1  0
 12 14  1  0
 16  4  1  0
 17 16  2  0
 18 17  1  0
 19 18  2  0
 19 20  1  0
 20 16  1  0
 21 19  1  0
 22 21  2  0
 23 22  1  0
 24 23  2  0
 24 25  1  0
 25 21  1  0
  2 26  1  0
  3 27  1  0
  7 28  1  0
 10 29  1  0
 17 30  1  0
 18 31  1  0
 22 32  1  0
 23 33  1  0
 24 34  1  0
M  ISO  8  26  14  27  14  28  14  29  14  30  14  31  14  32  14  33  14
M  ISO  1  34  14
M  END
>  <minimizedAffinity>  (1) 
-6.26697206

>  <minimizedRMSD>  (1) 
0.210643172

$$$$
