
     RDKit          3D

 44 48  0  0  1  0  0  0  0  0999 V2000
   39.0230   32.1250   47.4490 C   0  0  1  0  0  0  0  0  0  0  0  0
   37.7050   30.8620   50.6620 C   0  0  0  0  0  0  0  0  0  0  0  0
   38.4410   31.5160   49.6940 C   0  0  0  0  0  0  0  0  0  0  0  0
   38.0970   31.4790   48.3360 C   0  0  0  0  0  0  0  0  0  0  0  0
   37.0320   30.7970   48.0070 N   0  0  0  0  0  0  0  0  0  0  0  0
   36.3090   30.1510   48.9810 C   0  0  0  0  0  0  0  0  0  0  0  0
   36.6340   30.1820   50.2600 N   0  0  0  0  0  0  0  0  0  0  0  0
   35.1110   29.3890   48.6300 C   0  0  0  0  0  0  0  0  0  0  0  0
   34.5760   28.2370   49.1830 C   0  0  0  0  0  0  0  0  0  0  0  0
   33.4480   27.7240   48.6640 C   0  0  0  0  0  0  0  0  0  0  0  0
   32.8800   28.3900   47.5890 C   0  0  0  0  0  0  0  0  0  0  0  0
   34.0100   29.8100   47.3130 S   0  0  0  0  0  0  0  0  0  0  0  0
   31.6970   28.1670   46.7660 C   0  0  0  0  0  0  0  0  0  0  0  0
   30.9810   27.1330   46.4790 C   0  0  0  0  0  0  0  0  0  0  0  0
   29.9120   27.3200   45.6420 C   0  0  0  0  0  0  0  0  0  0  0  0
   29.6410   28.5710   45.1460 C   0  0  0  0  0  0  0  0  0  0  0  0
   31.0400   29.5720   45.9470 S   0  0  0  0  0  0  0  0  0  0  0  0
   39.1150   31.5760   46.0430 C   0  0  2  0  0  0  0  0  0  0  0  0
   40.5810   31.2130   45.8070 C   0  0  0  0  0  0  0  0  0  0  0  0
   39.8770   32.2670   45.0330 C   0  0  1  0  0  0  0  0  0  0  0  0
   39.8190   32.0060   43.5910 C   0  0  0  0  0  0  0  0  0  0  0  0
   39.1220   32.8900   42.8070 C   0  0  0  0  0  0  0  0  0  0  0  0
   39.1060   32.6360   41.4580 C   0  0  0  0  0  0  0  0  0  0  0  0
   39.7430   31.5630   40.8800 C   0  0  0  0  0  0  0  0  0  0  0  0
   40.4410   30.6880   41.7050 C   0  0  0  0  0  0  0  0  0  0  0  0
   40.4640   30.9260   43.0280 N   0  0  0  0  0  0  0  0  0  0  0  0
   39.2790   33.4040   47.5300 O   0  0  0  0  0  0  0  0  0  0  0  0
   39.8934   31.7535   48.0096 H   0  0  0  0  0  0  0  0  0  0  0  0
   37.9924   30.9015   51.7231 H   0  0  0  0  0  0  0  0  0  0  0  0
   39.3300   32.0870   50.0000 H   0  0  0  0  0  0  0  0  0  0  0  0
   35.0687   27.7483   50.0365 H   0  0  0  0  0  0  0  0  0  0  0  0
   32.9929   26.8112   49.0759 H   0  0  0  0  0  0  0  0  0  0  0  0
   31.2190   26.1407   46.8897 H   0  0  0  0  0  0  0  0  0  0  0  0
   29.2718   26.4685   45.3679 H   0  0  0  0  0  0  0  0  0  0  0  0
   28.8369   28.9012   44.4720 H   0  0  0  0  0  0  0  0  0  0  0  0
   38.1034   31.1471   45.9900 H   0  0  0  0  0  0  0  0  0  0  0  0
   41.3486   31.4833   46.5471 H   0  0  0  0  0  0  0  0  0  0  0  0
   41.1449   30.2981   45.5723 H   0  0  0  0  0  0  0  0  0  0  0  0
   39.9514   33.3481   44.8443 H   0  0  0  0  0  0  0  0  0  0  0  0
   38.6022   33.7585   43.2376 H   0  0  0  0  0  0  0  0  0  0  0  0
   38.5542   33.3277   40.8045 H   0  0  0  0  0  0  0  0  0  0  0  0
   39.7014   31.4011   39.7928 H   0  0  0  0  0  0  0  0  0  0  0  0
   40.9645   29.8174   41.2831 H   0  0  0  0  0  0  0  0  0  0  0  0
   39.3323   33.6702   48.4820 H   0  0  0  0  0  0  0  0  0  0  0  0
  1 27  1  0
  1  4  1  0
  3  2  2  0
  4  3  1  0
  5  4  2  0
  5  6  1  0
  6  7  2  0
  7  2  1  0
  8  6  1  0
  8  9  2  0
 10  9  1  0
 11 10  2  0
 12 11  1  0
 12  8  1  0
 13 11  1  0
 14 13  2  0
 15 14  1  0
 16 15  2  0
 16 17  1  0
 17 13  1  0
 18  1  1  0
 19 18  1  0
 20 19  1  0
 20 18  1  0
 21 20  1  0
 22 21  2  0
 23 22  1  0
 24 23  2  0
 24 25  1  0
 25 26  2  0
 26 21  1  0
  1 28  1  1
  2 29  1  0
  3 30  1  0
  9 31  1  0
 10 32  1  0
 14 33  1  0
 15 34  1  0
 16 35  1  0
 18 36  1  6
 19 37  1  0
 19 38  1  0
 20 39  1  6
 22 40  1  0
 23 41  1  0
 24 42  1  0
 25 43  1  0
 27 44  1  0
M  ISO  8  28   8  29  14  30  14  31  14  32  14  33  14  34  14  35  14
M  ISO  8  36  13  37  13  38  13  39  13  40  14  41  14  42  14  43  14
M  ISO  1  44   3
M  END
>  <minimizedAffinity>  (1) 
-6.59133148

>  <minimizedRMSD>  (1) 
0.310849339

$$$$
