
     RDKit          3D

 38 41  0  0  1  0  0  0  0  0999 V2000
   34.7890   29.8620   47.3780 C   0  0  0  0  0  0  0  0  0  0  0  0
   35.4310   29.9380   46.1430 C   0  0  0  0  0  0  0  0  0  0  0  0
   36.6440   30.6050   46.3300 C   0  0  0  0  0  0  0  0  0  0  0  0
   36.6950   30.9060   47.6470 N   0  0  0  0  0  0  0  0  0  0  0  0
   35.5950   30.4550   48.2240 N   0  0  0  0  0  0  0  0  0  0  0  0
   38.4200   32.5740   47.5770 N   0  0  0  0  0  0  0  0  0  0  0  0
   39.0940   33.4150   48.5430 C   0  0  0  0  0  0  0  0  0  0  0  0
   38.4330   33.1860   49.8870 C   0  0  0  0  0  0  0  0  0  0  0  0
   37.1540   32.4280   49.4820 C   0  0  0  0  0  0  0  0  0  0  0  0
   37.7150   31.5860   48.3780 C   0  0  1  0  0  0  0  0  0  0  0  0
   38.6250   30.6100   48.9240 N   0  0  0  0  0  0  0  0  0  0  0  0
   33.1960   28.3990   48.6230 C   0  0  0  0  0  0  0  0  0  0  0  0
   33.4950   29.2260   47.5390 C   0  0  0  0  0  0  0  0  0  0  0  0
   32.4940   29.4350   46.5840 C   0  0  0  0  0  0  0  0  0  0  0  0
   31.3010   28.8250   46.7680 N   0  0  0  0  0  0  0  0  0  0  0  0
   31.0380   28.0260   47.8320 C   0  0  0  0  0  0  0  0  0  0  0  0
   32.0070   27.8120   48.7750 N   0  0  0  0  0  0  0  0  0  0  0  0
   29.7870   27.4220   47.9700 C   0  0  0  0  0  0  0  0  0  0  0  0
   29.1620   27.4520   49.1660 C   0  0  0  0  0  0  0  0  0  0  0  0
   27.9510   26.9290   49.5060 C   0  0  0  0  0  0  0  0  0  0  0  0
   27.3580   26.2720   48.3110 C   0  0  0  0  0  0  0  0  0  0  0  0
   28.6000   26.5040   46.9240 S   0  0  0  0  0  0  0  0  0  0  0  0
   35.0499   29.5427   45.1899 H   0  0  0  0  0  0  0  0  0  0  0  0
   37.3999   30.8369   45.5653 H   0  0  0  0  0  0  0  0  0  0  0  0
   39.1017   32.1176   46.9542 H   0  0  0  0  0  0  0  0  0  0  0  0
   40.1590   33.1450   48.5975 H   0  0  0  0  0  0  0  0  0  0  0  0
   39.0223   34.4733   48.2517 H   0  0  0  0  0  0  0  0  0  0  0  0
   39.0678   32.5769   50.5473 H   0  0  0  0  0  0  0  0  0  0  0  0
   38.2438   34.1093   50.4543 H   0  0  0  0  0  0  0  0  0  0  0  0
   36.7594   31.8162   50.3066 H   0  0  0  0  0  0  0  0  0  0  0  0
   36.2988   33.0614   49.2037 H   0  0  0  0  0  0  0  0  0  0  0  0
   38.5909   30.6466   49.9528 H   0  0  0  0  0  0  0  0  0  0  0  0
   38.3520   29.6696   48.6046 H   0  0  0  0  0  0  0  0  0  0  0  0
   33.9719   28.2239   49.3829 H   0  0  0  0  0  0  0  0  0  0  0  0
   32.6722   30.0770   45.7087 H   0  0  0  0  0  0  0  0  0  0  0  0
   29.7025   27.9674   49.9736 H   0  0  0  0  0  0  0  0  0  0  0  0
   27.4874   26.9837   50.5020 H   0  0  0  0  0  0  0  0  0  0  0  0
   26.3887   25.7553   48.2522 H   0  0  0  0  0  0  0  0  0  0  0  0
  1 13  1  0
  1  5  2  0
  2  3  2  0
  2  1  1  0
  3  4  1  0
  4  5  1  0
  4 10  1  0
  6 10  1  0
  6  7  1  0
  7  8  1  0
  9  8  1  0
 10 11  1  1
 10  9  1  0
 12 17  2  0
 13 12  1  0
 14 15  1  0
 14 13  2  0
 15 16  2  0
 16 18  1  0
 16 17  1  0
 18 19  2  0
 19 20  1  0
 21 20  2  0
 22 18  1  0
 22 21  1  0
  2 23  1  0
  3 24  1  0
  6 25  1  0
  7 26  1  0
  7 27  1  0
  8 28  1  0
  8 29  1  0
  9 30  1  0
  9 31  1  0
 11 32  1  0
 11 33  1  0
 12 34  1  0
 14 35  1  0
 19 36  1  0
 20 37  1  0
 21 38  1  0
M  ISO  8  23  14  24  14  25   5  26  13  27  13  28  13  29  13  30  13
M  ISO  8  31  13  32   5  33   5  34  14  35  14  36  14  37  14  38  14
M  END
>  <minimizedAffinity>  (1) 
-5.66590071

>  <minimizedRMSD>  (1) 
0.594260037

$$$$
