
     RDKit          3D

 27 29  0  0  0  0  0  0  0  0999 V2000
   37.3730   31.4040   49.3680 C   0  0  0  0  0  0  0  0  0  0  0  0
   38.2820   32.4540   49.5510 C   0  0  0  0  0  0  0  0  0  0  0  0
   38.8680   32.9600   48.4240 C   0  0  0  0  0  0  0  0  0  0  0  0
   38.5520   32.4370   47.2120 N   0  0  0  0  0  0  0  0  0  0  0  0
   37.6670   31.4210   47.0650 C   0  0  0  0  0  0  0  0  0  0  0  0
   37.0590   30.8870   48.1790 N   0  0  0  0  0  0  0  0  0  0  0  0
   36.6770   30.8410   50.5790 C   0  0  0  0  0  0  0  0  0  0  0  0
   36.0880   29.5280   50.6090 C   0  0  0  0  0  0  0  0  0  0  0  0
   37.4620   29.6990   51.2310 C   0  0  0  0  0  0  0  0  0  0  0  0
   37.3020   30.8740   45.7700 C   0  0  0  0  0  0  0  0  0  0  0  0
   38.3250   31.0480   44.7280 C   0  0  0  0  0  0  0  0  0  0  0  0
   39.4860   30.3000   44.4320 C   0  0  0  0  0  0  0  0  0  0  0  0
   40.2550   30.7080   43.3800 C   0  0  0  0  0  0  0  0  0  0  0  0
   39.8700   31.8550   42.6310 C   0  0  0  0  0  0  0  0  0  0  0  0
   38.3040   32.3990   43.4710 S   0  0  0  0  0  0  0  0  0  0  0  0
   38.5126   32.8512   50.5505 H   0  0  0  0  0  0  0  0  0  0  0  0
   39.5909   33.7857   48.4991 H   0  0  0  0  0  0  0  0  0  0  0  0
   36.2474   31.8165   50.8507 H   0  0  0  0  0  0  0  0  0  0  0  0
   35.2187   29.3369   51.2554 H   0  0  0  0  0  0  0  0  0  0  0  0
   35.6754   28.8580   49.8403 H   0  0  0  0  0  0  0  0  0  0  0  0
   38.3542   29.2818   50.7412 H   0  0  0  0  0  0  0  0  0  0  0  0
   37.9255   29.5051   52.2096 H   0  0  0  0  0  0  0  0  0  0  0  0
   37.1143   29.7970   45.8917 H   0  0  0  0  0  0  0  0  0  0  0  0
   36.4133   31.4282   45.4338 H   0  0  0  0  0  0  0  0  0  0  0  0
   39.7615   29.4182   45.0291 H   0  0  0  0  0  0  0  0  0  0  0  0
   41.1667   30.1533   43.1131 H   0  0  0  0  0  0  0  0  0  0  0  0
   40.3758   32.3089   41.7660 H   0  0  0  0  0  0  0  0  0  0  0  0
  1  2  2  0
  1  7  1  0
  3  2  1  0
  4  3  2  0
  5  4  1  0
  5  6  2  0
  6  1  1  0
  7  8  1  0
  7  9  1  0
  8  9  1  0
 10  5  1  0
 11 10  1  0
 12 11  2  0
 13 12  1  0
 14 13  2  0
 14 15  1  0
 15 11  1  0
  2 16  1  0
  3 17  1  0
  7 18  1  0
  8 19  1  0
  8 20  1  0
  9 21  1  0
  9 22  1  0
 10 23  1  0
 10 24  1  0
 12 25  1  0
 13 26  1  0
 14 27  1  0
M  ISO  8  16  14  17  14  18  13  19  13  20  13  21  13  22  13  23   8
M  ISO  4  24   8  25  14  26  14  27  14
M  END
>  <minimizedAffinity>  (1) 
-5.03673267

>  <minimizedRMSD>  (1) 
2.57124567

$$$$
