
     RDKit          3D

 20 21  0  0  0  0  0  0  0  0999 V2000
   39.1360   32.2070   46.9430 C   0  0  0  0  0  0  0  0  0  0  0  0
   39.9590   33.1150   46.2830 C   0  0  0  0  0  0  0  0  0  0  0  0
   40.6420   32.7080   45.1320 C   0  0  0  0  0  0  0  0  0  0  0  0
   40.4540   31.4070   44.7180 N   0  0  0  0  0  0  0  0  0  0  0  0
   39.6530   30.5660   45.3820 C   0  0  0  0  0  0  0  0  0  0  0  0
   38.9970   30.9470   46.4830 N   0  0  0  0  0  0  0  0  0  0  0  0
   38.4250   32.6790   48.1640 C   0  0  0  0  0  0  0  0  0  0  0  0
   37.8090   31.4940   48.7940 C   0  0  0  0  0  0  0  0  0  0  0  0
   38.2650   30.7790   49.9460 C   0  0  0  0  0  0  0  0  0  0  0  0
   37.4910   29.7070   50.3150 C   0  0  0  0  0  0  0  0  0  0  0  0
   36.3850   29.4030   49.5930 C   0  0  0  0  0  0  0  0  0  0  0  0
   36.3260   30.6530   48.2660 S   0  0  0  0  0  0  0  0  0  0  0  0
   40.0711   34.1414   46.6623 H   0  0  0  0  0  0  0  0  0  0  0  0
   41.3003   33.3962   44.5815 H   0  0  0  0  0  0  0  0  0  0  0  0
   39.5312   29.5368   45.0135 H   0  0  0  0  0  0  0  0  0  0  0  0
   39.1381   33.1475   48.8583 H   0  0  0  0  0  0  0  0  0  0  0  0
   37.6607   33.4272   47.9070 H   0  0  0  0  0  0  0  0  0  0  0  0
   39.1720   31.0678   50.4973 H   0  0  0  0  0  0  0  0  0  0  0  0
   37.7662   29.0995   51.1898 H   0  0  0  0  0  0  0  0  0  0  0  0
   35.6763   28.5804   49.7692 H   0  0  0  0  0  0  0  0  0  0  0  0
  1  7  1  0
  2  1  2  0
  3  2  1  0
  4  3  2  0
  4  5  1  0
  5  6  2  0
  6  1  1  0
  7  8  1  0
  8  9  2  0
  9 10  1  0
 11 10  2  0
 12  8  1  0
 12 11  1  0
  2 13  1  0
  3 14  1  0
  5 15  1  0
  7 16  1  0
  7 17  1  0
  9 18  1  0
 10 19  1  0
 11 20  1  0
M  ISO  8  13  14  14  14  15  14  16   8  17   8  18  14  19  14  20  14
M  END
>  <minimizedAffinity>  (1) 
-4.60782385

>  <minimizedRMSD>  (1) 
4.53702831

$$$$
