
     RDKit          3D

 39 41  0  0  1  0  0  0  0  0999 V2000
   37.0190   30.9210   49.0450 C   0  0  0  0  0  0  0  0  0  0  0  0
   36.7180   31.8050   50.0820 C   0  0  0  0  0  0  0  0  0  0  0  0
   37.3020   33.0600   50.1690 C   0  0  0  0  0  0  0  0  0  0  0  0
   38.2220   33.4590   49.1920 C   0  0  0  0  0  0  0  0  0  0  0  0
   38.5080   32.5830   48.1830 C   0  0  0  0  0  0  0  0  0  0  0  0
   37.9040   31.3380   48.1320 C   0  0  0  0  0  0  0  0  0  0  0  0
   36.4360   29.6000   48.9730 C   0  0  2  0  0  0  0  0  0  0  0  0
   33.5840   30.0800   46.7710 C   0  0  0  0  0  0  0  0  0  0  0  0
   32.8820   28.8950   46.8700 C   0  0  0  0  0  0  0  0  0  0  0  0
   33.3470   27.9340   47.7470 C   0  0  0  0  0  0  0  0  0  0  0  0
   34.4830   28.1840   48.4850 N   0  0  0  0  0  0  0  0  0  0  0  0
   35.1110   29.3340   48.3440 C   0  0  0  0  0  0  0  0  0  0  0  0
   34.6690   30.2880   47.4930 N   0  0  0  0  0  0  0  0  0  0  0  0
   36.8830   28.8150   49.8880 O   0  0  0  0  0  0  0  0  0  0  0  0
   38.3270   30.5020   47.0330 C   0  0  0  0  0  0  0  0  0  0  0  0
   39.0020   30.9490   45.9700 C   0  0  0  0  0  0  0  0  0  0  0  0
   39.5240   30.1790   44.8170 C   0  0  0  0  0  0  0  0  0  0  0  0
   40.0680   31.3100   43.5340 S   0  0  0  0  0  0  0  0  0  0  0  0
   38.6700   32.1540   42.8260 C   0  0  0  0  0  0  0  0  0  0  0  0
   38.9600   32.9910   41.7150 C   0  0  0  0  0  0  0  0  0  0  0  0
   38.0340   33.7150   41.0410 C   0  0  0  0  0  0  0  0  0  0  0  0
   36.6790   33.5890   41.5250 C   0  0  0  0  0  0  0  0  0  0  0  0
   36.8100   32.3850   42.9890 S   0  0  0  0  0  0  0  0  0  0  0  0
   35.9963   31.4974   50.8531 H   0  0  0  0  0  0  0  0  0  0  0  0
   37.0447   33.7357   50.9980 H   0  0  0  0  0  0  0  0  0  0  0  0
   38.7005   34.4485   49.2353 H   0  0  0  0  0  0  0  0  0  0  0  0
   39.2269   32.8704   47.4016 H   0  0  0  0  0  0  0  0  0  0  0  0
   36.8281   29.2455   48.0083 H   0  0  0  0  0  0  0  0  0  0  0  0
   33.2340   30.8616   46.0807 H   0  0  0  0  0  0  0  0  0  0  0  0
   31.9781   28.7211   46.2677 H   0  0  0  0  0  0  0  0  0  0  0  0
   32.8147   26.9775   47.8550 H   0  0  0  0  0  0  0  0  0  0  0  0
   36.6690   29.1907   50.7786 H   0  0  0  0  0  0  0  0  0  0  0  0
   38.0782   29.4313   47.0735 H   0  0  0  0  0  0  0  0  0  0  0  0
   39.1957   32.0316   45.9481 H   0  0  0  0  0  0  0  0  0  0  0  0
   40.3730   29.5607   45.1440 H   0  0  0  0  0  0  0  0  0  0  0  0
   38.7283   29.5317   44.4198 H   0  0  0  0  0  0  0  0  0  0  0  0
   40.0057   33.0555   41.3798 H   0  0  0  0  0  0  0  0  0  0  0  0
   38.2959   34.3542   40.1849 H   0  0  0  0  0  0  0  0  0  0  0  0
   35.7752   34.0794   41.1342 H   0  0  0  0  0  0  0  0  0  0  0  0
  1  2  2  0
  2  3  1  0
  4  3  2  0
  5  4  1  0
  6  5  2  0
  6  1  1  0
  7  1  1  0
  7 14  1  0
  8  9  2  0
  8 13  1  0
  9 10  1  0
 10 11  2  0
 12 11  1  0
 12  7  1  0
 13 12  2  0
 15  6  1  0
 16 15  2  0
 17 16  1  0
 18 17  1  0
 19 23  1  0
 19 18  1  0
 20 19  2  0
 21 22  2  0
 21 20  1  0
 22 23  1  0
  2 24  1  0
  3 25  1  0
  4 26  1  0
  5 27  1  0
  7 28  1  6
  8 29  1  0
  9 30  1  0
 10 31  1  0
 14 32  1  0
 15 33  1  0
 16 34  1  0
 17 35  1  0
 17 36  1  0
 20 37  1  0
 21 38  1  0
 22 39  1  0
M  ISO  8  24  14  25  14  26  14  27  14  28   8  29  14  30  14  31  14
M  ISO  6  32   3  35   8  36   8  37  14  38  14  39  14
M  END
>  <minimizedAffinity>  (1) 
-5.70258474

>  <minimizedRMSD>  (1) 
1.10293114

$$$$
