
     RDKit          3D

 37 40  0  0  1  0  0  0  0  0999 V2000
   38.3440   31.8680   44.5640 C   0  0  0  0  0  0  0  0  0  0  0  0
   37.1750   32.3290   44.4470 O   0  0  0  0  0  0  0  0  0  0  0  0
   38.9390   31.7160   45.8600 N   0  0  0  0  0  0  0  0  0  0  0  0
   39.1260   31.4750   43.3730 C   0  0  0  0  0  0  0  0  0  0  0  0
   40.1120   30.5370   43.5290 C   0  0  0  0  0  0  0  0  0  0  0  0
   40.8370   30.1820   42.3990 C   0  0  0  0  0  0  0  0  0  0  0  0
   40.5340   30.7750   41.2150 C   0  0  0  0  0  0  0  0  0  0  0  0
   39.5390   31.7200   41.0600 C   0  0  0  0  0  0  0  0  0  0  0  0
   38.8710   32.0280   42.1720 N   0  0  0  0  0  0  0  0  0  0  0  0
   39.2610   32.3140   39.7890 C   0  0  0  0  0  0  0  0  0  0  0  0
   39.6280   32.0200   38.5410 C   0  0  0  0  0  0  0  0  0  0  0  0
   39.2200   32.7590   37.4720 C   0  0  0  0  0  0  0  0  0  0  0  0
   38.3460   33.8960   37.8060 C   0  0  0  0  0  0  0  0  0  0  0  0
   38.2180   33.7570   39.6790 S   0  0  0  0  0  0  0  0  0  0  0  0
   38.4370   31.1750   48.2440 C   0  0  2  0  0  0  0  0  0  0  0  0
   38.7250   32.6180   48.1850 C   0  0  0  0  0  0  0  0  0  0  0  0
   38.0690   31.8340   47.0160 C   0  0  1  0  0  0  0  0  0  0  0  0
   35.1100   30.2370   49.5470 C   0  0  0  0  0  0  0  0  0  0  0  0
   35.4360   29.5660   50.7690 C   0  0  0  0  0  0  0  0  0  0  0  0
   36.8360   29.4630   51.1130 C   0  0  0  0  0  0  0  0  0  0  0  0
   37.7660   29.9970   50.2790 N   0  0  0  0  0  0  0  0  0  0  0  0
   37.3790   30.6210   49.1320 C   0  0  0  0  0  0  0  0  0  0  0  0
   36.0620   30.7550   48.7430 N   0  0  0  0  0  0  0  0  0  0  0  0
   39.9464   31.5300   45.9666 H   0  0  0  0  0  0  0  0  0  0  0  0
   40.3210   30.0835   44.5092 H   0  0  0  0  0  0  0  0  0  0  0  0
   41.6416   29.4346   42.4615 H   0  0  0  0  0  0  0  0  0  0  0  0
   41.1155   30.4854   40.3273 H   0  0  0  0  0  0  0  0  0  0  0  0
   40.2817   31.1521   38.3693 H   0  0  0  0  0  0  0  0  0  0  0  0
   39.5200   32.5247   36.4399 H   0  0  0  0  0  0  0  0  0  0  0  0
   37.8864   34.6359   37.1342 H   0  0  0  0  0  0  0  0  0  0  0  0
   39.0662   30.3056   48.4851 H   0  0  0  0  0  0  0  0  0  0  0  0
   38.1349   33.3302   48.7805 H   0  0  0  0  0  0  0  0  0  0  0  0
   39.6091   33.2592   48.3162 H   0  0  0  0  0  0  0  0  0  0  0  0
   37.1398   31.8585   46.4278 H   0  0  0  0  0  0  0  0  0  0  0  0
   34.0537   30.3330   49.2553 H   0  0  0  0  0  0  0  0  0  0  0  0
   34.6538   29.1465   51.4188 H   0  0  0  0  0  0  0  0  0  0  0  0
   37.1451   28.9578   52.0399 H   0  0  0  0  0  0  0  0  0  0  0  0
  1  3  1  0
  2  1  2  0
  3 17  1  0
  4  5  2  0
  4  1  1  0
  6  5  1  0
  7  6  2  0
  8  7  1  0
  8  9  2  0
  9  4  1  0
 10  8  1  0
 11 10  2  0
 12 13  2  0
 12 11  1  0
 13 14  1  0
 14 10  1  0
 15 22  1  0
 16 15  1  0
 17 16  1  0
 17 15  1  0
 18 19  2  0
 19 20  1  0
 21 20  2  0
 22 21  1  0
 23 22  2  0
 23 18  1  0
  3 24  1  0
  5 25  1  0
  6 26  1  0
  7 27  1  0
 11 28  1  0
 12 29  1  0
 13 30  1  0
 15 31  1  6
 16 32  1  0
 16 33  1  0
 17 34  1  6
 18 35  1  0
 19 36  1  0
 20 37  1  0
M  ISO  8  25  14  26  14  27  14  28  14  29  14  30  14  31  13  32  13
M  ISO  5  33  13  34  13  35  14  36  14  37  14
M  END
>  <minimizedAffinity>  (1) 
-5.17375374

>  <minimizedRMSD>  (1) 
0.423434049

$$$$
