
     RDKit          3D

 40 43  0  0  0  0  0  0  0  0999 V2000
   37.7390   30.7180   49.7110 O   0  0  0  0  0  0  0  0  0  0  0  0
   34.1720   28.9200   48.3820 C   0  0  0  0  0  0  0  0  0  0  0  0
   34.8880   28.3920   49.4160 C   0  0  0  0  0  0  0  0  0  0  0  0
   36.0540   28.9220   49.8990 C   0  0  0  0  0  0  0  0  0  0  0  0
   36.5780   30.0540   49.3470 C   0  0  0  0  0  0  0  0  0  0  0  0
   35.8550   30.6060   48.2880 C   0  0  0  0  0  0  0  0  0  0  0  0
   34.7120   30.0580   47.8370 N   0  0  0  0  0  0  0  0  0  0  0  0
   32.1000   27.5570   48.6150 C   0  0  0  0  0  0  0  0  0  0  0  0
   32.9540   28.3800   47.8630 C   0  0  0  0  0  0  0  0  0  0  0  0
   32.5720   28.6570   46.5760 C   0  0  0  0  0  0  0  0  0  0  0  0
   31.4080   28.1380   46.0810 N   0  0  0  0  0  0  0  0  0  0  0  0
   30.6160   27.3420   46.8600 C   0  0  0  0  0  0  0  0  0  0  0  0
   30.9540   27.0460   48.1300 N   0  0  0  0  0  0  0  0  0  0  0  0
   38.3730   31.6110   48.8800 C   0  0  0  0  0  0  0  0  0  0  0  0
   38.5260   32.8710   49.4140 C   0  0  0  0  0  0  0  0  0  0  0  0
   39.1810   33.6550   48.4600 C   0  0  0  0  0  0  0  0  0  0  0  0
   39.3990   32.8730   47.4090 N   0  0  0  0  0  0  0  0  0  0  0  0
   38.9270   31.6920   47.6610 N   0  0  0  0  0  0  0  0  0  0  0  0
   40.0540   33.2430   46.1720 C   0  0  0  0  0  0  0  0  0  0  0  0
   39.1610   32.8980   45.0240 C   0  0  0  0  0  0  0  0  0  0  0  0
   39.6970   31.9710   44.0450 C   0  0  0  0  0  0  0  0  0  0  0  0
   40.4980   30.7230   43.9110 C   0  0  0  0  0  0  0  0  0  0  0  0
   40.6650   30.3080   42.6240 C   0  0  0  0  0  0  0  0  0  0  0  0
   40.1480   30.9700   41.5270 C   0  0  0  0  0  0  0  0  0  0  0  0
   39.2870   32.3820   42.2400 S   0  0  0  0  0  0  0  0  0  0  0  0
   34.5026   27.4792   49.8937 H   0  0  0  0  0  0  0  0  0  0  0  0
   36.5714   28.4322   50.7371 H   0  0  0  0  0  0  0  0  0  0  0  0
   36.2326   31.5199   47.8060 H   0  0  0  0  0  0  0  0  0  0  0  0
   32.3819   27.3186   49.6512 H   0  0  0  0  0  0  0  0  0  0  0  0
   33.2023   29.2971   45.9412 H   0  0  0  0  0  0  0  0  0  0  0  0
   29.6837   26.9348   46.4416 H   0  0  0  0  0  0  0  0  0  0  0  0
   38.1935   33.2004   50.4095 H   0  0  0  0  0  0  0  0  0  0  0  0
   39.4614   34.7139   48.5603 H   0  0  0  0  0  0  0  0  0  0  0  0
   40.2547   34.3245   46.1706 H   0  0  0  0  0  0  0  0  0  0  0  0
   41.0051   32.6982   46.0787 H   0  0  0  0  0  0  0  0  0  0  0  0
   38.2423   32.4552   45.4361 H   0  0  0  0  0  0  0  0  0  0  0  0
   39.0078   33.8414   44.4795 H   0  0  0  0  0  0  0  0  0  0  0  0
   40.9173   30.1844   44.7736 H   0  0  0  0  0  0  0  0  0  0  0  0
   41.2463   29.3909   42.4478 H   0  0  0  0  0  0  0  0  0  0  0  0
   40.2407   30.6979   40.4652 H   0  0  0  0  0  0  0  0  0  0  0  0
  2  3  2  0
  3  4  1  0
  5  1  1  0
  5  4  2  0
  6  5  1  0
  7  6  2  0
  7  2  1  0
  9  2  1  0
  9  8  2  0
 10  9  1  0
 11 10  2  0
 11 12  1  0
 12 13  2  0
 13  8  1  0
 14 15  1  0
 14  1  1  0
 16 15  2  0
 17 18  1  0
 17 16  1  0
 18 14  2  0
 19 17  1  0
 20 19  1  0
 21 20  1  0
 22 21  2  0
 23 22  1  0
 24 25  1  0
 24 23  2  0
 25 21  1  0
  3 26  1  0
  4 27  1  0
  6 28  1  0
  8 29  1  0
 10 30  1  0
 12 31  1  0
 15 32  1  0
 16 33  1  0
 19 34  1  0
 19 35  1  0
 20 36  1  0
 20 37  1  0
 22 38  1  0
 23 39  1  0
 24 40  1  0
M  ISO  8  26  14  27  14  28  14  29  14  30  14  31  14  32  14  33  14
M  ISO  7  34   8  35   8  36   8  37   8  38  14  39  14  40  14
M  END
>  <minimizedAffinity>  (1) 
-6.01434565

>  <minimizedRMSD>  (1) 
2.30271983

$$$$
