
     RDKit          3D

 30 32  0  0  0  0  0  0  0  0999 V2000
   34.4080   28.2610   47.9950 C   0  0  0  0  0  0  0  0  0  0  0  0
   32.9070   28.1800   47.8340 C   0  0  0  0  0  0  0  0  0  0  0  0
   32.0670   27.2680   48.4550 C   0  0  0  0  0  0  0  0  0  0  0  0
   30.7610   27.5180   48.0520 C   0  0  0  0  0  0  0  0  0  0  0  0
   30.8550   28.5660   47.2080 N   0  0  0  0  0  0  0  0  0  0  0  0
   32.1100   28.9620   47.0740 N   0  0  0  0  0  0  0  0  0  0  0  0
   29.7750   29.1600   46.5570 C   0  0  0  0  0  0  0  0  0  0  0  0
   29.6880   29.7100   45.3290 C   0  0  0  0  0  0  0  0  0  0  0  0
   28.5020   30.2460   44.8930 C   0  0  0  0  0  0  0  0  0  0  0  0
   27.4160   30.1760   45.8060 C   0  0  0  0  0  0  0  0  0  0  0  0
   28.1150   29.3250   47.3190 S   0  0  0  0  0  0  0  0  0  0  0  0
   34.6530   28.2640   49.4660 C   0  0  0  0  0  0  0  0  0  0  0  0
   37.2380   30.1540   51.3380 C   0  0  0  0  0  0  0  0  0  0  0  0
   38.0270   30.6700   50.3050 C   0  0  0  0  0  0  0  0  0  0  0  0
   37.6690   30.3680   48.9880 C   0  0  0  0  0  0  0  0  0  0  0  0
   36.5840   29.5960   48.7490 N   0  0  0  0  0  0  0  0  0  0  0  0
   35.8420   29.1140   49.7850 C   0  0  0  0  0  0  0  0  0  0  0  0
   36.1880   29.4060   51.0360 N   0  0  0  0  0  0  0  0  0  0  0  0
   34.7939   29.1849   47.5394 H   0  0  0  0  0  0  0  0  0  0  0  0
   34.9169   27.4214   47.4989 H   0  0  0  0  0  0  0  0  0  0  0  0
   32.3825   26.4773   49.1516 H   0  0  0  0  0  0  0  0  0  0  0  0
   29.8507   26.9797   48.3546 H   0  0  0  0  0  0  0  0  0  0  0  0
   30.5713   29.7292   44.6738 H   0  0  0  0  0  0  0  0  0  0  0  0
   28.3988   30.7020   43.8973 H   0  0  0  0  0  0  0  0  0  0  0  0
   26.3894   30.5418   45.6565 H   0  0  0  0  0  0  0  0  0  0  0  0
   33.7686   28.6664   49.9817 H   0  0  0  0  0  0  0  0  0  0  0  0
   34.8446   27.2343   49.8022 H   0  0  0  0  0  0  0  0  0  0  0  0
   37.4866   30.3669   52.3882 H   0  0  0  0  0  0  0  0  0  0  0  0
   38.9048   31.2961   50.5228 H   0  0  0  0  0  0  0  0  0  0  0  0
   38.2666   30.7561   48.1500 H   0  0  0  0  0  0  0  0  0  0  0  0
  1 12  1  0
  2  1  1  0
  2  3  1  0
  4  3  2  0
  5  4  1  0
  6  5  1  0
  6  2  2  0
  7  5  1  0
  7 11  1  0
  8  7  2  0
  9  8  1  0
  9 10  2  0
 10 11  1  0
 12 17  1  0
 14 13  2  0
 15 14  1  0
 16 15  2  0
 16 17  1  0
 17 18  2  0
 18 13  1  0
  1 19  1  0
  1 20  1  0
  3 21  1  0
  4 22  1  0
  8 23  1  0
  9 24  1  0
 10 25  1  0
 12 26  1  0
 12 27  1  0
 13 28  1  0
 14 29  1  0
 15 30  1  0
M  ISO  8  19   8  20   8  21  14  22  14  23  14  24  14  25  14  26   8
M  ISO  4  27   8  28  14  29  14  30  14
M  END
>  <minimizedAffinity>  (1) 
-4.66848564

>  <minimizedRMSD>  (1) 
0.416773349

$$$$
