
     RDKit          3D

 33 35  0  0  0  0  0  0  0  0999 V2000
   35.4750   30.3110   49.9100 C   0  0  0  0  0  0  0  0  0  0  0  0
   36.4360   31.2150   49.1740 C   0  0  0  0  0  0  0  0  0  0  0  0
   37.8670   30.7950   49.3360 C   0  0  0  0  0  0  0  0  0  0  0  0
   38.2980   30.6350   50.7660 C   0  0  0  0  0  0  0  0  0  0  0  0
   37.2570   29.9910   51.6320 C   0  0  0  0  0  0  0  0  0  0  0  0
   36.1470   29.3470   50.8260 C   0  0  0  0  0  0  0  0  0  0  0  0
   34.6730   29.5160   48.9290 C   0  0  0  0  0  0  0  0  0  0  0  0
   34.2500   30.2130   47.7810 C   0  0  0  0  0  0  0  0  0  0  0  0
   33.4830   29.4700   46.8610 C   0  0  0  0  0  0  0  0  0  0  0  0
   33.1940   28.1640   47.1080 N   0  0  0  0  0  0  0  0  0  0  0  0
   33.6320   27.5440   48.2350 C   0  0  0  0  0  0  0  0  0  0  0  0
   34.3590   28.2130   49.1290 N   0  0  0  0  0  0  0  0  0  0  0  0
   33.0030   30.0660   45.6740 C   0  0  0  0  0  0  0  0  0  0  0  0
   32.0920   31.0890   45.5090 C   0  0  0  0  0  0  0  0  0  0  0  0
   31.7730   31.5090   44.2510 C   0  0  0  0  0  0  0  0  0  0  0  0
   32.4240   30.8400   43.1810 C   0  0  0  0  0  0  0  0  0  0  0  0
   33.4790   29.6210   44.0270 S   0  0  0  0  0  0  0  0  0  0  0  0
   34.8428   30.9766   50.5160 H   0  0  0  0  0  0  0  0  0  0  0  0
   36.3237   32.2381   49.5621 H   0  0  0  0  0  0  0  0  0  0  0  0
   36.1923   31.1565   48.1029 H   0  0  0  0  0  0  0  0  0  0  0  0
   38.0051   29.8317   48.8232 H   0  0  0  0  0  0  0  0  0  0  0  0
   38.4849   31.5964   48.9049 H   0  0  0  0  0  0  0  0  0  0  0  0
   39.2049   30.0130   50.7895 H   0  0  0  0  0  0  0  0  0  0  0  0
   38.4759   31.6438   51.1669 H   0  0  0  0  0  0  0  0  0  0  0  0
   37.7398   29.2178   52.2477 H   0  0  0  0  0  0  0  0  0  0  0  0
   36.8049   30.7790   52.2522 H   0  0  0  0  0  0  0  0  0  0  0  0
   35.3977   28.9390   51.5203 H   0  0  0  0  0  0  0  0  0  0  0  0
   36.5977   28.5566   50.2078 H   0  0  0  0  0  0  0  0  0  0  0  0
   34.5022   31.2704   47.6128 H   0  0  0  0  0  0  0  0  0  0  0  0
   33.3856   26.4863   48.4099 H   0  0  0  0  0  0  0  0  0  0  0  0
   31.6262   31.5626   46.3858 H   0  0  0  0  0  0  0  0  0  0  0  0
   31.0517   32.3207   44.0753 H   0  0  0  0  0  0  0  0  0  0  0  0
   32.3167   31.0160   42.1005 H   0  0  0  0  0  0  0  0  0  0  0  0
  1  6  1  0
  2  3  1  0
  2  1  1  0
  3  4  1  0
  4  5  1  0
  6  5  1  0
  7 12  1  0
  7  1  1  0
  8  7  2  0
  9 10  2  0
  9  8  1  0
 10 11  1  0
 11 12  2  0
 13  9  1  0
 14 13  2  0
 15 14  1  0
 16 17  1  0
 16 15  2  0
 17 13  1  0
  1 18  1  0
  2 19  1  0
  2 20  1  0
  3 21  1  0
  3 22  1  0
  4 23  1  0
  4 24  1  0
  5 25  1  0
  5 26  1  0
  6 27  1  0
  6 28  1  0
  8 29  1  0
 11 30  1  0
 14 31  1  0
 15 32  1  0
 16 33  1  0
M  ISO  8  18  13  19  13  20  13  21  13  22  13  23  13  24  13  25  13
M  ISO  8  26  13  27  13  28  13  29  14  30  14  31  14  32  14  33  14
M  END
>  <minimizedAffinity>  (1) 
-5.18018055

>  <minimizedRMSD>  (1) 
0.314879239

$$$$
