
     RDKit          3D

 26 28  0  0  0  0  0  0  0  0999 V2000
   37.9240   31.8670   49.1270 C   0  0  0  0  0  0  0  0  0  0  0  0
   38.4200   33.0430   49.6730 C   0  0  0  0  0  0  0  0  0  0  0  0
   39.2500   33.9210   49.0140 C   0  0  0  0  0  0  0  0  0  0  0  0
   39.6430   33.6460   47.7110 C   0  0  0  0  0  0  0  0  0  0  0  0
   39.1360   32.4840   47.2100 C   0  0  0  0  0  0  0  0  0  0  0  0
   38.3320   31.6350   47.8500 N   0  0  0  0  0  0  0  0  0  0  0  0
   37.3770   30.3320   51.0380 C   0  0  0  0  0  0  0  0  0  0  0  0
   37.0520   30.9670   49.8440 C   0  0  0  0  0  0  0  0  0  0  0  0
   35.7910   30.7250   49.2870 C   0  0  0  0  0  0  0  0  0  0  0  0
   34.9500   29.8740   49.9550 N   0  0  0  0  0  0  0  0  0  0  0  0
   35.3160   29.2790   51.1180 C   0  0  0  0  0  0  0  0  0  0  0  0
   36.5310   29.5020   51.6710 N   0  0  0  0  0  0  0  0  0  0  0  0
   39.5110   32.1350   45.8410 C   0  0  0  0  0  0  0  0  0  0  0  0
   40.5910   31.2750   45.4130 C   0  0  0  0  0  0  0  0  0  0  0  0
   40.7120   31.1250   44.0680 C   0  0  0  0  0  0  0  0  0  0  0  0
   39.8610   31.7530   43.1620 C   0  0  0  0  0  0  0  0  0  0  0  0
   38.7230   32.6900   44.3660 S   0  0  0  0  0  0  0  0  0  0  0  0
   38.1293   33.2904   50.7046 H   0  0  0  0  0  0  0  0  0  0  0  0
   39.5999   34.8349   49.5164 H   0  0  0  0  0  0  0  0  0  0  0  0
   40.3054   34.3078   47.1336 H   0  0  0  0  0  0  0  0  0  0  0  0
   38.3664   30.5167   51.4819 H   0  0  0  0  0  0  0  0  0  0  0  0
   35.4852   31.2021   48.3442 H   0  0  0  0  0  0  0  0  0  0  0  0
   34.6109   28.6015   51.6218 H   0  0  0  0  0  0  0  0  0  0  0  0
   41.2663   30.7778   46.1249 H   0  0  0  0  0  0  0  0  0  0  0  0
   41.5147   30.4814   43.6789 H   0  0  0  0  0  0  0  0  0  0  0  0
   39.8497   31.7176   42.0626 H   0  0  0  0  0  0  0  0  0  0  0  0
  1  2  2  0
  1  8  1  0
  3  2  1  0
  4  3  2  0
  5  4  1  0
  5  6  2  0
  6  1  1  0
  7 12  2  0
  8  7  1  0
  9  8  2  0
  9 10  1  0
 10 11  2  0
 11 12  1  0
 13  5  1  0
 14 13  2  0
 15 14  1  0
 16 15  2  0
 16 17  1  0
 17 13  1  0
  2 18  1  0
  3 19  1  0
  4 20  1  0
  7 21  1  0
  9 22  1  0
 11 23  1  0
 14 24  1  0
 15 25  1  0
 16 26  1  0
M  ISO  8  18  14  19  14  20  14  21  14  22  14  23  14  24  14  25  14
M  ISO  1  26  14
M  END
>  <minimizedAffinity>  (1) 
-6.00013924

>  <minimizedRMSD>  (1) 
0.410933942

$$$$
