
     RDKit          3D

 17 18  0  0  0  0  0  0  0  0999 V2000
   38.0550   33.1550   49.4850 C   0  0  0  0  0  0  0  0  0  0  0  0
   38.9940   33.1940   48.4340 C   0  0  0  0  0  0  0  0  0  0  0  0
   38.9180   32.2070   47.4470 C   0  0  0  0  0  0  0  0  0  0  0  0
   37.9430   31.2600   47.5510 N   0  0  0  0  0  0  0  0  0  0  0  0
   37.0630   31.2560   48.5730 C   0  0  0  0  0  0  0  0  0  0  0  0
   37.1080   32.1880   49.5330 N   0  0  0  0  0  0  0  0  0  0  0  0
   36.0250   30.2300   48.6640 C   0  0  0  0  0  0  0  0  0  0  0  0
   35.9540   29.1780   49.5000 C   0  0  0  0  0  0  0  0  0  0  0  0
   34.8800   28.3240   49.4180 C   0  0  0  0  0  0  0  0  0  0  0  0
   33.9360   28.6230   48.4580 C   0  0  0  0  0  0  0  0  0  0  0  0
   34.6130   30.1450   47.6780 S   0  0  0  0  0  0  0  0  0  0  0  0
   38.0920   33.9191   50.2754 H   0  0  0  0  0  0  0  0  0  0  0  0
   39.7641   33.9784   48.3919 H   0  0  0  0  0  0  0  0  0  0  0  0
   39.6278   32.1948   46.6067 H   0  0  0  0  0  0  0  0  0  0  0  0
   36.7474   29.0032   50.2416 H   0  0  0  0  0  0  0  0  0  0  0  0
   34.7792   27.4516   50.0804 H   0  0  0  0  0  0  0  0  0  0  0  0
   33.0075   28.0843   48.2180 H   0  0  0  0  0  0  0  0  0  0  0  0
  1  6  2  0
  2  1  1  0
  3  4  1  0
  3  2  2  0
  4  5  2  0
  5  7  1  0
  5  6  1  0
  7  8  2  0
  9  8  1  0
 10  9  2  0
 11 10  1  0
 11  7  1  0
  1 12  1  0
  2 13  1  0
  3 14  1  0
  8 15  1  0
  9 16  1  0
 10 17  1  0
M  ISO  6  12  14  13  14  14  14  15  14  16  14  17  14
M  END
>  <minimizedAffinity>  (1) 
-4.31056786

>  <minimizedRMSD>  (1) 
2.83536267

$$$$
