
     RDKit          3D

 28 30  0  0  0  0  0  0  0  0999 V2000
   35.9150   29.2680   49.4730 C   0  0  0  0  0  0  0  0  0  0  0  0
   34.8890   29.2110   50.3840 C   0  0  0  0  0  0  0  0  0  0  0  0
   33.7320   28.8060   49.6980 C   0  0  0  0  0  0  0  0  0  0  0  0
   34.1390   28.6390   48.3810 C   0  0  0  0  0  0  0  0  0  0  0  0
   35.4160   28.9220   48.3150 O   0  0  0  0  0  0  0  0  0  0  0  0
   37.2500   29.6520   49.8500 C   0  0  0  0  0  0  0  0  0  0  0  0
   37.8160   29.0840   50.7830 O   0  0  0  0  0  0  0  0  0  0  0  0
   37.8570   30.7260   49.0740 C   0  0  0  0  0  0  0  0  0  0  0  0
   38.0600   31.9430   49.7360 C   0  0  0  0  0  0  0  0  0  0  0  0
   38.6390   32.9940   49.0260 C   0  0  0  0  0  0  0  0  0  0  0  0
   38.9790   32.7800   47.7260 N   0  0  0  0  0  0  0  0  0  0  0  0
   38.7720   31.5990   47.1150 C   0  0  0  0  0  0  0  0  0  0  0  0
   38.2160   30.5820   47.7840 N   0  0  0  0  0  0  0  0  0  0  0  0
   33.2690   28.2190   47.2690 C   0  0  0  0  0  0  0  0  0  0  0  0
   33.1890   27.0040   46.9860 O   0  0  0  0  0  0  0  0  0  0  0  0
   32.5480   29.1960   46.5520 C   0  0  0  0  0  0  0  0  0  0  0  0
   32.8950   30.4450   46.1670 C   0  0  0  0  0  0  0  0  0  0  0  0
   32.0320   31.2240   45.4520 C   0  0  0  0  0  0  0  0  0  0  0  0
   30.7390   30.6350   45.1410 C   0  0  0  0  0  0  0  0  0  0  0  0
   30.9210   28.9730   45.9370 S   0  0  0  0  0  0  0  0  0  0  0  0
   34.9603   29.4410   51.4573 H   0  0  0  0  0  0  0  0  0  0  0  0
   32.7246   28.6544   50.1131 H   0  0  0  0  0  0  0  0  0  0  0  0
   37.7699   32.0668   50.7898 H   0  0  0  0  0  0  0  0  0  0  0  0
   38.8160   33.9690   49.5035 H   0  0  0  0  0  0  0  0  0  0  0  0
   39.0609   31.4691   46.0616 H   0  0  0  0  0  0  0  0  0  0  0  0
   33.8868   30.8387   46.4339 H   0  0  0  0  0  0  0  0  0  0  0  0
   32.2995   32.2409   45.1289 H   0  0  0  0  0  0  0  0  0  0  0  0
   29.8888   31.0592   44.5867 H   0  0  0  0  0  0  0  0  0  0  0  0
  1  6  1  0
  1  2  2  0
  3  2  1  0
  4  3  2  0
  5  4  1  0
  5  1  1  0
  6  7  2  0
  8  9  2  0
  8  6  1  0
 10  9  1  0
 11 10  2  0
 12 11  1  0
 12 13  2  0
 13  8  1  0
 14  4  1  0
 15 14  2  0
 16 14  1  0
 17 16  2  0
 18 17  1  0
 19 18  2  0
 19 20  1  0
 20 16  1  0
  2 21  1  0
  3 22  1  0
  9 23  1  0
 10 24  1  0
 12 25  1  0
 17 26  1  0
 18 27  1  0
 19 28  1  0
M  ISO  8  21  14  22  14  23  14  24  14  25  14  26  14  27  14  28  14
M  END
>  <minimizedAffinity>  (1) 
-5.20375729

>  <minimizedRMSD>  (1) 
3.04764104

$$$$
