
     RDKit          3D

 46 50  0  0  1  0  0  0  0  0999 V2000
   32.7600   28.9090   46.9660 C   0  0  2  0  0  0  0  0  0  0  0  0
   33.5670   27.8570   47.7130 C   0  0  2  0  0  0  0  0  0  0  0  0
   32.7770   27.4570   48.7480 O   0  0  0  0  0  0  0  0  0  0  0  0
   31.4660   27.6790   48.4730 C   0  0  0  0  0  0  0  0  0  0  0  0
   31.3710   28.2670   47.0800 C   0  0  1  0  0  0  0  0  0  0  0  0
   34.8510   29.8340   48.7850 C   0  0  1  0  0  0  0  0  0  0  0  0
   34.8220   28.5210   48.1850 C   0  0  1  0  0  0  0  0  0  0  0  0
   35.1670   28.5940   49.6360 C   0  0  0  0  0  0  0  0  0  0  0  0
   36.0680   30.7340   48.6310 C   0  0  0  0  0  0  0  0  0  0  0  0
   36.4480   31.4790   49.7490 C   0  0  0  0  0  0  0  0  0  0  0  0
   37.5500   32.3070   49.5500 C   0  0  0  0  0  0  0  0  0  0  0  0
   38.1840   32.3640   48.3560 N   0  0  0  0  0  0  0  0  0  0  0  0
   37.7760   31.6160   47.2920 C   0  0  0  0  0  0  0  0  0  0  0  0
   36.7060   30.7910   47.4320 N   0  0  0  0  0  0  0  0  0  0  0  0
   33.1310   29.0750   45.6510 O   0  0  0  0  0  0  0  0  0  0  0  0
   30.3700   29.1870   46.9250 O   0  0  0  0  0  0  0  0  0  0  0  0
   29.0430   29.0180   47.2040 C   0  0  0  0  0  0  0  0  0  0  0  0
   28.4070   29.1530   48.4160 C   0  0  0  0  0  0  0  0  0  0  0  0
   27.0520   28.9590   48.5890 C   0  0  0  0  0  0  0  0  0  0  0  0
   26.2860   28.6070   47.4950 C   0  0  0  0  0  0  0  0  0  0  0  0
   26.8660   28.4540   46.2410 C   0  0  0  0  0  0  0  0  0  0  0  0
   26.0910   28.1030   45.1550 C   0  0  0  0  0  0  0  0  0  0  0  0
   26.6840   27.9550   43.9240 C   0  0  0  0  0  0  0  0  0  0  0  0
   28.0340   28.1480   43.7420 C   0  0  0  0  0  0  0  0  0  0  0  0
   28.7660   28.4980   44.8620 C   0  0  0  0  0  0  0  0  0  0  0  0
   28.2250   28.6630   46.1340 C   0  0  0  0  0  0  0  0  0  0  0  0
   32.8685   29.9272   47.3678 H   0  0  0  0  0  0  0  0  0  0  0  0
   33.8488   26.9837   47.1064 H   0  0  0  0  0  0  0  0  0  0  0  0
   30.9101   26.7308   48.5163 H   0  0  0  0  0  0  0  0  0  0  0  0
   31.0338   28.3721   49.2098 H   0  0  0  0  0  0  0  0  0  0  0  0
   31.1214   27.5251   46.3072 H   0  0  0  0  0  0  0  0  0  0  0  0
   34.1263   30.6611   48.7578 H   0  0  0  0  0  0  0  0  0  0  0  0
   35.3094   28.0943   47.2960 H   0  0  0  0  0  0  0  0  0  0  0  0
   36.1944   28.3973   49.9763 H   0  0  0  0  0  0  0  0  0  0  0  0
   34.7860   28.1503   50.5677 H   0  0  0  0  0  0  0  0  0  0  0  0
   35.9187   31.4169   50.7113 H   0  0  0  0  0  0  0  0  0  0  0  0
   37.9130   32.9284   50.3819 H   0  0  0  0  0  0  0  0  0  0  0  0
   38.3072   31.6797   46.3309 H   0  0  0  0  0  0  0  0  0  0  0  0
   34.0339   29.4790   45.6113 H   0  0  0  0  0  0  0  0  0  0  0  0
   29.0101   29.4301   49.2932 H   0  0  0  0  0  0  0  0  0  0  0  0
   26.5904   29.0824   49.5798 H   0  0  0  0  0  0  0  0  0  0  0  0
   25.2048   28.4459   47.6174 H   0  0  0  0  0  0  0  0  0  0  0  0
   25.0091   27.9432   45.2732 H   0  0  0  0  0  0  0  0  0  0  0  0
   26.0624   27.6746   43.0609 H   0  0  0  0  0  0  0  0  0  0  0  0
   28.5070   28.0299   42.7559 H   0  0  0  0  0  0  0  0  0  0  0  0
   29.8476   28.6565   44.7396 H   0  0  0  0  0  0  0  0  0  0  0  0
  1  5  1  0
  1  2  1  0
  2  7  1  0
  2  3  1  0
  4  3  1  0
  5  4  1  0
  6  8  1  0
  7  6  1  0
  7  8  1  0
  9  6  1  0
  9 10  2  0
 11 10  1  0
 12 11  2  0
 13 14  2  0
 13 12  1  0
 14  9  1  0
 15  1  1  0
 16  5  1  0
 16 17  1  0
 17 18  2  0
 18 19  1  0
 20 19  2  0
 21 20  1  0
 22 21  2  0
 23 22  1  0
 24 23  2  0
 24 25  1  0
 25 26  2  0
 26 21  1  0
 26 17  1  0
  1 27  1  1
  2 28  1  6
  4 29  1  0
  4 30  1  0
  5 31  1  6
  6 32  1  1
  7 33  1  6
  8 34  1  0
  8 35  1  0
 10 36  1  0
 11 37  1  0
 13 38  1  0
 15 39  1  0
 18 40  1  0
 19 41  1  0
 20 42  1  0
 22 43  1  0
 23 44  1  0
 24 45  1  0
 25 46  1  0
M  ISO  8  27  13  28  13  29  13  30  13  31  13  32  13  33  13  34  13
M  ISO  8  35  13  36  14  37  14  38  14  39   3  40  14  41  14  42  14
M  ISO  4  43  14  44  14  45  14  46  14
M  END
>  <minimizedAffinity>  (1) 
-6.18560505

>  <minimizedRMSD>  (1) 
2.80373168

$$$$
