
     RDKit          3D

 54 58  0  0  0  0  0  0  0  0999 V2000
   35.2090   30.8250   49.7170 C   0  0  0  0  0  0  0  0  0  0  0  0
   33.6130   28.7000   50.4390 F   0  0  0  0  0  0  0  0  0  0  0  0
   33.7890   28.9840   49.1030 C   0  0  0  0  0  0  0  0  0  0  0  0
   34.5780   30.0300   48.6210 C   0  0  0  0  0  0  0  0  0  0  0  0
   34.7220   30.2520   47.2860 C   0  0  0  0  0  0  0  0  0  0  0  0
   34.0770   29.4350   46.3490 C   0  0  0  0  0  0  0  0  0  0  0  0
   33.2900   28.3940   46.8060 C   0  0  0  0  0  0  0  0  0  0  0  0
   33.1530   28.1790   48.1560 C   0  0  0  0  0  0  0  0  0  0  0  0
   32.3540   27.1230   48.5340 O   0  0  0  0  0  0  0  0  0  0  0  0
   31.0140   27.3630   48.7870 C   0  0  0  0  0  0  0  0  0  0  0  0
   30.3980   28.0950   49.7790 C   0  0  0  0  0  0  0  0  0  0  0  0
   29.0250   28.1980   49.8410 C   0  0  0  0  0  0  0  0  0  0  0  0
   28.2050   27.5780   48.9200 C   0  0  0  0  0  0  0  0  0  0  0  0
   28.8220   26.8420   47.9230 C   0  0  0  0  0  0  0  0  0  0  0  0
   27.9340   26.2500   47.0370 C   0  0  0  0  0  0  0  0  0  0  0  0
   28.4670   25.4930   46.0060 C   0  0  0  0  0  0  0  0  0  0  0  0
   29.8190   25.3590   45.8990 C   0  0  0  0  0  0  0  0  0  0  0  0
   30.6610   25.9530   46.7840 C   0  0  0  0  0  0  0  0  0  0  0  0
   30.1940   26.7290   47.8470 C   0  0  0  0  0  0  0  0  0  0  0  0
   36.8880   30.1770   49.9350 S   0  0  0  0  0  0  0  0  0  0  0  0
   39.1210   32.8570   47.9140 C   0  0  0  0  0  0  0  0  0  0  0  0
   39.3470   32.1740   46.7170 C   0  0  0  0  0  0  0  0  0  0  0  0
   38.7980   30.9210   46.5970 C   0  0  0  0  0  0  0  0  0  0  0  0
   38.0780   30.4230   47.6290 N   0  0  0  0  0  0  0  0  0  0  0  0
   37.8840   31.0900   48.7400 C   0  0  0  0  0  0  0  0  0  0  0  0
   38.4070   32.3500   48.9250 N   0  0  0  0  0  0  0  0  0  0  0  0
   40.0880   32.7860   45.7600 O   0  0  0  0  0  0  0  0  0  0  0  0
   40.0850   32.2850   44.4660 C   0  0  0  0  0  0  0  0  0  0  0  0
   40.6420   31.1020   44.0160 C   0  0  0  0  0  0  0  0  0  0  0  0
   40.5320   30.7880   42.7050 C   0  0  0  0  0  0  0  0  0  0  0  0
   39.8820   31.6360   41.8730 C   0  0  0  0  0  0  0  0  0  0  0  0
   39.3250   32.8220   42.3330 C   0  0  0  0  0  0  0  0  0  0  0  0
   39.4430   33.1260   43.6520 N   0  0  0  0  0  0  0  0  0  0  0  0
   38.5990   33.7650   41.3840 C   0  0  0  0  0  0  0  0  0  0  0  0
   34.6346   30.7090   50.6479 H   0  0  0  0  0  0  0  0  0  0  0  0
   35.2289   31.8959   49.4665 H   0  0  0  0  0  0  0  0  0  0  0  0
   35.3528   31.0835   46.9386 H   0  0  0  0  0  0  0  0  0  0  0  0
   34.1942   29.6179   45.2707 H   0  0  0  0  0  0  0  0  0  0  0  0
   32.7739   27.7384   46.0891 H   0  0  0  0  0  0  0  0  0  0  0  0
   31.0129   28.6060   50.5345 H   0  0  0  0  0  0  0  0  0  0  0  0
   28.5697   28.7913   50.6476 H   0  0  0  0  0  0  0  0  0  0  0  0
   27.1099   27.6649   48.9757 H   0  0  0  0  0  0  0  0  0  0  0  0
   26.8470   26.3768   47.1487 H   0  0  0  0  0  0  0  0  0  0  0  0
   27.8030   25.0033   45.2785 H   0  0  0  0  0  0  0  0  0  0  0  0
   30.2372   24.7572   45.0787 H   0  0  0  0  0  0  0  0  0  0  0  0
   31.7456   25.8185   46.6594 H   0  0  0  0  0  0  0  0  0  0  0  0
   39.5518   33.8623   48.0312 H   0  0  0  0  0  0  0  0  0  0  0  0
   38.9409   30.3327   45.6786 H   0  0  0  0  0  0  0  0  0  0  0  0
   41.1648   30.4288   44.7113 H   0  0  0  0  0  0  0  0  0  0  0  0
   40.9659   29.8539   42.3188 H   0  0  0  0  0  0  0  0  0  0  0  0
   39.7931   31.3792   40.8071 H   0  0  0  0  0  0  0  0  0  0  0  0
   38.0297   34.5045   41.9663 H   0  0  0  0  0  0  0  0  0  0  0  0
   39.3330   34.2839   40.7500 H   0  0  0  0  0  0  0  0  0  0  0  0
   37.9097   33.1881   40.7500 H   0  0  0  0  0  0  0  0  0  0  0  0
  1 20  1  0
  3  2  1  0
  4  3  2  0
  4  1  1  0
  5  4  1  0
  6  7  1  0
  6  5  2  0
  7  8  2  0
  8  9  1  0
  8  3  1  0
  9 10  1  0
 10 11  2  0
 11 12  1  0
 13 12  2  0
 14 13  1  0
 15 14  2  0
 16 15  1  0
 17 16  2  0
 17 18  1  0
 18 19  2  0
 19 14  1  0
 19 10  1  0
 21 26  2  0
 22 21  1  0
 23 22  2  0
 23 24  1  0
 24 25  2  0
 25 26  1  0
 25 20  1  0
 27 22  1  0
 28 27  1  0
 29 28  2  0
 30 29  1  0
 31 32  1  0
 31 30  2  0
 32 33  2  0
 33 28  1  0
 34 32  1  0
  1 35  1  0
  1 36  1  0
  5 37  1  0
  6 38  1  0
  7 39  1  0
 11 40  1  0
 12 41  1  0
 13 42  1  0
 15 43  1  0
 16 44  1  0
 17 45  1  0
 18 46  1  0
 21 47  1  0
 23 48  1  0
 29 49  1  0
 30 50  1  0
 31 51  1  0
 34 52  1  0
 34 53  1  0
 34 54  1  0
M  ISO  8  35   8  36   8  37  14  38  14  39  14  40  14  41  14  42  14
M  ISO  8  43  14  44  14  45  14  46  14  47  14  48  14  49  14  50  14
M  ISO  4  51  14  52   8  53   8  54   8
M  END
>  <minimizedAffinity>  (1) 
-7.02540302

>  <minimizedRMSD>  (1) 
1.73623931

$$$$
