
     RDKit          3D

 27 29  0  0  0  0  0  0  0  0999 V2000
   35.5620   29.9710   47.8920 C   0  0  0  0  0  0  0  0  0  0  0  0
   36.1740   30.4920   46.7470 C   0  0  0  0  0  0  0  0  0  0  0  0
   37.4490   31.0630   46.8450 C   0  0  0  0  0  0  0  0  0  0  0  0
   38.1310   31.1310   48.0520 C   0  0  0  0  0  0  0  0  0  0  0  0
   37.4970   30.6090   49.1580 C   0  0  0  0  0  0  0  0  0  0  0  0
   38.0980   30.6350   50.4180 C   0  0  0  0  0  0  0  0  0  0  0  0
   37.4040   30.0940   51.5060 C   0  0  0  0  0  0  0  0  0  0  0  0
   36.1440   29.5320   51.3990 C   0  0  0  0  0  0  0  0  0  0  0  0
   35.5610   29.5140   50.1420 C   0  0  0  0  0  0  0  0  0  0  0  0
   36.2580   30.0500   49.0810 C   0  0  0  0  0  0  0  0  0  0  0  0
   34.3210   29.4540   47.5970 O   0  0  0  0  0  0  0  0  0  0  0  0
   34.0050   28.1740   47.2170 C   0  0  0  0  0  0  0  0  0  0  0  0
   33.6660   28.1130   45.8620 C   0  0  0  0  0  0  0  0  0  0  0  0
   33.3140   26.8890   45.3000 C   0  0  0  0  0  0  0  0  0  0  0  0
   33.3190   25.8000   46.1110 N   0  0  0  0  0  0  0  0  0  0  0  0
   33.6510   25.8830   47.4280 C   0  0  0  0  0  0  0  0  0  0  0  0
   33.9880   27.0420   47.9720 N   0  0  0  0  0  0  0  0  0  0  0  0
   35.6574   30.4534   45.7766 H   0  0  0  0  0  0  0  0  0  0  0  0
   37.9235   31.4692   45.9396 H   0  0  0  0  0  0  0  0  0  0  0  0
   39.1322   31.5812   48.1222 H   0  0  0  0  0  0  0  0  0  0  0  0
   39.0982   31.0725   50.5528 H   0  0  0  0  0  0  0  0  0  0  0  0
   37.8839   30.1166   52.4955 H   0  0  0  0  0  0  0  0  0  0  0  0
   35.6263   29.1165   52.2761 H   0  0  0  0  0  0  0  0  0  0  0  0
   34.5611   29.0802   49.9940 H   0  0  0  0  0  0  0  0  0  0  0  0
   33.6773   29.0240   45.2455 H   0  0  0  0  0  0  0  0  0  0  0  0
   33.0417   26.8070   44.2374 H   0  0  0  0  0  0  0  0  0  0  0  0
   33.6392   24.9751   48.0489 H   0  0  0  0  0  0  0  0  0  0  0  0
  1 10  2  0
  2  3  2  0
  2  1  1  0
  3  4  1  0
  4  5  2  0
  5  6  1  0
  6  7  2  0
  8  7  1  0
  9  8  2  0
 10  5  1  0
 10  9  1  0
 11  1  1  0
 12 11  1  0
 12 17  1  0
 13 12  2  0
 14 13  1  0
 14 15  2  0
 15 16  1  0
 16 17  2  0
  2 18  1  0
  3 19  1  0
  4 20  1  0
  6 21  1  0
  7 22  1  0
  8 23  1  0
  9 24  1  0
 13 25  1  0
 14 26  1  0
 16 27  1  0
M  ISO  8  18  14  19  14  20  14  21  14  22  14  23  14  24  14  25  14
M  ISO  2  26  14  27  14
M  END
>  <minimizedAffinity>  (1) 
-5.62384462

>  <minimizedRMSD>  (1) 
6.39153337

$$$$
