
     RDKit          3D

 54 59  0  0  0  0  0  0  0  0999 V2000
   39.0750   32.1850   42.5960 C   0  0  0  0  0  0  0  0  0  0  0  0
   39.6550   31.5090   43.6450 C   0  0  0  0  0  0  0  0  0  0  0  0
   40.5810   30.5210   43.4820 C   0  0  0  0  0  0  0  0  0  0  0  0
   40.9780   30.1600   42.1950 C   0  0  0  0  0  0  0  0  0  0  0  0
   41.8450   29.2540   41.7350 N   0  0  0  0  0  0  0  0  0  0  0  0
   41.8370   29.3350   40.4100 C   0  0  0  0  0  0  0  0  0  0  0  0
   40.9640   30.2900   40.0260 N   0  0  0  0  0  0  0  0  0  0  0  0
   40.4020   30.8310   41.1430 C   0  0  0  0  0  0  0  0  0  0  0  0
   39.4570   31.8410   41.2850 C   0  0  0  0  0  0  0  0  0  0  0  0
   39.2170   31.9140   44.9710 C   0  0  0  0  0  0  0  0  0  0  0  0
   38.1260   32.5450   45.1070 O   0  0  0  0  0  0  0  0  0  0  0  0
   39.9330   31.6540   46.1790 N   0  0  0  0  0  0  0  0  0  0  0  0
   38.1020   30.1630   47.5130 F   0  0  0  0  0  0  0  0  0  0  0  0
   38.3640   31.4010   48.0150 C   0  0  0  0  0  0  0  0  0  0  0  0
   37.7170   31.8360   49.1340 C   0  0  0  0  0  0  0  0  0  0  0  0
   38.0280   33.0860   49.5820 C   0  0  0  0  0  0  0  0  0  0  0  0
   38.9350   33.8890   48.9640 C   0  0  0  0  0  0  0  0  0  0  0  0
   39.5900   33.4370   47.8220 C   0  0  0  0  0  0  0  0  0  0  0  0
   39.2860   32.1620   47.3500 C   0  0  0  0  0  0  0  0  0  0  0  0
   36.0810   29.3400   51.4680 C   0  0  0  0  0  0  0  0  0  0  0  0
   37.0450   30.2040   50.8880 C   0  0  0  0  0  0  0  0  0  0  0  0
   36.7480   30.9330   49.7640 C   0  0  0  0  0  0  0  0  0  0  0  0
   35.4830   30.7830   49.2360 N   0  0  0  0  0  0  0  0  0  0  0  0
   34.5720   29.9630   49.7900 C   0  0  0  0  0  0  0  0  0  0  0  0
   34.8750   29.2610   50.8820 N   0  0  0  0  0  0  0  0  0  0  0  0
   38.8820   32.5110   40.2340 O   0  0  0  0  0  0  0  0  0  0  0  0
   37.7360   32.0010   39.6500 C   0  0  0  0  0  0  0  0  0  0  0  0
   37.5450   30.8930   38.8550 C   0  0  0  0  0  0  0  0  0  0  0  0
   36.2960   30.5700   38.3740 C   0  0  0  0  0  0  0  0  0  0  0  0
   35.1710   31.3190   38.6500 C   0  0  0  0  0  0  0  0  0  0  0  0
   35.3710   32.4400   39.4560 C   0  0  0  0  0  0  0  0  0  0  0  0
   34.2110   33.1630   39.7090 C   0  0  0  0  0  0  0  0  0  0  0  0
   34.2960   34.2790   40.4870 C   0  0  0  0  0  0  0  0  0  0  0  0
   35.5080   34.6540   40.9960 C   0  0  0  0  0  0  0  0  0  0  0  0
   36.6430   33.9230   40.7330 C   0  0  0  0  0  0  0  0  0  0  0  0
   36.6300   32.7860   39.9550 C   0  0  0  0  0  0  0  0  0  0  0  0
   38.3311   32.9748   42.7772 H   0  0  0  0  0  0  0  0  0  0  0  0
   41.0109   30.0134   44.3581 H   0  0  0  0  0  0  0  0  0  0  0  0
   42.4147   28.6111   42.3034 H   0  0  0  0  0  0  0  0  0  0  0  0
   42.4464   28.7201   39.7314 H   0  0  0  0  0  0  0  0  0  0  0  0
   40.8302   31.1487   46.2050 H   0  0  0  0  0  0  0  0  0  0  0  0
   37.5224   33.4616   50.4838 H   0  0  0  0  0  0  0  0  0  0  0  0
   39.1499   34.8907   49.3646 H   0  0  0  0  0  0  0  0  0  0  0  0
   40.3276   34.0694   47.3062 H   0  0  0  0  0  0  0  0  0  0  0  0
   36.3137   28.7534   52.3690 H   0  0  0  0  0  0  0  0  0  0  0  0
   38.0421   30.2906   51.3445 H   0  0  0  0  0  0  0  0  0  0  0  0
   33.5725   29.8713   49.3400 H   0  0  0  0  0  0  0  0  0  0  0  0
   38.4044   30.2555   38.6000 H   0  0  0  0  0  0  0  0  0  0  0  0
   36.1907   29.6758   37.7421 H   0  0  0  0  0  0  0  0  0  0  0  0
   34.1787   31.0494   38.2592 H   0  0  0  0  0  0  0  0  0  0  0  0
   33.2458   32.8416   39.2906 H   0  0  0  0  0  0  0  0  0  0  0  0
   33.3961   34.8734   40.7036 H   0  0  0  0  0  0  0  0  0  0  0  0
   35.5766   35.5537   41.6252 H   0  0  0  0  0  0  0  0  0  0  0  0
   37.5989   34.2595   41.1607 H   0  0  0  0  0  0  0  0  0  0  0  0
  1  2  2  0
  2 10  1  0
  3  2  1  0
  4  3  2  0
  5  4  1  0
  6  5  1  0
  7  6  2  0
  7  8  1  0
  8  9  2  0
  8  4  1  0
  9  1  1  0
 10 11  2  0
 10 12  1  0
 12 19  1  0
 13 14  1  0
 14 15  2  0
 15 16  1  0
 15 22  1  0
 17 16  2  0
 18 17  1  0
 19 18  2  0
 19 14  1  0
 21 20  2  0
 22 21  1  0
 23 22  2  0
 23 24  1  0
 24 25  2  0
 25 20  1  0
 26  9  1  0
 27 36  1  0
 27 26  1  0
 28 27  2  0
 29 30  2  0
 29 28  1  0
 30 31  1  0
 31 32  1  0
 31 36  2  0
 32 33  2  0
 33 34  1  0
 35 34  2  0
 36 35  1  0
  1 37  1  0
  3 38  1  0
  5 39  1  0
  6 40  1  0
 12 41  1  0
 16 42  1  0
 17 43  1  0
 18 44  1  0
 20 45  1  0
 21 46  1  0
 24 47  1  0
 28 48  1  0
 29 49  1  0
 30 50  1  0
 32 51  1  0
 33 52  1  0
 34 53  1  0
 35 54  1  0
M  END
>  <minimizedAffinity>  (1) 
-7.52974939

>  <minimizedRMSD>  (1) 
1.1224556

$$$$
