
     RDKit          3D

 32 34  0  0  0  0  0  0  0  0999 V2000
   38.3800   32.7940   47.4410 O   0  0  0  0  0  0  0  0  0  0  0  0
   38.1620   31.4830   46.7710 P   0  0  2  0  0  0  0  0  0  0  0  0
   36.7070   31.5110   45.8820 O   0  0  0  0  0  0  0  0  0  0  0  0
   38.1690   30.1540   47.8170 O   0  0  0  0  0  0  0  0  0  0  0  0
   37.2530   30.2440   51.4060 C   0  0  0  0  0  0  0  0  0  0  0  0
   38.0370   30.5010   50.2680 C   0  0  0  0  0  0  0  0  0  0  0  0
   37.5900   30.0300   49.0330 C   0  0  0  0  0  0  0  0  0  0  0  0
   36.4150   29.3420   48.9980 N   0  0  0  0  0  0  0  0  0  0  0  0
   35.6940   29.1160   50.1100 C   0  0  0  0  0  0  0  0  0  0  0  0
   36.1060   29.5630   51.3090 N   0  0  0  0  0  0  0  0  0  0  0  0
   39.4200   31.2970   45.6430 O   0  0  0  0  0  0  0  0  0  0  0  0
   39.1990   30.5630   44.4860 C   0  0  0  0  0  0  0  0  0  0  0  0
   39.0650   29.1970   44.3500 C   0  0  0  0  0  0  0  0  0  0  0  0
   38.8470   28.6340   43.1200 C   0  0  0  0  0  0  0  0  0  0  0  0
   38.7520   29.3920   41.9690 C   0  0  0  0  0  0  0  0  0  0  0  0
   38.8830   30.7600   42.0820 C   0  0  0  0  0  0  0  0  0  0  0  0
   38.7870   31.5200   40.9330 C   0  0  0  0  0  0  0  0  0  0  0  0
   38.9120   32.8930   40.9940 C   0  0  0  0  0  0  0  0  0  0  0  0
   39.1310   33.4940   42.2140 C   0  0  0  0  0  0  0  0  0  0  0  0
   39.2220   32.7140   43.3480 C   0  0  0  0  0  0  0  0  0  0  0  0
   39.1040   31.3360   43.3280 C   0  0  0  0  0  0  0  0  0  0  0  0
   35.9390   31.5258   46.5065 H   0  0  0  0  0  0  0  0  0  0  0  0
   37.5871   30.6076   52.3889 H   0  0  0  0  0  0  0  0  0  0  0  0
   38.9807   31.0603   50.3491 H   0  0  0  0  0  0  0  0  0  0  0  0
   34.7503   28.5554   50.0375 H   0  0  0  0  0  0  0  0  0  0  0  0
   39.1339   28.5525   45.2387 H   0  0  0  0  0  0  0  0  0  0  0  0
   38.7441   27.5413   43.0465 H   0  0  0  0  0  0  0  0  0  0  0  0
   38.5771   28.9185   40.9917 H   0  0  0  0  0  0  0  0  0  0  0  0
   38.6101   31.0288   39.9648 H   0  0  0  0  0  0  0  0  0  0  0  0
   38.8377   33.5000   40.0797 H   0  0  0  0  0  0  0  0  0  0  0  0
   39.2325   34.5871   42.2833 H   0  0  0  0  0  0  0  0  0  0  0  0
   39.3966   33.2112   44.3136 H   0  0  0  0  0  0  0  0  0  0  0  0
  2  1  2  0
  2  4  1  0
  3  2  1  0
  4  7  1  0
  6  5  2  0
  7  6  1  0
  8  7  2  0
  8  9  1  0
  9 10  2  0
 10  5  1  0
 11  2  1  0
 12 11  1  0
 13 12  2  0
 14 13  1  0
 15 16  1  0
 15 14  2  0
 16 21  2  0
 17 18  2  0
 17 16  1  0
 18 19  1  0
 19 20  2  0
 21 20  1  0
 21 12  1  0
  3 22  1  0
  5 23  1  0
  6 24  1  0
  9 25  1  0
 13 26  1  0
 14 27  1  0
 15 28  1  0
 17 29  1  0
 18 30  1  0
 19 31  1  0
 20 32  1  0
M  ISO  8  22   3  23  14  24  14  25  14  26  14  27  14  28  14  29  14
M  ISO  3  30  14  31  14  32  14
M  END
>  <minimizedAffinity>  (1) 
-4.9889617

>  <minimizedRMSD>  (1) 
4.15945292

$$$$
