
     RDKit          3D

 42 45  0  0  1  0  0  0  0  0999 V2000
   34.8570   29.3460   47.9730 C   0  0  0  0  0  0  0  0  0  0  0  0
   34.7730   29.8520   46.6650 C   0  0  0  0  0  0  0  0  0  0  0  0
   33.6160   29.5930   45.9420 C   0  0  0  0  0  0  0  0  0  0  0  0
   32.6390   28.8590   46.5620 N   0  0  0  0  0  0  0  0  0  0  0  0
   32.7500   28.3920   47.8060 C   0  0  0  0  0  0  0  0  0  0  0  0
   33.8580   28.6300   48.5220 N   0  0  0  0  0  0  0  0  0  0  0  0
   36.0580   29.6230   48.7060 N   0  0  0  0  0  0  0  0  0  0  0  0
   37.2150   30.3350   48.2350 C   0  0  0  0  0  0  0  0  0  0  0  0
   37.7710   30.9420   49.5300 C   0  0  2  0  0  0  0  0  0  0  0  0
   36.7830   30.5850   50.6150 C   0  0  0  0  0  0  0  0  0  0  0  0
   36.3290   29.2310   50.0690 C   0  0  0  0  0  0  0  0  0  0  0  0
   38.0060   32.4160   49.4130 C   0  0  0  0  0  0  0  0  0  0  0  0
   36.8990   33.0240   49.9760 F   0  0  0  0  0  0  0  0  0  0  0  0
   37.9880   32.7440   48.0810 F   0  0  0  0  0  0  0  0  0  0  0  0
   39.1690   32.8330   49.9850 F   0  0  0  0  0  0  0  0  0  0  0  0
   31.4420   27.4370   48.5550 S   0  0  0  0  0  0  0  0  0  0  0  0
   29.8450   28.1880   48.2740 C   0  0  0  0  0  0  0  0  0  0  0  0
   29.4760   28.9230   47.1620 C   0  0  0  0  0  0  0  0  0  0  0  0
   28.1850   29.4440   47.0950 C   0  0  0  0  0  0  0  0  0  0  0  0
   27.2750   29.2400   48.1110 C   0  0  0  0  0  0  0  0  0  0  0  0
   27.6490   28.5030   49.2210 C   0  0  0  0  0  0  0  0  0  0  0  0
   26.7240   28.3020   50.2430 C   0  0  0  0  0  0  0  0  0  0  0  0
   27.0680   27.5710   51.3640 C   0  0  0  0  0  0  0  0  0  0  0  0
   28.3270   27.0470   51.4590 C   0  0  0  0  0  0  0  0  0  0  0  0
   29.2000   27.2700   50.4340 C   0  0  0  0  0  0  0  0  0  0  0  0
   28.9290   27.9840   49.2930 C   0  0  0  0  0  0  0  0  0  0  0  0
   35.5972   30.4346   46.2277 H   0  0  0  0  0  0  0  0  0  0  0  0
   33.4890   29.9620   44.9136 H   0  0  0  0  0  0  0  0  0  0  0  0
   37.9417   29.6523   47.7703 H   0  0  0  0  0  0  0  0  0  0  0  0
   36.9889   31.0811   47.4590 H   0  0  0  0  0  0  0  0  0  0  0  0
   38.7651   30.5343   49.7655 H   0  0  0  0  0  0  0  0  0  0  0  0
   37.2637   30.4948   51.6003 H   0  0  0  0  0  0  0  0  0  0  0  0
   35.9847   31.3199   50.7957 H   0  0  0  0  0  0  0  0  0  0  0  0
   35.4279   28.8604   50.5796 H   0  0  0  0  0  0  0  0  0  0  0  0
   37.0443   28.4046   50.1926 H   0  0  0  0  0  0  0  0  0  0  0  0
   30.1904   29.0937   46.3431 H   0  0  0  0  0  0  0  0  0  0  0  0
   27.8857   30.0300   46.2135 H   0  0  0  0  0  0  0  0  0  0  0  0
   26.2606   29.6595   48.0397 H   0  0  0  0  0  0  0  0  0  0  0  0
   25.7134   28.7279   50.1571 H   0  0  0  0  0  0  0  0  0  0  0  0
   26.3371   27.4125   52.1707 H   0  0  0  0  0  0  0  0  0  0  0  0
   28.6288   26.4605   52.3393 H   0  0  0  0  0  0  0  0  0  0  0  0
   30.2081   26.8405   50.5303 H   0  0  0  0  0  0  0  0  0  0  0  0
  1  6  1  0
  1  7  1  0
  2  1  2  0
  3  4  2  0
  3  2  1  0
  4  5  1  0
  5  6  2  0
  5 16  1  0
  7 11  1  0
  8  7  1  0
  8  9  1  0
  9 10  1  0
 11 10  1  0
 12  9  1  0
 12 13  1  0
 12 15  1  0
 14 12  1  0
 17 16  1  0
 17 26  1  0
 18 17  2  0
 19 18  1  0
 19 20  2  0
 20 21  1  0
 21 26  2  0
 21 22  1  0
 22 23  2  0
 23 24  1  0
 25 24  2  0
 26 25  1  0
  2 27  1  0
  3 28  1  0
  8 29  1  0
  8 30  1  0
  9 31  1  1
 10 32  1  0
 10 33  1  0
 11 34  1  0
 11 35  1  0
 18 36  1  0
 19 37  1  0
 20 38  1  0
 22 39  1  0
 23 40  1  0
 24 41  1  0
 25 42  1  0
M  ISO  8  27  14  28  14  29  13  30  13  31  13  32  13  33  13  34  13
M  ISO  8  35  13  36  14  37  14  38  14  39  14  40  14  41  14  42  14
M  END
>  <minimizedAffinity>  (1) 
-7.90007544

>  <minimizedRMSD>  (1) 
1.8119365

$$$$
