
     RDKit          3D

 28 30  0  0  0  0  0  0  0  0999 V2000
   37.8330   31.7600   48.1150 C   0  0  0  0  0  0  0  0  0  0  0  0
   38.2500   32.9330   48.3400 O   0  0  0  0  0  0  0  0  0  0  0  0
   37.7090   31.1970   46.7530 C   0  0  0  0  0  0  0  0  0  0  0  0
   36.4310   30.7450   46.4010 C   0  0  0  0  0  0  0  0  0  0  0  0
   36.1000   30.1870   45.1990 C   0  0  0  0  0  0  0  0  0  0  0  0
   37.0910   30.0540   44.2570 C   0  0  0  0  0  0  0  0  0  0  0  0
   38.3580   30.4910   44.5800 C   0  0  0  0  0  0  0  0  0  0  0  0
   39.4300   30.4020   43.6900 C   0  0  0  0  0  0  0  0  0  0  0  0
   40.7000   30.8390   44.0070 C   0  0  0  0  0  0  0  0  0  0  0  0
   40.9550   31.3960   45.2510 C   0  0  0  0  0  0  0  0  0  0  0  0
   39.9250   31.5050   46.1630 C   0  0  0  0  0  0  0  0  0  0  0  0
   38.6790   31.0530   45.7960 C   0  0  0  0  0  0  0  0  0  0  0  0
   37.4720   30.1370   51.4650 C   0  0  0  0  0  0  0  0  0  0  0  0
   37.8980   31.0550   50.4780 C   0  0  0  0  0  0  0  0  0  0  0  0
   37.4330   30.8500   49.1870 C   0  0  0  0  0  0  0  0  0  0  0  0
   36.6050   29.7840   48.9560 N   0  0  0  0  0  0  0  0  0  0  0  0
   36.2250   28.9370   49.9130 C   0  0  0  0  0  0  0  0  0  0  0  0
   36.6480   29.0990   51.1670 N   0  0  0  0  0  0  0  0  0  0  0  0
   35.6322   30.8472   47.1503 H   0  0  0  0  0  0  0  0  0  0  0  0
   35.0721   29.8545   44.9918 H   0  0  0  0  0  0  0  0  0  0  0  0
   36.8795   29.6112   43.2725 H   0  0  0  0  0  0  0  0  0  0  0  0
   39.2551   29.9657   42.6955 H   0  0  0  0  0  0  0  0  0  0  0  0
   41.5121   30.7452   43.2710 H   0  0  0  0  0  0  0  0  0  0  0  0
   41.9656   31.7466   45.5077 H   0  0  0  0  0  0  0  0  0  0  0  0
   40.0962   31.9421   47.1578 H   0  0  0  0  0  0  0  0  0  0  0  0
   37.8168   30.2666   52.5015 H   0  0  0  0  0  0  0  0  0  0  0  0
   38.5672   31.8931   50.7223 H   0  0  0  0  0  0  0  0  0  0  0  0
   35.5575   28.0983   49.6661 H   0  0  0  0  0  0  0  0  0  0  0  0
  1  2  2  0
  1 15  1  0
  3  1  1  0
  4  3  2  0
  5  4  1  0
  6  7  1  0
  6  5  2  0
  7 12  2  0
  8  9  2  0
  8  7  1  0
  9 10  1  0
 10 11  2  0
 12 11  1  0
 12  3  1  0
 14 13  2  0
 15 14  1  0
 16 15  2  0
 16 17  1  0
 17 18  2  0
 18 13  1  0
  4 19  1  0
  5 20  1  0
  6 21  1  0
  8 22  1  0
  9 23  1  0
 10 24  1  0
 11 25  1  0
 13 26  1  0
 14 27  1  0
 17 28  1  0
M  ISO  8  19  14  20  14  21  14  22  14  23  14  24  14  25  14  26  14
M  ISO  2  27  14  28  14
M  END
>  <minimizedAffinity>  (1) 
-5.73657656

>  <minimizedRMSD>  (1) 
1.09786296

$$$$
