
     RDKit          3D

 32 34  0  0  0  0  0  0  0  0999 V2000
   35.3730   29.9340   46.7360 O   0  0  0  0  0  0  0  0  0  0  0  0
   34.1320   29.9830   47.5990 P   0  0  2  0  0  0  0  0  0  0  0  0
   33.0220   30.9620   46.7730 O   0  0  0  0  0  0  0  0  0  0  0  0
   34.4620   30.6610   49.1480 O   0  0  0  0  0  0  0  0  0  0  0  0
   35.6830   30.5090   49.7800 C   0  0  0  0  0  0  0  0  0  0  0  0
   36.0060   29.4960   50.6920 C   0  0  0  0  0  0  0  0  0  0  0  0
   37.2870   29.4810   51.2450 C   0  0  0  0  0  0  0  0  0  0  0  0
   38.1640   30.4540   50.8720 N   0  0  0  0  0  0  0  0  0  0  0  0
   37.8140   31.4220   49.9870 C   0  0  0  0  0  0  0  0  0  0  0  0
   36.5690   31.4590   49.4310 N   0  0  0  0  0  0  0  0  0  0  0  0
   33.4930   28.4440   47.8870 O   0  0  0  0  0  0  0  0  0  0  0  0
   32.4880   27.9660   47.0570 C   0  0  0  0  0  0  0  0  0  0  0  0
   32.5570   27.7570   45.6960 C   0  0  0  0  0  0  0  0  0  0  0  0
   31.4690   27.2740   44.9960 C   0  0  0  0  0  0  0  0  0  0  0  0
   30.2560   26.9770   45.6270 C   0  0  0  0  0  0  0  0  0  0  0  0
   30.2140   27.1960   46.9880 C   0  0  0  0  0  0  0  0  0  0  0  0
   28.9880   26.8890   47.5860 C   0  0  0  0  0  0  0  0  0  0  0  0
   28.9050   27.0960   48.9540 C   0  0  0  0  0  0  0  0  0  0  0  0
   29.9500   27.5780   49.7330 C   0  0  0  0  0  0  0  0  0  0  0  0
   31.1230   27.8550   49.0640 C   0  0  0  0  0  0  0  0  0  0  0  0
   31.2870   27.6780   47.7060 C   0  0  0  0  0  0  0  0  0  0  0  0
   32.4647   31.4535   47.4272 H   0  0  0  0  0  0  0  0  0  0  0  0
   35.2663   28.7294   50.9661 H   0  0  0  0  0  0  0  0  0  0  0  0
   37.5813   28.7026   51.9644 H   0  0  0  0  0  0  0  0  0  0  0  0
   38.5496   32.1925   49.7126 H   0  0  0  0  0  0  0  0  0  0  0  0
   33.4919   27.9781   45.1601 H   0  0  0  0  0  0  0  0  0  0  0  0
   31.5586   27.1182   43.9108 H   0  0  0  0  0  0  0  0  0  0  0  0
   29.3883   26.5921   45.0711 H   0  0  0  0  0  0  0  0  0  0  0  0
   28.1374   26.5049   47.0037 H   0  0  0  0  0  0  0  0  0  0  0  0
   27.9530   26.8644   49.4540 H   0  0  0  0  0  0  0  0  0  0  0  0
   29.8474   27.7293   50.8177 H   0  0  0  0  0  0  0  0  0  0  0  0
   31.9748   28.2382   49.6450 H   0  0  0  0  0  0  0  0  0  0  0  0
  2  1  2  0
  2 11  1  0
  2  4  1  0
  3  2  1  0
  4  5  1  0
  5  6  2  0
  6  7  1  0
  8  7  2  0
  9  8  1  0
 10  5  1  0
 10  9  2  0
 12 21  1  0
 12 11  1  0
 13 12  2  0
 14 15  2  0
 14 13  1  0
 15 16  1  0
 16 17  1  0
 16 21  2  0
 17 18  2  0
 18 19  1  0
 20 19  2  0
 21 20  1  0
  3 22  1  0
  6 23  1  0
  7 24  1  0
  9 25  1  0
 13 26  1  0
 14 27  1  0
 15 28  1  0
 17 29  1  0
 18 30  1  0
 19 31  1  0
 20 32  1  0
M  ISO  8  22   3  23  14  24  14  25  14  26  14  27  14  28  14  29  14
M  ISO  3  30  14  31  14  32  14
M  END
>  <minimizedAffinity>  (1) 
-5.09184599

>  <minimizedRMSD>  (1) 
2.02026606

$$$$
