
     RDKit          3D

 28 30  0  0  0  0  0  0  0  0999 V2000
   36.7360   30.7750   47.5060 C   0  0  0  0  0  0  0  0  0  0  0  0
   35.9690   30.3530   46.6130 O   0  0  0  0  0  0  0  0  0  0  0  0
   37.8740   31.7030   47.4280 C   0  0  0  0  0  0  0  0  0  0  0  0
   37.9690   32.6060   48.4750 C   0  0  0  0  0  0  0  0  0  0  0  0
   39.0110   33.5350   48.5050 C   0  0  0  0  0  0  0  0  0  0  0  0
   39.9510   33.5470   47.4800 C   0  0  0  0  0  0  0  0  0  0  0  0
   39.8480   32.6450   46.4420 C   0  0  0  0  0  0  0  0  0  0  0  0
   40.7530   32.6010   45.3840 C   0  0  0  0  0  0  0  0  0  0  0  0
   40.6090   31.6710   44.3560 C   0  0  0  0  0  0  0  0  0  0  0  0
   39.5720   30.7640   44.3480 C   0  0  0  0  0  0  0  0  0  0  0  0
   38.6720   30.8090   45.4030 C   0  0  0  0  0  0  0  0  0  0  0  0
   38.8150   31.7300   46.4200 C   0  0  0  0  0  0  0  0  0  0  0  0
   37.5400   29.7460   49.6110 C   0  0  0  0  0  0  0  0  0  0  0  0
   36.4330   30.2420   48.8580 C   0  0  0  0  0  0  0  0  0  0  0  0
   35.1730   30.1900   49.4410 C   0  0  0  0  0  0  0  0  0  0  0  0
   35.0570   29.6760   50.6830 N   0  0  0  0  0  0  0  0  0  0  0  0
   36.1090   29.2150   51.3740 C   0  0  0  0  0  0  0  0  0  0  0  0
   37.3500   29.2390   50.8650 N   0  0  0  0  0  0  0  0  0  0  0  0
   37.2229   32.5909   49.2831 H   0  0  0  0  0  0  0  0  0  0  0  0
   39.0880   34.2533   49.3346 H   0  0  0  0  0  0  0  0  0  0  0  0
   40.7755   34.2750   47.4973 H   0  0  0  0  0  0  0  0  0  0  0  0
   41.5933   33.3104   45.3595 H   0  0  0  0  0  0  0  0  0  0  0  0
   41.3391   31.6609   43.5333 H   0  0  0  0  0  0  0  0  0  0  0  0
   39.4616   30.0311   43.5351 H   0  0  0  0  0  0  0  0  0  0  0  0
   37.8317   30.0996   45.4289 H   0  0  0  0  0  0  0  0  0  0  0  0
   38.5513   29.7723   49.1790 H   0  0  0  0  0  0  0  0  0  0  0  0
   34.2887   30.5600   48.9014 H   0  0  0  0  0  0  0  0  0  0  0  0
   35.9509   28.8070   52.3832 H   0  0  0  0  0  0  0  0  0  0  0  0
  1 14  1  0
  2  1  2  0
  3  1  1  0
  3  4  2  0
  4  5  1  0
  6  5  2  0
  7  6  1  0
  8  7  2  0
  9  8  1  0
 10  9  2  0
 10 11  1  0
 11 12  2  0
 12  7  1  0
 12  3  1  0
 13 18  2  0
 14 15  2  0
 14 13  1  0
 15 16  1  0
 16 17  2  0
 18 17  1  0
  4 19  1  0
  5 20  1  0
  6 21  1  0
  8 22  1  0
  9 23  1  0
 10 24  1  0
 11 25  1  0
 13 26  1  0
 15 27  1  0
 17 28  1  0
M  ISO  8  19  14  20  14  21  14  22  14  23  14  24  14  25  14  26  14
M  ISO  2  27  14  28  14
M  END
>  <minimizedAffinity>  (1) 
-5.82912493

>  <minimizedRMSD>  (1) 
5.19966459

$$$$
