
     RDKit          3D

 40 43  0  0  0  0  0  0  0  0999 V2000
   37.5500   30.5050   49.0360 C   0  0  0  0  0  0  0  0  0  0  0  0
   37.3610   31.0990   47.7680 C   0  0  0  0  0  0  0  0  0  0  0  0
   36.2750   30.6930   47.0210 C   0  0  0  0  0  0  0  0  0  0  0  0
   35.4680   29.7570   47.5550 N   0  0  0  0  0  0  0  0  0  0  0  0
   35.6660   29.2170   48.7410 C   0  0  0  0  0  0  0  0  0  0  0  0
   36.7220   29.5770   49.5240 N   0  0  0  0  0  0  0  0  0  0  0  0
   38.3140   32.0310   47.4370 O   0  0  0  0  0  0  0  0  0  0  0  0
   38.9720   31.8650   46.2120 C   0  0  0  0  0  0  0  0  0  0  0  0
   40.1830   31.2620   45.9960 C   0  0  0  0  0  0  0  0  0  0  0  0
   40.6780   31.1870   44.7350 C   0  0  0  0  0  0  0  0  0  0  0  0
   39.9400   31.7270   43.6850 C   0  0  0  0  0  0  0  0  0  0  0  0
   38.7210   32.3300   43.9260 C   0  0  0  0  0  0  0  0  0  0  0  0
   38.2790   32.3750   45.2040 N   0  0  0  0  0  0  0  0  0  0  0  0
   37.9370   32.9080   42.7810 C   0  0  0  0  0  0  0  0  0  0  0  0
   34.3790   27.9960   49.1230 S   0  0  0  0  0  0  0  0  0  0  0  0
   33.3210   27.7010   47.7360 C   0  0  0  0  0  0  0  0  0  0  0  0
   32.4910   28.7700   47.4470 C   0  0  0  0  0  0  0  0  0  0  0  0
   31.5880   28.7100   46.3810 C   0  0  0  0  0  0  0  0  0  0  0  0
   31.5470   27.5480   45.6170 C   0  0  0  0  0  0  0  0  0  0  0  0
   32.3830   26.4780   45.9140 C   0  0  0  0  0  0  0  0  0  0  0  0
   32.3700   25.3010   45.1730 C   0  0  0  0  0  0  0  0  0  0  0  0
   33.2290   24.2790   45.5240 C   0  0  0  0  0  0  0  0  0  0  0  0
   34.1110   24.3800   46.5900 C   0  0  0  0  0  0  0  0  0  0  0  0
   34.1450   25.5430   47.3450 C   0  0  0  0  0  0  0  0  0  0  0  0
   33.2800   26.5480   46.9790 C   0  0  0  0  0  0  0  0  0  0  0  0
   38.4113   30.8184   49.6443 H   0  0  0  0  0  0  0  0  0  0  0  0
   36.0757   31.1180   46.0262 H   0  0  0  0  0  0  0  0  0  0  0  0
   40.7503   30.8414   46.8394 H   0  0  0  0  0  0  0  0  0  0  0  0
   41.6489   30.7062   44.5448 H   0  0  0  0  0  0  0  0  0  0  0  0
   40.3300   31.6731   42.6579 H   0  0  0  0  0  0  0  0  0  0  0  0
   37.1100   33.5177   43.1737 H   0  0  0  0  0  0  0  0  0  0  0  0
   38.5966   33.5375   42.1657 H   0  0  0  0  0  0  0  0  0  0  0  0
   37.5307   32.0917   42.1657 H   0  0  0  0  0  0  0  0  0  0  0  0
   32.5423   29.6791   48.0641 H   0  0  0  0  0  0  0  0  0  0  0  0
   30.9274   29.5593   46.1525 H   0  0  0  0  0  0  0  0  0  0  0  0
   30.8474   27.4755   44.7712 H   0  0  0  0  0  0  0  0  0  0  0  0
   31.6853   25.1862   44.3198 H   0  0  0  0  0  0  0  0  0  0  0  0
   33.2136   23.3494   44.9362 H   0  0  0  0  0  0  0  0  0  0  0  0
   34.7800   23.5420   46.8352 H   0  0  0  0  0  0  0  0  0  0  0  0
   34.8317   25.6564   48.1968 H   0  0  0  0  0  0  0  0  0  0  0  0
  1  6  2  0
  2  1  1  0
  3  4  1  0
  3  2  2  0
  4  5  2  0
  5 15  1  0
  5  6  1  0
  7  2  1  0
  8  7  1  0
  9  8  2  0
 10  9  1  0
 11 12  1  0
 11 10  2  0
 12 13  2  0
 13  8  1  0
 14 12  1  0
 16 15  1  0
 17 16  2  0
 18 17  1  0
 19 20  1  0
 19 18  2  0
 20 25  2  0
 21 22  2  0
 21 20  1  0
 22 23  1  0
 23 24  2  0
 25 24  1  0
 25 16  1  0
  1 26  1  0
  3 27  1  0
  9 28  1  0
 10 29  1  0
 11 30  1  0
 14 31  1  0
 14 32  1  0
 14 33  1  0
 17 34  1  0
 18 35  1  0
 19 36  1  0
 21 37  1  0
 22 38  1  0
 23 39  1  0
 24 40  1  0
M  ISO  8  26  14  27  14  28  14  29  14  30  14  31   8  32   8  33   8
M  ISO  7  34  14  35  14  36  14  37  14  38  14  39  14  40  14
M  END
>  <minimizedAffinity>  (1) 
-5.01017046

>  <minimizedRMSD>  (1) 
3.55166793

$$$$
