
     RDKit          3D

 33 36  0  0  0  0  0  0  0  0999 V2000
   37.4830   31.4210   49.5650 C   0  0  0  0  0  0  0  0  0  0  0  0
   37.2240   30.2890   48.7510 C   0  0  0  0  0  0  0  0  0  0  0  0
   36.9780   29.1060   49.4290 C   0  0  0  0  0  0  0  0  0  0  0  0
   36.9960   29.0920   50.7790 N   0  0  0  0  0  0  0  0  0  0  0  0
   37.2460   30.1880   51.5280 C   0  0  0  0  0  0  0  0  0  0  0  0
   37.4910   31.3570   50.9170 N   0  0  0  0  0  0  0  0  0  0  0  0
   37.2120   30.3480   47.2940 C   0  0  0  0  0  0  0  0  0  0  0  0
   38.3310   30.4700   46.5020 C   0  0  0  0  0  0  0  0  0  0  0  0
   38.2730   30.5220   45.1260 C   0  0  0  0  0  0  0  0  0  0  0  0
   37.0130   30.4450   44.5470 C   0  0  0  0  0  0  0  0  0  0  0  0
   35.8850   30.3240   45.3190 C   0  0  0  0  0  0  0  0  0  0  0  0
   34.6730   30.2550   44.6390 C   0  0  0  0  0  0  0  0  0  0  0  0
   33.5130   30.1300   45.4100 C   0  0  0  0  0  0  0  0  0  0  0  0
   33.5530   30.0760   46.8050 C   0  0  0  0  0  0  0  0  0  0  0  0
   34.7850   30.1490   47.4240 C   0  0  0  0  0  0  0  0  0  0  0  0
   35.9710   30.2730   46.6940 C   0  0  0  0  0  0  0  0  0  0  0  0
   37.6820   32.7180   48.8040 C   0  0  0  0  0  0  0  0  0  0  0  0
   38.1230   33.9050   49.5110 C   0  0  0  0  0  0  0  0  0  0  0  0
   39.1680   33.1100   48.7670 C   0  0  0  0  0  0  0  0  0  0  0  0
   36.7689   28.1821   48.8698 H   0  0  0  0  0  0  0  0  0  0  0  0
   37.2487   30.1228   52.6261 H   0  0  0  0  0  0  0  0  0  0  0  0
   39.3156   30.5286   46.9890 H   0  0  0  0  0  0  0  0  0  0  0  0
   39.1823   30.6199   44.5148 H   0  0  0  0  0  0  0  0  0  0  0  0
   36.9177   30.4816   43.4517 H   0  0  0  0  0  0  0  0  0  0  0  0
   34.6291   30.2970   43.5407 H   0  0  0  0  0  0  0  0  0  0  0  0
   32.5390   30.0724   44.9021 H   0  0  0  0  0  0  0  0  0  0  0  0
   32.6291   29.9781   47.3939 H   0  0  0  0  0  0  0  0  0  0  0  0
   34.8348   30.1085   48.5221 H   0  0  0  0  0  0  0  0  0  0  0  0
   36.8514   32.5588   48.1006 H   0  0  0  0  0  0  0  0  0  0  0  0
   37.8303   34.8982   49.1396 H   0  0  0  0  0  0  0  0  0  0  0  0
   38.0267   34.2536   50.5498 H   0  0  0  0  0  0  0  0  0  0  0  0
   39.9155   32.5185   49.3160 H   0  0  0  0  0  0  0  0  0  0  0  0
   39.9182   33.3137   47.9887 H   0  0  0  0  0  0  0  0  0  0  0  0
  1  6  2  0
  2  3  2  0
  2  1  1  0
  3  4  1  0
  4  5  2  0
  6  5  1  0
  7  2  1  0
  8  7  2  0
  9  8  1  0
 10  9  2  0
 10 11  1  0
 11 16  2  0
 12 11  1  0
 12 13  2  0
 13 14  1  0
 14 15  2  0
 16  7  1  0
 16 15  1  0
 17 18  1  0
 17  1  1  0
 19 17  1  0
 19 18  1  0
  3 20  1  0
  5 21  1  0
  8 22  1  0
  9 23  1  0
 10 24  1  0
 12 25  1  0
 13 26  1  0
 14 27  1  0
 15 28  1  0
 17 29  1  0
 18 30  1  0
 18 31  1  0
 19 32  1  0
 19 33  1  0
M  ISO  8  20  14  21  14  22  14  23  14  24  14  25  14  26  14  27  14
M  ISO  6  28  14  29  13  30  13  31  13  32  13  33  13
M  END
>  <minimizedAffinity>  (1) 
-5.12162209

>  <minimizedRMSD>  (1) 
5.91769695

$$$$
