
     RDKit          3D

 48 52  0  0  1  0  0  0  0  0999 V2000
   39.4100   32.9280   44.3890 C   0  0  0  0  0  0  0  0  0  0  0  0
   40.2580   31.9070   43.9830 C   0  0  0  0  0  0  0  0  0  0  0  0
   40.3890   30.8130   44.8100 C   0  0  0  0  0  0  0  0  0  0  0  0
   39.6830   30.7990   45.9720 N   0  0  0  0  0  0  0  0  0  0  0  0
   38.8590   31.8150   46.3450 C   0  0  0  0  0  0  0  0  0  0  0  0
   38.7280   32.8700   45.5530 N   0  0  0  0  0  0  0  0  0  0  0  0
   38.1430   31.7280   47.5940 N   0  0  0  0  0  0  0  0  0  0  0  0
   38.0710   32.8660   48.4680 C   0  0  0  0  0  0  0  0  0  0  0  0
   37.9580   32.4920   49.9240 C   0  0  0  0  0  0  0  0  0  0  0  0
   38.4840   31.0930   50.0840 C   0  0  0  0  0  0  0  0  0  0  0  0
   37.4920   30.1760   49.4050 C   0  0  0  0  0  0  0  0  0  0  0  0
   37.5010   30.4570   47.9470 C   0  0  1  0  0  0  0  0  0  0  0  0
   36.1830   30.3300   47.3200 C   0  0  0  0  0  0  0  0  0  0  0  0
   34.9450   30.1500   47.9360 C   0  0  0  0  0  0  0  0  0  0  0  0
   33.8170   30.0430   47.1780 C   0  0  0  0  0  0  0  0  0  0  0  0
   33.9680   30.1260   45.7590 C   0  0  0  0  0  0  0  0  0  0  0  0
   35.8310   30.3620   45.6430 S   0  0  0  0  0  0  0  0  0  0  0  0
   33.2450   30.0350   44.5550 C   0  0  0  0  0  0  0  0  0  0  0  0
   33.5500   28.9970   43.6610 C   0  0  0  0  0  0  0  0  0  0  0  0
   32.9310   28.8210   42.4690 C   0  0  0  0  0  0  0  0  0  0  0  0
   31.9530   29.6980   42.1050 C   0  0  0  0  0  0  0  0  0  0  0  0
   31.5670   30.7570   42.8940 C   0  0  0  0  0  0  0  0  0  0  0  0
   30.5990   31.6370   42.4760 C   0  0  0  0  0  0  0  0  0  0  0  0
   30.2650   32.7220   43.2930 C   0  0  0  0  0  0  0  0  0  0  0  0
   30.9630   32.8230   44.5020 C   0  0  0  0  0  0  0  0  0  0  0  0
   31.9090   31.9170   44.8550 C   0  0  0  0  0  0  0  0  0  0  0  0
   32.2550   30.8470   44.0800 C   0  0  0  0  0  0  0  0  0  0  0  0
   39.2899   33.8105   43.7435 H   0  0  0  0  0  0  0  0  0  0  0  0
   40.8075   31.9693   43.0321 H   0  0  0  0  0  0  0  0  0  0  0  0
   41.0465   29.9741   44.5379 H   0  0  0  0  0  0  0  0  0  0  0  0
   38.9807   33.4692   48.3318 H   0  0  0  0  0  0  0  0  0  0  0  0
   37.1609   33.4240   48.2029 H   0  0  0  0  0  0  0  0  0  0  0  0
   38.5522   33.1869   50.5355 H   0  0  0  0  0  0  0  0  0  0  0  0
   36.9100   32.5473   50.2535 H   0  0  0  0  0  0  0  0  0  0  0  0
   39.4715   31.0024   49.6079 H   0  0  0  0  0  0  0  0  0  0  0  0
   38.6004   30.8330   51.1465 H   0  0  0  0  0  0  0  0  0  0  0  0
   37.7764   29.1281   49.5813 H   0  0  0  0  0  0  0  0  0  0  0  0
   36.4848   30.3476   49.8125 H   0  0  0  0  0  0  0  0  0  0  0  0
   38.1320   29.6611   47.5246 H   0  0  0  0  0  0  0  0  0  0  0  0
   34.8787   30.0944   49.0326 H   0  0  0  0  0  0  0  0  0  0  0  0
   32.8293   29.8985   47.6402 H   0  0  0  0  0  0  0  0  0  0  0  0
   34.3383   28.2843   43.9450 H   0  0  0  0  0  0  0  0  0  0  0  0
   33.2118   27.9875   41.8084 H   0  0  0  0  0  0  0  0  0  0  0  0
   31.4501   29.5526   41.1376 H   0  0  0  0  0  0  0  0  0  0  0  0
   30.0926   31.4903   41.5106 H   0  0  0  0  0  0  0  0  0  0  0  0
   29.4975   33.4542   43.0020 H   0  0  0  0  0  0  0  0  0  0  0  0
   30.7390   33.6576   45.1827 H   0  0  0  0  0  0  0  0  0  0  0  0
   32.4251   32.0514   45.8171 H   0  0  0  0  0  0  0  0  0  0  0  0
  1  6  2  0
  2  1  1  0
  2  3  2  0
  3  4  1  0
  4  5  2  0
  5  7  1  0
  6  5  1  0
  7 12  1  0
  7  8  1  0
  8  9  1  0
  9 10  1  0
 11 10  1  0
 12 11  1  0
 13 14  2  0
 13 12  1  0
 15 14  1  0
 16 15  2  0
 17 16  1  0
 17 13  1  0
 18 16  1  0
 19 18  2  0
 20 19  1  0
 21 20  2  0
 21 22  1  0
 22 27  2  0
 23 22  1  0
 23 24  2  0
 24 25  1  0
 25 26  2  0
 27 18  1  0
 27 26  1  0
  1 28  1  0
  2 29  1  0
  3 30  1  0
  8 31  1  0
  8 32  1  0
  9 33  1  0
  9 34  1  0
 10 35  1  0
 10 36  1  0
 11 37  1  0
 11 38  1  0
 12 39  1  6
 14 40  1  0
 15 41  1  0
 19 42  1  0
 20 43  1  0
 21 44  1  0
 23 45  1  0
 24 46  1  0
 25 47  1  0
 26 48  1  0
M  ISO  8  28  14  29  14  30  14  31  13  32  13  33  13  34  13  35  13
M  ISO  8  36  13  37  13  38  13  39  13  40  14  41  14  42  14  43  14
M  ISO  5  44  14  45  14  46  14  47  14  48  14
M  END
>  <minimizedAffinity>  (1) 
-6.05103779

>  <minimizedRMSD>  (1) 
0.505482018

$$$$
