
     RDKit          3D

 38 41  0  0  1  0  0  0  0  0999 V2000
   32.8360   28.1640   48.0780 N   0  0  0  0  0  0  0  0  0  0  0  0
   33.7090   27.9490   46.9290 C   0  0  0  0  0  0  0  0  0  0  0  0
   34.8040   28.9710   47.1460 C   0  0  0  0  0  0  0  0  0  0  0  0
   34.4470   29.7290   48.4070 C   0  0  1  0  0  0  0  0  0  0  0  0
   33.6950   28.6450   49.1600 C   0  0  0  0  0  0  0  0  0  0  0  0
   35.6750   30.0930   49.0820 C   0  0  0  0  0  0  0  0  0  0  0  0
   35.9740   29.9900   50.4200 C   0  0  0  0  0  0  0  0  0  0  0  0
   37.1620   30.3620   51.0140 C   0  0  0  0  0  0  0  0  0  0  0  0
   38.1630   30.8890   50.2240 C   0  0  0  0  0  0  0  0  0  0  0  0
   37.9280   31.0210   48.8720 C   0  0  0  0  0  0  0  0  0  0  0  0
   38.9690   31.5520   48.1510 C   0  0  0  0  0  0  0  0  0  0  0  0
   38.8290   31.7190   46.7980 C   0  0  0  0  0  0  0  0  0  0  0  0
   37.6500   31.3520   46.1930 C   0  0  0  0  0  0  0  0  0  0  0  0
   36.6530   30.8300   46.9660 C   0  0  0  0  0  0  0  0  0  0  0  0
   36.7240   30.6340   48.3300 C   0  0  0  0  0  0  0  0  0  0  0  0
   31.4430   27.9460   48.1360 C   0  0  0  0  0  0  0  0  0  0  0  0
   30.8290   27.4340   46.9980 C   0  0  0  0  0  0  0  0  0  0  0  0
   29.4500   27.1940   47.0100 C   0  0  0  0  0  0  0  0  0  0  0  0
   28.7820   27.4890   48.1820 N   0  0  0  0  0  0  0  0  0  0  0  0
   29.4220   27.9880   49.2720 C   0  0  0  0  0  0  0  0  0  0  0  0
   30.7700   28.2180   49.2460 N   0  0  0  0  0  0  0  0  0  0  0  0
   33.1751   28.1342   45.9853 H   0  0  0  0  0  0  0  0  0  0  0  0
   34.0839   26.9176   46.8531 H   0  0  0  0  0  0  0  0  0  0  0  0
   35.7742   28.4672   47.2682 H   0  0  0  0  0  0  0  0  0  0  0  0
   34.8871   29.6510   46.2854 H   0  0  0  0  0  0  0  0  0  0  0  0
   33.8767   30.6613   48.2821 H   0  0  0  0  0  0  0  0  0  0  0  0
   33.1117   29.0545   49.9979 H   0  0  0  0  0  0  0  0  0  0  0  0
   34.3240   27.8800   49.6386 H   0  0  0  0  0  0  0  0  0  0  0  0
   35.1955   29.5733   51.0760 H   0  0  0  0  0  0  0  0  0  0  0  0
   37.3087   30.2408   52.0974 H   0  0  0  0  0  0  0  0  0  0  0  0
   39.1242   31.1961   50.6619 H   0  0  0  0  0  0  0  0  0  0  0  0
   39.9042   31.8399   48.6535 H   0  0  0  0  0  0  0  0  0  0  0  0
   39.6512   32.1422   46.2022 H   0  0  0  0  0  0  0  0  0  0  0  0
   37.5129   31.4764   45.1087 H   0  0  0  0  0  0  0  0  0  0  0  0
   35.7188   30.5428   46.4613 H   0  0  0  0  0  0  0  0  0  0  0  0
   31.4217   27.2196   46.0965 H   0  0  0  0  0  0  0  0  0  0  0  0
   28.9254   26.7911   46.1311 H   0  0  0  0  0  0  0  0  0  0  0  0
   28.8498   28.2093   50.1850 H   0  0  0  0  0  0  0  0  0  0  0  0
  1 16  1  0
  1  5  1  0
  2  3  1  0
  2  1  1  0
  3  4  1  0
  4  6  1  0
  4  5  1  0
  6  7  2  0
  7  8  1  0
  9  8  2  0
 10  9  1  0
 11 10  2  0
 12 11  1  0
 13 12  2  0
 13 14  1  0
 14 15  2  0
 15 10  1  0
 15  6  1  0
 16 21  2  0
 17 18  2  0
 17 16  1  0
 18 19  1  0
 19 20  2  0
 21 20  1  0
  2 22  1  0
  2 23  1  0
  3 24  1  0
  3 25  1  0
  4 26  1  6
  5 27  1  0
  5 28  1  0
  7 29  1  0
  8 30  1  0
  9 31  1  0
 11 32  1  0
 12 33  1  0
 13 34  1  0
 14 35  1  0
 17 36  1  0
 18 37  1  0
 20 38  1  0
M  ISO  8  22  13  23  13  24  13  25  13  26  13  27  13  28  13  29  14
M  ISO  8  30  14  31  14  32  14  33  14  34  14  35  14  36  14  37  14
M  ISO  1  38  14
M  END
>  <minimizedAffinity>  (1) 
-6.18612432

>  <minimizedRMSD>  (1) 
4.90903187

$$$$
