
     RDKit          3D

 51 55  0  0  0  0  0  0  0  0999 V2000
   33.5660   28.4880   49.2600 C   0  0  0  0  0  0  0  0  0  0  0  0
   32.8790   28.0860   47.9990 C   0  0  0  0  0  0  0  0  0  0  0  0
   31.4650   27.6640   48.2180 C   0  0  0  0  0  0  0  0  0  0  0  0
   30.9030   27.8290   49.4610 C   0  0  0  0  0  0  0  0  0  0  0  0
   29.6250   27.4510   49.7130 C   0  0  0  0  0  0  0  0  0  0  0  0
   28.9010   26.9140   48.7580 N   0  0  0  0  0  0  0  0  0  0  0  0
   29.4230   26.7380   47.5200 C   0  0  0  0  0  0  0  0  0  0  0  0
   30.7020   27.1150   47.2660 N   0  0  0  0  0  0  0  0  0  0  0  0
   28.8190   26.1670   46.3020 C   0  0  0  0  0  0  0  0  0  0  0  0
   29.0770   24.8980   45.8260 C   0  0  0  0  0  0  0  0  0  0  0  0
   28.5200   24.3620   44.6960 C   0  0  0  0  0  0  0  0  0  0  0  0
   27.6360   25.1000   43.9490 C   0  0  0  0  0  0  0  0  0  0  0  0
   27.3380   26.3710   44.3730 C   0  0  0  0  0  0  0  0  0  0  0  0
   26.4460   27.0620   43.5840 C   0  0  0  0  0  0  0  0  0  0  0  0
   26.0890   28.3470   43.9320 C   0  0  0  0  0  0  0  0  0  0  0  0
   26.6650   28.8790   45.0860 C   0  0  0  0  0  0  0  0  0  0  0  0
   27.5470   28.1270   45.8200 C   0  0  0  0  0  0  0  0  0  0  0  0
   27.9250   26.8460   45.5030 C   0  0  0  0  0  0  0  0  0  0  0  0
   34.9560   28.1430   49.2110 O   0  0  0  0  0  0  0  0  0  0  0  0
   37.0090   29.9840   51.5260 C   0  0  0  0  0  0  0  0  0  0  0  0
   37.7980   30.7450   50.6170 C   0  0  0  0  0  0  0  0  0  0  0  0
   37.5540   30.5610   49.2720 C   0  0  0  0  0  0  0  0  0  0  0  0
   36.5810   29.6640   48.9310 N   0  0  0  0  0  0  0  0  0  0  0  0
   35.8590   28.9660   49.8040 C   0  0  0  0  0  0  0  0  0  0  0  0
   36.0820   29.1320   51.1200 N   0  0  0  0  0  0  0  0  0  0  0  0
   38.7670   33.1870   49.3010 F   0  0  0  0  0  0  0  0  0  0  0  0
   38.8150   32.4620   48.1820 C   0  0  0  0  0  0  0  0  0  0  0  0
   38.2460   31.2420   48.1940 C   0  0  0  0  0  0  0  0  0  0  0  0
   38.3580   30.5730   46.9680 C   0  0  0  0  0  0  0  0  0  0  0  0
   38.9840   31.1090   45.8690 C   0  0  0  0  0  0  0  0  0  0  0  0
   39.5440   32.3510   45.9150 C   0  0  0  0  0  0  0  0  0  0  0  0
   39.4560   33.0460   47.1070 C   0  0  0  0  0  0  0  0  0  0  0  0
   33.4682   29.5755   49.3937 H   0  0  0  0  0  0  0  0  0  0  0  0
   33.0990   27.9567   50.1024 H   0  0  0  0  0  0  0  0  0  0  0  0
   33.4306   27.2463   47.5510 H   0  0  0  0  0  0  0  0  0  0  0  0
   32.8628   28.9645   47.3371 H   0  0  0  0  0  0  0  0  0  0  0  0
   31.5016   28.2767   50.2680 H   0  0  0  0  0  0  0  0  0  0  0  0
   29.1957   27.5940   50.7156 H   0  0  0  0  0  0  0  0  0  0  0  0
   29.7804   24.2723   46.3950 H   0  0  0  0  0  0  0  0  0  0  0  0
   28.7811   23.3392   44.3865 H   0  0  0  0  0  0  0  0  0  0  0  0
   27.1801   24.6853   43.0379 H   0  0  0  0  0  0  0  0  0  0  0  0
   26.0221   26.5927   42.6840 H   0  0  0  0  0  0  0  0  0  0  0  0
   25.3796   28.9288   43.3252 H   0  0  0  0  0  0  0  0  0  0  0  0
   26.4122   29.9003   45.4070 H   0  0  0  0  0  0  0  0  0  0  0  0
   27.9804   28.5811   46.7233 H   0  0  0  0  0  0  0  0  0  0  0  0
   37.1766   30.1093   52.6059 H   0  0  0  0  0  0  0  0  0  0  0  0
   38.5668   31.4474   50.9713 H   0  0  0  0  0  0  0  0  0  0  0  0
   37.9222   29.5668   46.8811 H   0  0  0  0  0  0  0  0  0  0  0  0
   39.0342   30.5268   44.9371 H   0  0  0  0  0  0  0  0  0  0  0  0
   40.0466   32.7837   45.0374 H   0  0  0  0  0  0  0  0  0  0  0  0
   39.8913   34.0521   47.1981 H   0  0  0  0  0  0  0  0  0  0  0  0
  2  3  1  0
  2  1  1  0
  3  4  2  0
  4  5  1  0
  6  5  2  0
  7  6  1  0
  8  7  2  0
  8  3  1  0
  9  7  1  0
 10  9  2  0
 11 10  1  0
 12 13  1  0
 12 11  2  0
 13 18  2  0
 14 15  2  0
 14 13  1  0
 15 16  1  0
 16 17  2  0
 18 17  1  0
 18  9  1  0
 19  1  1  0
 19 24  1  0
 21 20  2  0
 22 21  1  0
 23 22  2  0
 23 24  1  0
 24 25  2  0
 25 20  1  0
 27 28  2  0
 27 26  1  0
 28 22  1  0
 29 28  1  0
 30 31  1  0
 30 29  2  0
 31 32  2  0
 32 27  1  0
  1 33  1  0
  1 34  1  0
  2 35  1  0
  2 36  1  0
  4 37  1  0
  5 38  1  0
 10 39  1  0
 11 40  1  0
 12 41  1  0
 14 42  1  0
 15 43  1  0
 16 44  1  0
 17 45  1  0
 20 46  1  0
 21 47  1  0
 29 48  1  0
 30 49  1  0
 31 50  1  0
 32 51  1  0
M  END
>  <minimizedAffinity>  (1) 
-7.53017092

>  <minimizedRMSD>  (1) 
2.97808766

$$$$
