
     RDKit          3D

 27 29  0  0  0  0  0  0  0  0999 V2000
   37.3250   30.7070   46.7200 C   0  0  0  0  0  0  0  0  0  0  0  0
   36.1380   30.3570   46.0840 C   0  0  0  0  0  0  0  0  0  0  0  0
   34.9920   29.9900   46.7170 C   0  0  0  0  0  0  0  0  0  0  0  0
   34.9510   29.9470   48.0850 C   0  0  0  0  0  0  0  0  0  0  0  0
   36.0850   30.2790   48.7880 C   0  0  0  0  0  0  0  0  0  0  0  0
   35.9810   30.2170   50.1600 C   0  0  0  0  0  0  0  0  0  0  0  0
   37.0770   30.5360   50.9250 C   0  0  0  0  0  0  0  0  0  0  0  0
   38.2470   30.9100   50.2750 C   0  0  0  0  0  0  0  0  0  0  0  0
   38.2720   30.9480   48.8980 C   0  0  0  0  0  0  0  0  0  0  0  0
   37.2130   30.6410   48.0900 C   0  0  0  0  0  0  0  0  0  0  0  0
   39.7500   33.0260   45.4510 C   0  0  0  0  0  0  0  0  0  0  0  0
   40.7340   32.2940   44.7970 C   0  0  0  0  0  0  0  0  0  0  0  0
   40.5530   30.9250   44.7910 C   0  0  0  0  0  0  0  0  0  0  0  0
   39.4780   30.3860   45.3950 N   0  0  0  0  0  0  0  0  0  0  0  0
   38.5310   31.0920   46.0240 C   0  0  0  0  0  0  0  0  0  0  0  0
   38.7290   32.3940   46.0150 N   0  0  0  0  0  0  0  0  0  0  0  0
   39.9320   34.4190   45.4590 O   0  0  0  0  0  0  0  0  0  0  0  0
   36.1258   30.3789   44.9843 H   0  0  0  0  0  0  0  0  0  0  0  0
   34.0988   29.7279   46.1308 H   0  0  0  0  0  0  0  0  0  0  0  0
   34.0304   29.6531   48.6104 H   0  0  0  0  0  0  0  0  0  0  0  0
   35.0357   29.9169   50.6357 H   0  0  0  0  0  0  0  0  0  0  0  0
   37.0295   30.4964   52.0233 H   0  0  0  0  0  0  0  0  0  0  0  0
   39.1444   31.1731   50.8542 H   0  0  0  0  0  0  0  0  0  0  0  0
   39.2130   31.2473   48.4133 H   0  0  0  0  0  0  0  0  0  0  0  0
   41.5995   32.7733   44.3161 H   0  0  0  0  0  0  0  0  0  0  0  0
   41.2874   30.2752   44.2926 H   0  0  0  0  0  0  0  0  0  0  0  0
   40.7220   34.8176   45.0149 H   0  0  0  0  0  0  0  0  0  0  0  0
  1 10  2  0
  2  3  2  0
  2  1  1  0
  3  4  1  0
  4  5  2  0
  5  6  1  0
  6  7  2  0
  8  7  1  0
  9  8  2  0
 10  5  1  0
 10  9  1  0
 11 17  1  0
 11 16  2  0
 12 11  1  0
 13 12  2  0
 13 14  1  0
 14 15  2  0
 15  1  1  0
 16 15  1  0
  2 18  1  0
  3 19  1  0
  4 20  1  0
  6 21  1  0
  7 22  1  0
  8 23  1  0
  9 24  1  0
 12 25  1  0
 13 26  1  0
 17 27  1  0
M  ISO  8  18  14  19  14  20  14  21  14  22  14  23  14  24  14  25  14
M  ISO  2  26  14  27   3
M  END
>  <minimizedAffinity>  (1) 
-6.82512426

>  <minimizedRMSD>  (1) 
5.67515421

$$$$
