
     RDKit          3D

 26 27  0  0  0  0  0  0  0  0999 V2000
   38.1330   31.3090   49.9010 C   0  0  0  0  0  0  0  0  0  0  0  0
   38.1590   31.3850   48.4910 C   0  0  0  0  0  0  0  0  0  0  0  0
   37.1480   30.7620   47.7780 C   0  0  0  0  0  0  0  0  0  0  0  0
   36.2060   30.1220   48.5080 N   0  0  0  0  0  0  0  0  0  0  0  0
   36.1900   30.0560   49.8410 C   0  0  0  0  0  0  0  0  0  0  0  0
   37.1560   30.6510   50.5300 N   0  0  0  0  0  0  0  0  0  0  0  0
   38.1500   31.2430   45.5870 C   0  0  0  0  0  0  0  0  0  0  0  0
   37.0900   30.7860   46.3230 C   0  0  0  0  0  0  0  0  0  0  0  0
   35.9940   30.3600   45.6220 C   0  0  0  0  0  0  0  0  0  0  0  0
   35.8880   30.3630   44.2470 C   0  0  0  0  0  0  0  0  0  0  0  0
   36.9520   30.8220   43.4990 C   0  0  0  0  0  0  0  0  0  0  0  0
   38.0610   31.2520   44.1940 C   0  0  0  0  0  0  0  0  0  0  0  0
   39.6240   31.8210   46.3300 S   0  0  0  0  0  0  0  0  0  0  0  0
   39.8950   33.2650   45.9270 O   0  0  0  0  0  0  0  0  0  0  0  0
   40.8070   31.0500   45.7860 O   0  0  0  0  0  0  0  0  0  0  0  0
   35.0820   29.3140   50.4810 C   0  0  0  0  0  0  0  0  0  0  0  0
   35.2950   29.1170   51.8440 F   0  0  0  0  0  0  0  0  0  0  0  0
   33.8730   30.0250   50.3950 F   0  0  0  0  0  0  0  0  0  0  0  0
   34.8290   28.0870   49.9470 F   0  0  0  0  0  0  0  0  0  0  0  0
   38.9257   31.7969   50.4871 H   0  0  0  0  0  0  0  0  0  0  0  0
   38.9633   31.9263   47.9712 H   0  0  0  0  0  0  0  0  0  0  0  0
   35.1341   29.9877   46.1982 H   0  0  0  0  0  0  0  0  0  0  0  0
   34.9711   30.0056   43.7555 H   0  0  0  0  0  0  0  0  0  0  0  0
   36.9167   30.8437   42.3998 H   0  0  0  0  0  0  0  0  0  0  0  0
   38.9232   31.6225   43.6201 H   0  0  0  0  0  0  0  0  0  0  0  0
   39.4731   31.6817   47.6845 H   0  0  0  0  0  0  0  0  0  0  0  0
  1  6  2  0
  2  1  1  0
  3  2  2  0
  3  4  1  0
  4  5  2  0
  5 16  1  0
  5  6  1  0
  7  8  2  0
  7 13  1  0
  8  3  1  0
  9  8  1  0
 10  9  2  0
 11 12  2  0
 11 10  1  0
 12  7  1  0
 14 13  2  0
 15 13  2  0
 16 17  1  0
 18 16  1  0
 19 16  1  0
  1 20  1  0
  2 21  1  0
  9 22  1  0
 10 23  1  0
 11 24  1  0
 12 25  1  0
 13 26  1  0
M  ISO  7  20  14  21  14  22  14  23  14  24  14  25  14  26  11
M  END
>  <minimizedAffinity>  (1) 
-5.74641657

>  <minimizedRMSD>  (1) 
1.28143299

$$$$
