
     RDKit          3D

 33 35  0  0  0  0  0  0  0  0999 V2000
   36.1750   31.0260   48.5350 F   0  0  0  0  0  0  0  0  0  0  0  0
   36.3950   30.7710   47.1950 C   0  0  0  0  0  0  0  0  0  0  0  0
   35.6060   29.8880   46.4660 C   0  0  0  0  0  0  0  0  0  0  0  0
   35.8770   29.6770   45.1330 C   0  0  0  0  0  0  0  0  0  0  0  0
   36.9270   30.3300   44.5040 C   0  0  0  0  0  0  0  0  0  0  0  0
   37.6900   31.2070   45.2810 C   0  0  0  0  0  0  0  0  0  0  0  0
   37.4490   31.4410   46.6110 C   0  0  0  0  0  0  0  0  0  0  0  0
   34.9230   28.6650   48.3970 C   0  0  0  0  0  0  0  0  0  0  0  0
   34.5390   29.2530   47.1950 C   0  0  0  0  0  0  0  0  0  0  0  0
   33.2000   29.1620   46.8460 C   0  0  0  0  0  0  0  0  0  0  0  0
   32.3380   28.5120   47.6790 N   0  0  0  0  0  0  0  0  0  0  0  0
   32.7480   27.9590   48.8280 C   0  0  0  0  0  0  0  0  0  0  0  0
   34.0440   28.0310   49.1970 N   0  0  0  0  0  0  0  0  0  0  0  0
   39.4060   33.0490   46.9730 C   0  0  0  0  0  0  0  0  0  0  0  0
   38.2870   32.3750   47.3700 C   0  0  0  0  0  0  0  0  0  0  0  0
   37.8130   32.5460   48.6710 C   0  0  0  0  0  0  0  0  0  0  0  0
   38.4420   33.3780   49.5690 C   0  0  0  0  0  0  0  0  0  0  0  0
   39.5820   34.0570   49.1400 C   0  0  0  0  0  0  0  0  0  0  0  0
   40.0530   33.8840   47.8450 C   0  0  0  0  0  0  0  0  0  0  0  0
   39.8900   32.7450   45.3280 S   0  0  0  0  0  0  0  0  0  0  0  0
   40.1320   33.9990   44.5600 O   0  0  0  0  0  0  0  0  0  0  0  0
   41.2280   32.0270   45.4050 O   0  0  0  0  0  0  0  0  0  0  0  0
   35.2509   28.9794   44.5573 H   0  0  0  0  0  0  0  0  0  0  0  0
   37.1498   30.1649   43.4395 H   0  0  0  0  0  0  0  0  0  0  0  0
   38.5264   31.7364   44.8012 H   0  0  0  0  0  0  0  0  0  0  0  0
   35.9781   28.7199   48.7033 H   0  0  0  0  0  0  0  0  0  0  0  0
   32.8376   29.6088   45.9084 H   0  0  0  0  0  0  0  0  0  0  0  0
   32.0235   27.4428   49.4750 H   0  0  0  0  0  0  0  0  0  0  0  0
   36.9117   32.0008   48.9878 H   0  0  0  0  0  0  0  0  0  0  0  0
   38.0579   33.5033   50.5921 H   0  0  0  0  0  0  0  0  0  0  0  0
   40.1100   34.7319   49.8297 H   0  0  0  0  0  0  0  0  0  0  0  0
   40.9541   34.4226   47.5165 H   0  0  0  0  0  0  0  0  0  0  0  0
   38.8961   32.0380   44.7041 H   0  0  0  0  0  0  0  0  0  0  0  0
  2  1  1  0
  3  2  2  0
  3  9  1  0
  4  3  1  0
  5  4  2  0
  5  6  1  0
  6  7  2  0
  7  2  1  0
  7 15  1  0
  8 13  2  0
  9  8  1  0
 10  9  2  0
 10 11  1  0
 11 12  2  0
 12 13  1  0
 14 15  2  0
 14 19  1  0
 15 16  1  0
 16 17  2  0
 18 17  1  0
 19 18  2  0
 20 22  2  0
 20 14  1  0
 21 20  2  0
  4 23  1  0
  5 24  1  0
  6 25  1  0
  8 26  1  0
 10 27  1  0
 12 28  1  0
 16 29  1  0
 17 30  1  0
 18 31  1  0
 19 32  1  0
 20 33  1  0
M  ISO  8  23  14  24  14  25  14  26  14  27  14  28  14  29  14  30  14
M  ISO  3  31  14  32  14  33  11
M  END
>  <minimizedAffinity>  (1) 
-5.66242647

>  <minimizedRMSD>  (1) 
3.21757317

$$$$
