
     RDKit          3D

 35 37  0  0  0  0  0  0  0  0999 V2000
   33.2440   27.6690   48.5600 C   0  0  0  0  0  0  0  0  0  0  0  0
   33.3060   26.5180   47.6880 C   0  0  0  0  0  0  0  0  0  0  0  0
   31.6050   25.9910   47.6870 S   0  0  0  0  0  0  0  0  0  0  0  0
   31.0540   27.3660   48.8390 C   0  0  0  0  0  0  0  0  0  0  0  0
   32.0700   27.9600   49.0480 N   0  0  0  0  0  0  0  0  0  0  0  0
   28.8200   28.2420   48.4500 C   0  0  0  0  0  0  0  0  0  0  0  0
   29.6660   27.5480   49.2920 C   0  0  0  0  0  0  0  0  0  0  0  0
   29.2640   27.0330   50.5080 C   0  0  0  0  0  0  0  0  0  0  0  0
   27.9730   27.1960   50.9410 C   0  0  0  0  0  0  0  0  0  0  0  0
   27.1130   27.8900   50.1070 C   0  0  0  0  0  0  0  0  0  0  0  0
   27.5350   28.3960   48.8940 C   0  0  0  0  0  0  0  0  0  0  0  0
   29.4270   28.8530   46.9290 S   0  0  0  0  0  0  0  0  0  0  0  0
   28.6510   30.0520   46.4970 O   0  0  0  0  0  0  0  0  0  0  0  0
   29.2070   27.8040   45.8550 O   0  0  0  0  0  0  0  0  0  0  0  0
   34.5230   28.4150   48.8170 C   0  0  0  0  0  0  0  0  0  0  0  0
   34.6850   29.5540   47.8560 C   0  0  0  0  0  0  0  0  0  0  0  0
   36.8290   31.7320   49.9710 C   0  0  0  0  0  0  0  0  0  0  0  0
   37.8340   32.1280   49.0830 C   0  0  0  0  0  0  0  0  0  0  0  0
   37.7620   31.6420   47.7730 C   0  0  0  0  0  0  0  0  0  0  0  0
   36.7400   30.8260   47.4350 N   0  0  0  0  0  0  0  0  0  0  0  0
   35.7910   30.4730   48.3340 C   0  0  0  0  0  0  0  0  0  0  0  0
   35.8220   30.9140   49.5900 N   0  0  0  0  0  0  0  0  0  0  0  0
   34.1713   26.0842   47.1654 H   0  0  0  0  0  0  0  0  0  0  0  0
   29.9849   26.4875   51.1347 H   0  0  0  0  0  0  0  0  0  0  0  0
   27.6359   26.7934   51.9076 H   0  0  0  0  0  0  0  0  0  0  0  0
   26.0689   28.0417   50.4183 H   0  0  0  0  0  0  0  0  0  0  0  0
   26.8155   28.9402   48.2645 H   0  0  0  0  0  0  0  0  0  0  0  0
   30.7510   29.1634   47.0953 H   0  0  0  0  0  0  0  0  0  0  0  0
   34.5086   28.8101   49.8435 H   0  0  0  0  0  0  0  0  0  0  0  0
   35.3658   27.7211   48.6821 H   0  0  0  0  0  0  0  0  0  0  0  0
   33.7423   30.1176   47.7949 H   0  0  0  0  0  0  0  0  0  0  0  0
   34.9442   29.1583   46.8629 H   0  0  0  0  0  0  0  0  0  0  0  0
   36.8585   32.0961   51.0086 H   0  0  0  0  0  0  0  0  0  0  0  0
   38.6486   32.7950   49.4017 H   0  0  0  0  0  0  0  0  0  0  0  0
   38.5249   31.9197   47.0308 H   0  0  0  0  0  0  0  0  0  0  0  0
  1 15  1  0
  1  5  1  0
  2  1  2  0
  3  2  1  0
  3  4  1  0
  4  5  2  0
  4  7  1  0
  6 11  2  0
  6  7  1  0
  7  8  2  0
  8  9  1  0
 10  9  2  0
 11 10  1  0
 12  6  1  0
 13 12  2  0
 14 12  2  0
 16 21  1  0
 16 15  1  0
 18 17  2  0
 19 18  1  0
 20 19  2  0
 20 21  1  0
 21 22  2  0
 22 17  1  0
  2 23  1  0
  8 24  1  0
  9 25  1  0
 10 26  1  0
 11 27  1  0
 12 28  1  0
 15 29  1  0
 15 30  1  0
 16 31  1  0
 16 32  1  0
 17 33  1  0
 18 34  1  0
 19 35  1  0
M  ISO  8  23  14  24  14  25  14  26  14  27  14  28  11  29   8  30   8
M  ISO  5  31   8  32   8  33  14  34  14  35  14
M  END
>  <minimizedAffinity>  (1) 
-5.72281694

>  <minimizedRMSD>  (1) 
2.28863931

$$$$
