
     RDKit          3D

 25 26  0  0  0  0  0  0  0  0999 V2000
   34.2050   29.1550   46.6810 C   0  0  0  0  0  0  0  0  0  0  0  0
   34.8180   29.3310   47.9030 C   0  0  0  0  0  0  0  0  0  0  0  0
   34.2380   28.7910   49.0330 C   0  0  0  0  0  0  0  0  0  0  0  0
   33.0490   28.0690   48.9920 C   0  0  0  0  0  0  0  0  0  0  0  0
   32.4100   27.8760   47.7850 C   0  0  0  0  0  0  0  0  0  0  0  0
   33.0260   28.4360   46.6750 C   0  0  0  0  0  0  0  0  0  0  0  0
   37.9280   30.7640   49.3010 C   0  0  0  0  0  0  0  0  0  0  0  0
   38.4250   31.5210   48.2190 C   0  0  0  0  0  0  0  0  0  0  0  0
   37.6610   31.5080   47.0390 C   0  0  0  0  0  0  0  0  0  0  0  0
   36.5110   30.7790   47.0150 N   0  0  0  0  0  0  0  0  0  0  0  0
   36.0670   30.0690   48.0630 C   0  0  0  0  0  0  0  0  0  0  0  0
   36.7850   30.0770   49.1840 N   0  0  0  0  0  0  0  0  0  0  0  0
   38.6150   30.7000   50.5520 N   0  0  0  0  0  0  0  0  0  0  0  0
   34.9110   29.8230   45.2480 S   0  0  0  0  0  0  0  0  0  0  0  0
   33.9890   30.7050   44.4650 O   0  0  0  0  0  0  0  0  0  0  0  0
   35.2410   28.6650   44.3210 O   0  0  0  0  0  0  0  0  0  0  0  0
   34.7348   28.9370   50.0035 H   0  0  0  0  0  0  0  0  0  0  0  0
   32.6213   27.6546   49.9168 H   0  0  0  0  0  0  0  0  0  0  0  0
   31.4688   27.3121   47.7071 H   0  0  0  0  0  0  0  0  0  0  0  0
   32.5308   28.2946   45.7030 H   0  0  0  0  0  0  0  0  0  0  0  0
   39.3621   32.0920   48.2949 H   0  0  0  0  0  0  0  0  0  0  0  0
   37.9853   32.0747   46.1537 H   0  0  0  0  0  0  0  0  0  0  0  0
   38.2278   30.1389   51.3241 H   0  0  0  0  0  0  0  0  0  0  0  0
   39.4975   31.2150   50.6818 H   0  0  0  0  0  0  0  0  0  0  0  0
   35.9863   30.5679   45.6553 H   0  0  0  0  0  0  0  0  0  0  0  0
  1  2  2  0
  2 11  1  0
  2  3  1  0
  4  3  2  0
  5  4  1  0
  6  1  1  0
  6  5  2  0
  7 13  1  0
  8  7  2  0
  9  8  1  0
 10  9  2  0
 10 11  1  0
 11 12  2  0
 12  7  1  0
 14  1  1  0
 15 14  2  0
 16 14  2  0
  3 17  1  0
  4 18  1  0
  5 19  1  0
  6 20  1  0
  8 21  1  0
  9 22  1  0
 13 23  1  0
 13 24  1  0
 14 25  1  0
M  ISO  7  17  14  18  14  19  14  20  14  21  14  22  14  25  11
M  END
>  <minimizedAffinity>  (1) 
-4.70791101

>  <minimizedRMSD>  (1) 
1.54400802

$$$$
