
     RDKit          3D

 35 37  0  0  1  0  0  0  0  0999 V2000
   36.5840   29.8270   48.8140 C   0  0  0  0  0  0  0  0  0  0  0  0
   37.6630   30.5450   48.2500 C   0  0  0  0  0  0  0  0  0  0  0  0
   37.5360   30.9660   46.9330 C   0  0  0  0  0  0  0  0  0  0  0  0
   36.3930   30.6530   46.3060 N   0  0  0  0  0  0  0  0  0  0  0  0
   35.3610   29.9690   46.8380 C   0  0  0  0  0  0  0  0  0  0  0  0
   35.4760   29.5570   48.1130 N   0  0  0  0  0  0  0  0  0  0  0  0
   38.5430   31.6870   46.2710 N   0  0  0  0  0  0  0  0  0  0  0  0
   39.4900   32.5760   46.9510 C   0  0  0  0  0  0  0  0  0  0  0  0
   40.3230   33.1880   45.8610 C   0  0  0  0  0  0  0  0  0  0  0  0
   39.3880   33.1100   44.6950 C   0  0  0  0  0  0  0  0  0  0  0  0
   38.8520   31.7070   44.8970 C   0  0  2  0  0  0  0  0  0  0  0  0
   37.7160   30.2280   43.2280 C   0  0  0  0  0  0  0  0  0  0  0  0
   37.7710   31.4120   43.9410 C   0  0  0  0  0  0  0  0  0  0  0  0
   36.7380   32.2620   43.6250 C   0  0  0  0  0  0  0  0  0  0  0  0
   35.7390   32.0240   42.7210 C   0  0  0  0  0  0  0  0  0  0  0  0
   35.7440   30.8180   42.0440 C   0  0  0  0  0  0  0  0  0  0  0  0
   36.7480   29.9200   42.3090 C   0  0  0  0  0  0  0  0  0  0  0  0
   38.9800   29.0240   43.5200 S   0  0  0  0  0  0  0  0  0  0  0  0
   38.3890   27.6950   43.1020 O   0  0  0  0  0  0  0  0  0  0  0  0
   40.2080   29.3440   42.7570 O   0  0  0  0  0  0  0  0  0  0  0  0
   36.6566   29.4812   49.8557 H   0  0  0  0  0  0  0  0  0  0  0  0
   38.5701   30.7623   48.8331 H   0  0  0  0  0  0  0  0  0  0  0  0
   34.4563   29.7551   46.2500 H   0  0  0  0  0  0  0  0  0  0  0  0
   38.9515   33.3573   47.5074 H   0  0  0  0  0  0  0  0  0  0  0  0
   40.1088   32.0313   47.6792 H   0  0  0  0  0  0  0  0  0  0  0  0
   40.5888   34.2296   46.0945 H   0  0  0  0  0  0  0  0  0  0  0  0
   41.2882   32.6864   45.6975 H   0  0  0  0  0  0  0  0  0  0  0  0
   39.9180   33.2127   43.7366 H   0  0  0  0  0  0  0  0  0  0  0  0
   38.6248   33.9011   44.6534 H   0  0  0  0  0  0  0  0  0  0  0  0
   39.5461   30.8835   44.6733 H   0  0  0  0  0  0  0  0  0  0  0  0
   36.7120   33.2281   44.1503 H   0  0  0  0  0  0  0  0  0  0  0  0
   34.9532   32.7715   42.5376 H   0  0  0  0  0  0  0  0  0  0  0  0
   34.9601   30.5833   41.3088 H   0  0  0  0  0  0  0  0  0  0  0  0
   36.7751   28.9539   41.7838 H   0  0  0  0  0  0  0  0  0  0  0  0
   39.3590   28.9990   44.8363 H   0  0  0  0  0  0  0  0  0  0  0  0
  2  1  2  0
  3  2  1  0
  4  5  1  0
  4  3  2  0
  5  6  2  0
  6  1  1  0
  7  3  1  0
  7  8  1  0
  9  8  1  0
 10 11  1  0
 10  9  1  0
 11  7  1  0
 12 18  1  0
 12 13  2  0
 13 11  1  0
 14 13  1  0
 15 14  2  0
 16 17  2  0
 16 15  1  0
 17 12  1  0
 19 18  2  0
 20 18  2  0
  1 21  1  0
  2 22  1  0
  5 23  1  0
  8 24  1  0
  8 25  1  0
  9 26  1  0
  9 27  1  0
 10 28  1  0
 10 29  1  0
 11 30  1  1
 14 31  1  0
 15 32  1  0
 16 33  1  0
 17 34  1  0
 18 35  1  0
M  ISO  8  21  14  22  14  23  14  24  13  25  13  26  13  27  13  28  13
M  ISO  7  29  13  30  13  31  14  32  14  33  14  34  14  35  11
M  END
>  <minimizedAffinity>  (1) 
-4.72504759

>  <minimizedRMSD>  (1) 
2.88163972

$$$$
