
     RDKit          3D

 51 55  0  0  0  0  0  0  0  0999 V2000
   40.1420   31.0420   44.0720 C   0  0  0  0  0  0  0  0  0  0  0  0
   39.5840   31.8980   44.9980 C   0  0  0  0  0  0  0  0  0  0  0  0
   38.4910   32.6810   44.6130 C   0  0  0  0  0  0  0  0  0  0  0  0
   37.9670   32.6060   43.3170 C   0  0  0  0  0  0  0  0  0  0  0  0
   36.9600   33.2050   42.6620 N   0  0  0  0  0  0  0  0  0  0  0  0
   36.8950   32.7460   41.3940 C   0  0  0  0  0  0  0  0  0  0  0  0
   37.8930   31.8280   41.2510 N   0  0  0  0  0  0  0  0  0  0  0  0
   38.5580   31.7330   42.4220 C   0  0  0  0  0  0  0  0  0  0  0  0
   39.6420   30.9530   42.7990 C   0  0  0  0  0  0  0  0  0  0  0  0
   39.9620   28.6900   41.7670 C   0  0  0  0  0  0  0  0  0  0  0  0
   40.2730   30.0300   41.8630 C   0  0  0  0  0  0  0  0  0  0  0  0
   41.2400   30.5730   41.0390 C   0  0  0  0  0  0  0  0  0  0  0  0
   41.8610   29.7290   40.1400 C   0  0  0  0  0  0  0  0  0  0  0  0
   41.5910   28.3650   39.9930 C   0  0  0  0  0  0  0  0  0  0  0  0
   40.6010   27.8930   40.8630 C   0  0  0  0  0  0  0  0  0  0  0  0
   38.7280   28.0470   42.8340 S   0  0  0  0  0  0  0  0  0  0  0  0
   38.8780   28.5620   44.2200 O   0  0  0  0  0  0  0  0  0  0  0  0
   37.4100   28.5650   42.2770 O   0  0  0  0  0  0  0  0  0  0  0  0
   39.9190   32.1400   46.3010 O   0  0  0  0  0  0  0  0  0  0  0  0
   38.1010   31.3720   47.7040 C   0  0  0  0  0  0  0  0  0  0  0  0
   37.2250   31.4580   48.7820 C   0  0  0  0  0  0  0  0  0  0  0  0
   37.3990   32.5900   49.5800 C   0  0  0  0  0  0  0  0  0  0  0  0
   38.3900   33.5540   49.2950 C   0  0  0  0  0  0  0  0  0  0  0  0
   39.2260   33.3700   48.1760 C   0  0  0  0  0  0  0  0  0  0  0  0
   39.0650   32.2460   47.3700 C   0  0  0  0  0  0  0  0  0  0  0  0
   35.1130   30.3500   48.2350 C   0  0  0  0  0  0  0  0  0  0  0  0
   36.2210   30.4830   49.0710 C   0  0  0  0  0  0  0  0  0  0  0  0
   36.3040   29.6320   50.1850 C   0  0  0  0  0  0  0  0  0  0  0  0
   35.3050   28.7370   50.3820 N   0  0  0  0  0  0  0  0  0  0  0  0
   34.2420   28.6410   49.5410 C   0  0  0  0  0  0  0  0  0  0  0  0
   34.1490   29.4430   48.4760 N   0  0  0  0  0  0  0  0  0  0  0  0
   37.4620   29.7290   51.1110 C   0  0  0  0  0  0  0  0  0  0  0  0
   38.0020   30.2670   46.8440 O   0  0  0  0  0  0  0  0  0  0  0  0
   41.0026   30.4203   44.3598 H   0  0  0  0  0  0  0  0  0  0  0  0
   38.0351   33.3678   45.3413 H   0  0  0  0  0  0  0  0  0  0  0  0
   36.3293   33.9113   43.0674 H   0  0  0  0  0  0  0  0  0  0  0  0
   36.1738   33.0541   40.6227 H   0  0  0  0  0  0  0  0  0  0  0  0
   41.5054   31.6389   41.0971 H   0  0  0  0  0  0  0  0  0  0  0  0
   42.6307   30.1651   39.4863 H   0  0  0  0  0  0  0  0  0  0  0  0
   42.1073   27.7239   39.2633 H   0  0  0  0  0  0  0  0  0  0  0  0
   40.3254   26.8292   40.8154 H   0  0  0  0  0  0  0  0  0  0  0  0
   38.8077   26.6804   42.8884 H   0  0  0  0  0  0  0  0  0  0  0  0
   36.7468   32.7346   50.4539 H   0  0  0  0  0  0  0  0  0  0  0  0
   38.5081   34.4381   49.9388 H   0  0  0  0  0  0  0  0  0  0  0  0
   40.0032   34.1117   47.9398 H   0  0  0  0  0  0  0  0  0  0  0  0
   35.0247   31.0041   47.3550 H   0  0  0  0  0  0  0  0  0  0  0  0
   33.4539   27.8993   49.7378 H   0  0  0  0  0  0  0  0  0  0  0  0
   37.1037   29.6990   52.1506 H   0  0  0  0  0  0  0  0  0  0  0  0
   38.1448   28.8849   50.9340 H   0  0  0  0  0  0  0  0  0  0  0  0
   37.9948   30.6749   50.9340 H   0  0  0  0  0  0  0  0  0  0  0  0
   38.6148   30.1851   46.0708 H   0  0  0  0  0  0  0  0  0  0  0  0
  1  2  2  0
  2 19  1  0
  3  2  1  0
  4  3  2  0
  5  4  1  0
  6  5  1  0
  7  6  2  0
  7  8  1  0
  8  9  2  0
  8  4  1  0
  9  1  1  0
 10 11  2  0
 10 16  1  0
 11  9  1  0
 12 11  1  0
 13 12  2  0
 14 13  1  0
 14 15  2  0
 15 10  1  0
 16 17  2  0
 18 16  2  0
 19 25  1  0
 20 21  2  0
 21 27  1  0
 21 22  1  0
 23 22  2  0
 24 23  1  0
 25 20  1  0
 25 24  2  0
 26 31  2  0
 26 27  1  0
 27 28  2  0
 28 29  1  0
 28 32  1  0
 30 29  2  0
 31 30  1  0
 33 20  1  0
  1 34  1  0
  3 35  1  0
  5 36  1  0
  6 37  1  0
 12 38  1  0
 13 39  1  0
 14 40  1  0
 15 41  1  0
 16 42  1  0
 22 43  1  0
 23 44  1  0
 24 45  1  0
 26 46  1  0
 30 47  1  0
 32 48  1  0
 32 49  1  0
 32 50  1  0
 33 51  1  0
M  ISO  8  34  14  35  14  36   9  37  14  38  14  39  14  40  14  41  14
M  ISO  8  42  11  43  14  44  14  45  14  46  14  47  14  48   8  49   8
M  ISO  2  50   8  51   3
M  END
>  <minimizedAffinity>  (1) 
-7.45021629

>  <minimizedRMSD>  (1) 
0.648110509

$$$$
