
     RDKit          3D

 37 39  0  0  1  0  0  0  0  0999 V2000
   36.2580   30.2920   47.5630 N   0  0  0  0  0  0  0  0  0  0  0  0
   34.9420   30.1440   46.9430 C   0  0  0  0  0  0  0  0  0  0  0  0
   34.9810   30.1910   45.4640 C   0  0  0  0  0  0  0  0  0  0  0  0
   36.3100   29.9730   44.9650 N   0  0  0  0  0  0  0  0  0  0  0  0
   37.1040   31.1060   45.4300 C   0  0  0  0  0  0  0  0  0  0  0  0
   37.4210   30.7610   46.8580 C   0  0  1  0  0  0  0  0  0  0  0  0
   37.6230   29.5330   49.4520 C   0  0  0  0  0  0  0  0  0  0  0  0
   36.3750   29.9500   48.9340 C   0  0  0  0  0  0  0  0  0  0  0  0
   35.3050   30.0060   49.8090 C   0  0  0  0  0  0  0  0  0  0  0  0
   35.5220   29.6520   51.1260 N   0  0  0  0  0  0  0  0  0  0  0  0
   36.7320   29.2610   51.5720 C   0  0  0  0  0  0  0  0  0  0  0  0
   37.8080   29.1920   50.7530 N   0  0  0  0  0  0  0  0  0  0  0  0
   39.2190   32.4730   46.9770 C   0  0  0  0  0  0  0  0  0  0  0  0
   38.0850   31.9040   47.5230 C   0  0  0  0  0  0  0  0  0  0  0  0
   37.6130   32.4570   48.7120 C   0  0  0  0  0  0  0  0  0  0  0  0
   38.2580   33.5300   49.3130 C   0  0  0  0  0  0  0  0  0  0  0  0
   39.3980   34.0910   48.7500 C   0  0  0  0  0  0  0  0  0  0  0  0
   39.8540   33.5430   47.5850 C   0  0  0  0  0  0  0  0  0  0  0  0
   39.9260   31.8980   45.5050 S   0  0  0  0  0  0  0  0  0  0  0  0
   41.1650   31.0640   45.7940 O   0  0  0  0  0  0  0  0  0  0  0  0
   40.4540   33.1270   44.7750 O   0  0  0  0  0  0  0  0  0  0  0  0
   34.5185   29.1764   47.2502 H   0  0  0  0  0  0  0  0  0  0  0  0
   34.3272   30.9920   47.2790 H   0  0  0  0  0  0  0  0  0  0  0  0
   34.3166   29.4109   45.0640 H   0  0  0  0  0  0  0  0  0  0  0  0
   34.6510   31.1896   45.1418 H   0  0  0  0  0  0  0  0  0  0  0  0
   36.3047   29.9379   43.9356 H   0  0  0  0  0  0  0  0  0  0  0  0
   38.0254   31.2079   44.8379 H   0  0  0  0  0  0  0  0  0  0  0  0
   36.5741   32.0650   45.3321 H   0  0  0  0  0  0  0  0  0  0  0  0
   38.1305   29.9205   46.8713 H   0  0  0  0  0  0  0  0  0  0  0  0
   38.4839   29.4826   48.7691 H   0  0  0  0  0  0  0  0  0  0  0  0
   34.3095   30.3235   49.4654 H   0  0  0  0  0  0  0  0  0  0  0  0
   36.8489   28.9901   52.6317 H   0  0  0  0  0  0  0  0  0  0  0  0
   36.7127   32.0357   49.1832 H   0  0  0  0  0  0  0  0  0  0  0  0
   37.8595   33.9432   50.2513 H   0  0  0  0  0  0  0  0  0  0  0  0
   39.9117   34.9410   49.2229 H   0  0  0  0  0  0  0  0  0  0  0  0
   40.7544   33.9650   47.1147 H   0  0  0  0  0  0  0  0  0  0  0  0
   38.9963   31.1686   44.8118 H   0  0  0  0  0  0  0  0  0  0  0  0
  1  8  1  0
  2  1  1  0
  3  2  1  0
  4  5  1  0
  4  3  1  0
  5  6  1  0
  6 14  1  0
  6  1  1  0
  7 12  2  0
  8  7  1  0
  8  9  2  0
  9 10  1  0
 10 11  2  0
 12 11  1  0
 13 14  2  0
 13 18  1  0
 14 15  1  0
 15 16  2  0
 17 16  1  0
 18 17  2  0
 19 20  2  0
 19 13  1  0
 21 19  2  0
  2 22  1  0
  2 23  1  0
  3 24  1  0
  3 25  1  0
  4 26  1  0
  5 27  1  0
  5 28  1  0
  6 29  1  6
  7 30  1  0
  9 31  1  0
 11 32  1  0
 15 33  1  0
 16 34  1  0
 17 35  1  0
 18 36  1  0
 19 37  1  0
M  ISO  8  22  13  23  13  24  13  25  13  26   5  27  13  28  13  29  13
M  ISO  8  30  14  31  14  32  14  33  14  34  14  35  14  36  14  37  11
M  END
>  <minimizedAffinity>  (1) 
-5.43173933

>  <minimizedRMSD>  (1) 
3.64393425

$$$$
