
     RDKit          3D

 33 35  0  0  0  0  0  0  0  0999 V2000
   37.4110   29.8880   51.4960 Br  0  0  0  0  0  0  0  0  0  0  0  0
   36.0770   29.6620   50.1420 C   0  0  0  0  0  0  0  0  0  0  0  0
   36.1070   30.4120   48.9890 C   0  0  0  0  0  0  0  0  0  0  0  0
   35.1150   30.1910   48.0630 C   0  0  0  0  0  0  0  0  0  0  0  0
   34.0960   29.2570   48.2400 C   0  0  0  0  0  0  0  0  0  0  0  0
   34.1120   28.5370   49.4050 C   0  0  0  0  0  0  0  0  0  0  0  0
   35.0950   28.7380   50.3470 C   0  0  0  0  0  0  0  0  0  0  0  0
   38.1340   33.4200   49.4050 C   0  0  0  0  0  0  0  0  0  0  0  0
   39.1200   33.3030   48.3920 C   0  0  0  0  0  0  0  0  0  0  0  0
   39.0660   32.1750   47.5780 C   0  0  0  0  0  0  0  0  0  0  0  0
   38.0830   31.2550   47.7900 N   0  0  0  0  0  0  0  0  0  0  0  0
   37.1590   31.4020   48.7660 C   0  0  0  0  0  0  0  0  0  0  0  0
   37.1970   32.4880   49.5640 N   0  0  0  0  0  0  0  0  0  0  0  0
   32.0790   28.3550   47.0300 C   0  0  0  0  0  0  0  0  0  0  0  0
   33.1490   29.1860   47.1330 C   0  0  0  0  0  0  0  0  0  0  0  0
   33.3630   30.0610   46.0630 C   0  0  0  0  0  0  0  0  0  0  0  0
   32.5780   30.1260   44.9500 C   0  0  0  0  0  0  0  0  0  0  0  0
   31.4990   29.2860   44.8510 C   0  0  0  0  0  0  0  0  0  0  0  0
   31.2720   28.4190   45.8930 C   0  0  0  0  0  0  0  0  0  0  0  0
   31.7770   27.2580   48.3300 S   0  0  0  0  0  0  0  0  0  0  0  0
   30.6840   27.7100   49.2610 O   0  0  0  0  0  0  0  0  0  0  0  0
   31.2890   25.9620   47.6970 O   0  0  0  0  0  0  0  0  0  0  0  0
   35.1263   30.7816   47.1351 H   0  0  0  0  0  0  0  0  0  0  0  0
   33.3283   27.7877   49.5903 H   0  0  0  0  0  0  0  0  0  0  0  0
   35.0886   28.1473   51.2749 H   0  0  0  0  0  0  0  0  0  0  0  0
   38.1439   34.2958   50.0705 H   0  0  0  0  0  0  0  0  0  0  0  0
   39.8950   34.0716   48.2553 H   0  0  0  0  0  0  0  0  0  0  0  0
   39.8049   32.0285   46.7764 H   0  0  0  0  0  0  0  0  0  0  0  0
   34.2236   30.7435   46.1235 H   0  0  0  0  0  0  0  0  0  0  0  0
   32.8065   30.8402   44.1452 H   0  0  0  0  0  0  0  0  0  0  0  0
   30.8397   29.3052   43.9707 H   0  0  0  0  0  0  0  0  0  0  0  0
   30.4091   27.7400   45.8274 H   0  0  0  0  0  0  0  0  0  0  0  0
   32.9320   27.1466   49.0583 H   0  0  0  0  0  0  0  0  0  0  0  0
  2  7  2  0
  2  1  1  0
  3  2  1  0
  4  5  1  0
  4  3  2  0
  5  6  2  0
  6  7  1  0
  8 13  2  0
  9  8  1  0
 10 11  1  0
 10  9  2  0
 11 12  2  0
 12  3  1  0
 12 13  1  0
 14 15  2  0
 14 20  1  0
 15  5  1  0
 16 15  1  0
 17 16  2  0
 18 17  1  0
 18 19  2  0
 19 14  1  0
 20 21  2  0
 22 20  2  0
  4 23  1  0
  6 24  1  0
  7 25  1  0
  8 26  1  0
  9 27  1  0
 10 28  1  0
 16 29  1  0
 17 30  1  0
 18 31  1  0
 19 32  1  0
 20 33  1  0
M  ISO  8  23  14  24  14  25  14  26  14  27  14  28  14  29  14  30  14
M  ISO  3  31  14  32  14  33  11
M  END
>  <minimizedAffinity>  (1) 
-6.27385139

>  <minimizedRMSD>  (1) 
0.672482371

$$$$
