
     RDKit          3D

 43 45  0  0  1  0  0  0  0  0999 V2000
   35.1750   30.1030   43.5170 C   0  0  1  0  0  0  0  0  0  0  0  0
   34.6840   31.4520   43.2610 C   0  0  0  0  0  0  0  0  0  0  0  0
   34.9970   31.8270   41.8440 C   0  0  0  0  0  0  0  0  0  0  0  0
   36.3470   31.3720   41.4600 C   0  0  0  0  0  0  0  0  0  0  0  0
   37.2760   31.0780   42.5700 C   0  0  0  0  0  0  0  0  0  0  0  0
   36.6940   30.1720   43.6550 C   0  0  1  0  0  0  0  0  0  0  0  0
   33.9100   27.4530   45.7840 C   0  0  0  0  0  0  0  0  0  0  0  0
   34.4050   28.0800   44.6070 C   0  0  0  0  0  0  0  0  0  0  0  0
   34.6840   29.4370   44.7280 C   0  0  0  0  0  0  0  0  0  0  0  0
   34.4780   30.0880   45.9270 N   0  0  0  0  0  0  0  0  0  0  0  0
   34.0100   29.4540   47.0070 C   0  0  0  0  0  0  0  0  0  0  0  0
   33.7210   28.1340   46.9490 N   0  0  0  0  0  0  0  0  0  0  0  0
   38.3310   30.4450   45.7060 C   0  0  0  0  0  0  0  0  0  0  0  0
   39.1860   29.7980   45.0610 O   0  0  0  0  0  0  0  0  0  0  0  0
   37.1380   30.6080   44.9530 N   0  0  0  0  0  0  0  0  0  0  0  0
   38.9800   32.2550   47.0950 C   0  0  0  0  0  0  0  0  0  0  0  0
   38.3120   31.0360   47.0110 C   0  0  0  0  0  0  0  0  0  0  0  0
   37.6880   30.4780   48.1070 C   0  0  0  0  0  0  0  0  0  0  0  0
   37.7530   31.1840   49.3030 C   0  0  0  0  0  0  0  0  0  0  0  0
   38.3960   32.3770   49.4250 C   0  0  0  0  0  0  0  0  0  0  0  0
   39.0180   32.9290   48.3180 C   0  0  0  0  0  0  0  0  0  0  0  0
   39.7870   33.0040   45.7480 S   0  0  0  0  0  0  0  0  0  0  0  0
   38.8980   33.1050   44.5280 O   0  0  0  0  0  0  0  0  0  0  0  0
   41.0420   32.2370   45.4640 O   0  0  0  0  0  0  0  0  0  0  0  0
   34.8040   29.5108   42.6675 H   0  0  0  0  0  0  0  0  0  0  0  0
   33.5958   31.4841   43.4188 H   0  0  0  0  0  0  0  0  0  0  0  0
   35.1705   32.1601   43.9479 H   0  0  0  0  0  0  0  0  0  0  0  0
   34.2573   31.3601   41.1770 H   0  0  0  0  0  0  0  0  0  0  0  0
   34.9595   32.9228   41.7561 H   0  0  0  0  0  0  0  0  0  0  0  0
   36.2350   30.4543   40.8640 H   0  0  0  0  0  0  0  0  0  0  0  0
   36.7974   32.2141   40.9141 H   0  0  0  0  0  0  0  0  0  0  0  0
   38.1670   30.5865   42.1523 H   0  0  0  0  0  0  0  0  0  0  0  0
   37.5045   32.0399   43.0523 H   0  0  0  0  0  0  0  0  0  0  0  0
   37.0638   29.1433   43.5321 H   0  0  0  0  0  0  0  0  0  0  0  0
   33.6712   26.3797   45.7526 H   0  0  0  0  0  0  0  0  0  0  0  0
   34.5565   27.5298   43.6666 H   0  0  0  0  0  0  0  0  0  0  0  0
   33.8595   30.0076   47.9456 H   0  0  0  0  0  0  0  0  0  0  0  0
   36.4282   31.1657   45.4490 H   0  0  0  0  0  0  0  0  0  0  0  0
   37.1610   29.5149   48.0379 H   0  0  0  0  0  0  0  0  0  0  0  0
   37.2623   30.7588   50.1910 H   0  0  0  0  0  0  0  0  0  0  0  0
   38.4214   32.8978   50.3936 H   0  0  0  0  0  0  0  0  0  0  0  0
   39.5397   33.8938   48.4012 H   0  0  0  0  0  0  0  0  0  0  0  0
   40.1023   34.2964   46.0752 H   0  0  0  0  0  0  0  0  0  0  0  0
  1  6  1  0
  1  9  1  0
  2  1  1  0
  3  2  1  0
  4  3  1  0
  4  5  1  0
  5  6  1  0
  6 15  1  0
  7 12  2  0
  8  9  2  0
  8  7  1  0
  9 10  1  0
 10 11  2  0
 12 11  1  0
 13 17  1  0
 14 13  2  0
 15 13  1  0
 16 21  2  0
 17 16  1  0
 17 18  2  0
 18 19  1  0
 19 20  2  0
 21 20  1  0
 22 16  1  0
 23 22  2  0
 24 22  2  0
  1 25  1  6
  2 26  1  0
  2 27  1  0
  3 28  1  0
  3 29  1  0
  4 30  1  0
  4 31  1  0
  5 32  1  0
  5 33  1  0
  6 34  1  6
  7 35  1  0
  8 36  1  0
 11 37  1  0
 15 38  1  0
 18 39  1  0
 19 40  1  0
 20 41  1  0
 21 42  1  0
 22 43  1  0
M  ISO  8  25  13  26  13  27  13  28  13  29  13  30  13  31  13  32  13
M  ISO  8  33  13  34  13  35  14  36  14  37  14  39  14  40  14  41  14
M  ISO  2  42  14  43  11
M  END
>  <minimizedAffinity>  (1) 
-5.34063816

>  <minimizedRMSD>  (1) 
4.78499222

$$$$
