
     RDKit          3D

 25 26  0  0  0  0  0  0  0  0999 V2000
   38.6220   31.1870   45.6670 C   0  0  0  0  0  0  0  0  0  0  0  0
   37.5330   31.1250   46.5130 C   0  0  0  0  0  0  0  0  0  0  0  0
   36.3490   30.5710   46.0680 C   0  0  0  0  0  0  0  0  0  0  0  0
   36.1830   30.0650   44.8080 C   0  0  0  0  0  0  0  0  0  0  0  0
   37.2680   30.1230   43.9490 C   0  0  0  0  0  0  0  0  0  0  0  0
   38.4750   30.6820   44.3850 C   0  0  0  0  0  0  0  0  0  0  0  0
   40.1930   31.8320   46.0030 S   0  0  0  0  0  0  0  0  0  0  0  0
   40.2630   33.2360   45.4270 O   0  0  0  0  0  0  0  0  0  0  0  0
   41.2730   31.0590   45.2570 O   0  0  0  0  0  0  0  0  0  0  0  0
   37.7630   31.6780   47.8450 C   0  0  0  0  0  0  0  0  0  0  0  0
   38.2210   32.8330   47.9430 O   0  0  0  0  0  0  0  0  0  0  0  0
   37.5940   30.2710   51.3060 C   0  0  0  0  0  0  0  0  0  0  0  0
   37.9350   31.1170   50.2480 C   0  0  0  0  0  0  0  0  0  0  0  0
   37.4390   30.8290   48.9830 C   0  0  0  0  0  0  0  0  0  0  0  0
   36.6540   29.7350   48.8760 N   0  0  0  0  0  0  0  0  0  0  0  0
   36.3350   28.9340   49.8940 C   0  0  0  0  0  0  0  0  0  0  0  0
   36.8000   29.1930   51.1160 N   0  0  0  0  0  0  0  0  0  0  0  0
   35.4962   30.5347   46.7618 H   0  0  0  0  0  0  0  0  0  0  0  0
   35.2248   29.6289   44.4893 H   0  0  0  0  0  0  0  0  0  0  0  0
   37.1813   29.7302   42.9252 H   0  0  0  0  0  0  0  0  0  0  0  0
   39.3286   30.7214   43.6923 H   0  0  0  0  0  0  0  0  0  0  0  0
   40.3873   31.7757   47.3580 H   0  0  0  0  0  0  0  0  0  0  0  0
   37.9790   30.4860   52.3137 H   0  0  0  0  0  0  0  0  0  0  0  0
   38.5817   31.9914   50.4130 H   0  0  0  0  0  0  0  0  0  0  0  0
   35.6885   28.0602   49.7250 H   0  0  0  0  0  0  0  0  0  0  0  0
  1  7  1  0
  1  2  2  0
  2 10  1  0
  3  2  1  0
  4  3  2  0
  5  6  2  0
  5  4  1  0
  6  1  1  0
  8  7  2  0
  9  7  2  0
 10 11  2  0
 10 14  1  0
 13 12  2  0
 14 13  1  0
 15 14  2  0
 15 16  1  0
 16 17  2  0
 17 12  1  0
  3 18  1  0
  4 19  1  0
  5 20  1  0
  6 21  1  0
  7 22  1  0
 12 23  1  0
 13 24  1  0
 16 25  1  0
M  ISO  8  18  14  19  14  20  14  21  14  22  11  23  14  24  14  25  14
M  END
>  <minimizedAffinity>  (1) 
-4.81058025

>  <minimizedRMSD>  (1) 
0.890405715

$$$$
