
     RDKit          3D

 25 26  0  0  0  0  0  0  0  0999 V2000
   39.5050   32.9070   47.1200 C   0  0  0  0  0  0  0  0  0  0  0  0
   38.7100   32.2110   47.9850 C   0  0  0  0  0  0  0  0  0  0  0  0
   38.5160   32.7140   49.2550 C   0  0  0  0  0  0  0  0  0  0  0  0
   39.0860   33.8820   49.6840 C   0  0  0  0  0  0  0  0  0  0  0  0
   39.8940   34.5870   48.7980 C   0  0  0  0  0  0  0  0  0  0  0  0
   40.1060   34.0970   47.5070 C   0  0  0  0  0  0  0  0  0  0  0  0
   39.8360   32.3930   45.4990 S   0  0  0  0  0  0  0  0  0  0  0  0
   39.9900   33.5720   44.5600 O   0  0  0  0  0  0  0  0  0  0  0  0
   41.0690   31.5850   45.3780 O   0  0  0  0  0  0  0  0  0  0  0  0
   38.0900   30.9610   47.5520 C   0  0  0  0  0  0  0  0  0  0  0  0
   38.1430   30.2640   46.5400 O   0  0  0  0  0  0  0  0  0  0  0  0
   37.7610   29.7550   49.7250 C   0  0  0  0  0  0  0  0  0  0  0  0
   37.1890   30.4420   48.6110 C   0  0  0  0  0  0  0  0  0  0  0  0
   35.7960   30.5960   48.5700 C   0  0  0  0  0  0  0  0  0  0  0  0
   35.0690   30.0850   49.5850 N   0  0  0  0  0  0  0  0  0  0  0  0
   35.6380   29.4420   50.6220 C   0  0  0  0  0  0  0  0  0  0  0  0
   36.9650   29.2730   50.7010 N   0  0  0  0  0  0  0  0  0  0  0  0
   37.8764   32.1527   49.9520 H   0  0  0  0  0  0  0  0  0  0  0  0
   38.9095   34.2540   50.7040 H   0  0  0  0  0  0  0  0  0  0  0  0
   40.3656   35.5294   49.1135 H   0  0  0  0  0  0  0  0  0  0  0  0
   40.7444   34.6501   46.8024 H   0  0  0  0  0  0  0  0  0  0  0  0
   38.7541   31.6245   45.1587 H   0  0  0  0  0  0  0  0  0  0  0  0
   38.8508   29.6191   49.7868 H   0  0  0  0  0  0  0  0  0  0  0  0
   35.3095   31.1189   47.7335 H   0  0  0  0  0  0  0  0  0  0  0  0
   34.9980   29.0457   51.4240 H   0  0  0  0  0  0  0  0  0  0  0  0
  1  6  2  0
  1  2  1  0
  2  3  2  0
  3  4  1  0
  5  4  2  0
  6  5  1  0
  7  1  1  0
  8  7  2  0
  9  7  2  0
 10  2  1  0
 10 13  1  0
 11 10  2  0
 12 17  2  0
 13 12  1  0
 14 13  2  0
 14 15  1  0
 15 16  2  0
 16 17  1  0
  3 18  1  0
  4 19  1  0
  5 20  1  0
  6 21  1  0
  7 22  1  0
 12 23  1  0
 14 24  1  0
 16 25  1  0
M  ISO  8  18  14  19  14  20  14  21  14  22  11  23  14  24  14  25  14
M  END
>  <minimizedAffinity>  (1) 
-5.49719191

>  <minimizedRMSD>  (1) 
3.81022382

$$$$
