
     RDKit          3D

 44 47  0  0  1  0  0  0  0  0999 V2000
   33.3010   27.1340   48.3420 C   0  0  1  0  0  0  0  0  0  0  0  0
   33.7660   28.5250   48.6900 C   0  0  2  0  0  0  0  0  0  0  0  0
   33.6000   29.3910   47.4770 C   0  0  0  0  0  0  0  0  0  0  0  0
   33.1040   28.6920   46.3870 O   0  0  0  0  0  0  0  0  0  0  0  0
   31.8640   28.1180   46.6510 C   0  0  0  0  0  0  0  0  0  0  0  0
   31.8640   27.2550   47.8810 C   0  0  2  0  0  0  0  0  0  0  0  0
   34.0380   26.6230   47.2700 O   0  0  0  0  0  0  0  0  0  0  0  0
   35.4720   28.5490   49.2880 S   0  0  0  0  0  0  0  0  0  0  0  0
   35.6700   29.7990   50.5760 C   0  0  0  0  0  0  0  0  0  0  0  0
   37.3630   30.2900   50.8770 S   0  0  0  0  0  0  0  0  0  0  0  0
   38.0030   31.1300   49.4440 C   0  0  0  0  0  0  0  0  0  0  0  0
   38.3780   32.4320   49.6730 C   0  0  0  0  0  0  0  0  0  0  0  0
   38.8970   33.1780   48.5900 C   0  0  0  0  0  0  0  0  0  0  0  0
   38.9960   32.5510   47.3740 N   0  0  0  0  0  0  0  0  0  0  0  0
   38.6080   31.2640   47.2230 C   0  0  0  0  0  0  0  0  0  0  0  0
   38.1240   30.5710   48.2320 N   0  0  0  0  0  0  0  0  0  0  0  0
   31.1880   27.8930   48.9120 O   0  0  0  0  0  0  0  0  0  0  0  0
   29.1100   28.9850   48.1070 N   0  0  0  0  0  0  0  0  0  0  0  0
   29.8630   28.2290   48.9270 C   0  0  0  0  0  0  0  0  0  0  0  0
   29.0860   27.7420   49.9370 N   0  0  0  0  0  0  0  0  0  0  0  0
   27.8270   28.1810   49.7760 C   0  0  0  0  0  0  0  0  0  0  0  0
   26.6230   28.0340   50.4530 C   0  0  0  0  0  0  0  0  0  0  0  0
   25.5190   28.6420   49.9840 N   0  0  0  0  0  0  0  0  0  0  0  0
   25.5530   29.4000   48.8600 C   0  0  0  0  0  0  0  0  0  0  0  0
   26.7210   29.5450   48.2020 N   0  0  0  0  0  0  0  0  0  0  0  0
   27.8680   28.9550   48.6260 C   0  0  0  0  0  0  0  0  0  0  0  0
   26.5810   27.2490   51.6200 N   0  0  0  0  0  0  0  0  0  0  0  0
   33.4186   26.4734   49.2136 H   0  0  0  0  0  0  0  0  0  0  0  0
   33.1538   28.9126   49.5176 H   0  0  0  0  0  0  0  0  0  0  0  0
   32.9031   30.2068   47.7192 H   0  0  0  0  0  0  0  0  0  0  0  0
   34.5938   29.7746   47.2028 H   0  0  0  0  0  0  0  0  0  0  0  0
   31.1275   28.9234   46.7884 H   0  0  0  0  0  0  0  0  0  0  0  0
   31.6131   27.4718   45.7969 H   0  0  0  0  0  0  0  0  0  0  0  0
   31.3952   26.2873   47.6491 H   0  0  0  0  0  0  0  0  0  0  0  0
   34.8003   26.0944   47.6158 H   0  0  0  0  0  0  0  0  0  0  0  0
   35.1007   30.6921   50.2788 H   0  0  0  0  0  0  0  0  0  0  0  0
   35.3040   29.3474   51.5098 H   0  0  0  0  0  0  0  0  0  0  0  0
   38.2771   32.8816   50.6718 H   0  0  0  0  0  0  0  0  0  0  0  0
   39.2104   34.2246   48.7180 H   0  0  0  0  0  0  0  0  0  0  0  0
   38.6989   30.7865   46.2362 H   0  0  0  0  0  0  0  0  0  0  0  0
   29.4191   29.4825   47.2597 H   0  0  0  0  0  0  0  0  0  0  0  0
   24.6402   29.8899   48.4901 H   0  0  0  0  0  0  0  0  0  0  0  0
   25.6941   27.1325   52.1307 H   0  0  0  0  0  0  0  0  0  0  0  0
   27.4371   26.7908   51.9636 H   0  0  0  0  0  0  0  0  0  0  0  0
  1  2  1  0
  2  8  1  0
  3  2  1  0
  4  5  1  0
  4  3  1  0
  5  6  1  0
  6  1  1  0
  6 17  1  0
  7  1  1  0
  8  9  1  0
  9 10  1  0
 11 12  2  0
 11 10  1  0
 13 12  1  0
 14 13  2  0
 15 14  1  0
 15 16  2  0
 16 11  1  0
 17 19  1  0
 18 26  1  0
 18 19  1  0
 19 20  2  0
 21 20  1  0
 21 22  2  0
 22 27  1  0
 23 22  1  0
 24 23  2  0
 25 26  2  0
 25 24  1  0
 26 21  1  0
  1 28  1  1
  2 29  1  1
  3 30  1  0
  3 31  1  0
  5 32  1  0
  5 33  1  0
  6 34  1  6
  7 35  1  0
  9 36  1  0
  9 37  1  0
 12 38  1  0
 13 39  1  0
 15 40  1  0
 18 41  1  0
 24 42  1  0
 27 43  1  0
 27 44  1  0
M  ISO  8  28  13  29  13  30  13  31  13  32  13  33  13  34  13  35   3
M  ISO  7  36   8  37   8  38  14  39  14  40  14  41   9  42  14
M  END
>  <minimizedAffinity>  (1) 
-6.47045803

>  <minimizedRMSD>  (1) 
1.0899049

$$$$
