
     RDKit          3D

 38 41  0  0  0  0  0  0  0  0999 V2000
   38.0540   31.3520   47.8180 C   0  0  0  0  0  0  0  0  0  0  0  0
   37.0930   31.3310   48.8230 C   0  0  0  0  0  0  0  0  0  0  0  0
   37.1540   32.4170   49.6960 C   0  0  0  0  0  0  0  0  0  0  0  0
   38.1110   33.4200   49.5470 C   0  0  0  0  0  0  0  0  0  0  0  0
   39.0370   33.3500   48.5020 C   0  0  0  0  0  0  0  0  0  0  0  0
   39.0000   32.2890   47.6230 C   0  0  0  0  0  0  0  0  0  0  0  0
   34.9620   30.3120   48.1680 C   0  0  0  0  0  0  0  0  0  0  0  0
   36.1140   30.3030   48.9750 C   0  0  0  0  0  0  0  0  0  0  0  0
   36.2460   29.2720   49.9020 C   0  0  0  0  0  0  0  0  0  0  0  0
   35.2570   28.3360   49.9730 N   0  0  0  0  0  0  0  0  0  0  0  0
   34.1550   28.3780   49.1740 C   0  0  0  0  0  0  0  0  0  0  0  0
   34.0140   29.3650   48.2780 N   0  0  0  0  0  0  0  0  0  0  0  0
   37.4270   29.2060   50.7750 C   0  0  0  0  0  0  0  0  0  0  0  0
   38.0550   30.2800   46.8880 O   0  0  0  0  0  0  0  0  0  0  0  0
   39.9250   32.2490   46.6040 O   0  0  0  0  0  0  0  0  0  0  0  0
   40.2140   32.0270   44.1240 N   0  0  0  0  0  0  0  0  0  0  0  0
   39.5720   32.2720   45.2800 C   0  0  0  0  0  0  0  0  0  0  0  0
   38.3060   32.6050   44.9260 N   0  0  0  0  0  0  0  0  0  0  0  0
   38.1830   32.5630   43.5890 C   0  0  0  0  0  0  0  0  0  0  0  0
   37.1990   32.7830   42.6280 C   0  0  0  0  0  0  0  0  0  0  0  0
   37.4540   32.6370   41.3150 N   0  0  0  0  0  0  0  0  0  0  0  0
   38.6870   32.2680   40.8780 C   0  0  0  0  0  0  0  0  0  0  0  0
   39.6960   32.0360   41.7510 N   0  0  0  0  0  0  0  0  0  0  0  0
   39.4080   32.1920   43.0600 C   0  0  0  0  0  0  0  0  0  0  0  0
   35.9130   33.1700   43.1050 N   0  0  0  0  0  0  0  0  0  0  0  0
   36.4301   32.4838   50.5215 H   0  0  0  0  0  0  0  0  0  0  0  0
   38.1374   34.2651   50.2506 H   0  0  0  0  0  0  0  0  0  0  0  0
   39.7932   34.1397   48.3816 H   0  0  0  0  0  0  0  0  0  0  0  0
   34.8333   31.1150   47.4273 H   0  0  0  0  0  0  0  0  0  0  0  0
   33.3806   27.6020   49.2639 H   0  0  0  0  0  0  0  0  0  0  0  0
   37.1067   29.2239   51.8272 H   0  0  0  0  0  0  0  0  0  0  0  0
   37.9789   28.2756   50.5755 H   0  0  0  0  0  0  0  0  0  0  0  0
   38.0791   30.0691   50.5755 H   0  0  0  0  0  0  0  0  0  0  0  0
   38.7233   30.2587   46.1579 H   0  0  0  0  0  0  0  0  0  0  0  0
   41.2032   31.7469   44.0611 H   0  0  0  0  0  0  0  0  0  0  0  0
   38.8681   32.1561   39.7988 H   0  0  0  0  0  0  0  0  0  0  0  0
   35.1478   33.3457   42.4383 H   0  0  0  0  0  0  0  0  0  0  0  0
   35.7487   33.2740   44.1165 H   0  0  0  0  0  0  0  0  0  0  0  0
  1  2  2  0
  2  8  1  0
  2  3  1  0
  4  3  2  0
  5  4  1  0
  6  1  1  0
  6  5  2  0
  7 12  2  0
  7  8  1  0
  8  9  2  0
  9 10  1  0
  9 13  1  0
 11 10  2  0
 12 11  1  0
 14  1  1  0
 15  6  1  0
 16 17  1  0
 17 15  1  0
 18 17  2  0
 19 18  1  0
 20 25  1  0
 20 19  2  0
 21 20  1  0
 22 21  2  0
 22 23  1  0
 23 24  2  0
 24 19  1  0
 24 16  1  0
  3 26  1  0
  4 27  1  0
  5 28  1  0
  7 29  1  0
 11 30  1  0
 13 31  1  0
 13 32  1  0
 13 33  1  0
 14 34  1  0
 16 35  1  0
 22 36  1  0
 25 37  1  0
 25 38  1  0
M  ISO  8  26  14  27  14  28  14  29  14  30  14  31   8  32   8  33   8
M  ISO  3  34   3  35   9  36  14
M  END
>  <minimizedAffinity>  (1) 
-7.53880596

>  <minimizedRMSD>  (1) 
0.3993496

$$$$
