
     RDKit          3D

 45 48  0  0  1  0  0  0  0  0999 V2000
   37.6950   31.1130   48.8630 C   0  0  0  0  0  0  0  0  0  0  0  0
   37.6550   32.1300   49.8210 C   0  0  0  0  0  0  0  0  0  0  0  0
   38.2940   33.3450   49.6240 C   0  0  0  0  0  0  0  0  0  0  0  0
   38.9980   33.5650   48.4370 C   0  0  0  0  0  0  0  0  0  0  0  0
   39.0290   32.5640   47.5120 C   0  0  0  0  0  0  0  0  0  0  0  0
   38.3790   31.3610   47.7410 C   0  0  0  0  0  0  0  0  0  0  0  0
   37.0580   29.8330   49.0800 C   0  0  2  0  0  0  0  0  0  0  0  0
   33.9820   30.1600   47.1740 C   0  0  0  0  0  0  0  0  0  0  0  0
   33.2900   28.9960   47.4520 C   0  0  0  0  0  0  0  0  0  0  0  0
   33.8460   28.1080   48.3530 C   0  0  0  0  0  0  0  0  0  0  0  0
   35.0590   28.4070   48.9370 N   0  0  0  0  0  0  0  0  0  0  0  0
   35.6700   29.5330   48.6280 C   0  0  0  0  0  0  0  0  0  0  0  0
   35.1400   30.4150   47.7500 N   0  0  0  0  0  0  0  0  0  0  0  0
   37.5560   29.1990   50.0820 O   0  0  0  0  0  0  0  0  0  0  0  0
   38.5200   30.3790   46.6910 C   0  0  0  0  0  0  0  0  0  0  0  0
   38.8670   30.6750   45.4340 C   0  0  0  0  0  0  0  0  0  0  0  0
   39.0810   29.7530   44.2950 C   0  0  0  0  0  0  0  0  0  0  0  0
   40.3330   30.4240   43.1960 S   0  0  0  0  0  0  0  0  0  0  0  0
   40.1440   28.2040   41.4310 N   0  0  0  0  0  0  0  0  0  0  0  0
   40.7150   29.3490   41.8500 C   0  0  0  0  0  0  0  0  0  0  0  0
   41.7520   29.6720   41.0550 N   0  0  0  0  0  0  0  0  0  0  0  0
   41.8760   28.7250   40.0880 C   0  0  0  0  0  0  0  0  0  0  0  0
   42.7420   28.5440   39.0270 C   0  0  0  0  0  0  0  0  0  0  0  0
   42.5830   27.4510   38.2260 N   0  0  0  0  0  0  0  0  0  0  0  0
   41.5800   26.5710   38.4940 C   0  0  0  0  0  0  0  0  0  0  0  0
   40.7320   26.7620   39.5460 N   0  0  0  0  0  0  0  0  0  0  0  0
   40.8620   27.8320   40.3550 C   0  0  0  0  0  0  0  0  0  0  0  0
   43.7610   29.5220   38.8310 N   0  0  0  0  0  0  0  0  0  0  0  0
   37.1016   31.9621   50.7567 H   0  0  0  0  0  0  0  0  0  0  0  0
   38.2471   34.1283   50.3949 H   0  0  0  0  0  0  0  0  0  0  0  0
   39.5130   34.5196   48.2541 H   0  0  0  0  0  0  0  0  0  0  0  0
   39.5777   32.7130   46.5703 H   0  0  0  0  0  0  0  0  0  0  0  0
   37.3493   29.2968   48.1648 H   0  0  0  0  0  0  0  0  0  0  0  0
   33.5601   30.8842   46.4616 H   0  0  0  0  0  0  0  0  0  0  0  0
   32.3246   28.7828   46.9699 H   0  0  0  0  0  0  0  0  0  0  0  0
   33.3259   27.1713   48.6021 H   0  0  0  0  0  0  0  0  0  0  0  0
   37.2346   29.6082   50.9242 H   0  0  0  0  0  0  0  0  0  0  0  0
   38.3306   29.3245   46.9404 H   0  0  0  0  0  0  0  0  0  0  0  0
   39.0126   31.7436   45.2176 H   0  0  0  0  0  0  0  0  0  0  0  0
   39.4138   28.7755   44.6740 H   0  0  0  0  0  0  0  0  0  0  0  0
   38.1378   29.6344   43.7416 H   0  0  0  0  0  0  0  0  0  0  0  0
   39.3346   27.7187   41.8437 H   0  0  0  0  0  0  0  0  0  0  0  0
   41.4503   25.6886   37.8501 H   0  0  0  0  0  0  0  0  0  0  0  0
   44.4265   29.4231   38.0511 H   0  0  0  0  0  0  0  0  0  0  0  0
   43.8315   30.3273   39.4693 H   0  0  0  0  0  0  0  0  0  0  0  0
  1  7  1  0
  1  2  2  0
  3  2  1  0
  4  3  2  0
  5  6  2  0
  5  4  1  0
  6  1  1  0
  7 14  1  0
  8  9  2  0
  8 13  1  0
  9 10  1  0
 10 11  2  0
 12 11  1  0
 12  7  1  0
 13 12  2  0
 15  6  1  0
 16 15  2  0
 17 16  1  0
 18 17  1  0
 19 20  1  0
 20 18  1  0
 21 20  2  0
 22 27  2  0
 22 21  1  0
 23 22  1  0
 24 25  1  0
 24 23  2  0
 25 26  2  0
 26 27  1  0
 27 19  1  0
 28 23  1  0
  2 29  1  0
  3 30  1  0
  4 31  1  0
  5 32  1  0
  7 33  1  6
  8 34  1  0
  9 35  1  0
 10 36  1  0
 14 37  1  0
 15 38  1  0
 16 39  1  0
 17 40  1  0
 17 41  1  0
 19 42  1  0
 25 43  1  0
 28 44  1  0
 28 45  1  0
M  ISO  8  29  14  30  14  31  14  32  14  33   8  34  14  35  14  36  14
M  ISO  5  37   3  40   8  41   8  42   9  43  14
M  END
>  <minimizedAffinity>  (1) 
-6.45013094

>  <minimizedRMSD>  (1) 
1.31927299

$$$$
