
     RDKit          3D

 28 30  0  0  0  0  0  0  0  0999 V2000
   32.6130   27.3730   48.1220 S   0  0  0  0  0  0  0  0  0  0  0  0
   30.0060   28.6500   47.7910 N   0  0  0  0  0  0  0  0  0  0  0  0
   30.9430   27.9160   48.4180 C   0  0  0  0  0  0  0  0  0  0  0  0
   30.4170   27.4970   49.5960 N   0  0  0  0  0  0  0  0  0  0  0  0
   29.1590   27.9480   49.7420 C   0  0  0  0  0  0  0  0  0  0  0  0
   28.1540   27.8620   50.6790 C   0  0  0  0  0  0  0  0  0  0  0  0
   26.9750   28.4890   50.4360 N   0  0  0  0  0  0  0  0  0  0  0  0
   26.7890   29.1920   49.2870 C   0  0  0  0  0  0  0  0  0  0  0  0
   27.7750   29.2860   48.3490 N   0  0  0  0  0  0  0  0  0  0  0  0
   28.9450   28.6650   48.5850 C   0  0  0  0  0  0  0  0  0  0  0  0
   28.4080   27.1120   51.8640 N   0  0  0  0  0  0  0  0  0  0  0  0
   33.7860   28.7700   48.2170 C   0  0  0  0  0  0  0  0  0  0  0  0
   34.9680   28.5910   49.5640 S   0  0  0  0  0  0  0  0  0  0  0  0
   36.2580   29.7910   49.3480 C   0  0  0  0  0  0  0  0  0  0  0  0
   37.1220   29.9360   50.4270 C   0  0  0  0  0  0  0  0  0  0  0  0
   38.1620   30.8710   50.3140 C   0  0  0  0  0  0  0  0  0  0  0  0
   38.2880   31.5970   49.1630 N   0  0  0  0  0  0  0  0  0  0  0  0
   37.4060   31.4040   48.1500 C   0  0  0  0  0  0  0  0  0  0  0  0
   36.4260   30.5290   48.2420 N   0  0  0  0  0  0  0  0  0  0  0  0
   30.0956   29.1100   46.8738 H   0  0  0  0  0  0  0  0  0  0  0  0
   25.8262   29.6939   49.1107 H   0  0  0  0  0  0  0  0  0  0  0  0
   27.6783   27.0269   52.5860 H   0  0  0  0  0  0  0  0  0  0  0  0
   29.3212   26.6550   51.9984 H   0  0  0  0  0  0  0  0  0  0  0  0
   34.3394   28.8305   47.2683 H   0  0  0  0  0  0  0  0  0  0  0  0
   33.2022   29.6832   48.4050 H   0  0  0  0  0  0  0  0  0  0  0  0
   36.9945   29.3367   51.3406 H   0  0  0  0  0  0  0  0  0  0  0  0
   38.8690   31.0183   51.1437 H   0  0  0  0  0  0  0  0  0  0  0  0
   37.5123   31.9939   47.2277 H   0  0  0  0  0  0  0  0  0  0  0  0
  1 12  1  0
  1  3  1  0
  2  3  1  0
  2 10  1  0
  3  4  2  0
  4  5  1  0
  5  6  2  0
  6 11  1  0
  7  6  1  0
  8  7  2  0
  9 10  2  0
  9  8  1  0
 10  5  1  0
 12 13  1  0
 14 13  1  0
 14 15  2  0
 16 15  1  0
 17 16  2  0
 18 19  2  0
 18 17  1  0
 19 14  1  0
  2 20  1  0
  8 21  1  0
 11 22  1  0
 11 23  1  0
 12 24  1  0
 12 25  1  0
 15 26  1  0
 16 27  1  0
 18 28  1  0
M  ISO  7  20   9  21  14  24   8  25   8  26  14  27  14  28  14
M  END
>  <minimizedAffinity>  (1) 
-5.66205549

>  <minimizedRMSD>  (1) 
2.35804248

$$$$
