
     RDKit          3D

 45 49  0  0  0  0  0  0  0  0999 V2000
   37.2340   32.5440   43.2370 Cl  0  0  0  0  0  0  0  0  0  0  0  0
   38.7150   31.7330   43.6430 C   0  0  0  0  0  0  0  0  0  0  0  0
   39.2130   31.9870   44.9270 C   0  0  0  0  0  0  0  0  0  0  0  0
   40.3990   31.3500   45.2750 C   0  0  0  0  0  0  0  0  0  0  0  0
   41.0780   30.5080   44.4350 C   0  0  0  0  0  0  0  0  0  0  0  0
   40.5750   30.2660   43.1690 C   0  0  0  0  0  0  0  0  0  0  0  0
   39.4000   30.8900   42.8060 C   0  0  0  0  0  0  0  0  0  0  0  0
   38.8640   30.6530   41.5030 N   0  0  0  0  0  0  0  0  0  0  0  0
   37.5850   30.3630   41.1520 C   0  0  0  0  0  0  0  0  0  0  0  0
   37.5550   30.2210   39.7950 N   0  0  0  0  0  0  0  0  0  0  0  0
   38.8010   30.4240   39.3420 C   0  0  0  0  0  0  0  0  0  0  0  0
   39.3860   30.4140   38.0880 C   0  0  0  0  0  0  0  0  0  0  0  0
   40.7140   30.6610   37.9090 N   0  0  0  0  0  0  0  0  0  0  0  0
   41.5100   30.9270   38.9790 C   0  0  0  0  0  0  0  0  0  0  0  0
   40.9600   30.9400   40.2080 N   0  0  0  0  0  0  0  0  0  0  0  0
   39.6550   30.6980   40.3910 C   0  0  0  0  0  0  0  0  0  0  0  0
   38.5970   30.1420   36.9350 N   0  0  0  0  0  0  0  0  0  0  0  0
   38.6640   32.7990   45.8940 O   0  0  0  0  0  0  0  0  0  0  0  0
   37.3040   31.4700   47.3840 C   0  0  0  0  0  0  0  0  0  0  0  0
   36.8770   31.0190   48.6270 C   0  0  0  0  0  0  0  0  0  0  0  0
   37.5390   31.5830   49.7080 C   0  0  0  0  0  0  0  0  0  0  0  0
   38.5510   32.5300   49.5280 C   0  0  0  0  0  0  0  0  0  0  0  0
   38.9210   32.9290   48.2600 C   0  0  0  0  0  0  0  0  0  0  0  0
   38.2860   32.3900   47.1710 C   0  0  0  0  0  0  0  0  0  0  0  0
   34.6380   30.1580   48.0940 C   0  0  0  0  0  0  0  0  0  0  0  0
   35.8400   30.0490   48.7930 C   0  0  0  0  0  0  0  0  0  0  0  0
   35.9810   28.9530   49.6580 C   0  0  0  0  0  0  0  0  0  0  0  0
   34.9380   28.0660   49.7620 N   0  0  0  0  0  0  0  0  0  0  0  0
   33.8070   28.2300   49.0600 C   0  0  0  0  0  0  0  0  0  0  0  0
   33.6430   29.2690   48.2240 N   0  0  0  0  0  0  0  0  0  0  0  0
   36.6950   30.9590   46.2210 O   0  0  0  0  0  0  0  0  0  0  0  0
   40.8136   31.5319   46.2775 H   0  0  0  0  0  0  0  0  0  0  0  0
   42.0126   30.0296   44.7631 H   0  0  0  0  0  0  0  0  0  0  0  0
   41.0976   29.5948   42.4717 H   0  0  0  0  0  0  0  0  0  0  0  0
   36.7296   30.2611   41.8360 H   0  0  0  0  0  0  0  0  0  0  0  0
   42.5830   31.1278   38.8431 H   0  0  0  0  0  0  0  0  0  0  0  0
   39.0336   30.1348   36.0022 H   0  0  0  0  0  0  0  0  0  0  0  0
   37.5894   29.9523   37.0335 H   0  0  0  0  0  0  0  0  0  0  0  0
   37.2616   31.2785   50.7280 H   0  0  0  0  0  0  0  0  0  0  0  0
   39.0568   32.9609   50.4046 H   0  0  0  0  0  0  0  0  0  0  0  0
   39.7191   33.6736   48.1240 H   0  0  0  0  0  0  0  0  0  0  0  0
   34.5009   31.0074   47.4086 H   0  0  0  0  0  0  0  0  0  0  0  0
   36.9042   28.8081   50.2383 H   0  0  0  0  0  0  0  0  0  0  0  0
   32.9946   27.4967   49.1713 H   0  0  0  0  0  0  0  0  0  0  0  0
   36.9900   31.2721   45.3294 H   0  0  0  0  0  0  0  0  0  0  0  0
  1  2  1  0
  2  3  2  0
  3  4  1  0
  3 18  1  0
  5  4  2  0
  6  5  1  0
  7  6  2  0
  7  2  1  0
  8  7  1  0
  9  8  1  0
 10  9  2  0
 11 10  1  0
 11 16  2  0
 12 11  1  0
 13 12  2  0
 13 14  1  0
 14 15  2  0
 15 16  1  0
 16  8  1  0
 17 12  1  0
 18 24  1  0
 19 20  2  0
 20 26  1  0
 20 21  1  0
 22 21  2  0
 23 22  1  0
 24 19  1  0
 24 23  2  0
 25 30  2  0
 25 26  1  0
 26 27  2  0
 27 28  1  0
 29 28  2  0
 30 29  1  0
 31 19  1  0
  4 32  1  0
  5 33  1  0
  6 34  1  0
  9 35  1  0
 14 36  1  0
 17 37  1  0
 17 38  1  0
 21 39  1  0
 22 40  1  0
 23 41  1  0
 25 42  1  0
 27 43  1  0
 29 44  1  0
 31 45  1  0
M  ISO  8  32  14  33  14  34  14  35  14  36  14  39  14  40  14  41  14
M  ISO  4  42  14  43  14  44  14  45   3
M  END
>  <minimizedAffinity>  (1) 
-6.31159973

>  <minimizedRMSD>  (1) 
2.1532166

$$$$
