
     RDKit          3D

 24 26  0  0  0  0  0  0  0  0999 V2000
   37.3500   30.0290   50.8700 C   0  0  0  0  0  0  0  0  0  0  0  0
   38.0350   31.0050   50.1340 C   0  0  0  0  0  0  0  0  0  0  0  0
   37.5950   31.3240   48.8510 C   0  0  0  0  0  0  0  0  0  0  0  0
   36.5080   30.6670   48.3690 N   0  0  0  0  0  0  0  0  0  0  0  0
   35.8570   29.7200   49.1040 C   0  0  0  0  0  0  0  0  0  0  0  0
   36.2720   29.4110   50.3270 N   0  0  0  0  0  0  0  0  0  0  0  0
   34.7170   29.0240   48.6100 N   0  0  0  0  0  0  0  0  0  0  0  0
   34.3500   27.7850   49.0420 C   0  0  0  0  0  0  0  0  0  0  0  0
   33.2230   27.3550   48.4040 N   0  0  0  0  0  0  0  0  0  0  0  0
   32.8630   28.3430   47.5450 C   0  0  0  0  0  0  0  0  0  0  0  0
   31.8490   28.5640   46.6160 C   0  0  0  0  0  0  0  0  0  0  0  0
   31.8240   29.7020   45.9320 N   0  0  0  0  0  0  0  0  0  0  0  0
   32.7560   30.6670   46.1060 C   0  0  0  0  0  0  0  0  0  0  0  0
   33.7810   30.5310   46.9930 N   0  0  0  0  0  0  0  0  0  0  0  0
   33.7940   29.3680   47.6820 C   0  0  0  0  0  0  0  0  0  0  0  0
   30.8860   27.5610   46.4410 N   0  0  0  0  0  0  0  0  0  0  0  0
   37.9010   29.8210   52.1190 O   0  0  0  0  0  0  0  0  0  0  0  0
   38.9103   31.5136   50.5643 H   0  0  0  0  0  0  0  0  0  0  0  0
   38.1118   32.0843   48.2471 H   0  0  0  0  0  0  0  0  0  0  0  0
   34.8914   27.2069   49.8053 H   0  0  0  0  0  0  0  0  0  0  0  0
   32.6839   31.5904   45.5127 H   0  0  0  0  0  0  0  0  0  0  0  0
   30.1228   27.6927   45.7620 H   0  0  0  0  0  0  0  0  0  0  0  0
   30.9414   26.6922   46.9914 H   0  0  0  0  0  0  0  0  0  0  0  0
   37.5017   29.1533   52.7312 H   0  0  0  0  0  0  0  0  0  0  0  0
  1 17  1  0
  2  1  2  0
  3  2  1  0
  4  3  2  0
  4  5  1  0
  5  6  2  0
  6  1  1  0
  7  8  1  0
  7  5  1  0
  9  8  2  0
 10 15  2  0
 10  9  1  0
 11 10  1  0
 12 13  1  0
 12 11  2  0
 13 14  2  0
 14 15  1  0
 15  7  1  0
 16 11  1  0
  2 18  1  0
  3 19  1  0
  8 20  1  0
 13 21  1  0
 16 22  1  0
 16 23  1  0
 17 24  1  0
M  ISO  5  18  14  19  14  20  14  21  14  24   3
M  END
>  <minimizedAffinity>  (1) 
-5.38679886

>  <minimizedRMSD>  (1) 
1.51783061

$$$$
