
     RDKit          3D

 47 50  0  0  1  0  0  0  0  0999 V2000
   39.3710   33.0760   43.9130 C   0  0  0  0  0  0  0  0  0  0  0  0
   39.3300   29.7460   42.7020 C   0  0  1  0  0  0  0  0  0  0  0  0
   39.0360   31.1900   42.3210 C   0  0  0  0  0  0  0  0  0  0  0  0
   40.0290   31.9150   43.2010 C   0  0  2  0  0  0  0  0  0  0  0  0
   40.5870   31.0220   44.0630 O   0  0  0  0  0  0  0  0  0  0  0  0
   39.7460   29.9220   44.1550 C   0  0  0  0  0  0  0  0  0  0  0  0
   38.2020   28.9590   42.5900 O   0  0  0  0  0  0  0  0  0  0  0  0
   35.4090   28.1150   42.5210 Cl  0  0  0  0  0  0  0  0  0  0  0  0
   36.7870   27.0800   42.8140 C   0  0  0  0  0  0  0  0  0  0  0  0
   38.0510   27.6270   42.8170 C   0  0  0  0  0  0  0  0  0  0  0  0
   39.0740   26.7460   43.0540 C   0  0  0  0  0  0  0  0  0  0  0  0
   38.8740   25.4170   43.2760 C   0  0  0  0  0  0  0  0  0  0  0  0
   37.5900   24.9120   43.2660 C   0  0  0  0  0  0  0  0  0  0  0  0
   37.2970   23.2100   43.5470 Cl  0  0  0  0  0  0  0  0  0  0  0  0
   36.5280   25.7570   43.0310 C   0  0  0  0  0  0  0  0  0  0  0  0
   40.4270   33.5340   45.3100 S   0  0  0  0  0  0  0  0  0  0  0  0
   37.7760   31.8490   47.7560 C   0  0  0  0  0  0  0  0  0  0  0  0
   37.9790   32.5200   48.9710 C   0  0  0  0  0  0  0  0  0  0  0  0
   38.9280   33.5120   49.1010 C   0  0  0  0  0  0  0  0  0  0  0  0
   39.6610   33.8020   47.9700 C   0  0  0  0  0  0  0  0  0  0  0  0
   39.4510   33.1420   46.8020 C   0  0  0  0  0  0  0  0  0  0  0  0
   38.5200   32.1680   46.6680 N   0  0  0  0  0  0  0  0  0  0  0  0
   36.7710   30.8340   47.7090 C   0  0  0  0  0  0  0  0  0  0  0  0
   36.3540   30.3950   46.6390 O   0  0  0  0  0  0  0  0  0  0  0  0
   37.0400   29.6210   49.8410 C   0  0  0  0  0  0  0  0  0  0  0  0
   36.1760   30.2580   48.9220 C   0  0  0  0  0  0  0  0  0  0  0  0
   34.8050   30.3150   49.2000 C   0  0  0  0  0  0  0  0  0  0  0  0
   34.3580   29.7440   50.3620 N   0  0  0  0  0  0  0  0  0  0  0  0
   35.2010   29.1430   51.2200 C   0  0  0  0  0  0  0  0  0  0  0  0
   36.5050   29.0850   50.9630 N   0  0  0  0  0  0  0  0  0  0  0  0
   38.3768   32.7776   44.2769 H   0  0  0  0  0  0  0  0  0  0  0  0
   39.2468   33.9278   43.2282 H   0  0  0  0  0  0  0  0  0  0  0  0
   40.0777   29.2449   42.0697 H   0  0  0  0  0  0  0  0  0  0  0  0
   39.2279   31.3755   41.2539 H   0  0  0  0  0  0  0  0  0  0  0  0
   37.9892   31.4971   42.4618 H   0  0  0  0  0  0  0  0  0  0  0  0
   40.8316   32.3484   42.5863 H   0  0  0  0  0  0  0  0  0  0  0  0
   38.8796   30.1298   44.8001 H   0  0  0  0  0  0  0  0  0  0  0  0
   40.2136   29.0322   44.6018 H   0  0  0  0  0  0  0  0  0  0  0  0
   40.1047   27.1302   43.0655 H   0  0  0  0  0  0  0  0  0  0  0  0
   39.7298   24.7513   43.4619 H   0  0  0  0  0  0  0  0  0  0  0  0
   35.4964   25.3754   43.0184 H   0  0  0  0  0  0  0  0  0  0  0  0
   37.3654   32.2479   49.8425 H   0  0  0  0  0  0  0  0  0  0  0  0
   39.0906   34.0410   50.0516 H   0  0  0  0  0  0  0  0  0  0  0  0
   40.4325   34.5848   48.0147 H   0  0  0  0  0  0  0  0  0  0  0  0
   38.1215   29.5621   49.6492 H   0  0  0  0  0  0  0  0  0  0  0  0
   34.1067   30.8044   48.5051 H   0  0  0  0  0  0  0  0  0  0  0  0
   34.8082   28.6945   52.1444 H   0  0  0  0  0  0  0  0  0  0  0  0
  1 16  1  0
  2  6  1  0
  3  2  1  0
  3  4  1  0
  4  1  1  0
  4  5  1  0
  5  6  1  0
  7  2  1  0
  7 10  1  0
  8  9  1  0
  9 10  2  0
  9 15  1  0
 10 11  1  0
 11 12  2  0
 13 12  1  0
 13 14  1  0
 15 13  2  0
 16 21  1  0
 17 18  2  0
 18 19  1  0
 20 19  2  0
 21 20  1  0
 22 21  2  0
 22 17  1  0
 23 17  1  0
 23 26  1  0
 24 23  2  0
 25 30  2  0
 26 27  2  0
 26 25  1  0
 27 28  1  0
 28 29  2  0
 30 29  1  0
  1 31  1  0
  1 32  1  0
  2 33  1  6
  3 34  1  0
  3 35  1  0
  4 36  1  6
  6 37  1  0
  6 38  1  0
 11 39  1  0
 12 40  1  0
 15 41  1  0
 18 42  1  0
 19 43  1  0
 20 44  1  0
 25 45  1  0
 27 46  1  0
 29 47  1  0
M  ISO  8  31   8  32   8  33  13  34  13  35  13  36  13  37  13  38  13
M  ISO  8  39  14  40  14  41  14  42  14  43  14  44  14  45  14  46  14
M  ISO  1  47  14
M  END
>  <minimizedAffinity>  (1) 
-5.64783669

>  <minimizedRMSD>  (1) 
1.83539546

$$$$
