
     RDKit          3D

 30 32  0  0  1  0  0  0  0  0999 V2000
   36.0250   30.4930   49.7670 C   0  0  1  0  0  0  0  0  0  0  0  0
   35.7990   29.1300   49.3380 C   0  0  1  0  0  0  0  0  0  0  0  0
   36.5740   29.3320   50.6000 C   0  0  0  0  0  0  0  0  0  0  0  0
   37.1380   31.3270   49.1520 C   0  0  0  0  0  0  0  0  0  0  0  0
   37.3610   32.5650   49.7580 C   0  0  0  0  0  0  0  0  0  0  0  0
   38.3730   33.3300   49.1730 C   0  0  0  0  0  0  0  0  0  0  0  0
   39.0620   32.8550   48.0910 N   0  0  0  0  0  0  0  0  0  0  0  0
   38.7970   31.6380   47.5440 C   0  0  0  0  0  0  0  0  0  0  0  0
   37.8140   30.8620   48.0880 N   0  0  0  0  0  0  0  0  0  0  0  0
   34.3840   28.6070   49.3620 C   0  0  0  0  0  0  0  0  0  0  0  0
   33.7170   30.4770   47.1200 Cl  0  0  0  0  0  0  0  0  0  0  0  0
   33.7160   28.7250   47.0040 C   0  0  0  0  0  0  0  0  0  0  0  0
   34.0360   27.9350   48.0840 C   0  0  0  0  0  0  0  0  0  0  0  0
   34.0310   26.5560   47.9760 C   0  0  0  0  0  0  0  0  0  0  0  0
   33.6910   26.0130   46.7370 C   0  0  0  0  0  0  0  0  0  0  0  0
   33.3640   26.7910   45.6310 C   0  0  0  0  0  0  0  0  0  0  0  0
   32.9420   26.0670   44.0950 Cl  0  0  0  0  0  0  0  0  0  0  0  0
   33.3850   28.1710   45.7950 C   0  0  0  0  0  0  0  0  0  0  0  0
   35.3360   31.3427   49.8826 H   0  0  0  0  0  0  0  0  0  0  0  0
   36.0067   28.5531   48.4247 H   0  0  0  0  0  0  0  0  0  0  0  0
   37.6547   29.1287   50.6296 H   0  0  0  0  0  0  0  0  0  0  0  0
   36.4933   28.9957   51.6442 H   0  0  0  0  0  0  0  0  0  0  0  0
   36.7845   32.9111   50.6286 H   0  0  0  0  0  0  0  0  0  0  0  0
   38.6172   34.3203   49.5849 H   0  0  0  0  0  0  0  0  0  0  0  0
   39.3681   31.2831   46.6734 H   0  0  0  0  0  0  0  0  0  0  0  0
   34.2826   27.8851   50.1858 H   0  0  0  0  0  0  0  0  0  0  0  0
   33.7014   29.4578   49.5043 H   0  0  0  0  0  0  0  0  0  0  0  0
   34.2848   25.9138   48.8323 H   0  0  0  0  0  0  0  0  0  0  0  0
   33.6810   24.9183   46.6293 H   0  0  0  0  0  0  0  0  0  0  0  0
   33.1336   28.8245   44.9466 H   0  0  0  0  0  0  0  0  0  0  0  0
  1  3  1  0
  2 10  1  0
  2  1  1  0
  2  3  1  0
  4  5  2  0
  4  1  1  0
  6  5  1  0
  7  6  2  0
  8  9  2  0
  8  7  1  0
  9  4  1  0
 12 11  1  0
 12 13  2  0
 13 10  1  0
 14 13  1  0
 15 14  2  0
 16 18  2  0
 16 15  1  0
 17 16  1  0
 18 12  1  0
  1 19  1  1
  2 20  1  6
  3 21  1  0
  3 22  1  0
  5 23  1  0
  6 24  1  0
  8 25  1  0
 10 26  1  0
 10 27  1  0
 14 28  1  0
 15 29  1  0
 18 30  1  0
M  ISO  8  19  13  20  13  21  13  22  13  23  14  24  14  25  14  26   8
M  ISO  4  27   8  28  14  29  14  30  14
M  END
>  <minimizedAffinity>  (1) 
-5.46291256

>  <minimizedRMSD>  (1) 
2.59452319

$$$$
