
     RDKit          3D

 35 37  0  0  1  0  0  0  0  0999 V2000
   36.2150   30.2660   49.7280 C   0  0  1  0  0  0  0  0  0  0  0  0
   34.8510   30.6990   49.9200 C   0  0  0  0  0  0  0  0  0  0  0  0
   35.1910   29.7420   48.8260 C   0  0  2  0  0  0  0  0  0  0  0  0
   37.2430   31.1830   49.1250 C   0  0  0  0  0  0  0  0  0  0  0  0
   37.3320   32.4660   49.7040 C   0  0  0  0  0  0  0  0  0  0  0  0
   38.2810   33.2860   49.1350 C   0  0  0  0  0  0  0  0  0  0  0  0
   39.0440   32.8410   48.1000 N   0  0  0  0  0  0  0  0  0  0  0  0
   38.9230   31.5910   47.5730 C   0  0  0  0  0  0  0  0  0  0  0  0
   37.9870   30.7470   48.1140 N   0  0  0  0  0  0  0  0  0  0  0  0
   39.7060   31.1160   46.5110 N   0  0  0  0  0  0  0  0  0  0  0  0
   34.8160   28.4090   49.0570 O   0  0  0  0  0  0  0  0  0  0  0  0
   33.5210   26.5840   47.7910 O   0  0  0  0  0  0  0  0  0  0  0  0
   33.4490   28.0280   48.1820 P   0  0  1  0  0  0  0  0  0  0  0  0
   32.0660   28.1460   49.2280 O   0  0  0  0  0  0  0  0  0  0  0  0
   33.2840   29.0920   46.9080 O   0  0  0  0  0  0  0  0  0  0  0  0
   30.5930   29.7150   46.0080 Cl  0  0  0  0  0  0  0  0  0  0  0  0
   31.9480   29.1000   45.0510 C   0  0  0  0  0  0  0  0  0  0  0  0
   33.2160   28.8280   45.5770 C   0  0  0  0  0  0  0  0  0  0  0  0
   34.1670   28.3510   44.6940 C   0  0  0  0  0  0  0  0  0  0  0  0
   33.8940   28.1490   43.3640 C   0  0  0  0  0  0  0  0  0  0  0  0
   32.6350   28.4280   42.8790 C   0  0  0  0  0  0  0  0  0  0  0  0
   32.3150   28.1630   41.1850 Cl  0  0  0  0  0  0  0  0  0  0  0  0
   31.6570   28.9000   43.7050 C   0  0  0  0  0  0  0  0  0  0  0  0
   36.9607   29.8385   50.4144 H   0  0  0  0  0  0  0  0  0  0  0  0
   34.2818   30.3546   50.7960 H   0  0  0  0  0  0  0  0  0  0  0  0
   34.3424   31.6728   49.9739 H   0  0  0  0  0  0  0  0  0  0  0  0
   35.0431   29.7060   47.7366 H   0  0  0  0  0  0  0  0  0  0  0  0
   36.6952   32.7857   50.5420 H   0  0  0  0  0  0  0  0  0  0  0  0
   38.4230   34.3068   49.5195 H   0  0  0  0  0  0  0  0  0  0  0  0
   39.5666   30.1591   46.1562 H   0  0  0  0  0  0  0  0  0  0  0  0
   40.4205   31.7240   46.0858 H   0  0  0  0  0  0  0  0  0  0  0  0
   32.3631   28.1206   50.1720 H   0  0  0  0  0  0  0  0  0  0  0  0
   35.1760   28.1259   45.0698 H   0  0  0  0  0  0  0  0  0  0  0  0
   34.6750   27.7670   42.6901 H   0  0  0  0  0  0  0  0  0  0  0  0
   30.6530   29.1193   43.3126 H   0  0  0  0  0  0  0  0  0  0  0  0
  1  2  1  0
  3 11  1  0
  3  1  1  0
  3  2  1  0
  4  5  2  0
  4  1  1  0
  6  5  1  0
  7  6  2  0
  8  7  1  0
  8  9  2  0
  9  4  1  0
 10  8  1  0
 13 12  2  0
 13 11  1  0
 13 14  1  0
 15 13  1  0
 17 18  2  0
 17 16  1  0
 18 15  1  0
 19 18  1  0
 20 19  2  0
 21 20  1  0
 21 23  2  0
 22 21  1  0
 23 17  1  0
  1 24  1  1
  2 25  1  0
  2 26  1  0
  3 27  1  6
  5 28  1  0
  6 29  1  0
 10 30  1  0
 10 31  1  0
 14 32  1  0
 19 33  1  0
 20 34  1  0
 23 35  1  0
M  ISO  8  24  13  25  13  26  13  27  13  28  14  29  14  32   3  33  14
M  ISO  2  34  14  35  14
M  END
>  <minimizedAffinity>  (1) 
-5.06411123

>  <minimizedRMSD>  (1) 
3.02370954

$$$$
