
     RDKit          3D

 48 51  0  0  1  0  0  0  0  0999 V2000
   35.3710   30.3400   49.9730 C   0  0  2  0  0  0  0  0  0  0  0  0
   36.0640   31.5320   49.4110 C   0  0  0  0  0  0  0  0  0  0  0  0
   37.5460   31.2880   49.1900 C   0  0  2  0  0  0  0  0  0  0  0  0
   38.2290   30.8860   50.4630 C   0  0  0  0  0  0  0  0  0  0  0  0
   37.4860   29.8400   51.2200 C   0  0  0  0  0  0  0  0  0  0  0  0
   36.3140   29.2680   50.4640 C   0  0  0  0  0  0  0  0  0  0  0  0
   38.2030   32.4140   48.6400 N   0  0  0  0  0  0  0  0  0  0  0  0
   38.8960   33.2040   49.6470 C   0  0  0  0  0  0  0  0  0  0  0  0
   39.4280   34.3460   48.7750 C   0  0  0  0  0  0  0  0  0  0  0  0
   39.8840   33.5820   47.5540 C   0  0  0  0  0  0  0  0  0  0  0  0
   39.1100   32.2430   47.6150 C   0  0  2  0  0  0  0  0  0  0  0  0
   37.4980   29.7260   46.9310 Cl  0  0  0  0  0  0  0  0  0  0  0  0
   37.9470   30.9370   45.7460 C   0  0  0  0  0  0  0  0  0  0  0  0
   38.6840   32.0280   46.2270 C   0  0  0  0  0  0  0  0  0  0  0  0
   39.0080   32.9490   45.2380 C   0  0  0  0  0  0  0  0  0  0  0  0
   38.6750   32.8710   43.9010 C   0  0  0  0  0  0  0  0  0  0  0  0
   37.9490   31.7700   43.4980 C   0  0  0  0  0  0  0  0  0  0  0  0
   37.5340   31.6840   41.8040 Cl  0  0  0  0  0  0  0  0  0  0  0  0
   37.5870   30.8090   44.4200 C   0  0  0  0  0  0  0  0  0  0  0  0
   34.4600   29.6980   48.9940 C   0  0  0  0  0  0  0  0  0  0  0  0
   34.3230   30.3810   47.7830 C   0  0  0  0  0  0  0  0  0  0  0  0
   33.4830   29.7970   46.8240 C   0  0  0  0  0  0  0  0  0  0  0  0
   32.8450   28.6070   47.1120 N   0  0  0  0  0  0  0  0  0  0  0  0
   33.0120   27.9830   48.3080 C   0  0  0  0  0  0  0  0  0  0  0  0
   33.8050   28.5350   49.2090 N   0  0  0  0  0  0  0  0  0  0  0  0
   34.8035   30.7481   50.8223 H   0  0  0  0  0  0  0  0  0  0  0  0
   35.6004   31.7885   48.4470 H   0  0  0  0  0  0  0  0  0  0  0  0
   35.9634   32.3522   50.1370 H   0  0  0  0  0  0  0  0  0  0  0  0
   37.6135   30.4637   48.4647 H   0  0  0  0  0  0  0  0  0  0  0  0
   39.2278   30.4966   50.2165 H   0  0  0  0  0  0  0  0  0  0  0  0
   38.2814   31.7790   51.1031 H   0  0  0  0  0  0  0  0  0  0  0  0
   38.1814   29.0209   51.4556 H   0  0  0  0  0  0  0  0  0  0  0  0
   37.0841   30.3198   52.1246 H   0  0  0  0  0  0  0  0  0  0  0  0
   35.7614   28.5884   51.1294 H   0  0  0  0  0  0  0  0  0  0  0  0
   36.7074   28.7371   49.5846 H   0  0  0  0  0  0  0  0  0  0  0  0
   38.2074   33.5702   50.4227 H   0  0  0  0  0  0  0  0  0  0  0  0
   39.6652   32.6584   50.2133 H   0  0  0  0  0  0  0  0  0  0  0  0
   38.6366   35.0689   48.5279 H   0  0  0  0  0  0  0  0  0  0  0  0
   40.2116   34.9544   49.2501 H   0  0  0  0  0  0  0  0  0  0  0  0
   40.9690   33.4046   47.5905 H   0  0  0  0  0  0  0  0  0  0  0  0
   39.6888   34.1329   46.6221 H   0  0  0  0  0  0  0  0  0  0  0  0
   39.6104   31.3014   47.8854 H   0  0  0  0  0  0  0  0  0  0  0  0
   39.5884   33.8289   45.5526 H   0  0  0  0  0  0  0  0  0  0  0  0
   38.9755   33.6528   43.1880 H   0  0  0  0  0  0  0  0  0  0  0  0
   37.0063   29.9331   44.0950 H   0  0  0  0  0  0  0  0  0  0  0  0
   34.8474   31.3288   47.5915 H   0  0  0  0  0  0  0  0  0  0  0  0
   33.3334   30.2837   45.8489 H   0  0  0  0  0  0  0  0  0  0  0  0
   32.4961   27.0353   48.5218 H   0  0  0  0  0  0  0  0  0  0  0  0
  1  6  1  0
  2  1  1  0
  3  2  1  0
  3  4  1  0
  4  5  1  0
  6  5  1  0
  7  3  1  0
  7  8  1  0
  9  8  1  0
 10 11  1  0
 10  9  1  0
 11  7  1  0
 13 14  2  0
 13 12  1  0
 14 11  1  0
 15 14  1  0
 16 15  2  0
 17 16  1  0
 17 19  2  0
 18 17  1  0
 19 13  1  0
 20 25  1  0
 20  1  1  0
 21 20  2  0
 22 23  2  0
 22 21  1  0
 23 24  1  0
 24 25  2  0
  1 26  1  1
  2 27  1  0
  2 28  1  0
  3 29  1  6
  4 30  1  0
  4 31  1  0
  5 32  1  0
  5 33  1  0
  6 34  1  0
  6 35  1  0
  8 36  1  0
  8 37  1  0
  9 38  1  0
  9 39  1  0
 10 40  1  0
 10 41  1  0
 11 42  1  1
 15 43  1  0
 16 44  1  0
 19 45  1  0
 21 46  1  0
 22 47  1  0
 24 48  1  0
M  ISO  8  26  13  27  13  28  13  29  13  30  13  31  13  32  13  33  13
M  ISO  8  34  13  35  13  36  13  37  13  38  13  39  13  40  13  41  13
M  ISO  7  42  13  43  14  44  14  45  14  46  14  47  14  48  14
M  END
>  <minimizedAffinity>  (1) 
-6.42534637

>  <minimizedRMSD>  (1) 
4.23257589

$$$$
