
     RDKit          3D

 41 44  0  0  0  0  0  0  0  0999 V2000
   34.0770   29.9770   47.5720 S   0  0  0  0  0  0  0  0  0  0  0  0
   36.4160   30.9220   45.7310 Cl  0  0  0  0  0  0  0  0  0  0  0  0
   36.7140   30.7950   47.4430 C   0  0  0  0  0  0  0  0  0  0  0  0
   37.9760   31.1220   47.8970 C   0  0  0  0  0  0  0  0  0  0  0  0
   38.2240   31.0240   49.2560 C   0  0  0  0  0  0  0  0  0  0  0  0
   37.2350   30.6170   50.0970 C   0  0  0  0  0  0  0  0  0  0  0  0
   35.9760   30.2990   49.5830 C   0  0  0  0  0  0  0  0  0  0  0  0
   35.6630   30.3730   48.2500 C   0  0  0  0  0  0  0  0  0  0  0  0
   40.2280   33.3390   46.0700 C   0  0  0  0  0  0  0  0  0  0  0  0
   40.9400   32.4740   45.2110 C   0  0  0  0  0  0  0  0  0  0  0  0
   40.6270   31.1130   45.2750 C   0  0  0  0  0  0  0  0  0  0  0  0
   39.6650   30.6960   46.1510 N   0  0  0  0  0  0  0  0  0  0  0  0
   39.0200   31.5610   46.9430 C   0  0  0  0  0  0  0  0  0  0  0  0
   39.3010   32.8600   46.8990 N   0  0  0  0  0  0  0  0  0  0  0  0
   33.9050   29.2350   44.5130 Cl  0  0  0  0  0  0  0  0  0  0  0  0
   33.8910   27.9960   45.7610 C   0  0  0  0  0  0  0  0  0  0  0  0
   33.9620   28.2300   47.1310 C   0  0  0  0  0  0  0  0  0  0  0  0
   33.9440   27.1860   48.0100 C   0  0  0  0  0  0  0  0  0  0  0  0
   33.8530   25.8940   47.5510 C   0  0  0  0  0  0  0  0  0  0  0  0
   33.7780   25.5980   46.1950 C   0  0  0  0  0  0  0  0  0  0  0  0
   33.8000   26.6650   45.3400 C   0  0  0  0  0  0  0  0  0  0  0  0
   30.9990   26.6050   44.4710 Cl  0  0  0  0  0  0  0  0  0  0  0  0
   32.3920   26.3390   43.4780 C   0  0  0  0  0  0  0  0  0  0  0  0
   33.7220   26.3700   43.9030 C   0  0  0  0  0  0  0  0  0  0  0  0
   34.7690   26.1440   43.0330 C   0  0  0  0  0  0  0  0  0  0  0  0
   34.5030   25.8790   41.7060 C   0  0  0  0  0  0  0  0  0  0  0  0
   33.1940   25.8420   41.2590 C   0  0  0  0  0  0  0  0  0  0  0  0
   32.8510   25.5040   39.5690 Cl  0  0  0  0  0  0  0  0  0  0  0  0
   32.1340   26.0690   42.1320 C   0  0  0  0  0  0  0  0  0  0  0  0
   39.2182   31.2746   49.6545 H   0  0  0  0  0  0  0  0  0  0  0  0
   37.4263   30.5387   51.1774 H   0  0  0  0  0  0  0  0  0  0  0  0
   35.1943   29.9719   50.2844 H   0  0  0  0  0  0  0  0  0  0  0  0
   40.4403   34.4182   46.0549 H   0  0  0  0  0  0  0  0  0  0  0  0
   41.7078   32.8544   44.5212 H   0  0  0  0  0  0  0  0  0  0  0  0
   41.1470   30.3892   44.6302 H   0  0  0  0  0  0  0  0  0  0  0  0
   34.0026   27.3798   49.0912 H   0  0  0  0  0  0  0  0  0  0  0  0
   33.8391   25.0691   48.2786 H   0  0  0  0  0  0  0  0  0  0  0  0
   33.7050   24.5629   45.8299 H   0  0  0  0  0  0  0  0  0  0  0  0
   35.8073   26.1750   43.3950 H   0  0  0  0  0  0  0  0  0  0  0  0
   35.3302   25.6973   41.0040 H   0  0  0  0  0  0  0  0  0  0  0  0
   31.0980   26.0359   41.7637 H   0  0  0  0  0  0  0  0  0  0  0  0
  1  8  1  0
  2  3  1  0
  3  4  2  0
  3  8  1  0
  4  5  1  0
  5  6  2  0
  7  6  1  0
  8  7  2  0
  9 14  2  0
 10 11  2  0
 10  9  1  0
 11 12  1  0
 12 13  2  0
 13  4  1  0
 14 13  1  0
 15 16  1  0
 16 17  2  0
 17  1  1  0
 17 18  1  0
 19 18  2  0
 20 19  1  0
 21 16  1  0
 21 20  2  0
 23 24  2  0
 23 22  1  0
 24 21  1  0
 25 24  1  0
 26 25  2  0
 27 26  1  0
 27 29  2  0
 28 27  1  0
 29 23  1  0
  5 30  1  0
  6 31  1  0
  7 32  1  0
  9 33  1  0
 10 34  1  0
 11 35  1  0
 18 36  1  0
 19 37  1  0
 20 38  1  0
 25 39  1  0
 26 40  1  0
 29 41  1  0
M  ISO  8  30  14  31  14  32  14  33  14  34  14  35  14  36  14  37  14
M  ISO  4  38  14  39  14  40  14  41  14
M  END
>  <minimizedAffinity>  (1) 
-5.74027538

>  <minimizedRMSD>  (1) 
0.847288191

$$$$
