
     RDKit          3D

 37 39  0  0  0  0  0  0  0  0999 V2000
   38.2190   31.9120   47.3620 C   0  0  0  0  0  0  0  0  0  0  0  0
   38.8490   32.7440   48.2460 C   0  0  0  0  0  0  0  0  0  0  0  0
   38.4650   32.8400   49.5870 C   0  0  0  0  0  0  0  0  0  0  0  0
   37.3570   32.0140   50.0200 C   0  0  0  0  0  0  0  0  0  0  0  0
   36.7770   31.2120   49.0970 C   0  0  0  0  0  0  0  0  0  0  0  0
   37.1520   31.1280   47.8060 C   0  0  0  0  0  0  0  0  0  0  0  0
   39.9550   31.1980   45.7930 C   0  0  0  0  0  0  0  0  0  0  0  0
   38.7490   31.9050   46.0150 C   0  0  0  0  0  0  0  0  0  0  0  0
   38.2200   32.4990   44.8960 C   0  0  0  0  0  0  0  0  0  0  0  0
   38.8330   32.3910   43.7050 N   0  0  0  0  0  0  0  0  0  0  0  0
   39.9520   31.7310   43.5180 C   0  0  0  0  0  0  0  0  0  0  0  0
   40.5050   31.1380   44.5640 N   0  0  0  0  0  0  0  0  0  0  0  0
   35.1090   30.0880   47.2760 C   0  0  0  0  0  0  0  0  0  0  0  0
   34.6640   30.6180   48.3710 O   0  0  0  0  0  0  0  0  0  0  0  0
   36.4970   30.3110   46.9190 N   0  0  0  0  0  0  0  0  0  0  0  0
   34.2570   29.3420   46.5070 O   0  0  0  0  0  0  0  0  0  0  0  0
   32.9090   29.6220   46.3170 C   0  0  0  0  0  0  0  0  0  0  0  0
   32.4670   30.8500   46.1540 O   0  0  0  0  0  0  0  0  0  0  0  0
   32.5470   28.0400   48.8050 Cl  0  0  0  0  0  0  0  0  0  0  0  0
   31.6120   27.7280   47.3390 C   0  0  0  0  0  0  0  0  0  0  0  0
   31.8920   28.5460   46.2620 C   0  0  0  0  0  0  0  0  0  0  0  0
   31.1740   28.3150   45.1200 C   0  0  0  0  0  0  0  0  0  0  0  0
   30.2160   27.3280   45.0140 C   0  0  0  0  0  0  0  0  0  0  0  0
   29.9550   26.5240   46.1040 C   0  0  0  0  0  0  0  0  0  0  0  0
   28.7590   25.2430   46.0740 Cl  0  0  0  0  0  0  0  0  0  0  0  0
   30.6620   26.7310   47.2710 C   0  0  0  0  0  0  0  0  0  0  0  0
   39.6878   33.3597   47.8892 H   0  0  0  0  0  0  0  0  0  0  0  0
   38.9830   33.5149   50.2842 H   0  0  0  0  0  0  0  0  0  0  0  0
   37.0002   32.0376   51.0603 H   0  0  0  0  0  0  0  0  0  0  0  0
   35.9371   30.5821   49.4254 H   0  0  0  0  0  0  0  0  0  0  0  0
   40.4498   30.6909   46.6345 H   0  0  0  0  0  0  0  0  0  0  0  0
   37.2832   33.0701   44.9753 H   0  0  0  0  0  0  0  0  0  0  0  0
   40.4160   31.6725   42.5224 H   0  0  0  0  0  0  0  0  0  0  0  0
   36.9440   29.8995   46.0873 H   0  0  0  0  0  0  0  0  0  0  0  0
   31.3707   28.9483   44.2424 H   0  0  0  0  0  0  0  0  0  0  0  0
   29.6670   27.1839   44.0718 H   0  0  0  0  0  0  0  0  0  0  0  0
   30.4670   26.0986   48.1497 H   0  0  0  0  0  0  0  0  0  0  0  0
  1  6  1  0
  1  2  2  0
  2  3  1  0
  3  4  2  0
  5  4  1  0
  6  5  2  0
  7  8  2  0
  8  1  1  0
  9  8  1  0
 10  9  2  0
 11 10  1  0
 11 12  2  0
 12  7  1  0
 13 14  2  0
 15 13  1  0
 15  6  1  0
 16 13  1  0
 17 16  1  0
 18 17  2  0
 20 19  1  0
 21 17  1  0
 21 20  2  0
 22 21  1  0
 23 22  2  0
 23 24  1  0
 24 26  2  0
 25 24  1  0
 26 20  1  0
  2 27  1  0
  3 28  1  0
  4 29  1  0
  5 30  1  0
  7 31  1  0
  9 32  1  0
 11 33  1  0
 15 34  1  0
 22 35  1  0
 23 36  1  0
 26 37  1  0
M  ISO  8  27  14  28  14  29  14  30  14  31  14  32  14  33  14  35  14
M  ISO  2  36  14  37  14
M  END
>  <minimizedAffinity>  (1) 
-6.11902428

>  <minimizedRMSD>  (1) 
0.983154118

$$$$
