
     RDKit          3D

 37 39  0  0  1  0  0  0  0  0999 V2000
   32.1560   28.5290   47.4300 C   0  0  2  0  0  0  0  0  0  0  0  0
   33.4050   28.3420   48.2400 C   0  0  1  0  0  0  0  0  0  0  0  0
   33.7840   27.0380   48.1320 O   0  0  0  0  0  0  0  0  0  0  0  0
   33.0750   26.4390   47.0960 C   0  0  0  0  0  0  0  0  0  0  0  0
   32.4690   27.5390   46.2640 C   0  0  1  0  0  0  0  0  0  0  0  0
   32.0920   29.8380   46.9090 O   0  0  0  0  0  0  0  0  0  0  0  0
   34.7150   29.3860   47.4860 S   0  0  0  0  0  0  0  0  0  0  0  0
   37.1190   29.2910   50.6280 C   0  0  0  0  0  0  0  0  0  0  0  0
   37.6250   30.5890   50.7460 C   0  0  0  0  0  0  0  0  0  0  0  0
   37.1950   31.5360   49.8010 C   0  0  0  0  0  0  0  0  0  0  0  0
   36.3220   31.1480   48.8340 N   0  0  0  0  0  0  0  0  0  0  0  0
   35.8620   29.8790   48.7630 C   0  0  0  0  0  0  0  0  0  0  0  0
   36.2530   28.9340   49.6590 N   0  0  0  0  0  0  0  0  0  0  0  0
   31.3150   27.0790   45.6820 O   0  0  0  0  0  0  0  0  0  0  0  0
   29.8260   29.2080   44.2980 Cl  0  0  0  0  0  0  0  0  0  0  0  0
   29.2930   28.1810   45.6090 C   0  0  0  0  0  0  0  0  0  0  0  0
   30.0830   27.2050   46.1700 C   0  0  0  0  0  0  0  0  0  0  0  0
   29.5370   26.4290   47.1970 C   0  0  0  0  0  0  0  0  0  0  0  0
   28.2450   26.6440   47.6260 C   0  0  0  0  0  0  0  0  0  0  0  0
   27.4420   27.6240   47.0670 C   0  0  0  0  0  0  0  0  0  0  0  0
   27.9790   28.3920   46.0520 C   0  0  0  0  0  0  0  0  0  0  0  0
   27.1310   29.4280   45.4600 C   0  0  0  0  0  0  0  0  0  0  0  0
   31.2162   28.3678   47.9785 H   0  0  0  0  0  0  0  0  0  0  0  0
   33.2424   28.6125   49.2938 H   0  0  0  0  0  0  0  0  0  0  0  0
   33.7537   25.8321   46.4787 H   0  0  0  0  0  0  0  0  0  0  0  0
   32.2905   25.7794   47.4953 H   0  0  0  0  0  0  0  0  0  0  0  0
   33.0720   27.9459   45.4389 H   0  0  0  0  0  0  0  0  0  0  0  0
   32.0602   30.4887   47.6545 H   0  0  0  0  0  0  0  0  0  0  0  0
   37.4406   28.5308   51.3551 H   0  0  0  0  0  0  0  0  0  0  0  0
   38.3307   30.8579   51.5458 H   0  0  0  0  0  0  0  0  0  0  0  0
   37.5586   32.5733   49.8431 H   0  0  0  0  0  0  0  0  0  0  0  0
   30.1436   25.6405   47.6664 H   0  0  0  0  0  0  0  0  0  0  0  0
   27.8400   26.0192   48.4357 H   0  0  0  0  0  0  0  0  0  0  0  0
   26.4124   27.7853   47.4189 H   0  0  0  0  0  0  0  0  0  0  0  0
   26.6529   30.0120   46.2602 H   0  0  0  0  0  0  0  0  0  0  0  0
   27.7464   30.0941   44.8375 H   0  0  0  0  0  0  0  0  0  0  0  0
   26.3564   28.9563   44.8375 H   0  0  0  0  0  0  0  0  0  0  0  0
  1  2  1  0
  3  2  1  0
  4  3  1  0
  5  4  1  0
  5  1  1  0
  6  1  1  0
  7  2  1  0
  7 12  1  0
  8  9  2  0
 10  9  1  0
 11 10  2  0
 12 11  1  0
 12 13  2  0
 13  8  1  0
 14 17  1  0
 14  5  1  0
 15 16  1  0
 16 21  2  0
 16 17  1  0
 17 18  2  0
 18 19  1  0
 20 19  2  0
 21 20  1  0
 22 21  1  0
  1 23  1  1
  2 24  1  1
  4 25  1  0
  4 26  1  0
  5 27  1  6
  6 28  1  0
  8 29  1  0
  9 30  1  0
 10 31  1  0
 18 32  1  0
 19 33  1  0
 20 34  1  0
 22 35  1  0
 22 36  1  0
 22 37  1  0
M  ISO  8  23  13  24  13  25  13  26  13  27  13  28   3  29  14  30  14
M  ISO  7  31  14  32  14  33  14  34  14  35   8  36   8  37   8
M  END
>  <minimizedAffinity>  (1) 
-4.66248512

>  <minimizedRMSD>  (1) 
0.0681852177

$$$$
