
     RDKit          3D

 29 31  0  0  1  0  0  0  0  0999 V2000
   37.0520   31.1690   49.1850 C   0  0  0  0  0  0  0  0  0  0  0  0
   37.4000   32.4450   49.6620 C   0  0  0  0  0  0  0  0  0  0  0  0
   38.3590   33.1220   48.9310 C   0  0  0  0  0  0  0  0  0  0  0  0
   38.9140   32.5520   47.8160 N   0  0  0  0  0  0  0  0  0  0  0  0
   38.5470   31.3130   47.3890 C   0  0  0  0  0  0  0  0  0  0  0  0
   37.6100   30.6230   48.0850 N   0  0  0  0  0  0  0  0  0  0  0  0
   35.9910   30.4160   49.9470 C   0  0  0  0  0  0  0  0  0  0  0  0
   35.8610   28.9690   49.8220 C   0  0  0  0  0  0  0  0  0  0  0  0
   36.5720   29.5190   51.0290 C   0  0  0  0  0  0  0  0  0  0  0  0
   40.4430   31.4980   45.7840 C   0  0  2  0  0  0  0  0  0  0  0  0
   39.1880   30.7510   46.1700 C   0  0  2  0  0  0  0  0  0  0  0  0
   38.3200   30.8590   44.9480 C   0  0  0  0  0  0  0  0  0  0  0  0
   39.1460   31.1290   43.8780 O   0  0  0  0  0  0  0  0  0  0  0  0
   40.1890   31.9220   44.3710 C   0  0  0  0  0  0  0  0  0  0  0  0
   41.5810   30.6920   45.7920 O   0  0  0  0  0  0  0  0  0  0  0  0
   36.9379   32.8781   50.5613 H   0  0  0  0  0  0  0  0  0  0  0  0
   38.6785   34.1259   49.2474 H   0  0  0  0  0  0  0  0  0  0  0  0
   35.2485   31.2227   49.8573 H   0  0  0  0  0  0  0  0  0  0  0  0
   34.8736   28.4983   49.9384 H   0  0  0  0  0  0  0  0  0  0  0  0
   36.1247   28.2393   49.0423 H   0  0  0  0  0  0  0  0  0  0  0  0
   37.6613   29.4061   51.1327 H   0  0  0  0  0  0  0  0  0  0  0  0
   36.4676   29.4254   52.1200 H   0  0  0  0  0  0  0  0  0  0  0  0
   40.6344   32.3173   46.4926 H   0  0  0  0  0  0  0  0  0  0  0  0
   39.3850   29.7046   46.4462 H   0  0  0  0  0  0  0  0  0  0  0  0
   37.7861   29.9118   44.7812 H   0  0  0  0  0  0  0  0  0  0  0  0
   37.5722   31.6561   45.0721 H   0  0  0  0  0  0  0  0  0  0  0  0
   41.0945   31.7720   43.7647 H   0  0  0  0  0  0  0  0  0  0  0  0
   39.9211   32.9880   44.3271 H   0  0  0  0  0  0  0  0  0  0  0  0
   41.8459   30.5044   46.7273 H   0  0  0  0  0  0  0  0  0  0  0  0
  1  2  2  0
  1  7  1  0
  3  2  1  0
  4  3  2  0
  5  4  1  0
  5  6  2  0
  6  1  1  0
  7  9  1  0
  8  7  1  0
  8  9  1  0
 10 15  1  0
 10 11  1  0
 11  5  1  0
 12 11  1  0
 13 14  1  0
 13 12  1  0
 14 10  1  0
  2 16  1  0
  3 17  1  0
  7 18  1  0
  8 19  1  0
  8 20  1  0
  9 21  1  0
  9 22  1  0
 10 23  1  1
 11 24  1  1
 12 25  1  0
 12 26  1  0
 14 27  1  0
 14 28  1  0
 15 29  1  0
M  ISO  8  16  14  17  14  18  13  19  13  20  13  21  13  22  13  23  13
M  ISO  6  24  13  25  13  26  13  27  13  28  13  29   3
M  END
>  <minimizedAffinity>  (1) 
-5.92420864

>  <minimizedRMSD>  (1) 
0.181990191

$$$$
