
     RDKit          3D

 29 31  0  0  1  0  0  0  0  0999 V2000
   35.4310   30.4660   50.1210 C   0  0  1  0  0  0  0  0  0  0  0  0
   36.7510   30.1010   50.6380 C   0  0  0  0  0  0  0  0  0  0  0  0
   36.6080   31.3400   49.8200 C   0  0  1  0  0  0  0  0  0  0  0  0
   34.7880   28.2560   49.0890 C   0  0  0  0  0  0  0  0  0  0  0  0
   34.7990   29.6830   49.0420 C   0  0  0  0  0  0  0  0  0  0  0  0
   34.1970   30.2840   47.9320 C   0  0  0  0  0  0  0  0  0  0  0  0
   33.6400   29.5070   46.9690 N   0  0  0  0  0  0  0  0  0  0  0  0
   33.6520   28.1430   47.0550 C   0  0  0  0  0  0  0  0  0  0  0  0
   34.2320   27.5400   48.1250 N   0  0  0  0  0  0  0  0  0  0  0  0
   38.1110   32.7830   48.6070 C   0  0  2  0  0  0  0  0  0  0  0  0
   37.2050   31.5440   48.4930 C   0  0  1  0  0  0  0  0  0  0  0  0
   38.2090   30.5550   48.0150 C   0  0  0  0  0  0  0  0  0  0  0  0
   39.0790   31.2570   47.1470 O   0  0  0  0  0  0  0  0  0  0  0  0
   38.9670   32.5910   47.4030 C   0  0  0  0  0  0  0  0  0  0  0  0
   38.8690   32.6050   49.7690 O   0  0  0  0  0  0  0  0  0  0  0  0
   34.4414   30.6200   50.5760 H   0  0  0  0  0  0  0  0  0  0  0  0
   36.9573   30.1771   51.7158 H   0  0  0  0  0  0  0  0  0  0  0  0
   37.3838   29.2033   50.5769 H   0  0  0  0  0  0  0  0  0  0  0  0
   36.8456   32.4063   49.9484 H   0  0  0  0  0  0  0  0  0  0  0  0
   35.2511   27.7414   49.9438 H   0  0  0  0  0  0  0  0  0  0  0  0
   34.1751   31.3799   47.8401 H   0  0  0  0  0  0  0  0  0  0  0  0
   33.1936   27.5358   46.2606 H   0  0  0  0  0  0  0  0  0  0  0  0
   37.6215   33.7669   48.6548 H   0  0  0  0  0  0  0  0  0  0  0  0
   36.3315   31.5424   47.8244 H   0  0  0  0  0  0  0  0  0  0  0  0
   38.7715   30.1424   48.8655 H   0  0  0  0  0  0  0  0  0  0  0  0
   37.7249   29.7127   47.4991 H   0  0  0  0  0  0  0  0  0  0  0  0
   39.9645   33.0162   47.5879 H   0  0  0  0  0  0  0  0  0  0  0  0
   38.5130   33.0986   46.5392 H   0  0  0  0  0  0  0  0  0  0  0  0
   38.2930   32.7403   50.5627 H   0  0  0  0  0  0  0  0  0  0  0  0
  1  2  1  0
  3  1  1  0
  3  2  1  0
  5  4  2  0
  5  1  1  0
  6  5  1  0
  7  8  1  0
  7  6  2  0
  8  9  2  0
  9  4  1  0
 10 15  1  0
 11 12  1  0
 11 10  1  0
 11  3  1  0
 13 14  1  0
 13 12  1  0
 14 10  1  0
  1 16  1  1
  2 17  1  0
  2 18  1  0
  3 19  1  1
  4 20  1  0
  6 21  1  0
  8 22  1  0
 10 23  1  1
 11 24  1  6
 12 25  1  0
 12 26  1  0
 14 27  1  0
 14 28  1  0
 15 29  1  0
M  ISO  8  16  13  17  13  18  13  19  13  20  14  21  14  22  14  23  13
M  ISO  6  24  13  25  13  26  13  27  13  28  13  29   3
M  END
>  <minimizedAffinity>  (1) 
-4.86510277

>  <minimizedRMSD>  (1) 
4.86897087

$$$$
