
     RDKit          3D

 33 34  0  0  1  0  0  0  0  0999 V2000
   37.5450   30.3330   47.5160 C   0  0  2  0  0  0  0  0  0  0  0  0
   38.9600   33.3200   49.2870 C   0  0  2  0  0  0  0  0  0  0  0  0
   39.0190   32.3180   48.1130 C   0  0  0  0  0  0  0  0  0  0  0  0
   38.0390   31.2950   48.5480 C   0  0  1  0  0  0  0  0  0  0  0  0
   36.9970   32.1010   49.0730 O   0  0  0  0  0  0  0  0  0  0  0  0
   37.6960   32.8690   50.0190 C   0  0  0  0  0  0  0  0  0  0  0  0
   38.7690   34.6130   48.7760 O   0  0  0  0  0  0  0  0  0  0  0  0
   38.7750   30.3260   45.4680 C   0  0  0  0  0  0  0  0  0  0  0  0
   37.8650   30.9130   46.1810 C   0  0  0  0  0  0  0  0  0  0  0  0
   40.0900   30.2700   41.9730 C   0  0  0  0  0  0  0  0  0  0  0  0
   39.6760   29.8950   43.2470 C   0  0  0  0  0  0  0  0  0  0  0  0
   39.1690   30.7930   44.1600 C   0  0  0  0  0  0  0  0  0  0  0  0
   39.0840   32.0740   43.7710 N   0  0  0  0  0  0  0  0  0  0  0  0
   39.4890   32.4260   42.5320 C   0  0  0  0  0  0  0  0  0  0  0  0
   39.9810   31.5670   41.6460 N   0  0  0  0  0  0  0  0  0  0  0  0
   35.7300   30.2500   47.6710 S   0  0  0  0  0  0  0  0  0  0  0  0
   35.2550   29.0740   48.9460 C   0  0  0  0  0  0  0  0  0  0  0  0
   34.4140   29.6330   49.9020 F   0  0  0  0  0  0  0  0  0  0  0  0
   34.7260   27.9200   48.4070 F   0  0  0  0  0  0  0  0  0  0  0  0
   36.4430   28.6780   49.6030 F   0  0  0  0  0  0  0  0  0  0  0  0
   37.9986   29.3382   47.6373 H   0  0  0  0  0  0  0  0  0  0  0  0
   39.8619   33.3418   49.9164 H   0  0  0  0  0  0  0  0  0  0  0  0
   40.0255   31.8885   48.0016 H   0  0  0  0  0  0  0  0  0  0  0  0
   38.7970   32.7632   47.1319 H   0  0  0  0  0  0  0  0  0  0  0  0
   38.5027   30.5889   49.2525 H   0  0  0  0  0  0  0  0  0  0  0  0
   37.9524   32.2620   50.8998 H   0  0  0  0  0  0  0  0  0  0  0  0
   37.1023   33.7174   50.3902 H   0  0  0  0  0  0  0  0  0  0  0  0
   38.6744   35.2533   49.5251 H   0  0  0  0  0  0  0  0  0  0  0  0
   39.2687   29.4326   45.8779 H   0  0  0  0  0  0  0  0  0  0  0  0
   37.3459   31.8101   45.8125 H   0  0  0  0  0  0  0  0  0  0  0  0
   40.4908   29.5327   41.2618 H   0  0  0  0  0  0  0  0  0  0  0  0
   39.7569   28.8371   43.5374 H   0  0  0  0  0  0  0  0  0  0  0  0
   39.4070   33.4833   42.2398 H   0  0  0  0  0  0  0  0  0  0  0  0
  1 16  1  0
  2  7  1  0
  2  6  1  0
  3  4  1  0
  3  2  1  0
  4  1  1  0
  4  5  1  0
  5  6  1  0
  8  9  2  0
  9  1  1  0
 10 11  2  0
 11 12  1  0
 12  8  1  0
 13 12  2  0
 14 13  1  0
 15 10  1  0
 15 14  2  0
 16 17  1  0
 17 20  1  0
 17 18  1  0
 19 17  1  0
  1 21  1  1
  2 22  1  1
  3 23  1  0
  3 24  1  0
  4 25  1  1
  6 26  1  0
  6 27  1  0
  7 28  1  0
  8 29  1  0
  9 30  1  0
 10 31  1  0
 11 32  1  0
 14 33  1  0
M  ISO  8  21   8  22  13  23  13  24  13  25  13  26  13  27  13  28   3
M  ISO  3  31  14  32  14  33  14
M  END
>  <minimizedAffinity>  (1) 
-4.94848394

>  <minimizedRMSD>  (1) 
3.43748689

$$$$
