
     RDKit          3D

 34 36  0  0  1  0  0  0  0  0999 V2000
   36.3410   30.0300   48.9620 N   0  0  0  0  0  0  0  0  0  0  0  0
   35.9360   29.4700   50.2370 C   0  0  0  0  0  0  0  0  0  0  0  0
   34.5030   28.9970   49.9560 C   0  0  0  0  0  0  0  0  0  0  0  0
   34.2270   29.3740   48.5320 C   0  0  1  0  0  0  0  0  0  0  0  0
   35.6130   29.2820   47.9360 C   0  0  0  0  0  0  0  0  0  0  0  0
   37.2540   31.0870   48.7370 C   0  0  0  0  0  0  0  0  0  0  0  0
   37.2150   32.1670   49.6160 C   0  0  0  0  0  0  0  0  0  0  0  0
   38.1050   33.2280   49.4220 C   0  0  0  0  0  0  0  0  0  0  0  0
   38.9750   33.1270   48.3540 N   0  0  0  0  0  0  0  0  0  0  0  0
   38.9880   32.0670   47.5200 C   0  0  0  0  0  0  0  0  0  0  0  0
   38.1220   31.0460   47.7180 N   0  0  0  0  0  0  0  0  0  0  0  0
   33.7600   27.3700   47.0630 C   0  0  2  0  0  0  0  0  0  0  0  0
   33.2200   28.5260   47.8440 C   0  0  2  0  0  0  0  0  0  0  0  0
   32.4910   29.2740   46.7500 C   0  0  0  0  0  0  0  0  0  0  0  0
   31.9410   28.3180   45.9160 O   0  0  0  0  0  0  0  0  0  0  0  0
   32.6030   27.1280   46.1040 C   0  0  0  0  0  0  0  0  0  0  0  0
   33.8520   26.2850   47.9170 O   0  0  0  0  0  0  0  0  0  0  0  0
   36.5828   28.6279   50.5241 H   0  0  0  0  0  0  0  0  0  0  0  0
   36.0049   30.1849   51.0701 H   0  0  0  0  0  0  0  0  0  0  0  0
   34.4255   27.9076   50.0869 H   0  0  0  0  0  0  0  0  0  0  0  0
   33.7798   29.4558   50.6464 H   0  0  0  0  0  0  0  0  0  0  0  0
   33.7538   30.3616   48.4284 H   0  0  0  0  0  0  0  0  0  0  0  0
   35.9615   28.2417   47.8560 H   0  0  0  0  0  0  0  0  0  0  0  0
   35.7164   29.6580   46.9074 H   0  0  0  0  0  0  0  0  0  0  0  0
   36.4963   32.1849   50.4486 H   0  0  0  0  0  0  0  0  0  0  0  0
   38.1119   34.1026   50.0891 H   0  0  0  0  0  0  0  0  0  0  0  0
   39.6998   32.0325   46.6821 H   0  0  0  0  0  0  0  0  0  0  0  0
   34.7403   27.5283   46.5897 H   0  0  0  0  0  0  0  0  0  0  0  0
   32.6097   28.2053   48.7011 H   0  0  0  0  0  0  0  0  0  0  0  0
   31.6980   29.9015   47.1829 H   0  0  0  0  0  0  0  0  0  0  0  0
   33.1752   29.9353   46.1981 H   0  0  0  0  0  0  0  0  0  0  0  0
   31.9153   26.3835   46.5315 H   0  0  0  0  0  0  0  0  0  0  0  0
   32.9808   26.7490   45.1429 H   0  0  0  0  0  0  0  0  0  0  0  0
   33.8253   26.6002   48.8551 H   0  0  0  0  0  0  0  0  0  0  0  0
  1  2  1  0
  3  2  1  0
  4  3  1  0
  5  4  1  0
  5  1  1  0
  6  1  1  0
  6  7  2  0
  8  7  1  0
  9  8  2  0
 10 11  2  0
 10  9  1  0
 11  6  1  0
 12 13  1  0
 12 17  1  0
 13 14  1  0
 13  4  1  0
 15 16  1  0
 15 14  1  0
 16 12  1  0
  2 18  1  0
  2 19  1  0
  3 20  1  0
  3 21  1  0
  4 22  1  1
  5 23  1  0
  5 24  1  0
  7 25  1  0
  8 26  1  0
 10 27  1  0
 12 28  1  6
 13 29  1  1
 14 30  1  0
 14 31  1  0
 16 32  1  0
 16 33  1  0
 17 34  1  0
M  ISO  8  18  13  19  13  20  13  21  13  22  13  23  13  24  13  25  14
M  ISO  8  26  14  27  14  28  13  29  13  30  13  31  13  32  13  33  13
M  ISO  1  34   3
M  END
>  <minimizedAffinity>  (1) 
-4.58774805

>  <minimizedRMSD>  (1) 
6.49770451

$$$$
