
     RDKit          3D

 50 53  0  0  1  0  0  0  0  0999 V2000
   34.5440   28.2840   48.3980 C   0  0  0  0  0  0  0  0  0  0  0  0
   33.4730   27.2460   48.2810 C   0  0  0  0  0  0  0  0  0  0  0  0
   32.1970   27.7990   47.7590 C   0  0  0  0  0  0  0  0  0  0  0  0
   31.0720   27.6710   48.5740 C   0  0  0  0  0  0  0  0  0  0  0  0
   29.8390   28.1520   48.1790 C   0  0  0  0  0  0  0  0  0  0  0  0
   29.7200   28.7560   46.9860 N   0  0  0  0  0  0  0  0  0  0  0  0
   30.8440   28.8630   46.2140 C   0  0  0  0  0  0  0  0  0  0  0  0
   32.0530   28.4130   46.5570 N   0  0  0  0  0  0  0  0  0  0  0  0
   30.6420   29.5350   44.8950 C   0  0  0  0  0  0  0  0  0  0  0  0
   31.7130   33.0140   44.5220 C   0  0  1  0  0  0  0  0  0  0  0  0
   31.9190   31.6800   45.2490 C   0  0  0  0  0  0  0  0  0  0  0  0
   30.6010   31.0290   45.0130 C   0  0  1  0  0  0  0  0  0  0  0  0
   30.0020   31.6510   43.9390 O   0  0  0  0  0  0  0  0  0  0  0  0
   30.2370   33.0040   44.1690 C   0  0  0  0  0  0  0  0  0  0  0  0
   32.0360   34.0990   45.3320 O   0  0  0  0  0  0  0  0  0  0  0  0
   34.5350   28.8720   49.6900 O   0  0  0  0  0  0  0  0  0  0  0  0
   37.3030   30.0330   51.7110 C   0  0  0  0  0  0  0  0  0  0  0  0
   38.0760   30.6900   50.7170 C   0  0  0  0  0  0  0  0  0  0  0  0
   37.5890   30.6910   49.4090 C   0  0  0  0  0  0  0  0  0  0  0  0
   36.3970   30.0450   49.2230 N   0  0  0  0  0  0  0  0  0  0  0  0
   35.6820   29.4320   50.1610 C   0  0  0  0  0  0  0  0  0  0  0  0
   36.1530   29.4320   51.4300 N   0  0  0  0  0  0  0  0  0  0  0  0
   38.8340   33.2980   49.2370 F   0  0  0  0  0  0  0  0  0  0  0  0
   38.8210   32.5070   48.1830 C   0  0  0  0  0  0  0  0  0  0  0  0
   38.2400   31.3050   48.2850 C   0  0  0  0  0  0  0  0  0  0  0  0
   38.2850   30.5490   47.1040 C   0  0  0  0  0  0  0  0  0  0  0  0
   38.8710   31.0040   45.9530 C   0  0  0  0  0  0  0  0  0  0  0  0
   39.4570   32.2530   45.9020 C   0  0  0  0  0  0  0  0  0  0  0  0
   39.4190   32.9980   47.0450 C   0  0  0  0  0  0  0  0  0  0  0  0
   34.3722   29.0664   47.6442 H   0  0  0  0  0  0  0  0  0  0  0  0
   35.5203   27.8042   48.2350 H   0  0  0  0  0  0  0  0  0  0  0  0
   33.8204   26.4566   47.5983 H   0  0  0  0  0  0  0  0  0  0  0  0
   33.2781   26.8528   49.2897 H   0  0  0  0  0  0  0  0  0  0  0  0
   31.1690   27.1766   49.5518 H   0  0  0  0  0  0  0  0  0  0  0  0
   28.9633   28.0413   48.8354 H   0  0  0  0  0  0  0  0  0  0  0  0
   31.4699   29.2564   44.2265 H   0  0  0  0  0  0  0  0  0  0  0  0
   29.6718   29.2041   44.4961 H   0  0  0  0  0  0  0  0  0  0  0  0
   32.3621   33.1181   43.6401 H   0  0  0  0  0  0  0  0  0  0  0  0
   32.7422   31.1002   44.8061 H   0  0  0  0  0  0  0  0  0  0  0  0
   32.1967   31.7765   46.3090 H   0  0  0  0  0  0  0  0  0  0  0  0
   29.9854   31.1680   45.9140 H   0  0  0  0  0  0  0  0  0  0  0  0
   30.0377   33.6028   43.2680 H   0  0  0  0  0  0  0  0  0  0  0  0
   29.5926   33.4395   44.9469 H   0  0  0  0  0  0  0  0  0  0  0  0
   31.9576   33.8357   46.2831 H   0  0  0  0  0  0  0  0  0  0  0  0
   37.6693   30.0217   52.7482 H   0  0  0  0  0  0  0  0  0  0  0  0
   39.0270   31.1818   50.9696 H   0  0  0  0  0  0  0  0  0  0  0  0
   37.8299   29.5475   47.1025 H   0  0  0  0  0  0  0  0  0  0  0  0
   38.8749   30.3658   45.0571 H   0  0  0  0  0  0  0  0  0  0  0  0
   39.9318   32.6297   44.9841 H   0  0  0  0  0  0  0  0  0  0  0  0
   39.8709   34.0008   47.0566 H   0  0  0  0  0  0  0  0  0  0  0  0
  1 16  1  0
  2  1  1  0
  3  2  1  0
  3  4  2  0
  5  4  1  0
  6  5  2  0
  7  8  2  0
  7  6  1  0
  8  3  1  0
  9  7  1  0
 10 11  1  0
 10 15  1  0
 12  9  1  0
 12 11  1  0
 13 14  1  0
 13 12  1  0
 14 10  1  0
 16 21  1  0
 18 17  2  0
 19 18  1  0
 20 19  2  0
 20 21  1  0
 21 22  2  0
 22 17  1  0
 24 25  2  0
 24 23  1  0
 25 19  1  0
 26 25  1  0
 27 26  2  0
 28 27  1  0
 28 29  2  0
 29 24  1  0
  1 30  1  0
  1 31  1  0
  2 32  1  0
  2 33  1  0
  4 34  1  0
  5 35  1  0
  9 36  1  0
  9 37  1  0
 10 38  1  6
 11 39  1  0
 11 40  1  0
 12 41  1  1
 14 42  1  0
 14 43  1  0
 15 44  1  0
 17 45  1  0
 18 46  1  0
 26 47  1  0
 27 48  1  0
 28 49  1  0
 29 50  1  0
M  ISO  8  30   8  31   8  32   8  33   8  34  14  35  14  36   8  37   8
M  ISO  8  38  13  39  13  40  13  41  13  42  13  43  13  44   3  45  14
M  ISO  5  46  14  47  14  48  14  49  14  50  14
M  END
>  <minimizedAffinity>  (1) 
-6.96695852

>  <minimizedRMSD>  (1) 
0.962461114

$$$$
