
     RDKit          3D

 32 34  0  0  1  0  0  0  0  0999 V2000
   36.4250   29.3440   50.6330 C   0  0  0  0  0  0  0  0  0  0  0  0
   37.4140   30.1010   51.2720 C   0  0  0  0  0  0  0  0  0  0  0  0
   38.1680   31.0090   50.4850 C   0  0  0  0  0  0  0  0  0  0  0  0
   37.8870   31.0890   49.1560 N   0  0  0  0  0  0  0  0  0  0  0  0
   36.9220   30.3360   48.5940 C   0  0  0  0  0  0  0  0  0  0  0  0
   36.2060   29.4780   49.3240 N   0  0  0  0  0  0  0  0  0  0  0  0
   36.6160   30.4100   47.1990 N   0  0  0  0  0  0  0  0  0  0  0  0
   37.5540   30.8570   46.3530 C   0  0  0  0  0  0  0  0  0  0  0  0
   37.1730   30.8950   45.0360 C   0  0  0  0  0  0  0  0  0  0  0  0
   35.9290   30.5120   44.5680 C   0  0  0  0  0  0  0  0  0  0  0  0
   35.6160   30.5600   43.3520 O   0  0  0  0  0  0  0  0  0  0  0  0
   35.0230   30.0680   45.4720 N   0  0  0  0  0  0  0  0  0  0  0  0
   35.3870   30.0280   46.7710 C   0  0  0  0  0  0  0  0  0  0  0  0
   34.5730   29.6200   47.6480 O   0  0  0  0  0  0  0  0  0  0  0  0
   32.6660   30.7100   45.4140 C   0  0  1  0  0  0  0  0  0  0  0  0
   33.7100   29.6580   45.0220 C   0  0  1  0  0  0  0  0  0  0  0  0
   33.5540   29.5890   43.5410 C   0  0  0  0  0  0  0  0  0  0  0  0
   32.7550   30.6800   43.1520 O   0  0  0  0  0  0  0  0  0  0  0  0
   31.8070   30.7480   44.1850 C   0  0  0  0  0  0  0  0  0  0  0  0
   31.9080   30.3040   46.4910 O   0  0  0  0  0  0  0  0  0  0  0  0
   35.8226   28.6318   51.2159 H   0  0  0  0  0  0  0  0  0  0  0  0
   37.6007   29.9951   52.3509 H   0  0  0  0  0  0  0  0  0  0  0  0
   38.9563   31.6299   50.9356 H   0  0  0  0  0  0  0  0  0  0  0  0
   38.5536   31.1697   46.6892 H   0  0  0  0  0  0  0  0  0  0  0  0
   37.9078   31.2551   44.3008 H   0  0  0  0  0  0  0  0  0  0  0  0
   33.1106   31.6718   45.7095 H   0  0  0  0  0  0  0  0  0  0  0  0
   33.5794   28.6666   45.4803 H   0  0  0  0  0  0  0  0  0  0  0  0
   34.5391   29.6521   43.0556 H   0  0  0  0  0  0  0  0  0  0  0  0
   33.0867   28.6389   43.2430 H   0  0  0  0  0  0  0  0  0  0  0  0
   31.2281   31.6819   44.1329 H   0  0  0  0  0  0  0  0  0  0  0  0
   31.0579   29.9434   44.1475 H   0  0  0  0  0  0  0  0  0  0  0  0
   32.3695   30.5512   47.3313 H   0  0  0  0  0  0  0  0  0  0  0  0
  1  2  2  0
  3  2  1  0
  4  3  2  0
  5  4  1  0
  5  6  2  0
  6  1  1  0
  7  5  1  0
  8  7  1  0
  9  8  2  0
 10  9  1  0
 10 12  1  0
 11 10  2  0
 12 13  1  0
 13  7  1  0
 13 14  2  0
 15 20  1  0
 16 15  1  0
 16 12  1  0
 17 16  1  0
 18 17  1  0
 18 19  1  0
 19 15  1  0
  1 21  1  0
  2 22  1  0
  3 23  1  0
  8 24  1  0
  9 25  1  0
 15 26  1  1
 16 27  1  1
 17 28  1  0
 17 29  1  0
 19 30  1  0
 19 31  1  0
 20 32  1  0
M  ISO  8  21  14  22  14  23  14  24  14  25  14  26  13  27  13  28  13
M  ISO  4  29  13  30  13  31  13  32   3
M  END
>  <minimizedAffinity>  (1) 
-5.04208946

>  <minimizedRMSD>  (1) 
4.71717501

$$$$
