
     RDKit          3D

 41 43  0  0  1  0  0  0  0  0999 V2000
   33.1870   27.2980   45.8680 C   0  0  1  0  0  0  0  0  0  0  0  0
   33.9160   27.4550   47.2230 C   0  0  2  0  0  0  0  0  0  0  0  0
   33.7650   26.2340   47.8010 O   0  0  0  0  0  0  0  0  0  0  0  0
   34.0560   25.3280   46.8020 C   0  0  0  0  0  0  0  0  0  0  0  0
   33.5770   25.8950   45.4950 C   0  0  2  0  0  0  0  0  0  0  0  0
   31.8320   27.5090   46.0220 O   0  0  0  0  0  0  0  0  0  0  0  0
   33.2970   28.5110   47.8220 O   0  0  0  0  0  0  0  0  0  0  0  0
   35.3500   29.8010   46.7810 O   0  0  0  0  0  0  0  0  0  0  0  0
   34.0870   29.9820   47.6150 P   0  0  1  0  0  0  0  0  0  0  0  0
   33.1170   31.0430   46.7210 O   0  0  0  0  0  0  0  0  0  0  0  0
   34.3830   30.6200   49.1710 O   0  0  0  0  0  0  0  0  0  0  0  0
   35.6190   30.4940   49.7880 C   0  0  0  0  0  0  0  0  0  0  0  0
   35.9660   29.4760   50.7070 C   0  0  0  0  0  0  0  0  0  0  0  0
   37.2490   29.4890   51.2390 C   0  0  0  0  0  0  0  0  0  0  0  0
   38.1110   30.4790   50.8500 N   0  0  0  0  0  0  0  0  0  0  0  0
   37.7510   31.4460   49.9640 C   0  0  0  0  0  0  0  0  0  0  0  0
   36.4970   31.4510   49.4320 N   0  0  0  0  0  0  0  0  0  0  0  0
   34.5880   25.9080   44.5560 O   0  0  0  0  0  0  0  0  0  0  0  0
   36.4280   24.4470   44.0190 C   0  0  2  0  0  0  0  0  0  0  0  0
   34.9320   24.6600   44.0820 C   0  0  2  0  0  0  0  0  0  0  0  0
   34.6150   24.6900   42.5890 C   0  0  0  0  0  0  0  0  0  0  0  0
   35.6130   25.5280   42.1240 O   0  0  0  0  0  0  0  0  0  0  0  0
   36.7760   25.2780   42.8060 C   0  0  0  0  0  0  0  0  0  0  0  0
   36.6480   23.1200   43.6580 O   0  0  0  0  0  0  0  0  0  0  0  0
   33.4539   28.0197   45.0819 H   0  0  0  0  0  0  0  0  0  0  0  0
   34.9909   27.6882   47.2347 H   0  0  0  0  0  0  0  0  0  0  0  0
   35.1421   25.1590   46.7582 H   0  0  0  0  0  0  0  0  0  0  0  0
   33.5572   24.3686   47.0040 H   0  0  0  0  0  0  0  0  0  0  0  0
   32.7604   25.3119   45.0442 H   0  0  0  0  0  0  0  0  0  0  0  0
   31.6109   27.5434   46.9864 H   0  0  0  0  0  0  0  0  0  0  0  0
   32.5953   31.6136   47.3393 H   0  0  0  0  0  0  0  0  0  0  0  0
   35.2421   28.6982   50.9915 H   0  0  0  0  0  0  0  0  0  0  0  0
   37.5661   28.7195   51.9583 H   0  0  0  0  0  0  0  0  0  0  0  0
   38.4730   32.2246   49.6768 H   0  0  0  0  0  0  0  0  0  0  0  0
   36.9730   24.6846   44.9445 H   0  0  0  0  0  0  0  0  0  0  0  0
   34.4292   23.9189   44.7208 H   0  0  0  0  0  0  0  0  0  0  0  0
   34.6872   23.6882   42.1405 H   0  0  0  0  0  0  0  0  0  0  0  0
   33.5946   25.0232   42.3487 H   0  0  0  0  0  0  0  0  0  0  0  0
   37.4765   24.7260   42.1622 H   0  0  0  0  0  0  0  0  0  0  0  0
   37.2548   26.2207   43.1094 H   0  0  0  0  0  0  0  0  0  0  0  0
   36.7397   22.5669   44.4739 H   0  0  0  0  0  0  0  0  0  0  0  0
  1  6  1  0
  1  2  1  0
  2  3  1  0
  2  7  1  0
  4  3  1  0
  5  1  1  0
  5  4  1  0
  9  8  2  0
  9  7  1  0
  9 11  1  0
 10  9  1  0
 11 12  1  0
 12 13  2  0
 13 14  1  0
 15 14  2  0
 16 15  1  0
 17 12  1  0
 17 16  2  0
 18  5  1  0
 19 24  1  0
 19 20  1  0
 20 18  1  0
 21 20  1  0
 22 21  1  0
 22 23  1  0
 23 19  1  0
  1 25  1  6
  2 26  1  6
  4 27  1  0
  4 28  1  0
  5 29  1  6
  6 30  1  0
 10 31  1  0
 13 32  1  0
 14 33  1  0
 16 34  1  0
 19 35  1  1
 20 36  1  1
 21 37  1  0
 21 38  1  0
 23 39  1  0
 23 40  1  0
 24 41  1  0
M  ISO  8  25  13  26  13  27  13  28  13  29  13  30   3  31   3  32  14
M  ISO  8  33  14  34  14  35  13  36  13  37  13  38  13  39  13  40  13
M  ISO  1  41   3
M  END
>  <minimizedAffinity>  (1) 
-4.10130882

>  <minimizedRMSD>  (1) 
1.1358707

$$$$
