
     RDKit          3D

 35 36  0  0  1  0  0  0  0  0999 V2000
   32.5560   27.1190   48.4660 O   0  0  0  0  0  0  0  0  0  0  0  0
   33.2740   27.8540   47.5310 C   0  0  0  0  0  0  0  0  0  0  0  0
   34.8710   28.3800   49.3460 C   0  0  0  0  0  0  0  0  0  0  0  0
   34.4010   28.5770   48.1630 C   0  0  0  0  0  0  0  0  0  0  0  0
   37.2700   30.1550   51.4730 C   0  0  0  0  0  0  0  0  0  0  0  0
   38.1260   30.7500   50.5190 C   0  0  0  0  0  0  0  0  0  0  0  0
   37.8600   30.5290   49.1550 C   0  0  0  0  0  0  0  0  0  0  0  0
   36.7710   29.7370   48.8560 N   0  0  0  0  0  0  0  0  0  0  0  0
   35.9950   29.2000   49.7930 C   0  0  0  0  0  0  0  0  0  0  0  0
   36.2450   29.4100   51.0940 N   0  0  0  0  0  0  0  0  0  0  0  0
   30.1970   26.3940   47.7870 O   0  0  0  0  0  0  0  0  0  0  0  0
   30.9140   27.5910   48.3990 P   0  0  2  0  0  0  0  0  0  0  0  0
   30.8080   28.9390   47.3780 O   0  0  0  0  0  0  0  0  0  0  0  0
   30.3200   27.9250   49.9430 O   0  0  0  0  0  0  0  0  0  0  0  0
   28.0170   28.6690   49.7900 C   0  0  1  0  0  0  0  0  0  0  0  0
   28.9670   27.5270   49.9290 C   0  0  2  0  0  0  0  0  0  0  0  0
   28.5850   26.9730   51.3070 C   0  0  0  0  0  0  0  0  0  0  0  0
   27.2150   27.1090   51.3200 O   0  0  0  0  0  0  0  0  0  0  0  0
   26.8900   28.2970   50.7170 C   0  0  0  0  0  0  0  0  0  0  0  0
   28.5420   29.8700   50.2620 O   0  0  0  0  0  0  0  0  0  0  0  0
   32.6016   28.5838   47.0564 H   0  0  0  0  0  0  0  0  0  0  0  0
   33.6840   27.1582   46.7841 H   0  0  0  0  0  0  0  0  0  0  0  0
   34.4367   27.6129   50.0040 H   0  0  0  0  0  0  0  0  0  0  0  0
   34.8854   29.3608   47.5621 H   0  0  0  0  0  0  0  0  0  0  0  0
   37.4587   30.3135   52.5450 H   0  0  0  0  0  0  0  0  0  0  0  0
   38.9782   31.3699   50.8345 H   0  0  0  0  0  0  0  0  0  0  0  0
   38.4895   30.9663   48.3660 H   0  0  0  0  0  0  0  0  0  0  0  0
   30.7433   29.7623   47.9240 H   0  0  0  0  0  0  0  0  0  0  0  0
   27.7496   28.8206   48.7338 H   0  0  0  0  0  0  0  0  0  0  0  0
   28.8914   26.8203   49.0895 H   0  0  0  0  0  0  0  0  0  0  0  0
   28.8796   25.9178   51.4056 H   0  0  0  0  0  0  0  0  0  0  0  0
   29.0827   27.4926   52.1391 H   0  0  0  0  0  0  0  0  0  0  0  0
   26.7591   29.0794   51.4790 H   0  0  0  0  0  0  0  0  0  0  0  0
   25.9493   28.1971   50.1557 H   0  0  0  0  0  0  0  0  0  0  0  0
   28.5397   29.8647   51.2520 H   0  0  0  0  0  0  0  0  0  0  0  0
  2  4  1  0
  2  1  1  0
  3  9  1  0
  4  3  2  0
  6  5  2  0
  7  6  1  0
  8  7  2  0
  8  9  1  0
  9 10  2  0
 10  5  1  0
 12 11  2  0
 12  1  1  0
 12 14  1  0
 13 12  1  0
 15 16  1  0
 15 20  1  0
 15 19  1  0
 16 14  1  0
 16 17  1  0
 17 18  1  0
 19 18  1  0
  2 21  1  0
  2 22  1  0
  3 23  1  0
  4 24  1  0
  5 25  1  0
  6 26  1  0
  7 27  1  0
 13 28  1  0
 15 29  1  6
 16 30  1  6
 17 31  1  0
 17 32  1  0
 19 33  1  0
 19 34  1  0
 20 35  1  0
M  ISO  8  21   8  22   8  25  14  26  14  27  14  28   3  29  13  30  13
M  ISO  5  31  13  32  13  33  13  34  13  35   3
M  END
>  <minimizedAffinity>  (1) 
-6.07559633

>  <minimizedRMSD>  (1) 
1.14664435

$$$$
