
     RDKit          3D

 34 36  0  0  0  0  0  0  0  0999 V2000
   35.9070   29.2100   49.7650 C   0  0  0  0  0  0  0  0  0  0  0  0
   34.8670   29.7520   50.4430 C   0  0  0  0  0  0  0  0  0  0  0  0
   33.6860   29.1770   49.9750 C   0  0  0  0  0  0  0  0  0  0  0  0
   34.1080   28.2680   48.9800 C   0  0  0  0  0  0  0  0  0  0  0  0
   35.3950   28.3620   48.9370 O   0  0  0  0  0  0  0  0  0  0  0  0
   37.2860   29.5850   50.0050 C   0  0  0  0  0  0  0  0  0  0  0  0
   37.9170   29.0120   50.9030 O   0  0  0  0  0  0  0  0  0  0  0  0
   37.8410   30.6300   49.1550 C   0  0  0  0  0  0  0  0  0  0  0  0
   38.1560   31.8400   49.7740 C   0  0  0  0  0  0  0  0  0  0  0  0
   38.6860   32.8630   49.0030 C   0  0  0  0  0  0  0  0  0  0  0  0
   38.8680   32.6170   47.6640 N   0  0  0  0  0  0  0  0  0  0  0  0
   38.5590   31.4520   47.0920 C   0  0  0  0  0  0  0  0  0  0  0  0
   38.0450   30.4540   47.8290 N   0  0  0  0  0  0  0  0  0  0  0  0
   33.1960   27.4230   48.1990 C   0  0  0  0  0  0  0  0  0  0  0  0
   33.6660   26.5010   47.4770 O   0  0  0  0  0  0  0  0  0  0  0  0
   31.7620   27.7170   48.3170 C   0  0  0  0  0  0  0  0  0  0  0  0
   30.9170   26.4480   48.4210 C   0  0  0  0  0  0  0  0  0  0  0  0
   29.5260   27.0440   48.2970 C   0  0  0  0  0  0  0  0  0  0  0  0
   29.6960   28.3450   47.5000 C   0  0  0  0  0  0  0  0  0  0  0  0
   31.1620   28.2820   47.0520 C   0  0  0  0  0  0  0  0  0  0  0  0
   34.9416   30.5168   51.2301 H   0  0  0  0  0  0  0  0  0  0  0  0
   32.6578   29.3846   50.3061 H   0  0  0  0  0  0  0  0  0  0  0  0
   37.9872   31.9795   50.8520 H   0  0  0  0  0  0  0  0  0  0  0  0
   38.9506   33.8343   49.4465 H   0  0  0  0  0  0  0  0  0  0  0  0
   38.7256   31.3086   46.0142 H   0  0  0  0  0  0  0  0  0  0  0  0
   31.7353   28.3890   49.1874 H   0  0  0  0  0  0  0  0  0  0  0  0
   31.1340   25.7453   47.6030 H   0  0  0  0  0  0  0  0  0  0  0  0
   31.0859   25.8532   49.3307 H   0  0  0  0  0  0  0  0  0  0  0  0
   28.8593   26.3517   47.7620 H   0  0  0  0  0  0  0  0  0  0  0  0
   29.0767   27.2302   49.2836 H   0  0  0  0  0  0  0  0  0  0  0  0
   29.0181   28.3703   46.6341 H   0  0  0  0  0  0  0  0  0  0  0  0
   29.4579   29.2466   48.0834 H   0  0  0  0  0  0  0  0  0  0  0  0
   31.3034   27.6116   46.1915 H   0  0  0  0  0  0  0  0  0  0  0  0
   31.5945   29.2310   46.7021 H   0  0  0  0  0  0  0  0  0  0  0  0
  1  6  1  0
  1  2  2  0
  3  2  1  0
  4  3  2  0
  5  4  1  0
  5  1  1  0
  6  7  2  0
  8  9  2  0
  8  6  1  0
 10  9  1  0
 11 10  2  0
 12 11  1  0
 12 13  2  0
 13  8  1  0
 14 16  1  0
 14  4  1  0
 15 14  2  0
 16 17  1  0
 18 17  1  0
 19 18  1  0
 20 19  1  0
 20 16  1  0
  2 21  1  0
  3 22  1  0
  9 23  1  0
 10 24  1  0
 12 25  1  0
 16 26  1  0
 17 27  1  0
 17 28  1  0
 18 29  1  0
 18 30  1  0
 19 31  1  0
 19 32  1  0
 20 33  1  0
 20 34  1  0
M  ISO  8  21  14  22  14  23  14  24  14  25  14  26  13  27  13  28  13
M  ISO  6  29  13  30  13  31  13  32  13  33  13  34  13
M  END
>  <minimizedAffinity>  (1) 
-5.39882421

>  <minimizedRMSD>  (1) 
2.87806082

$$$$
