
     RDKit          3D

 42 44  0  0  0  0  0  0  0  0999 V2000
   37.0750   30.9570   49.0520 C   0  0  0  0  0  0  0  0  0  0  0  0
   36.8000   31.8970   50.0670 C   0  0  0  0  0  0  0  0  0  0  0  0
   37.3950   33.1430   50.0980 C   0  0  0  0  0  0  0  0  0  0  0  0
   38.3020   33.5090   49.1040 C   0  0  0  0  0  0  0  0  0  0  0  0
   38.5640   32.5810   48.1150 C   0  0  0  0  0  0  0  0  0  0  0  0
   37.9540   31.3380   48.1060 C   0  0  0  0  0  0  0  0  0  0  0  0
   36.4030   29.6820   49.1040 C   0  0  0  0  0  0  0  0  0  0  0  0
   36.9380   28.8240   49.8790 O   0  0  0  0  0  0  0  0  0  0  0  0
   33.6220   30.1680   46.8100 C   0  0  0  0  0  0  0  0  0  0  0  0
   32.9460   28.9420   46.8380 C   0  0  0  0  0  0  0  0  0  0  0  0
   33.4470   27.9480   47.6450 C   0  0  0  0  0  0  0  0  0  0  0  0
   34.5630   28.1770   48.3830 N   0  0  0  0  0  0  0  0  0  0  0  0
   35.1960   29.3420   48.3480 C   0  0  0  0  0  0  0  0  0  0  0  0
   34.7120   30.3300   47.5550 N   0  0  0  0  0  0  0  0  0  0  0  0
   38.3400   30.4980   47.0080 C   0  0  0  0  0  0  0  0  0  0  0  0
   39.0420   30.8470   45.9370 C   0  0  0  0  0  0  0  0  0  0  0  0
   39.4980   30.0880   44.7590 C   0  0  0  0  0  0  0  0  0  0  0  0
   40.3770   30.8480   43.8220 C   0  0  0  0  0  0  0  0  0  0  0  0
   40.5940   29.9430   42.6050 C   0  0  0  0  0  0  0  0  0  0  0  0
   40.5070   30.8450   41.4080 C   0  0  0  0  0  0  0  0  0  0  0  0
   39.6110   31.9710   41.8070 C   0  0  0  0  0  0  0  0  0  0  0  0
   39.7820   32.1180   43.2940 C   0  0  0  0  0  0  0  0  0  0  0  0
   36.0874   31.6286   50.8609 H   0  0  0  0  0  0  0  0  0  0  0  0
   37.1532   33.8474   50.9076 H   0  0  0  0  0  0  0  0  0  0  0  0
   38.7885   34.4956   49.1074 H   0  0  0  0  0  0  0  0  0  0  0  0
   39.2747   32.8357   47.3149 H   0  0  0  0  0  0  0  0  0  0  0  0
   33.2549   30.9898   46.1776 H   0  0  0  0  0  0  0  0  0  0  0  0
   32.0419   28.7792   46.2329 H   0  0  0  0  0  0  0  0  0  0  0  0
   32.9451   26.9703   47.6924 H   0  0  0  0  0  0  0  0  0  0  0  0
   38.0180   29.4475   47.0600 H   0  0  0  0  0  0  0  0  0  0  0  0
   39.3406   31.9056   45.9267 H   0  0  0  0  0  0  0  0  0  0  0  0
   40.0564   29.2093   45.1141 H   0  0  0  0  0  0  0  0  0  0  0  0
   38.5928   29.8288   44.1903 H   0  0  0  0  0  0  0  0  0  0  0  0
   41.2851   31.1195   44.3802 H   0  0  0  0  0  0  0  0  0  0  0  0
   41.5835   29.4649   42.6540 H   0  0  0  0  0  0  0  0  0  0  0  0
   39.8478   29.1360   42.5606 H   0  0  0  0  0  0  0  0  0  0  0  0
   40.0813   30.3029   40.5507 H   0  0  0  0  0  0  0  0  0  0  0  0
   41.4997   31.2079   41.1033 H   0  0  0  0  0  0  0  0  0  0  0  0
   39.9069   32.8975   41.2932 H   0  0  0  0  0  0  0  0  0  0  0  0
   38.5635   31.7728   41.5358 H   0  0  0  0  0  0  0  0  0  0  0  0
   40.4530   32.9623   43.5105 H   0  0  0  0  0  0  0  0  0  0  0  0
   38.8103   32.3112   43.7721 H   0  0  0  0  0  0  0  0  0  0  0  0
  1  7  1  0
  1  2  2  0
  2  3  1  0
  4  3  2  0
  5  4  1  0
  6  5  2  0
  6  1  1  0
  7  8  2  0
  9 10  2  0
  9 14  1  0
 10 11  1  0
 11 12  2  0
 13 12  1  0
 13  7  1  0
 14 13  2  0
 15  6  1  0
 16 15  2  0
 17 16  1  0
 18 17  1  0
 19 18  1  0
 20 21  1  0
 20 19  1  0
 21 22  1  0
 22 18  1  0
  2 23  1  0
  3 24  1  0
  4 25  1  0
  5 26  1  0
  9 27  1  0
 10 28  1  0
 11 29  1  0
 15 30  1  0
 16 31  1  0
 17 32  1  0
 17 33  1  0
 18 34  1  0
 19 35  1  0
 19 36  1  0
 20 37  1  0
 20 38  1  0
 21 39  1  0
 21 40  1  0
 22 41  1  0
 22 42  1  0
M  ISO  8  23  14  24  14  25  14  26  14  27  14  28  14  29  14  32   8
M  ISO  8  33   8  34  13  35  13  36  13  37  13  38  13  39  13  40  13
M  ISO  2  41  13  42  13
M  END
>  <minimizedAffinity>  (1) 
-6.11500549

>  <minimizedRMSD>  (1) 
0.683888614

$$$$
