
     RDKit          3D

 44 47  0  0  1  0  0  0  0  0999 V2000
   34.5170   29.0070   48.8720 C   0  0  2  0  0  0  0  0  0  0  0  0
   35.2050   28.3090   49.9980 C   0  0  0  0  0  0  0  0  0  0  0  0
   36.3550   29.1020   50.4080 N   0  0  0  0  0  0  0  0  0  0  0  0
   37.3200   29.8580   51.1570 C   0  0  0  0  0  0  0  0  0  0  0  0
   37.5780   30.0750   52.3590 O   0  0  0  0  0  0  0  0  0  0  0  0
   37.9980   30.3650   49.9660 C   0  0  1  0  0  0  0  0  0  0  0  0
   37.1710   29.3370   49.2420 C   0  0  2  0  0  0  0  0  0  0  0  0
   35.8770   30.0120   48.1520 S   0  0  0  0  0  0  0  0  0  0  0  0
   33.3160   29.8070   49.2420 C   0  0  0  0  0  0  0  0  0  0  0  0
   34.2020   27.9620   47.7930 C   0  0  0  0  0  0  0  0  0  0  0  0
   33.4000   28.4970   46.6510 C   0  0  0  0  0  0  0  0  0  0  0  0
   33.8270   29.9660   46.5060 C   0  0  0  0  0  0  0  0  0  0  0  0
   32.6120   30.6870   45.9550 C   0  0  0  0  0  0  0  0  0  0  0  0
   31.5630   29.6060   45.7570 C   0  0  0  0  0  0  0  0  0  0  0  0
   31.9400   28.6580   46.9000 C   0  0  0  0  0  0  0  0  0  0  0  0
   37.7380   31.7790   49.6360 C   0  0  0  0  0  0  0  0  0  0  0  0
   36.7210   32.2670   50.2090 O   0  0  0  0  0  0  0  0  0  0  0  0
   38.5710   32.5430   48.7420 C   0  0  0  0  0  0  0  0  0  0  0  0
   39.0840   33.7420   49.2160 C   0  0  0  0  0  0  0  0  0  0  0  0
   39.9040   34.4940   48.3290 C   0  0  0  0  0  0  0  0  0  0  0  0
   40.1300   33.9950   47.0880 N   0  0  0  0  0  0  0  0  0  0  0  0
   39.6180   32.8380   46.6730 C   0  0  0  0  0  0  0  0  0  0  0  0
   38.8380   32.1090   47.4990 N   0  0  0  0  0  0  0  0  0  0  0  0
   34.5109   28.1991   50.8443 H   0  0  0  0  0  0  0  0  0  0  0  0
   35.5352   27.3112   49.6735 H   0  0  0  0  0  0  0  0  0  0  0  0
   39.0914   30.4307   49.8647 H   0  0  0  0  0  0  0  0  0  0  0  0
   37.7669   28.6065   48.6752 H   0  0  0  0  0  0  0  0  0  0  0  0
   33.2348   29.8611   50.3377 H   0  0  0  0  0  0  0  0  0  0  0  0
   33.4111   30.8228   48.8308 H   0  0  0  0  0  0  0  0  0  0  0  0
   32.4153   29.3278   48.8308 H   0  0  0  0  0  0  0  0  0  0  0  0
   35.1525   27.5743   47.3977 H   0  0  0  0  0  0  0  0  0  0  0  0
   33.5949   27.1798   48.2721 H   0  0  0  0  0  0  0  0  0  0  0  0
   33.5644   27.7956   45.8197 H   0  0  0  0  0  0  0  0  0  0  0  0
   34.1108   30.3824   47.4838 H   0  0  0  0  0  0  0  0  0  0  0  0
   34.7006   30.0745   45.8464 H   0  0  0  0  0  0  0  0  0  0  0  0
   32.2558   31.4439   46.6693 H   0  0  0  0  0  0  0  0  0  0  0  0
   32.8383   31.2168   45.0179 H   0  0  0  0  0  0  0  0  0  0  0  0
   30.5429   30.0007   45.8735 H   0  0  0  0  0  0  0  0  0  0  0  0
   31.5537   29.1465   44.7576 H   0  0  0  0  0  0  0  0  0  0  0  0
   31.4071   27.6987   46.8241 H   0  0  0  0  0  0  0  0  0  0  0  0
   31.6849   29.0275   47.9042 H   0  0  0  0  0  0  0  0  0  0  0  0
   38.8660   34.0962   50.2344 H   0  0  0  0  0  0  0  0  0  0  0  0
   40.3425   35.4534   48.6410 H   0  0  0  0  0  0  0  0  0  0  0  0
   39.8308   32.4760   45.6563 H   0  0  0  0  0  0  0  0  0  0  0  0
  1 10  1  6
  1  9  1  0
  1  2  1  0
  2  3  1  0
  3  4  1  0
  4  5  2  0
  6  4  1  0
  7  6  1  0
  7  3  1  0
  8  1  1  0
  8  7  1  0
 11 15  1  0
 11 10  1  0
 12 11  1  0
 13 12  1  0
 14 13  1  0
 14 15  1  0
 16  6  1  0
 16 17  2  0
 18 19  2  0
 18 16  1  0
 20 19  1  0
 21 20  2  0
 22 21  1  0
 22 23  2  0
 23 18  1  0
  2 24  1  0
  2 25  1  0
  6 26  1  1
  7 27  1  6
  9 28  1  0
  9 29  1  0
  9 30  1  0
 10 31  1  0
 10 32  1  0
 11 33  1  0
 12 34  1  0
 12 35  1  0
 13 36  1  0
 13 37  1  0
 14 38  1  0
 14 39  1  0
 15 40  1  0
 15 41  1  0
 19 42  1  0
 20 43  1  0
 22 44  1  0
M  ISO  8  24  13  25  13  26  13  27  13  28   8  29   8  30   8  31   8
M  ISO  8  32   8  33  13  34  13  35  13  36  13  37  13  38  13  39  13
M  ISO  5  40  13  41  13  42  14  43  14  44  14
M  END
>  <minimizedAffinity>  (1) 
-5.19029522

>  <minimizedRMSD>  (1) 
0.224597722

$$$$
