
     RDKit          3D

 43 45  0  0  1  0  0  0  0  0999 V2000
   36.8110   29.1380   50.7440 C   0  0  0  0  0  0  0  0  0  0  0  0
   36.4740   29.0560   49.3930 C   0  0  0  0  0  0  0  0  0  0  0  0
   35.1850   29.2210   48.9320 C   0  0  0  0  0  0  0  0  0  0  0  0
   34.2800   29.4680   49.9040 N   0  0  0  0  0  0  0  0  0  0  0  0
   34.5440   29.5570   51.2130 C   0  0  0  0  0  0  0  0  0  0  0  0
   35.8180   29.3900   51.6270 N   0  0  0  0  0  0  0  0  0  0  0  0
   34.8790   29.1340   47.5710 N   0  0  0  0  0  0  0  0  0  0  0  0
   34.2040   27.9460   47.1360 C   0  0  0  0  0  0  0  0  0  0  0  0
   33.7100   27.9830   45.7260 C   0  0  0  0  0  0  0  0  0  0  0  0
   33.9300   29.1290   44.9730 N   0  0  0  0  0  0  0  0  0  0  0  0
   35.0480   29.9490   45.2510 C   0  0  0  0  0  0  0  0  0  0  0  0
   35.2520   30.2260   46.7060 C   0  0  2  0  0  0  0  0  0  0  0  0
   36.6800   30.6550   46.8590 C   0  0  0  0  0  0  0  0  0  0  0  0
   37.1720   30.9740   45.4340 C   0  0  0  0  0  0  0  0  0  0  0  0
   38.5560   31.5560   45.6370 C   0  0  0  0  0  0  0  0  0  0  0  0
   38.8620   32.7350   44.7750 C   0  0  0  0  0  0  0  0  0  0  0  0
   40.3760   32.7790   44.7550 C   0  0  0  0  0  0  0  0  0  0  0  0
   40.8550   31.5020   45.4110 C   0  0  0  0  0  0  0  0  0  0  0  0
   39.6420   30.5800   45.2170 C   0  0  0  0  0  0  0  0  0  0  0  0
   37.8496   29.0023   51.0800 H   0  0  0  0  0  0  0  0  0  0  0  0
   37.2713   28.8508   48.6635 H   0  0  0  0  0  0  0  0  0  0  0  0
   33.7404   29.7618   51.9358 H   0  0  0  0  0  0  0  0  0  0  0  0
   34.9028   27.1018   47.2311 H   0  0  0  0  0  0  0  0  0  0  0  0
   33.3124   27.8474   47.7726 H   0  0  0  0  0  0  0  0  0  0  0  0
   34.1887   27.1483   45.1930 H   0  0  0  0  0  0  0  0  0  0  0  0
   32.6155   27.9337   45.8246 H   0  0  0  0  0  0  0  0  0  0  0  0
   33.0931   29.7201   45.0782 H   0  0  0  0  0  0  0  0  0  0  0  0
   35.9484   29.4490   44.8645 H   0  0  0  0  0  0  0  0  0  0  0  0
   34.8604   30.9182   44.7657 H   0  0  0  0  0  0  0  0  0  0  0  0
   34.5726   31.0255   47.0365 H   0  0  0  0  0  0  0  0  0  0  0  0
   36.7462   31.5486   47.4971 H   0  0  0  0  0  0  0  0  0  0  0  0
   37.2908   29.8738   47.3351 H   0  0  0  0  0  0  0  0  0  0  0  0
   36.5094   31.7050   44.9476 H   0  0  0  0  0  0  0  0  0  0  0  0
   37.1806   30.0866   44.7840 H   0  0  0  0  0  0  0  0  0  0  0  0
   38.5491   31.8120   46.7068 H   0  0  0  0  0  0  0  0  0  0  0  0
   38.4598   32.5948   43.7608 H   0  0  0  0  0  0  0  0  0  0  0  0
   38.4125   33.6664   45.1498 H   0  0  0  0  0  0  0  0  0  0  0  0
   40.7404   32.8329   43.7185 H   0  0  0  0  0  0  0  0  0  0  0  0
   40.7540   33.6642   45.2875 H   0  0  0  0  0  0  0  0  0  0  0  0
   41.7474   31.1024   44.9071 H   0  0  0  0  0  0  0  0  0  0  0  0
   41.1593   31.6256   46.4608 H   0  0  0  0  0  0  0  0  0  0  0  0
   39.5286   30.2569   44.1716 H   0  0  0  0  0  0  0  0  0  0  0  0
   39.6702   29.6276   45.7666 H   0  0  0  0  0  0  0  0  0  0  0  0
  1  6  2  0
  2  1  1  0
  3  2  2  0
  3  4  1  0
  4  5  2  0
  5  6  1  0
  7  3  1  0
  8  7  1  0
  9  8  1  0
 10 11  1  0
 10  9  1  0
 11 12  1  0
 12 13  1  0
 12  7  1  0
 14 15  1  0
 14 13  1  0
 16 15  1  0
 17 16  1  0
 17 18  1  0
 19 18  1  0
 19 15  1  0
  1 20  1  0
  2 21  1  0
  5 22  1  0
  8 23  1  0
  8 24  1  0
  9 25  1  0
  9 26  1  0
 10 27  1  0
 11 28  1  0
 11 29  1  0
 12 30  1  1
 13 31  1  0
 13 32  1  0
 14 33  1  0
 14 34  1  0
 15 35  1  0
 16 36  1  0
 16 37  1  0
 17 38  1  0
 17 39  1  0
 18 40  1  0
 18 41  1  0
 19 42  1  0
 19 43  1  0
M  ISO  8  20  14  21  14  22  14  23  13  24  13  25  13  26  13  27   5
M  ISO  8  28  13  29  13  30  13  31   8  32   8  33   8  34   8  35  13
M  ISO  8  36  13  37  13  38  13  39  13  40  13  41  13  42  13  43  13
M  END
>  <minimizedAffinity>  (1) 
-4.56513643

>  <minimizedRMSD>  (1) 
5.20937157

$$$$
