
     RDKit          3D

 35 37  0  0  1  0  0  0  0  0999 V2000
   38.5800   31.3120   47.7580 C   0  0  2  0  0  0  0  0  0  0  0  0
   37.5820   31.9940   48.7030 C   0  0  2  0  0  0  0  0  0  0  0  0
   38.4430   33.0250   49.3120 C   0  0  0  0  0  0  0  0  0  0  0  0
   39.2600   33.4990   48.2930 O   0  0  0  0  0  0  0  0  0  0  0  0
   39.2580   32.6090   47.2620 C   0  0  0  0  0  0  0  0  0  0  0  0
   36.8930   29.6550   51.5900 C   0  0  0  0  0  0  0  0  0  0  0  0
   37.5840   30.5810   50.7700 C   0  0  0  0  0  0  0  0  0  0  0  0
   36.9390   31.0670   49.6040 C   0  0  0  0  0  0  0  0  0  0  0  0
   35.6700   30.6050   49.3440 N   0  0  0  0  0  0  0  0  0  0  0  0
   35.0480   29.7350   50.1350 C   0  0  0  0  0  0  0  0  0  0  0  0
   35.6470   29.2510   51.2610 N   0  0  0  0  0  0  0  0  0  0  0  0
   37.9710   30.6750   46.7230 O   0  0  0  0  0  0  0  0  0  0  0  0
   38.3510   30.9490   45.4500 C   0  0  0  0  0  0  0  0  0  0  0  0
   39.0890   29.8960   44.6980 C   0  0  0  0  0  0  0  0  0  0  0  0
   39.0070   30.4010   43.2530 C   0  0  0  0  0  0  0  0  0  0  0  0
   38.0180   31.5370   43.2570 C   0  0  0  0  0  0  0  0  0  0  0  0
   37.1970   31.2480   44.5110 C   0  0  0  0  0  0  0  0  0  0  0  0
   39.2122   30.5307   48.2050 H   0  0  0  0  0  0  0  0  0  0  0  0
   36.6916   32.4314   48.2277 H   0  0  0  0  0  0  0  0  0  0  0  0
   37.8295   33.8418   49.7200 H   0  0  0  0  0  0  0  0  0  0  0  0
   39.0356   32.6132   50.1422 H   0  0  0  0  0  0  0  0  0  0  0  0
   40.2910   32.3954   46.9502 H   0  0  0  0  0  0  0  0  0  0  0  0
   38.7134   33.0214   46.3998 H   0  0  0  0  0  0  0  0  0  0  0  0
   37.3735   29.2634   52.4987 H   0  0  0  0  0  0  0  0  0  0  0  0
   38.5986   30.9157   51.0319 H   0  0  0  0  0  0  0  0  0  0  0  0
   34.0327   29.3999   49.8766 H   0  0  0  0  0  0  0  0  0  0  0  0
   39.0060   31.8043   45.6724 H   0  0  0  0  0  0  0  0  0  0  0  0
   40.1335   29.8247   45.0355 H   0  0  0  0  0  0  0  0  0  0  0  0
   38.6729   28.8869   44.8341 H   0  0  0  0  0  0  0  0  0  0  0  0
   38.6602   29.5966   42.5876 H   0  0  0  0  0  0  0  0  0  0  0  0
   39.9913   30.7295   42.8881 H   0  0  0  0  0  0  0  0  0  0  0  0
   38.5279   32.5090   43.3297 H   0  0  0  0  0  0  0  0  0  0  0  0
   37.4143   31.5991   42.3395 H   0  0  0  0  0  0  0  0  0  0  0  0
   36.6101   32.1199   44.8356 H   0  0  0  0  0  0  0  0  0  0  0  0
   36.4321   30.4629   44.4186 H   0  0  0  0  0  0  0  0  0  0  0  0
  1  2  1  0
  2  3  1  0
  2  8  1  0
  4  3  1  0
  5  1  1  0
  5  4  1  0
  7  6  2  0
  8  7  1  0
  9  8  2  0
  9 10  1  0
 10 11  2  0
 11  6  1  0
 12  1  1  0
 13 12  1  0
 14 13  1  0
 15 16  1  0
 15 14  1  0
 16 17  1  0
 17 13  1  0
  1 18  1  1
  2 19  1  6
  3 20  1  0
  3 21  1  0
  5 22  1  0
  5 23  1  0
  6 24  1  0
  7 25  1  0
 10 26  1  0
 13 27  1  0
 14 28  1  0
 14 29  1  0
 15 30  1  0
 15 31  1  0
 16 32  1  0
 16 33  1  0
 17 34  1  0
 17 35  1  0
M  ISO  8  18  13  19  13  20  13  21  13  22  13  23  13  24  14  25  14
M  ISO  8  26  14  27  13  28  13  29  13  30  13  31  13  32  13  33  13
M  ISO  2  34  13  35  13
M  END
>  <minimizedAffinity>  (1) 
-5.16413355

>  <minimizedRMSD>  (1) 
2.30470753

$$$$
