
     RDKit          3D

 37 39  0  0  0  0  0  0  0  0999 V2000
   38.3920   30.4740   47.2790 F   0  0  0  0  0  0  0  0  0  0  0  0
   38.6970   31.6920   47.7950 C   0  0  0  0  0  0  0  0  0  0  0  0
   38.1770   32.0840   48.9950 C   0  0  0  0  0  0  0  0  0  0  0  0
   38.5260   33.3230   49.4560 C   0  0  0  0  0  0  0  0  0  0  0  0
   39.3610   34.1560   48.7640 C   0  0  0  0  0  0  0  0  0  0  0  0
   39.8800   33.7420   47.5490 C   0  0  0  0  0  0  0  0  0  0  0  0
   39.5400   32.4950   47.0650 C   0  0  0  0  0  0  0  0  0  0  0  0
   36.7950   29.5590   51.4650 C   0  0  0  0  0  0  0  0  0  0  0  0
   37.6710   30.4520   50.8220 C   0  0  0  0  0  0  0  0  0  0  0  0
   37.2850   31.1410   49.6900 C   0  0  0  0  0  0  0  0  0  0  0  0
   36.0270   30.9120   49.2360 N   0  0  0  0  0  0  0  0  0  0  0  0
   35.1940   30.0510   49.8600 C   0  0  0  0  0  0  0  0  0  0  0  0
   35.5660   29.3920   50.9460 N   0  0  0  0  0  0  0  0  0  0  0  0
   39.1650   32.2180   44.7050 C   0  0  0  0  0  0  0  0  0  0  0  0
   38.0480   32.7440   45.0030 O   0  0  0  0  0  0  0  0  0  0  0  0
   40.0590   32.0310   45.8070 N   0  0  0  0  0  0  0  0  0  0  0  0
   39.6550   31.7770   43.3730 C   0  0  0  0  0  0  0  0  0  0  0  0
   38.5970   31.0970   42.5650 C   0  0  0  0  0  0  0  0  0  0  0  0
   39.1170   29.6940   42.2640 C   0  0  0  0  0  0  0  0  0  0  0  0
   40.6230   29.8180   42.4190 C   0  0  0  0  0  0  0  0  0  0  0  0
   40.7200   30.7410   43.6070 C   0  0  0  0  0  0  0  0  0  0  0  0
   38.1197   33.6626   50.4201 H   0  0  0  0  0  0  0  0  0  0  0  0
   39.6180   35.1459   49.1689 H   0  0  0  0  0  0  0  0  0  0  0  0
   40.5537   34.3975   46.9776 H   0  0  0  0  0  0  0  0  0  0  0  0
   37.1067   29.0125   52.3673 H   0  0  0  0  0  0  0  0  0  0  0  0
   38.6818   30.6040   51.2285 H   0  0  0  0  0  0  0  0  0  0  0  0
   34.1829   29.8938   49.4562 H   0  0  0  0  0  0  0  0  0  0  0  0
   40.9904   31.6026   45.7077 H   0  0  0  0  0  0  0  0  0  0  0  0
   40.0025   32.6705   42.8336 H   0  0  0  0  0  0  0  0  0  0  0  0
   37.6594   31.0402   43.1374 H   0  0  0  0  0  0  0  0  0  0  0  0
   38.3866   31.6508   41.6382 H   0  0  0  0  0  0  0  0  0  0  0  0
   38.8532   29.3907   41.2401 H   0  0  0  0  0  0  0  0  0  0  0  0
   38.6848   28.9312   42.9283 H   0  0  0  0  0  0  0  0  0  0  0  0
   41.0885   28.8432   42.6268 H   0  0  0  0  0  0  0  0  0  0  0  0
   41.1409   30.1834   41.5199 H   0  0  0  0  0  0  0  0  0  0  0  0
   41.7139   31.2100   43.6538 H   0  0  0  0  0  0  0  0  0  0  0  0
   40.5813   30.2092   44.5599 H   0  0  0  0  0  0  0  0  0  0  0  0
  1  2  1  0
  2  3  2  0
  3  4  1  0
  3 10  1  0
  5  4  2  0
  6  5  1  0
  7  6  2  0
  7  2  1  0
  9  8  2  0
 10  9  1  0
 11 10  2  0
 11 12  1  0
 12 13  2  0
 13  8  1  0
 14 15  2  0
 14 16  1  0
 16  7  1  0
 17 21  1  0
 17 14  1  0
 18 17  1  0
 19 20  1  0
 19 18  1  0
 20 21  1  0
  4 22  1  0
  5 23  1  0
  6 24  1  0
  8 25  1  0
  9 26  1  0
 12 27  1  0
 16 28  1  0
 17 29  1  0
 18 30  1  0
 18 31  1  0
 19 32  1  0
 19 33  1  0
 20 34  1  0
 20 35  1  0
 21 36  1  0
 21 37  1  0
M  ISO  8  22  14  23  14  24  14  25  14  26  14  27  14  29  13  30  13
M  ISO  7  31  13  32  13  33  13  34  13  35  13  36  13  37  13
M  END
>  <minimizedAffinity>  (1) 
-6.53270149

>  <minimizedRMSD>  (1) 
0.14919892

$$$$
