
     RDKit          3D

 42 44  0  0  1  0  0  0  0  0999 V2000
   33.1920   27.2980   45.8550 C   0  0  1  0  0  0  0  0  0  0  0  0
   33.9200   27.4500   47.2090 C   0  0  2  0  0  0  0  0  0  0  0  0
   33.7680   26.2250   47.7810 O   0  0  0  0  0  0  0  0  0  0  0  0
   34.0740   25.3310   46.7690 C   0  0  0  0  0  0  0  0  0  0  0  0
   33.5600   25.9070   45.4700 C   0  0  2  0  0  0  0  0  0  0  0  0
   31.8360   27.5130   46.0070 O   0  0  0  0  0  0  0  0  0  0  0  0
   33.3000   28.5020   47.8160 O   0  0  0  0  0  0  0  0  0  0  0  0
   35.3550   29.7960   46.7800 O   0  0  0  0  0  0  0  0  0  0  0  0
   34.0910   29.9740   47.6070 P   0  0  1  0  0  0  0  0  0  0  0  0
   33.1190   31.0360   46.7140 O   0  0  0  0  0  0  0  0  0  0  0  0
   34.3950   30.5990   49.1630 O   0  0  0  0  0  0  0  0  0  0  0  0
   35.6210   30.4920   49.7800 C   0  0  0  0  0  0  0  0  0  0  0  0
   35.9560   29.4780   50.7050 C   0  0  0  0  0  0  0  0  0  0  0  0
   37.2370   29.4960   51.2490 C   0  0  0  0  0  0  0  0  0  0  0  0
   38.0950   30.4840   50.8630 N   0  0  0  0  0  0  0  0  0  0  0  0
   37.7400   31.4470   49.9680 C   0  0  0  0  0  0  0  0  0  0  0  0
   36.4920   31.4470   49.4250 N   0  0  0  0  0  0  0  0  0  0  0  0
   34.5880   25.9250   44.5270 O   0  0  0  0  0  0  0  0  0  0  0  0
   35.0020   24.6510   44.1570 C   0  0  0  0  0  0  0  0  0  0  0  0
   34.3400   24.2470   42.8670 C   0  0  0  0  0  0  0  0  0  0  0  0
   35.4200   24.0210   41.8600 C   0  0  0  0  0  0  0  0  0  0  0  0
   36.7380   23.9950   42.5820 C   0  0  0  0  0  0  0  0  0  0  0  0
   36.4890   24.5700   43.9480 C   0  0  0  0  0  0  0  0  0  0  0  0
   33.4731   28.0238   45.0777 H   0  0  0  0  0  0  0  0  0  0  0  0
   34.9945   27.6854   47.2203 H   0  0  0  0  0  0  0  0  0  0  0  0
   35.1635   25.1910   46.7107 H   0  0  0  0  0  0  0  0  0  0  0  0
   33.6079   24.3543   46.9663 H   0  0  0  0  0  0  0  0  0  0  0  0
   32.7281   25.3400   45.0267 H   0  0  0  0  0  0  0  0  0  0  0  0
   31.6135   27.5483   46.9710 H   0  0  0  0  0  0  0  0  0  0  0  0
   32.5975   31.6058   47.3332 H   0  0  0  0  0  0  0  0  0  0  0  0
   35.2295   28.7011   50.9856 H   0  0  0  0  0  0  0  0  0  0  0  0
   37.5507   28.7306   51.9741 H   0  0  0  0  0  0  0  0  0  0  0  0
   38.4628   32.2259   49.6836 H   0  0  0  0  0  0  0  0  0  0  0  0
   34.7184   23.9798   44.9810 H   0  0  0  0  0  0  0  0  0  0  0  0
   33.7640   23.3215   43.0142 H   0  0  0  0  0  0  0  0  0  0  0  0
   33.6484   25.0307   42.5243 H   0  0  0  0  0  0  0  0  0  0  0  0
   35.4164   24.8358   41.1210 H   0  0  0  0  0  0  0  0  0  0  0  0
   35.2560   23.0687   41.3345 H   0  0  0  0  0  0  0  0  0  0  0  0
   37.1047   22.9613   42.6661 H   0  0  0  0  0  0  0  0  0  0  0  0
   37.4996   24.5746   42.0397 H   0  0  0  0  0  0  0  0  0  0  0  0
   36.9382   23.9203   44.7135 H   0  0  0  0  0  0  0  0  0  0  0  0
   36.9401   25.5700   44.0285 H   0  0  0  0  0  0  0  0  0  0  0  0
  1  6  1  0
  1  2  1  0
  2  3  1  0
  2  7  1  0
  4  3  1  0
  5  1  1  0
  5  4  1  0
  9  8  2  0
  9  7  1  0
  9 11  1  0
 10  9  1  0
 11 12  1  0
 12 13  2  0
 13 14  1  0
 15 14  2  0
 16 15  1  0
 17 12  1  0
 17 16  2  0
 18  5  1  0
 19 18  1  0
 20 19  1  0
 21 22  1  0
 21 20  1  0
 22 23  1  0
 23 19  1  0
  1 24  1  6
  2 25  1  6
  4 26  1  0
  4 27  1  0
  5 28  1  6
  6 29  1  0
 10 30  1  0
 13 31  1  0
 14 32  1  0
 16 33  1  0
 19 34  1  0
 20 35  1  0
 20 36  1  0
 21 37  1  0
 21 38  1  0
 22 39  1  0
 22 40  1  0
 23 41  1  0
 23 42  1  0
M  ISO  8  24  13  25  13  26  13  27  13  28  13  29   3  30   3  31  14
M  ISO  8  32  14  33  14  34  13  35  13  36  13  37  13  38  13  39  13
M  ISO  3  40  13  41  13  42  13
M  END
>  <minimizedAffinity>  (1) 
-4.09771585

>  <minimizedRMSD>  (1) 
1.06804705

$$$$
