
     RDKit          3D

 41 44  0  0  1  0  0  0  0  0999 V2000
   35.8290   29.1310   49.8020 C   0  0  0  0  0  0  0  0  0  0  0  0
   34.7550   29.6010   50.5200 C   0  0  0  0  0  0  0  0  0  0  0  0
   33.6040   29.0050   49.9900 C   0  0  0  0  0  0  0  0  0  0  0  0
   34.0560   28.2000   48.9690 C   0  0  0  0  0  0  0  0  0  0  0  0
   35.3650   28.3040   48.8930 O   0  0  0  0  0  0  0  0  0  0  0  0
   37.1970   29.5430   50.0830 C   0  0  0  0  0  0  0  0  0  0  0  0
   37.8060   29.0140   51.0190 O   0  0  0  0  0  0  0  0  0  0  0  0
   37.7560   30.5590   49.2370 C   0  0  0  0  0  0  0  0  0  0  0  0
   38.1060   31.7580   49.8360 C   0  0  0  0  0  0  0  0  0  0  0  0
   38.6510   32.7700   49.0390 C   0  0  0  0  0  0  0  0  0  0  0  0
   38.8130   32.5210   47.6960 N   0  0  0  0  0  0  0  0  0  0  0  0
   38.4620   31.3490   47.1520 C   0  0  0  0  0  0  0  0  0  0  0  0
   37.9390   30.3740   47.9090 N   0  0  0  0  0  0  0  0  0  0  0  0
   33.2250   27.3590   48.1080 C   0  0  0  0  0  0  0  0  0  0  0  0
   31.9660   27.3430   48.3080 O   0  0  0  0  0  0  0  0  0  0  0  0
   33.8540   26.5350   47.0220 C   0  0  1  0  0  0  0  0  0  0  0  0
   33.7750   25.0090   47.3930 C   0  0  0  0  0  0  0  0  0  0  0  0
   33.0520   25.5950   46.2370 C   0  0  2  0  0  0  0  0  0  0  0  0
   33.5850   25.3330   44.8270 C   0  0  0  0  0  0  0  0  0  0  0  0
   34.9490   24.6800   44.8720 C   0  0  0  0  0  0  0  0  0  0  0  0
   35.4450   25.0200   43.4600 C   0  0  0  0  0  0  0  0  0  0  0  0
   35.2290   26.5380   43.4960 C   0  0  0  0  0  0  0  0  0  0  0  0
   33.8500   26.6400   44.1150 C   0  0  0  0  0  0  0  0  0  0  0  0
   34.7928   30.3140   51.3568 H   0  0  0  0  0  0  0  0  0  0  0  0
   32.5641   29.1489   50.3184 H   0  0  0  0  0  0  0  0  0  0  0  0
   37.9585   31.9109   50.9153 H   0  0  0  0  0  0  0  0  0  0  0  0
   38.9418   33.7376   49.4739 H   0  0  0  0  0  0  0  0  0  0  0  0
   38.6041   31.1846   46.0737 H   0  0  0  0  0  0  0  0  0  0  0  0
   34.5846   27.2991   46.7181 H   0  0  0  0  0  0  0  0  0  0  0  0
   34.6416   24.3506   47.2333 H   0  0  0  0  0  0  0  0  0  0  0  0
   33.5059   24.4209   48.2828 H   0  0  0  0  0  0  0  0  0  0  0  0
   31.9955   25.5369   45.9364 H   0  0  0  0  0  0  0  0  0  0  0  0
   32.8300   24.7068   44.3292 H   0  0  0  0  0  0  0  0  0  0  0  0
   35.5896   25.1229   45.6488 H   0  0  0  0  0  0  0  0  0  0  0  0
   34.9449   23.6082   45.1193 H   0  0  0  0  0  0  0  0  0  0  0  0
   34.8391   24.5345   42.6808 H   0  0  0  0  0  0  0  0  0  0  0  0
   36.4675   24.6907   43.2231 H   0  0  0  0  0  0  0  0  0  0  0  0
   35.9860   27.0356   44.1200 H   0  0  0  0  0  0  0  0  0  0  0  0
   35.3129   27.0234   42.5125 H   0  0  0  0  0  0  0  0  0  0  0  0
   33.8190   27.4735   44.8322 H   0  0  0  0  0  0  0  0  0  0  0  0
   33.0877   26.8279   43.3445 H   0  0  0  0  0  0  0  0  0  0  0  0
  1  6  1  0
  1  2  2  0
  3  2  1  0
  4  3  2  0
  5  4  1  0
  5  1  1  0
  6  7  2  0
  8  9  2  0
  8  6  1  0
 10  9  1  0
 11 10  2  0
 12 11  1  0
 12 13  2  0
 13  8  1  0
 14 15  2  0
 14  4  1  0
 16 17  1  0
 16 14  1  0
 18 16  1  0
 18 17  1  0
 19 20  1  0
 19 18  1  0
 21 22  1  0
 21 20  1  0
 22 23  1  0
 23 19  1  0
  2 24  1  0
  3 25  1  0
  9 26  1  0
 10 27  1  0
 12 28  1  0
 16 29  1  6
 17 30  1  0
 17 31  1  0
 18 32  1  6
 19 33  1  0
 20 34  1  0
 20 35  1  0
 21 36  1  0
 21 37  1  0
 22 38  1  0
 22 39  1  0
 23 40  1  0
 23 41  1  0
M  ISO  8  24  14  25  14  26  14  27  14  28  14  29  13  30  13  31  13
M  ISO  8  32  13  33  13  34  13  35  13  36  13  37  13  38  13  39  13
M  ISO  2  40  13  41  13
M  END
>  <minimizedAffinity>  (1) 
-5.1591754

>  <minimizedRMSD>  (1) 
1.38898838

$$$$
