
     RDKit          3D

 45 49  0  0  1  0  0  0  0  0999 V2000
   35.7060   29.4400   50.6740 C   0  0  0  0  0  0  0  0  0  0  0  0
   36.4810   30.1560   49.7820 C   0  0  0  0  0  0  0  0  0  0  0  0
   36.1900   30.0570   48.4090 C   0  0  0  0  0  0  0  0  0  0  0  0
   35.1450   29.2530   48.0070 N   0  0  0  0  0  0  0  0  0  0  0  0
   34.4270   28.5790   48.9380 C   0  0  0  0  0  0  0  0  0  0  0  0
   34.6850   28.6580   50.2380 N   0  0  0  0  0  0  0  0  0  0  0  0
   36.5650   30.5220   46.0700 C   0  0  0  0  0  0  0  0  0  0  0  0
   36.9390   30.7710   47.4010 C   0  0  0  0  0  0  0  0  0  0  0  0
   37.9550   31.6500   47.6600 C   0  0  0  0  0  0  0  0  0  0  0  0
   38.5850   32.2700   46.6050 C   0  0  0  0  0  0  0  0  0  0  0  0
   39.6000   33.1640   46.6260 N   0  0  0  0  0  0  0  0  0  0  0  0
   39.8800   33.4870   45.3610 C   0  0  0  0  0  0  0  0  0  0  0  0
   39.0750   32.8270   44.5410 N   0  0  0  0  0  0  0  0  0  0  0  0
   38.2540   32.0570   45.2820 C   0  0  0  0  0  0  0  0  0  0  0  0
   37.2320   31.1720   45.0300 C   0  0  0  0  0  0  0  0  0  0  0  0
   33.3290   27.7540   48.4620 C   0  0  0  0  0  0  0  0  0  0  0  0
   33.5030   26.6200   47.9430 O   0  0  0  0  0  0  0  0  0  0  0  0
   31.9160   28.2700   48.5870 C   0  0  1  0  0  0  0  0  0  0  0  0
   30.9140   27.6770   47.5760 C   0  0  0  0  0  0  0  0  0  0  0  0
   30.8410   27.3720   49.0140 C   0  0  2  0  0  0  0  0  0  0  0  0
   29.8170   28.0020   49.9330 C   0  0  0  0  0  0  0  0  0  0  0  0
   28.7810   28.8150   49.2360 C   0  0  0  0  0  0  0  0  0  0  0  0
   27.5010   28.0260   49.2090 C   0  0  0  0  0  0  0  0  0  0  0  0
   27.8060   26.6800   49.8080 C   0  0  0  0  0  0  0  0  0  0  0  0
   29.0210   26.9590   50.6850 C   0  0  0  0  0  0  0  0  0  0  0  0
   35.9188   29.5042   51.7513 H   0  0  0  0  0  0  0  0  0  0  0  0
   37.3072   30.7894   50.1374 H   0  0  0  0  0  0  0  0  0  0  0  0
   35.7498   29.8176   45.8481 H   0  0  0  0  0  0  0  0  0  0  0  0
   38.2635   31.8579   48.6952 H   0  0  0  0  0  0  0  0  0  0  0  0
   40.0715   33.5294   47.4657 H   0  0  0  0  0  0  0  0  0  0  0  0
   40.6614   34.1946   45.0468 H   0  0  0  0  0  0  0  0  0  0  0  0
   36.9346   30.9726   43.9899 H   0  0  0  0  0  0  0  0  0  0  0  0
   32.2485   29.2647   48.9188 H   0  0  0  0  0  0  0  0  0  0  0  0
   30.1547   28.3188   47.1053 H   0  0  0  0  0  0  0  0  0  0  0  0
   30.9834   27.0909   46.6478 H   0  0  0  0  0  0  0  0  0  0  0  0
   30.7573   26.4048   49.5312 H   0  0  0  0  0  0  0  0  0  0  0  0
   30.4337   28.6361   50.5869 H   0  0  0  0  0  0  0  0  0  0  0  0
   28.6241   29.7601   49.7765 H   0  0  0  0  0  0  0  0  0  0  0  0
   29.1062   29.0450   48.2106 H   0  0  0  0  0  0  0  0  0  0  0  0
   26.7284   28.5377   49.8016 H   0  0  0  0  0  0  0  0  0  0  0  0
   27.1227   27.9235   48.1812 H   0  0  0  0  0  0  0  0  0  0  0  0
   26.9605   26.3147   50.4094 H   0  0  0  0  0  0  0  0  0  0  0  0
   27.9879   25.9017   49.0523 H   0  0  0  0  0  0  0  0  0  0  0  0
   29.6161   26.0442   50.8231 H   0  0  0  0  0  0  0  0  0  0  0  0
   28.7344   27.3037   51.6895 H   0  0  0  0  0  0  0  0  0  0  0  0
  2  1  2  0
  3  2  1  0
  4  3  2  0
  4  5  1  0
  5  6  2  0
  6  1  1  0
  7  8  2  0
  8  9  1  0
  8  3  1  0
 10 11  1  0
 10  9  2  0
 12 11  1  0
 13 14  1  0
 13 12  2  0
 14 10  1  0
 15 14  2  0
 15  7  1  0
 16 18  1  0
 16  5  1  0
 17 16  2  0
 18 20  1  0
 19 18  1  0
 19 20  1  0
 20 21  1  0
 21 25  1  0
 22 21  1  0
 23 22  1  0
 23 24  1  0
 24 25  1  0
  1 26  1  0
  2 27  1  0
  7 28  1  0
  9 29  1  0
 11 30  1  0
 12 31  1  0
 15 32  1  0
 18 33  1  1
 19 34  1  0
 19 35  1  0
 20 36  1  6
 21 37  1  0
 22 38  1  0
 22 39  1  0
 23 40  1  0
 23 41  1  0
 24 42  1  0
 24 43  1  0
 25 44  1  0
 25 45  1  0
M  ISO  8  26  14  27  14  28  14  29  14  30   9  31  14  32  14  33  13
M  ISO  8  34  13  35  13  36  13  37  13  38  13  39  13  40  13  41  13
M  ISO  4  42  13  43  13  44  13  45  13
M  END
>  <minimizedAffinity>  (1) 
-6.93025589

>  <minimizedRMSD>  (1) 
0.806856394

$$$$
