
     RDKit          3D

 30 32  0  0  0  0  0  0  0  0999 V2000
   35.6240   30.2530   48.0540 C   0  0  0  0  0  0  0  0  0  0  0  0
   36.8270   30.8410   47.6530 C   0  0  0  0  0  0  0  0  0  0  0  0
   37.0580   30.8700   46.2860 C   0  0  0  0  0  0  0  0  0  0  0  0
   36.1450   30.3500   45.4280 N   0  0  0  0  0  0  0  0  0  0  0  0
   34.9810   29.7830   45.8480 C   0  0  0  0  0  0  0  0  0  0  0  0
   34.7350   29.7430   47.1660 N   0  0  0  0  0  0  0  0  0  0  0  0
   35.3190   30.3070   49.5280 C   0  0  0  0  0  0  0  0  0  0  0  0
   34.2780   29.4980   50.1130 C   0  0  0  0  0  0  0  0  0  0  0  0
   35.6870   28.9770   50.2130 C   0  0  0  0  0  0  0  0  0  0  0  0
   37.9080   31.4200   48.4780 C   0  0  0  0  0  0  0  0  0  0  0  0
   38.7450   32.3680   47.6530 C   0  0  0  0  0  0  0  0  0  0  0  0
   39.2480   33.3760   48.6490 C   0  0  0  0  0  0  0  0  0  0  0  0
   37.9530   33.6420   49.4230 C   0  0  0  0  0  0  0  0  0  0  0  0
   37.4200   32.2320   49.6270 C   0  0  0  0  0  0  0  0  0  0  0  0
   37.9847   31.3162   45.8960 H   0  0  0  0  0  0  0  0  0  0  0  0
   34.2616   29.3689   45.1262 H   0  0  0  0  0  0  0  0  0  0  0  0
   35.5257   31.3833   49.6227 H   0  0  0  0  0  0  0  0  0  0  0  0
   33.7647   29.8490   51.0204 H   0  0  0  0  0  0  0  0  0  0  0  0
   33.3373   29.0762   49.7294 H   0  0  0  0  0  0  0  0  0  0  0  0
   36.0065   28.1100   49.6162 H   0  0  0  0  0  0  0  0  0  0  0  0
   36.3632   28.6550   51.0187 H   0  0  0  0  0  0  0  0  0  0  0  0
   38.4700   30.5501   48.8488 H   0  0  0  0  0  0  0  0  0  0  0  0
   39.5830   31.8367   47.1782 H   0  0  0  0  0  0  0  0  0  0  0  0
   38.1744   32.8318   46.8349 H   0  0  0  0  0  0  0  0  0  0  0  0
   40.0328   32.9564   49.2956 H   0  0  0  0  0  0  0  0  0  0  0  0
   39.7215   34.2674   48.2118 H   0  0  0  0  0  0  0  0  0  0  0  0
   38.1550   34.1372   50.3842 H   0  0  0  0  0  0  0  0  0  0  0  0
   37.2527   34.3132   48.9042 H   0  0  0  0  0  0  0  0  0  0  0  0
   36.3202   32.2413   49.6448 H   0  0  0  0  0  0  0  0  0  0  0  0
   37.7659   31.8126   50.5833 H   0  0  0  0  0  0  0  0  0  0  0  0
  1  7  1  0
  2  1  1  0
  2 10  1  0
  3  2  2  0
  4  5  2  0
  4  3  1  0
  5  6  1  0
  6  1  2  0
  7  8  1  0
  7  9  1  0
  8  9  1  0
 10 14  1  0
 11 10  1  0
 11 12  1  0
 12 13  1  0
 13 14  1  0
  3 15  1  0
  5 16  1  0
  7 17  1  0
  8 18  1  0
  8 19  1  0
  9 20  1  0
  9 21  1  0
 10 22  1  0
 11 23  1  0
 11 24  1  0
 12 25  1  0
 12 26  1  0
 13 27  1  0
 13 28  1  0
 14 29  1  0
 14 30  1  0
M  ISO  8  15  14  16  14  17  13  18  13  19  13  20  13  21  13  22  13
M  ISO  8  23  13  24  13  25  13  26  13  27  13  28  13  29  13  30  13
M  END
>  <minimizedAffinity>  (1) 
-5.22173786

>  <minimizedRMSD>  (1) 
3.23252845

$$$$
