
     RDKit          3D

 35 37  0  0  0  0  0  0  0  0999 V2000
   35.5180   29.1380   50.3920 C   0  0  0  0  0  0  0  0  0  0  0  0
   36.3510   30.1030   49.7560 C   0  0  0  0  0  0  0  0  0  0  0  0
   36.2350   30.2590   48.3830 C   0  0  0  0  0  0  0  0  0  0  0  0
   35.3260   29.4770   47.7170 N   0  0  0  0  0  0  0  0  0  0  0  0
   34.5650   28.5920   48.3210 C   0  0  0  0  0  0  0  0  0  0  0  0
   34.6480   28.4110   49.6520 N   0  0  0  0  0  0  0  0  0  0  0  0
   32.7000   30.1680   46.5330 Cl  0  0  0  0  0  0  0  0  0  0  0  0
   32.7000   28.4100   46.6810 C   0  0  0  0  0  0  0  0  0  0  0  0
   33.6110   27.7880   47.5370 C   0  0  0  0  0  0  0  0  0  0  0  0
   33.6600   26.4020   47.6950 C   0  0  0  0  0  0  0  0  0  0  0  0
   32.7310   25.6810   46.9350 C   0  0  0  0  0  0  0  0  0  0  0  0
   31.8350   26.2680   46.0950 C   0  0  0  0  0  0  0  0  0  0  0  0
   30.7280   25.2330   45.2020 Cl  0  0  0  0  0  0  0  0  0  0  0  0
   31.8220   27.6410   45.9700 C   0  0  0  0  0  0  0  0  0  0  0  0
   30.8560   28.2950   45.0590 C   0  0  0  0  0  0  0  0  0  0  0  0
   29.9940   27.3490   44.4990 F   0  0  0  0  0  0  0  0  0  0  0  0
   31.4740   29.0020   44.0560 F   0  0  0  0  0  0  0  0  0  0  0  0
   30.0700   29.1760   45.7650 F   0  0  0  0  0  0  0  0  0  0  0  0
   37.2920   30.8800   50.5990 C   0  0  0  0  0  0  0  0  0  0  0  0
   38.5920   30.7890   50.0990 F   0  0  0  0  0  0  0  0  0  0  0  0
   36.9300   32.2100   50.5390 F   0  0  0  0  0  0  0  0  0  0  0  0
   37.2890   30.5040   51.9190 F   0  0  0  0  0  0  0  0  0  0  0  0
   37.0700   31.2500   47.7070 C   0  0  0  0  0  0  0  0  0  0  0  0
   37.5420   30.7880   46.3720 C   0  0  0  0  0  0  0  0  0  0  0  0
   36.5980   30.6740   45.2900 C   0  0  0  0  0  0  0  0  0  0  0  0
   37.6600   30.1050   43.9050 S   0  0  0  0  0  0  0  0  0  0  0  0
   39.2010   30.1170   45.0290 C   0  0  0  0  0  0  0  0  0  0  0  0
   38.7910   30.4690   46.0570 N   0  0  0  0  0  0  0  0  0  0  0  0
   35.5814   28.9843   51.4794 H   0  0  0  0  0  0  0  0  0  0  0  0
   34.3776   25.9110   48.3688 H   0  0  0  0  0  0  0  0  0  0  0  0
   32.7249   24.5844   47.0211 H   0  0  0  0  0  0  0  0  0  0  0  0
   36.4846   32.1717   47.5739 H   0  0  0  0  0  0  0  0  0  0  0  0
   37.9581   31.4197   48.3335 H   0  0  0  0  0  0  0  0  0  0  0  0
   35.5168   30.8763   45.2929 H   0  0  0  0  0  0  0  0  0  0  0  0
   40.2356   29.8525   44.7653 H   0  0  0  0  0  0  0  0  0  0  0  0
  2  1  2  0
  2 19  1  0
  3  2  1  0
  4  5  1  0
  4  3  2  0
  5  6  2  0
  6  1  1  0
  7  8  1  0
  8  9  2  0
  9 10  1  0
  9  5  1  0
 11 10  2  0
 12 11  1  0
 13 12  1  0
 14 12  2  0
 14  8  1  0
 15 18  1  0
 15 14  1  0
 16 15  1  0
 17 15  1  0
 19 22  1  0
 20 19  1  0
 21 19  1  0
 23  3  1  0
 24 23  1  0
 25 24  2  0
 26 27  1  0
 26 25  1  0
 27 28  2  0
 28 24  1  0
  1 29  1  0
 10 30  1  0
 11 31  1  0
 23 32  1  0
 23 33  1  0
 25 34  1  0
 27 35  1  0
M  ISO  7  29  14  30  14  31  14  32   8  33   8  34  14  35  14
M  END
>  <minimizedAffinity>  (1) 
-6.02482462

>  <minimizedRMSD>  (1) 
0.546597183

$$$$
