
     RDKit          3D

 38 41  0  0  1  0  0  0  0  0999 V2000
   32.3860   27.9180   48.8340 N   0  0  0  0  0  0  0  0  0  0  0  0
   33.2410   27.2100   47.8910 C   0  0  0  0  0  0  0  0  0  0  0  0
   34.5420   27.9500   47.9910 C   0  0  0  0  0  0  0  0  0  0  0  0
   34.2310   29.2080   48.9180 C   0  0  1  0  0  0  0  0  0  0  0  0
   33.2420   28.6120   49.8210 C   0  0  0  0  0  0  0  0  0  0  0  0
   36.0120   30.9340   47.5520 F   0  0  0  0  0  0  0  0  0  0  0  0
   36.2540   30.5090   48.8030 C   0  0  0  0  0  0  0  0  0  0  0  0
   35.4860   29.6400   49.5330 C   0  0  0  0  0  0  0  0  0  0  0  0
   35.9100   29.3220   50.8330 C   0  0  0  0  0  0  0  0  0  0  0  0
   37.0520   29.8480   51.3840 C   0  0  0  0  0  0  0  0  0  0  0  0
   37.8130   30.7330   50.6090 C   0  0  0  0  0  0  0  0  0  0  0  0
   37.4030   31.0630   49.2970 C   0  0  0  0  0  0  0  0  0  0  0  0
   38.2730   32.0140   48.6080 C   0  0  0  0  0  0  0  0  0  0  0  0
   38.8220   31.6150   47.2880 C   0  0  0  0  0  0  0  0  0  0  0  0
   39.8160   32.9780   46.7930 S   0  0  0  0  0  0  0  0  0  0  0  0
   39.4070   33.9460   48.3850 C   0  0  0  0  0  0  0  0  0  0  0  0
   38.5430   33.1720   49.1890 N   0  0  0  0  0  0  0  0  0  0  0  0
   30.9820   27.9690   48.8400 C   0  0  0  0  0  0  0  0  0  0  0  0
   30.3710   28.0650   47.5800 C   0  0  0  0  0  0  0  0  0  0  0  0
   28.9690   28.1250   47.5030 C   0  0  0  0  0  0  0  0  0  0  0  0
   28.2870   28.0840   48.7050 N   0  0  0  0  0  0  0  0  0  0  0  0
   28.9160   27.9920   49.8930 C   0  0  0  0  0  0  0  0  0  0  0  0
   30.2570   27.9350   49.9460 N   0  0  0  0  0  0  0  0  0  0  0  0
   32.8333   27.2638   46.8708 H   0  0  0  0  0  0  0  0  0  0  0  0
   33.3353   26.1369   48.1137 H   0  0  0  0  0  0  0  0  0  0  0  0
   35.3142   27.3141   48.4485 H   0  0  0  0  0  0  0  0  0  0  0  0
   34.9242   28.2488   47.0038 H   0  0  0  0  0  0  0  0  0  0  0  0
   33.8447   30.1275   48.4540 H   0  0  0  0  0  0  0  0  0  0  0  0
   32.6840   29.3780   50.3795 H   0  0  0  0  0  0  0  0  0  0  0  0
   33.6598   27.9680   50.6089 H   0  0  0  0  0  0  0  0  0  0  0  0
   35.3048   28.6257   51.4321 H   0  0  0  0  0  0  0  0  0  0  0  0
   37.3610   29.5820   52.4056 H   0  0  0  0  0  0  0  0  0  0  0  0
   38.7326   31.1725   51.0228 H   0  0  0  0  0  0  0  0  0  0  0  0
   38.6463   30.6765   46.7417 H   0  0  0  0  0  0  0  0  0  0  0  0
   39.7845   34.9481   48.6364 H   0  0  0  0  0  0  0  0  0  0  0  0
   30.9812   28.0929   46.6652 H   0  0  0  0  0  0  0  0  0  0  0  0
   28.4433   28.2004   46.5397 H   0  0  0  0  0  0  0  0  0  0  0  0
   28.3292   27.9635   50.8230 H   0  0  0  0  0  0  0  0  0  0  0  0
  1 18  1  0
  1  5  1  0
  2  3  1  0
  2  1  1  0
  3  4  1  0
  4  8  1  0
  4  5  1  0
  6  7  1  0
  7 12  2  0
  7  8  1  0
  8  9  2  0
  9 10  1  0
 11 10  2  0
 12 11  1  0
 13 17  1  0
 13 12  1  0
 14 13  2  0
 15 14  1  0
 15 16  1  0
 16 17  2  0
 18 23  1  0
 19 18  2  0
 20 19  1  0
 20 21  2  0
 21 22  1  0
 22 23  2  0
  2 24  1  0
  2 25  1  0
  3 26  1  0
  3 27  1  0
  4 28  1  6
  5 29  1  0
  5 30  1  0
  9 31  1  0
 10 32  1  0
 11 33  1  0
 14 34  1  0
 16 35  1  0
 19 36  1  0
 20 37  1  0
 22 38  1  0
M  ISO  8  24  13  25  13  26  13  27  13  28  13  29  13  30  13  31  14
M  ISO  7  32  14  33  14  34  14  35  14  36  14  37  14  38  14
M  END
>  <minimizedAffinity>  (1) 
-6.56915903

>  <minimizedRMSD>  (1) 
3.09380984

$$$$
