
     RDKit          3D

 37 40  0  0  0  0  0  0  0  0999 V2000
   35.4780   28.8840   49.1870 C   0  0  0  0  0  0  0  0  0  0  0  0
   35.4020   30.0790   48.4320 C   0  0  0  0  0  0  0  0  0  0  0  0
   34.3020   30.2370   47.5740 C   0  0  0  0  0  0  0  0  0  0  0  0
   33.3750   29.2470   47.5120 N   0  0  0  0  0  0  0  0  0  0  0  0
   33.4880   28.1200   48.2520 C   0  0  0  0  0  0  0  0  0  0  0  0
   34.5410   27.9280   49.0970 N   0  0  0  0  0  0  0  0  0  0  0  0
   36.4320   31.0340   48.5830 N   0  0  0  0  0  0  0  0  0  0  0  0
   36.6020   31.7220   49.7060 C   0  0  0  0  0  0  0  0  0  0  0  0
   37.6440   32.6500   49.7840 C   0  0  0  0  0  0  0  0  0  0  0  0
   38.4100   32.7690   48.6720 C   0  0  0  0  0  0  0  0  0  0  0  0
   39.3610   33.6130   48.7370 O   0  0  0  0  0  0  0  0  0  0  0  0
   38.2720   32.1000   47.5330 N   0  0  0  0  0  0  0  0  0  0  0  0
   37.2510   31.2100   47.4970 C   0  0  0  0  0  0  0  0  0  0  0  0
   37.1000   30.5580   46.4140 O   0  0  0  0  0  0  0  0  0  0  0  0
   32.5240   27.0940   48.1800 O   0  0  0  0  0  0  0  0  0  0  0  0
   31.2010   27.5050   48.2810 C   0  0  0  0  0  0  0  0  0  0  0  0
   30.7950   27.7710   49.5790 C   0  0  0  0  0  0  0  0  0  0  0  0
   29.5270   28.1910   49.8850 C   0  0  0  0  0  0  0  0  0  0  0  0
   28.6300   28.3510   48.8420 C   0  0  0  0  0  0  0  0  0  0  0  0
   29.0380   28.0870   47.5620 C   0  0  0  0  0  0  0  0  0  0  0  0
   30.3180   27.6600   47.2390 C   0  0  0  0  0  0  0  0  0  0  0  0
   30.7200   27.3900   45.8590 C   0  0  0  0  0  0  0  0  0  0  0  0
   30.6830   26.1250   45.2930 C   0  0  0  0  0  0  0  0  0  0  0  0
   31.2530   26.4230   43.5650 S   0  0  0  0  0  0  0  0  0  0  0  0
   31.4480   28.2840   43.9290 C   0  0  0  0  0  0  0  0  0  0  0  0
   31.1190   28.3530   45.0570 N   0  0  0  0  0  0  0  0  0  0  0  0
   36.3297   28.7349   49.8670 H   0  0  0  0  0  0  0  0  0  0  0  0
   34.1933   31.1456   46.9636 H   0  0  0  0  0  0  0  0  0  0  0  0
   35.9315   31.5636   50.5635 H   0  0  0  0  0  0  0  0  0  0  0  0
   37.8306   33.2457   50.6897 H   0  0  0  0  0  0  0  0  0  0  0  0
   38.8998   32.2480   46.7299 H   0  0  0  0  0  0  0  0  0  0  0  0
   31.5195   27.6398   50.3963 H   0  0  0  0  0  0  0  0  0  0  0  0
   29.2313   28.3944   50.9248 H   0  0  0  0  0  0  0  0  0  0  0  0
   27.6012   28.6864   49.0398 H   0  0  0  0  0  0  0  0  0  0  0  0
   28.3123   28.2205   46.7462 H   0  0  0  0  0  0  0  0  0  0  0  0
   30.3859   25.1748   45.7609 H   0  0  0  0  0  0  0  0  0  0  0  0
   31.7825   29.0879   43.2567 H   0  0  0  0  0  0  0  0  0  0  0  0
  2  7  1  0
  2  1  2  0
  3  2  1  0
  4  3  2  0
  4  5  1  0
  5  6  2  0
  6  1  1  0
  7  8  1  0
  8  9  2  0
 10 11  2  0
 10  9  1  0
 12 10  1  0
 13 12  1  0
 13  7  1  0
 14 13  2  0
 15  5  1  0
 15 16  1  0
 16 17  2  0
 17 18  1  0
 19 18  2  0
 20 19  1  0
 21 20  2  0
 21 16  1  0
 22 21  1  0
 23 22  2  0
 24 25  1  0
 24 23  1  0
 25 26  2  0
 26 22  1  0
  1 27  1  0
  3 28  1  0
  8 29  1  0
  9 30  1  0
 12 31  1  0
 17 32  1  0
 18 33  1  0
 19 34  1  0
 20 35  1  0
 23 36  1  0
 25 37  1  0
M  ISO  8  27  14  28  14  29  14  30  14  31   9  32  14  33  14  34  14
M  ISO  3  35  14  36  14  37  14
M  END
>  <minimizedAffinity>  (1) 
-5.75767326

>  <minimizedRMSD>  (1) 
0.279540271

$$$$
