
     RDKit          3D

 45 48  0  0  0  0  0  0  0  0999 V2000
   38.1820   28.2110   51.2920 C   0  0  0  0  0  0  0  0  0  0  0  0
   37.1520   29.2850   51.5710 C   0  0  0  0  0  0  0  0  0  0  0  0
   37.4700   30.5100   51.0740 C   0  0  0  0  0  0  0  0  0  0  0  0
   37.4820   30.1820   49.7470 O   0  0  0  0  0  0  0  0  0  0  0  0
   38.0750   31.0490   48.8560 C   0  0  0  0  0  0  0  0  0  0  0  0
   38.3560   32.2710   49.4170 C   0  0  0  0  0  0  0  0  0  0  0  0
   38.9640   33.2560   48.6230 C   0  0  0  0  0  0  0  0  0  0  0  0
   39.2370   32.9230   47.3260 N   0  0  0  0  0  0  0  0  0  0  0  0
   38.9460   31.7050   46.8010 C   0  0  0  0  0  0  0  0  0  0  0  0
   38.3630   30.7810   47.5870 N   0  0  0  0  0  0  0  0  0  0  0  0
   39.8500   32.5920   44.7690 C   0  0  0  0  0  0  0  0  0  0  0  0
   40.0780   33.7190   45.2800 O   0  0  0  0  0  0  0  0  0  0  0  0
   39.2760   31.4740   45.4370 N   0  0  0  0  0  0  0  0  0  0  0  0
   38.6760   27.2740   52.7320 S   0  0  0  0  0  0  0  0  0  0  0  0
   40.5700   25.2430   53.3250 C   0  0  0  0  0  0  0  0  0  0  0  0
   39.8530   26.0070   52.4090 C   0  0  0  0  0  0  0  0  0  0  0  0
   40.1080   25.7210   51.0720 C   0  0  0  0  0  0  0  0  0  0  0  0
   40.9920   24.7690   50.6510 C   0  0  0  0  0  0  0  0  0  0  0  0
   41.4080   24.3130   49.4840 N   0  0  0  0  0  0  0  0  0  0  0  0
   42.3310   23.3220   49.6170 C   0  0  0  0  0  0  0  0  0  0  0  0
   42.4960   23.1560   50.9890 C   0  0  0  0  0  0  0  0  0  0  0  0
   41.6610   24.0570   51.6060 C   0  0  0  0  0  0  0  0  0  0  0  0
   41.4650   24.2800   52.9380 C   0  0  0  0  0  0  0  0  0  0  0  0
   42.1930   23.5050   53.9380 C   0  0  0  0  0  0  0  0  0  0  0  0
   41.6780   22.3230   54.5280 C   0  0  0  0  0  0  0  0  0  0  0  0
   43.0710   21.8180   55.7070 S   0  0  0  0  0  0  0  0  0  0  0  0
   44.0730   23.3310   55.1500 C   0  0  0  0  0  0  0  0  0  0  0  0
   43.3870   23.7990   54.4050 N   0  0  0  0  0  0  0  0  0  0  0  0
   37.7602   27.5124   50.5544 H   0  0  0  0  0  0  0  0  0  0  0  0
   39.0829   28.7257   50.9267 H   0  0  0  0  0  0  0  0  0  0  0  0
   36.1970   28.9701   51.1252 H   0  0  0  0  0  0  0  0  0  0  0  0
   37.0994   29.3935   52.6644 H   0  0  0  0  0  0  0  0  0  0  0  0
   36.7061   31.2657   51.3091 H   0  0  0  0  0  0  0  0  0  0  0  0
   38.3915   30.9648   51.4663 H   0  0  0  0  0  0  0  0  0  0  0  0
   38.1090   32.4740   50.4695 H   0  0  0  0  0  0  0  0  0  0  0  0
   39.2093   34.2497   49.0260 H   0  0  0  0  0  0  0  0  0  0  0  0
   40.1185   32.4588   43.7106 H   0  0  0  0  0  0  0  0  0  0  0  0
   39.1127   30.5705   44.9702 H   0  0  0  0  0  0  0  0  0  0  0  0
   40.4125   25.4186   54.3994 H   0  0  0  0  0  0  0  0  0  0  0  0
   39.5650   26.2962   50.3077 H   0  0  0  0  0  0  0  0  0  0  0  0
   41.0724   24.6668   48.5768 H   0  0  0  0  0  0  0  0  0  0  0  0
   42.8384   22.7700   48.8121 H   0  0  0  0  0  0  0  0  0  0  0  0
   43.1672   22.4397   51.4854 H   0  0  0  0  0  0  0  0  0  0  0  0
   40.7138   21.8255   54.3468 H   0  0  0  0  0  0  0  0  0  0  0  0
   45.0703   23.6605   55.4767 H   0  0  0  0  0  0  0  0  0  0  0  0
  1  2  1  0
  1 14  1  0
  3  2  1  0
  4  3  1  0
  5  6  2  0
  5  4  1  0
  7  6  1  0
  8  7  2  0
  9  8  1  0
  9 10  2  0
 10  5  1  0
 11 12  2  0
 11 13  1  0
 13  9  1  0
 16 14  1  0
 16 15  2  0
 17 16  1  0
 18 17  2  0
 18 22  1  0
 19 20  1  0
 19 18  1  0
 20 21  2  0
 21 22  1  0
 22 23  2  0
 23 15  1  0
 23 24  1  0
 24 28  1  0
 24 25  2  0
 25 26  1  0
 27 26  1  0
 28 27  2  0
  1 29  1  0
  1 30  1  0
  2 31  1  0
  2 32  1  0
  3 33  1  0
  3 34  1  0
  6 35  1  0
  7 36  1  0
 11 37  1  0
 13 38  1  0
 15 39  1  0
 17 40  1  0
 19 41  1  0
 20 42  1  0
 21 43  1  0
 25 44  1  0
 27 45  1  0
M  ISO  8  29   8  30   8  31   8  32   8  33   8  34   8  35  14  36  14
M  ISO  8  37   6  39  14  40  14  41   9  42  14  43  14  44  14  45  14
M  END
>  <minimizedAffinity>  (1) 
-4.33903217

>  <minimizedRMSD>  (1) 
0.504015148

$$$$
