
     RDKit          3D

 23 24  0  0  0  0  0  0  0  0999 V2000
   33.7560   28.6540   48.8790 C   0  0  0  0  0  0  0  0  0  0  0  0
   33.0070   27.4860   48.2810 C   0  0  0  0  0  0  0  0  0  0  0  0
   31.5520   27.7530   48.5710 C   0  0  0  0  0  0  0  0  0  0  0  0
   30.8130   28.1060   47.3650 C   0  0  0  0  0  0  0  0  0  0  0  0
   29.0970   28.3760   47.9890 S   0  0  0  0  0  0  0  0  0  0  0  0
   29.6690   27.9700   49.7550 C   0  0  0  0  0  0  0  0  0  0  0  0
   30.7690   27.7520   49.6320 N   0  0  0  0  0  0  0  0  0  0  0  0
   34.7190   28.1990   49.7980 O   0  0  0  0  0  0  0  0  0  0  0  0
   37.2830   30.2300   51.3800 C   0  0  0  0  0  0  0  0  0  0  0  0
   37.9670   30.6690   50.2330 C   0  0  0  0  0  0  0  0  0  0  0  0
   37.5170   30.2480   48.9860 C   0  0  0  0  0  0  0  0  0  0  0  0
   36.4260   29.4270   48.9590 N   0  0  0  0  0  0  0  0  0  0  0  0
   35.7950   29.0270   50.0860 C   0  0  0  0  0  0  0  0  0  0  0  0
   36.2350   29.4370   51.2800 N   0  0  0  0  0  0  0  0  0  0  0  0
   33.0446   29.3144   49.3964 H   0  0  0  0  0  0  0  0  0  0  0  0
   34.2634   29.2037   48.0725 H   0  0  0  0  0  0  0  0  0  0  0  0
   33.3262   26.5434   48.7497 H   0  0  0  0  0  0  0  0  0  0  0  0
   33.1977   27.3868   47.2022 H   0  0  0  0  0  0  0  0  0  0  0  0
   31.1870   28.1908   46.3340 H   0  0  0  0  0  0  0  0  0  0  0  0
   29.0702   27.9519   50.6775 H   0  0  0  0  0  0  0  0  0  0  0  0
   37.6269   30.5525   52.3739 H   0  0  0  0  0  0  0  0  0  0  0  0
   38.8404   31.3320   50.3199 H   0  0  0  0  0  0  0  0  0  0  0  0
   38.0193   30.5634   48.0596 H   0  0  0  0  0  0  0  0  0  0  0  0
  1  8  1  0
  2  3  1  0
  2  1  1  0
  3  7  1  0
  4  5  1  0
  4  3  2  0
  5  6  1  0
  7  6  2  0
  8 13  1  0
 10  9  2  0
 11 10  1  0
 12 11  2  0
 12 13  1  0
 13 14  2  0
 14  9  1  0
  1 15  1  0
  1 16  1  0
  2 17  1  0
  2 18  1  0
  4 19  1  0
  6 20  1  0
  9 21  1  0
 10 22  1  0
 11 23  1  0
M  ISO  8  15   8  16   8  17   8  18   8  19  14  20  14  21  14  22  14
M  ISO  1  23  14
M  END
>  <minimizedAffinity>  (1) 
-4.22905445

>  <minimizedRMSD>  (1) 
2.65635395

$$$$
