
     RDKit          3D

 32 34  0  0  0  0  0  0  0  0999 V2000
   38.2920   31.9480   46.3460 C   0  0  0  0  0  0  0  0  0  0  0  0
   38.0270   32.3090   47.6400 C   0  0  0  0  0  0  0  0  0  0  0  0
   38.8690   33.1850   48.2860 C   0  0  0  0  0  0  0  0  0  0  0  0
   39.9790   33.6960   47.6250 C   0  0  0  0  0  0  0  0  0  0  0  0
   40.2310   33.3190   46.3160 C   0  0  0  0  0  0  0  0  0  0  0  0
   39.3770   32.4350   45.6710 C   0  0  0  0  0  0  0  0  0  0  0  0
   39.6170   32.0110   44.2690 C   0  0  0  0  0  0  0  0  0  0  0  0
   39.0350   32.7880   43.1790 C   0  0  0  0  0  0  0  0  0  0  0  0
   39.6270   31.8540   41.7230 S   0  0  0  0  0  0  0  0  0  0  0  0
   40.5480   30.5860   42.8010 C   0  0  0  0  0  0  0  0  0  0  0  0
   40.3360   30.9570   43.9360 N   0  0  0  0  0  0  0  0  0  0  0  0
   36.6330   30.2920   45.2190 N   0  0  0  0  0  0  0  0  0  0  0  0
   37.3700   31.0230   45.7280 C   0  0  0  0  0  0  0  0  0  0  0  0
   36.9710   31.8810   48.4050 O   0  0  0  0  0  0  0  0  0  0  0  0
   37.0720   31.0040   49.4560 C   0  0  0  0  0  0  0  0  0  0  0  0
   36.3290   29.8470   49.2280 C   0  0  0  0  0  0  0  0  0  0  0  0
   36.2970   28.8400   50.1650 C   0  0  0  0  0  0  0  0  0  0  0  0
   37.0280   29.0390   51.3160 N   0  0  0  0  0  0  0  0  0  0  0  0
   37.7400   30.1640   51.5160 C   0  0  0  0  0  0  0  0  0  0  0  0
   37.7570   31.1230   50.6020 N   0  0  0  0  0  0  0  0  0  0  0  0
   34.2380   29.0890   48.2080 C   0  0  0  0  0  0  0  0  0  0  0  0
   33.5020   28.7020   49.2010 O   0  0  0  0  0  0  0  0  0  0  0  0
   35.5840   29.5470   48.0830 N   0  0  0  0  0  0  0  0  0  0  0  0
   38.6633   33.4805   49.3254 H   0  0  0  0  0  0  0  0  0  0  0  0
   40.6543   34.3963   48.1384 H   0  0  0  0  0  0  0  0  0  0  0  0
   41.1083   33.7204   45.7875 H   0  0  0  0  0  0  0  0  0  0  0  0
   38.4092   33.6916   43.2220 H   0  0  0  0  0  0  0  0  0  0  0  0
   41.1367   29.7173   42.4712 H   0  0  0  0  0  0  0  0  0  0  0  0
   35.7158   27.9202   50.0031 H   0  0  0  0  0  0  0  0  0  0  0  0
   38.3129   30.2881   52.4468 H   0  0  0  0  0  0  0  0  0  0  0  0
   33.7067   29.0577   47.2453 H   0  0  0  0  0  0  0  0  0  0  0  0
   36.0065   29.6565   47.1500 H   0  0  0  0  0  0  0  0  0  0  0  0
  1  2  2  0
  2  3  1  0
  2 14  1  0
  4  3  2  0
  5  4  1  0
  6  5  2  0
  6  1  1  0
  7  6  1  0
  8  7  2  0
  9 10  1  0
  9  8  1  0
 10 11  2  0
 11  7  1  0
 12 13  3  0
 13  1  1  0
 14 15  1  0
 15 20  1  0
 16 15  2  0
 16 17  1  0
 17 18  2  0
 18 19  1  0
 20 19  2  0
 21 22  2  0
 23 21  1  0
 23 16  1  0
  3 24  1  0
  4 25  1  0
  5 26  1  0
  8 27  1  0
 10 28  1  0
 17 29  1  0
 19 30  1  0
 21 31  1  0
 23 32  1  0
M  ISO  8  24  14  25  14  26  14  27  14  28  14  29  14  30  14  31   6
M  END
>  <minimizedAffinity>  (1) 
-5.22393274

>  <minimizedRMSD>  (1) 
1.59854019

$$$$
