
     RDKit          3D

 26 28  0  0  0  0  0  0  0  0999 V2000
   38.1660   31.1300   48.2500 Cl  0  0  0  0  0  0  0  0  0  0  0  0
   37.0130   30.6920   47.0060 C   0  0  0  0  0  0  0  0  0  0  0  0
   35.8390   30.0860   47.3470 C   0  0  0  0  0  0  0  0  0  0  0  0
   35.0110   29.7860   46.3020 C   0  0  0  0  0  0  0  0  0  0  0  0
   35.2770   30.0450   44.9920 C   0  0  0  0  0  0  0  0  0  0  0  0
   36.4660   30.6540   44.6980 C   0  0  0  0  0  0  0  0  0  0  0  0
   37.3600   30.9910   45.7010 C   0  0  0  0  0  0  0  0  0  0  0  0
   36.2560   29.1090   50.9830 C   0  0  0  0  0  0  0  0  0  0  0  0
   36.5380   29.3630   49.6380 C   0  0  0  0  0  0  0  0  0  0  0  0
   35.5690   29.8160   48.7420 C   0  0  0  0  0  0  0  0  0  0  0  0
   34.3300   29.9910   49.2770 N   0  0  0  0  0  0  0  0  0  0  0  0
   34.0500   29.7500   50.5670 C   0  0  0  0  0  0  0  0  0  0  0  0
   35.0110   29.3120   51.4080 N   0  0  0  0  0  0  0  0  0  0  0  0
   38.6530   31.6500   45.4070 C   0  0  0  0  0  0  0  0  0  0  0  0
   39.8610   30.8910   45.4910 C   0  0  0  0  0  0  0  0  0  0  0  0
   41.1450   32.0830   45.0600 S   0  0  0  0  0  0  0  0  0  0  0  0
   39.8420   33.4490   44.8280 C   0  0  0  0  0  0  0  0  0  0  0  0
   38.8910   32.9010   45.0600 N   0  0  0  0  0  0  0  0  0  0  0  0
   34.0544   29.2968   46.5377 H   0  0  0  0  0  0  0  0  0  0  0  0
   34.5629   29.7748   44.2002 H   0  0  0  0  0  0  0  0  0  0  0  0
   36.7157   30.8792   43.6507 H   0  0  0  0  0  0  0  0  0  0  0  0
   37.0384   28.7525   51.6690 H   0  0  0  0  0  0  0  0  0  0  0  0
   37.5624   29.1997   49.2719 H   0  0  0  0  0  0  0  0  0  0  0  0
   33.0286   29.9107   50.9425 H   0  0  0  0  0  0  0  0  0  0  0  0
   39.9799   29.8300   45.7560 H   0  0  0  0  0  0  0  0  0  0  0  0
   39.9839   34.5014   44.5412 H   0  0  0  0  0  0  0  0  0  0  0  0
  2  3  2  0
  2  1  1  0
  3 10  1  0
  4  3  1  0
  5  4  2  0
  6  5  1  0
  6  7  2  0
  7  2  1  0
  8 13  2  0
  9  8  1  0
 10 11  1  0
 10  9  2  0
 11 12  2  0
 12 13  1  0
 14 15  2  0
 14  7  1  0
 16 15  1  0
 17 18  2  0
 17 16  1  0
 18 14  1  0
  4 19  1  0
  5 20  1  0
  6 21  1  0
  8 22  1  0
  9 23  1  0
 12 24  1  0
 15 25  1  0
 17 26  1  0
M  ISO  8  19  14  20  14  21  14  22  14  23  14  24  14  25  14  26  14
M  END
>  <minimizedAffinity>  (1) 
-4.94242811

>  <minimizedRMSD>  (1) 
3.29086137

$$$$
