
     RDKit          3D

 26 28  0  0  0  0  0  0  0  0999 V2000
   37.7440   32.5420   49.5390 C   0  0  0  0  0  0  0  0  0  0  0  0
   38.5080   32.8220   48.3990 C   0  0  0  0  0  0  0  0  0  0  0  0
   38.1920   32.1110   47.2310 C   0  0  0  0  0  0  0  0  0  0  0  0
   37.1870   31.2210   47.2920 N   0  0  0  0  0  0  0  0  0  0  0  0
   36.4650   30.9670   48.4010 C   0  0  0  0  0  0  0  0  0  0  0  0
   36.7580   31.6380   49.5180 N   0  0  0  0  0  0  0  0  0  0  0  0
   36.7370   28.7960   50.4040 Cl  0  0  0  0  0  0  0  0  0  0  0  0
   35.4340   28.9220   49.2530 C   0  0  0  0  0  0  0  0  0  0  0  0
   35.3980   29.9770   48.3570 C   0  0  0  0  0  0  0  0  0  0  0  0
   34.3950   30.1120   47.4390 C   0  0  0  0  0  0  0  0  0  0  0  0
   33.3710   29.1800   47.3840 C   0  0  0  0  0  0  0  0  0  0  0  0
   33.3690   28.1140   48.2600 C   0  0  0  0  0  0  0  0  0  0  0  0
   32.1520   26.8500   48.3250 Cl  0  0  0  0  0  0  0  0  0  0  0  0
   34.3990   28.0220   49.1640 C   0  0  0  0  0  0  0  0  0  0  0  0
   38.9470   32.3410   45.9750 C   0  0  0  0  0  0  0  0  0  0  0  0
   38.2660   32.5260   44.7690 C   0  0  0  0  0  0  0  0  0  0  0  0
   39.6380   32.7660   43.5470 S   0  0  0  0  0  0  0  0  0  0  0  0
   40.9130   32.5630   44.9400 C   0  0  0  0  0  0  0  0  0  0  0  0
   40.2760   32.3950   45.8500 N   0  0  0  0  0  0  0  0  0  0  0  0
   37.9600   33.0786   50.4746 H   0  0  0  0  0  0  0  0  0  0  0  0
   39.3187   33.5652   48.4183 H   0  0  0  0  0  0  0  0  0  0  0  0
   34.4004   30.9628   46.7418 H   0  0  0  0  0  0  0  0  0  0  0  0
   32.5634   29.2895   46.6453 H   0  0  0  0  0  0  0  0  0  0  0  0
   34.3953   27.1723   49.8626 H   0  0  0  0  0  0  0  0  0  0  0  0
   37.1808   32.5285   44.5891 H   0  0  0  0  0  0  0  0  0  0  0  0
   42.0103   32.6008   44.8721 H   0  0  0  0  0  0  0  0  0  0  0  0
  2  1  2  0
  3  4  2  0
  3  2  1  0
  4  5  1  0
  5  6  2  0
  6  1  1  0
  8  7  1  0
  9  5  1  0
  9  8  2  0
 10  9  1  0
 11 10  2  0
 11 12  1  0
 12 13  1  0
 12 14  2  0
 14  8  1  0
 15  3  1  0
 16 15  2  0
 17 16  1  0
 17 18  1  0
 18 19  2  0
 19 15  1  0
  1 20  1  0
  2 21  1  0
 10 22  1  0
 11 23  1  0
 14 24  1  0
 16 25  1  0
 18 26  1  0
M  ISO  7  20  14  21  14  22  14  23  14  24  14  25  14  26  14
M  END
>  <minimizedAffinity>  (1) 
-6.24874735

>  <minimizedRMSD>  (1) 
1.01843512

$$$$
