
     RDKit          3D

 39 42  0  0  0  0  0  0  0  0999 V2000
   35.1460   29.3180   50.4610 C   0  0  0  0  0  0  0  0  0  0  0  0
   36.1330   30.0700   49.7860 C   0  0  0  0  0  0  0  0  0  0  0  0
   36.0530   30.1770   48.4060 C   0  0  0  0  0  0  0  0  0  0  0  0
   35.0140   29.5400   47.7820 N   0  0  0  0  0  0  0  0  0  0  0  0
   34.0980   28.8390   48.4310 C   0  0  0  0  0  0  0  0  0  0  0  0
   34.1580   28.7250   49.7590 N   0  0  0  0  0  0  0  0  0  0  0  0
   36.6340   30.6110   46.1700 C   0  0  0  0  0  0  0  0  0  0  0  0
   36.9050   30.9190   47.5150 C   0  0  0  0  0  0  0  0  0  0  0  0
   37.9340   31.8130   47.6490 C   0  0  0  0  0  0  0  0  0  0  0  0
   38.6230   32.3500   46.5890 C   0  0  0  0  0  0  0  0  0  0  0  0
   39.6400   33.2280   46.5970 N   0  0  0  0  0  0  0  0  0  0  0  0
   39.9780   33.4510   45.3190 C   0  0  0  0  0  0  0  0  0  0  0  0
   39.1890   32.7270   44.5320 N   0  0  0  0  0  0  0  0  0  0  0  0
   38.3280   32.0250   45.2830 C   0  0  0  0  0  0  0  0  0  0  0  0
   37.3030   31.1280   45.0810 C   0  0  0  0  0  0  0  0  0  0  0  0
   32.7050   30.5620   46.3700 Cl  0  0  0  0  0  0  0  0  0  0  0  0
   32.3170   28.8780   46.6950 C   0  0  0  0  0  0  0  0  0  0  0  0
   33.0280   28.1860   47.6680 C   0  0  0  0  0  0  0  0  0  0  0  0
   32.7610   26.8400   47.9660 C   0  0  0  0  0  0  0  0  0  0  0  0
   31.7400   26.2410   47.2260 C   0  0  0  0  0  0  0  0  0  0  0  0
   31.0310   26.9010   46.2690 C   0  0  0  0  0  0  0  0  0  0  0  0
   29.7770   26.0410   45.4120 Cl  0  0  0  0  0  0  0  0  0  0  0  0
   31.3290   28.2340   46.0070 C   0  0  0  0  0  0  0  0  0  0  0  0
   30.5650   28.9680   44.9670 C   0  0  0  0  0  0  0  0  0  0  0  0
   29.5250   28.1720   44.4780 F   0  0  0  0  0  0  0  0  0  0  0  0
   31.3510   29.4180   43.9550 F   0  0  0  0  0  0  0  0  0  0  0  0
   29.9390   30.0700   45.5530 F   0  0  0  0  0  0  0  0  0  0  0  0
   37.2010   30.7440   50.5690 C   0  0  0  0  0  0  0  0  0  0  0  0
   38.4590   30.4240   50.0940 F   0  0  0  0  0  0  0  0  0  0  0  0
   37.0200   32.1180   50.4930 F   0  0  0  0  0  0  0  0  0  0  0  0
   37.1550   30.4050   51.9100 F   0  0  0  0  0  0  0  0  0  0  0  0
   35.1827   29.2161   51.5557 H   0  0  0  0  0  0  0  0  0  0  0  0
   35.8204   29.8982   45.9701 H   0  0  0  0  0  0  0  0  0  0  0  0
   38.2256   32.1187   48.6646 H   0  0  0  0  0  0  0  0  0  0  0  0
   40.0775   33.6502   47.4284 H   0  0  0  0  0  0  0  0  0  0  0  0
   40.7783   34.1239   44.9773 H   0  0  0  0  0  0  0  0  0  0  0  0
   37.0209   30.8270   44.0613 H   0  0  0  0  0  0  0  0  0  0  0  0
   33.3225   26.2907   48.7361 H   0  0  0  0  0  0  0  0  0  0  0  0
   31.4970   25.1869   47.4253 H   0  0  0  0  0  0  0  0  0  0  0  0
  2  1  2  0
  2 28  1  0
  3  2  1  0
  4  3  2  0
  4  5  1  0
  5  6  2  0
  6  1  1  0
  7  8  2  0
  8  9  1  0
  8  3  1  0
 10 11  1  0
 10  9  2  0
 12 11  1  0
 13 14  1  0
 13 12  2  0
 14 10  1  0
 15 14  2  0
 15  7  1  0
 16 17  1  0
 17 18  2  0
 18 19  1  0
 18  5  1  0
 20 19  2  0
 21 20  1  0
 22 21  1  0
 23 21  2  0
 23 17  1  0
 24 27  1  0
 24 23  1  0
 25 24  1  0
 26 24  1  0
 28 31  1  0
 29 28  1  0
 30 28  1  0
  1 32  1  0
  7 33  1  0
  9 34  1  0
 11 35  1  0
 12 36  1  0
 15 37  1  0
 19 38  1  0
 20 39  1  0
M  ISO  8  32  14  33  14  34  14  35   9  36  14  37  14  38  14  39  14
M  END
>  <minimizedAffinity>  (1) 
-7.77973461

>  <minimizedRMSD>  (1) 
0.543034136

$$$$
