
     RDKit          3D

 34 37  0  0  1  0  0  0  0  0999 V2000
   38.2760   31.3360   43.0550 C   0  0  2  0  0  0  0  0  0  0  0  0
   36.8810   31.5660   43.4160 C   0  0  0  0  0  0  0  0  0  0  0  0
   38.0140   32.4520   43.9600 C   0  0  1  0  0  0  0  0  0  0  0  0
   40.2470   31.0710   39.9220 C   0  0  0  0  0  0  0  0  0  0  0  0
   39.7590   32.1780   39.1860 C   0  0  0  0  0  0  0  0  0  0  0  0
   38.7510   33.0140   39.7670 C   0  0  0  0  0  0  0  0  0  0  0  0
   38.3130   32.6930   41.0110 N   0  0  0  0  0  0  0  0  0  0  0  0
   38.8090   31.6200   41.6840 C   0  0  0  0  0  0  0  0  0  0  0  0
   39.7560   30.8080   41.1760 N   0  0  0  0  0  0  0  0  0  0  0  0
   37.4380   31.3060   46.0690 C   0  0  0  0  0  0  0  0  0  0  0  0
   36.5890   30.6270   45.4410 O   0  0  0  0  0  0  0  0  0  0  0  0
   38.3050   32.2230   45.3800 N   0  0  0  0  0  0  0  0  0  0  0  0
   38.4310   31.8880   48.3340 C   0  0  0  0  0  0  0  0  0  0  0  0
   37.5690   31.1840   47.5180 C   0  0  0  0  0  0  0  0  0  0  0  0
   36.7550   30.2710   48.1850 C   0  0  0  0  0  0  0  0  0  0  0  0
   36.7560   30.0380   49.5450 C   0  0  0  0  0  0  0  0  0  0  0  0
   36.0500   29.2100   50.3270 N   0  0  0  0  0  0  0  0  0  0  0  0
   36.4920   29.4250   51.5900 C   0  0  0  0  0  0  0  0  0  0  0  0
   37.4670   30.3810   51.5910 N   0  0  0  0  0  0  0  0  0  0  0  0
   37.6350   30.7660   50.3170 C   0  0  0  0  0  0  0  0  0  0  0  0
   38.4600   31.6830   49.6970 C   0  0  0  0  0  0  0  0  0  0  0  0
   38.9073   30.4361   43.0940 H   0  0  0  0  0  0  0  0  0  0  0  0
   36.1740   31.9635   42.6730 H   0  0  0  0  0  0  0  0  0  0  0  0
   36.0713   30.9646   43.8549 H   0  0  0  0  0  0  0  0  0  0  0  0
   38.2707   33.5216   43.9641 H   0  0  0  0  0  0  0  0  0  0  0  0
   41.0209   30.4209   39.4878 H   0  0  0  0  0  0  0  0  0  0  0  0
   40.1492   32.3934   38.1803 H   0  0  0  0  0  0  0  0  0  0  0  0
   38.3476   33.8825   39.2258 H   0  0  0  0  0  0  0  0  0  0  0  0
   39.0874   32.6934   45.8569 H   0  0  0  0  0  0  0  0  0  0  0  0
   39.1100   32.6291   47.8870 H   0  0  0  0  0  0  0  0  0  0  0  0
   36.0511   29.6857   47.5751 H   0  0  0  0  0  0  0  0  0  0  0  0
   35.3209   28.5462   50.0293 H   0  0  0  0  0  0  0  0  0  0  0  0
   36.1193   28.9048   52.4847 H   0  0  0  0  0  0  0  0  0  0  0  0
   39.1620   32.2680   50.3093 H   0  0  0  0  0  0  0  0  0  0  0  0
  1  2  1  0
  1  3  1  0
  2  3  1  0
  3 12  1  0
  4  9  2  0
  5  6  2  0
  5  4  1  0
  6  7  1  0
  7  8  2  0
  8  1  1  0
  9  8  1  0
 10 14  1  0
 11 10  2  0
 12 10  1  0
 13 21  2  0
 14 15  2  0
 14 13  1  0
 15 16  1  0
 16 20  2  0
 16 17  1  0
 17 18  1  0
 18 19  2  0
 20 19  1  0
 21 20  1  0
  1 22  1  1
  2 23  1  0
  2 24  1  0
  3 25  1  6
  4 26  1  0
  5 27  1  0
  6 28  1  0
 12 29  1  0
 13 30  1  0
 15 31  1  0
 17 32  1  0
 18 33  1  0
 21 34  1  0
M  ISO  8  22  13  23  13  24  13  25  13  26  14  27  14  28  14  30  14
M  ISO  4  31  14  32   9  33  14  34  14
M  END
>  <minimizedAffinity>  (1) 
-5.23949385

>  <minimizedRMSD>  (1) 
4.84869385

$$$$
