
     RDKit          3D

 30 33  0  0  0  0  0  0  0  0999 V2000
   37.5170   31.2840   48.4320 C   0  0  0  0  0  0  0  0  0  0  0  0
   37.6810   30.2740   49.3950 C   0  0  0  0  0  0  0  0  0  0  0  0
   36.6020   29.3990   49.3140 C   0  0  0  0  0  0  0  0  0  0  0  0
   35.8260   29.8890   48.3240 N   0  0  0  0  0  0  0  0  0  0  0  0
   36.3770   30.9840   47.8260 N   0  0  0  0  0  0  0  0  0  0  0  0
   34.4840   27.9960   48.6370 C   0  0  0  0  0  0  0  0  0  0  0  0
   34.6200   29.2190   47.9740 C   0  0  0  0  0  0  0  0  0  0  0  0
   33.6460   29.6520   47.0970 C   0  0  0  0  0  0  0  0  0  0  0  0
   32.5350   28.8560   46.8850 C   0  0  0  0  0  0  0  0  0  0  0  0
   31.4690   29.0770   46.0790 N   0  0  0  0  0  0  0  0  0  0  0  0
   30.6640   27.9940   46.2360 C   0  0  0  0  0  0  0  0  0  0  0  0
   31.1820   27.1060   47.1030 N   0  0  0  0  0  0  0  0  0  0  0  0
   32.3630   27.6350   47.5230 C   0  0  0  0  0  0  0  0  0  0  0  0
   33.3590   27.2240   48.4000 C   0  0  0  0  0  0  0  0  0  0  0  0
   39.1990   32.5420   47.0790 C   0  0  0  0  0  0  0  0  0  0  0  0
   38.4650   32.3560   48.2520 C   0  0  0  0  0  0  0  0  0  0  0  0
   38.6730   33.2660   49.2980 C   0  0  0  0  0  0  0  0  0  0  0  0
   39.5780   34.2740   49.1050 N   0  0  0  0  0  0  0  0  0  0  0  0
   40.2610   34.4050   47.9420 C   0  0  0  0  0  0  0  0  0  0  0  0
   40.0780   33.5430   46.9250 N   0  0  0  0  0  0  0  0  0  0  0  0
   38.5235   30.1890   50.0972 H   0  0  0  0  0  0  0  0  0  0  0  0
   36.4206   28.5021   49.9245 H   0  0  0  0  0  0  0  0  0  0  0  0
   35.2595   27.6517   49.3370 H   0  0  0  0  0  0  0  0  0  0  0  0
   33.7517   30.6146   46.5752 H   0  0  0  0  0  0  0  0  0  0  0  0
   31.3036   29.8942   45.4743 H   0  0  0  0  0  0  0  0  0  0  0  0
   29.7038   27.8596   45.7164 H   0  0  0  0  0  0  0  0  0  0  0  0
   33.2512   26.2605   48.9196 H   0  0  0  0  0  0  0  0  0  0  0  0
   39.0501   31.8383   46.2467 H   0  0  0  0  0  0  0  0  0  0  0  0
   38.1243   33.1723   50.2468 H   0  0  0  0  0  0  0  0  0  0  0  0
   40.9782   35.2311   47.8271 H   0  0  0  0  0  0  0  0  0  0  0  0
  1  2  1  0
  3  2  2  0
  4  3  1  0
  5  4  1  0
  5  1  2  0
  7  4  1  0
  7  6  2  0
  8  7  1  0
  9  8  2  0
  9 13  1  0
 10 11  1  0
 10  9  1  0
 11 12  2  0
 12 13  1  0
 13 14  2  0
 14  6  1  0
 15 16  2  0
 16  1  1  0
 16 17  1  0
 18 17  2  0
 19 18  1  0
 20 15  1  0
 20 19  2  0
  2 21  1  0
  3 22  1  0
  6 23  1  0
  8 24  1  0
 10 25  1  0
 11 26  1  0
 14 27  1  0
 15 28  1  0
 17 29  1  0
 19 30  1  0
M  ISO  8  21  14  22  14  23  14  24  14  25   9  26  14  27  14  28  14
M  ISO  2  29  14  30  14
M  END
>  <minimizedAffinity>  (1) 
-5.54840994

>  <minimizedRMSD>  (1) 
9.02766514

$$$$
