
     RDKit          3D

 32 34  0  0  0  0  0  0  0  0999 V2000
   37.7960   29.2800   49.8720 O   0  0  0  0  0  0  0  0  0  0  0  0
   36.7790   30.0870   50.6270 P   0  0  2  0  0  0  0  0  0  0  0  0
   37.2680   30.0830   52.2590 O   0  0  0  0  0  0  0  0  0  0  0  0
   35.2420   29.3720   50.5120 O   0  0  0  0  0  0  0  0  0  0  0  0
   35.2810   28.4630   49.4760 C   0  0  0  0  0  0  0  0  0  0  0  0
   34.2420   28.7430   48.4390 C   0  0  0  0  0  0  0  0  0  0  0  0
   34.4310   29.8130   47.5820 C   0  0  0  0  0  0  0  0  0  0  0  0
   33.4710   30.0830   46.6120 C   0  0  0  0  0  0  0  0  0  0  0  0
   32.3920   29.2640   46.5690 N   0  0  0  0  0  0  0  0  0  0  0  0
   32.2190   28.2230   47.4110 C   0  0  0  0  0  0  0  0  0  0  0  0
   33.1450   27.9720   48.3390 N   0  0  0  0  0  0  0  0  0  0  0  0
   36.7470   31.6620   50.0220 O   0  0  0  0  0  0  0  0  0  0  0  0
   38.5670   33.2300   49.4390 C   0  0  0  0  0  0  0  0  0  0  0  0
   37.6730   32.2280   49.1700 C   0  0  0  0  0  0  0  0  0  0  0  0
   37.6520   31.6780   47.8950 C   0  0  0  0  0  0  0  0  0  0  0  0
   38.5270   32.1480   46.9340 C   0  0  0  0  0  0  0  0  0  0  0  0
   38.7720   31.8510   45.6360 N   0  0  0  0  0  0  0  0  0  0  0  0
   39.7510   32.6190   45.1410 C   0  0  0  0  0  0  0  0  0  0  0  0
   40.1520   33.4380   46.1490 N   0  0  0  0  0  0  0  0  0  0  0  0
   39.4190   33.1620   47.2360 C   0  0  0  0  0  0  0  0  0  0  0  0
   39.4490   33.7230   48.5160 C   0  0  0  0  0  0  0  0  0  0  0  0
   36.4686   30.0895   52.8430 H   0  0  0  0  0  0  0  0  0  0  0  0
   36.2735   28.5067   49.0037 H   0  0  0  0  0  0  0  0  0  0  0  0
   35.0799   27.4658   49.8944 H   0  0  0  0  0  0  0  0  0  0  0  0
   35.3292   30.4423   47.6667 H   0  0  0  0  0  0  0  0  0  0  0  0
   33.5827   30.9236   45.9113 H   0  0  0  0  0  0  0  0  0  0  0  0
   31.3241   27.5881   47.3331 H   0  0  0  0  0  0  0  0  0  0  0  0
   38.5766   33.6615   50.4508 H   0  0  0  0  0  0  0  0  0  0  0  0
   36.9431   30.8730   47.6514 H   0  0  0  0  0  0  0  0  0  0  0  0
   38.2708   31.1287   45.0993 H   0  0  0  0  0  0  0  0  0  0  0  0
   40.1527   32.5923   44.1173 H   0  0  0  0  0  0  0  0  0  0  0  0
   40.1533   34.5285   48.7712 H   0  0  0  0  0  0  0  0  0  0  0  0
  2  1  2  0
  2  3  1  0
  4  2  1  0
  5  4  1  0
  6  5  1  0
  7  6  2  0
  8  7  1  0
  9  8  2  0
  9 10  1  0
 10 11  2  0
 11  6  1  0
 12  2  1  0
 14 13  2  0
 14 12  1  0
 15 14  1  0
 16 20  1  0
 16 15  2  0
 17 16  1  0
 18 17  1  0
 18 19  2  0
 19 20  1  0
 20 21  2  0
 21 13  1  0
  3 22  1  0
  5 23  1  0
  5 24  1  0
  7 25  1  0
  8 26  1  0
 10 27  1  0
 13 28  1  0
 15 29  1  0
 17 30  1  0
 18 31  1  0
 21 32  1  0
M  ISO  8  22   3  23   8  24   8  25  14  26  14  27  14  28  14  29  14
M  ISO  3  30   9  31  14  32  14
M  END
>  <minimizedAffinity>  (1) 
-5.46590137

>  <minimizedRMSD>  (1) 
3.49822664

$$$$
