
     RDKit          3D

 51 56  0  0  0  0  0  0  0  0999 V2000
   40.0970   30.9390   44.1640 C   0  0  0  0  0  0  0  0  0  0  0  0
   39.5480   31.7720   45.1270 C   0  0  0  0  0  0  0  0  0  0  0  0
   38.4430   32.5330   44.7840 C   0  0  0  0  0  0  0  0  0  0  0  0
   37.8810   32.4760   43.5050 C   0  0  0  0  0  0  0  0  0  0  0  0
   36.8430   33.0710   42.8860 N   0  0  0  0  0  0  0  0  0  0  0  0
   36.7450   32.6400   41.6170 C   0  0  0  0  0  0  0  0  0  0  0  0
   37.7550   31.7420   41.4230 N   0  0  0  0  0  0  0  0  0  0  0  0
   38.4570   31.6350   42.5800 C   0  0  0  0  0  0  0  0  0  0  0  0
   39.5520   30.8750   42.9030 C   0  0  0  0  0  0  0  0  0  0  0  0
   39.8710   28.6660   41.7440 C   0  0  0  0  0  0  0  0  0  0  0  0
   40.1820   29.9760   41.9390 C   0  0  0  0  0  0  0  0  0  0  0  0
   41.1820   30.5490   41.1780 C   0  0  0  0  0  0  0  0  0  0  0  0
   41.8420   29.7820   40.2350 C   0  0  0  0  0  0  0  0  0  0  0  0
   42.8320   30.0710   39.3720 N   0  0  0  0  0  0  0  0  0  0  0  0
   43.1300   28.9530   38.6520 C   0  0  0  0  0  0  0  0  0  0  0  0
   42.3210   27.9290   39.0550 N   0  0  0  0  0  0  0  0  0  0  0  0
   41.5340   28.4360   40.0220 C   0  0  0  0  0  0  0  0  0  0  0  0
   40.5190   27.8800   40.8060 C   0  0  0  0  0  0  0  0  0  0  0  0
   39.9220   31.9880   46.4210 O   0  0  0  0  0  0  0  0  0  0  0  0
   38.1220   31.3900   47.9290 C   0  0  0  0  0  0  0  0  0  0  0  0
   37.2720   31.5910   49.0030 C   0  0  0  0  0  0  0  0  0  0  0  0
   37.4800   32.7950   49.6830 C   0  0  0  0  0  0  0  0  0  0  0  0
   38.4680   33.7060   49.2920 C   0  0  0  0  0  0  0  0  0  0  0  0
   39.2840   33.4050   48.1790 C   0  0  0  0  0  0  0  0  0  0  0  0
   39.0880   32.2090   47.4930 C   0  0  0  0  0  0  0  0  0  0  0  0
   35.1470   30.4610   48.6100 C   0  0  0  0  0  0  0  0  0  0  0  0
   36.2650   30.6690   49.4060 C   0  0  0  0  0  0  0  0  0  0  0  0
   36.3480   29.9390   50.6050 C   0  0  0  0  0  0  0  0  0  0  0  0
   35.3440   29.0800   50.9180 N   0  0  0  0  0  0  0  0  0  0  0  0
   34.2690   28.9120   50.1020 C   0  0  0  0  0  0  0  0  0  0  0  0
   34.1800   29.6010   48.9600 N   0  0  0  0  0  0  0  0  0  0  0  0
   37.5220   30.1190   51.5010 C   0  0  0  0  0  0  0  0  0  0  0  0
   37.9910   30.2140   47.1880 O   0  0  0  0  0  0  0  0  0  0  0  0
   40.9754   30.3245   44.4106 H   0  0  0  0  0  0  0  0  0  0  0  0
   37.9962   33.1991   45.5368 H   0  0  0  0  0  0  0  0  0  0  0  0
   36.2135   33.7590   43.3235 H   0  0  0  0  0  0  0  0  0  0  0  0
   35.9942   32.9513   40.8758 H   0  0  0  0  0  0  0  0  0  0  0  0
   39.0750   28.2143   42.3543 H   0  0  0  0  0  0  0  0  0  0  0  0
   41.4512   31.6060   41.3206 H   0  0  0  0  0  0  0  0  0  0  0  0
   43.2903   30.9879   39.2716 H   0  0  0  0  0  0  0  0  0  0  0  0
   43.9005   28.8859   37.8698 H   0  0  0  0  0  0  0  0  0  0  0  0
   40.2367   26.8245   40.6786 H   0  0  0  0  0  0  0  0  0  0  0  0
   36.8481   33.0333   50.5513 H   0  0  0  0  0  0  0  0  0  0  0  0
   38.6075   34.6463   49.8455 H   0  0  0  0  0  0  0  0  0  0  0  0
   40.0664   34.1082   47.8574 H   0  0  0  0  0  0  0  0  0  0  0  0
   35.0518   31.0173   47.6658 H   0  0  0  0  0  0  0  0  0  0  0  0
   33.4715   28.2080   50.3822 H   0  0  0  0  0  0  0  0  0  0  0  0
   37.1940   30.0687   52.5497 H   0  0  0  0  0  0  0  0  0  0  0  0
   38.2561   29.3229   51.3079 H   0  0  0  0  0  0  0  0  0  0  0  0
   37.9839   31.0985   51.3079 H   0  0  0  0  0  0  0  0  0  0  0  0
   38.5869   30.0468   46.4153 H   0  0  0  0  0  0  0  0  0  0  0  0
  1  2  2  0
  2 19  1  0
  3  2  1  0
  4  3  2  0
  5  4  1  0
  6  5  1  0
  7  6  2  0
  7  8  1  0
  8  9  2  0
  8  4  1  0
  9  1  1  0
 10 11  2  0
 11  9  1  0
 12 11  1  0
 13 12  2  0
 14 13  1  0
 15 16  2  0
 15 14  1  0
 16 17  1  0
 17 13  1  0
 17 18  2  0
 18 10  1  0
 19 25  1  0
 20 21  2  0
 21 27  1  0
 21 22  1  0
 23 22  2  0
 24 23  1  0
 25 20  1  0
 25 24  2  0
 26 31  2  0
 26 27  1  0
 27 28  2  0
 28 29  1  0
 28 32  1  0
 30 29  2  0
 31 30  1  0
 33 20  1  0
  1 34  1  0
  3 35  1  0
  5 36  1  0
  6 37  1  0
 10 38  1  0
 12 39  1  0
 14 40  1  0
 15 41  1  0
 18 42  1  0
 22 43  1  0
 23 44  1  0
 24 45  1  0
 26 46  1  0
 30 47  1  0
 32 48  1  0
 32 49  1  0
 32 50  1  0
 33 51  1  0
M  ISO  8  34  14  35  14  36   9  37  14  38  14  39  14  40   9  41  14
M  ISO  8  42  14  43  14  44  14  45  14  46  14  47  14  48   8  49   8
M  ISO  2  50   8  51   3
M  END
>  <minimizedAffinity>  (1) 
-8.10043907

>  <minimizedRMSD>  (1) 
0.976694942

$$$$
