
     RDKit          3D

 26 28  0  0  0  0  0  0  0  0999 V2000
   37.3430   30.2210   51.4150 C   0  0  0  0  0  0  0  0  0  0  0  0
   38.1460   30.7730   50.4140 C   0  0  0  0  0  0  0  0  0  0  0  0
   37.6840   30.7150   49.1080 C   0  0  0  0  0  0  0  0  0  0  0  0
   36.4870   30.1300   48.8700 N   0  0  0  0  0  0  0  0  0  0  0  0
   35.7340   29.6040   49.8640 C   0  0  0  0  0  0  0  0  0  0  0  0
   36.1710   29.6550   51.1330 N   0  0  0  0  0  0  0  0  0  0  0  0
   38.8430   32.5670   48.0640 C   0  0  0  0  0  0  0  0  0  0  0  0
   38.4270   31.2540   47.9800 C   0  0  0  0  0  0  0  0  0  0  0  0
   38.7320   30.5420   46.8600 C   0  0  0  0  0  0  0  0  0  0  0  0
   39.4390   31.0600   45.7890 C   0  0  0  0  0  0  0  0  0  0  0  0
   39.8370   30.5270   44.6040 N   0  0  0  0  0  0  0  0  0  0  0  0
   40.4990   31.5010   43.9490 C   0  0  0  0  0  0  0  0  0  0  0  0
   40.5160   32.6250   44.7080 N   0  0  0  0  0  0  0  0  0  0  0  0
   39.8650   32.3880   45.8610 C   0  0  0  0  0  0  0  0  0  0  0  0
   39.5600   33.1240   47.0030 C   0  0  0  0  0  0  0  0  0  0  0  0
   34.4400   28.9890   49.4810 C   0  0  0  0  0  0  0  0  0  0  0  0
   33.4320   29.2900   50.3960 F   0  0  0  0  0  0  0  0  0  0  0  0
   33.9880   29.4670   48.2600 F   0  0  0  0  0  0  0  0  0  0  0  0
   34.4850   27.6240   49.3740 F   0  0  0  0  0  0  0  0  0  0  0  0
   37.6864   30.2546   52.4595 H   0  0  0  0  0  0  0  0  0  0  0  0
   39.1133   31.2385   50.6541 H   0  0  0  0  0  0  0  0  0  0  0  0
   38.6126   33.1678   48.9562 H   0  0  0  0  0  0  0  0  0  0  0  0
   38.3974   29.4957   46.8033 H   0  0  0  0  0  0  0  0  0  0  0  0
   39.6662   29.5671   44.2718 H   0  0  0  0  0  0  0  0  0  0  0  0
   40.9550   31.4001   42.9531 H   0  0  0  0  0  0  0  0  0  0  0  0
   39.8922   34.1704   47.0711 H   0  0  0  0  0  0  0  0  0  0  0  0
  2  1  2  0
  3  2  1  0
  4  3  2  0
  4  5  1  0
  5  6  2  0
  6  1  1  0
  8  7  2  0
  8  3  1  0
  9  8  1  0
 10 14  1  0
 10  9  2  0
 11 10  1  0
 12 11  1  0
 12 13  2  0
 13 14  1  0
 14 15  2  0
 15  7  1  0
 16  5  1  0
 16 17  1  0
 18 16  1  0
 19 16  1  0
  1 20  1  0
  2 21  1  0
  7 22  1  0
  9 23  1  0
 11 24  1  0
 12 25  1  0
 15 26  1  0
M  ISO  7  20  14  21  14  22  14  23  14  24   9  25  14  26  14
M  END
>  <minimizedAffinity>  (1) 
-6.69087172

>  <minimizedRMSD>  (1) 
2.54054809

$$$$
