
     RDKit          3D

 34 37  0  0  0  0  0  0  0  0999 V2000
   35.8960   29.2610   49.7470 C   0  0  0  0  0  0  0  0  0  0  0  0
   34.8780   29.8230   50.4670 C   0  0  0  0  0  0  0  0  0  0  0  0
   33.6840   29.2380   50.0190 C   0  0  0  0  0  0  0  0  0  0  0  0
   34.0710   28.3370   49.0310 C   0  0  0  0  0  0  0  0  0  0  0  0
   35.3560   28.4100   48.9340 O   0  0  0  0  0  0  0  0  0  0  0  0
   37.2830   29.6310   49.9440 C   0  0  0  0  0  0  0  0  0  0  0  0
   37.9280   29.0770   50.8600 O   0  0  0  0  0  0  0  0  0  0  0  0
   37.8340   30.6340   49.0500 C   0  0  0  0  0  0  0  0  0  0  0  0
   38.1740   31.8580   49.6420 C   0  0  0  0  0  0  0  0  0  0  0  0
   38.7090   32.8500   48.8110 C   0  0  0  0  0  0  0  0  0  0  0  0
   38.8630   32.5570   47.4800 N   0  0  0  0  0  0  0  0  0  0  0  0
   38.5230   31.3720   46.9510 C   0  0  0  0  0  0  0  0  0  0  0  0
   38.0130   30.4180   47.7350 N   0  0  0  0  0  0  0  0  0  0  0  0
   33.1310   27.4950   48.2820 C   0  0  0  0  0  0  0  0  0  0  0  0
   31.8990   27.5070   48.5480 O   0  0  0  0  0  0  0  0  0  0  0  0
   33.6750   27.1440   45.9380 C   0  0  0  0  0  0  0  0  0  0  0  0
   33.5750   26.6160   47.2120 C   0  0  0  0  0  0  0  0  0  0  0  0
   33.9080   25.2990   47.3380 C   0  0  0  0  0  0  0  0  0  0  0  0
   34.3240   24.5040   46.2940 C   0  0  0  0  0  0  0  0  0  0  0  0
   34.7030   23.2450   46.1060 N   0  0  0  0  0  0  0  0  0  0  0  0
   35.0180   22.9850   44.8260 C   0  0  0  0  0  0  0  0  0  0  0  0
   34.8380   24.1360   44.1320 N   0  0  0  0  0  0  0  0  0  0  0  0
   34.4180   25.0610   45.0140 C   0  0  0  0  0  0  0  0  0  0  0  0
   34.0870   26.3980   44.8450 C   0  0  0  0  0  0  0  0  0  0  0  0
   34.9768   30.5894   51.2499 H   0  0  0  0  0  0  0  0  0  0  0  0
   32.6632   29.4462   50.3720 H   0  0  0  0  0  0  0  0  0  0  0  0
   38.0263   32.0327   50.7179 H   0  0  0  0  0  0  0  0  0  0  0  0
   38.9965   33.8328   49.2128 H   0  0  0  0  0  0  0  0  0  0  0  0
   38.6636   31.1865   45.8759 H   0  0  0  0  0  0  0  0  0  0  0  0
   33.4163   28.2022   45.7853 H   0  0  0  0  0  0  0  0  0  0  0  0
   33.8398   24.8436   48.3370 H   0  0  0  0  0  0  0  0  0  0  0  0
   34.7503   22.5443   46.8594 H   0  0  0  0  0  0  0  0  0  0  0  0
   35.3575   22.0214   44.4184 H   0  0  0  0  0  0  0  0  0  0  0  0
   34.1512   26.8627   43.8500 H   0  0  0  0  0  0  0  0  0  0  0  0
  1  6  1  0
  1  2  2  0
  3  2  1  0
  4  3  2  0
  5  4  1  0
  5  1  1  0
  6  7  2  0
  8  9  2  0
  8  6  1  0
 10  9  1  0
 11 10  2  0
 12 11  1  0
 12 13  2  0
 13  8  1  0
 14 15  2  0
 14  4  1  0
 16 17  2  0
 17 18  1  0
 17 14  1  0
 19 18  2  0
 20 19  1  0
 21 20  1  0
 22 21  2  0
 22 23  1  0
 23 19  1  0
 24 23  2  0
 24 16  1  0
  2 25  1  0
  3 26  1  0
  9 27  1  0
 10 28  1  0
 12 29  1  0
 16 30  1  0
 18 31  1  0
 20 32  1  0
 21 33  1  0
 24 34  1  0
M  ISO  8  25  14  26  14  27  14  28  14  29  14  30  14  31  14  32   9
M  ISO  2  33  14  34  14
M  END
>  <minimizedAffinity>  (1) 
-5.45449162

>  <minimizedRMSD>  (1) 
1.21992242

$$$$
