
     RDKit          3D

 49 52  0  0  1  0  0  0  0  0999 V2000
   39.5720   32.9540   44.1700 C   0  0  0  0  0  0  0  0  0  0  0  0
   39.6540   29.6910   42.7770 C   0  0  1  0  0  0  0  0  0  0  0  0
   39.7560   31.1690   42.4340 C   0  0  0  0  0  0  0  0  0  0  0  0
   40.3410   31.7250   43.7130 C   0  0  2  0  0  0  0  0  0  0  0  0
   40.3420   30.7440   44.6520 O   0  0  0  0  0  0  0  0  0  0  0  0
   39.4170   29.7680   44.2740 C   0  0  0  0  0  0  0  0  0  0  0  0
   38.6000   29.1060   42.1090 O   0  0  0  0  0  0  0  0  0  0  0  0
   38.9430   26.8760   41.7590 C   0  0  0  0  0  0  0  0  0  0  0  0
   38.0710   27.8490   42.2590 C   0  0  0  0  0  0  0  0  0  0  0  0
   36.8640   27.4610   42.8070 C   0  0  0  0  0  0  0  0  0  0  0  0
   36.5090   26.1290   42.8680 C   0  0  0  0  0  0  0  0  0  0  0  0
   37.3790   25.1670   42.3700 C   0  0  0  0  0  0  0  0  0  0  0  0
   38.6060   25.5220   41.8090 C   0  0  0  0  0  0  0  0  0  0  0  0
   40.1890   27.1210   41.1800 O   0  0  0  0  0  0  0  0  0  0  0  0
   39.4390   24.5210   41.3250 O   0  0  0  0  0  0  0  0  0  0  0  0
   40.4430   33.6450   45.6020 S   0  0  0  0  0  0  0  0  0  0  0  0
   37.7360   31.8870   47.9160 C   0  0  0  0  0  0  0  0  0  0  0  0
   37.8790   32.5370   49.1530 C   0  0  0  0  0  0  0  0  0  0  0  0
   38.8120   33.5440   49.3280 C   0  0  0  0  0  0  0  0  0  0  0  0
   39.5810   33.8630   48.2320 C   0  0  0  0  0  0  0  0  0  0  0  0
   39.4290   33.2230   47.0410 C   0  0  0  0  0  0  0  0  0  0  0  0
   38.5090   32.2270   46.8590 N   0  0  0  0  0  0  0  0  0  0  0  0
   36.7450   30.8550   47.8210 C   0  0  0  0  0  0  0  0  0  0  0  0
   36.3820   30.4310   46.7210 O   0  0  0  0  0  0  0  0  0  0  0  0
   36.9330   29.5920   49.9320 C   0  0  0  0  0  0  0  0  0  0  0  0
   36.1170   30.2550   49.0110 C   0  0  0  0  0  0  0  0  0  0  0  0
   34.7380   30.3320   49.2440 C   0  0  0  0  0  0  0  0  0  0  0  0
   34.2370   29.7450   50.3800 N   0  0  0  0  0  0  0  0  0  0  0  0
   35.0480   29.1150   51.2450 C   0  0  0  0  0  0  0  0  0  0  0  0
   36.3710   29.0350   51.0310 N   0  0  0  0  0  0  0  0  0  0  0  0
   38.5478   32.6712   44.4546 H   0  0  0  0  0  0  0  0  0  0  0  0
   39.5122   33.6955   43.3597 H   0  0  0  0  0  0  0  0  0  0  0  0
   40.5249   29.0809   42.4953 H   0  0  0  0  0  0  0  0  0  0  0  0
   40.4244   31.3392   41.5771 H   0  0  0  0  0  0  0  0  0  0  0  0
   38.8037   31.6306   42.1339 H   0  0  0  0  0  0  0  0  0  0  0  0
   41.3774   32.0521   43.5429 H   0  0  0  0  0  0  0  0  0  0  0  0
   38.3873   30.0803   44.5024 H   0  0  0  0  0  0  0  0  0  0  0  0
   39.5383   28.8082   44.7975 H   0  0  0  0  0  0  0  0  0  0  0  0
   36.1764   28.2243   43.2002 H   0  0  0  0  0  0  0  0  0  0  0  0
   35.5454   25.8313   43.3072 H   0  0  0  0  0  0  0  0  0  0  0  0
   37.0950   24.1054   42.4190 H   0  0  0  0  0  0  0  0  0  0  0  0
   40.5221   28.0495   41.0966 H   0  0  0  0  0  0  0  0  0  0  0  0
   39.1585   23.5733   41.3815 H   0  0  0  0  0  0  0  0  0  0  0  0
   37.2386   32.2406   49.9968 H   0  0  0  0  0  0  0  0  0  0  0  0
   38.9325   34.0616   50.2911 H   0  0  0  0  0  0  0  0  0  0  0  0
   40.3381   34.6560   48.3213 H   0  0  0  0  0  0  0  0  0  0  0  0
   38.0183   29.5235   49.7662 H   0  0  0  0  0  0  0  0  0  0  0  0
   34.0738   30.8490   48.5358 H   0  0  0  0  0  0  0  0  0  0  0  0
   34.6196   28.6549   52.1477 H   0  0  0  0  0  0  0  0  0  0  0  0
  1 16  1  0
  2  6  1  0
  3  2  1  0
  3  4  1  0
  4  1  1  0
  4  5  1  0
  6  5  1  0
  7  9  1  0
  7  2  1  0
  8 13  2  0
  8  9  1  0
  9 10  2  0
 10 11  1  0
 12 11  2  0
 13 12  1  0
 14  8  1  0
 15 13  1  0
 16 21  1  0
 17 18  2  0
 18 19  1  0
 20 19  2  0
 21 20  1  0
 22 21  2  0
 22 17  1  0
 23 17  1  0
 23 26  1  0
 24 23  2  0
 25 30  2  0
 26 27  2  0
 26 25  1  0
 27 28  1  0
 28 29  2  0
 30 29  1  0
  1 31  1  0
  1 32  1  0
  2 33  1  1
  3 34  1  0
  3 35  1  0
  4 36  1  6
  6 37  1  0
  6 38  1  0
 10 39  1  0
 11 40  1  0
 12 41  1  0
 14 42  1  0
 15 43  1  0
 18 44  1  0
 19 45  1  0
 20 46  1  0
 25 47  1  0
 27 48  1  0
 29 49  1  0
M  ISO  8  31   8  32   8  33  13  34  13  35  13  36  13  37  13  38  13
M  ISO  8  39  14  40  14  41  14  42   3  43   3  44  14  45  14  46  14
M  ISO  3  47  14  48  14  49  14
M  END
>  <minimizedAffinity>  (1) 
-5.66040707

>  <minimizedRMSD>  (1) 
1.23474729

$$$$
