
     RDKit          3D

 33 35  0  0  0  0  0  0  0  0999 V2000
   37.3270   31.2380   45.0710 C   0  0  0  0  0  0  0  0  0  0  0  0
   36.4020   30.8910   44.1210 C   0  0  0  0  0  0  0  0  0  0  0  0
   35.2590   30.2130   44.4980 C   0  0  0  0  0  0  0  0  0  0  0  0
   35.1460   29.9330   45.8640 C   0  0  0  0  0  0  0  0  0  0  0  0
   36.0860   30.2910   46.7950 C   0  0  0  0  0  0  0  0  0  0  0  0
   37.1920   30.9540   46.3860 N   0  0  0  0  0  0  0  0  0  0  0  0
   34.6990   30.0260   48.8140 C   0  0  0  0  0  0  0  0  0  0  0  0
   35.9360   29.9830   48.2110 C   0  0  0  0  0  0  0  0  0  0  0  0
   36.9680   29.6330   49.0540 C   0  0  0  0  0  0  0  0  0  0  0  0
   36.7950   29.3470   50.3890 C   0  0  0  0  0  0  0  0  0  0  0  0
   35.5190   29.4050   50.9500 C   0  0  0  0  0  0  0  0  0  0  0  0
   34.4830   29.7500   50.1380 C   0  0  0  0  0  0  0  0  0  0  0  0
   33.6030   30.3790   48.0020 O   0  0  0  0  0  0  0  0  0  0  0  0
   33.1890   29.8160   50.6810 O   0  0  0  0  0  0  0  0  0  0  0  0
   38.5220   31.9580   44.6100 C   0  0  0  0  0  0  0  0  0  0  0  0
   38.9330   32.9640   45.1640 O   0  0  0  0  0  0  0  0  0  0  0  0
   40.1270   30.3830   43.5520 C   0  0  0  0  0  0  0  0  0  0  0  0
   39.2880   31.4960   43.4470 C   0  0  0  0  0  0  0  0  0  0  0  0
   39.2270   32.1190   42.2100 C   0  0  0  0  0  0  0  0  0  0  0  0
   39.9690   31.6360   41.1710 N   0  0  0  0  0  0  0  0  0  0  0  0
   40.7660   30.5550   41.3230 C   0  0  0  0  0  0  0  0  0  0  0  0
   40.8450   29.9370   42.4950 N   0  0  0  0  0  0  0  0  0  0  0  0
   36.5687   31.1507   43.0652 H   0  0  0  0  0  0  0  0  0  0  0  0
   34.4887   29.9131   43.7722 H   0  0  0  0  0  0  0  0  0  0  0  0
   34.2516   29.3947   46.2107 H   0  0  0  0  0  0  0  0  0  0  0  0
   37.9848   29.5793   48.6377 H   0  0  0  0  0  0  0  0  0  0  0  0
   37.6597   29.0736   51.0115 H   0  0  0  0  0  0  0  0  0  0  0  0
   35.3557   29.1792   52.0141 H   0  0  0  0  0  0  0  0  0  0  0  0
   33.7424   30.5815   47.0430 H   0  0  0  0  0  0  0  0  0  0  0  0
   33.0435   29.6146   51.6393 H   0  0  0  0  0  0  0  0  0  0  0  0
   40.2055   29.8578   44.5153 H   0  0  0  0  0  0  0  0  0  0  0  0
   38.5831   32.9992   42.0663 H   0  0  0  0  0  0  0  0  0  0  0  0
   41.3532   30.1849   40.4696 H   0  0  0  0  0  0  0  0  0  0  0  0
  1  6  2  0
  2  3  2  0
  2  1  1  0
  3  4  1  0
  4  5  2  0
  5  8  1  0
  6  5  1  0
  7 12  2  0
  8  7  1  0
  8  9  2  0
  9 10  1  0
 10 11  2  0
 12 14  1  0
 12 11  1  0
 13  7  1  0
 15  1  1  0
 15 16  2  0
 18 17  2  0
 18 15  1  0
 19 18  1  0
 20 21  1  0
 20 19  2  0
 21 22  2  0
 22 17  1  0
  2 23  1  0
  3 24  1  0
  4 25  1  0
  9 26  1  0
 10 27  1  0
 11 28  1  0
 13 29  1  0
 14 30  1  0
 17 31  1  0
 19 32  1  0
 21 33  1  0
M  ISO  8  23  14  24  14  25  14  26  14  27  14  28  14  29   3  30   3
M  ISO  3  31  14  32  14  33  14
M  END
>  <minimizedAffinity>  (1) 
-6.16943359

>  <minimizedRMSD>  (1) 
8.04811382

$$$$
