
     RDKit          3D

 37 39  0  0  0  0  0  0  0  0999 V2000
   37.8430   30.5310   50.1280 C   0  0  0  0  0  0  0  0  0  0  0  0
   37.3240   30.6560   48.8520 C   0  0  0  0  0  0  0  0  0  0  0  0
   36.0040   30.2320   48.5660 C   0  0  0  0  0  0  0  0  0  0  0  0
   35.2920   29.7030   49.5940 N   0  0  0  0  0  0  0  0  0  0  0  0
   35.8400   29.5920   50.8510 C   0  0  0  0  0  0  0  0  0  0  0  0
   37.1060   30.0050   51.1110 N   0  0  0  0  0  0  0  0  0  0  0  0
   35.0170   29.0240   51.8760 N   0  0  0  0  0  0  0  0  0  0  0  0
   38.3510   33.5060   49.0770 Cl  0  0  0  0  0  0  0  0  0  0  0  0
   38.7410   32.4960   47.7310 C   0  0  0  0  0  0  0  0  0  0  0  0
   38.1960   31.2480   47.8060 C   0  0  0  0  0  0  0  0  0  0  0  0
   38.4650   30.3450   46.7540 C   0  0  0  0  0  0  0  0  0  0  0  0
   39.2370   30.6860   45.6940 C   0  0  0  0  0  0  0  0  0  0  0  0
   39.7760   31.9650   45.6490 C   0  0  0  0  0  0  0  0  0  0  0  0
   40.7780   32.4470   44.3050 Cl  0  0  0  0  0  0  0  0  0  0  0  0
   39.5200   32.8370   46.6590 C   0  0  0  0  0  0  0  0  0  0  0  0
   35.4780   30.3840   47.2210 C   0  0  0  0  0  0  0  0  0  0  0  0
   33.0280   30.0580   46.7150 C   0  0  0  0  0  0  0  0  0  0  0  0
   34.2930   29.5160   46.9710 C   0  0  0  0  0  0  0  0  0  0  0  0
   34.3550   28.1400   46.9730 C   0  0  0  0  0  0  0  0  0  0  0  0
   33.3140   27.2650   46.7510 C   0  0  0  0  0  0  0  0  0  0  0  0
   32.0780   27.8650   46.5000 C   0  0  0  0  0  0  0  0  0  0  0  0
   31.9540   29.2180   46.4860 C   0  0  0  0  0  0  0  0  0  0  0  0
   32.8980   31.4580   46.7000 O   0  0  0  0  0  0  0  0  0  0  0  0
   30.7200   29.8140   46.2350 O   0  0  0  0  0  0  0  0  0  0  0  0
   38.8697   30.8669   50.3352 H   0  0  0  0  0  0  0  0  0  0  0  0
   35.3840   28.9206   52.8328 H   0  0  0  0  0  0  0  0  0  0  0  0
   34.0581   28.7188   51.6564 H   0  0  0  0  0  0  0  0  0  0  0  0
   38.0345   29.3336   46.7965 H   0  0  0  0  0  0  0  0  0  0  0  0
   39.4326   29.9652   44.8864 H   0  0  0  0  0  0  0  0  0  0  0  0
   39.9520   33.8476   46.6135 H   0  0  0  0  0  0  0  0  0  0  0  0
   35.1839   31.4337   47.0736 H   0  0  0  0  0  0  0  0  0  0  0  0
   36.2677   30.0829   46.5169 H   0  0  0  0  0  0  0  0  0  0  0  0
   35.3397   27.6923   47.1730 H   0  0  0  0  0  0  0  0  0  0  0  0
   33.4468   26.1732   46.7701 H   0  0  0  0  0  0  0  0  0  0  0  0
   31.1957   27.2356   46.3117 H   0  0  0  0  0  0  0  0  0  0  0  0
   32.0162   31.8714   46.5219 H   0  0  0  0  0  0  0  0  0  0  0  0
   30.6394   30.8007   46.2268 H   0  0  0  0  0  0  0  0  0  0  0  0
  1  6  2  0
  2  1  1  0
  3  2  2  0
  3  4  1  0
  4  5  2  0
  5  6  1  0
  5  7  1  0
  9 10  2  0
  9  8  1  0
 10  2  1  0
 11 10  1  0
 12 11  2  0
 13 12  1  0
 13 15  2  0
 14 13  1  0
 15  9  1  0
 16  3  1  0
 17 18  2  0
 18 19  1  0
 18 16  1  0
 20 19  2  0
 21 20  1  0
 22 21  2  0
 22 17  1  0
 23 17  1  0
 24 22  1  0
  1 25  1  0
  7 26  1  0
  7 27  1  0
 11 28  1  0
 12 29  1  0
 15 30  1  0
 16 31  1  0
 16 32  1  0
 19 33  1  0
 20 34  1  0
 21 35  1  0
 23 36  1  0
 24 37  1  0
M  ISO  8  25  14  28  14  29  14  30  14  31   8  32   8  33  14  34  14
M  ISO  3  35  14  36   3  37   3
M  END
>  <minimizedAffinity>  (1) 
-6.56877136

>  <minimizedRMSD>  (1) 
0.8934834

$$$$
