
     RDKit          3D

 43 47  0  0  0  0  0  0  0  0999 V2000
   32.7950   29.3920   46.8330 C   0  0  0  0  0  0  0  0  0  0  0  0
   31.8910   28.3680   46.6680 C   0  0  0  0  0  0  0  0  0  0  0  0
   30.8330   28.4280   45.7710 C   0  0  0  0  0  0  0  0  0  0  0  0
   30.6710   29.5320   45.0200 N   0  0  0  0  0  0  0  0  0  0  0  0
   31.5470   30.5300   45.1750 C   0  0  0  0  0  0  0  0  0  0  0  0
   32.5560   30.4530   46.0430 N   0  0  0  0  0  0  0  0  0  0  0  0
   31.3870   31.7360   44.3700 C   0  0  0  0  0  0  0  0  0  0  0  0
   31.6460   32.9900   44.9130 C   0  0  0  0  0  0  0  0  0  0  0  0
   31.5260   34.1760   44.2440 C   0  0  0  0  0  0  0  0  0  0  0  0
   31.1180   34.1140   42.9280 C   0  0  0  0  0  0  0  0  0  0  0  0
   30.9920   35.2680   42.2460 N   0  0  0  0  0  0  0  0  0  0  0  0
   30.6010   35.3140   40.9580 C   0  0  0  0  0  0  0  0  0  0  0  0
   30.3210   34.1030   40.3350 C   0  0  0  0  0  0  0  0  0  0  0  0
   30.4370   32.8850   41.0020 C   0  0  0  0  0  0  0  0  0  0  0  0
   30.8430   32.8980   42.3210 C   0  0  0  0  0  0  0  0  0  0  0  0
   30.9870   31.7350   43.0650 C   0  0  0  0  0  0  0  0  0  0  0  0
   37.4600   29.1800   50.8160 Br  0  0  0  0  0  0  0  0  0  0  0  0
   36.0300   29.2800   49.5610 C   0  0  0  0  0  0  0  0  0  0  0  0
   36.0010   30.2900   48.5920 C   0  0  0  0  0  0  0  0  0  0  0  0
   34.9470   30.3100   47.7190 C   0  0  0  0  0  0  0  0  0  0  0  0
   33.9170   29.3760   47.7570 C   0  0  0  0  0  0  0  0  0  0  0  0
   33.9670   28.4040   48.7090 C   0  0  0  0  0  0  0  0  0  0  0  0
   35.0190   28.3690   49.5950 C   0  0  0  0  0  0  0  0  0  0  0  0
   38.0310   33.1950   49.4480 C   0  0  0  0  0  0  0  0  0  0  0  0
   39.0480   33.1980   48.4480 C   0  0  0  0  0  0  0  0  0  0  0  0
   39.0080   32.1940   47.5010 C   0  0  0  0  0  0  0  0  0  0  0  0
   38.0130   31.2530   47.5550 N   0  0  0  0  0  0  0  0  0  0  0  0
   37.0600   31.2800   48.5230 C   0  0  0  0  0  0  0  0  0  0  0  0
   37.0820   32.2570   49.4610 N   0  0  0  0  0  0  0  0  0  0  0  0
   32.0122   27.4589   47.2754 H   0  0  0  0  0  0  0  0  0  0  0  0
   30.1356   27.5827   45.6756 H   0  0  0  0  0  0  0  0  0  0  0  0
   31.9729   33.0305   45.9625 H   0  0  0  0  0  0  0  0  0  0  0  0
   31.7450   35.1366   44.7332 H   0  0  0  0  0  0  0  0  0  0  0  0
   30.5071   36.2697   40.4214 H   0  0  0  0  0  0  0  0  0  0  0  0
   29.9980   34.1065   39.2835 H   0  0  0  0  0  0  0  0  0  0  0  0
   30.2108   31.9378   40.4905 H   0  0  0  0  0  0  0  0  0  0  0  0
   30.7694   30.7710   42.5820 H   0  0  0  0  0  0  0  0  0  0  0  0
   34.9130   31.0994   46.9537 H   0  0  0  0  0  0  0  0  0  0  0  0
   33.1691   27.6493   48.7696 H   0  0  0  0  0  0  0  0  0  0  0  0
   35.0440   27.5769   50.3578 H   0  0  0  0  0  0  0  0  0  0  0  0
   38.0289   33.9781   50.2205 H   0  0  0  0  0  0  0  0  0  0  0  0
   39.8324   33.9690   48.4319 H   0  0  0  0  0  0  0  0  0  0  0  0
   39.7696   32.1497   46.7085 H   0  0  0  0  0  0  0  0  0  0  0  0
  1 21  1  0
  2  1  2  0
  3  2  1  0
  4  5  1  0
  4  3  2  0
  5  6  2  0
  6  1  1  0
  7  8  2  0
  7  5  1  0
  9  8  1  0
 10  9  2  0
 11 10  1  0
 12 11  2  0
 13 12  1  0
 13 14  2  0
 14 15  1  0
 15 10  1  0
 15 16  2  0
 16  7  1  0
 18 23  2  0
 18 17  1  0
 19 18  1  0
 20 21  1  0
 20 19  2  0
 21 22  2  0
 22 23  1  0
 24 29  2  0
 25 24  1  0
 26 27  1  0
 26 25  2  0
 27 28  2  0
 28 19  1  0
 28 29  1  0
  2 30  1  0
  3 31  1  0
  8 32  1  0
  9 33  1  0
 12 34  1  0
 13 35  1  0
 14 36  1  0
 16 37  1  0
 20 38  1  0
 22 39  1  0
 23 40  1  0
 24 41  1  0
 25 42  1  0
 26 43  1  0
M  ISO  8  30  14  31  14  32  14  33  14  34  14  35  14  36  14  37  14
M  ISO  6  38  14  39  14  40  14  41  14  42  14  43  14
M  END
>  <minimizedAffinity>  (1) 
-7.15920258

>  <minimizedRMSD>  (1) 
0.627730012

$$$$
