
     RDKit          3D

 41 45  0  0  0  0  0  0  0  0999 V2000
   35.0130   28.5790   48.9890 C   0  0  0  0  0  0  0  0  0  0  0  0
   35.2380   29.5630   47.9790 C   0  0  0  0  0  0  0  0  0  0  0  0
   34.5480   29.4160   46.7890 C   0  0  0  0  0  0  0  0  0  0  0  0
   33.7060   28.3560   46.6570 N   0  0  0  0  0  0  0  0  0  0  0  0
   33.5130   27.4460   47.6230 C   0  0  0  0  0  0  0  0  0  0  0  0
   34.1730   27.5650   48.7920 N   0  0  0  0  0  0  0  0  0  0  0  0
   36.0980   31.0810   49.6670 C   0  0  0  0  0  0  0  0  0  0  0  0
   36.1670   30.5990   48.3600 C   0  0  0  0  0  0  0  0  0  0  0  0
   37.1220   31.1490   47.5110 C   0  0  0  0  0  0  0  0  0  0  0  0
   37.9650   32.1520   48.0050 C   0  0  0  0  0  0  0  0  0  0  0  0
   38.9570   32.8600   47.4530 N   0  0  0  0  0  0  0  0  0  0  0  0
   39.4670   33.7110   48.3350 C   0  0  0  0  0  0  0  0  0  0  0  0
   38.8000   33.5650   49.4960 N   0  0  0  0  0  0  0  0  0  0  0  0
   37.8800   32.6130   49.3030 C   0  0  0  0  0  0  0  0  0  0  0  0
   36.9330   32.0690   50.1420 C   0  0  0  0  0  0  0  0  0  0  0  0
   32.5630   26.3150   47.3940 C   0  0  0  0  0  0  0  0  0  0  0  0
   33.2690   25.0340   47.1630 C   0  0  0  0  0  0  0  0  0  0  0  0
   32.7600   23.8700   47.7450 C   0  0  0  0  0  0  0  0  0  0  0  0
   33.3890   22.6630   47.5530 C   0  0  0  0  0  0  0  0  0  0  0  0
   34.5300   22.6160   46.7770 C   0  0  0  0  0  0  0  0  0  0  0  0
   35.0470   21.3590   46.6710 N   0  0  0  0  0  0  0  0  0  0  0  0
   36.1760   21.1930   45.9280 C   0  0  0  0  0  0  0  0  0  0  0  0
   36.7200   22.3130   45.3310 C   0  0  0  0  0  0  0  0  0  0  0  0
   36.2010   23.5930   45.4340 C   0  0  0  0  0  0  0  0  0  0  0  0
   35.0490   23.7510   46.1940 C   0  0  0  0  0  0  0  0  0  0  0  0
   34.4180   24.9670   46.3860 C   0  0  0  0  0  0  0  0  0  0  0  0
   35.5442   28.6604   49.9488 H   0  0  0  0  0  0  0  0  0  0  0  0
   34.6771   30.1386   45.9697 H   0  0  0  0  0  0  0  0  0  0  0  0
   35.3457   30.6547   50.3470 H   0  0  0  0  0  0  0  0  0  0  0  0
   37.2132   30.8024   46.4710 H   0  0  0  0  0  0  0  0  0  0  0  0
   39.2797   32.7589   46.4801 H   0  0  0  0  0  0  0  0  0  0  0  0
   40.2922   34.4143   48.1496 H   0  0  0  0  0  0  0  0  0  0  0  0
   36.8440   32.4196   51.1808 H   0  0  0  0  0  0  0  0  0  0  0  0
   31.9169   26.2097   48.2780 H   0  0  0  0  0  0  0  0  0  0  0  0
   31.9732   26.5443   46.4942 H   0  0  0  0  0  0  0  0  0  0  0  0
   31.8499   23.9200   48.3609 H   0  0  0  0  0  0  0  0  0  0  0  0
   32.9887   21.7467   48.0115 H   0  0  0  0  0  0  0  0  0  0  0  0
   36.6382   20.2021   45.8077 H   0  0  0  0  0  0  0  0  0  0  0  0
   37.6316   22.1789   44.7301 H   0  0  0  0  0  0  0  0  0  0  0  0
   36.6806   24.4481   44.9352 H   0  0  0  0  0  0  0  0  0  0  0  0
   34.8254   25.8786   45.9244 H   0  0  0  0  0  0  0  0  0  0  0  0
  2  8  1  0
  2  1  2  0
  3  2  1  0
  4  3  2  0
  4  5  1  0
  5  6  2  0
  6  1  1  0
  7 15  2  0
  8  7  1  0
  9 10  1  0
  9  8  2  0
 10 14  2  0
 11 10  1  0
 11 12  1  0
 12 13  2  0
 14 13  1  0
 14 15  1  0
 16  5  1  0
 17 16  1  0
 17 18  2  0
 19 18  1  0
 20 19  2  0
 21 20  1  0
 22 21  2  0
 23 24  2  0
 23 22  1  0
 24 25  1  0
 25 26  2  0
 25 20  1  0
 26 17  1  0
  1 27  1  0
  3 28  1  0
  7 29  1  0
  9 30  1  0
 11 31  1  0
 12 32  1  0
 15 33  1  0
 16 34  1  0
 16 35  1  0
 18 36  1  0
 19 37  1  0
 22 38  1  0
 23 39  1  0
 24 40  1  0
 26 41  1  0
M  ISO  8  27  14  28  14  29  14  30  14  31   9  32  14  33  14  34   8
M  ISO  7  35   8  36  14  37  14  38  14  39  14  40  14  41  14
M  END
>  <minimizedAffinity>  (1) 
-6.36213732

>  <minimizedRMSD>  (1) 
2.00307894

$$$$
