
     RDKit          3D

 38 42  0  0  0  0  0  0  0  0999 V2000
   36.8320   29.3080   50.2330 C   0  0  0  0  0  0  0  0  0  0  0  0
   37.6490   30.0950   49.3940 C   0  0  0  0  0  0  0  0  0  0  0  0
   37.1280   30.4420   48.1390 C   0  0  0  0  0  0  0  0  0  0  0  0
   35.8860   30.0080   47.8130 N   0  0  0  0  0  0  0  0  0  0  0  0
   35.1390   29.2630   48.6330 C   0  0  0  0  0  0  0  0  0  0  0  0
   35.6070   28.9190   49.8280 N   0  0  0  0  0  0  0  0  0  0  0  0
   33.0400   28.0370   49.0230 C   0  0  0  0  0  0  0  0  0  0  0  0
   33.8140   28.8470   48.1820 C   0  0  0  0  0  0  0  0  0  0  0  0
   33.3230   29.2330   46.9620 C   0  0  0  0  0  0  0  0  0  0  0  0
   32.0760   28.8360   46.5450 C   0  0  0  0  0  0  0  0  0  0  0  0
   31.3710   29.0730   45.4100 N   0  0  0  0  0  0  0  0  0  0  0  0
   30.1990   28.4030   45.6000 C   0  0  0  0  0  0  0  0  0  0  0  0
   30.1870   27.7890   46.7860 N   0  0  0  0  0  0  0  0  0  0  0  0
   31.3550   28.0440   47.4030 C   0  0  0  0  0  0  0  0  0  0  0  0
   31.7890   27.6300   48.6240 C   0  0  0  0  0  0  0  0  0  0  0  0
   37.8860   31.2510   47.1960 C   0  0  0  0  0  0  0  0  0  0  0  0
   38.9630   32.0420   47.5240 C   0  0  0  0  0  0  0  0  0  0  0  0
   39.6620   32.7970   46.6070 C   0  0  0  0  0  0  0  0  0  0  0  0
   39.2750   32.7730   45.2650 C   0  0  0  0  0  0  0  0  0  0  0  0
   39.9710   33.5160   44.3790 N   0  0  0  0  0  0  0  0  0  0  0  0
   39.6430   33.5310   43.0740 C   0  0  0  0  0  0  0  0  0  0  0  0
   38.5620   32.7500   42.6770 C   0  0  0  0  0  0  0  0  0  0  0  0
   37.8350   31.9750   43.5820 C   0  0  0  0  0  0  0  0  0  0  0  0
   38.2000   31.9850   44.9120 C   0  0  0  0  0  0  0  0  0  0  0  0
   37.5320   31.2480   45.8650 C   0  0  0  0  0  0  0  0  0  0  0  0
   37.1982   29.0094   51.2263 H   0  0  0  0  0  0  0  0  0  0  0  0
   38.6505   30.4220   49.7103 H   0  0  0  0  0  0  0  0  0  0  0  0
   33.4331   27.7267   50.0024 H   0  0  0  0  0  0  0  0  0  0  0  0
   33.9363   29.8698   46.3075 H   0  0  0  0  0  0  0  0  0  0  0  0
   31.6560   29.6310   44.5925 H   0  0  0  0  0  0  0  0  0  0  0  0
   29.3736   28.3722   44.8736 H   0  0  0  0  0  0  0  0  0  0  0  0
   31.1630   26.9941   49.2673 H   0  0  0  0  0  0  0  0  0  0  0  0
   39.2837   32.0735   48.5757 H   0  0  0  0  0  0  0  0  0  0  0  0
   40.5155   33.4119   46.9285 H   0  0  0  0  0  0  0  0  0  0  0  0
   40.2072   34.1368   42.3497 H   0  0  0  0  0  0  0  0  0  0  0  0
   38.2711   32.7431   41.6162 H   0  0  0  0  0  0  0  0  0  0  0  0
   36.9850   31.3663   43.2401 H   0  0  0  0  0  0  0  0  0  0  0  0
   36.6785   30.6301   45.5491 H   0  0  0  0  0  0  0  0  0  0  0  0
  2  1  2  0
  3  2  1  0
  4  3  2  0
  4  5  1  0
  5  6  2  0
  6  1  1  0
  8  5  1  0
  8  7  2  0
  9  8  1  0
 10  9  2  0
 10 14  1  0
 11 12  1  0
 11 10  1  0
 12 13  2  0
 13 14  1  0
 14 15  2  0
 15  7  1  0
 16 17  2  0
 16  3  1  0
 18 17  1  0
 19 18  2  0
 20 19  1  0
 21 20  2  0
 22 21  1  0
 22 23  2  0
 23 24  1  0
 24 19  1  0
 24 25  2  0
 25 16  1  0
  1 26  1  0
  2 27  1  0
  7 28  1  0
  9 29  1  0
 11 30  1  0
 12 31  1  0
 15 32  1  0
 17 33  1  0
 18 34  1  0
 21 35  1  0
 22 36  1  0
 23 37  1  0
 25 38  1  0
M  ISO  8  26  14  27  14  28  14  29  14  30   9  31  14  32  14  33  14
M  ISO  5  34  14  35  14  36  14  37  14  38  14
M  END
>  <minimizedAffinity>  (1) 
-6.7316618

>  <minimizedRMSD>  (1) 
1.79776657

$$$$
