
     RDKit          3D

 44 46  0  0  0  0  0  0  0  0999 V2000
   34.9410   29.5160   48.5550 C   0  0  0  0  0  0  0  0  0  0  0  0
   37.8570   30.7420   48.6100 Br  0  0  0  0  0  0  0  0  0  0  0  0
   36.7410   30.4530   47.0710 C   0  0  0  0  0  0  0  0  0  0  0  0
   37.1870   30.7890   45.8200 C   0  0  0  0  0  0  0  0  0  0  0  0
   36.3480   30.5720   44.7600 C   0  0  0  0  0  0  0  0  0  0  0  0
   35.0800   30.0280   44.9110 C   0  0  0  0  0  0  0  0  0  0  0  0
   34.6620   29.6970   46.2080 C   0  0  0  0  0  0  0  0  0  0  0  0
   35.4980   29.9140   47.2670 C   0  0  0  0  0  0  0  0  0  0  0  0
   39.7840   33.2960   45.2860 C   0  0  0  0  0  0  0  0  0  0  0  0
   40.9840   32.5330   45.2230 C   0  0  0  0  0  0  0  0  0  0  0  0
   40.8640   31.1650   45.3680 C   0  0  0  0  0  0  0  0  0  0  0  0
   39.6250   30.5960   45.5630 N   0  0  0  0  0  0  0  0  0  0  0  0
   38.5200   31.3690   45.6130 C   0  0  0  0  0  0  0  0  0  0  0  0
   38.6140   32.6990   45.4750 N   0  0  0  0  0  0  0  0  0  0  0  0
   33.4700   29.3230   48.6290 C   0  0  0  0  0  0  0  0  0  0  0  0
   33.1890   27.9460   48.8070 N   0  0  0  0  0  0  0  0  0  0  0  0
   32.3410   27.3210   47.8620 C   0  0  0  0  0  0  0  0  0  0  0  0
   31.2170   26.6570   48.5920 C   0  0  0  0  0  0  0  0  0  0  0  0
   30.1010   27.6520   48.4680 N   0  0  0  0  0  0  0  0  0  0  0  0
   29.9380   28.3500   47.3060 C   0  0  0  0  0  0  0  0  0  0  0  0
   28.9180   29.2690   47.1750 C   0  0  0  0  0  0  0  0  0  0  0  0
   28.0510   29.4900   48.2230 C   0  0  0  0  0  0  0  0  0  0  0  0
   27.0990   30.3080   48.1810 O   0  0  0  0  0  0  0  0  0  0  0  0
   28.2510   28.7790   49.3460 N   0  0  0  0  0  0  0  0  0  0  0  0
   29.2370   27.8780   49.5000 C   0  0  0  0  0  0  0  0  0  0  0  0
   29.4590   27.1990   50.5200 O   0  0  0  0  0  0  0  0  0  0  0  0
   35.2098   30.2929   49.2859 H   0  0  0  0  0  0  0  0  0  0  0  0
   35.3673   28.5214   48.7527 H   0  0  0  0  0  0  0  0  0  0  0  0
   36.6921   30.8390   43.7499 H   0  0  0  0  0  0  0  0  0  0  0  0
   34.4252   29.8622   44.0428 H   0  0  0  0  0  0  0  0  0  0  0  0
   33.6643   29.2640   46.3724 H   0  0  0  0  0  0  0  0  0  0  0  0
   39.8269   34.3898   45.1771 H   0  0  0  0  0  0  0  0  0  0  0  0
   41.9621   33.0112   45.0660 H   0  0  0  0  0  0  0  0  0  0  0  0
   41.7600   30.5282   45.3277 H   0  0  0  0  0  0  0  0  0  0  0  0
   33.0664   29.8936   49.4784 H   0  0  0  0  0  0  0  0  0  0  0  0
   33.0035   29.6779   47.6982 H   0  0  0  0  0  0  0  0  0  0  0  0
   34.0883   27.4440   48.7929 H   0  0  0  0  0  0  0  0  0  0  0  0
   32.9094   26.5692   47.2948 H   0  0  0  0  0  0  0  0  0  0  0  0
   31.9427   28.0705   47.1623 H   0  0  0  0  0  0  0  0  0  0  0  0
   30.9486   25.7007   48.1193 H   0  0  0  0  0  0  0  0  0  0  0  0
   31.4634   26.4091   49.6350 H   0  0  0  0  0  0  0  0  0  0  0  0
   30.6270   28.1777   46.4660 H   0  0  0  0  0  0  0  0  0  0  0  0
   28.7966   29.8255   46.2340 H   0  0  0  0  0  0  0  0  0  0  0  0
   27.6097   28.9339   50.1370 H   0  0  0  0  0  0  0  0  0  0  0  0
  1 15  1  0
  3  8  2  0
  3  2  1  0
  4  3  1  0
  5  6  1  0
  5  4  2  0
  6  7  2  0
  7  8  1  0
  8  1  1  0
  9 14  2  0
 10  9  1  0
 10 11  2  0
 11 12  1  0
 12 13  2  0
 13  4  1  0
 14 13  1  0
 15 16  1  0
 17 18  1  0
 17 16  1  0
 19 18  1  0
 19 25  1  0
 20 19  1  0
 21 20  2  0
 21 22  1  0
 22 24  1  0
 23 22  2  0
 24 25  1  0
 25 26  2  0
  1 27  1  0
  1 28  1  0
  5 29  1  0
  6 30  1  0
  7 31  1  0
  9 32  1  0
 10 33  1  0
 11 34  1  0
 15 35  1  0
 15 36  1  0
 16 37  1  0
 17 38  1  0
 17 39  1  0
 18 40  1  0
 18 41  1  0
 20 42  1  0
 21 43  1  0
 24 44  1  0
M  ISO  8  27   8  28   8  29  14  30  14  31  14  32  14  33  14  34  14
M  ISO  8  35   8  36   8  37   5  38   8  39   8  40   8  41   8  42  14
M  ISO  2  43  14  44   9
M  END
>  <minimizedAffinity>  (1) 
-5.55007696

>  <minimizedRMSD>  (1) 
2.90324712

$$$$
