
     RDKit          3D

 40 42  0  0  1  0  0  0  0  0999 V2000
   35.6660   29.6730   48.1480 C   0  0  0  0  0  0  0  0  0  0  0  0
   36.6340   30.4480   47.7770 C   0  0  0  0  0  0  0  0  0  0  0  0
   33.5700   29.3610   45.0860 C   0  0  0  0  0  0  0  0  0  0  0  0
   34.6170   29.5950   45.9510 C   0  0  0  0  0  0  0  0  0  0  0  0
   34.5340   29.3990   47.3040 C   0  0  0  0  0  0  0  0  0  0  0  0
   33.3480   28.9520   47.7620 N   0  0  0  0  0  0  0  0  0  0  0  0
   32.3160   28.7150   46.9530 C   0  0  0  0  0  0  0  0  0  0  0  0
   32.4180   28.9170   45.6180 N   0  0  0  0  0  0  0  0  0  0  0  0
   31.0630   28.2440   47.4370 N   0  0  0  0  0  0  0  0  0  0  0  0
   31.1720   27.6290   48.6290 C   0  0  0  0  0  0  0  0  0  0  0  0
   30.0820   27.0970   49.2810 C   0  0  0  0  0  0  0  0  0  0  0  0
   28.8400   27.2100   48.6670 C   0  0  0  0  0  0  0  0  0  0  0  0
   27.7880   26.7430   49.2050 O   0  0  0  0  0  0  0  0  0  0  0  0
   28.7710   27.8300   47.4770 N   0  0  0  0  0  0  0  0  0  0  0  0
   29.8490   28.3410   46.8610 C   0  0  0  0  0  0  0  0  0  0  0  0
   29.8550   28.9320   45.7500 O   0  0  0  0  0  0  0  0  0  0  0  0
   37.7600   30.6710   48.7460 C   0  0  1  0  0  0  0  0  0  0  0  0
   38.5380   31.8510   48.3290 C   0  0  0  0  0  0  0  0  0  0  0  0
   38.6360   32.8400   49.3440 C   0  0  0  0  0  0  0  0  0  0  0  0
   39.3130   34.0250   49.1830 C   0  0  0  0  0  0  0  0  0  0  0  0
   39.9580   34.3270   47.9750 C   0  0  0  0  0  0  0  0  0  0  0  0
   39.8120   33.3100   47.0400 C   0  0  0  0  0  0  0  0  0  0  0  0
   39.1600   32.1450   47.1660 N   0  0  0  0  0  0  0  0  0  0  0  0
   37.0080   31.1040   50.3520 S   0  0  0  0  0  0  0  0  0  0  0  0
   36.9790   29.6950   51.4450 C   0  0  0  0  0  0  0  0  0  0  0  0
   37.6310   29.9220   52.6470 F   0  0  0  0  0  0  0  0  0  0  0  0
   35.6920   29.2310   51.6430 F   0  0  0  0  0  0  0  0  0  0  0  0
   37.6670   28.6600   50.7770 F   0  0  0  0  0  0  0  0  0  0  0  0
   35.7106   29.2076   49.1437 H   0  0  0  0  0  0  0  0  0  0  0  0
   36.6322   30.9267   46.7866 H   0  0  0  0  0  0  0  0  0  0  0  0
   33.6727   29.5307   44.0040 H   0  0  0  0  0  0  0  0  0  0  0  0
   35.5679   29.9577   45.5335 H   0  0  0  0  0  0  0  0  0  0  0  0
   32.1639   27.5487   49.0977 H   0  0  0  0  0  0  0  0  0  0  0  0
   30.1906   26.5989   50.2558 H   0  0  0  0  0  0  0  0  0  0  0  0
   27.8529   27.9169   47.0182 H   0  0  0  0  0  0  0  0  0  0  0  0
   38.3976   29.7759   48.7945 H   0  0  0  0  0  0  0  0  0  0  0  0
   38.1444   32.6473   50.3090 H   0  0  0  0  0  0  0  0  0  0  0  0
   39.3494   34.7462   50.0127 H   0  0  0  0  0  0  0  0  0  0  0  0
   40.5134   35.2583   47.7898 H   0  0  0  0  0  0  0  0  0  0  0  0
   40.2954   33.4834   46.0672 H   0  0  0  0  0  0  0  0  0  0  0  0
  2  1  2  0
  2 17  1  0
  3  8  2  0
  3  4  1  0
  4  5  2  0
  5  6  1  0
  5  1  1  0
  7  9  1  0
  7  6  2  0
  8  7  1  0
  9 10  1  0
 10 11  2  0
 12 13  2  0
 12 11  1  0
 14 12  1  0
 15  9  1  0
 15 14  1  0
 16 15  2  0
 17 24  1  0
 18 17  1  0
 18 19  2  0
 20 19  1  0
 21 20  2  0
 22 23  2  0
 22 21  1  0
 23 18  1  0
 24 25  1  0
 25 27  1  0
 25 26  1  0
 28 25  1  0
  1 29  1  0
  2 30  1  0
  3 31  1  0
  4 32  1  0
 10 33  1  0
 11 34  1  0
 14 35  1  0
 17 36  1  1
 19 37  1  0
 20 38  1  0
 21 39  1  0
 22 40  1  0
M  ISO  8  31  14  32  14  33  14  34  14  35   9  36   8  37  14  38  14
M  ISO  2  39  14  40  14
M  END
>  <minimizedAffinity>  (1) 
-7.26639748

>  <minimizedRMSD>  (1) 
0.61022985

$$$$
