
     RDKit          3D

 26 27  0  0  0  0  0  0  0  0999 V2000
   37.1690   30.6910   48.9680 C   0  0  0  0  0  0  0  0  0  0  0  0
   37.5080   30.8260   47.6210 C   0  0  0  0  0  0  0  0  0  0  0  0
   38.3480   31.8590   47.2470 C   0  0  0  0  0  0  0  0  0  0  0  0
   38.8170   32.7110   48.2070 N   0  0  0  0  0  0  0  0  0  0  0  0
   38.4740   32.5600   49.5100 C   0  0  0  0  0  0  0  0  0  0  0  0
   37.6470   31.5490   49.8970 N   0  0  0  0  0  0  0  0  0  0  0  0
   38.6570   31.9480   45.8730 N   0  0  0  0  0  0  0  0  0  0  0  0
   39.4350   32.9840   45.4520 C   0  0  0  0  0  0  0  0  0  0  0  0
   39.8120   33.1830   44.1240 C   0  0  0  0  0  0  0  0  0  0  0  0
   39.3610   32.2720   43.2080 C   0  0  0  0  0  0  0  0  0  0  0  0
   39.7070   32.4650   42.0140 O   0  0  0  0  0  0  0  0  0  0  0  0
   38.5870   31.2440   43.6270 N   0  0  0  0  0  0  0  0  0  0  0  0
   38.2460   31.0890   44.9260 C   0  0  0  0  0  0  0  0  0  0  0  0
   37.5230   30.1190   45.2880 O   0  0  0  0  0  0  0  0  0  0  0  0
   36.3400   29.7110   49.5000 O   0  0  0  0  0  0  0  0  0  0  0  0
   34.3250   30.5210   47.9100 O   0  0  0  0  0  0  0  0  0  0  0  0
   34.7030   29.5270   48.9980 P   0  0  0  0  0  0  0  0  0  0  0  0
   34.5590   27.9290   48.4580 O   0  0  0  0  0  0  0  0  0  0  0  0
   33.6770   29.8210   50.3040 O   0  0  0  0  0  0  0  0  0  0  0  0
   37.1145   30.1241   46.8710 H   0  0  0  0  0  0  0  0  0  0  0  0
   38.8671   33.2603   50.2616 H   0  0  0  0  0  0  0  0  0  0  0  0
   39.7866   33.7061   46.2037 H   0  0  0  0  0  0  0  0  0  0  0  0
   40.4431   34.0335   43.8266 H   0  0  0  0  0  0  0  0  0  0  0  0
   38.2478   30.5596   42.9360 H   0  0  0  0  0  0  0  0  0  0  0  0
   34.5042   27.3210   49.2374 H   0  0  0  0  0  0  0  0  0  0  0  0
   34.1710   29.6794   51.1502 H   0  0  0  0  0  0  0  0  0  0  0  0
  1 15  1  0
  1  6  2  0
  2  1  1  0
  3  2  2  0
  3  4  1  0
  4  5  2  0
  5  6  1  0
  7  3  1  0
  8  7  1  0
  9  8  2  0
 10 12  1  0
 10  9  1  0
 11 10  2  0
 12 13  1  0
 13 14  2  0
 13  7  1  0
 16 17  2  0
 17 15  1  0
 17 19  1  0
 18 17  1  0
  2 20  1  0
  5 21  1  0
  8 22  1  0
  9 23  1  0
 12 24  1  0
 18 25  1  0
 19 26  1  0
M  ISO  7  20  14  21  14  22  14  23  14  24   9  25   3  26   3
M  END
>  <minimizedAffinity>  (1) 
-5.57111597

>  <minimizedRMSD>  (1) 
7.06831026

$$$$
