
     RDKit          3D

 42 45  0  0  1  0  0  0  0  0999 V2000
   39.1780   31.3250   43.4260 C   0  0  0  0  0  0  0  0  0  0  0  0
   40.2850   30.5300   43.5590 C   0  0  0  0  0  0  0  0  0  0  0  0
   40.9530   30.1800   42.3910 C   0  0  0  0  0  0  0  0  0  0  0  0
   40.4640   30.6500   41.1910 C   0  0  0  0  0  0  0  0  0  0  0  0
   39.3460   31.4500   41.0690 C   0  0  0  0  0  0  0  0  0  0  0  0
   38.7190   31.7730   42.2290 N   0  0  0  0  0  0  0  0  0  0  0  0
   38.4370   31.7330   44.6450 C   0  0  0  0  0  0  0  0  0  0  0  0
   37.3790   32.3690   44.5950 O   0  0  0  0  0  0  0  0  0  0  0  0
   39.0160   31.3490   45.9250 N   0  0  0  0  0  0  0  0  0  0  0  0
   38.6690   31.0690   48.3760 C   0  0  2  0  0  0  0  0  0  0  0  0
   38.6570   32.5290   48.0990 C   0  0  0  0  0  0  0  0  0  0  0  0
   38.1730   31.4510   47.0950 C   0  0  1  0  0  0  0  0  0  0  0  0
   35.7580   29.2810   49.8350 C   0  0  0  0  0  0  0  0  0  0  0  0
   36.0210   29.3870   51.2300 C   0  0  0  0  0  0  0  0  0  0  0  0
   37.2090   30.0880   51.6520 C   0  0  0  0  0  0  0  0  0  0  0  0
   38.0460   30.6290   50.7030 N   0  0  0  0  0  0  0  0  0  0  0  0
   37.7160   30.4810   49.3880 C   0  0  0  0  0  0  0  0  0  0  0  0
   36.5880   29.8180   48.9160 N   0  0  0  0  0  0  0  0  0  0  0  0
   38.8750   31.9040   39.7730 C   0  0  0  0  0  0  0  0  0  0  0  0
   39.6800   32.0680   38.8350 O   0  0  0  0  0  0  0  0  0  0  0  0
   35.2320   31.4650   39.4400 N   0  0  0  0  0  0  0  0  0  0  0  0
   36.5430   31.1000   39.4910 C   0  0  0  0  0  0  0  0  0  0  0  0
   37.4370   32.1320   39.6950 C   0  0  0  0  0  0  0  0  0  0  0  0
   37.0630   33.4540   39.8400 C   0  0  0  0  0  0  0  0  0  0  0  0
   37.8650   34.3820   40.0230 O   0  0  0  0  0  0  0  0  0  0  0  0
   35.7360   33.7670   39.7820 N   0  0  0  0  0  0  0  0  0  0  0  0
   34.8540   32.7510   39.5810 C   0  0  0  0  0  0  0  0  0  0  0  0
   33.6470   33.1020   39.5360 O   0  0  0  0  0  0  0  0  0  0  0  0
   40.6299   30.1842   44.5446 H   0  0  0  0  0  0  0  0  0  0  0  0
   41.8497   29.5437   42.4237 H   0  0  0  0  0  0  0  0  0  0  0  0
   40.9991   30.3695   40.2718 H   0  0  0  0  0  0  0  0  0  0  0  0
   39.9887   31.0175   45.9940 H   0  0  0  0  0  0  0  0  0  0  0  0
   39.4595   30.3798   48.7078 H   0  0  0  0  0  0  0  0  0  0  0  0
   37.9364   33.1896   48.6033 H   0  0  0  0  0  0  0  0  0  0  0  0
   39.3885   33.3505   48.1010 H   0  0  0  0  0  0  0  0  0  0  0  0
   37.2542   31.1873   46.5506 H   0  0  0  0  0  0  0  0  0  0  0  0
   34.8565   28.7485   49.4978 H   0  0  0  0  0  0  0  0  0  0  0  0
   35.3352   28.9453   51.9679 H   0  0  0  0  0  0  0  0  0  0  0  0
   37.4436   30.1891   52.7219 H   0  0  0  0  0  0  0  0  0  0  0  0
   34.5135   30.7424   39.2904 H   0  0  0  0  0  0  0  0  0  0  0  0
   36.8672   30.0550   39.3775 H   0  0  0  0  0  0  0  0  0  0  0  0
   35.4132   34.7395   39.8868 H   0  0  0  0  0  0  0  0  0  0  0  0
  1  2  2  0
  1  7  1  0
  3  2  1  0
  4  3  2  0
  5  4  1  0
  5  6  2  0
  6  1  1  0
  7  9  1  0
  8  7  2  0
  9 12  1  0
 10 17  1  0
 11 10  1  0
 12 11  1  0
 12 10  1  0
 13 14  2  0
 14 15  1  0
 16 15  2  0
 17 16  1  0
 18 17  2  0
 18 13  1  0
 19  5  1  0
 20 19  2  0
 21 22  1  0
 21 27  1  0
 22 23  2  0
 23 19  1  0
 23 24  1  0
 24 25  2  0
 26 24  1  0
 27 26  1  0
 28 27  2  0
  2 29  1  0
  3 30  1  0
  4 31  1  0
  9 32  1  0
 10 33  1  6
 11 34  1  0
 11 35  1  0
 12 36  1  6
 13 37  1  0
 14 38  1  0
 15 39  1  0
 21 40  1  0
 22 41  1  0
 26 42  1  0
M  ISO  8  29  14  30  14  31  14  33  13  34  13  35  13  36  13  37  14
M  ISO  5  38  14  39  14  40   9  41  14  42   9
M  END
>  <minimizedAffinity>  (1) 
-5.27840233

>  <minimizedRMSD>  (1) 
2.82305336

$$$$
