
     RDKit          3D

 30 32  0  0  0  0  0  0  0  0999 V2000
   35.5980   30.4050   46.9500 C   0  0  0  0  0  0  0  0  0  0  0  0
   36.2630   30.6380   45.7340 C   0  0  0  0  0  0  0  0  0  0  0  0
   35.4960   30.5460   44.5780 C   0  0  0  0  0  0  0  0  0  0  0  0
   34.1850   30.2450   44.6740 N   0  0  0  0  0  0  0  0  0  0  0  0
   33.5730   30.0270   45.8500 C   0  0  0  0  0  0  0  0  0  0  0  0
   34.2870   30.1070   47.0100 N   0  0  0  0  0  0  0  0  0  0  0  0
   37.6450   30.9460   45.7690 N   0  0  0  0  0  0  0  0  0  0  0  0
   38.0980   32.0890   46.3360 C   0  0  0  0  0  0  0  0  0  0  0  0
   39.4760   32.3420   46.3440 C   0  0  0  0  0  0  0  0  0  0  0  0
   40.2450   31.3740   45.7550 C   0  0  0  0  0  0  0  0  0  0  0  0
   41.4980   31.5990   45.7590 O   0  0  0  0  0  0  0  0  0  0  0  0
   39.8170   30.2420   45.1910 N   0  0  0  0  0  0  0  0  0  0  0  0
   38.4800   30.0350   45.2050 C   0  0  0  0  0  0  0  0  0  0  0  0
   38.0580   28.9740   44.6770 O   0  0  0  0  0  0  0  0  0  0  0  0
   36.2440   30.4630   48.2160 N   0  0  0  0  0  0  0  0  0  0  0  0
   36.9680   31.4880   48.7080 C   0  0  0  0  0  0  0  0  0  0  0  0
   37.5410   31.4050   49.9600 C   0  0  0  0  0  0  0  0  0  0  0  0
   37.3330   30.2370   50.6650 C   0  0  0  0  0  0  0  0  0  0  0  0
   37.8370   30.1330   51.7950 O   0  0  0  0  0  0  0  0  0  0  0  0
   36.6060   29.2150   50.1670 N   0  0  0  0  0  0  0  0  0  0  0  0
   36.0610   29.3390   48.9330 C   0  0  0  0  0  0  0  0  0  0  0  0
   35.4030   28.3230   48.5690 O   0  0  0  0  0  0  0  0  0  0  0  0
   35.9549   30.7174   43.5931 H   0  0  0  0  0  0  0  0  0  0  0  0
   32.5003   29.7849   45.8776 H   0  0  0  0  0  0  0  0  0  0  0  0
   37.3954   32.8075   46.7832 H   0  0  0  0  0  0  0  0  0  0  0  0
   39.9078   33.2501   46.7900 H   0  0  0  0  0  0  0  0  0  0  0  0
   40.4680   29.5645   44.7690 H   0  0  0  0  0  0  0  0  0  0  0  0
   37.1031   32.3986   48.1059 H   0  0  0  0  0  0  0  0  0  0  0  0
   38.1358   32.2311   50.3769 H   0  0  0  0  0  0  0  0  0  0  0  0
   36.4677   28.3547   50.7162 H   0  0  0  0  0  0  0  0  0  0  0  0
  1  6  1  0
  1 15  1  0
  2  7  1  0
  2  1  2  0
  3  4  2  0
  3  2  1  0
  4  5  1  0
  5  6  2  0
  7  8  1  0
  8  9  2  0
 10 11  2  0
 10  9  1  0
 12 13  1  0
 12 10  1  0
 13  7  1  0
 14 13  2  0
 15 16  1  0
 15 21  1  0
 16 17  2  0
 17 18  1  0
 18 19  2  0
 20 18  1  0
 21 20  1  0
 22 21  2  0
  3 23  1  0
  5 24  1  0
  8 25  1  0
  9 26  1  0
 12 27  1  0
 16 28  1  0
 17 29  1  0
 20 30  1  0
M  ISO  8  23  14  24  14  25  14  26  14  27   9  28  14  29  14  30   9
M  END
>  <minimizedAffinity>  (1) 
-5.13750696

>  <minimizedRMSD>  (1) 
3.08448195

$$$$
