
     RDKit          3D

 23 24  0  0  0  0  0  0  0  0999 V2000
   37.5970   32.1780   47.0150 C   0  0  0  0  0  0  0  0  0  0  0  0
   37.5680   31.4110   48.2260 N   0  0  0  0  0  0  0  0  0  0  0  0
   38.4020   31.6860   49.2430 C   0  0  0  0  0  0  0  0  0  0  0  0
   38.3600   30.9430   50.3900 C   0  0  0  0  0  0  0  0  0  0  0  0
   37.4380   29.9170   50.4540 C   0  0  0  0  0  0  0  0  0  0  0  0
   37.3140   29.1650   51.4720 O   0  0  0  0  0  0  0  0  0  0  0  0
   36.5780   29.6110   49.4380 N   0  0  0  0  0  0  0  0  0  0  0  0
   36.6970   30.4050   48.3420 C   0  0  0  0  0  0  0  0  0  0  0  0
   35.9250   30.1630   47.3780 O   0  0  0  0  0  0  0  0  0  0  0  0
   38.7420   31.8260   46.1430 C   0  0  0  0  0  0  0  0  0  0  0  0
   39.7970   32.7480   46.0340 C   0  0  0  0  0  0  0  0  0  0  0  0
   40.8740   32.4050   45.2070 C   0  0  0  0  0  0  0  0  0  0  0  0
   40.8520   31.2040   44.5520 N   0  0  0  0  0  0  0  0  0  0  0  0
   39.8130   30.3560   44.6930 C   0  0  0  0  0  0  0  0  0  0  0  0
   38.7680   30.6530   45.4740 N   0  0  0  0  0  0  0  0  0  0  0  0
   36.6640   31.9968   46.4612 H   0  0  0  0  0  0  0  0  0  0  0  0
   37.7050   33.2364   47.2944 H   0  0  0  0  0  0  0  0  0  0  0  0
   39.1219   32.5128   49.1524 H   0  0  0  0  0  0  0  0  0  0  0  0
   39.0362   31.1549   51.2314 H   0  0  0  0  0  0  0  0  0  0  0  0
   35.8956   28.8418   49.4978 H   0  0  0  0  0  0  0  0  0  0  0  0
   39.7776   33.7038   46.5781 H   0  0  0  0  0  0  0  0  0  0  0  0
   41.7252   33.0912   45.0858 H   0  0  0  0  0  0  0  0  0  0  0  0
   39.8249   29.3976   44.1533 H   0  0  0  0  0  0  0  0  0  0  0  0
  1  2  1  0
  2  8  1  0
  2  3  1  0
  3  4  2  0
  4  5  1  0
  5  6  2  0
  7  5  1  0
  8  7  1  0
  9  8  2  0
 10  1  1  0
 11 10  2  0
 12 11  1  0
 13 14  1  0
 13 12  2  0
 14 15  2  0
 15 10  1  0
  1 16  1  0
  1 17  1  0
  3 18  1  0
  4 19  1  0
  7 20  1  0
 11 21  1  0
 12 22  1  0
 14 23  1  0
M  ISO  8  16   8  17   8  18  14  19  14  20   9  21  14  22  14  23  14
M  END
>  <minimizedAffinity>  (1) 
-4.52604055

>  <minimizedRMSD>  (1) 
4.77840281

$$$$
