
     RDKit          3D

 30 32  0  0  0  0  0  0  0  0999 V2000
   35.8160   29.1880   49.2840 C   0  0  0  0  0  0  0  0  0  0  0  0
   35.9970   30.2270   48.3490 C   0  0  0  0  0  0  0  0  0  0  0  0
   35.2700   30.1440   47.1600 C   0  0  0  0  0  0  0  0  0  0  0  0
   34.4420   29.0740   46.9890 N   0  0  0  0  0  0  0  0  0  0  0  0
   34.2910   28.1020   47.8970 C   0  0  0  0  0  0  0  0  0  0  0  0
   34.9870   28.1530   49.0670 N   0  0  0  0  0  0  0  0  0  0  0  0
   33.3680   27.1210   47.4510 N   0  0  0  0  0  0  0  0  0  0  0  0
   33.6360   26.3030   46.4130 C   0  0  0  0  0  0  0  0  0  0  0  0
   32.6860   25.3560   46.0210 C   0  0  0  0  0  0  0  0  0  0  0  0
   31.4900   25.3020   46.7290 C   0  0  0  0  0  0  0  0  0  0  0  0
   30.5990   24.4600   46.4080 O   0  0  0  0  0  0  0  0  0  0  0  0
   31.2290   26.1270   47.7690 N   0  0  0  0  0  0  0  0  0  0  0  0
   32.1760   27.0210   48.1100 C   0  0  0  0  0  0  0  0  0  0  0  0
   31.9620   27.8160   49.0870 O   0  0  0  0  0  0  0  0  0  0  0  0
   36.9010   31.2800   48.6750 N   0  0  0  0  0  0  0  0  0  0  0  0
   36.6640   32.1220   49.6920 C   0  0  0  0  0  0  0  0  0  0  0  0
   37.5810   33.1400   49.9750 C   0  0  0  0  0  0  0  0  0  0  0  0
   38.6780   33.1570   49.1280 C   0  0  0  0  0  0  0  0  0  0  0  0
   39.5280   34.0800   49.3690 O   0  0  0  0  0  0  0  0  0  0  0  0
   38.9340   32.3300   48.1100 N   0  0  0  0  0  0  0  0  0  0  0  0
   38.0070   31.3670   47.8900 C   0  0  0  0  0  0  0  0  0  0  0  0
   38.2360   30.5840   46.9370 O   0  0  0  0  0  0  0  0  0  0  0  0
   36.3762   29.2259   50.2299 H   0  0  0  0  0  0  0  0  0  0  0  0
   35.3623   30.9185   46.3843 H   0  0  0  0  0  0  0  0  0  0  0  0
   34.5946   26.3805   45.8791 H   0  0  0  0  0  0  0  0  0  0  0  0
   32.8781   24.6747   45.1790 H   0  0  0  0  0  0  0  0  0  0  0  0
   30.3373   26.0730   48.2817 H   0  0  0  0  0  0  0  0  0  0  0  0
   35.7538   32.0127   50.3000 H   0  0  0  0  0  0  0  0  0  0  0  0
   37.4440   33.8608   50.7945 H   0  0  0  0  0  0  0  0  0  0  0  0
   39.7808   32.4190   47.5305 H   0  0  0  0  0  0  0  0  0  0  0  0
  2 15  1  0
  2  1  2  0
  3  2  1  0
  4  3  2  0
  4  5  1  0
  5  6  2  0
  6  1  1  0
  7  5  1  0
  7 13  1  0
  8  7  1  0
  9  8  2  0
  9 10  1  0
 10 12  1  0
 11 10  2  0
 12 13  1  0
 13 14  2  0
 15 16  1  0
 16 17  2  0
 18 19  2  0
 18 17  1  0
 20 18  1  0
 21 20  1  0
 21 15  1  0
 22 21  2  0
  1 23  1  0
  3 24  1  0
  8 25  1  0
  9 26  1  0
 12 27  1  0
 16 28  1  0
 17 29  1  0
 20 30  1  0
M  ISO  8  23  14  24  14  25  14  26  14  27   9  28  14  29  14  30   9
M  END
>  <minimizedAffinity>  (1) 
-5.77141666

>  <minimizedRMSD>  (1) 
1.02358842

$$$$
