
     RDKit          3D

 33 35  0  0  0  0  0  0  0  0999 V2000
   31.4140   28.9510   46.3320 C   0  0  0  0  0  0  0  0  0  0  0  0
   30.5610   28.3480   45.4430 C   0  0  0  0  0  0  0  0  0  0  0  0
   29.5760   27.7530   46.0960 N   0  0  0  0  0  0  0  0  0  0  0  0
   29.7550   27.9480   47.4060 C   0  0  0  0  0  0  0  0  0  0  0  0
   30.8770   28.6800   47.5500 N   0  0  0  0  0  0  0  0  0  0  0  0
   29.0910   27.5950   48.6140 N   0  0  0  0  0  0  0  0  0  0  0  0
   29.7610   27.6830   49.7890 C   0  0  0  0  0  0  0  0  0  0  0  0
   29.0980   27.3330   50.9620 C   0  0  0  0  0  0  0  0  0  0  0  0
   27.7690   26.9060   50.8730 C   0  0  0  0  0  0  0  0  0  0  0  0
   27.1320   26.5820   51.8950 O   0  0  0  0  0  0  0  0  0  0  0  0
   27.1340   26.8300   49.6970 N   0  0  0  0  0  0  0  0  0  0  0  0
   27.8000   27.1760   48.5570 C   0  0  0  0  0  0  0  0  0  0  0  0
   27.2410   27.1200   47.4160 O   0  0  0  0  0  0  0  0  0  0  0  0
   32.5850   29.6930   46.1100 O   0  0  0  0  0  0  0  0  0  0  0  0
   35.1410   29.3830   46.1440 O   0  0  0  0  0  0  0  0  0  0  0  0
   33.9330   29.2820   47.0570 P   0  0  2  0  0  0  0  0  0  0  0  0
   33.7640   27.6990   47.6810 O   0  0  0  0  0  0  0  0  0  0  0  0
   34.0370   30.3320   48.4010 O   0  0  0  0  0  0  0  0  0  0  0  0
   35.1020   30.2580   49.3010 C   0  0  0  0  0  0  0  0  0  0  0  0
   35.1530   29.4090   50.4280 C   0  0  0  0  0  0  0  0  0  0  0  0
   36.2940   29.4680   51.2160 C   0  0  0  0  0  0  0  0  0  0  0  0
   37.2960   30.3150   50.8900 N   0  0  0  0  0  0  0  0  0  0  0  0
   37.2050   31.1190   49.7910 C   0  0  0  0  0  0  0  0  0  0  0  0
   36.0990   31.0890   48.9910 N   0  0  0  0  0  0  0  0  0  0  0  0
   30.6784   28.3577   44.3493 H   0  0  0  0  0  0  0  0  0  0  0  0
   28.8011   27.2276   45.6667 H   0  0  0  0  0  0  0  0  0  0  0  0
   30.8066   28.0238   49.8151 H   0  0  0  0  0  0  0  0  0  0  0  0
   29.6070   27.3909   51.9354 H   0  0  0  0  0  0  0  0  0  0  0  0
   26.1546   26.5142   49.6530 H   0  0  0  0  0  0  0  0  0  0  0  0
   33.7675   27.7322   48.6704 H   0  0  0  0  0  0  0  0  0  0  0  0
   34.3231   28.7292   50.6713 H   0  0  0  0  0  0  0  0  0  0  0  0
   36.3829   28.8262   52.1049 H   0  0  0  0  0  0  0  0  0  0  0  0
   38.0335   31.8001   49.5465 H   0  0  0  0  0  0  0  0  0  0  0  0
  1  5  1  0
  2  3  1  0
  2  1  2  0
  3  4  1  0
  4  5  2  0
  4  6  1  0
  6  7  1  0
  7  8  2  0
  9  8  1  0
  9 10  2  0
 11  9  1  0
 12  6  1  0
 12 11  1  0
 13 12  2  0
 14  1  1  0
 14 16  1  0
 16 15  2  0
 16 17  1  0
 16 18  1  0
 18 19  1  0
 19 20  2  0
 20 21  1  0
 22 21  2  0
 23 22  1  0
 24 19  1  0
 24 23  2  0
  2 25  1  0
  3 26  1  0
  7 27  1  0
  8 28  1  0
 11 29  1  0
 17 30  1  0
 20 31  1  0
 21 32  1  0
 23 33  1  0
M  ISO  8  25  14  26   9  27  14  28  14  29   9  30   3  31  14  32  14
M  ISO  1  33  14
M  END
>  <minimizedAffinity>  (1) 
-5.69374752

>  <minimizedRMSD>  (1) 
1.84729898

$$$$
