
     RDKit          3D

 39 41  0  0  1  0  0  0  0  0999 V2000
   33.2080   27.3030   45.8500 C   0  0  1  0  0  0  0  0  0  0  0  0
   33.9100   27.4480   47.2180 C   0  0  2  0  0  0  0  0  0  0  0  0
   33.7340   26.2330   47.8010 O   0  0  0  0  0  0  0  0  0  0  0  0
   34.0690   25.3310   46.8010 C   0  0  0  0  0  0  0  0  0  0  0  0
   33.6020   25.8950   45.4750 C   0  0  2  0  0  0  0  0  0  0  0  0
   31.8520   27.5150   45.9780 O   0  0  0  0  0  0  0  0  0  0  0  0
   33.2790   28.5090   47.8160 O   0  0  0  0  0  0  0  0  0  0  0  0
   35.3460   29.7980   46.7940 O   0  0  0  0  0  0  0  0  0  0  0  0
   34.0750   29.9780   47.6250 P   0  0  1  0  0  0  0  0  0  0  0  0
   33.1160   31.0470   46.7260 O   0  0  0  0  0  0  0  0  0  0  0  0
   34.3700   30.5970   49.1860 O   0  0  0  0  0  0  0  0  0  0  0  0
   35.6080   30.4810   49.7980 C   0  0  0  0  0  0  0  0  0  0  0  0
   35.9630   29.4690   50.7170 C   0  0  0  0  0  0  0  0  0  0  0  0
   37.2510   29.4930   51.2430 C   0  0  0  0  0  0  0  0  0  0  0  0
   38.1000   30.4800   50.8520 N   0  0  0  0  0  0  0  0  0  0  0  0
   37.7400   31.4410   49.9700 C   0  0  0  0  0  0  0  0  0  0  0  0
   36.4790   31.4400   49.4380 N   0  0  0  0  0  0  0  0  0  0  0  0
   34.6300   25.9050   44.5740 O   0  0  0  0  0  0  0  0  0  0  0  0
   34.6890   24.0990   41.5180 N   0  0  0  0  0  0  0  0  0  0  0  0
   34.3930   24.9750   42.5230 C   0  0  0  0  0  0  0  0  0  0  0  0
   35.0940   24.9550   43.7370 C   0  0  0  0  0  0  0  0  0  0  0  0
   36.0680   24.0160   43.8320 C   0  0  0  0  0  0  0  0  0  0  0  0
   36.6920   23.9920   44.9020 O   0  0  0  0  0  0  0  0  0  0  0  0
   36.3380   23.1660   42.8240 N   0  0  0  0  0  0  0  0  0  0  0  0
   35.6740   23.1860   41.6740 C   0  0  0  0  0  0  0  0  0  0  0  0
   35.9480   22.3790   40.7500 O   0  0  0  0  0  0  0  0  0  0  0  0
   33.4926   28.0301   45.0751 H   0  0  0  0  0  0  0  0  0  0  0  0
   34.9873   27.6692   47.2395 H   0  0  0  0  0  0  0  0  0  0  0  0
   35.1593   25.1867   46.7804 H   0  0  0  0  0  0  0  0  0  0  0  0
   33.5879   24.3600   46.9901 H   0  0  0  0  0  0  0  0  0  0  0  0
   32.7917   25.3194   45.0038 H   0  0  0  0  0  0  0  0  0  0  0  0
   31.6130   27.5524   46.9380 H   0  0  0  0  0  0  0  0  0  0  0  0
   32.5985   31.6239   47.3421 H   0  0  0  0  0  0  0  0  0  0  0  0
   35.2451   28.6878   51.0073 H   0  0  0  0  0  0  0  0  0  0  0  0
   37.5764   28.7270   51.9623 H   0  0  0  0  0  0  0  0  0  0  0  0
   38.4594   32.2214   49.6812 H   0  0  0  0  0  0  0  0  0  0  0  0
   34.1586   24.1340   40.6357 H   0  0  0  0  0  0  0  0  0  0  0  0
   33.5886   25.7109   42.3771 H   0  0  0  0  0  0  0  0  0  0  0  0
   37.0893   22.4726   42.9494 H   0  0  0  0  0  0  0  0  0  0  0  0
  1  6  1  0
  1  2  1  0
  2  3  1  0
  2  7  1  0
  4  3  1  0
  5  1  1  0
  5  4  1  0
  9  8  2  0
  9  7  1  0
  9 11  1  0
 10  9  1  0
 11 12  1  0
 12 13  2  0
 13 14  1  0
 15 14  2  0
 16 15  1  0
 17 12  1  0
 17 16  2  0
 18  5  1  0
 19 25  1  0
 19 20  1  0
 20 21  2  0
 21 22  1  0
 21 18  1  0
 22 23  2  0
 24 22  1  0
 25 24  1  0
 26 25  2  0
  1 27  1  6
  2 28  1  6
  4 29  1  0
  4 30  1  0
  5 31  1  6
  6 32  1  0
 10 33  1  0
 13 34  1  0
 14 35  1  0
 16 36  1  0
 19 37  1  0
 20 38  1  0
 24 39  1  0
M  ISO  8  27  13  28  13  29  13  30  13  31  13  32   3  33   3  34  14
M  ISO  5  35  14  36  14  37   9  38  14  39   9
M  END
>  <minimizedAffinity>  (1) 
-4.11577225

>  <minimizedRMSD>  (1) 
1.22603989

$$$$
