
     RDKit          3D

 40 42  0  0  1  0  0  0  0  0999 V2000
   35.5500   29.9370   47.9300 C   0  0  0  0  0  0  0  0  0  0  0  0
   36.6990   30.4160   47.5750 C   0  0  0  0  0  0  0  0  0  0  0  0
   33.7330   29.6820   44.6870 C   0  0  0  0  0  0  0  0  0  0  0  0
   34.7060   29.9040   45.6410 C   0  0  0  0  0  0  0  0  0  0  0  0
   34.5010   29.6720   46.9760 C   0  0  0  0  0  0  0  0  0  0  0  0
   33.2820   29.2070   47.3150 N   0  0  0  0  0  0  0  0  0  0  0  0
   32.3270   28.9840   46.4190 C   0  0  0  0  0  0  0  0  0  0  0  0
   32.5530   29.2230   45.0970 N   0  0  0  0  0  0  0  0  0  0  0  0
   32.4310   26.0190   47.4220 Br  0  0  0  0  0  0  0  0  0  0  0  0
   30.9090   27.1830   47.2830 C   0  0  0  0  0  0  0  0  0  0  0  0
   31.0160   28.4800   46.8180 C   0  0  0  0  0  0  0  0  0  0  0  0
   29.8860   29.2810   46.7360 C   0  0  0  0  0  0  0  0  0  0  0  0
   28.6480   28.7660   47.1270 C   0  0  0  0  0  0  0  0  0  0  0  0
   28.5050   27.4670   47.5990 C   0  0  0  0  0  0  0  0  0  0  0  0
   29.6630   26.7090   47.6610 C   0  0  0  0  0  0  0  0  0  0  0  0
   37.7120   30.6670   48.6540 C   0  0  1  0  0  0  0  0  0  0  0  0
   38.5000   31.8660   48.3170 C   0  0  0  0  0  0  0  0  0  0  0  0
   38.5800   32.7990   49.3870 C   0  0  0  0  0  0  0  0  0  0  0  0
   39.2620   33.9880   49.3070 C   0  0  0  0  0  0  0  0  0  0  0  0
   39.9340   34.3540   48.1360 C   0  0  0  0  0  0  0  0  0  0  0  0
   39.8060   33.3910   47.1420 C   0  0  0  0  0  0  0  0  0  0  0  0
   39.1480   32.2230   47.1900 N   0  0  0  0  0  0  0  0  0  0  0  0
   36.7920   31.0760   50.1760 S   0  0  0  0  0  0  0  0  0  0  0  0
   36.8510   29.7260   51.3410 C   0  0  0  0  0  0  0  0  0  0  0  0
   37.5220   30.0440   52.5120 F   0  0  0  0  0  0  0  0  0  0  0  0
   35.5900   29.2200   51.5950 F   0  0  0  0  0  0  0  0  0  0  0  0
   37.5660   28.6870   50.7080 F   0  0  0  0  0  0  0  0  0  0  0  0
   35.3676   29.7251   48.9939 H   0  0  0  0  0  0  0  0  0  0  0  0
   36.9250   30.6314   46.5202 H   0  0  0  0  0  0  0  0  0  0  0  0
   33.9269   29.8782   43.6221 H   0  0  0  0  0  0  0  0  0  0  0  0
   35.6863   30.2828   45.3161 H   0  0  0  0  0  0  0  0  0  0  0  0
   29.9646   30.3139   46.3658 H   0  0  0  0  0  0  0  0  0  0  0  0
   27.7581   29.4091   47.0591 H   0  0  0  0  0  0  0  0  0  0  0  0
   27.5286   27.0637   47.9058 H   0  0  0  0  0  0  0  0  0  0  0  0
   29.5894   25.6754   48.0301 H   0  0  0  0  0  0  0  0  0  0  0  0
   38.3629   29.7877   48.7686 H   0  0  0  0  0  0  0  0  0  0  0  0
   38.0680   32.5551   50.3295 H   0  0  0  0  0  0  0  0  0  0  0  0
   39.2802   34.6622   50.1760 H   0  0  0  0  0  0  0  0  0  0  0  0
   40.4964   35.2917   48.0162 H   0  0  0  0  0  0  0  0  0  0  0  0
   40.3106   33.6162   46.1909 H   0  0  0  0  0  0  0  0  0  0  0  0
  2  1  2  0
  2 16  1  0
  3  8  2  0
  3  4  1  0
  4  5  2  0
  5  6  1  0
  5  1  1  0
  7 11  1  0
  7  6  2  0
  8  7  1  0
 10  9  1  0
 10 15  2  0
 11 10  1  0
 12 11  2  0
 12 13  1  0
 13 14  2  0
 14 15  1  0
 16 23  1  0
 17 16  1  0
 17 18  2  0
 19 18  1  0
 20 19  2  0
 21 22  2  0
 21 20  1  0
 22 17  1  0
 23 24  1  0
 24 26  1  0
 24 25  1  0
 27 24  1  0
  1 28  1  0
  2 29  1  0
  3 30  1  0
  4 31  1  0
 12 32  1  0
 13 33  1  0
 14 34  1  0
 15 35  1  0
 16 36  1  1
 18 37  1  0
 19 38  1  0
 20 39  1  0
 21 40  1  0
M  ISO  8  30  14  31  14  32  14  33  14  34  14  35  14  36   8  37  14
M  ISO  3  38  14  39  14  40  14
M  END
>  <minimizedAffinity>  (1) 
-6.68744802

>  <minimizedRMSD>  (1) 
0.643841028

$$$$
