
     RDKit          3D

 29 31  0  0  0  0  0  0  0  0999 V2000
   38.5180   31.4810   47.9230 C   0  0  0  0  0  0  0  0  0  0  0  0
   39.0310   32.7450   48.0890 C   0  0  0  0  0  0  0  0  0  0  0  0
   39.6740   33.4470   47.1000 C   0  0  0  0  0  0  0  0  0  0  0  0
   39.8250   32.8660   45.8560 C   0  0  0  0  0  0  0  0  0  0  0  0
   39.3080   31.6060   45.7110 C   0  0  0  0  0  0  0  0  0  0  0  0
   38.6840   30.9430   46.6920 N   0  0  0  0  0  0  0  0  0  0  0  0
   37.3450   30.1730   51.2600 C   0  0  0  0  0  0  0  0  0  0  0  0
   38.0850   30.9550   50.3520 C   0  0  0  0  0  0  0  0  0  0  0  0
   37.8350   30.7540   48.9930 C   0  0  0  0  0  0  0  0  0  0  0  0
   36.9130   29.8360   48.6530 N   0  0  0  0  0  0  0  0  0  0  0  0
   36.2130   29.0960   49.5390 C   0  0  0  0  0  0  0  0  0  0  0  0
   36.4380   29.2740   50.8370 N   0  0  0  0  0  0  0  0  0  0  0  0
   36.5760   30.8150   44.3540 Br  0  0  0  0  0  0  0  0  0  0  0  0
   38.3400   30.5250   43.6910 C   0  0  0  0  0  0  0  0  0  0  0  0
   39.4380   30.9390   44.4220 C   0  0  0  0  0  0  0  0  0  0  0  0
   40.6320   30.6520   43.7990 C   0  0  0  0  0  0  0  0  0  0  0  0
   40.7740   30.0220   42.5840 C   0  0  0  0  0  0  0  0  0  0  0  0
   39.6320   29.6380   41.9140 C   0  0  0  0  0  0  0  0  0  0  0  0
   38.3990   29.8940   42.4770 C   0  0  0  0  0  0  0  0  0  0  0  0
   38.9197   33.2229   49.0735 H   0  0  0  0  0  0  0  0  0  0  0  0
   40.0632   34.4571   47.2953 H   0  0  0  0  0  0  0  0  0  0  0  0
   40.3314   33.3855   45.0292 H   0  0  0  0  0  0  0  0  0  0  0  0
   37.5125   30.3002   52.3397 H   0  0  0  0  0  0  0  0  0  0  0  0
   38.8262   31.6906   50.6977 H   0  0  0  0  0  0  0  0  0  0  0  0
   35.4714   28.3606   49.1938 H   0  0  0  0  0  0  0  0  0  0  0  0
   41.5537   30.9530   44.3185 H   0  0  0  0  0  0  0  0  0  0  0  0
   41.7704   29.8302   42.1593 H   0  0  0  0  0  0  0  0  0  0  0  0
   39.7033   29.1323   40.9397 H   0  0  0  0  0  0  0  0  0  0  0  0
   37.4761   29.5955   41.9581 H   0  0  0  0  0  0  0  0  0  0  0  0
  1  2  2  0
  1  9  1  0
  3  2  1  0
  4  3  2  0
  5  4  1  0
  5  6  2  0
  6  1  1  0
  8  7  2  0
  9  8  1  0
 10  9  2  0
 10 11  1  0
 11 12  2  0
 12  7  1  0
 14 13  1  0
 14 15  2  0
 15  5  1  0
 16 15  1  0
 17 16  2  0
 18 19  2  0
 18 17  1  0
 19 14  1  0
  2 20  1  0
  3 21  1  0
  4 22  1  0
  7 23  1  0
  8 24  1  0
 11 25  1  0
 16 26  1  0
 17 27  1  0
 18 28  1  0
 19 29  1  0
M  ISO  8  20  14  21  14  22  14  23  14  24  14  25  14  26  14  27  14
M  ISO  2  28  14  29  14
M  END
>  <minimizedAffinity>  (1) 
-5.80301094

>  <minimizedRMSD>  (1) 
0.56222713

$$$$
