
     RDKit          3D

 46 49  0  0  1  0  0  0  0  0999 V2000
   40.4140   31.6460   44.3710 C   0  0  0  0  0  0  0  0  0  0  0  0
   39.9920   31.7960   43.0380 N   0  0  0  0  0  0  0  0  0  0  0  0
   39.4150   33.0320   42.6940 C   0  0  0  0  0  0  0  0  0  0  0  0
   37.9990   33.0000   42.2490 C   0  0  0  0  0  0  0  0  0  0  0  0
   37.7080   31.8990   41.4410 O   0  0  0  0  0  0  0  0  0  0  0  0
   38.0490   30.7360   42.0500 C   0  0  0  0  0  0  0  0  0  0  0  0
   39.5110   30.6760   42.3620 C   0  0  1  0  0  0  0  0  0  0  0  0
   39.7700   27.5830   42.4640 Br  0  0  0  0  0  0  0  0  0  0  0  0
   40.6000   28.7510   41.1710 C   0  0  0  0  0  0  0  0  0  0  0  0
   40.3630   30.1290   41.2980 C   0  0  0  0  0  0  0  0  0  0  0  0
   41.0200   30.8180   40.3060 C   0  0  0  0  0  0  0  0  0  0  0  0
   41.8070   30.2840   39.3130 C   0  0  0  0  0  0  0  0  0  0  0  0
   41.9770   28.9180   39.2790 C   0  0  0  0  0  0  0  0  0  0  0  0
   41.3680   28.1180   40.2190 C   0  0  0  0  0  0  0  0  0  0  0  0
   39.8620   32.5120   45.3910 C   0  0  0  0  0  0  0  0  0  0  0  0
   37.7400   30.9410   47.8210 C   0  0  0  0  0  0  0  0  0  0  0  0
   36.9650   30.8090   46.6850 C   0  0  0  0  0  0  0  0  0  0  0  0
   37.6800   31.3870   45.6310 C   0  0  0  0  0  0  0  0  0  0  0  0
   38.8230   31.8290   46.1550 N   0  0  0  0  0  0  0  0  0  0  0  0
   38.8580   31.5620   47.4670 N   0  0  0  0  0  0  0  0  0  0  0  0
   37.4540   30.1920   51.4860 C   0  0  0  0  0  0  0  0  0  0  0  0
   37.9530   30.7100   50.3110 C   0  0  0  0  0  0  0  0  0  0  0  0
   37.3110   30.4530   49.1080 C   0  0  0  0  0  0  0  0  0  0  0  0
   36.2020   29.6810   49.2040 N   0  0  0  0  0  0  0  0  0  0  0  0
   35.7200   29.1780   50.3680 C   0  0  0  0  0  0  0  0  0  0  0  0
   36.3620   29.4460   51.4930 N   0  0  0  0  0  0  0  0  0  0  0  0
   41.5041   31.7931   44.3809 H   0  0  0  0  0  0  0  0  0  0  0  0
   40.0456   30.6477   44.6498 H   0  0  0  0  0  0  0  0  0  0  0  0
   39.4734   33.6855   43.5769 H   0  0  0  0  0  0  0  0  0  0  0  0
   39.9861   33.3883   41.8240 H   0  0  0  0  0  0  0  0  0  0  0  0
   37.3524   32.9635   43.1382 H   0  0  0  0  0  0  0  0  0  0  0  0
   37.8207   33.9053   41.6501 H   0  0  0  0  0  0  0  0  0  0  0  0
   37.4815   30.6463   42.9880 H   0  0  0  0  0  0  0  0  0  0  0  0
   37.8135   29.9101   41.3627 H   0  0  0  0  0  0  0  0  0  0  0  0
   39.5987   29.8813   43.1175 H   0  0  0  0  0  0  0  0  0  0  0  0
   40.9038   31.9118   40.3069 H   0  0  0  0  0  0  0  0  0  0  0  0
   42.2883   30.9313   38.5651 H   0  0  0  0  0  0  0  0  0  0  0  0
   42.6027   28.4638   38.4966 H   0  0  0  0  0  0  0  0  0  0  0  0
   41.4890   27.0247   40.2103 H   0  0  0  0  0  0  0  0  0  0  0  0
   40.6668   32.8199   46.0747 H   0  0  0  0  0  0  0  0  0  0  0  0
   39.4148   33.3889   44.8999 H   0  0  0  0  0  0  0  0  0  0  0  0
   35.9729   30.3382   46.6214 H   0  0  0  0  0  0  0  0  0  0  0  0
   37.3627   31.4618   44.5804 H   0  0  0  0  0  0  0  0  0  0  0  0
   37.9720   30.4022   52.4333 H   0  0  0  0  0  0  0  0  0  0  0  0
   38.8624   31.3287   50.3265 H   0  0  0  0  0  0  0  0  0  0  0  0
   34.8113   28.5582   50.3762 H   0  0  0  0  0  0  0  0  0  0  0  0
  1 15  1  0
  2  1  1  0
  3  2  1  0
  4  3  1  0
  5  6  1  0
  5  4  1  0
  6  7  1  0
  7  2  1  0
  9 10  2  0
  9  8  1  0
 10  7  1  0
 11 10  1  0
 12 11  2  0
 13 12  1  0
 13 14  2  0
 14  9  1  0
 15 19  1  0
 16 23  1  0
 17 16  1  0
 18 19  1  0
 18 17  2  0
 19 20  1  0
 20 16  2  0
 21 26  2  0
 22 21  1  0
 23 24  1  0
 23 22  2  0
 24 25  2  0
 25 26  1  0
  1 27  1  0
  1 28  1  0
  3 29  1  0
  3 30  1  0
  4 31  1  0
  4 32  1  0
  6 33  1  0
  6 34  1  0
  7 35  1  1
 11 36  1  0
 12 37  1  0
 13 38  1  0
 14 39  1  0
 15 40  1  0
 15 41  1  0
 17 42  1  0
 18 43  1  0
 21 44  1  0
 22 45  1  0
 25 46  1  0
M  ISO  8  27   8  28   8  29  13  30  13  31  13  32  13  33  13  34  13
M  ISO  8  35  13  36  14  37  14  38  14  39  14  40   8  41   8  42  14
M  ISO  4  43  14  44  14  45  14  46  14
M  END
>  <minimizedAffinity>  (1) 
-5.85280085

>  <minimizedRMSD>  (1) 
0.998249054

$$$$
