
     RDKit          3D

 45 48  0  0  0  0  0  0  0  0999 V2000
   34.1190   29.9610   48.0240 C   0  0  0  0  0  0  0  0  0  0  0  0
   33.8840   28.9730   46.9260 C   0  0  0  0  0  0  0  0  0  0  0  0
   33.0160   27.8410   47.3500 C   0  0  0  0  0  0  0  0  0  0  0  0
   33.4840   26.5520   47.1720 C   0  0  0  0  0  0  0  0  0  0  0  0
   32.7490   25.4630   47.5340 C   0  0  0  0  0  0  0  0  0  0  0  0
   31.5570   25.6270   48.0700 N   0  0  0  0  0  0  0  0  0  0  0  0
   31.0810   26.8960   48.2530 C   0  0  0  0  0  0  0  0  0  0  0  0
   31.7850   28.0020   47.9040 N   0  0  0  0  0  0  0  0  0  0  0  0
   28.8200   26.6450   46.1490 Br  0  0  0  0  0  0  0  0  0  0  0  0
   28.6330   27.0260   48.0220 C   0  0  0  0  0  0  0  0  0  0  0  0
   29.7590   27.1070   48.8470 C   0  0  0  0  0  0  0  0  0  0  0  0
   29.5870   27.3810   50.1820 C   0  0  0  0  0  0  0  0  0  0  0  0
   28.3410   27.5810   50.7390 C   0  0  0  0  0  0  0  0  0  0  0  0
   27.2640   27.4900   49.8850 C   0  0  0  0  0  0  0  0  0  0  0  0
   27.3460   27.2180   48.5320 C   0  0  0  0  0  0  0  0  0  0  0  0
   34.5530   29.3030   49.1960 O   0  0  0  0  0  0  0  0  0  0  0  0
   37.2670   30.0040   51.4760 C   0  0  0  0  0  0  0  0  0  0  0  0
   38.1310   30.7400   50.6320 C   0  0  0  0  0  0  0  0  0  0  0  0
   37.7120   30.9450   49.3220 C   0  0  0  0  0  0  0  0  0  0  0  0
   36.4960   30.4090   48.9770 N   0  0  0  0  0  0  0  0  0  0  0  0
   35.7100   29.7240   49.7920 C   0  0  0  0  0  0  0  0  0  0  0  0
   36.1160   29.5240   51.0690 N   0  0  0  0  0  0  0  0  0  0  0  0
   38.7920   33.6300   49.4670 F   0  0  0  0  0  0  0  0  0  0  0  0
   38.9610   32.9210   48.3600 C   0  0  0  0  0  0  0  0  0  0  0  0
   38.4510   31.6680   48.3100 C   0  0  0  0  0  0  0  0  0  0  0  0
   38.6880   31.0150   47.0980 C   0  0  0  0  0  0  0  0  0  0  0  0
   39.3730   31.5920   46.0660 C   0  0  0  0  0  0  0  0  0  0  0  0
   39.8710   32.8590   46.1600 C   0  0  0  0  0  0  0  0  0  0  0  0
   39.6570   33.5260   47.3290 C   0  0  0  0  0  0  0  0  0  0  0  0
   33.1820   30.4970   48.2355 H   0  0  0  0  0  0  0  0  0  0  0  0
   34.8972   30.6699   47.7047 H   0  0  0  0  0  0  0  0  0  0  0  0
   34.8546   28.5701   46.6011 H   0  0  0  0  0  0  0  0  0  0  0  0
   33.3690   29.4995   46.1090 H   0  0  0  0  0  0  0  0  0  0  0  0
   34.4779   26.4013   46.7255 H   0  0  0  0  0  0  0  0  0  0  0  0
   33.1498   24.4504   47.3791 H   0  0  0  0  0  0  0  0  0  0  0  0
   30.4740   27.4431   50.8296 H   0  0  0  0  0  0  0  0  0  0  0  0
   28.2141   27.8016   51.8091 H   0  0  0  0  0  0  0  0  0  0  0  0
   26.2623   27.6456   50.3121 H   0  0  0  0  0  0  0  0  0  0  0  0
   26.4515   27.1564   47.8948 H   0  0  0  0  0  0  0  0  0  0  0  0
   37.5731   29.8266   52.5176 H   0  0  0  0  0  0  0  0  0  0  0  0
   39.0919   31.1329   50.9958 H   0  0  0  0  0  0  0  0  0  0  0  0
   38.3064   29.9914   46.9687 H   0  0  0  0  0  0  0  0  0  0  0  0
   39.5266   31.0219   45.1379 H   0  0  0  0  0  0  0  0  0  0  0  0
   40.4216   33.3221   45.3279 H   0  0  0  0  0  0  0  0  0  0  0  0
   40.0394   34.5499   47.4532 H   0  0  0  0  0  0  0  0  0  0  0  0
  1 16  1  0
  2  3  1  0
  2  1  1  0
  3  8  1  0
  4  3  2  0
  4  5  1  0
  5  6  2  0
  6  7  1  0
  7 11  1  0
  8  7  2  0
  9 10  1  0
 10 15  2  0
 10 11  1  0
 11 12  2  0
 12 13  1  0
 14 13  2  0
 15 14  1  0
 16 21  1  0
 18 17  2  0
 19 18  1  0
 20 19  2  0
 20 21  1  0
 21 22  2  0
 22 17  1  0
 24 23  1  0
 25 24  2  0
 25 19  1  0
 26 25  1  0
 27 28  1  0
 27 26  2  0
 28 29  2  0
 29 24  1  0
  1 30  1  0
  1 31  1  0
  2 32  1  0
  2 33  1  0
  4 34  1  0
  5 35  1  0
 12 36  1  0
 13 37  1  0
 14 38  1  0
 15 39  1  0
 17 40  1  0
 18 41  1  0
 26 42  1  0
 27 43  1  0
 28 44  1  0
 29 45  1  0
M  ISO  8  30   8  31   8  32   8  33   8  34  14  35  14  36  14  37  14
M  ISO  8  38  14  39  14  40  14  41  14  42  14  43  14  44  14  45  14
M  END
>  <minimizedAffinity>  (1) 
-7.38152933

>  <minimizedRMSD>  (1) 
3.11765957

$$$$
