
     RDKit          3D

 26 27  0  0  0  0  0  0  0  0999 V2000
   37.1730   31.4920   48.4700 N   0  0  0  0  0  0  0  0  0  0  0  0
   37.2340   32.2530   49.5890 C   0  0  0  0  0  0  0  0  0  0  0  0
   38.1730   33.2760   49.6790 C   0  0  0  0  0  0  0  0  0  0  0  0
   38.9690   33.4030   48.5690 C   0  0  0  0  0  0  0  0  0  0  0  0
   39.8510   34.3290   48.5970 O   0  0  0  0  0  0  0  0  0  0  0  0
   38.9310   32.6670   47.4540 N   0  0  0  0  0  0  0  0  0  0  0  0
   37.9960   31.6890   47.4290 C   0  0  0  0  0  0  0  0  0  0  0  0
   37.9450   30.9790   46.3770 O   0  0  0  0  0  0  0  0  0  0  0  0
   36.2730   29.3850   49.2770 C   0  0  0  0  0  0  0  0  0  0  0  0
   36.2270   30.4420   48.3490 C   0  0  0  0  0  0  0  0  0  0  0  0
   35.2410   30.3770   47.3650 C   0  0  0  0  0  0  0  0  0  0  0  0
   34.3910   29.3250   47.3460 N   0  0  0  0  0  0  0  0  0  0  0  0
   34.4630   28.3290   48.2530 C   0  0  0  0  0  0  0  0  0  0  0  0
   35.4010   28.3520   49.2210 N   0  0  0  0  0  0  0  0  0  0  0  0
   33.5160   27.1810   48.2110 C   0  0  0  0  0  0  0  0  0  0  0  0
   32.1200   27.6960   48.5540 C   0  0  0  0  0  0  0  0  0  0  0  0
   36.5435   32.0629   50.4239 H   0  0  0  0  0  0  0  0  0  0  0  0
   38.2685   33.9252   50.5618 H   0  0  0  0  0  0  0  0  0  0  0  0
   39.5718   32.8334   46.6650 H   0  0  0  0  0  0  0  0  0  0  0  0
   37.0373   29.3990   50.0680 H   0  0  0  0  0  0  0  0  0  0  0  0
   35.1553   31.1737   46.6114 H   0  0  0  0  0  0  0  0  0  0  0  0
   33.5120   26.7392   47.2036 H   0  0  0  0  0  0  0  0  0  0  0  0
   33.8231   26.4106   48.9337 H   0  0  0  0  0  0  0  0  0  0  0  0
   32.0033   27.7390   49.6470 H   0  0  0  0  0  0  0  0  0  0  0  0
   31.9864   28.7026   48.1311 H   0  0  0  0  0  0  0  0  0  0  0  0
   31.3646   27.0173   48.1311 H   0  0  0  0  0  0  0  0  0  0  0  0
  1  2  1  0
  2  3  2  0
  4  5  2  0
  4  3  1  0
  6  4  1  0
  7  6  1  0
  7  1  1  0
  8  7  2  0
 10  1  1  0
 10  9  2  0
 11 10  1  0
 12 11  2  0
 12 13  1  0
 13 14  2  0
 14  9  1  0
 15 13  1  0
 15 16  1  0
  2 17  1  0
  3 18  1  0
  6 19  1  0
  9 20  1  0
 11 21  1  0
 15 22  1  0
 15 23  1  0
 16 24  1  0
 16 25  1  0
 16 26  1  0
M  ISO  8  17  14  18  14  19   9  20  14  21  14  22   8  23   8  24   8
M  ISO  2  25   8  26   8
M  END
>  <minimizedAffinity>  (1) 
-5.12286568

>  <minimizedRMSD>  (1) 
0.46361509

$$$$
