
     RDKit          3D

 38 40  0  0  1  0  0  0  0  0999 V2000
   32.7060   27.9080   48.5200 N   0  0  0  0  0  0  0  0  0  0  0  0
   33.4900   27.6700   47.3170 C   0  0  0  0  0  0  0  0  0  0  0  0
   34.7090   28.5220   47.5250 C   0  0  0  0  0  0  0  0  0  0  0  0
   34.3810   29.3780   48.8320 C   0  0  1  0  0  0  0  0  0  0  0  0
   33.6150   28.3780   49.5810 C   0  0  0  0  0  0  0  0  0  0  0  0
   36.1930   31.0480   47.4210 F   0  0  0  0  0  0  0  0  0  0  0  0
   36.4240   30.6500   48.6870 C   0  0  0  0  0  0  0  0  0  0  0  0
   35.6540   29.7910   49.4350 C   0  0  0  0  0  0  0  0  0  0  0  0
   36.0810   29.4670   50.7370 C   0  0  0  0  0  0  0  0  0  0  0  0
   37.2420   29.9910   51.2650 C   0  0  0  0  0  0  0  0  0  0  0  0
   38.0090   30.8600   50.4890 C   0  0  0  0  0  0  0  0  0  0  0  0
   37.5850   31.1840   49.1890 C   0  0  0  0  0  0  0  0  0  0  0  0
   38.4810   32.1150   48.4620 C   0  0  0  0  0  0  0  0  0  0  0  0
   38.7410   33.4070   49.2160 C   0  0  0  0  0  0  0  0  0  0  0  0
   31.3160   27.7360   48.6780 C   0  0  0  0  0  0  0  0  0  0  0  0
   30.6310   27.2380   47.5630 C   0  0  0  0  0  0  0  0  0  0  0  0
   29.2400   27.0530   47.6550 C   0  0  0  0  0  0  0  0  0  0  0  0
   28.6500   27.3810   48.8510 N   0  0  0  0  0  0  0  0  0  0  0  0
   29.3380   27.8530   49.8900 C   0  0  0  0  0  0  0  0  0  0  0  0
   30.6740   28.0280   49.7970 N   0  0  0  0  0  0  0  0  0  0  0  0
   32.9384   27.9840   46.4186 H   0  0  0  0  0  0  0  0  0  0  0  0
   33.7288   26.6075   47.1620 H   0  0  0  0  0  0  0  0  0  0  0  0
   35.5988   27.8952   47.6841 H   0  0  0  0  0  0  0  0  0  0  0  0
   34.9290   29.1567   46.6539 H   0  0  0  0  0  0  0  0  0  0  0  0
   33.8267   30.3224   48.7280 H   0  0  0  0  0  0  0  0  0  0  0  0
   33.0650   28.8289   50.4201 H   0  0  0  0  0  0  0  0  0  0  0  0
   34.2190   27.5914   50.0569 H   0  0  0  0  0  0  0  0  0  0  0  0
   35.4749   28.7806   51.3465 H   0  0  0  0  0  0  0  0  0  0  0  0
   37.5591   29.7272   52.2847 H   0  0  0  0  0  0  0  0  0  0  0  0
   38.9387   31.2884   50.8916 H   0  0  0  0  0  0  0  0  0  0  0  0
   39.4435   31.6110   48.2900 H   0  0  0  0  0  0  0  0  0  0  0  0
   37.9798   32.3818   47.5199 H   0  0  0  0  0  0  0  0  0  0  0  0
   38.7022   33.2141   50.2983 H   0  0  0  0  0  0  0  0  0  0  0  0
   39.7351   33.7943   48.9480 H   0  0  0  0  0  0  0  0  0  0  0  0
   37.9741   34.1486   48.9480 H   0  0  0  0  0  0  0  0  0  0  0  0
   31.1695   26.9966   46.6347 H   0  0  0  0  0  0  0  0  0  0  0  0
   28.6529   26.6644   46.8099 H   0  0  0  0  0  0  0  0  0  0  0  0
   28.8163   28.1008   50.8262 H   0  0  0  0  0  0  0  0  0  0  0  0
  1 15  1  0
  1  5  1  0
  2  3  1  0
  2  1  1  0
  3  4  1  0
  4  8  1  0
  4  5  1  0
  6  7  1  0
  7 12  2  0
  7  8  1  0
  8  9  2  0
  9 10  1  0
 11 10  2  0
 12 11  1  0
 13 12  1  0
 13 14  1  0
 15 20  2  0
 16 17  2  0
 16 15  1  0
 17 18  1  0
 18 19  2  0
 20 19  1  0
  2 21  1  0
  2 22  1  0
  3 23  1  0
  3 24  1  0
  4 25  1  6
  5 26  1  0
  5 27  1  0
  9 28  1  0
 10 29  1  0
 11 30  1  0
 13 31  1  0
 13 32  1  0
 14 33  1  0
 14 34  1  0
 14 35  1  0
 16 36  1  0
 17 37  1  0
 19 38  1  0
M  ISO  8  21  13  22  13  23  13  24  13  25  13  26  13  27  13  28  14
M  ISO  8  29  14  30  14  31   8  32   8  33   8  34   8  35   8  36  14
M  ISO  2  37  14  38  14
M  END
>  <minimizedAffinity>  (1) 
-6.47519016

>  <minimizedRMSD>  (1) 
2.98142362

$$$$
