
     RDKit          3D

 42 44  0  0  1  0  0  0  0  0999 V2000
   37.1840   29.2190   50.4960 C   0  0  0  0  0  0  0  0  0  0  0  0
   37.3410   30.5850   50.8340 C   0  0  0  0  0  0  0  0  0  0  0  0
   36.6110   31.5040   50.0900 C   0  0  0  0  0  0  0  0  0  0  0  0
   35.8040   31.0380   49.1010 N   0  0  0  0  0  0  0  0  0  0  0  0
   35.6860   29.7240   48.8150 C   0  0  0  0  0  0  0  0  0  0  0  0
   36.3720   28.8200   49.5080 N   0  0  0  0  0  0  0  0  0  0  0  0
   34.8280   29.3370   47.7750 N   0  0  0  0  0  0  0  0  0  0  0  0
   34.1710   28.0190   47.7760 C   0  0  0  0  0  0  0  0  0  0  0  0
   32.6990   28.2060   47.6530 C   0  0  0  0  0  0  0  0  0  0  0  0
   32.2540   29.4120   47.1720 N   0  0  0  0  0  0  0  0  0  0  0  0
   33.1040   30.2890   46.4120 C   0  0  0  0  0  0  0  0  0  0  0  0
   34.5340   30.1980   46.6440 C   0  0  2  0  0  0  0  0  0  0  0  0
   35.2770   29.6670   45.5030 N   0  0  0  0  0  0  0  0  0  0  0  0
   36.4960   30.4070   45.2590 C   0  0  0  0  0  0  0  0  0  0  0  0
   36.7050   30.4520   43.7620 C   0  0  0  0  0  0  0  0  0  0  0  0
   35.6680   29.5250   43.2580 C   0  0  0  0  0  0  0  0  0  0  0  0
   34.5280   29.6560   44.2930 C   0  0  1  0  0  0  0  0  0  0  0  0
   33.7350   28.4430   43.9650 C   0  0  0  0  0  0  0  0  0  0  0  0
   34.6200   27.2220   44.1480 C   0  0  0  0  0  0  0  0  0  0  0  0
   37.7462   28.4619   51.0623 H   0  0  0  0  0  0  0  0  0  0  0  0
   38.0095   30.9038   51.6474 H   0  0  0  0  0  0  0  0  0  0  0  0
   36.6846   32.5819   50.2965 H   0  0  0  0  0  0  0  0  0  0  0  0
   34.5386   27.4240   46.9270 H   0  0  0  0  0  0  0  0  0  0  0  0
   34.3997   27.4926   48.7144 H   0  0  0  0  0  0  0  0  0  0  0  0
   32.3219   27.4225   46.9792 H   0  0  0  0  0  0  0  0  0  0  0  0
   32.3219   28.1581   48.6852 H   0  0  0  0  0  0  0  0  0  0  0  0
   31.4448   29.2018   46.5705 H   0  0  0  0  0  0  0  0  0  0  0  0
   32.7981   31.3215   46.6365 H   0  0  0  0  0  0  0  0  0  0  0  0
   32.9678   29.9768   45.3661 H   0  0  0  0  0  0  0  0  0  0  0  0
   34.8519   31.2343   46.8311 H   0  0  0  0  0  0  0  0  0  0  0  0
   36.4019   31.4284   45.6565 H   0  0  0  0  0  0  0  0  0  0  0  0
   37.3500   29.9240   45.7563 H   0  0  0  0  0  0  0  0  0  0  0  0
   36.5515   31.4686   43.3709 H   0  0  0  0  0  0  0  0  0  0  0  0
   37.7241   30.1731   43.4561 H   0  0  0  0  0  0  0  0  0  0  0  0
   35.3257   29.8257   42.2568 H   0  0  0  0  0  0  0  0  0  0  0  0
   36.0328   28.4926   43.1529 H   0  0  0  0  0  0  0  0  0  0  0  0
   33.8322   30.5071   44.3314 H   0  0  0  0  0  0  0  0  0  0  0  0
   33.3890   28.4971   42.9222 H   0  0  0  0  0  0  0  0  0  0  0  0
   32.8595   28.3756   44.6276 H   0  0  0  0  0  0  0  0  0  0  0  0
   34.7603   27.0284   45.2217 H   0  0  0  0  0  0  0  0  0  0  0  0
   34.1431   26.3496   43.6774 H   0  0  0  0  0  0  0  0  0  0  0  0
   35.5975   27.4038   43.6774 H   0  0  0  0  0  0  0  0  0  0  0  0
  1  2  2  0
  3  2  1  0
  4  3  2  0
  5  4  1  0
  5  6  2  0
  6  1  1  0
  7  8  1  0
  7  5  1  0
  9  8  1  0
 10  9  1  0
 11 12  1  0
 11 10  1  0
 12  7  1  0
 13 14  1  0
 13 12  1  0
 15 14  1  0
 16 15  1  0
 16 17  1  0
 17 13  1  0
 18 19  1  0
 18 17  1  0
  1 20  1  0
  2 21  1  0
  3 22  1  0
  8 23  1  0
  8 24  1  0
  9 25  1  0
  9 26  1  0
 10 27  1  0
 11 28  1  0
 11 29  1  0
 12 30  1  1
 14 31  1  0
 14 32  1  0
 15 33  1  0
 15 34  1  0
 16 35  1  0
 16 36  1  0
 17 37  1  6
 18 38  1  0
 18 39  1  0
 19 40  1  0
 19 41  1  0
 19 42  1  0
M  ISO  8  20  14  21  14  22  14  23  13  24  13  25  13  26  13  27   5
M  ISO  8  28  13  29  13  30  13  31  13  32  13  33  13  34  13  35  13
M  ISO  7  36  13  37  13  38   8  39   8  40   8  41   8  42   8
M  END
>  <minimizedAffinity>  (1) 
-4.46649837

>  <minimizedRMSD>  (1) 
0.231126979

$$$$
