
     RDKit          3D

 25 26  0  0  0  0  0  0  0  0999 V2000
   37.1050   30.2670   50.3240 C   0  0  0  0  0  0  0  0  0  0  0  0
   37.5130   30.1220   51.4990 O   0  0  0  0  0  0  0  0  0  0  0  0
   37.7850   31.0860   49.3350 C   0  0  0  0  0  0  0  0  0  0  0  0
   38.0950   32.3890   49.7030 C   0  0  0  0  0  0  0  0  0  0  0  0
   38.7490   33.1990   48.7710 C   0  0  0  0  0  0  0  0  0  0  0  0
   39.0450   32.6530   47.5470 N   0  0  0  0  0  0  0  0  0  0  0  0
   38.7300   31.3900   47.2240 C   0  0  0  0  0  0  0  0  0  0  0  0
   38.0980   30.6020   48.1190 N   0  0  0  0  0  0  0  0  0  0  0  0
   35.8870   29.5860   49.9170 C   0  0  0  0  0  0  0  0  0  0  0  0
   34.6680   29.9280   50.4100 C   0  0  0  0  0  0  0  0  0  0  0  0
   33.7440   29.0680   49.7980 C   0  0  0  0  0  0  0  0  0  0  0  0
   34.4820   28.2510   48.9620 C   0  0  0  0  0  0  0  0  0  0  0  0
   35.7340   28.5920   49.0650 O   0  0  0  0  0  0  0  0  0  0  0  0
   34.0460   27.1530   48.0630 C   0  0  0  0  0  0  0  0  0  0  0  0
   32.5640   27.0260   48.0330 C   0  0  0  0  0  0  0  0  0  0  0  0
   37.8330   32.7725   50.7001 H   0  0  0  0  0  0  0  0  0  0  0  0
   39.0174   34.2386   49.0101 H   0  0  0  0  0  0  0  0  0  0  0  0
   38.9868   30.9963   46.2295 H   0  0  0  0  0  0  0  0  0  0  0  0
   34.4496   30.7198   51.1417 H   0  0  0  0  0  0  0  0  0  0  0  0
   32.6550   29.0479   49.9519 H   0  0  0  0  0  0  0  0  0  0  0  0
   34.4073   27.3604   47.0449 H   0  0  0  0  0  0  0  0  0  0  0  0
   34.4647   26.2097   48.4437 H   0  0  0  0  0  0  0  0  0  0  0  0
   32.1779   26.9929   49.0625 H   0  0  0  0  0  0  0  0  0  0  0  0
   32.1325   27.8905   47.5072 H   0  0  0  0  0  0  0  0  0  0  0  0
   32.2858   26.1007   47.5072 H   0  0  0  0  0  0  0  0  0  0  0  0
  1  2  2  0
  3  4  2  0
  3  1  1  0
  5  4  1  0
  6  5  2  0
  7  6  1  0
  7  8  2  0
  8  3  1  0
  9  1  1  0
  9 10  2  0
 11 10  1  0
 12 13  1  0
 12 11  2  0
 13  9  1  0
 14 12  1  0
 15 14  1  0
  4 16  1  0
  5 17  1  0
  7 18  1  0
 10 19  1  0
 11 20  1  0
 14 21  1  0
 14 22  1  0
 15 23  1  0
 15 24  1  0
 15 25  1  0
M  ISO  8  16  14  17  14  18  14  19  14  20  14  21   8  22   8  23   8
M  ISO  2  24   8  25   8
M  END
>  <minimizedAffinity>  (1) 
-4.90715504

>  <minimizedRMSD>  (1) 
0.414918363

$$$$
