
     RDKit          3D

 28 29  0  0  1  0  0  0  0  0999 V2000
   36.9150   30.6410   50.5940 C   0  0  1  0  0  0  0  0  0  0  0  0
   36.1240   29.4460   50.3070 C   0  0  2  0  0  0  0  0  0  0  0  0
   37.5040   29.2360   50.8530 C   0  0  0  0  0  0  0  0  0  0  0  0
   37.6740   31.3620   49.5150 C   0  0  0  0  0  0  0  0  0  0  0  0
   37.9740   32.6970   49.7680 C   0  0  0  0  0  0  0  0  0  0  0  0
   38.6670   33.3410   48.7470 C   0  0  0  0  0  0  0  0  0  0  0  0
   39.0110   32.6820   47.6000 N   0  0  0  0  0  0  0  0  0  0  0  0
   38.6990   31.3730   47.3930 C   0  0  0  0  0  0  0  0  0  0  0  0
   38.0170   30.7100   48.3760 N   0  0  0  0  0  0  0  0  0  0  0  0
   39.1000   30.7260   46.1310 C   0  0  0  0  0  0  0  0  0  0  0  0
   40.4460   31.1990   45.6390 C   0  0  0  0  0  0  0  0  0  0  0  0
   35.8710   29.1600   48.9730 O   0  0  0  0  0  0  0  0  0  0  0  0
   34.7020   29.0210   48.3120 C   0  0  0  0  0  0  0  0  0  0  0  0
   34.2950   27.9190   47.8870 O   0  0  0  0  0  0  0  0  0  0  0  0
   34.1080   30.2820   48.2230 N   0  0  0  0  0  0  0  0  0  0  0  0
   36.6611   31.5594   51.1437 H   0  0  0  0  0  0  0  0  0  0  0  0
   35.1337   29.0812   50.6172 H   0  0  0  0  0  0  0  0  0  0  0  0
   38.3034   28.8397   50.2096 H   0  0  0  0  0  0  0  0  0  0  0  0
   37.9456   28.7070   51.7104 H   0  0  0  0  0  0  0  0  0  0  0  0
   37.6862   33.2034   50.7011 H   0  0  0  0  0  0  0  0  0  0  0  0
   38.9428   34.3993   48.8653 H   0  0  0  0  0  0  0  0  0  0  0  0
   39.1456   29.6387   46.2914 H   0  0  0  0  0  0  0  0  0  0  0  0
   38.3537   30.9923   45.3680 H   0  0  0  0  0  0  0  0  0  0  0  0
   41.0920   31.4260   46.4999 H   0  0  0  0  0  0  0  0  0  0  0  0
   40.9113   30.4105   45.0292 H   0  0  0  0  0  0  0  0  0  0  0  0
   40.3158   32.1052   45.0292 H   0  0  0  0  0  0  0  0  0  0  0  0
   33.1997   30.3912   47.7497 H   0  0  0  0  0  0  0  0  0  0  0  0
   34.5782   31.1027   48.6307 H   0  0  0  0  0  0  0  0  0  0  0  0
  1  3  1  0
  2  1  1  0
  2  3  1  0
  4  5  2  0
  4  1  1  0
  6  5  1  0
  7  6  2  0
  8  7  1  0
  8  9  2  0
  9  4  1  0
 10  8  1  0
 11 10  1  0
 12  2  1  0
 13 12  1  0
 14 13  2  0
 15 13  1  0
  1 16  1  1
  2 17  1  1
  3 18  1  0
  3 19  1  0
  5 20  1  0
  6 21  1  0
 10 22  1  0
 10 23  1  0
 11 24  1  0
 11 25  1  0
 11 26  1  0
 15 27  1  0
 15 28  1  0
M  ISO  8  16  13  17  13  18  13  19  13  20  14  21  14  22   8  23   8
M  ISO  3  24   8  25   8  26   8
M  END
>  <minimizedAffinity>  (1) 
-5.14496851

>  <minimizedRMSD>  (1) 
1.5315671

$$$$
