
     RDKit          3D

 36 37  0  0  1  0  0  0  0  0999 V2000
   37.7590   30.6830   48.7120 C   0  0  2  0  0  0  0  0  0  0  0  0
   38.5440   31.8670   48.3160 C   0  0  0  0  0  0  0  0  0  0  0  0
   38.6350   32.8380   49.3470 C   0  0  0  0  0  0  0  0  0  0  0  0
   39.3170   34.0290   49.2090 C   0  0  0  0  0  0  0  0  0  0  0  0
   39.9690   34.3370   48.0030 C   0  0  0  0  0  0  0  0  0  0  0  0
   39.8270   33.3320   47.0540 C   0  0  0  0  0  0  0  0  0  0  0  0
   39.1730   32.1750   47.1670 N   0  0  0  0  0  0  0  0  0  0  0  0
   35.6130   29.8030   48.1110 C   0  0  0  0  0  0  0  0  0  0  0  0
   36.6540   30.4610   47.7180 C   0  0  0  0  0  0  0  0  0  0  0  0
   33.4990   29.7180   45.0440 C   0  0  0  0  0  0  0  0  0  0  0  0
   34.5410   29.9310   45.9250 C   0  0  0  0  0  0  0  0  0  0  0  0
   34.5000   29.5480   47.2400 C   0  0  0  0  0  0  0  0  0  0  0  0
   33.3580   28.9340   47.6440 N   0  0  0  0  0  0  0  0  0  0  0  0
   32.3430   28.7190   46.8130 C   0  0  0  0  0  0  0  0  0  0  0  0
   32.4010   29.1050   45.5160 N   0  0  0  0  0  0  0  0  0  0  0  0
   31.0880   28.0490   47.2400 C   0  0  0  0  0  0  0  0  0  0  0  0
   31.1880   27.6000   48.6780 C   0  0  0  0  0  0  0  0  0  0  0  0
   36.9670   31.1070   50.3020 S   0  0  0  0  0  0  0  0  0  0  0  0
   36.9640   29.7100   51.4090 C   0  0  0  0  0  0  0  0  0  0  0  0
   37.6280   29.9520   52.6010 F   0  0  0  0  0  0  0  0  0  0  0  0
   35.6760   29.2440   51.6290 F   0  0  0  0  0  0  0  0  0  0  0  0
   37.6500   28.6720   50.7460 F   0  0  0  0  0  0  0  0  0  0  0  0
   38.3994   29.7906   48.7717 H   0  0  0  0  0  0  0  0  0  0  0  0
   38.1362   32.6302   50.3051 H   0  0  0  0  0  0  0  0  0  0  0  0
   39.3506   34.7409   50.0469 H   0  0  0  0  0  0  0  0  0  0  0  0
   40.5284   35.2682   47.8298 H   0  0  0  0  0  0  0  0  0  0  0  0
   40.3165   33.5138   46.0858 H   0  0  0  0  0  0  0  0  0  0  0  0
   35.5786   29.4269   49.1441 H   0  0  0  0  0  0  0  0  0  0  0  0
   36.7285   30.8456   46.6901 H   0  0  0  0  0  0  0  0  0  0  0  0
   33.5658   30.0387   43.9939 H   0  0  0  0  0  0  0  0  0  0  0  0
   35.4470   30.4320   45.5534 H   0  0  0  0  0  0  0  0  0  0  0  0
   30.2495   28.7537   47.1388 H   0  0  0  0  0  0  0  0  0  0  0  0
   30.9227   27.1670   46.6038 H   0  0  0  0  0  0  0  0  0  0  0  0
   30.9976   28.4551   49.3432 H   0  0  0  0  0  0  0  0  0  0  0  0
   30.4430   26.8136   48.8692 H   0  0  0  0  0  0  0  0  0  0  0  0
   32.1963   27.2041   48.8692 H   0  0  0  0  0  0  0  0  0  0  0  0
  1 18  1  0
  2  1  1  0
  2  3  2  0
  4  3  1  0
  5  4  2  0
  6  7  2  0
  6  5  1  0
  7  2  1  0
  9  8  2  0
  9  1  1  0
 10 15  2  0
 10 11  1  0
 11 12  2  0
 12 13  1  0
 12  8  1  0
 14 16  1  0
 14 13  2  0
 15 14  1  0
 16 17  1  0
 18 19  1  0
 19 21  1  0
 19 20  1  0
 22 19  1  0
  1 23  1  1
  3 24  1  0
  4 25  1  0
  5 26  1  0
  6 27  1  0
  8 28  1  0
  9 29  1  0
 10 30  1  0
 11 31  1  0
 16 32  1  0
 16 33  1  0
 17 34  1  0
 17 35  1  0
 17 36  1  0
M  ISO  8  23   8  24  14  25  14  26  14  27  14  30  14  31  14  32   8
M  ISO  4  33   8  34   8  35   8  36   8
M  END
>  <minimizedAffinity>  (1) 
-6.01703596

>  <minimizedRMSD>  (1) 
0.41872412

$$$$
