
     RDKit          3D

 26 27  0  0  0  0  0  0  0  0999 V2000
   37.7440   33.3130   49.5480 Cl  0  0  0  0  0  0  0  0  0  0  0  0
   38.3430   32.3960   48.1870 C   0  0  0  0  0  0  0  0  0  0  0  0
   37.7800   31.1570   48.0420 C   0  0  0  0  0  0  0  0  0  0  0  0
   38.2000   30.3530   46.9740 C   0  0  0  0  0  0  0  0  0  0  0  0
   39.1440   30.7800   46.0960 C   0  0  0  0  0  0  0  0  0  0  0  0
   39.6980   32.0250   46.2580 C   0  0  0  0  0  0  0  0  0  0  0  0
   40.9150   32.6010   45.1360 Cl  0  0  0  0  0  0  0  0  0  0  0  0
   39.2960   32.8270   47.3000 C   0  0  0  0  0  0  0  0  0  0  0  0
   37.1650   29.8750   50.0510 C   0  0  0  0  0  0  0  0  0  0  0  0
   36.7610   30.5090   48.8590 C   0  0  0  0  0  0  0  0  0  0  0  0
   35.3960   30.4710   48.5460 C   0  0  0  0  0  0  0  0  0  0  0  0
   34.5420   29.8370   49.3880 N   0  0  0  0  0  0  0  0  0  0  0  0
   34.9710   29.2390   50.5220 C   0  0  0  0  0  0  0  0  0  0  0  0
   36.2800   29.2600   50.8500 N   0  0  0  0  0  0  0  0  0  0  0  0
   39.8840   34.1750   47.4940 C   0  0  0  0  0  0  0  0  0  0  0  0
   40.0340   34.5780   48.9300 C   0  0  0  0  0  0  0  0  0  0  0  0
   37.7558   29.3551   46.8440 H   0  0  0  0  0  0  0  0  0  0  0  0
   39.4612   30.1346   45.2636 H   0  0  0  0  0  0  0  0  0  0  0  0
   38.2284   29.8846   50.3322 H   0  0  0  0  0  0  0  0  0  0  0  0
   35.0214   30.9493   47.6290 H   0  0  0  0  0  0  0  0  0  0  0  0
   34.2497   28.7329   51.1805 H   0  0  0  0  0  0  0  0  0  0  0  0
   40.8794   34.1880   47.0261 H   0  0  0  0  0  0  0  0  0  0  0  0
   39.1884   34.8928   47.0348 H   0  0  0  0  0  0  0  0  0  0  0  0
   39.7241   33.7455   49.5788 H   0  0  0  0  0  0  0  0  0  0  0  0
   41.0857   34.8288   49.1325 H   0  0  0  0  0  0  0  0  0  0  0  0
   39.4022   35.4554   49.1325 H   0  0  0  0  0  0  0  0  0  0  0  0
  2  1  1  0
  3  2  2  0
  3 10  1  0
  4  3  1  0
  5  6  1  0
  5  4  2  0
  6  8  2  0
  7  6  1  0
  8 15  1  0
  8  2  1  0
  9 14  2  0
 10  9  1  0
 11 10  2  0
 11 12  1  0
 12 13  2  0
 13 14  1  0
 15 16  1  0
  4 17  1  0
  5 18  1  0
  9 19  1  0
 11 20  1  0
 13 21  1  0
 15 22  1  0
 15 23  1  0
 16 24  1  0
 16 25  1  0
 16 26  1  0
M  ISO  8  17  14  18  14  19  14  20  14  21  14  22   8  23   8  24   8
M  ISO  2  25   8  26   8
M  END
>  <minimizedAffinity>  (1) 
-5.32325983

>  <minimizedRMSD>  (1) 
0.568819046

$$$$
