
     RDKit          3D

 17 17  0  0  0  0  0  0  0  0999 V2000
   36.8220   29.8460   51.2110 C   0  0  0  0  0  0  0  0  0  0  0  0
   37.1220   30.7080   50.1570 C   0  0  0  0  0  0  0  0  0  0  0  0
   36.1640   30.9240   49.1750 C   0  0  0  0  0  0  0  0  0  0  0  0
   34.9740   30.2820   49.2910 N   0  0  0  0  0  0  0  0  0  0  0  0
   34.6980   29.4480   50.3220 C   0  0  0  0  0  0  0  0  0  0  0  0
   35.6270   29.2440   51.2660 N   0  0  0  0  0  0  0  0  0  0  0  0
   37.8830   29.7370   52.1100 O   0  0  0  0  0  0  0  0  0  0  0  0
   38.3930   31.4280   49.9900 C   0  0  0  0  0  0  0  0  0  0  0  0
   38.1030   32.7680   49.3460 C   0  0  0  0  0  0  0  0  0  0  0  0
   36.3640   31.5961   48.3275 H   0  0  0  0  0  0  0  0  0  0  0  0
   33.7223   28.9438   50.3837 H   0  0  0  0  0  0  0  0  0  0  0  0
   38.7203   30.2407   51.9509 H   0  0  0  0  0  0  0  0  0  0  0  0
   38.8644   31.5821   50.9719 H   0  0  0  0  0  0  0  0  0  0  0  0
   39.0772   30.8446   49.3564 H   0  0  0  0  0  0  0  0  0  0  0  0
   37.9395   33.5233   50.1288 H   0  0  0  0  0  0  0  0  0  0  0  0
   38.9573   33.0669   48.7208 H   0  0  0  0  0  0  0  0  0  0  0  0
   37.2016   32.6869   48.7208 H   0  0  0  0  0  0  0  0  0  0  0  0
  1  6  2  0
  1  7  1  0
  2  1  1  0
  3  4  1  0
  3  2  2  0
  4  5  2  0
  5  6  1  0
  8  2  1  0
  9  8  1  0
  3 10  1  0
  5 11  1  0
  7 12  1  0
  8 13  1  0
  8 14  1  0
  9 15  1  0
  9 16  1  0
  9 17  1  0
M  ISO  8  10  14  11  14  12   3  13   8  14   8  15   8  16   8  17   8
M  END
>  <minimizedAffinity>  (1) 
-4.26504135

>  <minimizedRMSD>  (1) 
1.48621881

$$$$
