
     RDKit          3D

 26 27  0  0  0  0  0  0  0  0999 V2000
   36.5610   32.0110   50.1570 Cl  0  0  0  0  0  0  0  0  0  0  0  0
   37.4580   31.7360   48.6850 C   0  0  0  0  0  0  0  0  0  0  0  0
   37.0850   30.7440   47.8190 C   0  0  0  0  0  0  0  0  0  0  0  0
   37.8470   30.5960   46.6920 C   0  0  0  0  0  0  0  0  0  0  0  0
   38.9340   31.3590   46.3820 C   0  0  0  0  0  0  0  0  0  0  0  0
   39.2880   32.3510   47.2750 C   0  0  0  0  0  0  0  0  0  0  0  0
   38.5500   32.5530   48.4430 C   0  0  0  0  0  0  0  0  0  0  0  0
   34.7770   28.2640   49.5070 C   0  0  0  0  0  0  0  0  0  0  0  0
   35.9180   29.0290   49.2150 C   0  0  0  0  0  0  0  0  0  0  0  0
   35.9280   29.9380   48.1560 C   0  0  0  0  0  0  0  0  0  0  0  0
   34.7690   30.0150   47.4500 N   0  0  0  0  0  0  0  0  0  0  0  0
   33.6900   29.2840   47.7360 C   0  0  0  0  0  0  0  0  0  0  0  0
   33.6800   28.4110   48.7500 N   0  0  0  0  0  0  0  0  0  0  0  0
   38.9210   33.6170   49.4180 C   0  0  0  0  0  0  0  0  0  0  0  0
   39.8770   34.6120   48.8110 C   0  0  0  0  0  0  0  0  0  0  0  0
   37.5619   29.8036   45.9843 H   0  0  0  0  0  0  0  0  0  0  0  0
   39.5059   31.1909   45.4575 H   0  0  0  0  0  0  0  0  0  0  0  0
   40.1596   32.9881   47.0642 H   0  0  0  0  0  0  0  0  0  0  0  0
   34.7831   27.5530   50.3463 H   0  0  0  0  0  0  0  0  0  0  0  0
   36.8205   28.9095   49.8324 H   0  0  0  0  0  0  0  0  0  0  0  0
   32.7849   29.4021   47.1221 H   0  0  0  0  0  0  0  0  0  0  0  0
   38.0096   34.1446   49.7356 H   0  0  0  0  0  0  0  0  0  0  0  0
   39.4167   33.1411   50.2769 H   0  0  0  0  0  0  0  0  0  0  0  0
   40.3989   35.1551   49.6127 H   0  0  0  0  0  0  0  0  0  0  0  0
   40.6125   34.0812   48.1887 H   0  0  0  0  0  0  0  0  0  0  0  0
   39.3172   35.3257   48.1887 H   0  0  0  0  0  0  0  0  0  0  0  0
  2  1  1  0
  3 10  1  0
  3  2  2  0
  4  3  1  0
  5  4  2  0
  5  6  1  0
  6  7  2  0
  7  2  1  0
  7 14  1  0
  9  8  2  0
 10  9  1  0
 11 12  1  0
 11 10  2  0
 12 13  2  0
 13  8  1  0
 15 14  1  0
  4 16  1  0
  5 17  1  0
  6 18  1  0
  8 19  1  0
  9 20  1  0
 12 21  1  0
 14 22  1  0
 14 23  1  0
 15 24  1  0
 15 25  1  0
 15 26  1  0
M  ISO  8  16  14  17  14  18  14  19  14  20  14  21  14  22   8  23   8
M  ISO  3  24   8  25   8  26   8
M  END
>  <minimizedAffinity>  (1) 
-5.66629791

>  <minimizedRMSD>  (1) 
2.17111969

$$$$
