
     RDKit          3D

 37 40  0  0  0  0  0  0  0  0999 V2000
   38.1770   32.6000   49.3540 C   0  0  0  0  0  0  0  0  0  0  0  0
   38.8720   32.7490   48.1480 C   0  0  0  0  0  0  0  0  0  0  0  0
   38.4390   31.9660   47.0770 C   0  0  0  0  0  0  0  0  0  0  0  0
   37.4010   31.1180   47.2320 N   0  0  0  0  0  0  0  0  0  0  0  0
   36.7590   31.0070   48.4200 C   0  0  0  0  0  0  0  0  0  0  0  0
   37.1500   31.7460   49.4720 N   0  0  0  0  0  0  0  0  0  0  0  0
   35.6640   29.1040   49.5090 C   0  0  0  0  0  0  0  0  0  0  0  0
   35.6370   30.0640   48.5180 C   0  0  0  0  0  0  0  0  0  0  0  0
   34.5880   30.1330   47.6490 C   0  0  0  0  0  0  0  0  0  0  0  0
   33.5410   29.2500   47.7460 C   0  0  0  0  0  0  0  0  0  0  0  0
   32.4010   29.1070   47.0220 N   0  0  0  0  0  0  0  0  0  0  0  0
   31.7730   28.0440   47.6190 C   0  0  0  0  0  0  0  0  0  0  0  0
   32.4900   27.5710   48.6410 N   0  0  0  0  0  0  0  0  0  0  0  0
   33.6090   28.3080   48.7490 C   0  0  0  0  0  0  0  0  0  0  0  0
   34.6300   28.1960   49.6390 C   0  0  0  0  0  0  0  0  0  0  0  0
   39.0510   31.9960   45.7460 C   0  0  0  0  0  0  0  0  0  0  0  0
   39.5280   33.1480   45.1490 C   0  0  0  0  0  0  0  0  0  0  0  0
   40.1080   33.1960   43.8980 C   0  0  0  0  0  0  0  0  0  0  0  0
   40.2090   32.0460   43.2270 N   0  0  0  0  0  0  0  0  0  0  0  0
   39.7560   30.9090   43.7760 C   0  0  0  0  0  0  0  0  0  0  0  0
   39.2040   30.8850   44.9770 N   0  0  0  0  0  0  0  0  0  0  0  0
   39.8790   29.6440   43.0110 C   0  0  0  0  0  0  0  0  0  0  0  0
   41.1920   29.5750   42.2540 C   0  0  0  0  0  0  0  0  0  0  0  0
   38.4807   33.1979   50.2259 H   0  0  0  0  0  0  0  0  0  0  0  0
   39.7161   33.4474   48.0496 H   0  0  0  0  0  0  0  0  0  0  0  0
   36.5169   29.0610   50.2024 H   0  0  0  0  0  0  0  0  0  0  0  0
   34.5807   30.9029   46.8634 H   0  0  0  0  0  0  0  0  0  0  0  0
   32.0835   29.6644   46.2161 H   0  0  0  0  0  0  0  0  0  0  0  0
   30.8041   27.6342   47.2975 H   0  0  0  0  0  0  0  0  0  0  0  0
   34.6333   27.4232   50.4218 H   0  0  0  0  0  0  0  0  0  0  0  0
   39.4391   34.0904   45.7094 H   0  0  0  0  0  0  0  0  0  0  0  0
   40.4720   34.1422   43.4712 H   0  0  0  0  0  0  0  0  0  0  0  0
   39.8253   28.7969   43.7107 H   0  0  0  0  0  0  0  0  0  0  0  0
   39.0578   29.6024   42.2803 H   0  0  0  0  0  0  0  0  0  0  0  0
   42.0261   29.5312   42.9698 H   0  0  0  0  0  0  0  0  0  0  0  0
   41.2038   28.6750   41.6217 H   0  0  0  0  0  0  0  0  0  0  0  0
   41.2981   30.4688   41.6217 H   0  0  0  0  0  0  0  0  0  0  0  0
  1  6  2  0
  2  1  1  0
  3  4  1  0
  3  2  2  0
  4  5  2  0
  5  8  1  0
  5  6  1  0
  7 15  2  0
  8  7  1  0
  9 10  1  0
  9  8  2  0
 10 14  2  0
 11 12  1  0
 11 10  1  0
 12 13  2  0
 13 14  1  0
 14 15  1  0
 16  3  1  0
 17 16  2  0
 18 17  1  0
 19 20  1  0
 19 18  2  0
 20 21  2  0
 21 16  1  0
 22 20  1  0
 23 22  1  0
  1 24  1  0
  2 25  1  0
  7 26  1  0
  9 27  1  0
 11 28  1  0
 12 29  1  0
 15 30  1  0
 17 31  1  0
 18 32  1  0
 22 33  1  0
 22 34  1  0
 23 35  1  0
 23 36  1  0
 23 37  1  0
M  ISO  8  24  14  25  14  26  14  27  14  28   9  29  14  30  14  31  14
M  ISO  6  32  14  33   8  34   8  35   8  36   8  37   8
M  END
>  <minimizedAffinity>  (1) 
-6.70711136

>  <minimizedRMSD>  (1) 
0.688324392

$$$$
