
     RDKit          3D

 37 39  0  0  0  0  0  0  0  0999 V2000
   36.8900   31.2730   48.5770 C   0  0  0  0  0  0  0  0  0  0  0  0
   37.0990   32.1360   49.6470 C   0  0  0  0  0  0  0  0  0  0  0  0
   38.0140   33.1780   49.4960 C   0  0  0  0  0  0  0  0  0  0  0  0
   38.6960   33.3420   48.2990 C   0  0  0  0  0  0  0  0  0  0  0  0
   38.4630   32.4650   47.2570 C   0  0  0  0  0  0  0  0  0  0  0  0
   37.5820   31.4810   47.4370 N   0  0  0  0  0  0  0  0  0  0  0  0
   35.1990   28.3340   50.1880 C   0  0  0  0  0  0  0  0  0  0  0  0
   36.1740   29.3310   49.9140 C   0  0  0  0  0  0  0  0  0  0  0  0
   35.9240   30.2490   48.8830 C   0  0  0  0  0  0  0  0  0  0  0  0
   34.7470   30.1290   48.1970 N   0  0  0  0  0  0  0  0  0  0  0  0
   33.8410   29.1530   48.4980 C   0  0  0  0  0  0  0  0  0  0  0  0
   34.0680   28.2670   49.4830 N   0  0  0  0  0  0  0  0  0  0  0  0
   32.7030   29.2300   47.6600 N   0  0  0  0  0  0  0  0  0  0  0  0
   37.4140   29.3620   50.7250 C   0  0  0  0  0  0  0  0  0  0  0  0
   38.5070   29.8150   49.9830 F   0  0  0  0  0  0  0  0  0  0  0  0
   37.2440   30.1990   51.7720 F   0  0  0  0  0  0  0  0  0  0  0  0
   37.7690   28.1120   51.2210 F   0  0  0  0  0  0  0  0  0  0  0  0
   39.1330   32.5770   45.9710 C   0  0  0  0  0  0  0  0  0  0  0  0
   40.4920   32.6050   45.7580 C   0  0  0  0  0  0  0  0  0  0  0  0
   40.7590   32.7190   44.4040 C   0  0  0  0  0  0  0  0  0  0  0  0
   39.5190   32.7570   43.8300 N   0  0  0  0  0  0  0  0  0  0  0  0
   38.5800   32.6750   44.7540 N   0  0  0  0  0  0  0  0  0  0  0  0
   39.3920   32.8760   42.3890 C   0  0  0  0  0  0  0  0  0  0  0  0
   39.8290   31.6080   41.7100 C   0  0  0  0  0  0  0  0  0  0  0  0
   36.5542   31.9999   50.5928 H   0  0  0  0  0  0  0  0  0  0  0  0
   38.1956   33.8726   50.3294 H   0  0  0  0  0  0  0  0  0  0  0  0
   39.4170   34.1642   48.1803 H   0  0  0  0  0  0  0  0  0  0  0  0
   35.3793   27.6067   50.9933 H   0  0  0  0  0  0  0  0  0  0  0  0
   31.9338   28.5544   47.7727 H   0  0  0  0  0  0  0  0  0  0  0  0
   32.6441   29.9617   46.9374 H   0  0  0  0  0  0  0  0  0  0  0  0
   41.2551   32.5455   46.5480 H   0  0  0  0  0  0  0  0  0  0  0  0
   41.7391   32.7676   43.9069 H   0  0  0  0  0  0  0  0  0  0  0  0
   38.3410   33.0779   42.1347 H   0  0  0  0  0  0  0  0  0  0  0  0
   40.0335   33.7005   42.0446 H   0  0  0  0  0  0  0  0  0  0  0  0
   40.0882   30.8559   42.4697 H   0  0  0  0  0  0  0  0  0  0  0  0
   39.0101   31.2275   41.0817 H   0  0  0  0  0  0  0  0  0  0  0  0
   40.7084   31.8128   41.0817 H   0  0  0  0  0  0  0  0  0  0  0  0
  1  9  1  0
  1  2  2  0
  3  2  1  0
  4  3  2  0
  5  6  2  0
  5  4  1  0
  6  1  1  0
  8  7  2  0
  8 14  1  0
  9  8  1  0
 10 11  1  0
 10  9  2  0
 11 12  2  0
 12  7  1  0
 13 11  1  0
 14 17  1  0
 14 16  1  0
 15 14  1  0
 18  5  1  0
 19 18  1  0
 20 19  2  0
 21 20  1  0
 21 22  1  0
 22 18  2  0
 23 21  1  0
 24 23  1  0
  2 25  1  0
  3 26  1  0
  4 27  1  0
  7 28  1  0
 13 29  1  0
 13 30  1  0
 19 31  1  0
 20 32  1  0
 23 33  1  0
 23 34  1  0
 24 35  1  0
 24 36  1  0
 24 37  1  0
M  ISO  8  25  14  26  14  27  14  28  14  31  14  32  14  33   8  34   8
M  ISO  3  35   8  36   8  37   8
M  END
>  <minimizedAffinity>  (1) 
-6.90086222

>  <minimizedRMSD>  (1) 
0.922438502

$$$$
