
     RDKit          3D

 21 21  0  0  0  0  0  0  0  0999 V2000
   36.1560   30.5940   48.6450 C   0  0  0  0  0  0  0  0  0  0  0  0
   37.4030   30.8630   48.0680 C   0  0  0  0  0  0  0  0  0  0  0  0
   37.5590   30.7680   46.6840 C   0  0  0  0  0  0  0  0  0  0  0  0
   36.4540   30.4090   45.9580 N   0  0  0  0  0  0  0  0  0  0  0  0
   35.2680   30.1570   46.5330 C   0  0  0  0  0  0  0  0  0  0  0  0
   35.1140   30.2460   47.8470 N   0  0  0  0  0  0  0  0  0  0  0  0
   38.6850   32.5770   49.2200 C   0  0  0  0  0  0  0  0  0  0  0  0
   37.9860   33.6610   49.1340 O   0  0  0  0  0  0  0  0  0  0  0  0
   38.5560   31.2310   48.7620 N   0  0  0  0  0  0  0  0  0  0  0  0
   36.1720   30.7320   50.0080 O   0  0  0  0  0  0  0  0  0  0  0  0
   36.3240   29.5810   50.8150 C   0  0  0  0  0  0  0  0  0  0  0  0
   37.3420   29.8680   51.8940 C   0  0  0  0  0  0  0  0  0  0  0  0
   38.5248   30.9720   46.1986 H   0  0  0  0  0  0  0  0  0  0  0  0
   34.4109   29.8724   45.9050 H   0  0  0  0  0  0  0  0  0  0  0  0
   39.6133   32.7304   49.7898 H   0  0  0  0  0  0  0  0  0  0  0  0
   39.3015   30.5432   48.9409 H   0  0  0  0  0  0  0  0  0  0  0  0
   35.3592   29.3244   51.2770 H   0  0  0  0  0  0  0  0  0  0  0  0
   36.6645   28.7366   50.1978 H   0  0  0  0  0  0  0  0  0  0  0  0
   36.8762   29.7367   52.8818 H   0  0  0  0  0  0  0  0  0  0  0  0
   38.1892   29.1737   51.7929 H   0  0  0  0  0  0  0  0  0  0  0  0
   37.7017   30.9026   51.7929 H   0  0  0  0  0  0  0  0  0  0  0  0
  1 10  1  0
  2  1  2  0
  2  9  1  0
  3  2  1  0
  4  5  1  0
  4  3  2  0
  5  6  2  0
  6  1  1  0
  8  7  2  0
  9  7  1  0
 10 11  1  0
 11 12  1  0
  3 13  1  0
  5 14  1  0
  7 15  1  0
  9 16  1  0
 11 17  1  0
 11 18  1  0
 12 19  1  0
 12 20  1  0
 12 21  1  0
M  ISO  8  13  14  14  14  15   6  17   8  18   8  19   8  20   8  21   8
M  END
>  <minimizedAffinity>  (1) 
-3.99707747

>  <minimizedRMSD>  (1) 
2.58547187

$$$$
