
     RDKit          3D

 28 28  0  0  0  0  0  0  0  0999 V2000
   37.7480   30.5260   50.8630 C   0  0  0  0  0  0  0  0  0  0  0  0
   38.1100   31.1930   49.6100 C   0  0  0  0  0  0  0  0  0  0  0  0
   38.5510   32.5030   49.5550 C   0  0  0  0  0  0  0  0  0  0  0  0
   38.8700   33.0350   48.2790 C   0  0  0  0  0  0  0  0  0  0  0  0
   38.7240   32.2240   47.1800 N   0  0  0  0  0  0  0  0  0  0  0  0
   38.2850   30.9390   47.2910 C   0  0  0  0  0  0  0  0  0  0  0  0
   37.9830   30.4390   48.5080 N   0  0  0  0  0  0  0  0  0  0  0  0
   36.9750   29.2630   50.7010 C   0  0  0  0  0  0  0  0  0  0  0  0
   35.7130   29.4480   51.2800 O   0  0  0  0  0  0  0  0  0  0  0  0
   34.6900   30.5310   49.1440 O   0  0  0  0  0  0  0  0  0  0  0  0
   34.4790   29.3920   50.1450 P   0  0  2  0  0  0  0  0  0  0  0  0
   32.9770   29.6480   50.8140 O   0  0  0  0  0  0  0  0  0  0  0  0
   34.4820   27.9130   49.3240 O   0  0  0  0  0  0  0  0  0  0  0  0
   33.4360   27.7880   48.4550 C   0  0  0  0  0  0  0  0  0  0  0  0
   33.7140   26.5820   47.5490 C   0  0  0  0  0  0  0  0  0  0  0  0
   38.6757   30.2916   51.4056 H   0  0  0  0  0  0  0  0  0  0  0  0
   37.0908   31.2224   51.4044 H   0  0  0  0  0  0  0  0  0  0  0  0
   38.6507   33.1099   50.4670 H   0  0  0  0  0  0  0  0  0  0  0  0
   39.2252   34.0706   48.1725 H   0  0  0  0  0  0  0  0  0  0  0  0
   38.1772   30.3122   46.3935 H   0  0  0  0  0  0  0  0  0  0  0  0
   36.8640   29.0282   49.6321 H   0  0  0  0  0  0  0  0  0  0  0  0
   37.5002   28.4293   51.1900 H   0  0  0  0  0  0  0  0  0  0  0  0
   33.0491   29.6357   51.8013 H   0  0  0  0  0  0  0  0  0  0  0  0
   32.5028   27.6271   49.0148 H   0  0  0  0  0  0  0  0  0  0  0  0
   33.3286   28.7019   47.8524 H   0  0  0  0  0  0  0  0  0  0  0  0
   33.9181   25.6968   48.1692 H   0  0  0  0  0  0  0  0  0  0  0  0
   32.8365   26.3904   46.9140 H   0  0  0  0  0  0  0  0  0  0  0  0
   34.5868   26.7939   46.9140 H   0  0  0  0  0  0  0  0  0  0  0  0
  2  1  1  0
  3  2  2  0
  4  3  1  0
  5  6  1  0
  5  4  2  0
  6  7  2  0
  7  2  1  0
  8  1  1  0
  8  9  1  0
 11 10  2  0
 11 12  1  0
 11  9  1  0
 13 11  1  0
 14 13  1  0
 15 14  1  0
  1 16  1  0
  1 17  1  0
  3 18  1  0
  4 19  1  0
  6 20  1  0
  8 21  1  0
  8 22  1  0
 12 23  1  0
 14 24  1  0
 14 25  1  0
 15 26  1  0
 15 27  1  0
 15 28  1  0
M  ISO  8  16   8  17   8  18  14  19  14  20  14  21   8  22   8  23   3
M  ISO  5  24   8  25   8  26   8  27   8  28   8
M  END
>  <minimizedAffinity>  (1) 
-4.72172308

>  <minimizedRMSD>  (1) 
0.150593907

$$$$
