
     RDKit          3D

 28 29  0  0  0  0  0  0  0  0999 V2000
   38.8700   31.8840   47.7760 C   0  0  0  0  0  0  0  0  0  0  0  0
   38.3470   32.1220   49.0360 C   0  0  0  0  0  0  0  0  0  0  0  0
   38.6670   33.3550   49.5790 C   0  0  0  0  0  0  0  0  0  0  0  0
   39.4600   34.2800   48.8980 C   0  0  0  0  0  0  0  0  0  0  0  0
   39.9410   33.9470   47.6300 C   0  0  0  0  0  0  0  0  0  0  0  0
   39.6400   32.7330   47.0650 C   0  0  0  0  0  0  0  0  0  0  0  0
   36.1890   30.9830   49.3880 C   0  0  0  0  0  0  0  0  0  0  0  0
   37.5300   31.1810   49.7490 C   0  0  0  0  0  0  0  0  0  0  0  0
   38.0170   30.4260   50.8210 C   0  0  0  0  0  0  0  0  0  0  0  0
   37.1700   29.5550   51.4410 N   0  0  0  0  0  0  0  0  0  0  0  0
   35.8900   29.4040   51.0540 C   0  0  0  0  0  0  0  0  0  0  0  0
   35.3950   30.1140   50.0300 N   0  0  0  0  0  0  0  0  0  0  0  0
   38.5900   30.6600   47.1600 O   0  0  0  0  0  0  0  0  0  0  0  0
   40.1370   32.4510   45.8130 O   0  0  0  0  0  0  0  0  0  0  0  0
   40.1570   33.3030   44.7190 C   0  0  0  0  0  0  0  0  0  0  0  0
   39.4930   32.7850   43.4780 C   0  0  0  0  0  0  0  0  0  0  0  0
   38.2846   33.6134   50.5775 H   0  0  0  0  0  0  0  0  0  0  0  0
   39.7014   35.2527   49.3515 H   0  0  0  0  0  0  0  0  0  0  0  0
   40.5669   34.6643   47.0789 H   0  0  0  0  0  0  0  0  0  0  0  0
   35.7743   31.5609   48.5489 H   0  0  0  0  0  0  0  0  0  0  0  0
   39.0592   30.5322   51.1564 H   0  0  0  0  0  0  0  0  0  0  0  0
   35.2424   28.6899   51.5838 H   0  0  0  0  0  0  0  0  0  0  0  0
   38.9518   30.4649   46.2594 H   0  0  0  0  0  0  0  0  0  0  0  0
   39.6514   34.2361   45.0083 H   0  0  0  0  0  0  0  0  0  0  0  0
   41.2181   33.4320   44.4593 H   0  0  0  0  0  0  0  0  0  0  0  0
   38.6540   32.1305   43.7570 H   0  0  0  0  0  0  0  0  0  0  0  0
   39.1165   33.6304   42.8834 H   0  0  0  0  0  0  0  0  0  0  0  0
   40.2214   32.2141   42.8834 H   0  0  0  0  0  0  0  0  0  0  0  0
  1  2  2  0
  2  3  1  0
  2  8  1  0
  4  3  2  0
  5  4  1  0
  6  5  2  0
  6  1  1  0
  7  8  2  0
  7 12  1  0
  8  9  1  0
  9 10  2  0
 11 10  1  0
 12 11  2  0
 13  1  1  0
 14  6  1  0
 15 14  1  0
 16 15  1  0
  3 17  1  0
  4 18  1  0
  5 19  1  0
  7 20  1  0
  9 21  1  0
 11 22  1  0
 13 23  1  0
 15 24  1  0
 15 25  1  0
 16 26  1  0
 16 27  1  0
 16 28  1  0
M  ISO  8  17  14  18  14  19  14  20  14  21  14  22  14  23   3  24   8
M  ISO  4  25   8  26   8  27   8  28   8
M  END
>  <minimizedAffinity>  (1) 
-5.53072786

>  <minimizedRMSD>  (1) 
0.543434978

$$$$
