
     RDKit          3D

 17 17  0  0  0  0  0  0  0  0999 V2000
   36.9870   31.2340   49.7390 C   0  0  0  0  0  0  0  0  0  0  0  0
   35.7390   30.6920   49.4150 C   0  0  0  0  0  0  0  0  0  0  0  0
   35.2360   29.6920   50.2490 C   0  0  0  0  0  0  0  0  0  0  0  0
   35.9920   29.3180   51.3110 N   0  0  0  0  0  0  0  0  0  0  0  0
   37.1970   29.8530   51.6100 C   0  0  0  0  0  0  0  0  0  0  0  0
   37.6830   30.8120   50.8140 N   0  0  0  0  0  0  0  0  0  0  0  0
   37.3770   32.2220   48.8330 O   0  0  0  0  0  0  0  0  0  0  0  0
   38.7300   32.5290   48.5750 C   0  0  0  0  0  0  0  0  0  0  0  0
   39.1440   33.8280   49.2270 C   0  0  0  0  0  0  0  0  0  0  0  0
   35.1756   31.0403   48.5368 H   0  0  0  0  0  0  0  0  0  0  0  0
   34.2604   29.2237   50.0517 H   0  0  0  0  0  0  0  0  0  0  0  0
   37.7643   29.5079   52.4870 H   0  0  0  0  0  0  0  0  0  0  0  0
   39.3604   31.7171   48.9666 H   0  0  0  0  0  0  0  0  0  0  0  0
   38.8552   32.6367   47.4875 H   0  0  0  0  0  0  0  0  0  0  0  0
   39.1086   33.7169   50.3208 H   0  0  0  0  0  0  0  0  0  0  0  0
   40.1681   34.0836   48.9174 H   0  0  0  0  0  0  0  0  0  0  0  0
   38.4566   34.6291   48.9174 H   0  0  0  0  0  0  0  0  0  0  0  0
  1  6  2  0
  2  1  1  0
  2  3  2  0
  3  4  1  0
  4  5  2  0
  6  5  1  0
  7  1  1  0
  8  7  1  0
  8  9  1  0
  2 10  1  0
  3 11  1  0
  5 12  1  0
  8 13  1  0
  8 14  1  0
  9 15  1  0
  9 16  1  0
  9 17  1  0
M  ISO  8  10  14  11  14  12  14  13   8  14   8  15   8  16   8  17   8
M  END
>  <minimizedAffinity>  (1) 
-3.68699908

>  <minimizedRMSD>  (1) 
4.03953934

$$$$
