
     RDKit          3D

 42 44  0  0  1  0  0  0  0  0999 V2000
   35.3390   29.6340   48.0210 C   0  0  0  0  0  0  0  0  0  0  0  0
   34.3440   29.5480   47.0450 C   0  0  0  0  0  0  0  0  0  0  0  0
   33.4610   28.4630   47.1390 C   0  0  0  0  0  0  0  0  0  0  0  0
   33.6130   27.5480   48.1710 N   0  0  0  0  0  0  0  0  0  0  0  0
   34.6080   27.6830   49.1010 C   0  0  0  0  0  0  0  0  0  0  0  0
   35.4460   28.7080   49.0170 N   0  0  0  0  0  0  0  0  0  0  0  0
   32.4210   28.2740   46.2010 N   0  0  0  0  0  0  0  0  0  0  0  0
   32.6720   28.1170   44.8650 C   0  0  0  0  0  0  0  0  0  0  0  0
   31.6550   27.9350   43.9670 C   0  0  0  0  0  0  0  0  0  0  0  0
   30.3730   27.9150   44.4470 C   0  0  0  0  0  0  0  0  0  0  0  0
   29.4080   27.7480   43.6420 O   0  0  0  0  0  0  0  0  0  0  0  0
   30.1170   28.0690   45.7620 N   0  0  0  0  0  0  0  0  0  0  0  0
   31.1550   28.2450   46.6020 C   0  0  0  0  0  0  0  0  0  0  0  0
   30.8090   28.3800   47.8210 O   0  0  0  0  0  0  0  0  0  0  0  0
   36.2640   30.8090   47.9020 C   0  0  2  0  0  0  0  0  0  0  0  0
   36.7690   30.8810   46.4630 C   0  0  0  0  0  0  0  0  0  0  0  0
   38.2150   30.5620   46.3270 C   0  0  0  0  0  0  0  0  0  0  0  0
   39.0930   31.3810   47.2380 C   0  0  0  0  0  0  0  0  0  0  0  0
   38.5480   31.5130   48.6300 C   0  0  0  0  0  0  0  0  0  0  0  0
   37.3430   30.6410   48.8930 C   0  0  1  0  0  0  0  0  0  0  0  0
   36.7820   31.1090   50.2430 C   0  0  0  0  0  0  0  0  0  0  0  0
   37.3580   30.3650   51.4010 C   0  0  0  0  0  0  0  0  0  0  0  0
   34.2573   30.2947   46.2420 H   0  0  0  0  0  0  0  0  0  0  0  0
   34.7121   26.9472   49.9120 H   0  0  0  0  0  0  0  0  0  0  0  0
   33.7114   28.1374   44.5056 H   0  0  0  0  0  0  0  0  0  0  0  0
   31.8612   27.8088   42.8939 H   0  0  0  0  0  0  0  0  0  0  0  0
   29.1499   28.0524   46.1159 H   0  0  0  0  0  0  0  0  0  0  0  0
   35.7629   31.7644   48.1169 H   0  0  0  0  0  0  0  0  0  0  0  0
   36.1955   30.1648   45.8562 H   0  0  0  0  0  0  0  0  0  0  0  0
   36.6323   31.9181   46.1228 H   0  0  0  0  0  0  0  0  0  0  0  0
   38.3619   29.4979   46.5640 H   0  0  0  0  0  0  0  0  0  0  0  0
   38.5058   30.7996   45.2931 H   0  0  0  0  0  0  0  0  0  0  0  0
   40.0811   30.9008   47.2944 H   0  0  0  0  0  0  0  0  0  0  0  0
   39.1469   32.3941   46.8128 H   0  0  0  0  0  0  0  0  0  0  0  0
   39.3399   31.2355   49.3412 H   0  0  0  0  0  0  0  0  0  0  0  0
   38.2234   32.5569   48.7516 H   0  0  0  0  0  0  0  0  0  0  0  0
   37.6595   29.5881   48.8578 H   0  0  0  0  0  0  0  0  0  0  0  0
   37.0085   32.1785   50.3653 H   0  0  0  0  0  0  0  0  0  0  0  0
   35.6987   30.9181   50.2341 H   0  0  0  0  0  0  0  0  0  0  0  0
   37.0068   30.8186   52.3396 H   0  0  0  0  0  0  0  0  0  0  0  0
   37.0357   29.3141   51.3586 H   0  0  0  0  0  0  0  0  0  0  0  0
   38.4561   30.4138   51.3586 H   0  0  0  0  0  0  0  0  0  0  0  0
  1  6  2  0
  2  3  2  0
  2  1  1  0
  3  4  1  0
  4  5  2  0
  6  5  1  0
  7 13  1  0
  7  3  1  0
  8  7  1  0
  9 10  1  0
  9  8  2  0
 10 12  1  0
 11 10  2  0
 12 13  1  0
 13 14  2  0
 15  1  1  0
 15 20  1  0
 16 15  1  0
 17 16  1  0
 17 18  1  0
 18 19  1  0
 19 20  1  0
 20 21  1  0
 21 22  1  0
  2 23  1  0
  5 24  1  0
  8 25  1  0
  9 26  1  0
 12 27  1  0
 15 28  1  1
 16 29  1  0
 16 30  1  0
 17 31  1  0
 17 32  1  0
 18 33  1  0
 18 34  1  0
 19 35  1  0
 19 36  1  0
 20 37  1  1
 21 38  1  0
 21 39  1  0
 22 40  1  0
 22 41  1  0
 22 42  1  0
M  ISO  8  23  14  24  14  25  14  26  14  27   9  28  13  29  13  30  13
M  ISO  8  31  13  32  13  33  13  34  13  35  13  36  13  37  13  38   8
M  ISO  4  39   8  40   8  41   8  42   8
M  END
>  <minimizedAffinity>  (1) 
-5.45327473

>  <minimizedRMSD>  (1) 
2.59517241

$$$$
