
     RDKit          3D

 26 27  0  0  0  0  0  0  0  0999 V2000
   38.8660   32.3170   48.9460 Cl  0  0  0  0  0  0  0  0  0  0  0  0
   37.5020   31.3990   48.3690 C   0  0  0  0  0  0  0  0  0  0  0  0
   37.4160   31.1060   47.0200 C   0  0  0  0  0  0  0  0  0  0  0  0
   36.3560   30.3880   46.5250 C   0  0  0  0  0  0  0  0  0  0  0  0
   35.3470   29.9400   47.3590 C   0  0  0  0  0  0  0  0  0  0  0  0
   35.4160   30.2240   48.7150 C   0  0  0  0  0  0  0  0  0  0  0  0
   34.2070   29.7120   49.8720 Cl  0  0  0  0  0  0  0  0  0  0  0  0
   36.4960   30.9480   49.1750 C   0  0  0  0  0  0  0  0  0  0  0  0
   39.2060   33.0110   44.4460 C   0  0  0  0  0  0  0  0  0  0  0  0
   40.4550   32.3930   44.4110 C   0  0  0  0  0  0  0  0  0  0  0  0
   40.6690   31.3030   45.2940 C   0  0  0  0  0  0  0  0  0  0  0  0
   39.6480   30.9260   46.1180 N   0  0  0  0  0  0  0  0  0  0  0  0
   38.4560   31.5620   46.1090 C   0  0  0  0  0  0  0  0  0  0  0  0
   38.2470   32.5960   45.2760 N   0  0  0  0  0  0  0  0  0  0  0  0
   36.6670   31.3110   50.6270 C   0  0  0  0  0  0  0  0  0  0  0  0
   37.3480   30.2040   51.4020 C   0  0  0  0  0  0  0  0  0  0  0  0
   36.3080   30.1654   45.4488 H   0  0  0  0  0  0  0  0  0  0  0  0
   34.5013   29.3662   46.9521 H   0  0  0  0  0  0  0  0  0  0  0  0
   39.0065   33.8593   43.7748 H   0  0  0  0  0  0  0  0  0  0  0  0
   41.2438   32.7368   43.7257 H   0  0  0  0  0  0  0  0  0  0  0  0
   41.6337   30.7749   45.3140 H   0  0  0  0  0  0  0  0  0  0  0  0
   37.2773   32.2235   50.6973 H   0  0  0  0  0  0  0  0  0  0  0  0
   35.6691   31.4711   51.0612 H   0  0  0  0  0  0  0  0  0  0  0  0
   37.2347   30.3882   52.4805 H   0  0  0  0  0  0  0  0  0  0  0  0
   36.8872   29.2390   51.1444 H   0  0  0  0  0  0  0  0  0  0  0  0
   38.4171   30.1802   51.1444 H   0  0  0  0  0  0  0  0  0  0  0  0
  2  1  1  0
  2  8  2  0
  3  2  1  0
  4  3  2  0
  4  5  1  0
  5  6  2  0
  6  8  1  0
  6  7  1  0
  8 15  1  0
  9 14  2  0
 10  9  1  0
 10 11  2  0
 11 12  1  0
 13 12  2  0
 13  3  1  0
 14 13  1  0
 15 16  1  0
  4 17  1  0
  5 18  1  0
  9 19  1  0
 10 20  1  0
 11 21  1  0
 15 22  1  0
 15 23  1  0
 16 24  1  0
 16 25  1  0
 16 26  1  0
M  ISO  8  17  14  18  14  19  14  20  14  21  14  22   8  23   8  24   8
M  ISO  2  25   8  26   8
M  END
>  <minimizedAffinity>  (1) 
-5.86205101

>  <minimizedRMSD>  (1) 
3.48546791

$$$$
