
     RDKit          3D

 39 41  0  0  1  0  0  0  0  0999 V2000
   35.0970   29.4550   47.9000 C   0  0  0  0  0  0  0  0  0  0  0  0
   34.9310   30.0960   46.6800 C   0  0  0  0  0  0  0  0  0  0  0  0
   33.7720   29.8030   45.9570 C   0  0  0  0  0  0  0  0  0  0  0  0
   32.8910   28.9040   46.5170 N   0  0  0  0  0  0  0  0  0  0  0  0
   33.0930   28.3180   47.6830 C   0  0  0  0  0  0  0  0  0  0  0  0
   34.2010   28.5850   48.3970 N   0  0  0  0  0  0  0  0  0  0  0  0
   36.2930   29.7570   48.6470 N   0  0  0  0  0  0  0  0  0  0  0  0
   37.4220   30.5070   48.1930 C   0  0  0  0  0  0  0  0  0  0  0  0
   37.9700   31.0920   49.4950 C   0  0  2  0  0  0  0  0  0  0  0  0
   36.9840   30.6980   50.5880 C   0  0  0  0  0  0  0  0  0  0  0  0
   36.5810   29.3490   50.0180 C   0  0  0  0  0  0  0  0  0  0  0  0
   38.1510   32.5850   49.4140 C   0  0  0  0  0  0  0  0  0  0  0  0
   37.0090   33.1510   49.9390 F   0  0  0  0  0  0  0  0  0  0  0  0
   38.1770   32.9170   48.0730 F   0  0  0  0  0  0  0  0  0  0  0  0
   39.2810   33.0280   50.0450 F   0  0  0  0  0  0  0  0  0  0  0  0
   31.9070   27.1620   48.3460 S   0  0  0  0  0  0  0  0  0  0  0  0
   30.4300   27.7620   48.8810 C   0  0  0  0  0  0  0  0  0  0  0  0
   29.6940   27.8720   50.0200 C   0  0  0  0  0  0  0  0  0  0  0  0
   28.4410   28.4500   50.0870 C   0  0  0  0  0  0  0  0  0  0  0  0
   27.9740   28.9480   48.7750 C   0  0  0  0  0  0  0  0  0  0  0  0
   29.3150   28.5600   47.6080 S   0  0  0  0  0  0  0  0  0  0  0  0
   26.6800   29.5910   48.6260 C   0  0  0  0  0  0  0  0  0  0  0  0
   25.6690   28.5400   49.0170 C   0  0  0  0  0  0  0  0  0  0  0  0
   35.6806   30.8049   46.2985 H   0  0  0  0  0  0  0  0  0  0  0  0
   33.5713   30.2704   44.9817 H   0  0  0  0  0  0  0  0  0  0  0  0
   38.1629   29.8560   47.7059 H   0  0  0  0  0  0  0  0  0  0  0  0
   37.1709   31.2682   47.4396 H   0  0  0  0  0  0  0  0  0  0  0  0
   38.9735   30.6951   49.7082 H   0  0  0  0  0  0  0  0  0  0  0  0
   37.4651   30.6090   51.5732 H   0  0  0  0  0  0  0  0  0  0  0  0
   36.1664   31.4072   50.7845 H   0  0  0  0  0  0  0  0  0  0  0  0
   35.6935   28.9373   50.5208 H   0  0  0  0  0  0  0  0  0  0  0  0
   37.3270   28.5479   50.1262 H   0  0  0  0  0  0  0  0  0  0  0  0
   30.1257   27.4739   50.9501 H   0  0  0  0  0  0  0  0  0  0  0  0
   27.8550   28.5310   51.0144 H   0  0  0  0  0  0  0  0  0  0  0  0
   26.6046   30.4648   49.2899 H   0  0  0  0  0  0  0  0  0  0  0  0
   26.5179   29.9567   47.6013 H   0  0  0  0  0  0  0  0  0  0  0  0
   25.6097   28.4783   50.1137 H   0  0  0  0  0  0  0  0  0  0  0  0
   24.6831   28.8106   48.6111 H   0  0  0  0  0  0  0  0  0  0  0  0
   25.9777   27.5653   48.6111 H   0  0  0  0  0  0  0  0  0  0  0  0
  1  6  1  0
  1  7  1  0
  2  1  2  0
  3  4  2  0
  3  2  1  0
  4  5  1  0
  5 16  1  0
  5  6  2  0
  7 11  1  0
  8  7  1  0
  8  9  1  0
  9 10  1  0
 11 10  1  0
 12  9  1  0
 12 13  1  0
 12 15  1  0
 14 12  1  0
 16 17  1  0
 17 18  2  0
 18 19  1  0
 20 19  2  0
 21 20  1  0
 21 17  1  0
 22 20  1  0
 22 23  1  0
  2 24  1  0
  3 25  1  0
  8 26  1  0
  8 27  1  0
  9 28  1  1
 10 29  1  0
 10 30  1  0
 11 31  1  0
 11 32  1  0
 18 33  1  0
 19 34  1  0
 22 35  1  0
 22 36  1  0
 23 37  1  0
 23 38  1  0
 23 39  1  0
M  ISO  8  24  14  25  14  26  13  27  13  28  13  29  13  30  13  31  13
M  ISO  8  32  13  33  14  34  14  35   8  36   8  37   8  38   8  39   8
M  END
>  <minimizedAffinity>  (1) 
-6.64022636

>  <minimizedRMSD>  (1) 
0.192566141

$$$$
