
     RDKit          3D

 32 34  0  0  1  0  0  0  0  0999 V2000
   37.8920   31.3990   44.0870 C   0  0  2  0  0  0  0  0  0  0  0  0
   37.8430   29.9470   43.9390 C   0  0  0  0  0  0  0  0  0  0  0  0
   36.8650   30.6910   44.8560 C   0  0  1  0  0  0  0  0  0  0  0  0
   37.9940   33.7290   41.2080 C   0  0  0  0  0  0  0  0  0  0  0  0
   36.6320   34.1050   41.0820 C   0  0  0  0  0  0  0  0  0  0  0  0
   35.6970   33.5310   42.0140 C   0  0  0  0  0  0  0  0  0  0  0  0
   36.1750   32.6740   42.9480 N   0  0  0  0  0  0  0  0  0  0  0  0
   37.4750   32.3540   43.0200 C   0  0  0  0  0  0  0  0  0  0  0  0
   38.4080   32.8620   42.1680 N   0  0  0  0  0  0  0  0  0  0  0  0
   36.0290   30.3880   47.1680 C   0  0  0  0  0  0  0  0  0  0  0  0
   34.8540   30.2730   46.6670 O   0  0  0  0  0  0  0  0  0  0  0  0
   37.1280   30.4980   46.2880 N   0  0  0  0  0  0  0  0  0  0  0  0
   36.3110   29.6180   49.5290 C   0  0  0  0  0  0  0  0  0  0  0  0
   36.7020   30.4450   48.4970 C   0  0  0  0  0  0  0  0  0  0  0  0
   37.6850   31.4160   48.5760 C   0  0  0  0  0  0  0  0  0  0  0  0
   38.3320   31.5730   49.7890 C   0  0  0  0  0  0  0  0  0  0  0  0
   37.9400   30.7460   50.8170 C   0  0  0  0  0  0  0  0  0  0  0  0
   36.9660   29.7800   50.7460 C   0  0  0  0  0  0  0  0  0  0  0  0
   34.4540   27.8910   49.0520 N   0  0  0  0  0  0  0  0  0  0  0  0
   35.2800   28.6700   49.2650 C   0  0  0  0  0  0  0  0  0  0  0  0
   38.7201   32.0827   44.3255 H   0  0  0  0  0  0  0  0  0  0  0  0
   37.4887   29.4976   42.9996 H   0  0  0  0  0  0  0  0  0  0  0  0
   38.5584   29.1200   44.0584 H   0  0  0  0  0  0  0  0  0  0  0  0
   35.7744   30.7869   44.9622 H   0  0  0  0  0  0  0  0  0  0  0  0
   38.7333   34.1501   40.5108 H   0  0  0  0  0  0  0  0  0  0  0  0
   36.3031   34.8079   40.3024 H   0  0  0  0  0  0  0  0  0  0  0  0
   34.6267   33.7807   41.9691 H   0  0  0  0  0  0  0  0  0  0  0  0
   38.0934   30.4440   46.6429 H   0  0  0  0  0  0  0  0  0  0  0  0
   37.9423   32.0396   47.7071 H   0  0  0  0  0  0  0  0  0  0  0  0
   39.1236   32.3245   49.9255 H   0  0  0  0  0  0  0  0  0  0  0  0
   38.4528   30.8698   51.7823 H   0  0  0  0  0  0  0  0  0  0  0  0
   36.7135   29.1584   51.6177 H   0  0  0  0  0  0  0  0  0  0  0  0
  1  3  1  0
  2  1  1  0
  2  3  1  0
  3 12  1  0
  4  9  2  0
  5  4  1  0
  5  6  2  0
  6  7  1  0
  7  8  2  0
  8  1  1  0
  9  8  1  0
 10 14  1  0
 11 10  2  0
 12 10  1  0
 13 18  2  0
 14 15  2  0
 14 13  1  0
 15 16  1  0
 16 17  2  0
 18 17  1  0
 19 20  3  0
 20 13  1  0
  1 21  1  1
  2 22  1  0
  2 23  1  0
  3 24  1  1
  4 25  1  0
  5 26  1  0
  6 27  1  0
 12 28  1  0
 15 29  1  0
 16 30  1  0
 17 31  1  0
 18 32  1  0
M  ISO  8  21  13  22  13  23  13  24  13  25  14  26  14  27  14  29  14
M  ISO  3  30  14  31  14  32  14
M  END
>  <minimizedAffinity>  (1) 
-5.44171715

>  <minimizedRMSD>  (1) 
3.90502119

$$$$
