
     RDKit          3D

 35 37  0  0  0  0  0  0  0  0999 V2000
   37.2680   31.2680   47.2480 N   0  0  0  0  0  0  0  0  0  0  0  0
   37.8740   32.1890   47.9920 C   0  0  0  0  0  0  0  0  0  0  0  0
   38.9620   32.8900   47.4680 C   0  0  0  0  0  0  0  0  0  0  0  0
   39.3110   32.5470   46.1980 C   0  0  0  0  0  0  0  0  0  0  0  0
   40.3030   33.1920   45.7340 O   0  0  0  0  0  0  0  0  0  0  0  0
   38.7350   31.6350   45.4220 N   0  0  0  0  0  0  0  0  0  0  0  0
   37.6860   30.9880   45.9810 C   0  0  0  0  0  0  0  0  0  0  0  0
   37.1190   30.1070   45.2480 O   0  0  0  0  0  0  0  0  0  0  0  0
   36.0200   30.3240   49.1110 C   0  0  0  0  0  0  0  0  0  0  0  0
   36.1470   30.5050   47.7160 C   0  0  0  0  0  0  0  0  0  0  0  0
   35.1860   29.9340   46.8630 C   0  0  0  0  0  0  0  0  0  0  0  0
   34.1760   29.2340   47.4350 N   0  0  0  0  0  0  0  0  0  0  0  0
   34.0590   29.0670   48.7410 C   0  0  0  0  0  0  0  0  0  0  0  0
   34.9710   29.6060   49.5700 N   0  0  0  0  0  0  0  0  0  0  0  0
   37.5700   30.3100   51.2060 C   0  0  0  0  0  0  0  0  0  0  0  0
   37.4170   29.1150   51.5380 O   0  0  0  0  0  0  0  0  0  0  0  0
   36.9220   30.8640   50.0500 N   0  0  0  0  0  0  0  0  0  0  0  0
   38.5110   31.7000   42.9300 C   0  0  0  0  0  0  0  0  0  0  0  0
   39.1570   31.3290   44.0960 C   0  0  0  0  0  0  0  0  0  0  0  0
   40.3260   30.5940   44.0840 C   0  0  0  0  0  0  0  0  0  0  0  0
   40.8810   30.2080   42.8620 C   0  0  0  0  0  0  0  0  0  0  0  0
   40.2330   30.5790   41.6770 C   0  0  0  0  0  0  0  0  0  0  0  0
   39.0550   31.3210   41.7150 C   0  0  0  0  0  0  0  0  0  0  0  0
   36.3290   33.0580   43.1870 N   0  0  0  0  0  0  0  0  0  0  0  0
   37.3110   32.4590   43.0760 C   0  0  0  0  0  0  0  0  0  0  0  0
   37.5206   32.3970   49.0127 H   0  0  0  0  0  0  0  0  0  0  0  0
   39.4975   33.6624   48.0395 H   0  0  0  0  0  0  0  0  0  0  0  0
   35.2515   30.0511   45.7712 H   0  0  0  0  0  0  0  0  0  0  0  0
   33.2173   28.4883   49.1492 H   0  0  0  0  0  0  0  0  0  0  0  0
   38.2190   30.9556   51.8160 H   0  0  0  0  0  0  0  0  0  0  0  0
   37.1639   31.8493   49.8723 H   0  0  0  0  0  0  0  0  0  0  0  0
   40.8157   30.3150   45.0286 H   0  0  0  0  0  0  0  0  0  0  0  0
   41.8116   29.6223   42.8306 H   0  0  0  0  0  0  0  0  0  0  0  0
   40.6585   30.2815   40.7072 H   0  0  0  0  0  0  0  0  0  0  0  0
   38.5558   31.6065   40.7773 H   0  0  0  0  0  0  0  0  0  0  0  0
  1 10  1  0
  1  2  1  0
  3  2  2  0
  4  3  1  0
  5  4  2  0
  6  7  1  0
  6  4  1  0
  7  1  1  0
  8  7  2  0
  9 14  2  0
  9 17  1  0
 10  9  1  0
 11 12  1  0
 11 10  2  0
 12 13  2  0
 13 14  1  0
 15 16  2  0
 17 15  1  0
 18 25  1  0
 18 19  2  0
 19  6  1  0
 20 19  1  0
 21 20  2  0
 22 23  2  0
 22 21  1  0
 23 18  1  0
 25 24  3  0
  2 26  1  0
  3 27  1  0
 11 28  1  0
 13 29  1  0
 15 30  1  0
 17 31  1  0
 20 32  1  0
 21 33  1  0
 22 34  1  0
 23 35  1  0
M  ISO  8  26  14  27  14  28  14  29  14  30   6  32  14  33  14  34  14
M  ISO  1  35  14
M  END
>  <minimizedAffinity>  (1) 
-5.53260565

>  <minimizedRMSD>  (1) 
3.05911851

$$$$
