
     RDKit          3D

 37 39  0  0  0  0  0  0  0  0999 V2000
   38.7020   30.9270   44.5910 C   0  0  0  0  0  0  0  0  0  0  0  0
   38.1940   31.4160   45.7660 C   0  0  0  0  0  0  0  0  0  0  0  0
   38.8560   32.4170   46.4580 C   0  0  0  0  0  0  0  0  0  0  0  0
   40.0450   32.9290   45.9550 C   0  0  0  0  0  0  0  0  0  0  0  0
   40.5570   32.4300   44.7620 C   0  0  0  0  0  0  0  0  0  0  0  0
   39.8740   31.4270   44.0900 C   0  0  0  0  0  0  0  0  0  0  0  0
   39.9580   31.4520   41.6430 C   0  0  0  0  0  0  0  0  0  0  0  0
   40.3440   30.8450   42.8260 C   0  0  0  0  0  0  0  0  0  0  0  0
   41.1510   29.7150   42.8820 C   0  0  0  0  0  0  0  0  0  0  0  0
   41.5810   29.1860   41.6840 C   0  0  0  0  0  0  0  0  0  0  0  0
   41.2020   29.7830   40.4960 C   0  0  0  0  0  0  0  0  0  0  0  0
   40.3940   30.9120   40.4470 C   0  0  0  0  0  0  0  0  0  0  0  0
   38.4500   33.5790   41.7410 N   0  0  0  0  0  0  0  0  0  0  0  0
   39.1120   32.6300   41.6960 C   0  0  0  0  0  0  0  0  0  0  0  0
   37.3580   29.0710   43.4090 N   0  0  0  0  0  0  0  0  0  0  0  0
   37.9500   29.8920   43.9430 C   0  0  0  0  0  0  0  0  0  0  0  0
   37.0320   31.0080   46.3840 O   0  0  0  0  0  0  0  0  0  0  0  0
   36.9410   30.6120   47.6820 C   0  0  0  0  0  0  0  0  0  0  0  0
   35.6180   30.4610   48.0860 C   0  0  0  0  0  0  0  0  0  0  0  0
   35.3090   30.0640   49.3710 C   0  0  0  0  0  0  0  0  0  0  0  0
   36.3680   29.8290   50.2210 N   0  0  0  0  0  0  0  0  0  0  0  0
   37.6480   29.9800   49.8110 C   0  0  0  0  0  0  0  0  0  0  0  0
   37.9160   30.3610   48.5770 N   0  0  0  0  0  0  0  0  0  0  0  0
   33.8280   29.5170   46.7110 C   0  0  0  0  0  0  0  0  0  0  0  0
   34.1290   28.2660   46.5750 O   0  0  0  0  0  0  0  0  0  0  0  0
   34.4800   30.6450   47.2940 N   0  0  0  0  0  0  0  0  0  0  0  0
   38.4422   32.8042   47.4008 H   0  0  0  0  0  0  0  0  0  0  0  0
   40.5784   33.7241   46.4967 H   0  0  0  0  0  0  0  0  0  0  0  0
   41.4977   32.8282   44.3539 H   0  0  0  0  0  0  0  0  0  0  0  0
   41.4350   29.2613   43.8430 H   0  0  0  0  0  0  0  0  0  0  0  0
   42.2229   28.2928   41.6732 H   0  0  0  0  0  0  0  0  0  0  0  0
   41.5549   29.3459   39.5503 H   0  0  0  0  0  0  0  0  0  0  0  0
   40.1094   31.3632   39.4850 H   0  0  0  0  0  0  0  0  0  0  0  0
   34.2669   29.9410   49.7011 H   0  0  0  0  0  0  0  0  0  0  0  0
   38.4723   29.7835   50.5124 H   0  0  0  0  0  0  0  0  0  0  0  0
   32.8477   29.7681   46.2797 H   0  0  0  0  0  0  0  0  0  0  0  0
   34.1128   31.5935   47.1316 H   0  0  0  0  0  0  0  0  0  0  0  0
  1  2  2  0
  2 17  1  0
  2  3  1  0
  4  3  2  0
  5  4  1  0
  6  1  1  0
  6  5  2  0
  7 14  1  0
  7  8  2  0
  8  9  1  0
  8  6  1  0
 10  9  2  0
 11 10  1  0
 12 11  2  0
 12  7  1  0
 14 13  3  0
 15 16  3  0
 16  1  1  0
 17 18  1  0
 18 19  2  0
 18 23  1  0
 19 20  1  0
 20 21  2  0
 22 21  1  0
 23 22  2  0
 24 26  1  0
 25 24  2  0
 26 19  1  0
  3 27  1  0
  4 28  1  0
  5 29  1  0
  9 30  1  0
 10 31  1  0
 11 32  1  0
 12 33  1  0
 20 34  1  0
 22 35  1  0
 24 36  1  0
 26 37  1  0
M  ISO  8  27  14  28  14  29  14  30  14  31  14  32  14  33  14  34  14
M  ISO  2  35  14  36   6
M  END
>  <minimizedAffinity>  (1) 
-5.76887989

>  <minimizedRMSD>  (1) 
2.94104218

$$$$
