
     RDKit          3D

 23 24  0  0  0  0  0  0  0  0999 V2000
   37.9470   30.7060   50.2840 C   0  0  0  0  0  0  0  0  0  0  0  0
   38.7020   31.8840   50.0440 C   0  0  0  0  0  0  0  0  0  0  0  0
   38.5110   32.5260   48.8230 C   0  0  0  0  0  0  0  0  0  0  0  0
   37.6260   31.9850   47.9610 N   0  0  0  0  0  0  0  0  0  0  0  0
   36.9200   30.8740   48.1970 C   0  0  0  0  0  0  0  0  0  0  0  0
   37.0940   30.2520   49.3600 N   0  0  0  0  0  0  0  0  0  0  0  0
   34.7710   29.8360   47.6160 C   0  0  0  0  0  0  0  0  0  0  0  0
   35.9820   30.3540   47.2080 C   0  0  0  0  0  0  0  0  0  0  0  0
   36.2930   30.3740   45.8630 C   0  0  0  0  0  0  0  0  0  0  0  0
   35.4300   29.8880   44.8770 C   0  0  0  0  0  0  0  0  0  0  0  0
   34.2240   29.3800   45.3700 C   0  0  0  0  0  0  0  0  0  0  0  0
   33.8660   29.3380   46.7030 C   0  0  0  0  0  0  0  0  0  0  0  0
   34.1250   29.7530   50.1370 N   0  0  0  0  0  0  0  0  0  0  0  0
   34.4150   29.8000   49.0150 C   0  0  0  0  0  0  0  0  0  0  0  0
   38.0670   29.9690   51.5060 N   0  0  0  0  0  0  0  0  0  0  0  0
   39.4087   32.2736   50.7916 H   0  0  0  0  0  0  0  0  0  0  0  0
   39.0632   33.4432   48.5702 H   0  0  0  0  0  0  0  0  0  0  0  0
   37.2629   30.7909   45.5538 H   0  0  0  0  0  0  0  0  0  0  0  0
   35.6780   29.9037   43.8054 H   0  0  0  0  0  0  0  0  0  0  0  0
   33.5044   28.9829   44.6389 H   0  0  0  0  0  0  0  0  0  0  0  0
   32.8984   28.9242   47.0232 H   0  0  0  0  0  0  0  0  0  0  0  0
   37.5057   29.1176   51.6512 H   0  0  0  0  0  0  0  0  0  0  0  0
   38.7146   30.2903   52.2397 H   0  0  0  0  0  0  0  0  0  0  0  0
  1 15  1  0
  2  1  2  0
  3  2  1  0
  4  5  1  0
  4  3  2  0
  5  6  2  0
  6  1  1  0
  7 14  1  0
  8  7  2  0
  8  5  1  0
  9  8  1  0
 10 11  1  0
 10  9  2  0
 11 12  2  0
 12  7  1  0
 14 13  3  0
  2 16  1  0
  3 17  1  0
  9 18  1  0
 10 19  1  0
 11 20  1  0
 12 21  1  0
 15 22  1  0
 15 23  1  0
M  ISO  6  16  14  17  14  18  14  19  14  20  14  21  14
M  END
>  <minimizedAffinity>  (1) 
-4.69525385

>  <minimizedRMSD>  (1) 
2.7950542

$$$$
