
     RDKit          3D

 49 53  0  0  0  0  0  0  0  0999 V2000
   39.9550   31.9630   46.3790 O   0  0  0  0  0  0  0  0  0  0  0  0
   40.1640   30.9920   44.0830 C   0  0  0  0  0  0  0  0  0  0  0  0
   39.5910   31.7630   45.0740 C   0  0  0  0  0  0  0  0  0  0  0  0
   38.4370   32.4960   44.7740 C   0  0  0  0  0  0  0  0  0  0  0  0
   37.8770   32.4450   43.4920 C   0  0  0  0  0  0  0  0  0  0  0  0
   36.8140   33.0050   42.8940 N   0  0  0  0  0  0  0  0  0  0  0  0
   36.7230   32.6140   41.6100 C   0  0  0  0  0  0  0  0  0  0  0  0
   37.7680   31.7740   41.3910 N   0  0  0  0  0  0  0  0  0  0  0  0
   38.4850   31.6600   42.5310 C   0  0  0  0  0  0  0  0  0  0  0  0
   39.6210   30.9360   42.8190 C   0  0  0  0  0  0  0  0  0  0  0  0
   40.2350   28.7200   41.7480 C   0  0  0  0  0  0  0  0  0  0  0  0
   40.2940   30.0960   41.8340 C   0  0  0  0  0  0  0  0  0  0  0  0
   41.0450   30.8320   40.9320 C   0  0  0  0  0  0  0  0  0  0  0  0
   41.7590   30.2050   39.9160 C   0  0  0  0  0  0  0  0  0  0  0  0
   41.6890   28.8110   39.8440 C   0  0  0  0  0  0  0  0  0  0  0  0
   40.9360   28.0810   40.7470 C   0  0  0  0  0  0  0  0  0  0  0  0
   38.7740   27.5120   43.5080 N   0  0  0  0  0  0  0  0  0  0  0  0
   39.4270   28.0580   42.7320 C   0  0  0  0  0  0  0  0  0  0  0  0
   38.1480   31.3760   47.8900 C   0  0  0  0  0  0  0  0  0  0  0  0
   37.3000   31.5830   48.9600 C   0  0  0  0  0  0  0  0  0  0  0  0
   37.5140   32.7920   49.6300 C   0  0  0  0  0  0  0  0  0  0  0  0
   38.5130   33.7000   49.2320 C   0  0  0  0  0  0  0  0  0  0  0  0
   39.3170   33.3820   48.1260 C   0  0  0  0  0  0  0  0  0  0  0  0
   39.1160   32.1880   47.4530 C   0  0  0  0  0  0  0  0  0  0  0  0
   35.1700   30.4520   48.5680 C   0  0  0  0  0  0  0  0  0  0  0  0
   36.2870   30.6650   49.3680 C   0  0  0  0  0  0  0  0  0  0  0  0
   36.3750   29.9510   50.5760 C   0  0  0  0  0  0  0  0  0  0  0  0
   35.3730   29.0970   50.8960 N   0  0  0  0  0  0  0  0  0  0  0  0
   34.2930   28.9210   50.0740 C   0  0  0  0  0  0  0  0  0  0  0  0
   34.2000   29.5940   48.9260 N   0  0  0  0  0  0  0  0  0  0  0  0
   37.5460   30.1380   51.4710 C   0  0  0  0  0  0  0  0  0  0  0  0
   38.0130   30.1940   47.1530 O   0  0  0  0  0  0  0  0  0  0  0  0
   41.0711   30.4116   44.3071 H   0  0  0  0  0  0  0  0  0  0  0  0
   37.9668   33.1165   45.5511 H   0  0  0  0  0  0  0  0  0  0  0  0
   36.1557   33.6483   43.3564 H   0  0  0  0  0  0  0  0  0  0  0  0
   35.9551   32.9147   40.8821 H   0  0  0  0  0  0  0  0  0  0  0  0
   41.0772   31.9280   41.0205 H   0  0  0  0  0  0  0  0  0  0  0  0
   42.3561   30.7845   39.1965 H   0  0  0  0  0  0  0  0  0  0  0  0
   42.2435   28.2835   39.0538 H   0  0  0  0  0  0  0  0  0  0  0  0
   40.8964   26.9847   40.6658 H   0  0  0  0  0  0  0  0  0  0  0  0
   36.8817   33.0409   50.4950 H   0  0  0  0  0  0  0  0  0  0  0  0
   38.6613   34.6431   49.7784 H   0  0  0  0  0  0  0  0  0  0  0  0
   40.1026   34.0774   47.7955 H   0  0  0  0  0  0  0  0  0  0  0  0
   35.0781   30.9995   47.6184 H   0  0  0  0  0  0  0  0  0  0  0  0
   33.4960   28.2196   50.3620 H   0  0  0  0  0  0  0  0  0  0  0  0
   37.2181   30.0856   52.5197 H   0  0  0  0  0  0  0  0  0  0  0  0
   38.2851   29.3465   51.2780 H   0  0  0  0  0  0  0  0  0  0  0  0
   38.0018   31.1203   51.2780 H   0  0  0  0  0  0  0  0  0  0  0  0
   38.6084   30.0212   46.3812 H   0  0  0  0  0  0  0  0  0  0  0  0
  1 24  1  0
  2  3  2  0
  3  1  1  0
  4  3  1  0
  5  4  2  0
  6  5  1  0
  7  6  1  0
  8  7  2  0
  8  9  1  0
  9 10  2  0
  9  5  1  0
 10  2  1  0
 11 12  2  0
 11 18  1  0
 12 10  1  0
 13 12  1  0
 14 13  2  0
 15 14  1  0
 15 16  2  0
 16 11  1  0
 18 17  3  0
 19 20  2  0
 20 26  1  0
 20 21  1  0
 22 21  2  0
 23 22  1  0
 24 19  1  0
 24 23  2  0
 25 30  2  0
 25 26  1  0
 26 27  2  0
 27 28  1  0
 27 31  1  0
 29 28  2  0
 30 29  1  0
 32 19  1  0
  2 33  1  0
  4 34  1  0
  6 35  1  0
  7 36  1  0
 13 37  1  0
 14 38  1  0
 15 39  1  0
 16 40  1  0
 21 41  1  0
 22 42  1  0
 23 43  1  0
 25 44  1  0
 29 45  1  0
 31 46  1  0
 31 47  1  0
 31 48  1  0
 32 49  1  0
M  ISO  8  33  14  34  14  35   9  36  14  37  14  38  14  39  14  40  14
M  ISO  8  41  14  42  14  43  14  44  14  45  14  46   8  47   8  48   8
M  ISO  1  49   3
M  END
>  <minimizedAffinity>  (1) 
-7.48027229

>  <minimizedRMSD>  (1) 
1.37121856

$$$$
