
     RDKit          3D

 38 40  0  0  1  0  0  0  0  0999 V2000
   37.3670   30.1290   51.5760 C   0  0  0  0  0  0  0  0  0  0  0  0
   38.0830   30.7170   50.5100 C   0  0  0  0  0  0  0  0  0  0  0  0
   37.5640   30.5350   49.1920 C   0  0  0  0  0  0  0  0  0  0  0  0
   36.4220   29.8070   49.0990 N   0  0  0  0  0  0  0  0  0  0  0  0
   35.7790   29.2710   50.1330 C   0  0  0  0  0  0  0  0  0  0  0  0
   36.2500   29.4320   51.3710 N   0  0  0  0  0  0  0  0  0  0  0  0
   38.5310   33.5150   48.9260 O   0  0  0  0  0  0  0  0  0  0  0  0
   38.4970   32.5590   48.1070 C   0  0  0  0  0  0  0  0  0  0  0  0
   38.2110   31.0910   48.0060 C   0  0  2  0  0  0  0  0  0  0  0  0
   37.3970   31.0420   46.7570 C   0  0  0  0  0  0  0  0  0  0  0  0
   38.2080   31.9500   45.8280 C   0  0  0  0  0  0  0  0  0  0  0  0
   38.8350   32.8740   46.7400 N   0  0  0  0  0  0  0  0  0  0  0  0
   34.5800   28.5320   49.8260 C   0  0  0  0  0  0  0  0  0  0  0  0
   34.3960   28.0980   48.6150 C   0  0  0  0  0  0  0  0  0  0  0  0
   33.2640   27.3320   48.0780 C   0  0  0  0  0  0  0  0  0  0  0  0
   33.6940   26.3000   47.0760 C   0  0  0  0  0  0  0  0  0  0  0  0
   33.9430   24.9760   47.3180 C   0  0  0  0  0  0  0  0  0  0  0  0
   34.3350   24.1310   46.2990 C   0  0  0  0  0  0  0  0  0  0  0  0
   34.4910   24.5880   44.9980 C   0  0  0  0  0  0  0  0  0  0  0  0
   34.2480   25.9060   44.7320 C   0  0  0  0  0  0  0  0  0  0  0  0
   33.8540   26.7600   45.7550 C   0  0  0  0  0  0  0  0  0  0  0  0
   37.7416   30.2497   52.6032 H   0  0  0  0  0  0  0  0  0  0  0  0
   39.0036   31.2922   50.6878 H   0  0  0  0  0  0  0  0  0  0  0  0
   39.1074   30.4552   47.9590 H   0  0  0  0  0  0  0  0  0  0  0  0
   37.3306   30.0181   46.3606 H   0  0  0  0  0  0  0  0  0  0  0  0
   36.3514   31.3563   46.8906 H   0  0  0  0  0  0  0  0  0  0  0  0
   37.5520   32.4777   45.1200 H   0  0  0  0  0  0  0  0  0  0  0  0
   38.9293   31.3992   45.2064 H   0  0  0  0  0  0  0  0  0  0  0  0
   39.4430   33.6547   46.4540 H   0  0  0  0  0  0  0  0  0  0  0  0
   33.8302   28.3379   50.6071 H   0  0  0  0  0  0  0  0  0  0  0  0
   35.1943   28.3361   47.8967 H   0  0  0  0  0  0  0  0  0  0  0  0
   32.7542   26.8250   48.9105 H   0  0  0  0  0  0  0  0  0  0  0  0
   32.5947   28.0384   47.5651 H   0  0  0  0  0  0  0  0  0  0  0  0
   33.8293   24.5800   48.3379 H   0  0  0  0  0  0  0  0  0  0  0  0
   34.5280   23.0716   46.5234 H   0  0  0  0  0  0  0  0  0  0  0  0
   34.8041   23.9026   44.1966 H   0  0  0  0  0  0  0  0  0  0  0  0
   34.3642   26.2910   43.7082 H   0  0  0  0  0  0  0  0  0  0  0  0
   33.6628   27.8191   45.5276 H   0  0  0  0  0  0  0  0  0  0  0  0
  2  1  2  0
  3  2  1  0
  4  3  2  0
  4  5  1  0
  5  6  2  0
  6  1  1  0
  8  7  2  0
  9  8  1  0
  9  3  1  0
 10  9  1  0
 11 12  1  0
 11 10  1  0
 12  8  1  0
 13  5  1  0
 14 13  2  0
 15 14  1  0
 16 17  2  0
 16 15  1  0
 18 17  1  0
 19 18  2  0
 20 19  1  0
 20 21  2  0
 21 16  1  0
  1 22  1  0
  2 23  1  0
  9 24  1  6
 10 25  1  0
 10 26  1  0
 11 27  1  0
 11 28  1  0
 12 29  1  0
 13 30  1  0
 14 31  1  0
 15 32  1  0
 15 33  1  0
 17 34  1  0
 18 35  1  0
 19 36  1  0
 20 37  1  0
 21 38  1  0
M  ISO  8  22  14  23  14  24  13  25  13  26  13  27  13  28  13  29  10
M  ISO  7  32   8  33   8  34  14  35  14  36  14  37  14  38  14
M  END
>  <minimizedAffinity>  (1) 
-6.53358889

>  <minimizedRMSD>  (1) 
0.889367759

$$$$
