
     RDKit          3D

 33 35  0  0  1  0  0  0  0  0999 V2000
   34.9160   28.1960   49.0860 C   0  0  0  0  0  0  0  0  0  0  0  0
   36.0550   29.0050   49.3030 C   0  0  0  0  0  0  0  0  0  0  0  0
   36.0920   30.2750   48.7060 C   0  0  0  0  0  0  0  0  0  0  0  0
   35.0330   30.6420   47.9650 N   0  0  0  0  0  0  0  0  0  0  0  0
   33.9490   29.8660   47.7600 C   0  0  0  0  0  0  0  0  0  0  0  0
   33.8990   28.6350   48.3300 N   0  0  0  0  0  0  0  0  0  0  0  0
   37.2000   31.1230   48.8880 N   0  0  0  0  0  0  0  0  0  0  0  0
   38.1020   31.1120   50.0280 C   0  0  0  0  0  0  0  0  0  0  0  0
   38.9810   32.3080   49.8880 C   0  0  0  0  0  0  0  0  0  0  0  0
   38.1750   33.1920   48.9790 C   0  0  0  0  0  0  0  0  0  0  0  0
   37.6540   32.1470   48.0080 C   0  0  1  0  0  0  0  0  0  0  0  0
   37.4210   30.2800   45.4110 O   0  0  0  0  0  0  0  0  0  0  0  0
   38.0600   31.3110   45.7990 C   0  0  0  0  0  0  0  0  0  0  0  0
   38.7180   31.6260   47.0840 C   0  0  1  0  0  0  0  0  0  0  0  0
   39.7440   32.6440   46.7140 C   0  0  0  0  0  0  0  0  0  0  0  0
   39.5580   33.0290   45.2790 C   0  0  0  0  0  0  0  0  0  0  0  0
   38.2610   32.4440   44.9550 N   0  0  0  0  0  0  0  0  0  0  0  0
   34.8635   27.1963   49.5419 H   0  0  0  0  0  0  0  0  0  0  0  0
   36.8904   28.6486   49.9235 H   0  0  0  0  0  0  0  0  0  0  0  0
   33.1158   30.2262   47.1386 H   0  0  0  0  0  0  0  0  0  0  0  0
   37.5294   31.1696   50.9655 H   0  0  0  0  0  0  0  0  0  0  0  0
   38.6945   30.1856   50.0558 H   0  0  0  0  0  0  0  0  0  0  0  0
   39.1555   32.7904   50.8611 H   0  0  0  0  0  0  0  0  0  0  0  0
   39.9839   32.0751   49.5008 H   0  0  0  0  0  0  0  0  0  0  0  0
   37.3581   33.6963   49.5160 H   0  0  0  0  0  0  0  0  0  0  0  0
   38.7320   34.0215   48.5189 H   0  0  0  0  0  0  0  0  0  0  0  0
   36.8827   32.5445   47.3319 H   0  0  0  0  0  0  0  0  0  0  0  0
   39.1989   30.7837   47.6029 H   0  0  0  0  0  0  0  0  0  0  0  0
   39.6277   33.5327   47.3517 H   0  0  0  0  0  0  0  0  0  0  0  0
   40.7506   32.2242   46.8573 H   0  0  0  0  0  0  0  0  0  0  0  0
   39.5405   34.1225   45.1608 H   0  0  0  0  0  0  0  0  0  0  0  0
   40.3701   32.6793   44.6246 H   0  0  0  0  0  0  0  0  0  0  0  0
   37.6042   32.7892   44.2406 H   0  0  0  0  0  0  0  0  0  0  0  0
  1  2  2  0
  3  7  1  0
  3  2  1  0
  4  3  2  0
  5  4  1  0
  5  6  2  0
  6  1  1  0
  7  8  1  0
  9  8  1  0
 10  9  1  0
 11  7  1  0
 11 10  1  0
 12 13  2  0
 14 13  1  0
 14 11  1  0
 15 14  1  0
 16 15  1  0
 17 16  1  0
 17 13  1  0
  1 18  1  0
  2 19  1  0
  5 20  1  0
  8 21  1  0
  8 22  1  0
  9 23  1  0
  9 24  1  0
 10 25  1  0
 10 26  1  0
 11 27  1  6
 14 28  1  1
 15 29  1  0
 15 30  1  0
 16 31  1  0
 16 32  1  0
 17 33  1  0
M  ISO  8  18  14  19  14  20  14  21  13  22  13  23  13  24  13  25  13
M  ISO  8  26  13  27  13  28  13  29  13  30  13  31  13  32  13  33  10
M  END
>  <minimizedAffinity>  (1) 
-5.41678095

>  <minimizedRMSD>  (1) 
3.02159095

$$$$
