
     RDKit          3D

 45 48  0  0  1  0  0  0  0  0999 V2000
   32.2560   28.3140   47.4290 C   0  0  2  0  0  0  0  0  0  0  0  0
   33.4460   28.3860   48.3420 C   0  0  1  0  0  0  0  0  0  0  0  0
   34.0160   27.1510   48.3880 O   0  0  0  0  0  0  0  0  0  0  0  0
   33.4820   26.3570   47.3780 C   0  0  0  0  0  0  0  0  0  0  0  0
   32.8080   27.2830   46.3960 C   0  0  1  0  0  0  0  0  0  0  0  0
   32.0570   29.5500   46.7790 O   0  0  0  0  0  0  0  0  0  0  0  0
   34.6580   29.5410   47.5870 S   0  0  0  0  0  0  0  0  0  0  0  0
   37.2760   29.3000   50.5510 C   0  0  0  0  0  0  0  0  0  0  0  0
   37.7470   30.5940   50.7340 C   0  0  0  0  0  0  0  0  0  0  0  0
   37.2290   31.5950   49.8960 C   0  0  0  0  0  0  0  0  0  0  0  0
   36.3010   31.2510   48.9570 N   0  0  0  0  0  0  0  0  0  0  0  0
   35.8780   29.9720   48.8240 C   0  0  0  0  0  0  0  0  0  0  0  0
   36.3580   28.9790   49.6180 N   0  0  0  0  0  0  0  0  0  0  0  0
   31.7880   26.6120   45.7710 O   0  0  0  0  0  0  0  0  0  0  0  0
   30.2780   27.4350   43.3820 Cl  0  0  0  0  0  0  0  0  0  0  0  0
   29.6790   27.1260   44.9960 C   0  0  0  0  0  0  0  0  0  0  0  0
   30.4890   26.7350   46.0380 C   0  0  0  0  0  0  0  0  0  0  0  0
   29.8940   26.4960   47.2790 C   0  0  0  0  0  0  0  0  0  0  0  0
   28.5360   26.6510   47.4480 C   0  0  0  0  0  0  0  0  0  0  0  0
   27.7150   27.0440   46.4080 C   0  0  0  0  0  0  0  0  0  0  0  0
   28.2950   27.2820   45.1750 C   0  0  0  0  0  0  0  0  0  0  0  0
   26.5500   29.8370   44.7850 O   0  0  0  0  0  0  0  0  0  0  0  0
   26.3550   28.6220   44.4660 C   0  0  0  0  0  0  0  0  0  0  0  0
   27.4300   27.7040   44.0490 C   0  0  2  0  0  0  0  0  0  0  0  0
   26.6800   26.5620   43.4190 C   0  0  0  0  0  0  0  0  0  0  0  0
   25.2180   26.9550   43.3430 C   0  0  0  0  0  0  0  0  0  0  0  0
   25.1100   27.9000   44.4410 N   0  0  0  0  0  0  0  0  0  0  0  0
   31.3025   28.0641   47.9173 H   0  0  0  0  0  0  0  0  0  0  0  0
   33.1536   28.7196   49.3486 H   0  0  0  0  0  0  0  0  0  0  0  0
   34.2833   25.7941   46.8770 H   0  0  0  0  0  0  0  0  0  0  0  0
   32.7642   25.6314   47.7883 H   0  0  0  0  0  0  0  0  0  0  0  0
   33.4231   27.7011   45.5856 H   0  0  0  0  0  0  0  0  0  0  0  0
   31.9421   30.2638   47.4553 H   0  0  0  0  0  0  0  0  0  0  0  0
   37.6701   28.5014   51.1967 H   0  0  0  0  0  0  0  0  0  0  0  0
   38.4964   30.8256   51.5052 H   0  0  0  0  0  0  0  0  0  0  0  0
   37.5655   32.6376   49.9950 H   0  0  0  0  0  0  0  0  0  0  0  0
   30.5162   26.1809   48.1296 H   0  0  0  0  0  0  0  0  0  0  0  0
   28.0934   26.4570   48.4362 H   0  0  0  0  0  0  0  0  0  0  0  0
   26.6317   27.1640   46.5565 H   0  0  0  0  0  0  0  0  0  0  0  0
   28.1449   28.1715   43.3559 H   0  0  0  0  0  0  0  0  0  0  0  0
   27.0693   26.3708   42.4081 H   0  0  0  0  0  0  0  0  0  0  0  0
   26.8016   25.6461   44.0159 H   0  0  0  0  0  0  0  0  0  0  0  0
   24.9800   27.4303   42.3799 H   0  0  0  0  0  0  0  0  0  0  0  0
   24.5228   26.1056   43.4147 H   0  0  0  0  0  0  0  0  0  0  0  0
   24.3065   28.0274   45.0727 H   0  0  0  0  0  0  0  0  0  0  0  0
  1  2  1  0
  2  3  1  0
  4  3  1  0
  5  4  1  0
  5  1  1  0
  6  1  1  0
  7  2  1  0
  7 12  1  0
  8  9  2  0
 10  9  1  0
 11 10  2  0
 12 11  1  0
 12 13  2  0
 13  8  1  0
 14 17  1  0
 14  5  1  0
 15 16  1  0
 16 21  2  0
 16 17  1  0
 17 18  2  0
 18 19  1  0
 20 19  2  0
 21 20  1  0
 23 22  2  0
 24 23  1  0
 24 21  1  0
 25 24  1  0
 26 25  1  0
 26 27  1  0
 27 23  1  0
  1 28  1  1
  2 29  1  1
  4 30  1  0
  4 31  1  0
  5 32  1  6
  6 33  1  0
  8 34  1  0
  9 35  1  0
 10 36  1  0
 18 37  1  0
 19 38  1  0
 20 39  1  0
 24 40  1  6
 25 41  1  0
 25 42  1  0
 26 43  1  0
 26 44  1  0
 27 45  1  0
M  ISO  8  28  13  29  13  30  13  31  13  32  13  33   3  34  14  35  14
M  ISO  8  36  14  37  14  38  14  39  14  40  13  41  13  42  13  43  13
M  ISO  2  44  13  45  10
M  END
>  <minimizedAffinity>  (1) 
-5.38251638

>  <minimizedRMSD>  (1) 
1.30622709

$$$$
