
     RDKit          3D

 37 40  0  0  1  0  0  0  0  0999 V2000
   37.4330   29.4320   50.5070 C   0  0  0  0  0  0  0  0  0  0  0  0
   38.0050   30.6940   50.2270 C   0  0  0  0  0  0  0  0  0  0  0  0
   37.3310   31.4690   49.3020 C   0  0  0  0  0  0  0  0  0  0  0  0
   36.2270   30.9830   48.7620 N   0  0  0  0  0  0  0  0  0  0  0  0
   35.6630   29.8170   48.9950 C   0  0  0  0  0  0  0  0  0  0  0  0
   36.3270   29.0900   49.8850 N   0  0  0  0  0  0  0  0  0  0  0  0
   34.4670   29.1540   48.4890 C   0  0  0  0  0  0  0  0  0  0  0  0
   33.6100   28.4610   49.2830 N   0  0  0  0  0  0  0  0  0  0  0  0
   32.5200   27.8640   48.8080 C   0  0  0  0  0  0  0  0  0  0  0  0
   32.1620   27.8850   47.5210 N   0  0  0  0  0  0  0  0  0  0  0  0
   32.9630   28.5530   46.6720 C   0  0  0  0  0  0  0  0  0  0  0  0
   32.6000   28.5780   45.3440 C   0  0  0  0  0  0  0  0  0  0  0  0
   33.3810   29.2460   44.4320 C   0  0  0  0  0  0  0  0  0  0  0  0
   34.5230   29.8750   44.9100 C   0  0  0  0  0  0  0  0  0  0  0  0
   34.8360   29.8150   46.2510 C   0  0  0  0  0  0  0  0  0  0  0  0
   34.0820   29.1620   47.1790 C   0  0  0  0  0  0  0  0  0  0  0  0
   38.0760   31.9990   46.7030 O   0  0  0  0  0  0  0  0  0  0  0  0
   38.5580   32.7510   47.6140 C   0  0  0  0  0  0  0  0  0  0  0  0
   37.8250   32.8150   48.9170 C   0  0  2  0  0  0  0  0  0  0  0  0
   38.8920   33.3370   49.8320 C   0  0  0  0  0  0  0  0  0  0  0  0
   39.5870   34.3550   48.9250 C   0  0  0  0  0  0  0  0  0  0  0  0
   39.7120   33.6000   47.6760 N   0  0  0  0  0  0  0  0  0  0  0  0
   38.0440   28.5390   51.4540 N   0  0  0  0  0  0  0  0  0  0  0  0
   38.9290   31.0379   50.7149 H   0  0  0  0  0  0  0  0  0  0  0  0
   31.8762   27.3216   49.5160 H   0  0  0  0  0  0  0  0  0  0  0  0
   31.6856   28.0636   45.0135 H   0  0  0  0  0  0  0  0  0  0  0  0
   33.1124   29.2811   43.3659 H   0  0  0  0  0  0  0  0  0  0  0  0
   35.1791   30.4222   44.2171 H   0  0  0  0  0  0  0  0  0  0  0  0
   35.7491   30.3248   46.5923 H   0  0  0  0  0  0  0  0  0  0  0  0
   36.9205   33.4410   48.9182 H   0  0  0  0  0  0  0  0  0  0  0  0
   38.4603   33.8182   50.7220 H   0  0  0  0  0  0  0  0  0  0  0  0
   39.5596   32.5620   50.2366 H   0  0  0  0  0  0  0  0  0  0  0  0
   38.9722   35.2569   48.7890 H   0  0  0  0  0  0  0  0  0  0  0  0
   40.5436   34.7269   49.3206 H   0  0  0  0  0  0  0  0  0  0  0  0
   40.4725   33.6655   46.9844 H   0  0  0  0  0  0  0  0  0  0  0  0
   37.6159   27.6225   51.6480 H   0  0  0  0  0  0  0  0  0  0  0  0
   38.9098   28.8158   51.9384 H   0  0  0  0  0  0  0  0  0  0  0  0
  1 23  1  0
  2  1  2  0
  3  2  1  0
  4  5  1  0
  4  3  2  0
  5  6  2  0
  6  1  1  0
  7  5  1  0
  7  8  2  0
  9  8  1  0
 10  9  2  0
 11 16  2  0
 11 10  1  0
 12 11  1  0
 13 14  1  0
 13 12  2  0
 14 15  2  0
 15 16  1  0
 16  7  1  0
 17 18  2  0
 18 22  1  0
 18 19  1  0
 19  3  1  0
 19 20  1  0
 21 20  1  0
 22 21  1  0
  2 24  1  0
  9 25  1  0
 12 26  1  0
 13 27  1  0
 14 28  1  0
 15 29  1  0
 19 30  1  6
 20 31  1  0
 20 32  1  0
 21 33  1  0
 21 34  1  0
 22 35  1  0
 23 36  1  0
 23 37  1  0
M  ISO  8  24  14  25  14  26  14  27  14  28  14  29  14  30  13  31  13
M  ISO  4  32  13  33  13  34  13  35  10
M  END
>  <minimizedAffinity>  (1) 
-6.751647

>  <minimizedRMSD>  (1) 
0.801560581

$$$$
