
     RDKit          3D

 40 43  0  0  1  0  0  0  0  0999 V2000
   37.6290   29.3380   43.3970 C   0  0  0  0  0  0  0  0  0  0  0  0
   38.4660   30.3540   44.0250 C   0  0  0  0  0  0  0  0  0  0  0  0
   39.6000   30.7810   43.4010 C   0  0  0  0  0  0  0  0  0  0  0  0
   39.8810   30.2040   42.1870 N   0  0  0  0  0  0  0  0  0  0  0  0
   39.1010   29.2710   41.6200 C   0  0  0  0  0  0  0  0  0  0  0  0
   37.9840   28.8420   42.2200 N   0  0  0  0  0  0  0  0  0  0  0  0
   39.4400   28.7110   40.3480 N   0  0  0  0  0  0  0  0  0  0  0  0
   39.3830   33.4270   42.6920 O   0  0  0  0  0  0  0  0  0  0  0  0
   39.8530   33.1280   43.8430 C   0  0  0  0  0  0  0  0  0  0  0  0
   40.5310   31.7770   43.9250 C   0  0  1  0  0  0  0  0  0  0  0  0
   40.8040   31.6950   45.3950 C   0  0  0  0  0  0  0  0  0  0  0  0
   39.8640   32.6850   46.0600 C   0  0  0  0  0  0  0  0  0  0  0  0
   39.8940   33.7780   45.1070 N   0  0  0  0  0  0  0  0  0  0  0  0
   38.0370   31.0120   45.3150 C   0  0  1  0  0  0  0  0  0  0  0  0
   36.8060   31.7340   45.4070 C   0  0  0  0  0  0  0  0  0  0  0  0
   36.8090   30.3380   46.0040 C   0  0  2  0  0  0  0  0  0  0  0  0
   34.1310   30.1620   47.5450 Cl  0  0  0  0  0  0  0  0  0  0  0  0
   35.6860   30.2290   48.3230 C   0  0  0  0  0  0  0  0  0  0  0  0
   36.7560   30.3610   47.4680 C   0  0  0  0  0  0  0  0  0  0  0  0
   38.0080   30.4360   48.0660 C   0  0  0  0  0  0  0  0  0  0  0  0
   38.1580   30.3810   49.4490 C   0  0  0  0  0  0  0  0  0  0  0  0
   37.0270   30.2470   50.2830 C   0  0  0  0  0  0  0  0  0  0  0  0
   37.1020   30.1890   52.0310 Cl  0  0  0  0  0  0  0  0  0  0  0  0
   35.7700   30.1710   49.6720 C   0  0  0  0  0  0  0  0  0  0  0  0
   36.7130   28.9871   43.8947 H   0  0  0  0  0  0  0  0  0  0  0  0
   38.8338   27.9954   39.9223 H   0  0  0  0  0  0  0  0  0  0  0  0
   40.2903   29.0234   39.8579 H   0  0  0  0  0  0  0  0  0  0  0  0
   41.4520   31.6181   43.3449 H   0  0  0  0  0  0  0  0  0  0  0  0
   40.6070   30.6771   45.7626 H   0  0  0  0  0  0  0  0  0  0  0  0
   41.8550   31.9294   45.6197 H   0  0  0  0  0  0  0  0  0  0  0  0
   38.8508   32.2704   46.1675 H   0  0  0  0  0  0  0  0  0  0  0  0
   40.1527   32.9674   47.0832 H   0  0  0  0  0  0  0  0  0  0  0  0
   39.9353   34.7888   45.3006 H   0  0  0  0  0  0  0  0  0  0  0  0
   39.0690   31.2864   45.5787 H   0  0  0  0  0  0  0  0  0  0  0  0
   36.7410   32.6057   46.0748 H   0  0  0  0  0  0  0  0  0  0  0  0
   36.1682   32.2355   44.6642 H   0  0  0  0  0  0  0  0  0  0  0  0
   36.2836   29.3785   45.8884 H   0  0  0  0  0  0  0  0  0  0  0  0
   38.9009   30.5412   47.4323 H   0  0  0  0  0  0  0  0  0  0  0  0
   39.1622   30.4422   49.8938 H   0  0  0  0  0  0  0  0  0  0  0  0
   34.8606   30.0653   50.2818 H   0  0  0  0  0  0  0  0  0  0  0  0
  1  2  2  0
  2 14  1  0
  3  2  1  0
  4  3  2  0
  5  4  1  0
  5  6  2  0
  6  1  1  0
  7  5  1  0
  8  9  2  0
  9 10  1  0
  9 13  1  0
 10  3  1  0
 10 11  1  0
 11 12  1  0
 13 12  1  0
 14 15  1  0
 14 16  1  0
 15 16  1  0
 16 19  1  0
 17 18  1  0
 18 24  2  0
 19 20  2  0
 19 18  1  0
 20 21  1  0
 21 22  2  0
 22 23  1  0
 24 22  1  0
  1 25  1  0
  7 26  1  0
  7 27  1  0
 10 28  1  6
 11 29  1  0
 11 30  1  0
 12 31  1  0
 12 32  1  0
 13 33  1  0
 14 34  1  1
 15 35  1  0
 15 36  1  0
 16 37  1  6
 20 38  1  0
 21 39  1  0
 24 40  1  0
M  ISO  8  25  14  28  13  29  13  30  13  31  13  32  13  33  10  34  13
M  ISO  6  35  13  36  13  37  13  38  14  39  14  40  14
M  END
>  <minimizedAffinity>  (1) 
-6.04365253

>  <minimizedRMSD>  (1) 
1.8618089

$$$$
