
     RDKit          3D

 43 46  0  0  1  0  0  0  0  0999 V2000
   34.5550   29.1410   48.6040 C   0  0  2  0  0  0  0  0  0  0  0  0
   35.2020   28.3880   49.7190 C   0  0  0  0  0  0  0  0  0  0  0  0
   36.3280   29.1660   50.2260 N   0  0  0  0  0  0  0  0  0  0  0  0
   37.2740   29.8950   51.0370 C   0  0  0  0  0  0  0  0  0  0  0  0
   37.4820   30.0560   52.2500 O   0  0  0  0  0  0  0  0  0  0  0  0
   37.9870   30.4500   49.9220 C   0  0  1  0  0  0  0  0  0  0  0  0
   37.1720   29.4480   49.1070 C   0  0  2  0  0  0  0  0  0  0  0  0
   35.9590   30.1690   47.9780 S   0  0  0  0  0  0  0  0  0  0  0  0
   33.3430   29.9330   48.9440 C   0  0  0  0  0  0  0  0  0  0  0  0
   34.2860   28.1500   47.4520 C   0  0  0  0  0  0  0  0  0  0  0  0
   34.3590   28.8440   46.2450 O   0  0  0  0  0  0  0  0  0  0  0  0
   37.7590   31.8690   49.6120 C   0  0  0  0  0  0  0  0  0  0  0  0
   36.7210   32.3440   50.1800 O   0  0  0  0  0  0  0  0  0  0  0  0
   38.6040   32.6580   48.7680 C   0  0  0  0  0  0  0  0  0  0  0  0
   39.1410   33.8190   49.2830 C   0  0  0  0  0  0  0  0  0  0  0  0
   39.9750   34.5950   48.4390 C   0  0  0  0  0  0  0  0  0  0  0  0
   40.1930   34.1420   47.1690 N   0  0  0  0  0  0  0  0  0  0  0  0
   39.6590   33.0180   46.7010 C   0  0  0  0  0  0  0  0  0  0  0  0
   38.8600   32.2650   47.4980 N   0  0  0  0  0  0  0  0  0  0  0  0
   41.7580   31.0400   45.8650 O   0  0  0  0  0  0  0  0  0  0  0  0
   40.7300   31.3700   45.1860 C   0  0  0  0  0  0  0  0  0  0  0  0
   39.9420   32.5960   45.3200 C   0  0  1  0  0  0  0  0  0  0  0  0
   38.6610   32.2080   44.5730 C   0  0  0  0  0  0  0  0  0  0  0  0
   39.2880   31.3940   43.4330 C   0  0  0  0  0  0  0  0  0  0  0  0
   40.2130   30.5060   44.1510 N   0  0  0  0  0  0  0  0  0  0  0  0
   34.4727   28.2252   50.5263 H   0  0  0  0  0  0  0  0  0  0  0  0
   35.5578   27.4137   49.3527 H   0  0  0  0  0  0  0  0  0  0  0  0
   39.0842   30.5219   49.8920 H   0  0  0  0  0  0  0  0  0  0  0  0
   37.7783   28.7335   48.5309 H   0  0  0  0  0  0  0  0  0  0  0  0
   33.2427   29.9986   50.0375 H   0  0  0  0  0  0  0  0  0  0  0  0
   33.4363   30.9450   48.5230 H   0  0  0  0  0  0  0  0  0  0  0  0
   32.4536   29.4413   48.5230 H   0  0  0  0  0  0  0  0  0  0  0  0
   35.0413   27.3504   47.4665 H   0  0  0  0  0  0  0  0  0  0  0  0
   33.2893   27.6992   47.5678 H   0  0  0  0  0  0  0  0  0  0  0  0
   34.4608   29.8119   46.4265 H   0  0  0  0  0  0  0  0  0  0  0  0
   38.9291   34.1330   50.3157 H   0  0  0  0  0  0  0  0  0  0  0  0
   40.4312   35.5305   48.7950 H   0  0  0  0  0  0  0  0  0  0  0  0
   40.4765   33.4737   44.9275 H   0  0  0  0  0  0  0  0  0  0  0  0
   37.9892   31.5981   45.1948 H   0  0  0  0  0  0  0  0  0  0  0  0
   38.0220   33.0470   44.2605 H   0  0  0  0  0  0  0  0  0  0  0  0
   39.8271   32.0449   42.7290 H   0  0  0  0  0  0  0  0  0  0  0  0
   38.5501   30.8565   42.8193 H   0  0  0  0  0  0  0  0  0  0  0  0
   40.4359   29.5180   43.9635 H   0  0  0  0  0  0  0  0  0  0  0  0
  1 10  1  6
  1  9  1  0
  1  2  1  0
  2  3  1  0
  3  4  1  0
  4  5  2  0
  6  4  1  0
  7  6  1  0
  7  3  1  0
  8  1  1  0
  8  7  1  0
 11 10  1  0
 12  6  1  0
 12 13  2  0
 14 15  2  0
 14 12  1  0
 16 15  1  0
 17 16  2  0
 18 17  1  0
 18 19  2  0
 19 14  1  0
 21 22  1  0
 21 20  2  0
 22 18  1  0
 23 22  1  0
 24 25  1  0
 24 23  1  0
 25 21  1  0
  2 26  1  0
  2 27  1  0
  6 28  1  1
  7 29  1  6
  9 30  1  0
  9 31  1  0
  9 32  1  0
 10 33  1  0
 10 34  1  0
 11 35  1  0
 15 36  1  0
 16 37  1  0
 22 38  1  6
 23 39  1  0
 23 40  1  0
 24 41  1  0
 24 42  1  0
 25 43  1  0
M  ISO  8  26  13  27  13  28  13  29  13  30   8  31   8  32   8  33   8
M  ISO  8  34   8  35   3  36  14  37  14  38  13  39  13  40  13  41  13
M  ISO  2  42  13  43  10
M  END
>  <minimizedAffinity>  (1) 
-5.87835598

>  <minimizedRMSD>  (1) 
0.134374365

$$$$
