
     RDKit          3D

 27 28  0  0  0  0  0  0  0  0999 V2000
   37.0900   31.0330   50.7000 C   0  0  0  0  0  0  0  0  0  0  0  0
   37.6210   31.4780   49.4630 C   0  0  0  0  0  0  0  0  0  0  0  0
   37.4970   30.6810   48.3580 C   0  0  0  0  0  0  0  0  0  0  0  0
   36.8680   29.5040   48.5400 N   0  0  0  0  0  0  0  0  0  0  0  0
   36.3700   29.0870   49.7200 C   0  0  0  0  0  0  0  0  0  0  0  0
   36.4790   29.8450   50.7860 N   0  0  0  0  0  0  0  0  0  0  0  0
   37.9830   31.0200   47.0340 C   0  0  0  0  0  0  0  0  0  0  0  0
   39.3660   31.0900   46.8930 C   0  0  0  0  0  0  0  0  0  0  0  0
   39.9540   31.3630   45.6700 C   0  0  0  0  0  0  0  0  0  0  0  0
   39.0850   31.5630   44.6040 C   0  0  0  0  0  0  0  0  0  0  0  0
   37.6860   31.5070   44.6910 C   0  0  0  0  0  0  0  0  0  0  0  0
   37.1460   31.2250   45.9550 C   0  0  0  0  0  0  0  0  0  0  0  0
   38.3490   32.6840   49.4210 C   0  0  0  0  0  0  0  0  0  0  0  0
   39.0450   33.7490   49.2850 C   0  0  0  0  0  0  0  0  0  0  0  0
   39.9580   34.6350   48.5470 C   0  0  0  0  0  0  0  0  0  0  0  0
   36.3573   31.7888   51.0193 H   0  0  0  0  0  0  0  0  0  0  0  0
   37.9874   30.8968   51.3214 H   0  0  0  0  0  0  0  0  0  0  0  0
   35.8710   28.1092   49.7904 H   0  0  0  0  0  0  0  0  0  0  0  0
   40.0056   30.9248   47.7726 H   0  0  0  0  0  0  0  0  0  0  0  0
   41.0459   31.4184   45.5488 H   0  0  0  0  0  0  0  0  0  0  0  0
   39.5264   31.7811   43.6203 H   0  0  0  0  0  0  0  0  0  0  0  0
   37.0450   31.6756   43.8131 H   0  0  0  0  0  0  0  0  0  0  0  0
   36.0554   31.1672   46.0865 H   0  0  0  0  0  0  0  0  0  0  0  0
   38.8629   34.2943   50.2228 H   0  0  0  0  0  0  0  0  0  0  0  0
   40.5591   35.2183   49.2601 H   0  0  0  0  0  0  0  0  0  0  0  0
   40.6244   34.0301   47.9145 H   0  0  0  0  0  0  0  0  0  0  0  0
   39.3734   35.3192   47.9145 H   0  0  0  0  0  0  0  0  0  0  0  0
  1  6  1  0
  2  1  1  0
  3  4  2  0
  3  2  1  0
  4  5  1  0
  5  6  2  0
  7  3  1  0
  8  7  2  0
  9  8  1  0
 10 11  1  0
 10  9  2  0
 11 12  2  0
 12  7  1  0
 13  2  2  0
 14 13  2  0
 15 14  1  0
  1 16  1  0
  1 17  1  0
  5 18  1  0
  8 19  1  0
  9 20  1  0
 10 21  1  0
 11 22  1  0
 12 23  1  0
 14 24  1  0
 15 25  1  0
 15 26  1  0
 15 27  1  0
M  ISO  8  16  13  17  13  18  13  19  14  20  14  21  14  22  14  23  14
M  ISO  3  25   8  26   8  27   8
M  END
>  <minimizedAffinity>  (1) 
-5.15531969

>  <minimizedRMSD>  (1) 
1.87740612

$$$$
