
     RDKit          3D

 48 51  0  0  1  0  0  0  0  0999 V2000
   33.9940   28.9540   49.3800 C   0  0  0  0  0  0  0  0  0  0  0  0
   34.4780   29.6020   48.2200 C   0  0  0  0  0  0  0  0  0  0  0  0
   33.8220   29.3470   47.0210 C   0  0  0  0  0  0  0  0  0  0  0  0
   32.7680   28.4990   47.0300 N   0  0  0  0  0  0  0  0  0  0  0  0
   32.3230   27.8900   48.1600 C   0  0  0  0  0  0  0  0  0  0  0  0
   32.9420   28.1260   49.3140 N   0  0  0  0  0  0  0  0  0  0  0  0
   35.8930   30.8760   49.7110 C   0  0  0  0  0  0  0  0  0  0  0  0
   35.6170   30.4670   48.4310 C   0  0  0  0  0  0  0  0  0  0  0  0
   36.4630   30.9240   47.4440 C   0  0  0  0  0  0  0  0  0  0  0  0
   37.5370   31.7600   47.7710 C   0  0  0  0  0  0  0  0  0  0  0  0
   38.4890   32.3360   47.0350 N   0  0  0  0  0  0  0  0  0  0  0  0
   39.2920   33.0470   47.8060 C   0  0  0  0  0  0  0  0  0  0  0  0
   38.8600   32.9390   49.0900 N   0  0  0  0  0  0  0  0  0  0  0  0
   37.7710   32.1390   49.0550 C   0  0  0  0  0  0  0  0  0  0  0  0
   36.9420   31.6960   50.0460 C   0  0  0  0  0  0  0  0  0  0  0  0
   31.1540   26.9790   48.0460 C   0  0  0  0  0  0  0  0  0  0  0  0
   30.0560   27.5510   47.2310 C   0  0  1  0  0  0  0  0  0  0  0  0
   29.6600   26.4920   46.1950 C   0  0  0  0  0  0  0  0  0  0  0  0
   28.2040   26.2010   46.4060 C   0  0  0  0  0  0  0  0  0  0  0  0
   27.9840   26.5500   47.8510 C   0  0  0  0  0  0  0  0  0  0  0  0
   28.7880   27.8520   47.9450 C   0  0  1  0  0  0  0  0  0  0  0  0
   28.9130   28.3400   49.3170 C   0  0  0  0  0  0  0  0  0  0  0  0
   28.2760   29.3470   49.9220 C   0  0  0  0  0  0  0  0  0  0  0  0
   27.3050   30.0610   49.0570 C   0  0  0  0  0  0  0  0  0  0  0  0
   34.4864   29.1315   50.3475 H   0  0  0  0  0  0  0  0  0  0  0  0
   34.1524   29.8239   46.0864 H   0  0  0  0  0  0  0  0  0  0  0  0
   35.2334   30.5255   50.5185 H   0  0  0  0  0  0  0  0  0  0  0  0
   36.2940   30.6313   46.3972 H   0  0  0  0  0  0  0  0  0  0  0  0
   38.5840   32.2402   46.0139 H   0  0  0  0  0  0  0  0  0  0  0  0
   40.1623   33.6277   47.4665 H   0  0  0  0  0  0  0  0  0  0  0  0
   37.1115   31.9905   51.0922 H   0  0  0  0  0  0  0  0  0  0  0  0
   31.4850   26.0395   47.5794 H   0  0  0  0  0  0  0  0  0  0  0  0
   30.7620   26.8154   49.0607 H   0  0  0  0  0  0  0  0  0  0  0  0
   30.4584   28.4996   46.8460 H   0  0  0  0  0  0  0  0  0  0  0  0
   30.2539   25.5779   46.3422 H   0  0  0  0  0  0  0  0  0  0  0  0
   29.8459   26.8520   45.1724 H   0  0  0  0  0  0  0  0  0  0  0  0
   27.5790   26.8255   45.7508 H   0  0  0  0  0  0  0  0  0  0  0  0
   27.9358   25.1606   46.1702 H   0  0  0  0  0  0  0  0  0  0  0  0
   26.9189   26.7127   48.0726 H   0  0  0  0  0  0  0  0  0  0  0  0
   28.2875   25.7694   48.5641 H   0  0  0  0  0  0  0  0  0  0  0  0
   28.2920   28.7113   47.4699 H   0  0  0  0  0  0  0  0  0  0  0  0
   28.6841   27.4620   49.9388 H   0  0  0  0  0  0  0  0  0  0  0  0
   29.8960   28.8231   49.2158 H   0  0  0  0  0  0  0  0  0  0  0  0
   27.7326   28.9406   50.7878 H   0  0  0  0  0  0  0  0  0  0  0  0
   29.0444   30.0809   50.2065 H   0  0  0  0  0  0  0  0  0  0  0  0
   26.5778   30.5957   49.6858 H   0  0  0  0  0  0  0  0  0  0  0  0
   27.8407   30.7819   48.4219 H   0  0  0  0  0  0  0  0  0  0  0  0
   26.7765   29.3348   48.4219 H   0  0  0  0  0  0  0  0  0  0  0  0
  2  8  1  0
  2  1  2  0
  3  4  2  0
  3  2  1  0
  4  5  1  0
  5  6  2  0
  6  1  1  0
  7 15  2  0
  8  7  1  0
  9 10  1  0
  9  8  2  0
 10 14  2  0
 11 10  1  0
 11 12  1  0
 12 13  2  0
 14 13  1  0
 14 15  1  0
 16  5  1  0
 17 21  1  0
 17 16  1  0
 18 19  1  0
 18 17  1  0
 19 20  1  0
 20 21  1  0
 21 22  1  0
 22 23  1  0
 24 23  1  0
  1 25  1  0
  3 26  1  0
  7 27  1  0
  9 28  1  0
 11 29  1  0
 12 30  1  0
 15 31  1  0
 16 32  1  0
 16 33  1  0
 17 34  1  6
 18 35  1  0
 18 36  1  0
 19 37  1  0
 19 38  1  0
 20 39  1  0
 20 40  1  0
 21 41  1  6
 22 42  1  0
 22 43  1  0
 23 44  1  0
 23 45  1  0
 24 46  1  0
 24 47  1  0
 24 48  1  0
M  ISO  8  25  14  26  14  27  14  28  14  29   9  30  14  31  14  32   8
M  ISO  8  33   8  34  13  35  13  36  13  37  13  38  13  39  13  40  13
M  ISO  8  41  13  42   8  43   8  44   8  45   8  46   8  47   8  48   8
M  END
>  <minimizedAffinity>  (1) 
-6.31578159

>  <minimizedRMSD>  (1) 
1.74895966

$$$$
