
     RDKit          3D

 33 34  0  0  1  0  0  0  0  0999 V2000
   37.7480   30.3010   47.0850 C   0  0  1  0  0  0  0  0  0  0  0  0
   37.0980   30.8640   45.8980 C   0  0  0  0  0  0  0  0  0  0  0  0
   37.9430   30.5340   44.6960 C   0  0  0  0  0  0  0  0  0  0  0  0
   39.3930   30.6830   44.9940 C   0  0  0  0  0  0  0  0  0  0  0  0
   39.7170   31.5320   46.1670 C   0  0  0  0  0  0  0  0  0  0  0  0
   38.9450   31.2010   47.4030 C   0  0  1  0  0  0  0  0  0  0  0  0
   36.7630   29.6480   50.6190 C   0  0  0  0  0  0  0  0  0  0  0  0
   37.5640   29.7350   49.4610 C   0  0  0  0  0  0  0  0  0  0  0  0
   36.9450   30.2060   48.3080 C   0  0  0  0  0  0  0  0  0  0  0  0
   35.6140   30.5570   48.3410 N   0  0  0  0  0  0  0  0  0  0  0  0
   34.8870   30.4550   49.4720 C   0  0  0  0  0  0  0  0  0  0  0  0
   35.4640   30.0020   50.6080 N   0  0  0  0  0  0  0  0  0  0  0  0
   38.5690   32.4050   48.1820 C   0  0  0  0  0  0  0  0  0  0  0  0
   39.3240   33.3680   48.7580 C   0  0  0  0  0  0  0  0  0  0  0  0
   38.9130   34.5870   49.5450 C   0  0  0  0  0  0  0  0  0  0  0  0
   37.9880   29.2610   46.8190 H   0  0  0  0  0  0  0  0  0  0  0  0
   36.0958   30.4264   45.7798 H   0  0  0  0  0  0  0  0  0  0  0  0
   36.9962   31.9543   46.0024 H   0  0  0  0  0  0  0  0  0  0  0  0
   37.6752   31.2130   43.8730 H   0  0  0  0  0  0  0  0  0  0  0  0
   37.7530   29.4873   44.4162 H   0  0  0  0  0  0  0  0  0  0  0  0
   39.8070   29.6803   45.1760 H   0  0  0  0  0  0  0  0  0  0  0  0
   39.8314   31.1903   44.1219 H   0  0  0  0  0  0  0  0  0  0  0  0
   40.7881   31.4165   46.3895 H   0  0  0  0  0  0  0  0  0  0  0  0
   39.4435   32.5617   45.8933 H   0  0  0  0  0  0  0  0  0  0  0  0
   39.6142   30.6260   48.0599 H   0  0  0  0  0  0  0  0  0  0  0  0
   37.2110   29.2817   51.5545 H   0  0  0  0  0  0  0  0  0  0  0  0
   38.6250   29.4449   49.4695 H   0  0  0  0  0  0  0  0  0  0  0  0
   33.8246   30.7403   49.4706 H   0  0  0  0  0  0  0  0  0  0  0  0
   37.4853   32.5386   48.3149 H   0  0  0  0  0  0  0  0  0  0  0  0
   40.4096   33.2422   48.6326 H   0  0  0  0  0  0  0  0  0  0  0  0
   38.9860   34.3705   50.6210 H   0  0  0  0  0  0  0  0  0  0  0  0
   39.5777   35.4268   49.2940 H   0  0  0  0  0  0  0  0  0  0  0  0
   37.8755   34.8529   49.2940 H   0  0  0  0  0  0  0  0  0  0  0  0
  1  6  1  0
  1  9  1  0
  2  1  1  0
  3  4  1  0
  3  2  1  0
  4  5  1  0
  5  6  1  0
  6 13  1  0
  8  7  2  0
  9 10  2  0
  9  8  1  0
 10 11  1  0
 11 12  2  0
 12  7  1  0
 13 14  2  0
 14 15  1  0
  1 16  1  6
  2 17  1  0
  2 18  1  0
  3 19  1  0
  3 20  1  0
  4 21  1  0
  4 22  1  0
  5 23  1  0
  5 24  1  0
  6 25  1  1
  7 26  1  0
  8 27  1  0
 11 28  1  0
 13 29  1  0
 14 30  1  0
 15 31  1  0
 15 32  1  0
 15 33  1  0
M  ISO  8  16  13  17  13  18  13  19  13  20  13  21  13  22  13  23  13
M  ISO  8  24  13  25  13  26  14  27  14  28  14  31   8  32   8  33   8
M  END
>  <minimizedAffinity>  (1) 
-4.46613741

>  <minimizedRMSD>  (1) 
1.33721209

$$$$
