
     RDKit          3D

 18 18  0  0  0  0  0  0  0  0999 V2000
   37.3120   29.9300   51.3390 C   0  0  0  0  0  0  0  0  0  0  0  0
   37.8430   30.9620   50.5470 C   0  0  0  0  0  0  0  0  0  0  0  0
   37.1090   31.4040   49.4560 C   0  0  0  0  0  0  0  0  0  0  0  0
   35.9110   30.8220   49.2010 N   0  0  0  0  0  0  0  0  0  0  0  0
   35.4140   29.8250   49.9800 C   0  0  0  0  0  0  0  0  0  0  0  0
   36.1140   29.3940   51.0320 N   0  0  0  0  0  0  0  0  0  0  0  0
   38.1430   29.5910   52.3860 O   0  0  0  0  0  0  0  0  0  0  0  0
   34.1230   29.2110   49.6930 C   0  0  0  0  0  0  0  0  0  0  0  0
   33.9670   28.2600   48.7840 C   0  0  0  0  0  0  0  0  0  0  0  0
   32.6090   27.6610   48.5280 C   0  0  0  0  0  0  0  0  0  0  0  0
   38.8189   31.4094   50.7867 H   0  0  0  0  0  0  0  0  0  0  0  0
   37.4907   32.2095   48.8114 H   0  0  0  0  0  0  0  0  0  0  0  0
   37.8781   28.8751   53.0164 H   0  0  0  0  0  0  0  0  0  0  0  0
   33.2411   29.5519   50.2552 H   0  0  0  0  0  0  0  0  0  0  0  0
   34.8365   27.9049   48.2114 H   0  0  0  0  0  0  0  0  0  0  0  0
   32.1171   27.4440   49.4877 H   0  0  0  0  0  0  0  0  0  0  0  0
   31.9966   28.3725   47.9547 H   0  0  0  0  0  0  0  0  0  0  0  0
   32.7215   26.7290   47.9547 H   0  0  0  0  0  0  0  0  0  0  0  0
  1  7  1  0
  2  1  2  0
  3  2  1  0
  4  3  2  0
  4  5  1  0
  5  6  2  0
  6  1  1  0
  8  5  1  0
  9  8  2  0
 10  9  1  0
  2 11  1  0
  3 12  1  0
  7 13  1  0
  8 14  1  0
  9 15  1  0
 10 16  1  0
 10 17  1  0
 10 18  1  0
M  ISO  6  11  14  12  14  13   3  16   8  17   8  18   8
M  END
>  <minimizedAffinity>  (1) 
-4.28487682

>  <minimizedRMSD>  (1) 
0.337102652

$$$$
