
     RDKit          3D

 29 30  0  0  1  0  0  0  0  0999 V2000
   37.7910   30.5150   50.9600 C   0  0  1  0  0  0  0  0  0  0  0  0
   36.5360   29.7950   51.1680 C   0  0  2  0  0  0  0  0  0  0  0  0
   37.7370   28.9780   50.8080 C   0  0  0  0  0  0  0  0  0  0  0  0
   38.1100   31.1930   49.6640 C   0  0  0  0  0  0  0  0  0  0  0  0
   38.4980   32.5280   49.7390 C   0  0  0  0  0  0  0  0  0  0  0  0
   38.7650   33.1280   48.5110 C   0  0  0  0  0  0  0  0  0  0  0  0
   38.6440   32.4250   47.3360 N   0  0  0  0  0  0  0  0  0  0  0  0
   38.2640   31.1310   47.3120 C   0  0  0  0  0  0  0  0  0  0  0  0
   37.9910   30.5040   48.5000 N   0  0  0  0  0  0  0  0  0  0  0  0
   38.1380   30.3950   46.0600 C   0  0  0  0  0  0  0  0  0  0  0  0
   39.1940   30.2880   45.2720 C   0  0  0  0  0  0  0  0  0  0  0  0
   39.1030   29.5410   43.9770 C   0  0  0  0  0  0  0  0  0  0  0  0
   35.5390   29.9700   50.2170 O   0  0  0  0  0  0  0  0  0  0  0  0
   34.4940   29.1680   49.8950 C   0  0  0  0  0  0  0  0  0  0  0  0
   34.6280   28.1460   49.1890 O   0  0  0  0  0  0  0  0  0  0  0  0
   33.3390   29.6950   50.4770 N   0  0  0  0  0  0  0  0  0  0  0  0
   38.2947   31.2806   51.5684 H   0  0  0  0  0  0  0  0  0  0  0  0
   35.8086   29.7390   51.9913 H   0  0  0  0  0  0  0  0  0  0  0  0
   37.8171   28.5134   49.8142 H   0  0  0  0  0  0  0  0  0  0  0  0
   38.2706   28.1193   51.2416 H   0  0  0  0  0  0  0  0  0  0  0  0
   38.5867   33.0668   50.6939 H   0  0  0  0  0  0  0  0  0  0  0  0
   39.0780   34.1821   48.4808 H   0  0  0  0  0  0  0  0  0  0  0  0
   37.1796   29.9361   45.7755 H   0  0  0  0  0  0  0  0  0  0  0  0
   40.1464   30.7509   45.5695 H   0  0  0  0  0  0  0  0  0  0  0  0
   38.9723   28.4680   44.1810 H   0  0  0  0  0  0  0  0  0  0  0  0
   38.2434   29.9118   43.3994 H   0  0  0  0  0  0  0  0  0  0  0  0
   40.0265   29.6946   43.3994 H   0  0  0  0  0  0  0  0  0  0  0  0
   32.4338   29.2217   50.3450 H   0  0  0  0  0  0  0  0  0  0  0  0
   33.3924   30.5570   51.0383 H   0  0  0  0  0  0  0  0  0  0  0  0
  1  2  1  0
  3  1  1  0
  3  2  1  0
  4  5  2  0
  4  1  1  0
  6  5  1  0
  7  6  2  0
  8  7  1  0
  8  9  2  0
  9  4  1  0
 10  8  1  0
 11 10  2  0
 12 11  1  0
 13  2  1  0
 14 13  1  0
 14 16  1  0
 15 14  2  0
  1 17  1  1
  2 18  1  1
  3 19  1  0
  3 20  1  0
  5 21  1  0
  6 22  1  0
 10 23  1  0
 11 24  1  0
 12 25  1  0
 12 26  1  0
 12 27  1  0
 16 28  1  0
 16 29  1  0
M  ISO  8  17  13  18  13  19  13  20  13  21  14  22  14  25   8  26   8
M  ISO  1  27   8
M  END
>  <minimizedAffinity>  (1) 
-5.28094959

>  <minimizedRMSD>  (1) 
1.17904139

$$$$
