
     RDKit          3D

 47 50  0  0  0  0  0  0  0  0999 V2000
   39.2860   31.9120   44.9630 C   0  0  0  0  0  0  0  0  0  0  0  0
   38.1940   32.5550   45.0800 O   0  0  0  0  0  0  0  0  0  0  0  0
   39.9750   31.6550   46.1730 N   0  0  0  0  0  0  0  0  0  0  0  0
   39.1910   32.2300   42.5820 C   0  0  0  0  0  0  0  0  0  0  0  0
   39.7250   31.5070   43.6330 C   0  0  0  0  0  0  0  0  0  0  0  0
   40.6030   30.4810   43.4740 C   0  0  0  0  0  0  0  0  0  0  0  0
   41.0010   30.1190   42.1980 C   0  0  0  0  0  0  0  0  0  0  0  0
   41.8280   29.1760   41.7330 N   0  0  0  0  0  0  0  0  0  0  0  0
   41.8410   29.2720   40.3990 C   0  0  0  0  0  0  0  0  0  0  0  0
   41.0240   30.2750   40.0190 N   0  0  0  0  0  0  0  0  0  0  0  0
   40.4810   30.8270   41.1340 C   0  0  0  0  0  0  0  0  0  0  0  0
   39.5920   31.8660   41.2900 C   0  0  0  0  0  0  0  0  0  0  0  0
   39.0700   32.5780   40.2110 O   0  0  0  0  0  0  0  0  0  0  0  0
   38.3590   33.7310   40.3360 C   0  0  0  0  0  0  0  0  0  0  0  0
   37.1600   34.1320   40.6910 C   0  0  0  0  0  0  0  0  0  0  0  0
   35.7390   34.2580   41.1450 C   0  0  0  0  0  0  0  0  0  0  0  0
   38.1300   30.1620   47.5020 F   0  0  0  0  0  0  0  0  0  0  0  0
   38.3750   31.3950   47.9980 C   0  0  0  0  0  0  0  0  0  0  0  0
   37.7170   31.8380   49.1050 C   0  0  0  0  0  0  0  0  0  0  0  0
   38.0170   33.1010   49.5520 C   0  0  0  0  0  0  0  0  0  0  0  0
   38.9340   33.9030   48.9320 C   0  0  0  0  0  0  0  0  0  0  0  0
   39.5990   33.4400   47.8040 C   0  0  0  0  0  0  0  0  0  0  0  0
   39.3090   32.1680   47.3370 C   0  0  0  0  0  0  0  0  0  0  0  0
   36.0660   29.3490   51.4440 C   0  0  0  0  0  0  0  0  0  0  0  0
   37.0220   30.2100   50.8620 C   0  0  0  0  0  0  0  0  0  0  0  0
   36.7450   30.9380   49.7300 C   0  0  0  0  0  0  0  0  0  0  0  0
   35.4830   30.7810   49.1950 N   0  0  0  0  0  0  0  0  0  0  0  0
   34.5700   29.9650   49.7430 C   0  0  0  0  0  0  0  0  0  0  0  0
   34.8570   29.2680   50.8400 N   0  0  0  0  0  0  0  0  0  0  0  0
   40.8703   31.1475   46.2143 H   0  0  0  0  0  0  0  0  0  0  0  0
   38.4829   33.0542   42.7529 H   0  0  0  0  0  0  0  0  0  0  0  0
   40.9935   29.9436   44.3507 H   0  0  0  0  0  0  0  0  0  0  0  0
   42.3585   28.4988   42.2995 H   0  0  0  0  0  0  0  0  0  0  0  0
   42.4254   28.6340   39.7198 H   0  0  0  0  0  0  0  0  0  0  0  0
   38.9958   34.3084   41.0224 H   0  0  0  0  0  0  0  0  0  0  0  0
   38.1074   33.7541   39.2654 H   0  0  0  0  0  0  0  0  0  0  0  0
   37.5400   34.8331   41.4487 H   0  0  0  0  0  0  0  0  0  0  0  0
   36.7771   33.6169   39.7977 H   0  0  0  0  0  0  0  0  0  0  0  0
   35.7042   34.2611   42.2444 H   0  0  0  0  0  0  0  0  0  0  0  0
   35.3137   35.1974   40.7621 H   0  0  0  0  0  0  0  0  0  0  0  0
   35.1550   33.4081   40.7621 H   0  0  0  0  0  0  0  0  0  0  0  0
   37.4990   33.4826   50.4442 H   0  0  0  0  0  0  0  0  0  0  0  0
   39.1440   34.9091   49.3241 H   0  0  0  0  0  0  0  0  0  0  0  0
   40.3408   34.0703   47.2917 H   0  0  0  0  0  0  0  0  0  0  0  0
   36.2940   28.7685   52.3501 H   0  0  0  0  0  0  0  0  0  0  0  0
   38.0147   30.3003   51.3271 H   0  0  0  0  0  0  0  0  0  0  0  0
   33.5758   29.8712   49.2818 H   0  0  0  0  0  0  0  0  0  0  0  0
  1  2  2  0
  1  3  1  0
  3 23  1  0
  4  5  2  0
  5  1  1  0
  6  5  1  0
  7  6  2  0
  8  7  1  0
  9  8  1  0
 10  9  2  0
 10 11  1  0
 11 12  2  0
 11  7  1  0
 12  4  1  0
 13 14  1  0
 13 12  1  0
 14 15  1  0
 15 16  1  0
 17 18  1  0
 18 19  2  0
 19 20  1  0
 19 26  1  0
 21 20  2  0
 22 21  1  0
 23 22  2  0
 23 18  1  0
 25 24  2  0
 26 25  1  0
 27 26  2  0
 27 28  1  0
 28 29  2  0
 29 24  1  0
  3 30  1  0
  4 31  1  0
  6 32  1  0
  8 33  1  0
  9 34  1  0
 14 35  1  0
 14 36  1  0
 15 37  1  0
 15 38  1  0
 16 39  1  0
 16 40  1  0
 16 41  1  0
 20 42  1  0
 21 43  1  0
 22 44  1  0
 24 45  1  0
 25 46  1  0
 28 47  1  0
M  ISO  8  31  14  32  14  33   9  34  14  35   8  36   8  37   8  38   8
M  ISO  8  39   8  40   8  41   8  42  14  43  14  44  14  45  14  46  14
M  ISO  1  47  14
M  END
>  <minimizedAffinity>  (1) 
-7.29762316

>  <minimizedRMSD>  (1) 
0.153028086

$$$$
