
     RDKit          3D

 45 48  0  0  0  0  0  0  0  0999 V2000
   34.4580   28.4120   48.3320 C   0  0  0  0  0  0  0  0  0  0  0  0
   33.5000   27.2700   48.1420 C   0  0  0  0  0  0  0  0  0  0  0  0
   32.1210   27.7280   47.8010 C   0  0  0  0  0  0  0  0  0  0  0  0
   31.1410   27.6310   48.7920 C   0  0  0  0  0  0  0  0  0  0  0  0
   29.8470   28.0290   48.5650 C   0  0  0  0  0  0  0  0  0  0  0  0
   29.5140   28.5210   47.3670 N   0  0  0  0  0  0  0  0  0  0  0  0
   30.4860   28.6060   46.4170 C   0  0  0  0  0  0  0  0  0  0  0  0
   31.7600   28.2260   46.6050 N   0  0  0  0  0  0  0  0  0  0  0  0
   30.0590   29.1650   45.0900 C   0  0  0  0  0  0  0  0  0  0  0  0
   30.4670   30.5870   44.9550 C   0  0  0  0  0  0  0  0  0  0  0  0
   29.6420   31.5760   44.4530 C   0  0  0  0  0  0  0  0  0  0  0  0
   30.3960   32.7330   44.4990 C   0  0  0  0  0  0  0  0  0  0  0  0
   31.6440   32.3900   45.0270 C   0  0  0  0  0  0  0  0  0  0  0  0
   31.6110   31.1150   45.2700 O   0  0  0  0  0  0  0  0  0  0  0  0
   34.5020   28.8420   49.6760 O   0  0  0  0  0  0  0  0  0  0  0  0
   37.2580   30.0050   51.7060 C   0  0  0  0  0  0  0  0  0  0  0  0
   38.0380   30.6580   50.7280 C   0  0  0  0  0  0  0  0  0  0  0  0
   37.5570   30.6530   49.4250 C   0  0  0  0  0  0  0  0  0  0  0  0
   36.3650   30.0100   49.2170 N   0  0  0  0  0  0  0  0  0  0  0  0
   35.6460   29.4010   50.1490 C   0  0  0  0  0  0  0  0  0  0  0  0
   36.1100   29.4040   51.4170 N   0  0  0  0  0  0  0  0  0  0  0  0
   38.8130   33.2610   49.2780 F   0  0  0  0  0  0  0  0  0  0  0  0
   38.7990   32.4740   48.2080 C   0  0  0  0  0  0  0  0  0  0  0  0
   38.2160   31.2700   48.2870 C   0  0  0  0  0  0  0  0  0  0  0  0
   38.2590   30.5320   47.1160 C   0  0  0  0  0  0  0  0  0  0  0  0
   38.8470   30.9890   45.9680 C   0  0  0  0  0  0  0  0  0  0  0  0
   39.4380   32.2390   45.9270 C   0  0  0  0  0  0  0  0  0  0  0  0
   39.4060   32.9740   47.0670 C   0  0  0  0  0  0  0  0  0  0  0  0
   34.1388   29.2534   47.6993 H   0  0  0  0  0  0  0  0  0  0  0  0
   35.4633   28.0650   48.0512 H   0  0  0  0  0  0  0  0  0  0  0  0
   33.8707   26.6312   47.3268 H   0  0  0  0  0  0  0  0  0  0  0  0
   33.4429   26.7213   49.0937 H   0  0  0  0  0  0  0  0  0  0  0  0
   31.4129   27.2259   49.7779 H   0  0  0  0  0  0  0  0  0  0  0  0
   29.0918   27.9441   49.3603 H   0  0  0  0  0  0  0  0  0  0  0  0
   30.5268   28.5787   44.2854 H   0  0  0  0  0  0  0  0  0  0  0  0
   28.9626   29.1071   45.0218 H   0  0  0  0  0  0  0  0  0  0  0  0
   28.6080   31.4657   44.0942 H   0  0  0  0  0  0  0  0  0  0  0  0
   30.0746   33.7355   44.1801 H   0  0  0  0  0  0  0  0  0  0  0  0
   32.4910   33.0695   45.2028 H   0  0  0  0  0  0  0  0  0  0  0  0
   37.6144   29.9935   52.7466 H   0  0  0  0  0  0  0  0  0  0  0  0
   38.9871   31.1503   50.9867 H   0  0  0  0  0  0  0  0  0  0  0  0
   37.7994   29.5326   47.1083 H   0  0  0  0  0  0  0  0  0  0  0  0
   38.8497   30.3558   45.0685 H   0  0  0  0  0  0  0  0  0  0  0  0
   39.9128   32.6202   45.0109 H   0  0  0  0  0  0  0  0  0  0  0  0
   39.8650   33.9735   47.0857 H   0  0  0  0  0  0  0  0  0  0  0  0
  1 15  1  0
  2  1  1  0
  3  2  1  0
  3  4  2  0
  5  4  1  0
  6  5  2  0
  7  8  2  0
  7  6  1  0
  8  3  1  0
  9  7  1  0
 10  9  1  0
 10 14  1  0
 11 12  1  0
 11 10  2  0
 12 13  2  0
 13 14  1  0
 15 20  1  0
 17 16  2  0
 18 17  1  0
 19 18  2  0
 19 20  1  0
 20 21  2  0
 21 16  1  0
 23 24  2  0
 23 22  1  0
 24 18  1  0
 25 24  1  0
 26 25  2  0
 27 26  1  0
 27 28  2  0
 28 23  1  0
  1 29  1  0
  1 30  1  0
  2 31  1  0
  2 32  1  0
  4 33  1  0
  5 34  1  0
  9 35  1  0
  9 36  1  0
 11 37  1  0
 12 38  1  0
 13 39  1  0
 16 40  1  0
 17 41  1  0
 25 42  1  0
 26 43  1  0
 27 44  1  0
 28 45  1  0
M  ISO  8  29   8  30   8  31   8  32   8  33  14  34  14  35   8  36   8
M  ISO  8  37  14  38  14  39  14  40  14  41  14  42  14  43  14  44  14
M  ISO  1  45  14
M  END
>  <minimizedAffinity>  (1) 
-6.31019592

>  <minimizedRMSD>  (1) 
0.958079696

$$$$
