
     RDKit          3D

 19 20  0  0  0  0  0  0  0  0999 V2000
   37.2150   30.4300   50.3040 C   0  0  0  0  0  0  0  0  0  0  0  0
   37.6010   30.3840   51.4930 O   0  0  0  0  0  0  0  0  0  0  0  0
   37.8910   31.1900   49.2730 C   0  0  0  0  0  0  0  0  0  0  0  0
   38.2870   32.4850   49.6020 C   0  0  0  0  0  0  0  0  0  0  0  0
   38.9420   33.2460   48.6320 C   0  0  0  0  0  0  0  0  0  0  0  0
   39.1540   32.6650   47.4070 N   0  0  0  0  0  0  0  0  0  0  0  0
   38.7620   31.4160   47.1170 C   0  0  0  0  0  0  0  0  0  0  0  0
   38.1330   30.6840   48.0500 N   0  0  0  0  0  0  0  0  0  0  0  0
   36.0330   29.6900   49.9220 C   0  0  0  0  0  0  0  0  0  0  0  0
   34.7870   30.2550   49.8990 C   0  0  0  0  0  0  0  0  0  0  0  0
   33.8850   29.2700   49.4890 C   0  0  0  0  0  0  0  0  0  0  0  0
   34.6600   28.1330   49.2800 C   0  0  0  0  0  0  0  0  0  0  0  0
   35.9070   28.4380   49.5490 O   0  0  0  0  0  0  0  0  0  0  0  0
   38.0882   32.8977   50.6021 H   0  0  0  0  0  0  0  0  0  0  0  0
   39.2757   34.2730   48.8418 H   0  0  0  0  0  0  0  0  0  0  0  0
   38.9548   30.9934   46.1199 H   0  0  0  0  0  0  0  0  0  0  0  0
   34.5403   31.2956   50.1565 H   0  0  0  0  0  0  0  0  0  0  0  0
   32.7974   29.3712   49.3594 H   0  0  0  0  0  0  0  0  0  0  0  0
   34.2915   27.1513   48.9477 H   0  0  0  0  0  0  0  0  0  0  0  0
  1  2  2  0
  3  4  2  0
  3  1  1  0
  5  4  1  0
  6  5  2  0
  7  6  1  0
  7  8  2  0
  8  3  1  0
  9  1  1  0
 10  9  2  0
 11 10  1  0
 12 11  2  0
 12 13  1  0
 13  9  1  0
  4 14  1  0
  5 15  1  0
  7 16  1  0
 10 17  1  0
 11 18  1  0
 12 19  1  0
M  ISO  6  14  14  15  14  16  14  17  14  18  14  19  14
M  END
>  <minimizedAffinity>  (1) 
-4.62269402

>  <minimizedRMSD>  (1) 
2.03829193

$$$$
