
     RDKit          3D

 19 20  0  0  0  0  0  0  0  0999 V2000
   36.5220   29.7180   51.1250 C   0  0  0  0  0  0  0  0  0  0  0  0
   37.4110   30.1750   50.1380 C   0  0  0  0  0  0  0  0  0  0  0  0
   37.0360   29.9500   48.8050 C   0  0  0  0  0  0  0  0  0  0  0  0
   35.8680   29.3210   48.5420 N   0  0  0  0  0  0  0  0  0  0  0  0
   35.0470   28.8990   49.5180 C   0  0  0  0  0  0  0  0  0  0  0  0
   35.3660   29.0940   50.8160 N   0  0  0  0  0  0  0  0  0  0  0  0
   33.8320   28.2400   49.0510 C   0  0  0  0  0  0  0  0  0  0  0  0
   34.0360   27.2940   48.0430 C   0  0  0  0  0  0  0  0  0  0  0  0
   32.7890   26.7600   47.7090 C   0  0  0  0  0  0  0  0  0  0  0  0
   31.9050   27.4360   48.5560 C   0  0  0  0  0  0  0  0  0  0  0  0
   32.5500   28.2890   49.3210 O   0  0  0  0  0  0  0  0  0  0  0  0
   38.6180   30.8280   50.5190 N   0  0  0  0  0  0  0  0  0  0  0  0
   36.7763   29.8738   52.1838 H   0  0  0  0  0  0  0  0  0  0  0  0
   37.6856   30.2820   47.9817 H   0  0  0  0  0  0  0  0  0  0  0  0
   35.0022   27.0198   47.5943 H   0  0  0  0  0  0  0  0  0  0  0  0
   32.5574   25.9904   46.9580 H   0  0  0  0  0  0  0  0  0  0  0  0
   30.8170   27.2757   48.5791 H   0  0  0  0  0  0  0  0  0  0  0  0
   39.2716   31.1641   49.7974 H   0  0  0  0  0  0  0  0  0  0  0  0
   38.8373   30.9642   51.5161 H   0  0  0  0  0  0  0  0  0  0  0  0
  2 12  1  0
  2  1  2  0
  3  2  1  0
  4  3  2  0
  4  5  1  0
  5  6  2  0
  6  1  1  0
  7 11  1  0
  7  5  1  0
  8  7  2  0
  9  8  1  0
  9 10  2  0
 10 11  1  0
  1 13  1  0
  3 14  1  0
  8 15  1  0
  9 16  1  0
 10 17  1  0
 12 18  1  0
 12 19  1  0
M  ISO  5  13  14  14  14  15  14  16  14  17  14
M  END
>  <minimizedAffinity>  (1) 
-4.33310986

>  <minimizedRMSD>  (1) 
0.648339272

$$$$
