
     RDKit          3D

 34 37  0  0  0  0  0  0  0  0999 V2000
   37.1510   30.9360   47.4340 C   0  0  0  0  0  0  0  0  0  0  0  0
   38.0810   31.8900   47.4550 C   0  0  0  0  0  0  0  0  0  0  0  0
   38.5620   32.3790   46.3030 C   0  0  0  0  0  0  0  0  0  0  0  0
   38.0590   31.8580   45.1290 C   0  0  0  0  0  0  0  0  0  0  0  0
   36.8490   30.6200   45.7250 S   0  0  0  0  0  0  0  0  0  0  0  0
   40.8010   30.9380   44.1240 Cl  0  0  0  0  0  0  0  0  0  0  0  0
   39.5360   31.7290   43.2180 C   0  0  0  0  0  0  0  0  0  0  0  0
   38.3190   32.1190   43.7290 C   0  0  0  0  0  0  0  0  0  0  0  0
   37.3220   32.7280   43.0650 C   0  0  0  0  0  0  0  0  0  0  0  0
   37.5120   33.0090   41.7040 C   0  0  0  0  0  0  0  0  0  0  0  0
   38.6980   32.6530   41.1140 C   0  0  0  0  0  0  0  0  0  0  0  0
   39.0110   32.9690   39.4200 Cl  0  0  0  0  0  0  0  0  0  0  0  0
   39.6970   32.0230   41.8500 C   0  0  0  0  0  0  0  0  0  0  0  0
   36.1700   29.5830   50.8130 C   0  0  0  0  0  0  0  0  0  0  0  0
   36.8960   30.2990   49.8420 C   0  0  0  0  0  0  0  0  0  0  0  0
   36.4480   30.2190   48.5050 C   0  0  0  0  0  0  0  0  0  0  0  0
   35.3740   29.4820   48.2190 N   0  0  0  0  0  0  0  0  0  0  0  0
   34.6980   28.8070   49.1720 C   0  0  0  0  0  0  0  0  0  0  0  0
   35.0950   28.8600   50.4520 N   0  0  0  0  0  0  0  0  0  0  0  0
   33.5240   28.0150   48.7930 C   0  0  0  0  0  0  0  0  0  0  0  0
   33.4460   26.9500   47.9120 C   0  0  0  0  0  0  0  0  0  0  0  0
   32.1260   26.5560   47.9070 C   0  0  0  0  0  0  0  0  0  0  0  0
   31.4450   27.3820   48.7750 C   0  0  0  0  0  0  0  0  0  0  0  0
   32.3150   28.2230   49.2700 O   0  0  0  0  0  0  0  0  0  0  0  0
   38.4534   32.2756   48.4156 H   0  0  0  0  0  0  0  0  0  0  0  0
   39.3296   33.1668   46.2944 H   0  0  0  0  0  0  0  0  0  0  0  0
   36.3848   32.9981   43.5737 H   0  0  0  0  0  0  0  0  0  0  0  0
   36.7236   33.5062   41.1199 H   0  0  0  0  0  0  0  0  0  0  0  0
   40.6373   31.7473   41.3501 H   0  0  0  0  0  0  0  0  0  0  0  0
   36.4822   29.6150   51.8673 H   0  0  0  0  0  0  0  0  0  0  0  0
   37.7779   30.8975   50.1142 H   0  0  0  0  0  0  0  0  0  0  0  0
   34.2706   26.5081   47.3334 H   0  0  0  0  0  0  0  0  0  0  0  0
   31.6946   25.7331   47.3182 H   0  0  0  0  0  0  0  0  0  0  0  0
   30.3707   27.3413   49.0077 H   0  0  0  0  0  0  0  0  0  0  0  0
  1  2  2  0
  1 16  1  0
  3  2  1  0
  4  5  1  0
  4  3  2  0
  5  1  1  0
  7  8  2  0
  7  6  1  0
  8  4  1  0
  9  8  1  0
 10  9  2  0
 11 10  1  0
 11 13  2  0
 12 11  1  0
 13  7  1  0
 15 14  2  0
 16 15  1  0
 17 16  2  0
 17 18  1  0
 18 19  2  0
 19 14  1  0
 20 18  1  0
 20 24  1  0
 21 20  2  0
 22 21  1  0
 22 23  2  0
 23 24  1  0
  2 25  1  0
  3 26  1  0
  9 27  1  0
 10 28  1  0
 13 29  1  0
 14 30  1  0
 15 31  1  0
 21 32  1  0
 22 33  1  0
 23 34  1  0
M  ISO  8  25  14  26  14  27  14  28  14  29  14  30  14  31  14  32  14
M  ISO  2  33  14  34  14
M  END
>  <minimizedAffinity>  (1) 
-5.95355225

>  <minimizedRMSD>  (1) 
1.3858676

$$$$
