
     RDKit          3D

 42 46  0  0  0  0  0  0  0  0999 V2000
   38.2870   31.4920   46.5430 C   0  0  0  0  0  0  0  0  0  0  0  0
   38.7720   31.5200   45.2660 N   0  0  0  0  0  0  0  0  0  0  0  0
   39.6730   32.4660   44.9040 C   0  0  0  0  0  0  0  0  0  0  0  0
   40.1250   33.3960   45.7540 N   0  0  0  0  0  0  0  0  0  0  0  0
   39.6780   33.4120   47.0270 C   0  0  0  0  0  0  0  0  0  0  0  0
   40.1540   34.3450   47.8980 C   0  0  0  0  0  0  0  0  0  0  0  0
   39.7340   34.3730   49.1990 C   0  0  0  0  0  0  0  0  0  0  0  0
   38.8110   33.4320   49.6160 C   0  0  0  0  0  0  0  0  0  0  0  0
   38.3320   32.4870   48.7160 C   0  0  0  0  0  0  0  0  0  0  0  0
   38.7490   32.4560   47.4340 C   0  0  0  0  0  0  0  0  0  0  0  0
   37.3580   31.6090   49.3840 C   0  0  0  0  0  0  0  0  0  0  0  0
   37.7670   30.7150   50.3880 C   0  0  0  0  0  0  0  0  0  0  0  0
   36.7940   29.9420   50.9340 C   0  0  0  0  0  0  0  0  0  0  0  0
   35.7230   30.3810   50.2300 C   0  0  0  0  0  0  0  0  0  0  0  0
   36.1320   31.2610   49.4390 O   0  0  0  0  0  0  0  0  0  0  0  0
   37.1710   30.2860   47.1410 S   0  0  0  0  0  0  0  0  0  0  0  0
   34.7130   28.8170   47.7670 F   0  0  0  0  0  0  0  0  0  0  0  0
   34.6690   29.3340   46.5040 C   0  0  0  0  0  0  0  0  0  0  0  0
   33.5660   29.1470   45.6750 C   0  0  0  0  0  0  0  0  0  0  0  0
   33.5750   29.6970   44.3990 C   0  0  0  0  0  0  0  0  0  0  0  0
   34.6660   30.4270   43.9370 C   0  0  0  0  0  0  0  0  0  0  0  0
   35.7310   30.5780   44.8080 C   0  0  0  0  0  0  0  0  0  0  0  0
   35.7580   30.0500   46.0770 C   0  0  0  0  0  0  0  0  0  0  0  0
   32.6350   27.0190   46.1290 C   0  0  0  0  0  0  0  0  0  0  0  0
   32.4830   28.3890   46.2060 C   0  0  0  0  0  0  0  0  0  0  0  0
   31.3100   28.8460   46.7830 C   0  0  0  0  0  0  0  0  0  0  0  0
   30.4010   27.9400   47.2290 N   0  0  0  0  0  0  0  0  0  0  0  0
   30.5880   26.6370   47.1350 C   0  0  0  0  0  0  0  0  0  0  0  0
   31.7020   26.1480   46.5870 N   0  0  0  0  0  0  0  0  0  0  0  0
   40.0478   32.4695   43.8698 H   0  0  0  0  0  0  0  0  0  0  0  0
   40.8873   35.0871   47.5495 H   0  0  0  0  0  0  0  0  0  0  0  0
   40.1221   35.1279   49.8986 H   0  0  0  0  0  0  0  0  0  0  0  0
   38.4565   33.4311   50.6573 H   0  0  0  0  0  0  0  0  0  0  0  0
   38.8156   30.6456   50.7129 H   0  0  0  0  0  0  0  0  0  0  0  0
   36.8570   29.1777   51.7226 H   0  0  0  0  0  0  0  0  0  0  0  0
   34.6859   30.0293   50.3341 H   0  0  0  0  0  0  0  0  0  0  0  0
   32.7043   29.5528   43.7424 H   0  0  0  0  0  0  0  0  0  0  0  0
   34.6812   30.8634   42.9274 H   0  0  0  0  0  0  0  0  0  0  0  0
   36.6044   31.1525   44.4658 H   0  0  0  0  0  0  0  0  0  0  0  0
   33.5531   26.6163   45.6763 H   0  0  0  0  0  0  0  0  0  0  0  0
   31.1173   29.9248   46.8787 H   0  0  0  0  0  0  0  0  0  0  0  0
   29.8182   25.9475   47.5120 H   0  0  0  0  0  0  0  0  0  0  0  0
  1 16  1  0
  1 10  1  0
  2  1  2  0
  3  2  1  0
  3  4  2  0
  4  5  1  0
  5 10  2  0
  5  6  1  0
  6  7  2  0
  7  8  1  0
  9 11  1  0
  9  8  2  0
 10  9  1  0
 11 15  1  0
 11 12  2  0
 12 13  1  0
 14 13  2  0
 15 14  1  0
 18 17  1  0
 19 25  1  0
 19 18  2  0
 20 19  1  0
 21 20  2  0
 21 22  1  0
 22 23  2  0
 23 18  1  0
 23 16  1  0
 24 25  2  0
 24 29  1  0
 25 26  1  0
 26 27  2  0
 28 27  1  0
 29 28  2  0
  3 30  1  0
  6 31  1  0
  7 32  1  0
  8 33  1  0
 12 34  1  0
 13 35  1  0
 14 36  1  0
 20 37  1  0
 21 38  1  0
 22 39  1  0
 24 40  1  0
 26 41  1  0
 28 42  1  0
M  ISO  8  30  14  31  14  32  14  33  14  34  14  35  14  36  14  37  14
M  ISO  5  38  14  39  14  40  14  41  14  42  14
M  END
>  <minimizedAffinity>  (1) 
-6.45256996

>  <minimizedRMSD>  (1) 
1.24920332

$$$$
