
     RDKit          3D

 39 42  0  0  0  0  0  0  0  0999 V2000
   37.3650   31.1030   47.1410 N   0  0  0  0  0  0  0  0  0  0  0  0
   36.7410   30.8260   45.9680 C   0  0  0  0  0  0  0  0  0  0  0  0
   37.1940   31.3410   44.7590 C   0  0  0  0  0  0  0  0  0  0  0  0
   38.3270   32.1650   44.7870 C   0  0  0  0  0  0  0  0  0  0  0  0
   38.7690   32.6480   43.7290 O   0  0  0  0  0  0  0  0  0  0  0  0
   38.9570   32.4410   45.9820 N   0  0  0  0  0  0  0  0  0  0  0  0
   38.4240   31.8860   47.0660 C   0  0  0  0  0  0  0  0  0  0  0  0
   39.0240   32.1620   48.1300 O   0  0  0  0  0  0  0  0  0  0  0  0
   37.2720   29.4410   50.4690 C   0  0  0  0  0  0  0  0  0  0  0  0
   37.7460   29.9580   49.2540 C   0  0  0  0  0  0  0  0  0  0  0  0
   36.9070   30.5810   48.3570 C   0  0  0  0  0  0  0  0  0  0  0  0
   35.5960   30.6750   48.7000 N   0  0  0  0  0  0  0  0  0  0  0  0
   35.1140   30.1790   49.8740 C   0  0  0  0  0  0  0  0  0  0  0  0
   35.9660   29.5670   50.7450 N   0  0  0  0  0  0  0  0  0  0  0  0
   36.5650   31.0760   43.4840 C   0  0  0  0  0  0  0  0  0  0  0  0
   36.9150   30.0160   42.6730 C   0  0  0  0  0  0  0  0  0  0  0  0
   36.3400   29.7350   41.4590 C   0  0  0  0  0  0  0  0  0  0  0  0
   35.3290   30.5700   40.9960 C   0  0  0  0  0  0  0  0  0  0  0  0
   35.0030   31.6290   41.8420 C   0  0  0  0  0  0  0  0  0  0  0  0
   35.5900   31.8570   43.0070 N   0  0  0  0  0  0  0  0  0  0  0  0
   33.9410   32.5020   41.3480 C   0  0  0  0  0  0  0  0  0  0  0  0
   32.5860   32.3490   41.5820 C   0  0  0  0  0  0  0  0  0  0  0  0
   31.9010   33.3690   40.9520 C   0  0  0  0  0  0  0  0  0  0  0  0
   32.9110   34.1210   40.3440 C   0  0  0  0  0  0  0  0  0  0  0  0
   34.0770   33.5740   40.6060 O   0  0  0  0  0  0  0  0  0  0  0  0
   40.1180   33.2860   45.9970 C   0  0  0  0  0  0  0  0  0  0  0  0
   40.0110   34.2650   45.0670 F   0  0  0  0  0  0  0  0  0  0  0  0
   41.3010   32.6070   45.7260 F   0  0  0  0  0  0  0  0  0  0  0  0
   40.2040   33.8930   47.2520 F   0  0  0  0  0  0  0  0  0  0  0  0
   35.8531   30.1767   45.9742 H   0  0  0  0  0  0  0  0  0  0  0  0
   37.9535   28.9456   51.1762 H   0  0  0  0  0  0  0  0  0  0  0  0
   38.8148   29.8634   49.0117 H   0  0  0  0  0  0  0  0  0  0  0  0
   34.0453   30.2716   50.1173 H   0  0  0  0  0  0  0  0  0  0  0  0
   37.7138   29.3469   43.0255 H   0  0  0  0  0  0  0  0  0  0  0  0
   36.6711   28.8696   40.8661 H   0  0  0  0  0  0  0  0  0  0  0  0
   34.8235   30.4069   40.0327 H   0  0  0  0  0  0  0  0  0  0  0  0
   32.1278   31.5437   42.1750 H   0  0  0  0  0  0  0  0  0  0  0  0
   30.8158   33.5480   40.9329 H   0  0  0  0  0  0  0  0  0  0  0  0
   32.7543   35.0277   39.7413 H   0  0  0  0  0  0  0  0  0  0  0  0
  1 11  1  0
  2  1  1  0
  3  4  1  0
  3  2  2  0
  4  6  1  0
  5  4  2  0
  6 26  1  0
  6  7  1  0
  7  1  1  0
  7  8  2  0
  9 14  2  0
 10  9  1  0
 11 12  1  0
 11 10  2  0
 12 13  2  0
 13 14  1  0
 15  3  1  0
 16 15  2  0
 17 16  1  0
 18 17  2  0
 18 19  1  0
 19 20  2  0
 20 15  1  0
 21 22  2  0
 21 19  1  0
 23 22  1  0
 24 25  1  0
 24 23  2  0
 25 21  1  0
 26 29  1  0
 27 26  1  0
 28 26  1  0
  2 30  1  0
  9 31  1  0
 10 32  1  0
 13 33  1  0
 16 34  1  0
 17 35  1  0
 18 36  1  0
 22 37  1  0
 23 38  1  0
 24 39  1  0
M  ISO  8  30  14  31  14  32  14  33  14  34  14  35  14  36  14  37  14
M  ISO  2  38  14  39  14
M  END
>  <minimizedAffinity>  (1) 
-6.30126953

>  <minimizedRMSD>  (1) 
0.233833015

$$$$
