
     RDKit          3D

 40 44  0  0  0  0  0  0  0  0999 V2000
   37.2830   30.9710   49.7170 C   0  0  0  0  0  0  0  0  0  0  0  0
   37.5050   30.5760   51.0130 C   0  0  0  0  0  0  0  0  0  0  0  0
   36.6720   29.6340   51.5550 C   0  0  0  0  0  0  0  0  0  0  0  0
   35.6520   29.1080   50.8260 N   0  0  0  0  0  0  0  0  0  0  0  0
   35.4730   29.5200   49.5760 C   0  0  0  0  0  0  0  0  0  0  0  0
   36.2720   30.4500   48.9950 N   0  0  0  0  0  0  0  0  0  0  0  0
   34.3820   28.9610   48.7920 C   0  0  0  0  0  0  0  0  0  0  0  0
   34.4490   28.9130   47.4130 C   0  0  0  0  0  0  0  0  0  0  0  0
   33.5070   28.4220   46.5350 C   0  0  0  0  0  0  0  0  0  0  0  0
   32.3650   27.9230   47.1690 C   0  0  0  0  0  0  0  0  0  0  0  0
   31.3890   27.4210   46.3580 N   0  0  0  0  0  0  0  0  0  0  0  0
   30.2570   26.9190   46.8610 C   0  0  0  0  0  0  0  0  0  0  0  0
   30.0620   26.9080   48.2480 C   0  0  0  0  0  0  0  0  0  0  0  0
   31.0530   27.4170   49.0620 C   0  0  0  0  0  0  0  0  0  0  0  0
   32.2350   27.9410   48.5460 C   0  0  0  0  0  0  0  0  0  0  0  0
   33.2250   28.4500   49.3450 C   0  0  0  0  0  0  0  0  0  0  0  0
   39.3500   33.9520   49.1180 C   0  0  0  0  0  0  0  0  0  0  0  0
   39.7300   33.8120   47.7890 C   0  0  0  0  0  0  0  0  0  0  0  0
   39.2590   32.6700   47.1050 C   0  0  0  0  0  0  0  0  0  0  0  0
   38.4680   31.7760   47.7680 N   0  0  0  0  0  0  0  0  0  0  0  0
   38.1350   31.9750   49.0720 C   0  0  0  0  0  0  0  0  0  0  0  0
   38.5770   33.0640   49.7440 N   0  0  0  0  0  0  0  0  0  0  0  0
   39.6300   32.4790   45.7080 C   0  0  0  0  0  0  0  0  0  0  0  0
   40.4750   31.4840   45.2610 C   0  0  0  0  0  0  0  0  0  0  0  0
   40.5060   31.7240   43.8810 C   0  0  0  0  0  0  0  0  0  0  0  0
   39.6970   32.8270   43.5840 C   0  0  0  0  0  0  0  0  0  0  0  0
   39.1970   33.2340   44.7390 O   0  0  0  0  0  0  0  0  0  0  0  0
   38.3302   31.0049   51.6004 H   0  0  0  0  0  0  0  0  0  0  0  0
   36.8297   29.2994   52.5909 H   0  0  0  0  0  0  0  0  0  0  0  0
   35.3668   29.3161   46.9602 H   0  0  0  0  0  0  0  0  0  0  0  0
   33.6404   28.4226   45.4431 H   0  0  0  0  0  0  0  0  0  0  0  0
   29.4835   26.5171   46.1901 H   0  0  0  0  0  0  0  0  0  0  0  0
   29.1360   26.5011   48.6803 H   0  0  0  0  0  0  0  0  0  0  0  0
   30.9046   27.4085   50.1519 H   0  0  0  0  0  0  0  0  0  0  0  0
   33.0966   28.4514   50.4375 H   0  0  0  0  0  0  0  0  0  0  0  0
   39.7014   34.8318   49.6769 H   0  0  0  0  0  0  0  0  0  0  0  0
   40.3688   34.5570   47.2921 H   0  0  0  0  0  0  0  0  0  0  0  0
   40.9913   30.7035   45.8391 H   0  0  0  0  0  0  0  0  0  0  0  0
   41.0767   31.1375   43.1460 H   0  0  0  0  0  0  0  0  0  0  0  0
   39.5143   33.2660   42.5921 H   0  0  0  0  0  0  0  0  0  0  0  0
  1  2  2  0
  2  3  1  0
  4  3  2  0
  5  4  1  0
  6  5  2  0
  6  1  1  0
  7 16  1  0
  7  5  1  0
  8  7  2  0
  9 10  2  0
  9  8  1  0
 10 15  1  0
 11 12  2  0
 11 10  1  0
 12 13  1  0
 13 14  2  0
 15 14  1  0
 15 16  2  0
 17 22  2  0
 18 17  1  0
 19 20  1  0
 19 18  2  0
 20 21  2  0
 21  1  1  0
 21 22  1  0
 23 19  1  0
 24 23  2  0
 25 24  1  0
 26 25  2  0
 26 27  1  0
 27 23  1  0
  2 28  1  0
  3 29  1  0
  8 30  1  0
  9 31  1  0
 12 32  1  0
 13 33  1  0
 14 34  1  0
 16 35  1  0
 17 36  1  0
 18 37  1  0
 24 38  1  0
 25 39  1  0
 26 40  1  0
M  ISO  8  28  14  29  14  30  14  31  14  32  14  33  14  34  14  35  14
M  ISO  5  36  14  37  14  38  14  39  14  40  14
M  END
>  <minimizedAffinity>  (1) 
-7.49095917

>  <minimizedRMSD>  (1) 
0.511288464

$$$$
