
     RDKit          3D

 33 35  0  0  0  0  0  0  0  0999 V2000
   35.3640   29.2450   50.4950 C   0  0  0  0  0  0  0  0  0  0  0  0
   36.3420   30.0690   49.8570 C   0  0  0  0  0  0  0  0  0  0  0  0
   36.3610   30.1260   48.4760 C   0  0  0  0  0  0  0  0  0  0  0  0
   35.4200   29.3700   47.8210 N   0  0  0  0  0  0  0  0  0  0  0  0
   34.5270   28.6180   48.4130 C   0  0  0  0  0  0  0  0  0  0  0  0
   34.4880   28.5490   49.7400 N   0  0  0  0  0  0  0  0  0  0  0  0
   32.7490   30.2900   46.6030 Cl  0  0  0  0  0  0  0  0  0  0  0  0
   32.6920   28.5380   46.7230 C   0  0  0  0  0  0  0  0  0  0  0  0
   33.5730   27.8690   47.5970 C   0  0  0  0  0  0  0  0  0  0  0  0
   33.5630   26.4830   47.7220 C   0  0  0  0  0  0  0  0  0  0  0  0
   32.6420   25.7830   46.9430 C   0  0  0  0  0  0  0  0  0  0  0  0
   31.7710   26.4130   46.0810 C   0  0  0  0  0  0  0  0  0  0  0  0
   30.6600   25.4340   45.1560 Cl  0  0  0  0  0  0  0  0  0  0  0  0
   31.8080   27.8040   45.9810 C   0  0  0  0  0  0  0  0  0  0  0  0
   30.8810   28.4960   45.0610 C   0  0  0  0  0  0  0  0  0  0  0  0
   29.8870   27.6110   44.6220 F   0  0  0  0  0  0  0  0  0  0  0  0
   31.5100   29.0860   44.0170 F   0  0  0  0  0  0  0  0  0  0  0  0
   30.2020   29.4940   45.7530 F   0  0  0  0  0  0  0  0  0  0  0  0
   37.2290   30.9380   47.6550 C   0  0  0  0  0  0  0  0  0  0  0  0
   38.3120   31.7510   47.7600 C   0  0  0  0  0  0  0  0  0  0  0  0
   38.7500   32.3010   46.5880 C   0  0  0  0  0  0  0  0  0  0  0  0
   37.8440   31.7650   45.7140 C   0  0  0  0  0  0  0  0  0  0  0  0
   37.0200   31.0140   46.3640 O   0  0  0  0  0  0  0  0  0  0  0  0
   37.3160   30.8200   50.7030 C   0  0  0  0  0  0  0  0  0  0  0  0
   38.6250   30.5620   50.3190 F   0  0  0  0  0  0  0  0  0  0  0  0
   37.0180   32.1470   50.6340 F   0  0  0  0  0  0  0  0  0  0  0  0
   37.2210   30.4540   52.0490 F   0  0  0  0  0  0  0  0  0  0  0  0
   35.3255   29.1785   51.5923 H   0  0  0  0  0  0  0  0  0  0  0  0
   34.2509   25.9628   48.4048 H   0  0  0  0  0  0  0  0  0  0  0  0
   32.6097   24.6862   47.0197 H   0  0  0  0  0  0  0  0  0  0  0  0
   38.8033   31.9531   48.7232 H   0  0  0  0  0  0  0  0  0  0  0  0
   39.5930   32.9823   46.4004 H   0  0  0  0  0  0  0  0  0  0  0  0
   37.8215   31.9456   44.6292 H   0  0  0  0  0  0  0  0  0  0  0  0
  2  1  2  0
  2 24  1  0
  3  2  1  0
  4  5  1  0
  4  3  2  0
  5  6  2  0
  6  1  1  0
  7  8  1  0
  8  9  2  0
  9 10  1  0
  9  5  1  0
 11 10  2  0
 12 11  1  0
 13 12  1  0
 14 12  2  0
 14  8  1  0
 15 18  1  0
 15 14  1  0
 16 15  1  0
 17 15  1  0
 19 20  2  0
 19  3  1  0
 21 20  1  0
 22 23  1  0
 22 21  2  0
 23 19  1  0
 24 27  1  0
 25 24  1  0
 26 24  1  0
  1 28  1  0
 10 29  1  0
 11 30  1  0
 20 31  1  0
 21 32  1  0
 22 33  1  0
M  ISO  6  28  14  29  14  30  14  31  14  32  14  33  14
M  END
>  <minimizedAffinity>  (1) 
-6.33650923

>  <minimizedRMSD>  (1) 
0.152033836

$$$$
