
     RDKit          3D

 47 50  0  0  1  0  0  0  0  0999 V2000
   37.0720   31.6760   47.8250 N   0  0  0  0  0  0  0  0  0  0  0  0
   38.0820   32.6720   48.2670 C   0  0  0  0  0  0  0  0  0  0  0  0
   38.5700   32.0440   49.5640 C   0  0  0  0  0  0  0  0  0  0  0  0
   37.3340   31.3980   50.1380 C   0  0  0  0  0  0  0  0  0  0  0  0
   36.2910   31.5070   49.0480 C   0  0  2  0  0  0  0  0  0  0  0  0
   35.5000   30.3260   46.6350 C   0  0  0  0  0  0  0  0  0  0  0  0
   36.7720   30.9640   46.6370 C   0  0  0  0  0  0  0  0  0  0  0  0
   37.5850   30.7890   45.5120 C   0  0  0  0  0  0  0  0  0  0  0  0
   37.1310   30.0250   44.4820 N   0  0  0  0  0  0  0  0  0  0  0  0
   35.9150   29.4360   44.5260 C   0  0  0  0  0  0  0  0  0  0  0  0
   35.1120   29.5840   45.5840 N   0  0  0  0  0  0  0  0  0  0  0  0
   38.8760   31.4140   45.4070 C   0  0  0  0  0  0  0  0  0  0  0  0
   38.9590   32.6910   44.9000 C   0  0  0  0  0  0  0  0  0  0  0  0
   40.1430   33.3820   44.7600 C   0  0  0  0  0  0  0  0  0  0  0  0
   41.2880   32.7130   45.1650 C   0  0  0  0  0  0  0  0  0  0  0  0
   41.2870   31.4260   45.6850 C   0  0  0  0  0  0  0  0  0  0  0  0
   40.0380   30.7960   45.7940 C   0  0  0  0  0  0  0  0  0  0  0  0
   35.7970   29.2110   49.7670 C   0  0  0  0  0  0  0  0  0  0  0  0
   35.3910   30.3390   49.0420 C   0  0  0  0  0  0  0  0  0  0  0  0
   34.1950   30.2090   48.3900 C   0  0  0  0  0  0  0  0  0  0  0  0
   33.4210   29.0690   48.4210 C   0  0  0  0  0  0  0  0  0  0  0  0
   33.8410   27.9700   49.1400 C   0  0  0  0  0  0  0  0  0  0  0  0
   35.0400   28.0610   49.8110 C   0  0  0  0  0  0  0  0  0  0  0  0
   37.1150   29.4160   51.7870 N   0  0  0  0  0  0  0  0  0  0  0  0
   37.0300   29.1100   50.5340 C   0  0  0  0  0  0  0  0  0  0  0  0
   38.3610   28.7290   50.3280 N   0  0  0  0  0  0  0  0  0  0  0  0
   37.9980   29.3320   52.2970 H   0  0  0  0  0  0  0  0  0  0  0  0
   38.8975   32.7708   47.5354 H   0  0  0  0  0  0  0  0  0  0  0  0
   37.6890   33.6931   48.3802 H   0  0  0  0  0  0  0  0  0  0  0  0
   39.3492   31.2930   49.3669 H   0  0  0  0  0  0  0  0  0  0  0  0
   39.0234   32.7770   50.2474 H   0  0  0  0  0  0  0  0  0  0  0  0
   37.5277   30.3433   50.3832 H   0  0  0  0  0  0  0  0  0  0  0  0
   37.0093   31.8843   51.0697 H   0  0  0  0  0  0  0  0  0  0  0  0
   35.5988   32.3511   49.1840 H   0  0  0  0  0  0  0  0  0  0  0  0
   34.8298   30.4410   47.4997 H   0  0  0  0  0  0  0  0  0  0  0  0
   35.5804   28.8238   43.6755 H   0  0  0  0  0  0  0  0  0  0  0  0
   38.0281   33.1877   44.5892 H   0  0  0  0  0  0  0  0  0  0  0  0
   40.1777   34.4028   44.3516 H   0  0  0  0  0  0  0  0  0  0  0  0
   42.2530   33.2322   45.0686 H   0  0  0  0  0  0  0  0  0  0  0  0
   42.2165   30.9263   45.9953 H   0  0  0  0  0  0  0  0  0  0  0  0
   39.9891   29.7757   46.2021 H   0  0  0  0  0  0  0  0  0  0  0  0
   33.8291   31.0662   47.8058 H   0  0  0  0  0  0  0  0  0  0  0  0
   32.4683   29.0359   47.8722 H   0  0  0  0  0  0  0  0  0  0  0  0
   33.2380   27.0507   49.1764 H   0  0  0  0  0  0  0  0  0  0  0  0
   35.3999   27.1996   50.3928 H   0  0  0  0  0  0  0  0  0  0  0  0
   39.0343   28.7684   51.1064 H   0  0  0  0  0  0  0  0  0  0  0  0
   38.6671   28.4092   49.3980 H   0  0  0  0  0  0  0  0  0  0  0  0
  1  2  1  0
  1  5  1  0
  2  3  1  0
  3  4  1  0
  5  4  1  0
  6  7  2  0
  7  1  1  0
  8  7  1  0
  9 10  1  0
  9  8  2  0
 10 11  2  0
 11  6  1  0
 12  8  1  0
 12 17  1  0
 13 12  2  0
 14 13  1  0
 14 15  2  0
 15 16  1  0
 16 17  2  0
 18 23  2  0
 18 25  1  0
 19  5  1  0
 19 18  1  0
 20 21  1  0
 20 19  2  0
 21 22  2  0
 22 23  1  0
 24 27  1  0
 25 24  2  0
 26 25  1  0
  2 28  1  0
  2 29  1  0
  3 30  1  0
  3 31  1  0
  4 32  1  0
  4 33  1  0
  5 34  1  1
  6 35  1  0
 10 36  1  0
 13 37  1  0
 14 38  1  0
 15 39  1  0
 16 40  1  0
 17 41  1  0
 20 42  1  0
 21 43  1  0
 22 44  1  0
 23 45  1  0
 26 46  1  0
 26 47  1  0
M  ISO  8  28  13  29  13  30  13  31  13  32  13  33  13  34  13  35  14
M  ISO  8  36  14  37  14  38  14  39  14  40  14  41  14  42  14  43  14
M  ISO  2  44  14  45  14
M  END
>  <minimizedAffinity>  (1) 
-6.05166197

>  <minimizedRMSD>  (1) 
1.54386604

$$$$
