
     RDKit          3D

 46 49  0  0  0  0  0  0  0  0999 V2000
   33.7880   29.1890   44.5330 Cl  0  0  0  0  0  0  0  0  0  0  0  0
   33.8230   27.9730   45.7960 C   0  0  0  0  0  0  0  0  0  0  0  0
   33.9450   28.2220   47.1560 C   0  0  0  0  0  0  0  0  0  0  0  0
   33.9580   27.1790   48.0390 C   0  0  0  0  0  0  0  0  0  0  0  0
   33.8530   25.8950   47.6070 C   0  0  0  0  0  0  0  0  0  0  0  0
   33.7270   25.5820   46.2570 C   0  0  0  0  0  0  0  0  0  0  0  0
   33.7160   26.6440   45.3760 C   0  0  0  0  0  0  0  0  0  0  0  0
   32.4060   26.1210   43.2660 C   0  0  0  0  0  0  0  0  0  0  0  0
   33.5810   26.2580   43.9710 C   0  0  0  0  0  0  0  0  0  0  0  0
   34.7900   26.0180   43.3290 C   0  0  0  0  0  0  0  0  0  0  0  0
   34.7980   25.6440   41.9950 C   0  0  0  0  0  0  0  0  0  0  0  0
   33.6330   25.5010   41.2680 C   0  0  0  0  0  0  0  0  0  0  0  0
   32.4490   25.7470   41.9330 C   0  0  0  0  0  0  0  0  0  0  0  0
   30.7080   27.5870   44.0150 N   0  0  0  0  0  0  0  0  0  0  0  0
   31.1810   26.3880   43.9950 C   0  0  0  0  0  0  0  0  0  0  0  0
   30.5810   25.2670   44.6490 N   0  0  0  0  0  0  0  0  0  0  0  0
   29.8180   27.7290   44.5580 H   0  0  0  0  0  0  0  0  0  0  0  0
   34.0740   29.9610   47.5640 S   0  0  0  0  0  0  0  0  0  0  0  0
   36.4070   30.9010   45.7360 Cl  0  0  0  0  0  0  0  0  0  0  0  0
   36.7060   30.7870   47.4390 C   0  0  0  0  0  0  0  0  0  0  0  0
   37.9630   31.1200   47.8940 C   0  0  0  0  0  0  0  0  0  0  0  0
   38.2050   31.0300   49.2570 C   0  0  0  0  0  0  0  0  0  0  0  0
   37.2180   30.6240   50.0990 C   0  0  0  0  0  0  0  0  0  0  0  0
   35.9630   30.3000   49.5800 C   0  0  0  0  0  0  0  0  0  0  0  0
   35.6550   30.3660   48.2500 C   0  0  0  0  0  0  0  0  0  0  0  0
   40.2240   33.3220   46.0710 C   0  0  0  0  0  0  0  0  0  0  0  0
   40.9190   32.4600   45.2000 C   0  0  0  0  0  0  0  0  0  0  0  0
   40.5910   31.0950   45.2550 C   0  0  0  0  0  0  0  0  0  0  0  0
   39.6330   30.6820   46.1320 N   0  0  0  0  0  0  0  0  0  0  0  0
   39.0020   31.5550   46.9400 C   0  0  0  0  0  0  0  0  0  0  0  0
   39.2960   32.8550   46.9070 N   0  0  0  0  0  0  0  0  0  0  0  0
   34.0549   27.3820   49.1157 H   0  0  0  0  0  0  0  0  0  0  0  0
   33.8680   25.0798   48.3454 H   0  0  0  0  0  0  0  0  0  0  0  0
   33.6406   24.5417   45.9100 H   0  0  0  0  0  0  0  0  0  0  0  0
   35.7372   26.1246   43.8780 H   0  0  0  0  0  0  0  0  0  0  0  0
   35.7620   25.4552   41.4999 H   0  0  0  0  0  0  0  0  0  0  0  0
   33.6478   25.2050   40.2087 H   0  0  0  0  0  0  0  0  0  0  0  0
   31.5023   25.6419   41.3829 H   0  0  0  0  0  0  0  0  0  0  0  0
   29.7093   25.3888   45.1839 H   0  0  0  0  0  0  0  0  0  0  0  0
   31.0205   24.3377   44.5852 H   0  0  0  0  0  0  0  0  0  0  0  0
   39.1968   31.2875   49.6570 H   0  0  0  0  0  0  0  0  0  0  0  0
   37.4065   30.5513   51.1803 H   0  0  0  0  0  0  0  0  0  0  0  0
   35.1794   29.9738   50.2797 H   0  0  0  0  0  0  0  0  0  0  0  0
   40.4507   34.3984   46.0613 H   0  0  0  0  0  0  0  0  0  0  0  0
   41.6848   32.8390   44.5073 H   0  0  0  0  0  0  0  0  0  0  0  0
   41.0992   30.3713   44.6008 H   0  0  0  0  0  0  0  0  0  0  0  0
  1  2  1  0
  2  3  2  0
  3 18  1  0
  3  4  1  0
  5  4  2  0
  6  5  1  0
  7  2  1  0
  7  6  2  0
  8  9  2  0
  8 15  1  0
  9  7  1  0
 10  9  1  0
 11 10  2  0
 12 13  2  0
 12 11  1  0
 13  8  1  0
 14 17  1  0
 15 14  2  0
 15 16  1  0
 18 25  1  0
 19 20  1  0
 20 21  2  0
 20 25  1  0
 21 22  1  0
 22 23  2  0
 24 23  1  0
 25 24  2  0
 26 31  2  0
 27 28  2  0
 27 26  1  0
 28 29  1  0
 29 30  2  0
 30 21  1  0
 31 30  1  0
  4 32  1  0
  5 33  1  0
  6 34  1  0
 10 35  1  0
 11 36  1  0
 12 37  1  0
 13 38  1  0
 16 39  1  0
 16 40  1  0
 22 41  1  0
 23 42  1  0
 24 43  1  0
 26 44  1  0
 27 45  1  0
 28 46  1  0
M  ISO  8  32  14  33  14  34  14  35  14  36  14  37  14  38  14  41  14
M  ISO  5  42  14  43  14  44  14  45  14  46  14
M  END
>  <minimizedAffinity>  (1) 
-5.56655216

>  <minimizedRMSD>  (1) 
0.318727851

$$$$
