
     RDKit          3D

 49 54  0  0  0  0  0  0  0  0999 V2000
   32.1500   28.2000   47.3300 N   0  0  0  0  0  0  0  0  0  0  0  0
   32.4530   27.8260   48.6670 C   0  0  0  0  0  0  0  0  0  0  0  0
   33.6800   28.4040   49.2610 C   0  0  0  0  0  0  0  0  0  0  0  0
   34.8390   28.5350   48.3780 C   0  0  0  0  0  0  0  0  0  0  0  0
   34.4360   28.8660   46.9300 C   0  0  0  0  0  0  0  0  0  0  0  0
   33.3100   27.8970   46.5390 C   0  0  0  0  0  0  0  0  0  0  0  0
   30.9400   28.7680   46.8210 C   0  0  0  0  0  0  0  0  0  0  0  0
   30.7810   29.3800   45.5810 C   0  0  0  0  0  0  0  0  0  0  0  0
   29.5170   29.8700   45.2700 C   0  0  0  0  0  0  0  0  0  0  0  0
   28.5130   29.7300   46.1820 N   0  0  0  0  0  0  0  0  0  0  0  0
   28.6980   29.1350   47.3690 C   0  0  0  0  0  0  0  0  0  0  0  0
   29.9040   28.6590   47.6840 N   0  0  0  0  0  0  0  0  0  0  0  0
   27.6020   29.0230   48.2730 N   0  0  0  0  0  0  0  0  0  0  0  0
   26.3330   29.4710   48.3000 C   0  0  0  0  0  0  0  0  0  0  0  0
   25.7330   29.0510   49.4290 N   0  0  0  0  0  0  0  0  0  0  0  0
   26.6350   28.3310   50.1190 C   0  0  0  0  0  0  0  0  0  0  0  0
   26.4490   27.7100   51.3370 C   0  0  0  0  0  0  0  0  0  0  0  0
   27.5040   27.0250   51.8660 N   0  0  0  0  0  0  0  0  0  0  0  0
   28.6540   27.0010   51.1690 C   0  0  0  0  0  0  0  0  0  0  0  0
   28.8650   27.6020   49.9710 N   0  0  0  0  0  0  0  0  0  0  0  0
   27.8360   28.2970   49.4060 C   0  0  0  0  0  0  0  0  0  0  0  0
   36.0600   29.7680   50.1140 C   0  0  0  0  0  0  0  0  0  0  0  0
   35.7980   29.5990   48.7640 C   0  0  0  0  0  0  0  0  0  0  0  0
   36.3500   30.3700   47.7760 C   0  0  0  0  0  0  0  0  0  0  0  0
   37.2270   31.3820   48.1650 C   0  0  0  0  0  0  0  0  0  0  0  0
   37.4910   31.5560   49.4990 C   0  0  0  0  0  0  0  0  0  0  0  0
   36.9290   30.7710   50.5030 C   0  0  0  0  0  0  0  0  0  0  0  0
   38.3880   32.6170   49.6800 O   0  0  0  0  0  0  0  0  0  0  0  0
   38.9100   32.8760   48.3850 C   0  0  0  0  0  0  0  0  0  0  0  0
   37.9710   32.3480   47.4820 O   0  0  0  0  0  0  0  0  0  0  0  0
   31.6039   28.1284   49.2975 H   0  0  0  0  0  0  0  0  0  0  0  0
   32.6357   26.7420   48.6279 H   0  0  0  0  0  0  0  0  0  0  0  0
   33.4290   29.4084   49.6327 H   0  0  0  0  0  0  0  0  0  0  0  0
   33.9886   27.6899   50.0387 H   0  0  0  0  0  0  0  0  0  0  0  0
   35.3164   27.5481   48.4682 H   0  0  0  0  0  0  0  0  0  0  0  0
   34.0787   29.9044   46.8663 H   0  0  0  0  0  0  0  0  0  0  0  0
   35.2954   28.7601   46.2516 H   0  0  0  0  0  0  0  0  0  0  0  0
   33.0723   28.0163   45.4716 H   0  0  0  0  0  0  0  0  0  0  0  0
   33.6274   26.8593   46.7193 H   0  0  0  0  0  0  0  0  0  0  0  0
   31.6204   29.4723   44.8761 H   0  0  0  0  0  0  0  0  0  0  0  0
   29.3303   30.3624   44.3042 H   0  0  0  0  0  0  0  0  0  0  0  0
   25.8596   30.0854   47.5199 H   0  0  0  0  0  0  0  0  0  0  0  0
   25.4845   27.7651   51.8630 H   0  0  0  0  0  0  0  0  0  0  0  0
   29.4962   26.4462   51.6081 H   0  0  0  0  0  0  0  0  0  0  0  0
   35.5856   29.1164   50.8625 H   0  0  0  0  0  0  0  0  0  0  0  0
   36.1108   30.1977   46.7162 H   0  0  0  0  0  0  0  0  0  0  0  0
   37.1669   30.9421   51.5632 H   0  0  0  0  0  0  0  0  0  0  0  0
   39.0259   33.9585   48.2280 H   0  0  0  0  0  0  0  0  0  0  0  0
   39.9025   32.4213   48.2497 H   0  0  0  0  0  0  0  0  0  0  0  0
  1  2  1  0
  2  3  1  0
  4 23  1  0
  4  3  1  0
  5  4  1  0
  6  5  1  0
  6  1  1  0
  7  1  1  0
  7 12  1  0
  8  7  2  0
  9  8  1  0
  9 10  2  0
 10 11  1  0
 11 12  2  0
 11 13  1  0
 13 14  1  0
 13 21  1  0
 14 15  2  0
 15 16  1  0
 16 17  2  0
 17 18  1  0
 19 18  2  0
 20 19  1  0
 21 20  2  0
 21 16  1  0
 22 27  2  0
 23 22  1  0
 24 25  1  0
 24 23  2  0
 25 26  2  0
 26 28  1  0
 26 27  1  0
 29 28  1  0
 30 25  1  0
 30 29  1  0
  2 31  1  0
  2 32  1  0
  3 33  1  0
  3 34  1  0
  4 35  1  0
  5 36  1  0
  5 37  1  0
  6 38  1  0
  6 39  1  0
  8 40  1  0
  9 41  1  0
 14 42  1  0
 17 43  1  0
 19 44  1  0
 22 45  1  0
 24 46  1  0
 27 47  1  0
 29 48  1  0
 29 49  1  0
M  ISO  8  31  13  32  13  33  13  34  13  35  13  36  13  37  13  38  13
M  ISO  8  39  13  40  14  41  14  42  14  43  14  44  14  45  14  46  14
M  ISO  3  47  14  48  13  49  13
M  END
>  <minimizedAffinity>  (1) 
-8.99877739

>  <minimizedRMSD>  (1) 
1.42986476

$$$$
