
     RDKit          3D

 26 28  0  0  0  0  0  0  0  0999 V2000
   35.7830   29.4680   51.1230 C   0  0  0  0  0  0  0  0  0  0  0  0
   37.4530   29.1770   50.4950 S   0  0  0  0  0  0  0  0  0  0  0  0
   37.8580   30.4800   49.3530 C   0  0  0  0  0  0  0  0  0  0  0  0
   38.2350   31.6880   49.9130 C   0  0  0  0  0  0  0  0  0  0  0  0
   38.5640   32.7480   49.0790 C   0  0  0  0  0  0  0  0  0  0  0  0
   38.4990   32.5480   47.7090 N   0  0  0  0  0  0  0  0  0  0  0  0
   38.1280   31.3620   47.2210 C   0  0  0  0  0  0  0  0  0  0  0  0
   37.8110   30.3400   48.0110 N   0  0  0  0  0  0  0  0  0  0  0  0
   34.6550   30.0560   49.8320 S   0  0  0  0  0  0  0  0  0  0  0  0
   32.4390   28.3400   49.1190 N   0  0  0  0  0  0  0  0  0  0  0  0
   33.7260   28.7240   49.0910 C   0  0  0  0  0  0  0  0  0  0  0  0
   34.4520   27.8700   48.3100 N   0  0  0  0  0  0  0  0  0  0  0  0
   33.6290   26.9120   47.8160 C   0  0  0  0  0  0  0  0  0  0  0  0
   33.8400   25.8330   46.9920 C   0  0  0  0  0  0  0  0  0  0  0  0
   32.7690   25.0490   46.6790 N   0  0  0  0  0  0  0  0  0  0  0  0
   31.5840   25.3880   47.2000 C   0  0  0  0  0  0  0  0  0  0  0  0
   31.3680   26.4480   48.0120 N   0  0  0  0  0  0  0  0  0  0  0  0
   32.4090   27.2640   48.3550 C   0  0  0  0  0  0  0  0  0  0  0  0
   35.3904   28.5260   51.5335 H   0  0  0  0  0  0  0  0  0  0  0  0
   35.8455   30.2481   51.8960 H   0  0  0  0  0  0  0  0  0  0  0  0
   38.2735   31.8069   51.0059 H   0  0  0  0  0  0  0  0  0  0  0  0
   38.8680   33.7202   49.4942 H   0  0  0  0  0  0  0  0  0  0  0  0
   38.0830   31.2256   46.1304 H   0  0  0  0  0  0  0  0  0  0  0  0
   31.6562   28.7830   49.6209 H   0  0  0  0  0  0  0  0  0  0  0  0
   34.8418   25.6085   46.5970 H   0  0  0  0  0  0  0  0  0  0  0  0
   30.7193   24.7562   46.9487 H   0  0  0  0  0  0  0  0  0  0  0  0
  2  1  1  0
  3  4  2  0
  3  2  1  0
  5  4  1  0
  6  5  2  0
  7  6  1  0
  7  8  2  0
  8  3  1  0
  9  1  1  0
 11 10  1  0
 11  9  1  0
 12 11  2  0
 13 12  1  0
 13 18  2  0
 14 13  1  0
 15 14  2  0
 15 16  1  0
 16 17  2  0
 17 18  1  0
 18 10  1  0
  1 19  1  0
  1 20  1  0
  4 21  1  0
  5 22  1  0
  7 23  1  0
 10 24  1  0
 14 25  1  0
 16 26  1  0
M  ISO  8  19   8  20   8  21  14  22  14  23  14  24   9  25  14  26  14
M  END
>  <minimizedAffinity>  (1) 
-4.69385767

>  <minimizedRMSD>  (1) 
3.24242806

$$$$
