
     RDKit          3D

 38 42  0  0  0  0  0  0  0  0999 V2000
   38.2760   32.8800   49.9000 C   0  0  0  0  0  0  0  0  0  0  0  0
   38.8560   33.1230   48.6360 C   0  0  0  0  0  0  0  0  0  0  0  0
   38.4030   32.3360   47.5530 C   0  0  0  0  0  0  0  0  0  0  0  0
   37.4660   31.4100   47.7560 N   0  0  0  0  0  0  0  0  0  0  0  0
   36.9320   31.2000   48.9730 C   0  0  0  0  0  0  0  0  0  0  0  0
   37.3340   31.9280   50.0280 N   0  0  0  0  0  0  0  0  0  0  0  0
   35.9380   30.1920   49.0960 N   0  0  0  0  0  0  0  0  0  0  0  0
   35.6230   29.6240   50.2960 C   0  0  0  0  0  0  0  0  0  0  0  0
   34.6670   28.7060   50.1690 N   0  0  0  0  0  0  0  0  0  0  0  0
   34.3570   28.6830   48.8470 C   0  0  0  0  0  0  0  0  0  0  0  0
   33.4640   27.9710   48.0500 C   0  0  0  0  0  0  0  0  0  0  0  0
   33.3820   28.1740   46.7240 N   0  0  0  0  0  0  0  0  0  0  0  0
   34.1890   29.0960   46.1420 C   0  0  0  0  0  0  0  0  0  0  0  0
   35.0810   29.8210   46.8750 N   0  0  0  0  0  0  0  0  0  0  0  0
   35.1550   29.6100   48.1980 C   0  0  0  0  0  0  0  0  0  0  0  0
   38.9600   32.5320   46.2110 C   0  0  0  0  0  0  0  0  0  0  0  0
   40.0950   33.0890   45.7870 C   0  0  0  0  0  0  0  0  0  0  0  0
   40.3710   33.1400   44.4660 C   0  0  0  0  0  0  0  0  0  0  0  0
   39.4340   32.5980   43.6090 C   0  0  0  0  0  0  0  0  0  0  0  0
   38.1300   32.0040   44.7510 S   0  0  0  0  0  0  0  0  0  0  0  0
   40.7640   30.1260   42.4340 Cl  0  0  0  0  0  0  0  0  0  0  0  0
   39.9520   31.3960   41.5710 C   0  0  0  0  0  0  0  0  0  0  0  0
   39.3790   32.4740   42.1710 C   0  0  0  0  0  0  0  0  0  0  0  0
   38.7300   33.4960   41.5430 C   0  0  0  0  0  0  0  0  0  0  0  0
   38.6190   33.4770   40.1520 C   0  0  0  0  0  0  0  0  0  0  0  0
   39.1810   32.4070   39.4790 C   0  0  0  0  0  0  0  0  0  0  0  0
   39.1050   32.2730   37.7350 Cl  0  0  0  0  0  0  0  0  0  0  0  0
   39.8390   31.3810   40.1820 C   0  0  0  0  0  0  0  0  0  0  0  0
   38.5926   33.4659   50.7755 H   0  0  0  0  0  0  0  0  0  0  0  0
   39.6291   33.8936   48.4996 H   0  0  0  0  0  0  0  0  0  0  0  0
   36.1000   29.8915   51.2504 H   0  0  0  0  0  0  0  0  0  0  0  0
   32.8082   27.2224   48.5184 H   0  0  0  0  0  0  0  0  0  0  0  0
   34.1223   29.2620   45.0567 H   0  0  0  0  0  0  0  0  0  0  0  0
   40.8070   33.5072   46.5138 H   0  0  0  0  0  0  0  0  0  0  0  0
   41.3002   33.5928   44.0899 H   0  0  0  0  0  0  0  0  0  0  0  0
   38.2998   34.3242   42.1252 H   0  0  0  0  0  0  0  0  0  0  0  0
   38.1033   34.2836   39.6104 H   0  0  0  0  0  0  0  0  0  0  0  0
   40.2766   30.5433   39.6193 H   0  0  0  0  0  0  0  0  0  0  0  0
  1  6  2  0
  2  1  1  0
  3  4  1  0
  3  2  2  0
  4  5  2  0
  5  7  1  0
  5  6  1  0
  7  8  1  0
  9  8  2  0
 10  9  1  0
 11 10  2  0
 12 11  1  0
 13 12  2  0
 13 14  1  0
 14 15  2  0
 15 10  1  0
 15  7  1  0
 16  3  1  0
 17 16  2  0
 18 17  1  0
 19 18  2  0
 19 20  1  0
 20 16  1  0
 22 23  2  0
 22 21  1  0
 23 19  1  0
 24 23  1  0
 25 24  2  0
 26 25  1  0
 26 28  2  0
 27 26  1  0
 28 22  1  0
  1 29  1  0
  2 30  1  0
  8 31  1  0
 11 32  1  0
 13 33  1  0
 17 34  1  0
 18 35  1  0
 24 36  1  0
 25 37  1  0
 28 38  1  0
M  ISO  8  29  14  30  14  31  14  32  14  33  14  34  14  35  14  36  14
M  ISO  2  37  14  38  14
M  END
>  <minimizedAffinity>  (1) 
-7.19771528

>  <minimizedRMSD>  (1) 
2.92872715

$$$$
