
     RDKit          3D

 27 29  0  0  0  0  0  0  0  0999 V2000
   35.4810   30.1600   46.6660 O   0  0  0  0  0  0  0  0  0  0  0  0
   34.1990   29.9720   47.4520 P   0  0  2  0  0  0  0  0  0  0  0  0
   33.0250   30.9250   46.6930 O   0  0  0  0  0  0  0  0  0  0  0  0
   34.3670   30.4790   49.0880 O   0  0  0  0  0  0  0  0  0  0  0  0
   35.5830   30.4040   49.7640 C   0  0  0  0  0  0  0  0  0  0  0  0
   35.9210   29.4110   50.7080 C   0  0  0  0  0  0  0  0  0  0  0  0
   37.1740   29.4800   51.2920 C   0  0  0  0  0  0  0  0  0  0  0  0
   38.0260   30.4900   50.9380 N   0  0  0  0  0  0  0  0  0  0  0  0
   37.6580   31.4230   50.0240 C   0  0  0  0  0  0  0  0  0  0  0  0
   36.4320   31.3860   49.4310 N   0  0  0  0  0  0  0  0  0  0  0  0
   33.7310   28.3500   47.5150 O   0  0  0  0  0  0  0  0  0  0  0  0
   32.0270   28.1740   49.0810 N   0  0  0  0  0  0  0  0  0  0  0  0
   32.4090   28.0340   47.7860 C   0  0  0  0  0  0  0  0  0  0  0  0
   31.3280   27.6010   47.0990 N   0  0  0  0  0  0  0  0  0  0  0  0
   30.2820   27.4710   47.9420 C   0  0  0  0  0  0  0  0  0  0  0  0
   28.9940   27.0650   47.7010 C   0  0  0  0  0  0  0  0  0  0  0  0
   28.1360   27.0230   48.7280 N   0  0  0  0  0  0  0  0  0  0  0  0
   28.5330   27.3690   49.9650 C   0  0  0  0  0  0  0  0  0  0  0  0
   29.8100   27.7720   50.2070 N   0  0  0  0  0  0  0  0  0  0  0  0
   30.7220   27.8370   49.2190 C   0  0  0  0  0  0  0  0  0  0  0  0
   32.4709   31.3748   47.3792 H   0  0  0  0  0  0  0  0  0  0  0  0
   35.2137   28.6105   50.9704 H   0  0  0  0  0  0  0  0  0  0  0  0
   37.4821   28.7291   52.0344 H   0  0  0  0  0  0  0  0  0  0  0  0
   38.3628   32.2242   49.7569 H   0  0  0  0  0  0  0  0  0  0  0  0
   32.6394   28.4901   49.8465 H   0  0  0  0  0  0  0  0  0  0  0  0
   28.6736   26.7806   46.6878 H   0  0  0  0  0  0  0  0  0  0  0  0
   27.8132   27.3256   50.7957 H   0  0  0  0  0  0  0  0  0  0  0  0
  2  1  2  0
  2 11  1  0
  2  4  1  0
  3  2  1  0
  4  5  1  0
  5  6  2  0
  6  7  1  0
  8  7  2  0
  9  8  1  0
 10  5  1  0
 10  9  2  0
 11 13  1  0
 12 20  1  0
 13 12  1  0
 14 13  2  0
 14 15  1  0
 15 20  2  0
 16 15  1  0
 16 17  2  0
 17 18  1  0
 18 19  2  0
 20 19  1  0
  3 21  1  0
  6 22  1  0
  7 23  1  0
  9 24  1  0
 12 25  1  0
 16 26  1  0
 18 27  1  0
M  ISO  7  21   3  22  14  23  14  24  14  25   9  26  14  27  14
M  END
>  <minimizedAffinity>  (1) 
-5.56267881

>  <minimizedRMSD>  (1) 
1.95444751

$$$$
