
     RDKit          3D

 27 29  0  0  0  0  0  0  0  0999 V2000
   37.4070   33.6460   49.2540 O   0  0  0  0  0  0  0  0  0  0  0  0
   38.8310   33.0920   49.2490 P   0  0  1  0  0  0  0  0  0  0  0  0
   39.7720   34.0820   50.2680 O   0  0  0  0  0  0  0  0  0  0  0  0
   38.7930   31.5620   49.9760 O   0  0  0  0  0  0  0  0  0  0  0  0
   37.1960   30.3050   51.2350 C   0  0  0  0  0  0  0  0  0  0  0  0
   37.7500   30.6810   50.0030 C   0  0  0  0  0  0  0  0  0  0  0  0
   37.1800   30.1140   48.8620 C   0  0  0  0  0  0  0  0  0  0  0  0
   36.1410   29.2420   48.9850 N   0  0  0  0  0  0  0  0  0  0  0  0
   35.6510   28.9180   50.2010 C   0  0  0  0  0  0  0  0  0  0  0  0
   36.1680   29.4410   51.3290 N   0  0  0  0  0  0  0  0  0  0  0  0
   39.3980   33.0950   47.6900 O   0  0  0  0  0  0  0  0  0  0  0  0
   37.8220   32.4690   45.8010 N   0  0  0  0  0  0  0  0  0  0  0  0
   38.8930   32.3710   46.6260 C   0  0  0  0  0  0  0  0  0  0  0  0
   39.6180   31.2750   46.2750 N   0  0  0  0  0  0  0  0  0  0  0  0
   38.9990   30.6860   45.2320 C   0  0  0  0  0  0  0  0  0  0  0  0
   39.1770   29.5880   44.4150 C   0  0  0  0  0  0  0  0  0  0  0  0
   38.3320   29.2690   43.4180 N   0  0  0  0  0  0  0  0  0  0  0  0
   37.2480   30.0370   43.1730 C   0  0  0  0  0  0  0  0  0  0  0  0
   37.0130   31.1360   43.9420 N   0  0  0  0  0  0  0  0  0  0  0  0
   37.8770   31.4350   44.9380 C   0  0  0  0  0  0  0  0  0  0  0  0
   39.5697   33.8692   51.2135 H   0  0  0  0  0  0  0  0  0  0  0  0
   37.6165   30.7313   52.1577 H   0  0  0  0  0  0  0  0  0  0  0  0
   37.5691   30.3709   47.8657 H   0  0  0  0  0  0  0  0  0  0  0  0
   34.8110   28.2113   50.2716 H   0  0  0  0  0  0  0  0  0  0  0  0
   37.0976   33.2007   45.8285 H   0  0  0  0  0  0  0  0  0  0  0  0
   40.0513   28.9431   44.5872 H   0  0  0  0  0  0  0  0  0  0  0  0
   36.5587   29.7760   42.3565 H   0  0  0  0  0  0  0  0  0  0  0  0
  2  1  2  0
  2  4  1  0
  2  3  1  0
  4  6  1  0
  5 10  2  0
  6  5  1  0
  7  8  1  0
  7  6  2  0
  8  9  2  0
  9 10  1  0
 11  2  1  0
 12 13  1  0
 13 11  1  0
 14 13  2  0
 15 14  1  0
 16 15  2  0
 17 16  1  0
 18 17  2  0
 18 19  1  0
 19 20  2  0
 20 15  1  0
 20 12  1  0
  3 21  1  0
  5 22  1  0
  7 23  1  0
  9 24  1  0
 12 25  1  0
 16 26  1  0
 18 27  1  0
M  ISO  7  21   3  22  14  23  14  24  14  25   9  26  14  27  14
M  END
>  <minimizedAffinity>  (1) 
-5.3559494

>  <minimizedRMSD>  (1) 
1.74178076

$$$$
