
     RDKit          3D

 36 39  0  0  0  0  0  0  0  0999 V2000
   38.0920   31.4180   47.7390 C   0  0  0  0  0  0  0  0  0  0  0  0
   37.0830   31.3510   48.6940 C   0  0  0  0  0  0  0  0  0  0  0  0
   37.0830   32.4040   49.6230 C   0  0  0  0  0  0  0  0  0  0  0  0
   38.0480   33.4280   49.5580 C   0  0  0  0  0  0  0  0  0  0  0  0
   39.0250   33.3970   48.5490 C   0  0  0  0  0  0  0  0  0  0  0  0
   39.0270   32.3680   47.6380 C   0  0  0  0  0  0  0  0  0  0  0  0
   34.9990   30.3260   47.9040 C   0  0  0  0  0  0  0  0  0  0  0  0
   36.1030   30.3050   48.7540 C   0  0  0  0  0  0  0  0  0  0  0  0
   36.2140   29.2340   49.6580 C   0  0  0  0  0  0  0  0  0  0  0  0
   35.2330   28.2890   49.6400 N   0  0  0  0  0  0  0  0  0  0  0  0
   34.1750   28.3510   48.7920 C   0  0  0  0  0  0  0  0  0  0  0  0
   34.0590   29.3720   47.9230 N   0  0  0  0  0  0  0  0  0  0  0  0
   37.3590   29.1580   50.5820 C   0  0  0  0  0  0  0  0  0  0  0  0
   38.1560   30.4000   46.7750 O   0  0  0  0  0  0  0  0  0  0  0  0
   40.0120   32.3840   46.6620 O   0  0  0  0  0  0  0  0  0  0  0  0
   38.4280   32.8580   44.9610 N   0  0  0  0  0  0  0  0  0  0  0  0
   39.6220   32.3600   45.3300 C   0  0  0  0  0  0  0  0  0  0  0  0
   40.2640   31.8920   44.2430 N   0  0  0  0  0  0  0  0  0  0  0  0
   39.4780   32.0880   43.1440 C   0  0  0  0  0  0  0  0  0  0  0  0
   39.6820   31.7850   41.8010 C   0  0  0  0  0  0  0  0  0  0  0  0
   38.6800   32.1160   40.9330 N   0  0  0  0  0  0  0  0  0  0  0  0
   37.5670   32.7060   41.4050 C   0  0  0  0  0  0  0  0  0  0  0  0
   37.3500   33.0110   42.7160 N   0  0  0  0  0  0  0  0  0  0  0  0
   38.3150   32.7020   43.6220 C   0  0  0  0  0  0  0  0  0  0  0  0
   36.3181   32.4296   50.4131 H   0  0  0  0  0  0  0  0  0  0  0  0
   38.0367   34.2467   50.2926 H   0  0  0  0  0  0  0  0  0  0  0  0
   39.7836   34.1913   48.4885 H   0  0  0  0  0  0  0  0  0  0  0  0
   34.8956   31.1571   47.1908 H   0  0  0  0  0  0  0  0  0  0  0  0
   33.4083   27.5625   48.8152 H   0  0  0  0  0  0  0  0  0  0  0  0
   36.9950   29.1822   51.6197 H   0  0  0  0  0  0  0  0  0  0  0  0
   37.9090   28.2214   50.4081 H   0  0  0  0  0  0  0  0  0  0  0  0
   38.0280   30.0137   50.4081 H   0  0  0  0  0  0  0  0  0  0  0  0
   38.8623   30.4187   46.0815 H   0  0  0  0  0  0  0  0  0  0  0  0
   37.7266   33.2815   45.5852 H   0  0  0  0  0  0  0  0  0  0  0  0
   40.6072   31.3014   41.4543 H   0  0  0  0  0  0  0  0  0  0  0  0
   36.7770   32.9601   40.6830 H   0  0  0  0  0  0  0  0  0  0  0  0
  1  2  2  0
  2  8  1  0
  2  3  1  0
  4  3  2  0
  5  4  1  0
  6  1  1  0
  6  5  2  0
  7 12  2  0
  7  8  1  0
  8  9  2  0
  9 13  1  0
 10  9  1  0
 11 10  2  0
 12 11  1  0
 14  1  1  0
 15  6  1  0
 16 17  1  0
 17 15  1  0
 18 17  2  0
 19 24  2  0
 19 18  1  0
 20 19  1  0
 21 22  1  0
 21 20  2  0
 22 23  2  0
 23 24  1  0
 24 16  1  0
  3 25  1  0
  4 26  1  0
  5 27  1  0
  7 28  1  0
 11 29  1  0
 13 30  1  0
 13 31  1  0
 13 32  1  0
 14 33  1  0
 16 34  1  0
 20 35  1  0
 22 36  1  0
M  ISO  8  25  14  26  14  27  14  28  14  29  14  30   8  31   8  32   8
M  ISO  4  33   3  34   9  35  14  36  14
M  END
>  <minimizedAffinity>  (1) 
-7.12847805

>  <minimizedRMSD>  (1) 
0.402966291

$$$$
