
     RDKit          3D

 29 31  0  0  0  0  0  0  0  0999 V2000
   35.4040   29.5690   45.9360 O   0  0  0  0  0  0  0  0  0  0  0  0
   34.3740   29.4140   47.0390 P   0  0  1  0  0  0  0  0  0  0  0  0
   34.4630   27.8840   47.7520 O   0  0  0  0  0  0  0  0  0  0  0  0
   34.6100   30.5690   48.2980 O   0  0  0  0  0  0  0  0  0  0  0  0
   35.7560   30.5780   49.0800 C   0  0  0  0  0  0  0  0  0  0  0  0
   35.9450   29.9060   50.2850 C   0  0  0  0  0  0  0  0  0  0  0  0
   37.1710   30.0340   50.9310 C   0  0  0  0  0  0  0  0  0  0  0  0
   38.1450   30.8090   50.3760 N   0  0  0  0  0  0  0  0  0  0  0  0
   37.9150   31.4480   49.1940 C   0  0  0  0  0  0  0  0  0  0  0  0
   36.7280   31.3430   48.5360 N   0  0  0  0  0  0  0  0  0  0  0  0
   34.8360   29.1510   50.7160 N   0  0  0  0  0  0  0  0  0  0  0  0
   32.8810   29.6690   46.2950 O   0  0  0  0  0  0  0  0  0  0  0  0
   30.3950   29.6300   46.5640 N   0  0  0  0  0  0  0  0  0  0  0  0
   31.6680   29.2370   46.7510 C   0  0  0  0  0  0  0  0  0  0  0  0
   31.6440   28.1660   47.5920 N   0  0  0  0  0  0  0  0  0  0  0  0
   30.3420   27.9410   47.8930 C   0  0  0  0  0  0  0  0  0  0  0  0
   29.6700   27.0120   48.6850 C   0  0  0  0  0  0  0  0  0  0  0  0
   28.3350   26.9960   48.8260 N   0  0  0  0  0  0  0  0  0  0  0  0
   27.5880   27.9020   48.1880 C   0  0  0  0  0  0  0  0  0  0  0  0
   28.1940   28.8330   47.4000 N   0  0  0  0  0  0  0  0  0  0  0  0
   29.5310   28.8610   47.2510 C   0  0  0  0  0  0  0  0  0  0  0  0
   34.4575   27.9784   48.7375 H   0  0  0  0  0  0  0  0  0  0  0  0
   37.3526   29.5133   51.8828 H   0  0  0  0  0  0  0  0  0  0  0  0
   38.7130   32.0674   48.7586 H   0  0  0  0  0  0  0  0  0  0  0  0
   34.8854   28.6205   51.5975 H   0  0  0  0  0  0  0  0  0  0  0  0
   33.9760   29.1296   50.1495 H   0  0  0  0  0  0  0  0  0  0  0  0
   30.1161   30.4224   45.9680 H   0  0  0  0  0  0  0  0  0  0  0  0
   30.2620   26.2552   49.2205 H   0  0  0  0  0  0  0  0  0  0  0  0
   26.4936   27.8959   48.2983 H   0  0  0  0  0  0  0  0  0  0  0  0
  2  1  2  0
  2  3  1  0
  2  4  1  0
  4  5  1  0
  5  6  2  0
  6 11  1  0
  6  7  1  0
  8  7  2  0
  9  8  1  0
 10  5  1  0
 10  9  2  0
 12 14  1  0
 12  2  1  0
 13 14  1  0
 13 21  1  0
 14 15  2  0
 15 16  1  0
 16 17  2  0
 17 18  1  0
 19 18  2  0
 20 19  1  0
 21 20  2  0
 21 16  1  0
  3 22  1  0
  7 23  1  0
  9 24  1  0
 11 25  1  0
 11 26  1  0
 13 27  1  0
 17 28  1  0
 19 29  1  0
M  ISO  6  22   3  23  14  24  14  27   9  28  14  29  14
M  END
>  <minimizedAffinity>  (1) 
-4.66515827

>  <minimizedRMSD>  (1) 
1.69911671

$$$$
