
     RDKit          3D

 39 42  0  0  1  0  0  0  0  0999 V2000
   36.2000   30.2090   49.6810 C   0  0  1  0  0  0  0  0  0  0  0  0
   34.8060   30.5750   49.7600 C   0  0  0  0  0  0  0  0  0  0  0  0
   35.2720   29.5990   48.7260 C   0  0  2  0  0  0  0  0  0  0  0  0
   37.2200   31.1580   49.1150 C   0  0  0  0  0  0  0  0  0  0  0  0
   37.2820   32.4260   49.7180 C   0  0  0  0  0  0  0  0  0  0  0  0
   38.2250   33.2760   49.1850 C   0  0  0  0  0  0  0  0  0  0  0  0
   39.0090   32.8740   48.1600 N   0  0  0  0  0  0  0  0  0  0  0  0
   38.9200   31.6410   47.6060 C   0  0  0  0  0  0  0  0  0  0  0  0
   37.9930   30.7530   48.1000 N   0  0  0  0  0  0  0  0  0  0  0  0
   39.7350   31.1900   46.5620 N   0  0  0  0  0  0  0  0  0  0  0  0
   34.9460   28.2630   48.9730 O   0  0  0  0  0  0  0  0  0  0  0  0
   33.7250   26.2650   47.8990 O   0  0  0  0  0  0  0  0  0  0  0  0
   33.7180   27.7580   47.9680 P   0  0  1  0  0  0  0  0  0  0  0  0
   32.1930   28.1650   48.6870 O   0  0  0  0  0  0  0  0  0  0  0  0
   33.8710   28.5220   46.4820 O   0  0  0  0  0  0  0  0  0  0  0  0
   33.0100   29.3820   45.8710 C   0  0  0  0  0  0  0  0  0  0  0  0
   31.7120   29.4970   46.1540 N   0  0  0  0  0  0  0  0  0  0  0  0
   30.9940   30.3970   45.4590 C   0  0  0  0  0  0  0  0  0  0  0  0
   31.5370   31.1790   44.4970 N   0  0  0  0  0  0  0  0  0  0  0  0
   32.8410   31.1020   44.1740 C   0  0  0  0  0  0  0  0  0  0  0  0
   33.4270   31.8870   43.1960 C   0  0  0  0  0  0  0  0  0  0  0  0
   34.7560   31.7770   42.8980 C   0  0  0  0  0  0  0  0  0  0  0  0
   35.5190   30.8740   43.5820 C   0  0  0  0  0  0  0  0  0  0  0  0
   34.9250   30.0970   44.5550 C   0  0  0  0  0  0  0  0  0  0  0  0
   33.5980   30.1770   44.8810 C   0  0  0  0  0  0  0  0  0  0  0  0
   36.9136   29.8463   50.4354 H   0  0  0  0  0  0  0  0  0  0  0  0
   34.1932   30.2304   50.6060 H   0  0  0  0  0  0  0  0  0  0  0  0
   34.2466   31.5220   49.7419 H   0  0  0  0  0  0  0  0  0  0  0  0
   35.2080   29.5179   47.6309 H   0  0  0  0  0  0  0  0  0  0  0  0
   36.6270   32.7172   50.5523 H   0  0  0  0  0  0  0  0  0  0  0  0
   38.3412   34.2896   49.5963 H   0  0  0  0  0  0  0  0  0  0  0  0
   40.4455   31.8156   46.1562 H   0  0  0  0  0  0  0  0  0  0  0  0
   39.6245   30.2323   46.1993 H   0  0  0  0  0  0  0  0  0  0  0  0
   32.2767   28.1427   49.6732 H   0  0  0  0  0  0  0  0  0  0  0  0
   29.9218   30.5019   45.6814 H   0  0  0  0  0  0  0  0  0  0  0  0
   32.8102   32.6142   42.6475 H   0  0  0  0  0  0  0  0  0  0  0  0
   35.2057   32.4078   42.1170 H   0  0  0  0  0  0  0  0  0  0  0  0
   36.5912   30.7678   43.3604 H   0  0  0  0  0  0  0  0  0  0  0  0
   35.5516   29.3742   45.0981 H   0  0  0  0  0  0  0  0  0  0  0  0
  1  2  1  0
  3 11  1  0
  3  1  1  0
  3  2  1  0
  4  1  1  0
  4  5  2  0
  6  5  1  0
  7  6  2  0
  8  9  2  0
  8  7  1  0
  9  4  1  0
 10  8  1  0
 13 12  2  0
 13 14  1  0
 13 11  1  0
 15 13  1  0
 16 17  2  0
 16 15  1  0
 18 17  1  0
 19 18  2  0
 20 19  1  0
 20 25  2  0
 21 20  1  0
 22 21  2  0
 22 23  1  0
 23 24  2  0
 24 25  1  0
 25 16  1  0
  1 26  1  1
  2 27  1  0
  2 28  1  0
  3 29  1  6
  5 30  1  0
  6 31  1  0
 10 32  1  0
 10 33  1  0
 14 34  1  0
 18 35  1  0
 21 36  1  0
 22 37  1  0
 23 38  1  0
 24 39  1  0
M  ISO  8  26  13  27  13  28  13  29  13  30  14  31  14  34   3  35  14
M  ISO  4  36  14  37  14  38  14  39  14
M  END
>  <minimizedAffinity>  (1) 
-5.74235773

>  <minimizedRMSD>  (1) 
3.42757297

$$$$
