
     RDKit          3D

 41 45  0  0  0  0  0  0  0  0999 V2000
   37.3540   29.8090   49.7170 O   0  0  0  0  0  0  0  0  0  0  0  0
   37.9450   30.7620   48.8910 C   0  0  0  0  0  0  0  0  0  0  0  0
   38.2580   31.9470   49.5330 C   0  0  0  0  0  0  0  0  0  0  0  0
   38.8350   32.7740   48.5620 C   0  0  0  0  0  0  0  0  0  0  0  0
   38.8490   32.0760   47.3970 N   0  0  0  0  0  0  0  0  0  0  0  0
   38.3240   30.8960   47.6070 N   0  0  0  0  0  0  0  0  0  0  0  0
   39.3350   32.4830   46.1230 C   0  0  0  0  0  0  0  0  0  0  0  0
   39.7850   33.7190   45.8330 N   0  0  0  0  0  0  0  0  0  0  0  0
   40.2330   34.0190   44.5800 C   0  0  0  0  0  0  0  0  0  0  0  0
   40.2230   33.0540   43.6160 N   0  0  0  0  0  0  0  0  0  0  0  0
   39.7810   31.8110   43.8720 C   0  0  0  0  0  0  0  0  0  0  0  0
   39.7880   30.8740   42.8760 C   0  0  0  0  0  0  0  0  0  0  0  0
   39.3350   29.5900   43.1260 C   0  0  0  0  0  0  0  0  0  0  0  0
   38.8700   29.2540   44.4030 C   0  0  0  0  0  0  0  0  0  0  0  0
   38.8690   30.2090   45.3940 C   0  0  0  0  0  0  0  0  0  0  0  0
   39.3210   31.4870   45.1400 C   0  0  0  0  0  0  0  0  0  0  0  0
   33.4840   28.4150   48.7930 C   0  0  0  0  0  0  0  0  0  0  0  0
   33.8130   28.7740   50.0530 C   0  0  0  0  0  0  0  0  0  0  0  0
   35.0590   29.2400   50.4310 C   0  0  0  0  0  0  0  0  0  0  0  0
   36.0530   29.3600   49.5050 C   0  0  0  0  0  0  0  0  0  0  0  0
   35.7160   28.9880   48.1990 C   0  0  0  0  0  0  0  0  0  0  0  0
   34.4870   28.5390   47.8730 N   0  0  0  0  0  0  0  0  0  0  0  0
   31.1210   27.7550   49.2750 C   0  0  0  0  0  0  0  0  0  0  0  0
   32.1950   27.9290   48.3870 C   0  0  0  0  0  0  0  0  0  0  0  0
   31.9550   27.6070   47.0700 C   0  0  0  0  0  0  0  0  0  0  0  0
   30.7320   27.1490   46.6890 N   0  0  0  0  0  0  0  0  0  0  0  0
   29.7270   27.0000   47.6000 C   0  0  0  0  0  0  0  0  0  0  0  0
   29.9210   27.3040   48.9040 N   0  0  0  0  0  0  0  0  0  0  0  0
   38.0879   32.1901   50.5922 H   0  0  0  0  0  0  0  0  0  0  0  0
   39.2074   33.7978   48.7141 H   0  0  0  0  0  0  0  0  0  0  0  0
   40.5991   35.0302   44.3490 H   0  0  0  0  0  0  0  0  0  0  0  0
   40.1544   31.1412   41.8738 H   0  0  0  0  0  0  0  0  0  0  0  0
   39.3404   28.8367   42.3244 H   0  0  0  0  0  0  0  0  0  0  0  0
   38.5088   28.2363   44.6124 H   0  0  0  0  0  0  0  0  0  0  0  0
   38.5040   29.9503   46.3989 H   0  0  0  0  0  0  0  0  0  0  0  0
   33.0386   28.6901   50.8297 H   0  0  0  0  0  0  0  0  0  0  0  0
   35.2485   29.5141   51.4793 H   0  0  0  0  0  0  0  0  0  0  0  0
   36.4798   29.0644   47.4111 H   0  0  0  0  0  0  0  0  0  0  0  0
   31.2775   28.0042   50.3349 H   0  0  0  0  0  0  0  0  0  0  0  0
   32.7548   27.7205   46.3234 H   0  0  0  0  0  0  0  0  0  0  0  0
   28.7460   26.6277   47.2697 H   0  0  0  0  0  0  0  0  0  0  0  0
  2  3  1  0
  2  1  1  0
  4  3  2  0
  5  6  1  0
  5  4  1  0
  6  2  2  0
  7  5  1  0
  8  7  2  0
  9  8  1  0
 10 11  1  0
 10  9  2  0
 11 16  2  0
 12 13  2  0
 12 11  1  0
 13 14  1  0
 14 15  2  0
 16 15  1  0
 16  7  1  0
 17 18  2  0
 18 19  1  0
 20  1  1  0
 20 19  2  0
 21 20  1  0
 22 21  2  0
 22 17  1  0
 24 17  1  0
 24 23  2  0
 25 24  1  0
 26 25  2  0
 26 27  1  0
 27 28  2  0
 28 23  1  0
  3 29  1  0
  4 30  1  0
  9 31  1  0
 12 32  1  0
 13 33  1  0
 14 34  1  0
 15 35  1  0
 18 36  1  0
 19 37  1  0
 21 38  1  0
 23 39  1  0
 25 40  1  0
 27 41  1  0
M  ISO  8  29  14  30  14  31  14  32  14  33  14  34  14  35  14  36  14
M  ISO  5  37  14  38  14  39  14  40  14  41  14
M  END
>  <minimizedAffinity>  (1) 
-6.54209328

>  <minimizedRMSD>  (1) 
1.72007477

$$$$
