
     RDKit          3D

 41 44  0  0  0  0  0  0  0  0999 V2000
   38.1090   30.4020   49.4620 C   0  0  0  0  0  0  0  0  0  0  0  0
   38.0060   31.0820   48.2390 C   0  0  0  0  0  0  0  0  0  0  0  0
   36.8360   30.9000   47.4950 C   0  0  0  0  0  0  0  0  0  0  0  0
   35.8940   30.0830   48.0120 N   0  0  0  0  0  0  0  0  0  0  0  0
   36.0410   29.4620   49.1780 C   0  0  0  0  0  0  0  0  0  0  0  0
   37.1680   29.6040   49.9490 N   0  0  0  0  0  0  0  0  0  0  0  0
   39.0730   31.8600   47.8980 O   0  0  0  0  0  0  0  0  0  0  0  0
   39.5110   31.8240   46.5700 C   0  0  0  0  0  0  0  0  0  0  0  0
   39.8120   30.7030   45.8120 C   0  0  0  0  0  0  0  0  0  0  0  0
   40.2240   30.8410   44.5410 C   0  0  0  0  0  0  0  0  0  0  0  0
   40.3390   32.1150   44.0170 C   0  0  0  0  0  0  0  0  0  0  0  0
   40.0330   33.2340   44.7920 C   0  0  0  0  0  0  0  0  0  0  0  0
   39.6220   33.0520   46.0680 N   0  0  0  0  0  0  0  0  0  0  0  0
   40.1720   34.6110   44.1810 C   0  0  0  0  0  0  0  0  0  0  0  0
   34.5460   28.4630   49.5030 S   0  0  0  0  0  0  0  0  0  0  0  0
   33.5030   28.7440   48.0130 C   0  0  0  0  0  0  0  0  0  0  0  0
   32.4180   27.7550   47.9250 C   0  0  0  0  0  0  0  0  0  0  0  0
   31.2710   27.7580   48.6280 N   0  0  0  0  0  0  0  0  0  0  0  0
   30.3440   26.7730   48.4460 C   0  0  0  0  0  0  0  0  0  0  0  0
   30.5580   25.7800   47.5610 N   0  0  0  0  0  0  0  0  0  0  0  0
   31.6940   25.7460   46.8400 C   0  0  0  0  0  0  0  0  0  0  0  0
   31.9430   24.7270   45.9150 C   0  0  0  0  0  0  0  0  0  0  0  0
   33.1020   24.6870   45.1760 C   0  0  0  0  0  0  0  0  0  0  0  0
   34.0620   25.6680   45.3340 C   0  0  0  0  0  0  0  0  0  0  0  0
   33.7950   26.6500   46.2430 C   0  0  0  0  0  0  0  0  0  0  0  0
   32.6520   26.7420   47.0120 C   0  0  0  0  0  0  0  0  0  0  0  0
   39.0264   30.5391   50.0532 H   0  0  0  0  0  0  0  0  0  0  0  0
   36.6892   31.4024   46.5275 H   0  0  0  0  0  0  0  0  0  0  0  0
   39.7133   29.6996   46.2518 H   0  0  0  0  0  0  0  0  0  0  0  0
   40.4649   29.9587   43.9299 H   0  0  0  0  0  0  0  0  0  0  0  0
   40.6753   32.2479   42.9781 H   0  0  0  0  0  0  0  0  0  0  0  0
   40.2478   35.3615   44.9817 H   0  0  0  0  0  0  0  0  0  0  0  0
   41.0783   34.6462   43.5585 H   0  0  0  0  0  0  0  0  0  0  0  0
   39.2911   34.8266   43.5585 H   0  0  0  0  0  0  0  0  0  0  0  0
   33.0655   29.7518   48.0669 H   0  0  0  0  0  0  0  0  0  0  0  0
   34.1382   28.6423   47.1207 H   0  0  0  0  0  0  0  0  0  0  0  0
   29.4112   26.7901   49.0287 H   0  0  0  0  0  0  0  0  0  0  0  0
   31.1914   23.9361   45.7748 H   0  0  0  0  0  0  0  0  0  0  0  0
   33.2654   23.8711   44.4565 H   0  0  0  0  0  0  0  0  0  0  0  0
   34.9970   25.6579   44.7546 H   0  0  0  0  0  0  0  0  0  0  0  0
   34.5546   27.4347   46.3742 H   0  0  0  0  0  0  0  0  0  0  0  0
  1  6  2  0
  2  1  1  0
  3  4  1  0
  3  2  2  0
  4  5  2  0
  5 15  1  0
  5  6  1  0
  7  2  1  0
  8  7  1  0
  9  8  2  0
 10  9  1  0
 11 10  2  0
 11 12  1  0
 12 13  2  0
 13  8  1  0
 14 12  1  0
 16 15  1  0
 17 16  1  0
 17 18  2  0
 19 18  1  0
 20 19  2  0
 21 26  2  0
 21 20  1  0
 22 21  1  0
 23 24  1  0
 23 22  2  0
 24 25  2  0
 25 26  1  0
 26 17  1  0
  1 27  1  0
  3 28  1  0
  9 29  1  0
 10 30  1  0
 11 31  1  0
 14 32  1  0
 14 33  1  0
 14 34  1  0
 16 35  1  0
 16 36  1  0
 19 37  1  0
 22 38  1  0
 23 39  1  0
 24 40  1  0
 25 41  1  0
M  ISO  8  27  14  28  14  29  14  30  14  31  14  32   8  33   8  34   8
M  ISO  7  35   8  36   8  37  14  38  14  39  14  40  14  41  14
M  END
>  <minimizedAffinity>  (1) 
-5.12188959

>  <minimizedRMSD>  (1) 
2.3751266

$$$$
