
     RDKit          3D

 36 37  0  0  1  0  0  0  0  0999 V2000
   39.0400   30.7650   46.0500 S   0  0  0  0  0  0  0  0  0  0  0  0
   38.0650   32.7060   44.4120 N   0  0  0  0  0  0  0  0  0  0  0  0
   37.9610   31.3040   44.6700 C   0  0  1  0  0  0  0  0  0  0  0  0
   38.4100   30.5180   43.4670 C   0  0  0  0  0  0  0  0  0  0  0  0
   39.7910   30.8910   43.1970 N   0  0  0  0  0  0  0  0  0  0  0  0
   39.7080   32.2780   42.7170 C   0  0  0  0  0  0  0  0  0  0  0  0
   39.3530   33.1120   43.9420 C   0  0  2  0  0  0  0  0  0  0  0  0
   40.4120   32.9760   44.9230 N   0  0  0  0  0  0  0  0  0  0  0  0
   37.9190   32.8010   49.3660 C   0  0  0  0  0  0  0  0  0  0  0  0
   38.5220   32.5220   48.1590 C   0  0  0  0  0  0  0  0  0  0  0  0
   38.3370   31.2840   47.5940 C   0  0  0  0  0  0  0  0  0  0  0  0
   37.5420   30.3680   48.2780 N   0  0  0  0  0  0  0  0  0  0  0  0
   36.9890   30.7040   49.4410 C   0  0  0  0  0  0  0  0  0  0  0  0
   37.1650   31.9080   49.9970 N   0  0  0  0  0  0  0  0  0  0  0  0
   36.1580   29.7150   50.1330 C   0  0  0  0  0  0  0  0  0  0  0  0
   36.2350   29.4820   51.3550 O   0  0  0  0  0  0  0  0  0  0  0  0
   33.3960   29.7310   50.5400 N   0  0  0  0  0  0  0  0  0  0  0  0
   33.8090   29.0030   49.5570 C   0  0  0  0  0  0  0  0  0  0  0  0
   35.2070   28.9820   49.3360 N   0  0  0  0  0  0  0  0  0  0  0  0
   32.9550   28.2470   48.7150 N   0  0  0  0  0  0  0  0  0  0  0  0
   32.3530   29.7380   50.6940 H   0  0  0  0  0  0  0  0  0  0  0  0
   37.3650   32.9580   43.6996 H   0  0  0  0  0  0  0  0  0  0  0  0
   36.9051   31.1228   44.9193 H   0  0  0  0  0  0  0  0  0  0  0  0
   38.3452   29.4400   43.6761 H   0  0  0  0  0  0  0  0  0  0  0  0
   37.7708   30.7359   42.5987 H   0  0  0  0  0  0  0  0  0  0  0  0
   40.3579   30.8356   44.0552 H   0  0  0  0  0  0  0  0  0  0  0  0
   40.6740   32.5990   42.3001 H   0  0  0  0  0  0  0  0  0  0  0  0
   38.9611   32.3891   41.9171 H   0  0  0  0  0  0  0  0  0  0  0  0
   39.2804   34.1845   43.7085 H   0  0  0  0  0  0  0  0  0  0  0  0
   40.0111   33.0275   45.8704 H   0  0  0  0  0  0  0  0  0  0  0  0
   40.8815   32.0678   44.7977 H   0  0  0  0  0  0  0  0  0  0  0  0
   38.0663   33.7920   49.8202 H   0  0  0  0  0  0  0  0  0  0  0  0
   39.1418   33.2788   47.6559 H   0  0  0  0  0  0  0  0  0  0  0  0
   35.5660   28.4087   48.5593 H   0  0  0  0  0  0  0  0  0  0  0  0
   33.3526   27.6869   47.9475 H   0  0  0  0  0  0  0  0  0  0  0  0
   31.9369   28.2579   48.8707 H   0  0  0  0  0  0  0  0  0  0  0  0
  1 11  1  0
  2  3  1  0
  3  1  1  0
  4  3  1  0
  5  4  1  0
  6  5  1  0
  6  7  1  0
  7  2  1  0
  7  8  1  0
  9 14  2  0
 10  9  1  0
 11 10  2  0
 11 12  1  0
 12 13  2  0
 13 14  1  0
 13 15  1  0
 15 16  2  0
 17 21  1  0
 18 17  2  0
 19 18  1  0
 19 15  1  0
 20 18  1  0
  2 22  1  0
  3 23  1  1
  4 24  1  0
  4 25  1  0
  5 26  1  0
  6 27  1  0
  6 28  1  0
  7 29  1  6
  8 30  1  0
  8 31  1  0
  9 32  1  0
 10 33  1  0
 19 34  1  0
 20 35  1  0
 20 36  1  0
M  ISO  8  22   5  23  13  24  13  25  13  26   5  27  13  28  13  29  13
M  ISO  4  30   5  31   5  32  14  33  14
M  END
>  <minimizedAffinity>  (1) 
-6.13689947

>  <minimizedRMSD>  (1) 
2.28306365

$$$$
