
     RDKit          3D

 44 46  0  0  0  0  0  0  0  0999 V2000
   39.0230   32.7680   48.0010 C   0  0  0  0  0  0  0  0  0  0  0  0
   39.2630   32.1270   46.7920 C   0  0  0  0  0  0  0  0  0  0  0  0
   38.7200   30.8810   46.6250 C   0  0  0  0  0  0  0  0  0  0  0  0
   37.9870   30.3530   47.6470 N   0  0  0  0  0  0  0  0  0  0  0  0
   37.7850   30.9870   48.7660 C   0  0  0  0  0  0  0  0  0  0  0  0
   38.3030   32.2420   48.9950 N   0  0  0  0  0  0  0  0  0  0  0  0
   40.0130   32.7680   45.8570 O   0  0  0  0  0  0  0  0  0  0  0  0
   40.0560   32.2780   44.5590 C   0  0  0  0  0  0  0  0  0  0  0  0
   40.6500   31.1150   44.1110 C   0  0  0  0  0  0  0  0  0  0  0  0
   40.5860   30.8010   42.8030 C   0  0  0  0  0  0  0  0  0  0  0  0
   39.9330   31.6470   41.9480 C   0  0  0  0  0  0  0  0  0  0  0  0
   39.3360   32.8190   42.4070 C   0  0  0  0  0  0  0  0  0  0  0  0
   39.4140   33.1120   43.7310 N   0  0  0  0  0  0  0  0  0  0  0  0
   38.6220   33.7400   41.4400 C   0  0  0  0  0  0  0  0  0  0  0  0
   36.7760   30.0340   49.9290 S   0  0  0  0  0  0  0  0  0  0  0  0
   35.0830   30.6330   49.6620 C   0  0  0  0  0  0  0  0  0  0  0  0
   33.0600   28.9130   50.3580 F   0  0  0  0  0  0  0  0  0  0  0  0
   33.4840   28.9460   49.0450 C   0  0  0  0  0  0  0  0  0  0  0  0
   34.4900   29.7710   48.5820 C   0  0  0  0  0  0  0  0  0  0  0  0
   34.8700   29.7690   47.2760 C   0  0  0  0  0  0  0  0  0  0  0  0
   34.2490   28.9220   46.3490 C   0  0  0  0  0  0  0  0  0  0  0  0
   33.2400   28.0910   46.8040 C   0  0  0  0  0  0  0  0  0  0  0  0
   32.8610   28.0980   48.1240 C   0  0  0  0  0  0  0  0  0  0  0  0
   29.9770   28.4730   47.9940 N   0  0  0  0  0  0  0  0  0  0  0  0
   30.5120   27.6670   48.8830 C   0  0  0  0  0  0  0  0  0  0  0  0
   31.8180   27.2490   48.5910 N   0  0  0  0  0  0  0  0  0  0  0  0
   29.8470   27.2230   50.0710 N   0  0  0  0  0  0  0  0  0  0  0  0
   29.0110   28.7720   48.2280 H   0  0  0  0  0  0  0  0  0  0  0  0
   39.4523   33.7700   48.1484 H   0  0  0  0  0  0  0  0  0  0  0  0
   38.8711   30.3204   45.6907 H   0  0  0  0  0  0  0  0  0  0  0  0
   41.1709   30.4507   44.8162 H   0  0  0  0  0  0  0  0  0  0  0  0
   41.0518   29.8780   42.4273 H   0  0  0  0  0  0  0  0  0  0  0  0
   39.8785   31.3968   40.8782 H   0  0  0  0  0  0  0  0  0  0  0  0
   38.0434   34.4864   42.0040 H   0  0  0  0  0  0  0  0  0  0  0  0
   39.3618   34.2516   40.8068 H   0  0  0  0  0  0  0  0  0  0  0  0
   37.9422   33.1510   40.8068 H   0  0  0  0  0  0  0  0  0  0  0  0
   34.4964   30.5393   50.5878 H   0  0  0  0  0  0  0  0  0  0  0  0
   35.0778   31.6940   49.3716 H   0  0  0  0  0  0  0  0  0  0  0  0
   35.6750   30.4409   46.9436 H   0  0  0  0  0  0  0  0  0  0  0  0
   34.5539   28.9175   45.2921 H   0  0  0  0  0  0  0  0  0  0  0  0
   32.7345   27.4154   46.0983 H   0  0  0  0  0  0  0  0  0  0  0  0
   32.0397   26.2520   48.7245 H   0  0  0  0  0  0  0  0  0  0  0  0
   30.3289   26.5896   50.7248 H   0  0  0  0  0  0  0  0  0  0  0  0
   28.8868   27.5370   50.2716 H   0  0  0  0  0  0  0  0  0  0  0  0
  1  6  2  0
  2  1  1  0
  3  2  2  0
  3  4  1  0
  4  5  2  0
  5  6  1  0
  5 15  1  0
  7  2  1  0
  8  7  1  0
  9  8  2  0
 10  9  1  0
 11 12  1  0
 11 10  2  0
 12 13  2  0
 13  8  1  0
 14 12  1  0
 16 15  1  0
 18 17  1  0
 19 18  2  0
 19 16  1  0
 20 19  1  0
 21 22  1  0
 21 20  2  0
 22 23  2  0
 23 26  1  0
 23 18  1  0
 24 28  1  0
 24 25  2  0
 25 27  1  0
 26 25  1  0
  1 29  1  0
  3 30  1  0
  9 31  1  0
 10 32  1  0
 11 33  1  0
 14 34  1  0
 14 35  1  0
 14 36  1  0
 16 37  1  0
 16 38  1  0
 20 39  1  0
 21 40  1  0
 22 41  1  0
 26 42  1  0
 27 43  1  0
 27 44  1  0
M  ISO  8  29  14  30  14  31  14  32  14  33  14  34   8  35   8  36   8
M  ISO  5  37   8  38   8  39  14  40  14  41  14
M  END
>  <minimizedAffinity>  (1) 
-6.21588373

>  <minimizedRMSD>  (1) 
2.32486224

$$$$
