
     RDKit          3D

 43 46  0  0  0  0  0  0  0  0999 V2000
   34.8780   29.5090   47.5320 C   0  0  0  0  0  0  0  0  0  0  0  0
   35.0060   29.9110   46.2050 C   0  0  0  0  0  0  0  0  0  0  0  0
   33.9630   29.7380   45.3230 C   0  0  0  0  0  0  0  0  0  0  0  0
   32.8180   29.1630   45.8040 N   0  0  0  0  0  0  0  0  0  0  0  0
   32.7220   28.7830   47.0950 C   0  0  0  0  0  0  0  0  0  0  0  0
   33.7440   28.9500   47.9660 N   0  0  0  0  0  0  0  0  0  0  0  0
   31.4780   28.1730   47.5740 C   0  0  0  0  0  0  0  0  0  0  0  0
   31.3950   27.6210   48.8200 C   0  0  0  0  0  0  0  0  0  0  0  0
   30.2390   27.0360   49.3140 C   0  0  0  0  0  0  0  0  0  0  0  0
   29.1830   27.0450   48.4710 N   0  0  0  0  0  0  0  0  0  0  0  0
   29.2540   27.5820   47.2470 C   0  0  0  0  0  0  0  0  0  0  0  0
   30.3970   28.1480   46.7900 N   0  0  0  0  0  0  0  0  0  0  0  0
   28.1880   27.6320   46.3020 N   0  0  0  0  0  0  0  0  0  0  0  0
   28.3410   26.8660   45.2070 C   0  0  0  0  0  0  0  0  0  0  0  0
   27.3040   26.9170   44.2950 C   0  0  0  0  0  0  0  0  0  0  0  0
   26.2280   27.7310   44.5820 C   0  0  0  0  0  0  0  0  0  0  0  0
   25.1310   27.8260   43.6850 N   0  0  0  0  0  0  0  0  0  0  0  0
   26.1500   28.4800   45.7200 N   0  0  0  0  0  0  0  0  0  0  0  0
   27.1540   28.4350   46.6120 C   0  0  0  0  0  0  0  0  0  0  0  0
   27.1550   29.0980   47.6860 O   0  0  0  0  0  0  0  0  0  0  0  0
   35.9290   29.6640   48.4950 N   0  0  0  0  0  0  0  0  0  0  0  0
   36.0330   28.8290   49.6700 C   0  0  0  0  0  0  0  0  0  0  0  0
   36.3340   29.5650   50.9440 C   0  0  0  0  0  0  0  0  0  0  0  0
   37.0750   30.7570   50.8450 N   0  0  0  0  0  0  0  0  0  0  0  0
   36.7660   31.5360   49.6500 C   0  0  0  0  0  0  0  0  0  0  0  0
   36.9850   30.6020   48.4710 C   0  0  0  0  0  0  0  0  0  0  0  0
   35.9447   30.3689   45.8598 H   0  0  0  0  0  0  0  0  0  0  0  0
   34.0468   30.0501   44.2715 H   0  0  0  0  0  0  0  0  0  0  0  0
   32.2876   27.6413   49.4625 H   0  0  0  0  0  0  0  0  0  0  0  0
   30.1854   26.5958   50.3207 H   0  0  0  0  0  0  0  0  0  0  0  0
   29.2320   26.2408   45.0481 H   0  0  0  0  0  0  0  0  0  0  0  0
   27.3357   26.3260   43.3678 H   0  0  0  0  0  0  0  0  0  0  0  0
   24.3331   28.4372   43.9101 H   0  0  0  0  0  0  0  0  0  0  0  0
   25.1333   27.2837   42.8093 H   0  0  0  0  0  0  0  0  0  0  0  0
   35.0773   28.2997   49.7987 H   0  0  0  0  0  0  0  0  0  0  0  0
   36.8841   28.1545   49.4949 H   0  0  0  0  0  0  0  0  0  0  0  0
   35.3722   29.8130   51.4166 H   0  0  0  0  0  0  0  0  0  0  0  0
   36.9772   28.8815   51.5178 H   0  0  0  0  0  0  0  0  0  0  0  0
   36.8737   31.3359   51.6728 H   0  0  0  0  0  0  0  0  0  0  0  0
   35.7210   31.8785   49.6770 H   0  0  0  0  0  0  0  0  0  0  0  0
   37.4015   32.4310   49.5777 H   0  0  0  0  0  0  0  0  0  0  0  0
   37.9519   30.0870   48.5698 H   0  0  0  0  0  0  0  0  0  0  0  0
   36.9985   31.1586   47.5223 H   0  0  0  0  0  0  0  0  0  0  0  0
  1  6  1  0
  1 21  1  0
  2  1  2  0
  3  4  2  0
  3  2  1  0
  4  5  1  0
  5  7  1  0
  5  6  2  0
  7  8  2  0
  8  9  1  0
 10  9  2  0
 11 10  1  0
 12 11  2  0
 12  7  1  0
 13 19  1  0
 13 11  1  0
 14 13  1  0
 15 16  1  0
 15 14  2  0
 16 18  2  0
 17 16  1  0
 18 19  1  0
 19 20  2  0
 21 22  1  0
 22 23  1  0
 24 23  1  0
 25 24  1  0
 26 21  1  0
 26 25  1  0
  2 27  1  0
  3 28  1  0
  8 29  1  0
  9 30  1  0
 14 31  1  0
 15 32  1  0
 17 33  1  0
 17 34  1  0
 22 35  1  0
 22 36  1  0
 23 37  1  0
 23 38  1  0
 24 39  1  0
 25 40  1  0
 25 41  1  0
 26 42  1  0
 26 43  1  0
M  ISO  8  27  14  28  14  29  14  30  14  31  14  32  14  35  13  36  13
M  ISO  7  37  13  38  13  39   5  40  13  41  13  42  13  43  13
M  END
>  <minimizedAffinity>  (1) 
-6.0121913

>  <minimizedRMSD>  (1) 
0.861890912

$$$$
