
     RDKit          3D

 30 31  0  0  1  0  0  0  0  0999 V2000
   35.8910   29.9250   48.6530 N   0  0  0  0  0  0  0  0  0  0  0  0
   36.6320   28.9750   49.4280 C   0  0  0  0  0  0  0  0  0  0  0  0
   37.0420   29.3650   50.7840 C   0  0  0  0  0  0  0  0  0  0  0  0
   37.1470   30.8100   51.1110 C   0  0  0  0  0  0  0  0  0  0  0  0
   36.4450   31.7330   50.1450 C   0  0  0  0  0  0  0  0  0  0  0  0
   36.5260   31.1870   48.7290 C   0  0  1  0  0  0  0  0  0  0  0  0
   34.6910   29.6270   47.9190 C   0  0  0  0  0  0  0  0  0  0  0  0
   34.3430   30.2160   46.7060 C   0  0  0  0  0  0  0  0  0  0  0  0
   33.1520   29.8310   46.1110 C   0  0  0  0  0  0  0  0  0  0  0  0
   32.3860   28.8960   46.7470 N   0  0  0  0  0  0  0  0  0  0  0  0
   32.7480   28.3470   47.9160 C   0  0  0  0  0  0  0  0  0  0  0  0
   33.8920   28.7190   48.4850 N   0  0  0  0  0  0  0  0  0  0  0  0
   31.9000   27.3490   48.5670 C   0  0  0  0  0  0  0  0  0  0  0  0
   30.9170   27.7180   49.2780 O   0  0  0  0  0  0  0  0  0  0  0  0
   37.9660   31.2270   48.2900 C   0  0  0  0  0  0  0  0  0  0  0  0
   38.0770   32.3220   47.4210 F   0  0  0  0  0  0  0  0  0  0  0  0
   38.2550   30.1500   47.4870 F   0  0  0  0  0  0  0  0  0  0  0  0
   38.8800   31.4390   49.2600 F   0  0  0  0  0  0  0  0  0  0  0  0
   36.0109   28.0719   49.5205 H   0  0  0  0  0  0  0  0  0  0  0  0
   37.5771   28.8484   48.8795 H   0  0  0  0  0  0  0  0  0  0  0  0
   36.3119   28.9278   51.4810 H   0  0  0  0  0  0  0  0  0  0  0  0
   38.0756   28.9975   50.8659 H   0  0  0  0  0  0  0  0  0  0  0  0
   36.7133   30.9667   52.1097 H   0  0  0  0  0  0  0  0  0  0  0  0
   38.2164   31.0617   51.0562 H   0  0  0  0  0  0  0  0  0  0  0  0
   35.3885   31.8260   50.4368 H   0  0  0  0  0  0  0  0  0  0  0  0
   36.9358   32.7170   50.1744 H   0  0  0  0  0  0  0  0  0  0  0  0
   35.9698   31.8071   48.0106 H   0  0  0  0  0  0  0  0  0  0  0  0
   34.9949   30.9655   46.2335 H   0  0  0  0  0  0  0  0  0  0  0  0
   32.8324   30.2665   45.1528 H   0  0  0  0  0  0  0  0  0  0  0  0
   32.1150   26.2777   48.4398 H   0  0  0  0  0  0  0  0  0  0  0  0
  1  6  1  0
  1  2  1  0
  2  3  1  0
  3  4  1  0
  5  4  1  0
  6  5  1  0
  7 12  1  0
  7  1  1  0
  8  7  2  0
  9  8  1  0
  9 10  2  0
 10 11  1  0
 11 12  2  0
 11 13  1  0
 13 14  2  0
 15  6  1  0
 15 18  1  0
 16 15  1  0
 17 15  1  0
  2 19  1  0
  2 20  1  0
  3 21  1  0
  3 22  1  0
  4 23  1  0
  4 24  1  0
  5 25  1  0
  5 26  1  0
  6 27  1  6
  8 28  1  0
  9 29  1  0
 13 30  1  0
M  ISO  8  19  13  20  13  21  13  22  13  23  13  24  13  25  13  26  13
M  ISO  4  27  13  28  14  29  14  30   6
M  END
>  <minimizedAffinity>  (1) 
-5.12460375

>  <minimizedRMSD>  (1) 
0.721217453

$$$$
