
     RDKit          3D

 40 42  0  0  1  0  0  0  0  0999 V2000
   35.2710   30.3710   49.6050 C   0  0  2  0  0  0  0  0  0  0  0  0
   36.2690   31.0450   48.7300 C   0  0  0  0  0  0  0  0  0  0  0  0
   37.6590   30.4430   48.8560 C   0  0  2  0  0  0  0  0  0  0  0  0
   38.1680   30.4400   50.2470 C   0  0  0  0  0  0  0  0  0  0  0  0
   37.1070   30.1250   51.2790 C   0  0  0  0  0  0  0  0  0  0  0  0
   35.9020   29.4760   50.6440 C   0  0  0  0  0  0  0  0  0  0  0  0
   38.5950   31.0850   48.0000 N   0  0  0  0  0  0  0  0  0  0  0  0
   38.6190   30.5440   46.6570 C   0  0  0  0  0  0  0  0  0  0  0  0
   39.7430   31.3880   46.0470 C   0  0  0  0  0  0  0  0  0  0  0  0
   39.4170   32.7480   46.6210 C   0  0  0  0  0  0  0  0  0  0  0  0
   38.5030   32.4730   47.8230 C   0  0  2  0  0  0  0  0  0  0  0  0
   38.9100   33.3790   48.8720 C   0  0  0  0  0  0  0  0  0  0  0  0
   39.4070   34.4920   48.8630 O   0  0  0  0  0  0  0  0  0  0  0  0
   34.3030   29.5490   48.8450 C   0  0  0  0  0  0  0  0  0  0  0  0
   34.1600   29.9110   47.5040 C   0  0  0  0  0  0  0  0  0  0  0  0
   33.2620   29.1540   46.7320 C   0  0  0  0  0  0  0  0  0  0  0  0
   32.5780   28.1070   47.3290 N   0  0  0  0  0  0  0  0  0  0  0  0
   32.7570   27.7970   48.6440 C   0  0  0  0  0  0  0  0  0  0  0  0
   33.6020   28.5160   49.3590 N   0  0  0  0  0  0  0  0  0  0  0  0
   34.7506   31.2043   50.0998 H   0  0  0  0  0  0  0  0  0  0  0  0
   36.3193   32.1083   49.0073 H   0  0  0  0  0  0  0  0  0  0  0  0
   35.9419   30.9120   47.6882 H   0  0  0  0  0  0  0  0  0  0  0  0
   37.5504   29.3947   48.5410 H   0  0  0  0  0  0  0  0  0  0  0  0
   38.9639   29.6846   50.3246 H   0  0  0  0  0  0  0  0  0  0  0  0
   38.5334   31.4556   50.4593 H   0  0  0  0  0  0  0  0  0  0  0  0
   37.5290   29.4406   52.0297 H   0  0  0  0  0  0  0  0  0  0  0  0
   36.7877   31.0673   51.7482 H   0  0  0  0  0  0  0  0  0  0  0  0
   35.1598   29.2590   51.4263 H   0  0  0  0  0  0  0  0  0  0  0  0
   36.2313   28.5515   50.1472 H   0  0  0  0  0  0  0  0  0  0  0  0
   38.8661   29.4721   46.6536 H   0  0  0  0  0  0  0  0  0  0  0  0
   37.6598   30.5949   46.1210 H   0  0  0  0  0  0  0  0  0  0  0  0
   39.6969   31.3905   44.9480 H   0  0  0  0  0  0  0  0  0  0  0  0
   40.7576   31.0286   46.2736 H   0  0  0  0  0  0  0  0  0  0  0  0
   40.3354   33.2596   46.9447 H   0  0  0  0  0  0  0  0  0  0  0  0
   38.9332   33.4005   45.8792 H   0  0  0  0  0  0  0  0  0  0  0  0
   37.4261   32.6826   47.7439 H   0  0  0  0  0  0  0  0  0  0  0  0
   38.7362   32.9845   49.8840 H   0  0  0  0  0  0  0  0  0  0  0  0
   34.7244   30.7503   47.0715 H   0  0  0  0  0  0  0  0  0  0  0  0
   33.1044   29.3893   45.6691 H   0  0  0  0  0  0  0  0  0  0  0  0
   32.2066   26.9618   49.1017 H   0  0  0  0  0  0  0  0  0  0  0  0
  1  6  1  0
  2  3  1  0
  2  1  1  0
  3  4  1  0
  4  5  1  0
  6  5  1  0
  7  8  1  0
  7  3  1  0
  9 10  1  0
  9  8  1  0
 10 11  1  0
 11  7  1  0
 11 12  1  0
 13 12  2  0
 14 19  1  0
 14  1  1  0
 15 14  2  0
 16 17  2  0
 16 15  1  0
 17 18  1  0
 18 19  2  0
  1 20  1  1
  2 21  1  0
  2 22  1  0
  3 23  1  6
  4 24  1  0
  4 25  1  0
  5 26  1  0
  5 27  1  0
  6 28  1  0
  6 29  1  0
  8 30  1  0
  8 31  1  0
  9 32  1  0
  9 33  1  0
 10 34  1  0
 10 35  1  0
 11 36  1  6
 12 37  1  0
 15 38  1  0
 16 39  1  0
 18 40  1  0
M  ISO  8  20  13  21  13  22  13  23  13  24  13  25  13  26  13  27  13
M  ISO  8  28  13  29  13  30  13  31  13  32  13  33  13  34  13  35  13
M  ISO  5  36  13  37   6  38  14  39  14  40  14
M  END
>  <minimizedAffinity>  (1) 
-6.55422735

>  <minimizedRMSD>  (1) 
0.198131129

$$$$
