
     RDKit          3D

 29 30  0  0  1  0  0  0  0  0999 V2000
   38.8610   32.7140   48.1020 C   0  0  0  0  0  0  0  0  0  0  0  0
   39.4070   32.1490   46.9290 C   0  0  0  0  0  0  0  0  0  0  0  0
   38.7600   31.0480   46.3790 C   0  0  0  0  0  0  0  0  0  0  0  0
   37.6440   30.5730   46.9950 N   0  0  0  0  0  0  0  0  0  0  0  0
   37.1480   31.1380   48.1190 C   0  0  0  0  0  0  0  0  0  0  0  0
   37.7580   32.1980   48.6610 N   0  0  0  0  0  0  0  0  0  0  0  0
   35.9640   30.5990   48.7330 N   0  0  0  0  0  0  0  0  0  0  0  0
   35.9090   30.4190   50.1740 C   0  0  0  0  0  0  0  0  0  0  0  0
   35.1090   29.2120   50.6030 C   0  0  0  0  0  0  0  0  0  0  0  0
   34.9500   28.3010   49.4160 C   0  0  0  0  0  0  0  0  0  0  0  0
   34.0940   29.0180   48.4040 C   0  0  0  0  0  0  0  0  0  0  0  0
   34.8340   30.2370   47.9210 C   0  0  2  0  0  0  0  0  0  0  0  0
   35.2510   30.0920   46.4990 C   0  0  0  0  0  0  0  0  0  0  0  0
   35.0230   30.5730   45.4210 O   0  0  0  0  0  0  0  0  0  0  0  0
   39.3464   33.5874   48.5620 H   0  0  0  0  0  0  0  0  0  0  0  0
   40.3136   32.5657   46.4659 H   0  0  0  0  0  0  0  0  0  0  0  0
   39.1427   30.5709   45.4647 H   0  0  0  0  0  0  0  0  0  0  0  0
   36.9367   30.3064   50.5498 H   0  0  0  0  0  0  0  0  0  0  0  0
   35.4056   31.3040   50.5904 H   0  0  0  0  0  0  0  0  0  0  0  0
   35.6383   28.6829   51.4091 H   0  0  0  0  0  0  0  0  0  0  0  0
   34.1219   29.5252   50.9738 H   0  0  0  0  0  0  0  0  0  0  0  0
   35.9351   28.0752   48.9816 H   0  0  0  0  0  0  0  0  0  0  0  0
   34.4810   27.3525   49.7166 H   0  0  0  0  0  0  0  0  0  0  0  0
   33.8873   28.3501   47.5548 H   0  0  0  0  0  0  0  0  0  0  0  0
   33.1409   29.3169   48.8647 H   0  0  0  0  0  0  0  0  0  0  0  0
   34.1111   31.0615   48.0084 H   0  0  0  0  0  0  0  0  0  0  0  0
   36.3391   30.2338   46.5753 H   0  0  0  0  0  0  0  0  0  0  0  0
   34.5573   29.2555   46.3284 H   0  0  0  0  0  0  0  0  0  0  0  0
   34.6019   31.4613   45.5384 H   0  0  0  0  0  0  0  0  0  0  0  0
  1  6  2  0
  2  1  1  0
  3  2  2  0
  3  4  1  0
  4  5  2  0
  5  6  1  0
  5  7  1  0
  7  8  1  0
  8  9  1  0
 10  9  1  0
 11 10  1  0
 12 11  1  0
 12  7  1  0
 13 12  1  0
 14 13  1  0
  1 15  1  0
  2 16  1  0
  3 17  1  0
  8 18  1  0
  8 19  1  0
  9 20  1  0
  9 21  1  0
 10 22  1  0
 10 23  1  0
 11 24  1  0
 11 25  1  0
 12 26  1  6
 13 27  1  0
 13 28  1  0
 14 29  1  0
M  ISO  8  15  14  16  14  17  14  18  13  19  13  20  13  21  13  22  13
M  ISO  7  23  13  24  13  25  13  26  13  27   8  28   8  29   3
M  END
>  <minimizedAffinity>  (1) 
-4.95132589

>  <minimizedRMSD>  (1) 
0.160841003

$$$$
