
     RDKit          3D

 34 36  0  0  1  0  0  0  0  0999 V2000
   38.9760   32.4910   47.7560 C   0  0  2  0  0  0  0  0  0  0  0  0
   37.9720   32.6620   48.9270 C   0  0  2  0  0  0  0  0  0  0  0  0
   38.7880   33.3700   49.9050 C   0  0  0  0  0  0  0  0  0  0  0  0
   39.6280   34.2330   49.2090 O   0  0  0  0  0  0  0  0  0  0  0  0
   39.5990   33.9060   47.8930 C   0  0  0  0  0  0  0  0  0  0  0  0
   37.3130   29.3830   50.6600 C   0  0  0  0  0  0  0  0  0  0  0  0
   37.9570   30.6090   50.3350 C   0  0  0  0  0  0  0  0  0  0  0  0
   37.3690   31.4050   49.3170 C   0  0  0  0  0  0  0  0  0  0  0  0
   36.2170   30.9660   48.6940 N   0  0  0  0  0  0  0  0  0  0  0  0
   35.6530   29.8050   49.0380 C   0  0  0  0  0  0  0  0  0  0  0  0
   36.1800   29.0100   50.0060 N   0  0  0  0  0  0  0  0  0  0  0  0
   38.3560   32.3960   46.5550 O   0  0  0  0  0  0  0  0  0  0  0  0
   40.8840   32.4380   44.7870 Cl  0  0  0  0  0  0  0  0  0  0  0  0
   39.4540   31.4680   44.4970 C   0  0  0  0  0  0  0  0  0  0  0  0
   38.4560   31.6360   45.4470 C   0  0  0  0  0  0  0  0  0  0  0  0
   37.3210   30.8720   45.2250 C   0  0  0  0  0  0  0  0  0  0  0  0
   37.1890   30.0170   44.1550 C   0  0  0  0  0  0  0  0  0  0  0  0
   38.2190   29.8980   43.2480 C   0  0  0  0  0  0  0  0  0  0  0  0
   39.3590   30.6290   43.4220 C   0  0  0  0  0  0  0  0  0  0  0  0
   40.4760   30.5380   42.4920 C   0  0  0  0  0  0  0  0  0  0  0  0
   41.3180   29.6260   42.4750 O   0  0  0  0  0  0  0  0  0  0  0  0
   39.6292   31.6069   47.7965 H   0  0  0  0  0  0  0  0  0  0  0  0
   37.0566   33.2326   48.7116 H   0  0  0  0  0  0  0  0  0  0  0  0
   38.1427   33.9438   50.5864 H   0  0  0  0  0  0  0  0  0  0  0  0
   39.3763   32.6587   50.5034 H   0  0  0  0  0  0  0  0  0  0  0  0
   40.6217   33.9029   47.4879 H   0  0  0  0  0  0  0  0  0  0  0  0
   39.0001   34.6396   47.3333 H   0  0  0  0  0  0  0  0  0  0  0  0
   37.7327   28.7342   51.4429 H   0  0  0  0  0  0  0  0  0  0  0  0
   38.8742   30.9277   50.8519 H   0  0  0  0  0  0  0  0  0  0  0  0
   34.7358   29.4833   48.5230 H   0  0  0  0  0  0  0  0  0  0  0  0
   36.4868   30.9530   45.9375 H   0  0  0  0  0  0  0  0  0  0  0  0
   36.2666   29.4320   44.0246 H   0  0  0  0  0  0  0  0  0  0  0  0
   38.1236   29.2180   42.3886 H   0  0  0  0  0  0  0  0  0  0  0  0
   40.5818   31.3399   41.7465 H   0  0  0  0  0  0  0  0  0  0  0  0
  1  5  1  0
  1  2  1  0
  2  8  1  0
  2  3  1  0
  4  3  1  0
  5  4  1  0
  7  6  2  0
  8  7  1  0
  9 10  1  0
  9  8  2  0
 10 11  2  0
 11  6  1  0
 12  1  1  0
 14 13  1  0
 14 15  2  0
 15 12  1  0
 16 15  1  0
 17 16  2  0
 18 19  2  0
 18 17  1  0
 19 14  1  0
 20 19  1  0
 21 20  2  0
  1 22  1  1
  2 23  1  6
  3 24  1  0
  3 25  1  0
  5 26  1  0
  5 27  1  0
  6 28  1  0
  7 29  1  0
 10 30  1  0
 16 31  1  0
 17 32  1  0
 18 33  1  0
 20 34  1  0
M  ISO  8  22  13  23  13  24  13  25  13  26  13  27  13  28  14  29  14
M  ISO  5  30  14  31  14  32  14  33  14  34   6
M  END
>  <minimizedAffinity>  (1) 
-5.65283585

>  <minimizedRMSD>  (1) 
0.742494047

$$$$
