
     RDKit          3D

 40 42  0  0  0  0  0  0  0  0999 V2000
   38.7320   32.8600   48.3510 C   0  0  0  0  0  0  0  0  0  0  0  0
   39.0400   32.2000   47.1530 C   0  0  0  0  0  0  0  0  0  0  0  0
   38.5330   30.9330   46.9990 C   0  0  0  0  0  0  0  0  0  0  0  0
   37.7810   30.4000   47.9920 N   0  0  0  0  0  0  0  0  0  0  0  0
   37.5150   31.0500   49.0990 C   0  0  0  0  0  0  0  0  0  0  0  0
   37.9900   32.3260   49.3230 N   0  0  0  0  0  0  0  0  0  0  0  0
   39.8020   32.8480   46.2440 O   0  0  0  0  0  0  0  0  0  0  0  0
   39.9550   32.3020   44.9680 C   0  0  0  0  0  0  0  0  0  0  0  0
   40.6550   31.1750   44.6140 C   0  0  0  0  0  0  0  0  0  0  0  0
   40.6950   30.7950   43.3280 C   0  0  0  0  0  0  0  0  0  0  0  0
   40.0320   31.5450   42.3950 C   0  0  0  0  0  0  0  0  0  0  0  0
   39.3200   32.6930   42.7640 C   0  0  0  0  0  0  0  0  0  0  0  0
   39.3050   33.0400   44.0670 N   0  0  0  0  0  0  0  0  0  0  0  0
   38.6000   33.5000   41.7140 C   0  0  0  0  0  0  0  0  0  0  0  0
   36.4910   30.0930   50.2410 S   0  0  0  0  0  0  0  0  0  0  0  0
   34.7720   30.5460   49.7950 C   0  0  0  0  0  0  0  0  0  0  0  0
   34.4100   27.8090   49.9270 F   0  0  0  0  0  0  0  0  0  0  0  0
   34.3010   28.4430   48.7240 C   0  0  0  0  0  0  0  0  0  0  0  0
   34.4600   29.8040   48.5260 C   0  0  0  0  0  0  0  0  0  0  0  0
   34.3360   30.3710   47.2910 C   0  0  0  0  0  0  0  0  0  0  0  0
   34.0420   29.5860   46.1620 C   0  0  0  0  0  0  0  0  0  0  0  0
   33.8780   28.2150   46.3340 C   0  0  0  0  0  0  0  0  0  0  0  0
   34.0120   27.6820   47.6070 C   0  0  0  0  0  0  0  0  0  0  0  0
   33.8300   26.3010   47.6790 O   0  0  0  0  0  0  0  0  0  0  0  0
   32.5600   25.7300   47.5140 C   0  0  0  0  0  0  0  0  0  0  0  0
   31.5920   26.1040   48.2570 O   0  0  0  0  0  0  0  0  0  0  0  0
   39.1248   33.8769   48.4982 H   0  0  0  0  0  0  0  0  0  0  0  0
   38.7346   30.3591   46.0825 H   0  0  0  0  0  0  0  0  0  0  0  0
   41.1803   30.5868   45.3809 H   0  0  0  0  0  0  0  0  0  0  0  0
   41.2518   29.8949   43.0283 H   0  0  0  0  0  0  0  0  0  0  0  0
   40.0588   31.2412   41.3381 H   0  0  0  0  0  0  0  0  0  0  0  0
   37.9439   34.2354   42.2027 H   0  0  0  0  0  0  0  0  0  0  0  0
   39.3355   34.0247   41.0865 H   0  0  0  0  0  0  0  0  0  0  0  0
   37.9951   32.8288   41.0865 H   0  0  0  0  0  0  0  0  0  0  0  0
   34.0785   30.2443   50.5937 H   0  0  0  0  0  0  0  0  0  0  0  0
   34.6652   31.6326   49.6612 H   0  0  0  0  0  0  0  0  0  0  0  0
   34.4678   31.4571   47.1771 H   0  0  0  0  0  0  0  0  0  0  0  0
   33.9440   30.0446   45.1670 H   0  0  0  0  0  0  0  0  0  0  0  0
   33.6464   27.5663   45.4763 H   0  0  0  0  0  0  0  0  0  0  0  0
   32.3981   24.9604   46.7449 H   0  0  0  0  0  0  0  0  0  0  0  0
  1  6  2  0
  2  1  1  0
  3  2  2  0
  3  4  1  0
  4  5  2  0
  5  6  1  0
  5 15  1  0
  7  2  1  0
  8  7  1  0
  9  8  2  0
 10  9  1  0
 11 12  1  0
 11 10  2  0
 12 13  2  0
 13  8  1  0
 14 12  1  0
 16 15  1  0
 18 17  1  0
 19 18  2  0
 19 16  1  0
 20 19  1  0
 21 22  1  0
 21 20  2  0
 22 23  2  0
 23 24  1  0
 23 18  1  0
 25 24  1  0
 25 26  2  0
  1 27  1  0
  3 28  1  0
  9 29  1  0
 10 30  1  0
 11 31  1  0
 14 32  1  0
 14 33  1  0
 14 34  1  0
 16 35  1  0
 16 36  1  0
 20 37  1  0
 21 38  1  0
 22 39  1  0
 25 40  1  0
M  ISO  8  27  14  28  14  29  14  30  14  31  14  32   8  33   8  34   8
M  ISO  6  35   8  36   8  37  14  38  14  39  14  40   6
M  END
>  <minimizedAffinity>  (1) 
-5.83112478

>  <minimizedRMSD>  (1) 
0.190477416

$$$$
