
     RDKit          3D

 14 14  0  0  0  0  0  0  0  0999 V2000
   37.4140   30.0930   50.7310 C   0  0  0  0  0  0  0  0  0  0  0  0
   37.8670   31.2590   50.0670 C   0  0  0  0  0  0  0  0  0  0  0  0
   37.2730   31.5680   48.8480 C   0  0  0  0  0  0  0  0  0  0  0  0
   36.2980   30.7330   48.3740 N   0  0  0  0  0  0  0  0  0  0  0  0
   35.8940   29.6390   49.0280 C   0  0  0  0  0  0  0  0  0  0  0  0
   36.4550   29.3170   50.2130 N   0  0  0  0  0  0  0  0  0  0  0  0
   37.9570   29.6810   51.9930 N   0  0  0  0  0  0  0  0  0  0  0  0
   34.8480   28.7880   48.4710 C   0  0  0  0  0  0  0  0  0  0  0  0
   34.4380   27.8780   49.2640 O   0  0  0  0  0  0  0  0  0  0  0  0
   38.6556   31.8937   50.4974 H   0  0  0  0  0  0  0  0  0  0  0  0
   37.5786   32.4593   48.2804 H   0  0  0  0  0  0  0  0  0  0  0  0
   37.6061   28.8276   52.4507 H   0  0  0  0  0  0  0  0  0  0  0  0
   38.6978   30.2385   52.4416 H   0  0  0  0  0  0  0  0  0  0  0  0
   34.4479   28.9202   47.4549 H   0  0  0  0  0  0  0  0  0  0  0  0
  1  7  1  0
  2  1  2  0
  3  2  1  0
  4  3  2  0
  4  5  1  0
  5  6  2  0
  6  1  1  0
  8  5  1  0
  8  9  2  0
  2 10  1  0
  3 11  1  0
  7 12  1  0
  7 13  1  0
  8 14  1  0
M  ISO  3  10  14  11  14  14   6
M  END
>  <minimizedAffinity>  (1) 
-3.60326052

>  <minimizedRMSD>  (1) 
0.248722777

$$$$
