
     RDKit          3D

 37 39  0  0  0  0  0  0  0  0999 V2000
   37.3340   30.1760   51.5190 C   0  0  0  0  0  0  0  0  0  0  0  0
   38.0610   30.8590   50.5120 C   0  0  0  0  0  0  0  0  0  0  0  0
   37.7080   30.6540   49.2030 C   0  0  0  0  0  0  0  0  0  0  0  0
   36.6600   29.7890   48.9790 N   0  0  0  0  0  0  0  0  0  0  0  0
   35.9890   29.1580   49.9360 C   0  0  0  0  0  0  0  0  0  0  0  0
   36.3330   29.3560   51.2230 N   0  0  0  0  0  0  0  0  0  0  0  0
   38.9470   33.2600   49.0110 F   0  0  0  0  0  0  0  0  0  0  0  0
   38.9180   32.4800   47.9390 C   0  0  0  0  0  0  0  0  0  0  0  0
   38.3320   31.2600   48.0480 C   0  0  0  0  0  0  0  0  0  0  0  0
   38.3550   30.5190   46.8620 C   0  0  0  0  0  0  0  0  0  0  0  0
   38.9210   30.9870   45.6990 C   0  0  0  0  0  0  0  0  0  0  0  0
   39.5000   32.2370   45.6540 C   0  0  0  0  0  0  0  0  0  0  0  0
   39.4890   32.9770   46.7980 C   0  0  0  0  0  0  0  0  0  0  0  0
   34.9920   28.3540   49.4470 O   0  0  0  0  0  0  0  0  0  0  0  0
   34.4380   28.6480   48.1780 C   0  0  0  0  0  0  0  0  0  0  0  0
   33.5540   27.5300   47.7170 C   0  0  0  0  0  0  0  0  0  0  0  0
   32.1110   27.8920   47.7480 C   0  0  0  0  0  0  0  0  0  0  0  0
   31.3800   27.4730   48.8610 C   0  0  0  0  0  0  0  0  0  0  0  0
   30.0440   27.7580   48.9820 C   0  0  0  0  0  0  0  0  0  0  0  0
   29.4280   28.4490   48.0220 N   0  0  0  0  0  0  0  0  0  0  0  0
   30.1560   28.8470   46.9510 C   0  0  0  0  0  0  0  0  0  0  0  0
   31.4640   28.5890   46.7940 N   0  0  0  0  0  0  0  0  0  0  0  0
   29.4710   29.6010   45.9090 C   0  0  0  0  0  0  0  0  0  0  0  0
   28.3740   30.1680   46.0540 O   0  0  0  0  0  0  0  0  0  0  0  0
   37.6065   30.3295   52.5736 H   0  0  0  0  0  0  0  0  0  0  0  0
   38.8873   31.5362   50.7739 H   0  0  0  0  0  0  0  0  0  0  0  0
   37.9002   29.5174   46.8592 H   0  0  0  0  0  0  0  0  0  0  0  0
   38.9115   30.3580   44.7967 H   0  0  0  0  0  0  0  0  0  0  0  0
   39.9539   32.6227   44.7292 H   0  0  0  0  0  0  0  0  0  0  0  0
   39.9415   33.9796   46.8050 H   0  0  0  0  0  0  0  0  0  0  0  0
   33.8455   29.5722   48.2475 H   0  0  0  0  0  0  0  0  0  0  0  0
   35.2566   28.7744   47.4542 H   0  0  0  0  0  0  0  0  0  0  0  0
   33.7135   26.6613   48.3727 H   0  0  0  0  0  0  0  0  0  0  0  0
   33.8187   27.3044   46.6734 H   0  0  0  0  0  0  0  0  0  0  0  0
   31.8848   26.9038   49.6555 H   0  0  0  0  0  0  0  0  0  0  0  0
   29.4838   27.4186   49.8657 H   0  0  0  0  0  0  0  0  0  0  0  0
   29.9584   29.6736   44.9256 H   0  0  0  0  0  0  0  0  0  0  0  0
  2  1  2  0
  3  2  1  0
  4  3  2  0
  4  5  1  0
  5  6  2  0
  6  1  1  0
  8  9  2  0
  8  7  1  0
  9  3  1  0
 10  9  1  0
 11 10  2  0
 12 11  1  0
 12 13  2  0
 13  8  1  0
 14  5  1  0
 15 14  1  0
 16 17  1  0
 16 15  1  0
 17 18  2  0
 18 19  1  0
 20 19  2  0
 21 20  1  0
 22 21  2  0
 22 17  1  0
 23 24  2  0
 23 21  1  0
  1 25  1  0
  2 26  1  0
 10 27  1  0
 11 28  1  0
 12 29  1  0
 13 30  1  0
 15 31  1  0
 15 32  1  0
 16 33  1  0
 16 34  1  0
 18 35  1  0
 19 36  1  0
 23 37  1  0
M  ISO  8  25  14  26  14  27  14  28  14  29  14  30  14  31   8  32   8
M  ISO  5  33   8  34   8  35  14  36  14  37   6
M  END
>  <minimizedAffinity>  (1) 
-6.23335075

>  <minimizedRMSD>  (1) 
0.0798158273

$$$$
