
     RDKit          3D

 38 40  0  0  1  0  0  0  0  0999 V2000
   34.8310   30.0800   46.8640 C   0  0  0  0  0  0  0  0  0  0  0  0
   36.1660   30.5760   46.9480 C   0  0  0  0  0  0  0  0  0  0  0  0
   36.8490   30.7490   45.7420 C   0  0  0  0  0  0  0  0  0  0  0  0
   36.2340   30.4480   44.5760 N   0  0  0  0  0  0  0  0  0  0  0  0
   34.9720   29.9820   44.5380 C   0  0  0  0  0  0  0  0  0  0  0  0
   34.2810   29.8010   45.6700 N   0  0  0  0  0  0  0  0  0  0  0  0
   36.6470   30.8280   48.2720 N   0  0  0  0  0  0  0  0  0  0  0  0
   37.0570   31.9740   49.0700 C   0  0  0  0  0  0  0  0  0  0  0  0
   38.4000   31.4770   49.6260 C   0  0  0  0  0  0  0  0  0  0  0  0
   38.2030   29.9670   49.7870 C   0  0  0  0  0  0  0  0  0  0  0  0
   36.8410   29.7150   49.2300 C   0  0  1  0  0  0  0  0  0  0  0  0
   34.7660   28.9910   50.4110 C   0  0  0  0  0  0  0  0  0  0  0  0
   34.4950   28.0550   49.6060 O   0  0  0  0  0  0  0  0  0  0  0  0
   35.8680   29.8990   50.3000 N   0  0  0  0  0  0  0  0  0  0  0  0
   38.1980   31.2480   45.7120 C   0  0  0  0  0  0  0  0  0  0  0  0
   38.4590   32.4800   46.2670 C   0  0  0  0  0  0  0  0  0  0  0  0
   39.7270   33.0360   46.2840 C   0  0  0  0  0  0  0  0  0  0  0  0
   40.7500   32.3080   45.7200 C   0  0  0  0  0  0  0  0  0  0  0  0
   40.5670   31.0690   45.1460 C   0  0  0  0  0  0  0  0  0  0  0  0
   39.2620   30.5890   45.1720 C   0  0  0  0  0  0  0  0  0  0  0  0
   39.0380   29.2780   44.5710 C   0  0  0  0  0  0  0  0  0  0  0  0
   39.2720   28.9760   43.3920 O   0  0  0  0  0  0  0  0  0  0  0  0
   34.2475   29.9248   47.7835 H   0  0  0  0  0  0  0  0  0  0  0  0
   34.5051   29.7482   43.5698 H   0  0  0  0  0  0  0  0  0  0  0  0
   37.1843   32.8736   48.4499 H   0  0  0  0  0  0  0  0  0  0  0  0
   36.3306   32.2747   49.8393 H   0  0  0  0  0  0  0  0  0  0  0  0
   39.2173   31.6911   48.9216 H   0  0  0  0  0  0  0  0  0  0  0  0
   38.6737   31.9697   50.5706 H   0  0  0  0  0  0  0  0  0  0  0  0
   38.9651   29.4114   49.2209 H   0  0  0  0  0  0  0  0  0  0  0  0
   38.2986   29.6383   50.8324 H   0  0  0  0  0  0  0  0  0  0  0  0
   36.7319   28.7131   48.7893 H   0  0  0  0  0  0  0  0  0  0  0  0
   34.0958   29.1197   51.2737 H   0  0  0  0  0  0  0  0  0  0  0  0
   35.9721   30.6746   50.9697 H   0  0  0  0  0  0  0  0  0  0  0  0
   37.6280   33.0450   46.7145 H   0  0  0  0  0  0  0  0  0  0  0  0
   39.9102   34.0238   46.7320 H   0  0  0  0  0  0  0  0  0  0  0  0
   41.7631   32.7364   45.7280 H   0  0  0  0  0  0  0  0  0  0  0  0
   41.3949   30.4994   44.6986 H   0  0  0  0  0  0  0  0  0  0  0  0
   38.6264   28.4908   45.2198 H   0  0  0  0  0  0  0  0  0  0  0  0
  1  2  2  0
  2  7  1  0
  3  2  1  0
  4  3  2  0
  5  4  1  0
  5  6  2  0
  6  1  1  0
  7  8  1  0
  7 11  1  0
  8  9  1  0
  9 10  1  0
 11 10  1  0
 11 14  1  0
 13 12  2  0
 14 12  1  0
 15  3  1  0
 15 16  2  0
 16 17  1  0
 18 17  2  0
 19 20  2  0
 19 18  1  0
 20 15  1  0
 21 20  1  0
 22 21  2  0
  1 23  1  0
  5 24  1  0
  8 25  1  0
  8 26  1  0
  9 27  1  0
  9 28  1  0
 10 29  1  0
 10 30  1  0
 11 31  1  6
 12 32  1  0
 14 33  1  0
 16 34  1  0
 17 35  1  0
 18 36  1  0
 19 37  1  0
 21 38  1  0
M  ISO  8  23  14  24  14  25  13  26  13  27  13  28  13  29  13  30  13
M  ISO  7  31  13  32   6  34  14  35  14  36  14  37  14  38   6
M  END
>  <minimizedAffinity>  (1) 
-5.32197857

>  <minimizedRMSD>  (1) 
0.766540468

$$$$
