
     RDKit          3D

 29 31  0  0  1  0  0  0  0  0999 V2000
   37.7660   31.4900   45.9430 C   0  0  1  0  0  0  0  0  0  0  0  0
   36.3280   31.1710   45.9140 C   0  0  0  0  0  0  0  0  0  0  0  0
   37.1740   30.1950   46.5700 C   0  0  2  0  0  0  0  0  0  0  0  0
   34.8190   28.6750   47.9330 Cl  0  0  0  0  0  0  0  0  0  0  0  0
   36.1020   29.4780   48.8120 C   0  0  0  0  0  0  0  0  0  0  0  0
   37.0890   30.0310   48.0100 C   0  0  0  0  0  0  0  0  0  0  0  0
   38.1380   30.5990   48.6650 C   0  0  0  0  0  0  0  0  0  0  0  0
   38.2270   30.6300   50.0650 C   0  0  0  0  0  0  0  0  0  0  0  0
   37.2070   30.0600   50.8390 C   0  0  0  0  0  0  0  0  0  0  0  0
   37.2060   30.0110   52.5920 Cl  0  0  0  0  0  0  0  0  0  0  0  0
   36.1350   29.4800   50.1800 C   0  0  0  0  0  0  0  0  0  0  0  0
   37.9350   31.4440   43.3880 C   0  0  0  0  0  0  0  0  0  0  0  0
   38.5570   31.3160   44.6850 C   0  0  0  0  0  0  0  0  0  0  0  0
   39.9070   30.9940   44.7230 C   0  0  0  0  0  0  0  0  0  0  0  0
   40.5820   30.8120   43.5360 N   0  0  0  0  0  0  0  0  0  0  0  0
   39.9590   30.9410   42.3420 C   0  0  0  0  0  0  0  0  0  0  0  0
   38.6530   31.2530   42.2730 N   0  0  0  0  0  0  0  0  0  0  0  0
   40.7440   30.7310   41.1310 C   0  0  0  0  0  0  0  0  0  0  0  0
   41.5630   29.7740   41.1100 O   0  0  0  0  0  0  0  0  0  0  0  0
   38.3728   32.3440   46.2783 H   0  0  0  0  0  0  0  0  0  0  0  0
   35.6319   31.7715   46.5180 H   0  0  0  0  0  0  0  0  0  0  0  0
   35.5902   31.1004   45.1011 H   0  0  0  0  0  0  0  0  0  0  0  0
   37.3764   29.1189   46.4649 H   0  0  0  0  0  0  0  0  0  0  0  0
   38.9478   31.0515   48.0738 H   0  0  0  0  0  0  0  0  0  0  0  0
   39.0937   31.0997   50.5530 H   0  0  0  0  0  0  0  0  0  0  0  0
   35.3148   29.0235   50.7535 H   0  0  0  0  0  0  0  0  0  0  0  0
   36.8675   31.6993   43.3152 H   0  0  0  0  0  0  0  0  0  0  0  0
   40.4290   30.8860   45.6852 H   0  0  0  0  0  0  0  0  0  0  0  0
   40.6241   31.3908   40.2590 H   0  0  0  0  0  0  0  0  0  0  0  0
  1  3  1  0
  2  1  1  0
  2  3  1  0
  3  6  1  0
  4  5  1  0
  5 11  2  0
  6  7  2  0
  6  5  1  0
  7  8  1  0
  8  9  2  0
  9 10  1  0
 11  9  1  0
 12 13  2  0
 13 14  1  0
 13  1  1  0
 15 14  2  0
 16 15  1  0
 17 16  2  0
 17 12  1  0
 18 16  1  0
 19 18  2  0
  1 20  1  1
  2 21  1  0
  2 22  1  0
  3 23  1  6
  7 24  1  0
  8 25  1  0
 11 26  1  0
 12 27  1  0
 14 28  1  0
 18 29  1  0
M  ISO  8  20  13  21  13  22  13  23  13  24  14  25  14  26  14  27  14
M  ISO  2  28  14  29   6
M  END
>  <minimizedAffinity>  (1) 
-4.35124207

>  <minimizedRMSD>  (1) 
1.52881896

$$$$
