
     RDKit          3D

 32 34  0  0  1  0  0  0  0  0999 V2000
   33.9930   30.2270   47.0910 C   0  0  1  0  0  0  0  0  0  0  0  0
   33.8560   30.2870   45.8470 N   0  0  0  0  0  0  0  0  0  0  0  0
   32.9570   30.5830   45.0210 C   0  0  0  0  0  0  0  0  0  0  0  0
   32.7520   29.3080   44.6910 N   0  0  0  0  0  0  0  0  0  0  0  0
   33.1190   28.3860   45.6270 C   0  0  0  0  0  0  0  0  0  0  0  0
   32.8100   27.0410   45.2780 C   0  0  0  0  0  0  0  0  0  0  0  0
   33.1670   26.0740   46.1570 C   0  0  0  0  0  0  0  0  0  0  0  0
   33.7970   26.2960   47.3440 C   0  0  0  0  0  0  0  0  0  0  0  0
   34.0470   27.6380   47.5760 C   0  0  0  0  0  0  0  0  0  0  0  0
   33.7720   28.8000   46.8260 C   0  0  0  0  0  0  0  0  0  0  0  0
   35.4360   29.9300   50.5160 C   0  0  0  0  0  0  0  0  0  0  0  0
   36.7430   30.1890   50.1450 C   0  0  0  0  0  0  0  0  0  0  0  0
   36.9360   30.4070   48.8030 C   0  0  0  0  0  0  0  0  0  0  0  0
   35.8630   30.3520   47.9810 N   0  0  0  0  0  0  0  0  0  0  0  0
   34.6100   30.1000   48.3730 C   0  0  0  0  0  0  0  0  0  0  0  0
   34.4740   29.9000   49.6430 N   0  0  0  0  0  0  0  0  0  0  0  0
   38.2820   30.6720   48.3760 N   0  0  0  0  0  0  0  0  0  0  0  0
   37.8250   30.2230   51.1230 C   0  0  0  0  0  0  0  0  0  0  0  0
   37.5290   29.9020   52.2980 O   0  0  0  0  0  0  0  0  0  0  0  0
   33.8151   31.2744   47.3762 H   0  0  0  0  0  0  0  0  0  0  0  0
   34.6124   30.9331   45.5799 H   0  0  0  0  0  0  0  0  0  0  0  0
   32.0805   31.0632   45.4805 H   0  0  0  0  0  0  0  0  0  0  0  0
   33.1827   31.3089   44.2259 H   0  0  0  0  0  0  0  0  0  0  0  0
   32.3422   29.0360   43.7860 H   0  0  0  0  0  0  0  0  0  0  0  0
   32.3022   26.7969   44.3333 H   0  0  0  0  0  0  0  0  0  0  0  0
   32.9307   25.0327   45.8926 H   0  0  0  0  0  0  0  0  0  0  0  0
   34.0773   25.4948   48.0436 H   0  0  0  0  0  0  0  0  0  0  0  0
   34.5589   27.8358   48.5293 H   0  0  0  0  0  0  0  0  0  0  0  0
   35.2054   29.7450   51.5755 H   0  0  0  0  0  0  0  0  0  0  0  0
   38.4822   30.8425   47.3801 H   0  0  0  0  0  0  0  0  0  0  0  0
   39.0467   30.6915   49.0658 H   0  0  0  0  0  0  0  0  0  0  0  0
   38.8480   30.5153   50.8437 H   0  0  0  0  0  0  0  0  0  0  0  0
  1 15  1  0
  2  1  1  0
  3  2  1  0
  4  3  1  0
  4  5  1  0
  5 10  2  0
  6  5  1  0
  6  7  2  0
  7  8  1  0
  8  9  2  0
 10  1  1  0
 10  9  1  0
 12 11  2  0
 12 18  1  0
 13 12  1  0
 14 15  1  0
 14 13  2  0
 15 16  2  0
 16 11  1  0
 17 13  1  0
 18 19  2  0
  1 20  1  1
  2 21  1  0
  3 22  1  0
  3 23  1  0
  4 24  1  0
  6 25  1  0
  7 26  1  0
  8 27  1  0
  9 28  1  0
 11 29  1  0
 17 30  1  0
 17 31  1  0
 18 32  1  0
M  ISO  8  20  13  21   5  22  13  23  13  25  14  26  14  27  14  28  14
M  ISO  2  29  14  32   6
M  END
>  <minimizedAffinity>  (1) 
-5.03236437

>  <minimizedRMSD>  (1) 
0.912154675

$$$$
