
     RDKit          3D

 24 25  0  0  0  0  0  0  0  0999 V2000
   38.0150   31.4040   47.6570 C   0  0  0  0  0  0  0  0  0  0  0  0
   37.1020   31.3400   48.6780 C   0  0  0  0  0  0  0  0  0  0  0  0
   37.2140   32.3830   49.6120 C   0  0  0  0  0  0  0  0  0  0  0  0
   38.1830   33.3800   49.4820 C   0  0  0  0  0  0  0  0  0  0  0  0
   39.0580   33.3500   48.4120 C   0  0  0  0  0  0  0  0  0  0  0  0
   38.9770   32.3360   47.4700 C   0  0  0  0  0  0  0  0  0  0  0  0
   34.9670   30.3440   48.0100 C   0  0  0  0  0  0  0  0  0  0  0  0
   36.1110   30.3270   48.8170 C   0  0  0  0  0  0  0  0  0  0  0  0
   36.2120   29.2880   49.7340 C   0  0  0  0  0  0  0  0  0  0  0  0
   35.2200   28.3580   49.8060 N   0  0  0  0  0  0  0  0  0  0  0  0
   34.1300   28.4250   48.9950 C   0  0  0  0  0  0  0  0  0  0  0  0
   34.0030   29.4240   48.0920 N   0  0  0  0  0  0  0  0  0  0  0  0
   37.3740   29.2000   50.6120 C   0  0  0  0  0  0  0  0  0  0  0  0
   37.3750   29.6460   51.7940 O   0  0  0  0  0  0  0  0  0  0  0  0
   37.9790   30.3990   46.6720 O   0  0  0  0  0  0  0  0  0  0  0  0
   39.8690   32.3440   46.4180 O   0  0  0  0  0  0  0  0  0  0  0  0
   36.5218   32.4152   50.4663 H   0  0  0  0  0  0  0  0  0  0  0  0
   38.2499   34.1858   50.2278 H   0  0  0  0  0  0  0  0  0  0  0  0
   39.8221   34.1344   48.3076 H   0  0  0  0  0  0  0  0  0  0  0  0
   34.8573   31.1537   47.2736 H   0  0  0  0  0  0  0  0  0  0  0  0
   33.3442   27.6593   49.0743 H   0  0  0  0  0  0  0  0  0  0  0  0
   38.2888   28.7248   50.2281 H   0  0  0  0  0  0  0  0  0  0  0  0
   38.6251   30.4175   45.9221 H   0  0  0  0  0  0  0  0  0  0  0  0
   40.5469   33.0622   46.3493 H   0  0  0  0  0  0  0  0  0  0  0  0
  1  2  2  0
  2  8  1  0
  2  3  1  0
  4  3  2  0
  5  4  1  0
  6  1  1  0
  6  5  2  0
  7 12  2  0
  7  8  1  0
  8  9  2  0
  9 10  1  0
  9 13  1  0
 11 10  2  0
 12 11  1  0
 13 14  2  0
 15  1  1  0
 16  6  1  0
  3 17  1  0
  4 18  1  0
  5 19  1  0
  7 20  1  0
 11 21  1  0
 13 22  1  0
 15 23  1  0
 16 24  1  0
M  ISO  8  17  14  18  14  19  14  20  14  21  14  22   6  23   3  24   3
M  END
>  <minimizedAffinity>  (1) 
-5.74462128

>  <minimizedRMSD>  (1) 
1.97093725

$$$$
