
     RDKit          3D

 28 30  0  0  0  0  0  0  0  0999 V2000
   34.9030   29.4430   48.5450 C   0  0  0  0  0  0  0  0  0  0  0  0
   34.0650   28.7730   49.3770 N   0  0  0  0  0  0  0  0  0  0  0  0
   32.9840   28.1240   48.9270 C   0  0  0  0  0  0  0  0  0  0  0  0
   32.6250   28.0710   47.6350 N   0  0  0  0  0  0  0  0  0  0  0  0
   33.4200   28.7180   46.7520 C   0  0  0  0  0  0  0  0  0  0  0  0
   33.0550   28.6660   45.4320 C   0  0  0  0  0  0  0  0  0  0  0  0
   33.8310   29.3110   44.4780 C   0  0  0  0  0  0  0  0  0  0  0  0
   34.9500   29.9820   44.9350 C   0  0  0  0  0  0  0  0  0  0  0  0
   35.2610   29.9970   46.2790 C   0  0  0  0  0  0  0  0  0  0  0  0
   34.5190   29.3730   47.2360 C   0  0  0  0  0  0  0  0  0  0  0  0
   37.5800   30.1730   50.8360 C   0  0  0  0  0  0  0  0  0  0  0  0
   38.3030   31.2440   50.3080 C   0  0  0  0  0  0  0  0  0  0  0  0
   37.8400   31.7390   49.0920 C   0  0  0  0  0  0  0  0  0  0  0  0
   36.7780   31.1670   48.5500 N   0  0  0  0  0  0  0  0  0  0  0  0
   36.0780   30.1580   49.0240 C   0  0  0  0  0  0  0  0  0  0  0  0
   36.5440   29.7120   50.1800 N   0  0  0  0  0  0  0  0  0  0  0  0
   37.9550   29.5660   52.1000 N   0  0  0  0  0  0  0  0  0  0  0  0
   38.4980   32.8400   48.4470 C   0  0  0  0  0  0  0  0  0  0  0  0
   39.1200   33.7590   49.0410 O   0  0  0  0  0  0  0  0  0  0  0  0
   32.3517   27.6026   49.6607 H   0  0  0  0  0  0  0  0  0  0  0  0
   32.1516   28.1159   45.1297 H   0  0  0  0  0  0  0  0  0  0  0  0
   33.5680   29.2891   43.4101 H   0  0  0  0  0  0  0  0  0  0  0  0
   35.5988   30.5091   44.2200 H   0  0  0  0  0  0  0  0  0  0  0  0
   36.1606   30.5448   46.5964 H   0  0  0  0  0  0  0  0  0  0  0  0
   39.1800   31.6685   50.8186 H   0  0  0  0  0  0  0  0  0  0  0  0
   37.4095   28.7764   52.4740 H   0  0  0  0  0  0  0  0  0  0  0  0
   38.7666   29.9249   52.6229 H   0  0  0  0  0  0  0  0  0  0  0  0
   38.4553   32.8838   47.3487 H   0  0  0  0  0  0  0  0  0  0  0  0
  1 15  1  0
  1  2  2  0
  3  2  1  0
  4  3  2  0
  5 10  2  0
  5  4  1  0
  6  5  1  0
  7  8  1  0
  7  6  2  0
  8  9  2  0
  9 10  1  0
 10  1  1  0
 11 17  1  0
 12 11  2  0
 13 12  1  0
 14 15  1  0
 14 13  2  0
 15 16  2  0
 16 11  1  0
 18 19  2  0
 18 13  1  0
  3 20  1  0
  6 21  1  0
  7 22  1  0
  8 23  1  0
  9 24  1  0
 12 25  1  0
 17 26  1  0
 17 27  1  0
 18 28  1  0
M  ISO  7  20  14  21  14  22  14  23  14  24  14  25  14  28   6
M  END
>  <minimizedAffinity>  (1) 
-5.70652628

>  <minimizedRMSD>  (1) 
0.097533524

$$$$
