
     RDKit          3D

 22 23  0  0  1  0  0  0  0  0999 V2000
   37.2370   30.1450   51.4910 C   0  0  0  0  0  0  0  0  0  0  0  0
   38.1540   30.6970   50.5720 C   0  0  0  0  0  0  0  0  0  0  0  0
   37.9430   30.4860   49.2050 C   0  0  0  0  0  0  0  0  0  0  0  0
   36.8610   29.7560   48.8310 N   0  0  0  0  0  0  0  0  0  0  0  0
   35.9960   29.2360   49.7220 C   0  0  0  0  0  0  0  0  0  0  0  0
   36.1910   29.4350   51.0370 N   0  0  0  0  0  0  0  0  0  0  0  0
   34.5780   28.2780   49.2300 S   0  0  0  0  0  0  0  0  0  0  0  0
   34.1500   28.7050   47.5500 C   0  0  2  0  0  0  0  0  0  0  0  0
   33.9190   30.2090   47.3560 C   0  0  0  0  0  0  0  0  0  0  0  0
   33.1400   30.0840   46.0370 C   0  0  0  0  0  0  0  0  0  0  0  0
   32.1220   29.2300   46.4870 O   0  0  0  0  0  0  0  0  0  0  0  0
   32.7650   28.2090   47.1610 C   0  0  0  0  0  0  0  0  0  0  0  0
   37.3776   30.2949   52.5716 H   0  0  0  0  0  0  0  0  0  0  0  0
   39.0173   31.2814   50.9230 H   0  0  0  0  0  0  0  0  0  0  0  0
   38.6335   30.8995   48.4552 H   0  0  0  0  0  0  0  0  0  0  0  0
   34.9889   28.2806   46.9790 H   0  0  0  0  0  0  0  0  0  0  0  0
   33.3189   30.6542   48.1632 H   0  0  0  0  0  0  0  0  0  0  0  0
   34.8081   30.8568   47.3539 H   0  0  0  0  0  0  0  0  0  0  0  0
   33.7438   29.6271   45.2390 H   0  0  0  0  0  0  0  0  0  0  0  0
   32.8090   31.0293   45.5822 H   0  0  0  0  0  0  0  0  0  0  0  0
   32.1967   27.9412   48.0639 H   0  0  0  0  0  0  0  0  0  0  0  0
   32.8429   27.3173   46.5217 H   0  0  0  0  0  0  0  0  0  0  0  0
  2  1  2  0
  3  2  1  0
  4  3  2  0
  4  5  1  0
  5  6  2  0
  6  1  1  0
  7  5  1  0
  8  7  1  0
  9  8  1  0
 10 11  1  0
 10  9  1  0
 11 12  1  0
 12  8  1  0
  1 13  1  0
  2 14  1  0
  3 15  1  0
  8 16  1  6
  9 17  1  0
  9 18  1  0
 10 19  1  0
 10 20  1  0
 12 21  1  0
 12 22  1  0
M  ISO  8  13  14  14  14  15  14  16  13  17  13  18  13  19  13  20  13
M  ISO  2  21  13  22  13
M  END
>  <minimizedAffinity>  (1) 
-3.85570383

>  <minimizedRMSD>  (1) 
0.640285134

$$$$
