
     RDKit          3D

 34 36  0  0  1  0  0  0  0  0999 V2000
   37.3760   31.0590   47.1550 N   0  0  0  0  0  0  0  0  0  0  0  0
   36.7900   30.7230   45.9750 C   0  0  0  0  0  0  0  0  0  0  0  0
   37.2490   31.1950   44.7570 C   0  0  0  0  0  0  0  0  0  0  0  0
   38.3590   32.0470   44.7790 C   0  0  0  0  0  0  0  0  0  0  0  0
   38.8160   32.5020   43.7040 O   0  0  0  0  0  0  0  0  0  0  0  0
   38.9560   32.3910   45.9680 N   0  0  0  0  0  0  0  0  0  0  0  0
   38.4180   31.8690   47.0760 C   0  0  0  0  0  0  0  0  0  0  0  0
   38.9830   32.2040   48.1350 O   0  0  0  0  0  0  0  0  0  0  0  0
   37.2330   29.4740   50.5100 C   0  0  0  0  0  0  0  0  0  0  0  0
   37.7420   29.9560   49.2860 C   0  0  0  0  0  0  0  0  0  0  0  0
   36.8930   30.5690   48.3710 C   0  0  0  0  0  0  0  0  0  0  0  0
   35.5780   30.6850   48.6910 N   0  0  0  0  0  0  0  0  0  0  0  0
   35.0790   30.2210   49.8700 C   0  0  0  0  0  0  0  0  0  0  0  0
   35.9050   29.6190   50.7730 N   0  0  0  0  0  0  0  0  0  0  0  0
   36.6620   30.8710   43.4350 C   0  0  2  0  0  0  0  0  0  0  0  0
   37.6300   30.0970   42.5450 C   0  0  0  0  0  0  0  0  0  0  0  0
   37.3630   30.7080   41.1840 C   0  0  0  0  0  0  0  0  0  0  0  0
   36.2080   31.5000   41.3320 O   0  0  0  0  0  0  0  0  0  0  0  0
   36.4750   32.1130   42.5830 C   0  0  0  0  0  0  0  0  0  0  0  0
   40.1030   33.2710   45.9890 C   0  0  0  0  0  0  0  0  0  0  0  0
   39.9590   34.2430   45.0430 F   0  0  0  0  0  0  0  0  0  0  0  0
   41.2910   32.6140   45.7050 F   0  0  0  0  0  0  0  0  0  0  0  0
   40.1730   33.8830   47.2320 F   0  0  0  0  0  0  0  0  0  0  0  0
   35.9190   30.0513   45.9885 H   0  0  0  0  0  0  0  0  0  0  0  0
   37.8979   28.9890   51.2399 H   0  0  0  0  0  0  0  0  0  0  0  0
   38.8119   29.8469   49.0549 H   0  0  0  0  0  0  0  0  0  0  0  0
   34.0079   30.3319   50.0945 H   0  0  0  0  0  0  0  0  0  0  0  0
   35.7384   30.3318   43.6924 H   0  0  0  0  0  0  0  0  0  0  0  0
   38.6730   30.2551   42.8565 H   0  0  0  0  0  0  0  0  0  0  0  0
   37.4876   29.0067   42.5776 H   0  0  0  0  0  0  0  0  0  0  0  0
   37.1914   29.9182   40.4378 H   0  0  0  0  0  0  0  0  0  0  0  0
   38.2186   31.3057   40.8366 H   0  0  0  0  0  0  0  0  0  0  0  0
   37.3850   32.7301   42.5518 H   0  0  0  0  0  0  0  0  0  0  0  0
   35.7025   32.8117   42.9366 H   0  0  0  0  0  0  0  0  0  0  0  0
  1 11  1  0
  2  1  1  0
  3  4  1  0
  3  2  2  0
  4  6  1  0
  5  4  2  0
  6 20  1  0
  6  7  1  0
  7  1  1  0
  7  8  2  0
  9 14  2  0
 10  9  1  0
 11 12  1  0
 11 10  2  0
 12 13  2  0
 13 14  1  0
 15  3  1  0
 16 15  1  0
 17 18  1  0
 17 16  1  0
 18 19  1  0
 19 15  1  0
 20 23  1  0
 21 20  1  0
 22 20  1  0
  2 24  1  0
  9 25  1  0
 10 26  1  0
 13 27  1  0
 15 28  1  1
 16 29  1  0
 16 30  1  0
 17 31  1  0
 17 32  1  0
 19 33  1  0
 19 34  1  0
M  ISO  8  24  14  25  14  26  14  27  14  28  13  29  13  30  13  31  13
M  ISO  3  32  13  33  13  34  13
M  END
>  <minimizedAffinity>  (1) 
-6.07233286

>  <minimizedRMSD>  (1) 
0.246959344

$$$$
