
     RDKit          3D

 50 53  0  0  1  0  0  0  0  0999 V2000
   38.1630   28.2280   51.3000 C   0  0  0  0  0  0  0  0  0  0  0  0
   37.1370   29.3060   51.5400 C   0  0  0  0  0  0  0  0  0  0  0  0
   37.4770   30.5150   51.0230 C   0  0  0  0  0  0  0  0  0  0  0  0
   37.5080   30.1650   49.6980 O   0  0  0  0  0  0  0  0  0  0  0  0
   38.0950   31.0250   48.8070 C   0  0  0  0  0  0  0  0  0  0  0  0
   38.3670   32.2530   49.3590 C   0  0  0  0  0  0  0  0  0  0  0  0
   38.9730   33.2390   48.5540 C   0  0  0  0  0  0  0  0  0  0  0  0
   39.2550   32.9100   47.2640 N   0  0  0  0  0  0  0  0  0  0  0  0
   38.9710   31.6730   46.7440 C   0  0  0  0  0  0  0  0  0  0  0  0
   38.3970   30.7640   47.5360 N   0  0  0  0  0  0  0  0  0  0  0  0
   39.8620   32.5370   44.7030 C   0  0  0  0  0  0  0  0  0  0  0  0
   40.0750   33.6920   45.2020 O   0  0  0  0  0  0  0  0  0  0  0  0
   39.3090   31.4380   45.3840 N   0  0  0  0  0  0  0  0  0  0  0  0
   38.6620   27.3350   52.7380 S   0  0  0  0  0  0  0  0  0  0  0  0
   40.4230   25.2000   53.4040 C   0  0  0  0  0  0  0  0  0  0  0  0
   39.8080   26.0270   52.4600 C   0  0  0  0  0  0  0  0  0  0  0  0
   40.1420   25.7890   51.1270 C   0  0  0  0  0  0  0  0  0  0  0  0
   41.0130   24.8150   50.7330 C   0  0  0  0  0  0  0  0  0  0  0  0
   41.5000   24.3770   49.5770 N   0  0  0  0  0  0  0  0  0  0  0  0
   42.3720   23.3370   49.7560 C   0  0  0  0  0  0  0  0  0  0  0  0
   42.4250   23.1190   51.1170 C   0  0  0  0  0  0  0  0  0  0  0  0
   41.5860   24.0330   51.7100 C   0  0  0  0  0  0  0  0  0  0  0  0
   41.3070   24.2090   53.0260 C   0  0  0  0  0  0  0  0  0  0  0  0
   41.9210   23.3720   54.0650 C   0  0  2  0  0  0  0  0  0  0  0  0
   40.9740   23.1590   55.2510 C   0  0  0  0  0  0  0  0  0  0  0  0
   41.9540   22.8120   56.3290 C   0  0  0  0  0  0  0  0  0  0  0  0
   43.2270   23.0370   55.8320 O   0  0  0  0  0  0  0  0  0  0  0  0
   43.0920   23.9650   54.7720 C   0  0  0  0  0  0  0  0  0  0  0  0
   37.7406   27.5094   50.5823 H   0  0  0  0  0  0  0  0  0  0  0  0
   39.0636   28.7396   50.9296 H   0  0  0  0  0  0  0  0  0  0  0  0
   36.1880   28.9886   51.0832 H   0  0  0  0  0  0  0  0  0  0  0  0
   37.0592   29.4354   52.6296 H   0  0  0  0  0  0  0  0  0  0  0  0
   36.7182   31.2836   51.2315 H   0  0  0  0  0  0  0  0  0  0  0  0
   38.3989   30.9639   51.4213 H   0  0  0  0  0  0  0  0  0  0  0  0
   38.1167   32.4631   50.4093 H   0  0  0  0  0  0  0  0  0  0  0  0
   39.2089   34.2364   48.9534 H   0  0  0  0  0  0  0  0  0  0  0  0
   40.1348   32.3880   43.6478 H   0  0  0  0  0  0  0  0  0  0  0  0
   39.1594   30.5263   44.9287 H   0  0  0  0  0  0  0  0  0  0  0  0
   40.1979   25.3417   54.4714 H   0  0  0  0  0  0  0  0  0  0  0  0
   39.6794   26.4190   50.3530 H   0  0  0  0  0  0  0  0  0  0  0  0
   41.2518   24.7717   48.6586 H   0  0  0  0  0  0  0  0  0  0  0  0
   42.9182   22.7879   48.9749 H   0  0  0  0  0  0  0  0  0  0  0  0
   43.0267   22.3558   51.6323 H   0  0  0  0  0  0  0  0  0  0  0  0
   42.1910   22.4789   53.4823 H   0  0  0  0  0  0  0  0  0  0  0  0
   40.4136   24.0744   55.4918 H   0  0  0  0  0  0  0  0  0  0  0  0
   40.1935   22.4024   55.0823 H   0  0  0  0  0  0  0  0  0  0  0  0
   41.7794   23.4451   57.2114 H   0  0  0  0  0  0  0  0  0  0  0  0
   41.8389   21.7600   56.6289 H   0  0  0  0  0  0  0  0  0  0  0  0
   43.9868   23.9892   54.1327 H   0  0  0  0  0  0  0  0  0  0  0  0
   42.9666   25.0126   55.0832 H   0  0  0  0  0  0  0  0  0  0  0  0
  1  2  1  0
  1 14  1  0
  3  2  1  0
  4  3  1  0
  5  6  2  0
  5  4  1  0
  7  6  1  0
  8  7  2  0
  9  8  1  0
  9 10  2  0
 10  5  1  0
 11 12  2  0
 11 13  1  0
 13  9  1  0
 16 14  1  0
 16 15  2  0
 17 16  1  0
 18 17  2  0
 18 22  1  0
 19 20  1  0
 19 18  1  0
 20 21  2  0
 21 22  1  0
 22 23  2  0
 23 15  1  0
 24 23  1  0
 24 28  1  0
 24 25  1  0
 25 26  1  0
 27 26  1  0
 28 27  1  0
  1 29  1  0
  1 30  1  0
  2 31  1  0
  2 32  1  0
  3 33  1  0
  3 34  1  0
  6 35  1  0
  7 36  1  0
 11 37  1  0
 13 38  1  0
 15 39  1  0
 17 40  1  0
 19 41  1  0
 20 42  1  0
 21 43  1  0
 24 44  1  6
 25 45  1  0
 25 46  1  0
 26 47  1  0
 26 48  1  0
 28 49  1  0
 28 50  1  0
M  ISO  8  29   8  30   8  31   8  32   8  33   8  34   8  35  14  36  14
M  ISO  8  37   6  39  14  40  14  41   9  42  14  43  14  44  13  45  13
M  ISO  5  46  13  47  13  48  13  49  13  50  13
M  END
>  <minimizedAffinity>  (1) 
-4.43413544

>  <minimizedRMSD>  (1) 
0.589824319

$$$$
