
     RDKit          3D

 35 37  0  0  1  0  0  0  0  0999 V2000
   36.6170   31.3410   48.7300 N   0  0  0  0  0  0  0  0  0  0  0  0
   36.7810   32.1920   49.7330 C   0  0  0  0  0  0  0  0  0  0  0  0
   37.8210   33.1180   49.6930 C   0  0  0  0  0  0  0  0  0  0  0  0
   38.6010   33.0550   48.5800 C   0  0  0  0  0  0  0  0  0  0  0  0
   39.5480   33.9050   48.5510 O   0  0  0  0  0  0  0  0  0  0  0  0
   38.4680   32.2190   47.5580 N   0  0  0  0  0  0  0  0  0  0  0  0
   37.4490   31.3450   47.6410 C   0  0  0  0  0  0  0  0  0  0  0  0
   37.2920   30.5300   46.6730 O   0  0  0  0  0  0  0  0  0  0  0  0
   35.3850   29.5910   49.8880 C   0  0  0  0  0  0  0  0  0  0  0  0
   35.5780   30.3640   48.7130 C   0  0  0  0  0  0  0  0  0  0  0  0
   34.7390   30.1140   47.6220 C   0  0  0  0  0  0  0  0  0  0  0  0
   33.7910   29.1560   47.7380 N   0  0  0  0  0  0  0  0  0  0  0  0
   33.6180   28.4410   48.8360 C   0  0  0  0  0  0  0  0  0  0  0  0
   34.4080   28.6530   49.9070 N   0  0  0  0  0  0  0  0  0  0  0  0
   37.4160   29.2000   51.4740 C   0  0  0  0  0  0  0  0  0  0  0  0
   38.1110   28.4840   50.7170 O   0  0  0  0  0  0  0  0  0  0  0  0
   36.1570   29.7560   51.0600 N   0  0  0  0  0  0  0  0  0  0  0  0
   39.3810   32.2950   46.4710 C   0  0  1  0  0  0  0  0  0  0  0  0
   40.0930   31.0640   46.0410 C   0  0  0  0  0  0  0  0  0  0  0  0
   40.8530   31.7500   44.8840 C   0  0  0  0  0  0  0  0  0  0  0  0
   39.8560   32.4900   44.2570 O   0  0  0  0  0  0  0  0  0  0  0  0
   38.8180   32.7060   45.1450 C   0  0  0  0  0  0  0  0  0  0  0  0
   36.0977   32.1671   50.5947 H   0  0  0  0  0  0  0  0  0  0  0  0
   37.9981   33.8446   50.4996 H   0  0  0  0  0  0  0  0  0  0  0  0
   34.8480   30.6851   46.6882 H   0  0  0  0  0  0  0  0  0  0  0  0
   32.8304   27.6741   48.8756 H   0  0  0  0  0  0  0  0  0  0  0  0
   37.7815   29.4104   52.4899 H   0  0  0  0  0  0  0  0  0  0  0  0
   35.7376   30.3968   51.7488 H   0  0  0  0  0  0  0  0  0  0  0  0
   40.0325   33.0298   46.9667 H   0  0  0  0  0  0  0  0  0  0  0  0
   40.7622   30.6618   46.8159 H   0  0  0  0  0  0  0  0  0  0  0  0
   39.4864   30.1781   45.8017 H   0  0  0  0  0  0  0  0  0  0  0  0
   41.6507   32.4038   45.2664 H   0  0  0  0  0  0  0  0  0  0  0  0
   41.3564   31.0396   44.2117 H   0  0  0  0  0  0  0  0  0  0  0  0
   38.5276   33.7669   45.1558 H   0  0  0  0  0  0  0  0  0  0  0  0
   37.9105   32.1442   44.8789 H   0  0  0  0  0  0  0  0  0  0  0  0
  1  2  1  0
  3  2  2  0
  4  3  1  0
  5  4  2  0
  6  7  1  0
  6  4  1  0
  7  1  1  0
  8  7  2  0
  9 14  2  0
  9 17  1  0
 10  1  1  0
 10  9  1  0
 11 12  1  0
 11 10  2  0
 12 13  2  0
 13 14  1  0
 16 15  2  0
 17 15  1  0
 18  6  1  0
 19 18  1  0
 20 19  1  0
 21 20  1  0
 21 22  1  0
 22 18  1  0
  2 23  1  0
  3 24  1  0
 11 25  1  0
 13 26  1  0
 15 27  1  0
 17 28  1  0
 18 29  1  1
 19 30  1  0
 19 31  1  0
 20 32  1  0
 20 33  1  0
 22 34  1  0
 22 35  1  0
M  ISO  8  23  14  24  14  25  14  26  14  27   6  29  13  30  13  31  13
M  ISO  4  32  13  33  13  34  13  35  13
M  END
>  <minimizedAffinity>  (1) 
-6.14187336

>  <minimizedRMSD>  (1) 
0.99415195

$$$$
