
     RDKit          3D

 37 39  0  0  1  0  0  0  0  0999 V2000
   36.7100   29.4580   44.0980 Cl  0  0  0  0  0  0  0  0  0  0  0  0
   38.3500   29.8540   43.5710 C   0  0  0  0  0  0  0  0  0  0  0  0
   39.3400   30.3450   44.4240 C   0  0  0  0  0  0  0  0  0  0  0  0
   40.5920   30.6160   43.8770 C   0  0  0  0  0  0  0  0  0  0  0  0
   40.8190   30.3970   42.5390 C   0  0  0  0  0  0  0  0  0  0  0  0
   39.8670   29.9190   41.6870 C   0  0  0  0  0  0  0  0  0  0  0  0
   38.6320   29.6480   42.2120 C   0  0  0  0  0  0  0  0  0  0  0  0
   37.5820   29.1250   41.3000 C   0  0  2  0  0  0  0  0  0  0  0  0
   37.5990   27.6070   41.2060 C   0  0  0  0  0  0  0  0  0  0  0  0
   37.9770   27.3990   39.7550 C   0  0  0  0  0  0  0  0  0  0  0  0
   38.6170   28.5700   39.3620 O   0  0  0  0  0  0  0  0  0  0  0  0
   37.7840   29.5520   39.8930 C   0  0  0  0  0  0  0  0  0  0  0  0
   38.8970   30.4840   45.7100 O   0  0  0  0  0  0  0  0  0  0  0  0
   39.4360   32.5660   47.1580 O   0  0  0  0  0  0  0  0  0  0  0  0
   38.3200   31.8720   46.4670 P   0  0  1  0  0  0  0  0  0  0  0  0
   37.7220   32.8640   45.2130 O   0  0  0  0  0  0  0  0  0  0  0  0
   37.0300   31.4420   47.4840 O   0  0  0  0  0  0  0  0  0  0  0  0
   37.5990   30.5140   51.0180 C   0  0  0  0  0  0  0  0  0  0  0  0
   37.6980   31.3040   49.8690 C   0  0  0  0  0  0  0  0  0  0  0  0
   37.0690   30.8530   48.7000 C   0  0  0  0  0  0  0  0  0  0  0  0
   36.3950   29.6680   48.7450 N   0  0  0  0  0  0  0  0  0  0  0  0
   36.3260   28.9390   49.8760 C   0  0  0  0  0  0  0  0  0  0  0  0
   36.9240   29.3630   51.0010 N   0  0  0  0  0  0  0  0  0  0  0  0
   41.3988   31.0051   44.5155 H   0  0  0  0  0  0  0  0  0  0  0  0
   41.8181   30.6182   42.1353 H   0  0  0  0  0  0  0  0  0  0  0  0
   40.0830   29.7577   40.6205 H   0  0  0  0  0  0  0  0  0  0  0  0
   36.6494   29.5164   41.7325 H   0  0  0  0  0  0  0  0  0  0  0  0
   38.3483   27.1708   41.8830 H   0  0  0  0  0  0  0  0  0  0  0  0
   36.6516   27.1290   41.4957 H   0  0  0  0  0  0  0  0  0  0  0  0
   38.6553   26.5388   39.6547 H   0  0  0  0  0  0  0  0  0  0  0  0
   37.0955   27.1888   39.1315 H   0  0  0  0  0  0  0  0  0  0  0  0
   38.2659   30.5399   39.8490 H   0  0  0  0  0  0  0  0  0  0  0  0
   36.8386   29.6514   39.3396 H   0  0  0  0  0  0  0  0  0  0  0  0
   37.2524   33.6430   45.6039 H   0  0  0  0  0  0  0  0  0  0  0  0
   38.0838   30.8454   51.9481 H   0  0  0  0  0  0  0  0  0  0  0  0
   38.2539   32.2531   49.8817 H   0  0  0  0  0  0  0  0  0  0  0  0
   35.7744   27.9873   49.8778 H   0  0  0  0  0  0  0  0  0  0  0  0
  2  1  1  0
  2  3  2  0
  3 13  1  0
  4  3  1  0
  5  4  2  0
  6  7  2  0
  6  5  1  0
  7  2  1  0
  8  7  1  0
  9  8  1  0
 10  9  1  0
 11 10  1  0
 11 12  1  0
 12  8  1  0
 13 15  1  0
 15 14  2  0
 15 17  1  0
 16 15  1  0
 17 20  1  0
 19 18  2  0
 20 21  2  0
 20 19  1  0
 21 22  1  0
 22 23  2  0
 23 18  1  0
  4 24  1  0
  5 25  1  0
  6 26  1  0
  8 27  1  1
  9 28  1  0
  9 29  1  0
 10 30  1  0
 10 31  1  0
 12 32  1  0
 12 33  1  0
 16 34  1  0
 18 35  1  0
 19 36  1  0
 22 37  1  0
M  ISO  8  24  14  25  14  26  14  27  13  28  13  29  13  30  13  31  13
M  ISO  6  32  13  33  13  34   3  35  14  36  14  37  14
M  END
>  <minimizedAffinity>  (1) 
-4.88511944

>  <minimizedRMSD>  (1) 
0.755143404

$$$$
