
     RDKit          3D

 27 28  0  0  1  0  0  0  0  0999 V2000
   33.9080   29.4980   46.8710 C   0  0  0  0  0  0  0  0  0  0  0  0
   34.7560   29.6130   47.9810 C   0  0  0  0  0  0  0  0  0  0  0  0
   36.0480   30.0710   47.7640 C   0  0  0  0  0  0  0  0  0  0  0  0
   36.4360   30.3870   46.5050 N   0  0  0  0  0  0  0  0  0  0  0  0
   35.5860   30.2640   45.4410 C   0  0  0  0  0  0  0  0  0  0  0  0
   34.3160   29.8180   45.6250 N   0  0  0  0  0  0  0  0  0  0  0  0
   36.9330   30.1920   48.9190 C   0  0  2  0  0  0  0  0  0  0  0  0
   36.6220   29.1460   49.9990 C   0  0  0  0  0  0  0  0  0  0  0  0
   37.3540   29.8350   51.1590 C   0  0  0  0  0  0  0  0  0  0  0  0
   37.0600   31.1680   51.0440 O   0  0  0  0  0  0  0  0  0  0  0  0
   36.7970   31.4490   49.7130 C   0  0  0  0  0  0  0  0  0  0  0  0
   32.5860   29.0570   46.8980 O   0  0  0  0  0  0  0  0  0  0  0  0
   33.1450   26.6050   47.8060 O   0  0  0  0  0  0  0  0  0  0  0  0
   32.0900   27.6870   47.8020 P   0  0  0  0  0  0  0  0  0  0  0  0
   31.7570   28.2560   49.3660 O   0  0  0  0  0  0  0  0  0  0  0  0
   30.7020   27.0290   47.0970 O   0  0  0  0  0  0  0  0  0  0  0  0
   34.4089   29.3490   48.9909 H   0  0  0  0  0  0  0  0  0  0  0  0
   35.9323   30.5276   44.4308 H   0  0  0  0  0  0  0  0  0  0  0  0
   37.9164   30.1070   48.4335 H   0  0  0  0  0  0  0  0  0  0  0  0
   35.5427   29.0446   50.1858 H   0  0  0  0  0  0  0  0  0  0  0  0
   36.9228   28.1113   49.7777 H   0  0  0  0  0  0  0  0  0  0  0  0
   36.9964   29.4453   52.1235 H   0  0  0  0  0  0  0  0  0  0  0  0
   38.4382   29.6537   51.1194 H   0  0  0  0  0  0  0  0  0  0  0  0
   37.5136   32.1980   49.3449 H   0  0  0  0  0  0  0  0  0  0  0  0
   35.7768   31.8471   49.6100 H   0  0  0  0  0  0  0  0  0  0  0  0
   32.1267   27.6243   50.0326 H   0  0  0  0  0  0  0  0  0  0  0  0
   30.0792   26.7337   47.8077 H   0  0  0  0  0  0  0  0  0  0  0  0
  1 12  1  0
  1  2  2  0
  3  2  1  0
  4  3  2  0
  5  6  2  0
  5  4  1  0
  6  1  1  0
  7  3  1  0
  7 11  1  0
  7  8  1  0
  8  9  1  0
 10  9  1  0
 11 10  1  0
 12 14  1  0
 14 13  2  0
 14 15  1  0
 16 14  1  0
  2 17  1  0
  5 18  1  0
  7 19  1  6
  8 20  1  0
  8 21  1  0
  9 22  1  0
  9 23  1  0
 11 24  1  0
 11 25  1  0
 15 26  1  0
 16 27  1  0
M  ISO  8  17  14  18  14  19  13  20  13  21  13  22  13  23  13  24  13
M  ISO  3  25  13  26   3  27   3
M  END
>  <minimizedAffinity>  (1) 
-4.2585125

>  <minimizedRMSD>  (1) 
4.07119799

$$$$
