
     RDKit          3D

 48 52  0  0  0  0  0  0  0  0999 V2000
   39.3010   32.0410   42.6860 C   0  0  0  0  0  0  0  0  0  0  0  0
   39.7550   31.3210   43.7820 C   0  0  0  0  0  0  0  0  0  0  0  0
   40.6010   30.2640   43.6730 C   0  0  0  0  0  0  0  0  0  0  0  0
   41.0470   29.8650   42.4100 C   0  0  0  0  0  0  0  0  0  0  0  0
   41.8660   28.8990   42.0030 N   0  0  0  0  0  0  0  0  0  0  0  0
   41.9590   28.9690   40.6890 C   0  0  0  0  0  0  0  0  0  0  0  0
   41.1970   29.9790   40.2650 N   0  0  0  0  0  0  0  0  0  0  0  0
   40.5990   30.5740   41.3300 C   0  0  0  0  0  0  0  0  0  0  0  0
   39.7290   31.6670   41.3940 C   0  0  0  0  0  0  0  0  0  0  0  0
   39.2750   31.7620   45.0710 C   0  0  0  0  0  0  0  0  0  0  0  0
   38.1700   32.3920   45.1480 O   0  0  0  0  0  0  0  0  0  0  0  0
   39.9330   31.5570   46.3080 N   0  0  0  0  0  0  0  0  0  0  0  0
   38.0870   30.0740   47.6460 F   0  0  0  0  0  0  0  0  0  0  0  0
   38.3140   31.3340   48.1060 C   0  0  0  0  0  0  0  0  0  0  0  0
   37.6260   31.7920   49.1870 C   0  0  0  0  0  0  0  0  0  0  0  0
   37.9020   33.0680   49.6000 C   0  0  0  0  0  0  0  0  0  0  0  0
   38.8160   33.8610   48.9740 C   0  0  0  0  0  0  0  0  0  0  0  0
   39.5020   33.3710   47.8740 C   0  0  0  0  0  0  0  0  0  0  0  0
   39.2390   32.0830   47.4400 C   0  0  0  0  0  0  0  0  0  0  0  0
   35.9840   29.3190   51.5390 C   0  0  0  0  0  0  0  0  0  0  0  0
   36.9500   30.1720   50.9500 C   0  0  0  0  0  0  0  0  0  0  0  0
   36.6550   30.9010   49.8220 C   0  0  0  0  0  0  0  0  0  0  0  0
   35.3860   30.7550   49.3040 N   0  0  0  0  0  0  0  0  0  0  0  0
   34.4750   29.9470   49.8630 C   0  0  0  0  0  0  0  0  0  0  0  0
   34.7690   29.2460   50.9550 N   0  0  0  0  0  0  0  0  0  0  0  0
   39.2860   32.3720   40.3290 O   0  0  0  0  0  0  0  0  0  0  0  0
   36.2850   32.9260   41.4860 Cl  0  0  0  0  0  0  0  0  0  0  0  0
   37.0260   33.5970   40.0620 C   0  0  0  0  0  0  0  0  0  0  0  0
   38.2930   33.1130   39.9150 C   0  0  0  0  0  0  0  0  0  0  0  0
   38.8700   33.6570   38.7290 C   0  0  0  0  0  0  0  0  0  0  0  0
   38.2360   34.5450   37.8580 C   0  0  0  0  0  0  0  0  0  0  0  0
   36.9370   34.9480   38.1480 C   0  0  0  0  0  0  0  0  0  0  0  0
   36.3320   34.4640   39.2640 C   0  0  0  0  0  0  0  0  0  0  0  0
   34.7210   34.8750   39.7520 Cl  0  0  0  0  0  0  0  0  0  0  0  0
   38.6169   32.8916   42.8222 H   0  0  0  0  0  0  0  0  0  0  0  0
   40.9330   29.7255   44.5729 H   0  0  0  0  0  0  0  0  0  0  0  0
   42.3439   28.2159   42.6080 H   0  0  0  0  0  0  0  0  0  0  0  0
   42.5626   28.3068   40.0508 H   0  0  0  0  0  0  0  0  0  0  0  0
   40.8369   31.0692   46.3850 H   0  0  0  0  0  0  0  0  0  0  0  0
   37.3643   33.4688   50.4720 H   0  0  0  0  0  0  0  0  0  0  0  0
   39.0078   34.8810   49.3384 H   0  0  0  0  0  0  0  0  0  0  0  0
   40.2435   33.9954   47.3542 H   0  0  0  0  0  0  0  0  0  0  0  0
   36.2163   28.7356   52.4422 H   0  0  0  0  0  0  0  0  0  0  0  0
   37.9499   30.2522   51.4014 H   0  0  0  0  0  0  0  0  0  0  0  0
   33.4741   29.8624   49.4147 H   0  0  0  0  0  0  0  0  0  0  0  0
   39.8974   33.3522   38.4808 H   0  0  0  0  0  0  0  0  0  0  0  0
   38.7529   34.9179   36.9615 H   0  0  0  0  0  0  0  0  0  0  0  0
   36.4077   35.6476   37.4843 H   0  0  0  0  0  0  0  0  0  0  0  0
  1  2  2  0
  2 10  1  0
  3  2  1  0
  4  3  2  0
  5  4  1  0
  6  5  1  0
  7  6  2  0
  7  8  1  0
  8  9  2  0
  8  4  1  0
  9  1  1  0
 10 11  2  0
 10 12  1  0
 12 19  1  0
 13 14  1  0
 14 15  2  0
 15 16  1  0
 15 22  1  0
 17 16  2  0
 18 17  1  0
 19 18  2  0
 19 14  1  0
 21 20  2  0
 22 21  1  0
 23 22  2  0
 23 24  1  0
 24 25  2  0
 25 20  1  0
 26  9  1  0
 28 27  1  0
 29 28  2  0
 29 26  1  0
 30 29  1  0
 31 32  1  0
 31 30  2  0
 32 33  2  0
 33 34  1  0
 33 28  1  0
  1 35  1  0
  3 36  1  0
  5 37  1  0
  6 38  1  0
 12 39  1  0
 16 40  1  0
 17 41  1  0
 18 42  1  0
 20 43  1  0
 21 44  1  0
 24 45  1  0
 30 46  1  0
 31 47  1  0
 32 48  1  0
M  END
>  <minimizedAffinity>  (1) 
-7.65729952

>  <minimizedRMSD>  (1) 
1.35158694

$$$$
