
     RDKit          3D

 43 47  0  0  0  0  0  0  0  0999 V2000
   38.6930   31.4670   47.2640 C   0  0  0  0  0  0  0  0  0  0  0  0
   39.3090   32.6910   47.2520 C   0  0  0  0  0  0  0  0  0  0  0  0
   40.1050   33.1330   46.2160 C   0  0  0  0  0  0  0  0  0  0  0  0
   40.3100   32.3290   45.1250 C   0  0  0  0  0  0  0  0  0  0  0  0
   39.6800   31.1040   45.1630 C   0  0  0  0  0  0  0  0  0  0  0  0
   38.9200   30.7050   46.1720 N   0  0  0  0  0  0  0  0  0  0  0  0
   39.0650   29.0950   43.7860 C   0  0  0  0  0  0  0  0  0  0  0  0
   39.8550   30.2010   44.0390 C   0  0  0  0  0  0  0  0  0  0  0  0
   40.8550   30.3740   43.0970 C   0  0  0  0  0  0  0  0  0  0  0  0
   41.0770   29.5560   42.0080 C   0  0  0  0  0  0  0  0  0  0  0  0
   41.9790   29.5730   41.0150 N   0  0  0  0  0  0  0  0  0  0  0  0
   41.7260   28.5120   40.2070 C   0  0  0  0  0  0  0  0  0  0  0  0
   40.6440   27.8010   40.6900 C   0  0  0  0  0  0  0  0  0  0  0  0
   40.2500   28.4780   41.8280 C   0  0  0  0  0  0  0  0  0  0  0  0
   39.2420   28.2460   42.7150 C   0  0  0  0  0  0  0  0  0  0  0  0
   37.2750   30.6690   50.6630 C   0  0  0  0  0  0  0  0  0  0  0  0
   38.1730   31.1690   49.7010 C   0  0  0  0  0  0  0  0  0  0  0  0
   37.8520   30.9980   48.3550 C   0  0  0  0  0  0  0  0  0  0  0  0
   36.7020   30.3640   48.0580 N   0  0  0  0  0  0  0  0  0  0  0  0
   35.8560   29.8910   49.0010 C   0  0  0  0  0  0  0  0  0  0  0  0
   36.1370   30.0410   50.2810 N   0  0  0  0  0  0  0  0  0  0  0  0
   35.3420   30.0770   46.0660 Cl  0  0  0  0  0  0  0  0  0  0  0  0
   34.2810   29.2240   47.1970 C   0  0  0  0  0  0  0  0  0  0  0  0
   34.6590   29.2310   48.5180 C   0  0  0  0  0  0  0  0  0  0  0  0
   33.8260   28.5630   49.3910 C   0  0  0  0  0  0  0  0  0  0  0  0
   32.6820   27.9280   48.9610 C   0  0  0  0  0  0  0  0  0  0  0  0
   32.3890   27.9770   47.6210 C   0  0  0  0  0  0  0  0  0  0  0  0
   33.1610   28.6200   46.6680 C   0  0  0  0  0  0  0  0  0  0  0  0
   32.7670   28.6670   44.9680 Cl  0  0  0  0  0  0  0  0  0  0  0  0
   39.1607   33.3568   48.1150 H   0  0  0  0  0  0  0  0  0  0  0  0
   40.5736   34.1270   46.2651 H   0  0  0  0  0  0  0  0  0  0  0  0
   40.9357   32.6408   44.2757 H   0  0  0  0  0  0  0  0  0  0  0  0
   38.2428   28.8789   44.4840 H   0  0  0  0  0  0  0  0  0  0  0  0
   41.5279   31.2343   43.2275 H   0  0  0  0  0  0  0  0  0  0  0  0
   42.7294   30.2671   40.8884 H   0  0  0  0  0  0  0  0  0  0  0  0
   42.2972   28.2563   39.3024 H   0  0  0  0  0  0  0  0  0  0  0  0
   40.1942   26.8932   40.2615 H   0  0  0  0  0  0  0  0  0  0  0  0
   38.5722   27.3845   42.5767 H   0  0  0  0  0  0  0  0  0  0  0  0
   37.4991   30.7892   51.7332 H   0  0  0  0  0  0  0  0  0  0  0  0
   39.0999   31.6792   50.0021 H   0  0  0  0  0  0  0  0  0  0  0  0
   34.0824   28.5367   50.4604 H   0  0  0  0  0  0  0  0  0  0  0  0
   32.0253   27.3994   49.6676 H   0  0  0  0  0  0  0  0  0  0  0  0
   31.4751   27.4689   47.2795 H   0  0  0  0  0  0  0  0  0  0  0  0
  1 18  1  0
  2  1  2  0
  3  2  1  0
  4  5  1  0
  4  3  2  0
  5  6  2  0
  6  1  1  0
  7  8  2  0
  8  5  1  0
  9  8  1  0
 10  9  2  0
 11 10  1  0
 12 13  2  0
 12 11  1  0
 13 14  1  0
 14 10  1  0
 14 15  2  0
 15  7  1  0
 17 16  2  0
 18 17  1  0
 19 18  2  0
 19 20  1  0
 20 21  2  0
 21 16  1  0
 22 23  1  0
 23 24  2  0
 24 20  1  0
 24 25  1  0
 26 25  2  0
 27 26  1  0
 28 23  1  0
 28 27  2  0
 29 28  1  0
  2 30  1  0
  3 31  1  0
  4 32  1  0
  7 33  1  0
  9 34  1  0
 11 35  1  0
 12 36  1  0
 13 37  1  0
 15 38  1  0
 16 39  1  0
 17 40  1  0
 25 41  1  0
 26 42  1  0
 27 43  1  0
M  ISO  8  30  14  31  14  32  14  33  14  34  14  35   9  36  14  37  14
M  ISO  6  38  14  39  14  40  14  41  14  42  14  43  14
M  END
>  <minimizedAffinity>  (1) 
-7.93461037

>  <minimizedRMSD>  (1) 
0.902686656

$$$$
