
     RDKit          3D

 33 35  0  0  0  0  0  0  0  0999 V2000
   39.3060   33.2240   44.0200 C   0  0  0  0  0  0  0  0  0  0  0  0
   38.4580   31.2000   46.8760 C   0  0  0  0  0  0  0  0  0  0  0  0
   39.1380   30.2890   46.1110 C   0  0  0  0  0  0  0  0  0  0  0  0
   39.5530   30.9010   44.9420 C   0  0  0  0  0  0  0  0  0  0  0  0
   39.0960   32.1930   45.0490 N   0  0  0  0  0  0  0  0  0  0  0  0
   38.4420   32.3670   46.2050 N   0  0  0  0  0  0  0  0  0  0  0  0
   37.6920   31.0570   50.5560 C   0  0  0  0  0  0  0  0  0  0  0  0
   38.3010   31.4480   49.3750 C   0  0  0  0  0  0  0  0  0  0  0  0
   37.8890   30.8640   48.1720 C   0  0  0  0  0  0  0  0  0  0  0  0
   36.8980   29.9300   48.2390 N   0  0  0  0  0  0  0  0  0  0  0  0
   36.3290   29.5760   49.4170 C   0  0  0  0  0  0  0  0  0  0  0  0
   36.7230   30.1350   50.5630 N   0  0  0  0  0  0  0  0  0  0  0  0
   38.9350   32.6210   42.6710 C   0  0  0  0  0  0  0  0  0  0  0  0
   38.6420   34.0280   40.0990 Cl  0  0  0  0  0  0  0  0  0  0  0  0
   37.2700   33.5820   41.1120 C   0  0  0  0  0  0  0  0  0  0  0  0
   37.5290   32.9140   42.3160 C   0  0  0  0  0  0  0  0  0  0  0  0
   36.4180   32.5980   43.0520 C   0  0  0  0  0  0  0  0  0  0  0  0
   35.1300   32.8960   42.6710 C   0  0  0  0  0  0  0  0  0  0  0  0
   34.9490   33.5540   41.4740 C   0  0  0  0  0  0  0  0  0  0  0  0
   36.0140   33.9160   40.6590 C   0  0  0  0  0  0  0  0  0  0  0  0
   35.8120   34.7500   39.1390 Cl  0  0  0  0  0  0  0  0  0  0  0  0
   38.6678   34.0954   44.2282 H   0  0  0  0  0  0  0  0  0  0  0  0
   40.3553   33.5542   44.0168 H   0  0  0  0  0  0  0  0  0  0  0  0
   39.3240   29.2395   46.3829 H   0  0  0  0  0  0  0  0  0  0  0  0
   40.1212   30.4541   44.1129 H   0  0  0  0  0  0  0  0  0  0  0  0
   38.0109   31.5128   51.5050 H   0  0  0  0  0  0  0  0  0  0  0  0
   39.0973   32.2069   49.3827 H   0  0  0  0  0  0  0  0  0  0  0  0
   35.5320   28.8180   49.4287 H   0  0  0  0  0  0  0  0  0  0  0  0
   39.5944   33.0418   41.8976 H   0  0  0  0  0  0  0  0  0  0  0  0
   39.0551   31.5295   42.7354 H   0  0  0  0  0  0  0  0  0  0  0  0
   36.5647   32.0731   44.0075 H   0  0  0  0  0  0  0  0  0  0  0  0
   34.2726   32.6180   43.3015 H   0  0  0  0  0  0  0  0  0  0  0  0
   33.9263   33.8010   41.1529 H   0  0  0  0  0  0  0  0  0  0  0  0
  1  5  1  0
  2  9  1  0
  3  2  1  0
  4  5  1  0
  4  3  2  0
  5  6  1  0
  6  2  2  0
  7 12  2  0
  8  7  1  0
  9 10  1  0
  9  8  2  0
 10 11  2  0
 11 12  1  0
 13  1  1  0
 14 15  1  0
 15 16  2  0
 16 13  1  0
 16 17  1  0
 18 17  2  0
 19 18  1  0
 20 15  1  0
 20 19  2  0
 21 20  1  0
  1 22  1  0
  1 23  1  0
  3 24  1  0
  4 25  1  0
  7 26  1  0
  8 27  1  0
 11 28  1  0
 13 29  1  0
 13 30  1  0
 17 31  1  0
 18 32  1  0
 19 33  1  0
M  ISO  8  22   8  23   8  24  14  25  14  26  14  27  14  28  14  29   8
M  ISO  4  30   8  31  14  32  14  33  14
M  END
>  <minimizedAffinity>  (1) 
-4.59452343

>  <minimizedRMSD>  (1) 
4.59924364

$$$$
