
     RDKit          3D

 37 40  0  0  0  0  0  0  0  0999 V2000
   37.1370   29.5790   50.4290 C   0  0  0  0  0  0  0  0  0  0  0  0
   37.7710   30.2990   49.4010 C   0  0  0  0  0  0  0  0  0  0  0  0
   37.1700   30.2930   48.1270 C   0  0  0  0  0  0  0  0  0  0  0  0
   36.0380   29.6160   47.9440 N   0  0  0  0  0  0  0  0  0  0  0  0
   35.4570   28.9330   48.9600 C   0  0  0  0  0  0  0  0  0  0  0  0
   35.9980   28.9190   50.1760 N   0  0  0  0  0  0  0  0  0  0  0  0
   33.0220   29.7280   50.6250 Cl  0  0  0  0  0  0  0  0  0  0  0  0
   33.0610   28.4930   49.3920 C   0  0  0  0  0  0  0  0  0  0  0  0
   34.2160   28.2110   48.6960 C   0  0  0  0  0  0  0  0  0  0  0  0
   34.1870   27.2240   47.7330 C   0  0  0  0  0  0  0  0  0  0  0  0
   33.0570   26.4870   47.4140 C   0  0  0  0  0  0  0  0  0  0  0  0
   31.9290   26.8210   48.1520 C   0  0  0  0  0  0  0  0  0  0  0  0
   31.8940   27.8030   49.1330 C   0  0  0  0  0  0  0  0  0  0  0  0
   30.3800   28.0900   49.9640 Cl  0  0  0  0  0  0  0  0  0  0  0  0
   37.7790   31.0240   47.0110 C   0  0  0  0  0  0  0  0  0  0  0  0
   38.6620   32.0210   46.9660 C   0  0  0  0  0  0  0  0  0  0  0  0
   39.0540   32.5100   45.7820 C   0  0  0  0  0  0  0  0  0  0  0  0
   38.5140   31.9450   44.6440 C   0  0  0  0  0  0  0  0  0  0  0  0
   37.4070   30.6690   45.3310 S   0  0  0  0  0  0  0  0  0  0  0  0
   40.8020   30.4160   43.3210 Cl  0  0  0  0  0  0  0  0  0  0  0  0
   39.6890   31.5400   42.5730 C   0  0  0  0  0  0  0  0  0  0  0  0
   38.6830   32.1900   43.2290 C   0  0  0  0  0  0  0  0  0  0  0  0
   37.8130   33.0580   42.6830 C   0  0  0  0  0  0  0  0  0  0  0  0
   37.9180   33.3440   41.3210 C   0  0  0  0  0  0  0  0  0  0  0  0
   38.9060   32.7260   40.5950 C   0  0  0  0  0  0  0  0  0  0  0  0
   39.0860   33.0460   38.8780 Cl  0  0  0  0  0  0  0  0  0  0  0  0
   39.7960   31.8250   41.2060 C   0  0  0  0  0  0  0  0  0  0  0  0
   37.5745   29.5574   51.4380 H   0  0  0  0  0  0  0  0  0  0  0  0
   38.7056   30.8489   49.5856 H   0  0  0  0  0  0  0  0  0  0  0  0
   35.1163   27.0087   47.1852 H   0  0  0  0  0  0  0  0  0  0  0  0
   33.0541   25.7038   46.6416 H   0  0  0  0  0  0  0  0  0  0  0  0
   30.9997   26.2699   47.9453 H   0  0  0  0  0  0  0  0  0  0  0  0
   39.0677   32.4412   47.8981 H   0  0  0  0  0  0  0  0  0  0  0  0
   39.7809   33.3332   45.7187 H   0  0  0  0  0  0  0  0  0  0  0  0
   37.0342   33.5331   43.2976 H   0  0  0  0  0  0  0  0  0  0  0  0
   37.2244   34.0491   40.8397 H   0  0  0  0  0  0  0  0  0  0  0  0
   40.5811   31.3410   40.6066 H   0  0  0  0  0  0  0  0  0  0  0  0
  2  1  2  0
  3  2  1  0
  4  3  2  0
  4  5  1  0
  5  6  2  0
  6  1  1  0
  8  7  1  0
  9  5  1  0
  9  8  2  0
 10  9  1  0
 11 10  2  0
 11 12  1  0
 12 13  2  0
 13  8  1  0
 13 14  1  0
 15  3  1  0
 16 15  2  0
 17 16  1  0
 18 19  1  0
 18 17  2  0
 19 15  1  0
 21 22  2  0
 21 20  1  0
 22 18  1  0
 23 22  1  0
 24 23  2  0
 25 27  2  0
 25 24  1  0
 26 25  1  0
 27 21  1  0
  1 28  1  0
  2 29  1  0
 10 30  1  0
 11 31  1  0
 12 32  1  0
 16 33  1  0
 17 34  1  0
 23 35  1  0
 24 36  1  0
 27 37  1  0
M  ISO  8  28  14  29  14  30  14  31  14  32  14  33  14  34  14  35  14
M  ISO  2  36  14  37  14
M  END
>  <minimizedAffinity>  (1) 
-6.05410385

>  <minimizedRMSD>  (1) 
1.66253984

$$$$
