
     RDKit          3D

 37 39  0  0  1  0  0  0  0  0999 V2000
   37.1420   30.9620   49.2260 C   0  0  0  0  0  0  0  0  0  0  0  0
   37.2250   32.2250   49.7960 C   0  0  0  0  0  0  0  0  0  0  0  0
   37.9050   33.2240   49.0720 C   0  0  0  0  0  0  0  0  0  0  0  0
   38.4360   32.8770   47.8580 N   0  0  0  0  0  0  0  0  0  0  0  0
   38.3320   31.6420   47.3470 C   0  0  0  0  0  0  0  0  0  0  0  0
   37.6930   30.7180   48.0360 N   0  0  0  0  0  0  0  0  0  0  0  0
   38.9210   31.4110   46.0850 N   0  0  0  0  0  0  0  0  0  0  0  0
   40.3110   30.9590   46.0310 C   0  0  0  0  0  0  0  0  0  0  0  0
   41.0850   31.6900   44.9500 C   0  0  0  0  0  0  0  0  0  0  0  0
   40.3710   31.7420   43.7040 N   0  0  0  0  0  0  0  0  0  0  0  0
   39.1010   31.1000   43.7260 C   0  0  0  0  0  0  0  0  0  0  0  0
   38.2230   31.6050   44.8470 C   0  0  1  0  0  0  0  0  0  0  0  0
   36.4060   32.8080   42.6710 Cl  0  0  0  0  0  0  0  0  0  0  0  0
   35.9220   31.5900   43.8180 C   0  0  0  0  0  0  0  0  0  0  0  0
   36.8430   31.1630   44.7500 C   0  0  0  0  0  0  0  0  0  0  0  0
   36.3150   30.2020   45.6260 C   0  0  0  0  0  0  0  0  0  0  0  0
   35.0310   29.7290   45.5760 C   0  0  0  0  0  0  0  0  0  0  0  0
   34.1820   30.2030   44.6230 C   0  0  0  0  0  0  0  0  0  0  0  0
   34.6180   31.1560   43.7120 C   0  0  0  0  0  0  0  0  0  0  0  0
   33.5250   31.7660   42.4870 Cl  0  0  0  0  0  0  0  0  0  0  0  0
   36.4220   29.8720   49.9720 C   0  0  0  0  0  0  0  0  0  0  0  0
   35.0990   30.2610   50.1870 F   0  0  0  0  0  0  0  0  0  0  0  0
   36.5590   28.7150   49.2970 F   0  0  0  0  0  0  0  0  0  0  0  0
   37.0120   29.8150   51.2410 F   0  0  0  0  0  0  0  0  0  0  0  0
   36.7761   32.4380   50.7774 H   0  0  0  0  0  0  0  0  0  0  0  0
   38.0059   34.2456   49.4672 H   0  0  0  0  0  0  0  0  0  0  0  0
   40.7878   31.1486   47.0040 H   0  0  0  0  0  0  0  0  0  0  0  0
   40.3185   29.8840   45.7978 H   0  0  0  0  0  0  0  0  0  0  0  0
   41.2792   32.7183   45.2889 H   0  0  0  0  0  0  0  0  0  0  0  0
   42.0210   31.1386   44.7770 H   0  0  0  0  0  0  0  0  0  0  0  0
   40.9490   31.2878   42.9825 H   0  0  0  0  0  0  0  0  0  0  0  0
   38.5937   31.2863   42.7679 H   0  0  0  0  0  0  0  0  0  0  0  0
   39.2698   30.0253   43.8886 H   0  0  0  0  0  0  0  0  0  0  0  0
   38.0582   32.6899   44.7709 H   0  0  0  0  0  0  0  0  0  0  0  0
   36.9784   29.8012   46.4065 H   0  0  0  0  0  0  0  0  0  0  0  0
   34.6888   28.9735   46.2986 H   0  0  0  0  0  0  0  0  0  0  0  0
   33.1482   29.8302   44.5746 H   0  0  0  0  0  0  0  0  0  0  0  0
  1  2  2  0
  1 21  1  0
  3  2  1  0
  4  3  2  0
  5  4  1  0
  5  6  2  0
  6  1  1  0
  7  5  1  0
  8  7  1  0
  9  8  1  0
 10 11  1  0
 10  9  1  0
 11 12  1  0
 12  7  1  0
 13 14  1  0
 14 15  2  0
 15 12  1  0
 15 16  1  0
 17 16  2  0
 18 17  1  0
 19 14  1  0
 19 18  2  0
 20 19  1  0
 21 22  1  0
 21 24  1  0
 23 21  1  0
  2 25  1  0
  3 26  1  0
  8 27  1  0
  8 28  1  0
  9 29  1  0
  9 30  1  0
 10 31  1  0
 11 32  1  0
 11 33  1  0
 12 34  1  6
 16 35  1  0
 17 36  1  0
 18 37  1  0
M  ISO  8  25  14  26  14  27  13  28  13  29  13  30  13  31   5  32  13
M  ISO  5  33  13  34  13  35  14  36  14  37  14
M  END
>  <minimizedAffinity>  (1) 
-6.08967066

>  <minimizedRMSD>  (1) 
1.24755418

$$$$
