
     RDKit          3D

 47 51  0  0  1  0  0  0  0  0999 V2000
   39.8410   29.9650   41.7500 N   0  0  0  0  0  0  0  0  0  0  0  0
   39.9440   31.3770   41.5380 C   0  0  1  0  0  0  0  0  0  0  0  0
   38.7070   31.8900   40.9410 C   0  0  0  0  0  0  0  0  0  0  0  0
   38.5580   31.3350   39.6750 O   0  0  0  0  0  0  0  0  0  0  0  0
   38.5720   29.9710   39.6530 C   0  0  0  0  0  0  0  0  0  0  0  0
   39.7020   29.3480   40.4300 C   0  0  1  0  0  0  0  0  0  0  0  0
   40.9150   26.7280   39.2320 Cl  0  0  0  0  0  0  0  0  0  0  0  0
   41.6580   28.3140   39.2340 C   0  0  0  0  0  0  0  0  0  0  0  0
   41.0180   29.4180   39.7650 C   0  0  0  0  0  0  0  0  0  0  0  0
   41.7340   30.5810   39.6430 C   0  0  0  0  0  0  0  0  0  0  0  0
   42.9860   30.6890   39.0510 C   0  0  0  0  0  0  0  0  0  0  0  0
   43.5770   29.5460   38.5380 C   0  0  0  0  0  0  0  0  0  0  0  0
   42.9000   28.3480   38.6330 C   0  0  0  0  0  0  0  0  0  0  0  0
   43.6980   26.9390   37.9670 Cl  0  0  0  0  0  0  0  0  0  0  0  0
   40.1750   31.9630   42.8100 O   0  0  0  0  0  0  0  0  0  0  0  0
   36.1610   30.2770   46.8010 C   0  0  0  0  0  0  0  0  0  0  0  0
   37.2300   30.4370   47.6500 C   0  0  0  0  0  0  0  0  0  0  0  0
   38.4870   30.8450   47.1710 C   0  0  0  0  0  0  0  0  0  0  0  0
   38.5810   31.0730   45.8130 C   0  0  0  0  0  0  0  0  0  0  0  0
   39.6820   31.4790   45.1070 N   0  0  0  0  0  0  0  0  0  0  0  0
   39.2910   31.5680   43.8220 C   0  0  0  0  0  0  0  0  0  0  0  0
   38.0230   31.2420   43.7130 N   0  0  0  0  0  0  0  0  0  0  0  0
   37.5300   30.9240   44.9260 C   0  0  0  0  0  0  0  0  0  0  0  0
   36.2910   30.5150   45.4370 C   0  0  0  0  0  0  0  0  0  0  0  0
   37.5710   30.2210   51.3940 C   0  0  0  0  0  0  0  0  0  0  0  0
   37.9080   30.5310   50.0830 C   0  0  0  0  0  0  0  0  0  0  0  0
   37.0490   30.1890   49.0690 C   0  0  0  0  0  0  0  0  0  0  0  0
   35.8800   29.5460   49.4250 N   0  0  0  0  0  0  0  0  0  0  0  0
   35.5540   29.2460   50.6990 C   0  0  0  0  0  0  0  0  0  0  0  0
   36.3930   29.5830   51.6670 N   0  0  0  0  0  0  0  0  0  0  0  0
   40.6888   29.6140   42.2180 H   0  0  0  0  0  0  0  0  0  0  0  0
   40.7629   31.6202   40.8450 H   0  0  0  0  0  0  0  0  0  0  0  0
   37.8491   31.6111   41.5705 H   0  0  0  0  0  0  0  0  0  0  0  0
   38.7545   32.9864   40.8657 H   0  0  0  0  0  0  0  0  0  0  0  0
   37.6231   29.6103   40.0767 H   0  0  0  0  0  0  0  0  0  0  0  0
   38.7124   29.6753   38.6028 H   0  0  0  0  0  0  0  0  0  0  0  0
   39.4182   28.2881   40.5075 H   0  0  0  0  0  0  0  0  0  0  0  0
   41.2819   31.4997   40.0451 H   0  0  0  0  0  0  0  0  0  0  0  0
   43.4971   31.6612   38.9909 H   0  0  0  0  0  0  0  0  0  0  0  0
   44.5683   29.5929   38.0635 H   0  0  0  0  0  0  0  0  0  0  0  0
   35.1897   29.9564   47.2058 H   0  0  0  0  0  0  0  0  0  0  0  0
   39.3488   30.9755   47.8420 H   0  0  0  0  0  0  0  0  0  0  0  0
   40.6202   31.6765   45.4834 H   0  0  0  0  0  0  0  0  0  0  0  0
   35.4295   30.3835   44.7658 H   0  0  0  0  0  0  0  0  0  0  0  0
   38.2530   30.4892   52.2143 H   0  0  0  0  0  0  0  0  0  0  0  0
   38.8542   31.0456   49.8596 H   0  0  0  0  0  0  0  0  0  0  0  0
   34.6096   28.7314   50.9297 H   0  0  0  0  0  0  0  0  0  0  0  0
  2  1  1  0
  2 15  1  0
  3  2  1  0
  4  3  1  0
  5  4  1  0
  5  6  1  0
  6  1  1  0
  7  8  1  0
  8  9  2  0
  9  6  1  0
 10  9  1  0
 11 10  2  0
 12 13  2  0
 12 11  1  0
 13  8  1  0
 14 13  1  0
 15 21  1  0
 16 17  2  0
 17 27  1  0
 18 17  1  0
 19 18  2  0
 20 19  1  0
 21 20  1  0
 22 21  2  0
 22 23  1  0
 23 24  2  0
 23 19  1  0
 24 16  1  0
 25 30  2  0
 26 25  1  0
 27 28  1  0
 27 26  2  0
 28 29  2  0
 29 30  1  0
  1 31  1  0
  2 32  1  6
  3 33  1  0
  3 34  1  0
  5 35  1  0
  5 36  1  0
  6 37  1  1
 10 38  1  0
 11 39  1  0
 12 40  1  0
 16 41  1  0
 18 42  1  0
 20 43  1  0
 24 44  1  0
 25 45  1  0
 26 46  1  0
 29 47  1  0
M  ISO  8  31   5  32  13  33  13  34  13  35  13  36  13  37  13  38  14
M  ISO  8  39  14  40  14  41  14  42  14  43   9  44  14  45  14  46  14
M  ISO  1  47  14
M  END
>  <minimizedAffinity>  (1) 
-6.12325096

>  <minimizedRMSD>  (1) 
2.7378664

$$$$
