
     RDKit          3D

 34 36  0  0  0  0  0  0  0  0999 V2000
   35.7740   29.5050   48.9680 C   0  0  0  0  0  0  0  0  0  0  0  0
   36.1100   28.9020   50.1750 C   0  0  0  0  0  0  0  0  0  0  0  0
   37.1720   29.1990   50.9650 C   0  0  0  0  0  0  0  0  0  0  0  0
   38.0200   30.1750   50.5810 C   0  0  0  0  0  0  0  0  0  0  0  0
   37.7270   30.7780   49.4190 C   0  0  0  0  0  0  0  0  0  0  0  0
   36.6760   30.4200   48.7260 N   0  0  0  0  0  0  0  0  0  0  0  0
   38.7800   30.5620   46.4860 Cl  0  0  0  0  0  0  0  0  0  0  0  0
   38.9920   31.9180   47.5200 C   0  0  0  0  0  0  0  0  0  0  0  0
   38.4790   31.8930   48.7840 C   0  0  0  0  0  0  0  0  0  0  0  0
   38.7020   33.0700   49.4660 C   0  0  0  0  0  0  0  0  0  0  0  0
   39.3640   34.1610   48.9570 C   0  0  0  0  0  0  0  0  0  0  0  0
   39.8600   34.1250   47.6780 C   0  0  0  0  0  0  0  0  0  0  0  0
   39.6510   32.9630   46.9720 C   0  0  0  0  0  0  0  0  0  0  0  0
   40.2930   32.9440   45.3410 Cl  0  0  0  0  0  0  0  0  0  0  0  0
   33.6810   28.4230   49.1370 C   0  0  0  0  0  0  0  0  0  0  0  0
   34.5750   29.1080   48.2530 C   0  0  0  0  0  0  0  0  0  0  0  0
   34.1590   29.2710   46.9580 C   0  0  0  0  0  0  0  0  0  0  0  0
   32.9270   28.7670   46.6250 N   0  0  0  0  0  0  0  0  0  0  0  0
   32.1080   28.1350   47.4530 C   0  0  0  0  0  0  0  0  0  0  0  0
   32.5040   27.9700   48.7160 N   0  0  0  0  0  0  0  0  0  0  0  0
   30.8840   27.6930   46.9220 N   0  0  0  0  0  0  0  0  0  0  0  0
   35.0270   29.9660   46.0080 C   0  0  0  0  0  0  0  0  0  0  0  0
   35.9890   29.1440   45.6310 F   0  0  0  0  0  0  0  0  0  0  0  0
   34.3640   30.4620   44.9010 F   0  0  0  0  0  0  0  0  0  0  0  0
   35.6460   31.0990   46.6100 F   0  0  0  0  0  0  0  0  0  0  0  0
   35.4446   28.0996   50.5263 H   0  0  0  0  0  0  0  0  0  0  0  0
   37.3391   28.6521   51.9047 H   0  0  0  0  0  0  0  0  0  0  0  0
   38.8963   30.4586   51.1825 H   0  0  0  0  0  0  0  0  0  0  0  0
   38.3212   33.1411   50.4955 H   0  0  0  0  0  0  0  0  0  0  0  0
   39.4963   35.0621   49.5739 H   0  0  0  0  0  0  0  0  0  0  0  0
   40.3963   34.9800   47.2405 H   0  0  0  0  0  0  0  0  0  0  0  0
   33.9739   28.2683   50.1859 H   0  0  0  0  0  0  0  0  0  0  0  0
   30.2112   27.1963   47.5232 H   0  0  0  0  0  0  0  0  0  0  0  0
   30.6598   27.8658   45.9317 H   0  0  0  0  0  0  0  0  0  0  0  0
  1  2  2  0
  2  3  1  0
  4  3  2  0
  5  4  1  0
  6  1  1  0
  6  5  2  0
  7  8  1  0
  8  9  2  0
  9  5  1  0
  9 10  1  0
 11 10  2  0
 12 11  1  0
 13  8  1  0
 13 12  2  0
 14 13  1  0
 16  1  1  0
 16 15  2  0
 17 16  1  0
 18 17  2  0
 18 19  1  0
 19 20  2  0
 20 15  1  0
 21 19  1  0
 22 25  1  0
 22 17  1  0
 23 22  1  0
 24 22  1  0
  2 26  1  0
  3 27  1  0
  4 28  1  0
 10 29  1  0
 11 30  1  0
 12 31  1  0
 15 32  1  0
 21 33  1  0
 21 34  1  0
M  ISO  7  26  14  27  14  28  14  29  14  30  14  31  14  32  14
M  END
>  <minimizedAffinity>  (1) 
-6.69230175

>  <minimizedRMSD>  (1) 
3.29944634

$$$$
