
     RDKit          3D

 44 48  0  0  0  0  0  0  0  0999 V2000
   34.3560   28.0790   48.1390 C   0  0  0  0  0  0  0  0  0  0  0  0
   32.8790   28.1640   47.8110 C   0  0  0  0  0  0  0  0  0  0  0  0
   31.8540   27.3790   48.2820 C   0  0  0  0  0  0  0  0  0  0  0  0
   30.6640   27.8120   47.7100 C   0  0  0  0  0  0  0  0  0  0  0  0
   31.0120   28.8470   46.9090 N   0  0  0  0  0  0  0  0  0  0  0  0
   32.3080   29.0410   46.9770 N   0  0  0  0  0  0  0  0  0  0  0  0
   28.6500   29.2970   46.2030 N   0  0  0  0  0  0  0  0  0  0  0  0
   29.9800   29.5010   46.1800 C   0  0  0  0  0  0  0  0  0  0  0  0
   30.2030   30.5050   45.2810 N   0  0  0  0  0  0  0  0  0  0  0  0
   29.0430   30.9140   44.7600 C   0  0  0  0  0  0  0  0  0  0  0  0
   28.7710   31.8920   43.8260 C   0  0  0  0  0  0  0  0  0  0  0  0
   27.4910   32.1020   43.4710 N   0  0  0  0  0  0  0  0  0  0  0  0
   26.5050   31.3630   44.0290 C   0  0  0  0  0  0  0  0  0  0  0  0
   26.7810   30.4020   44.9510 N   0  0  0  0  0  0  0  0  0  0  0  0
   28.0490   30.1570   45.3360 C   0  0  0  0  0  0  0  0  0  0  0  0
   34.4510   28.3250   49.6150 C   0  0  0  0  0  0  0  0  0  0  0  0
   37.1980   29.9930   51.4610 C   0  0  0  0  0  0  0  0  0  0  0  0
   37.8830   30.6230   50.4100 C   0  0  0  0  0  0  0  0  0  0  0  0
   37.4080   30.4740   49.0720 C   0  0  0  0  0  0  0  0  0  0  0  0
   36.3040   29.7250   48.8710 N   0  0  0  0  0  0  0  0  0  0  0  0
   35.6660   29.1290   49.9250 C   0  0  0  0  0  0  0  0  0  0  0  0
   36.1070   29.2630   51.1780 N   0  0  0  0  0  0  0  0  0  0  0  0
   38.5670   33.2640   49.7270 Cl  0  0  0  0  0  0  0  0  0  0  0  0
   38.7930   32.3830   48.2550 C   0  0  0  0  0  0  0  0  0  0  0  0
   38.2250   31.1500   48.0840 C   0  0  0  0  0  0  0  0  0  0  0  0
   38.4990   30.6130   46.8480 C   0  0  0  0  0  0  0  0  0  0  0  0
   39.2420   31.2160   45.8910 C   0  0  0  0  0  0  0  0  0  0  0  0
   39.7960   32.4560   46.0990 C   0  0  0  0  0  0  0  0  0  0  0  0
   39.5580   33.0520   47.3250 C   0  0  0  0  0  0  0  0  0  0  0  0
   40.2660   34.6360   47.5940 Cl  0  0  0  0  0  0  0  0  0  0  0  0
   34.9181   28.8447   47.5843 H   0  0  0  0  0  0  0  0  0  0  0  0
   34.7818   27.1043   47.8585 H   0  0  0  0  0  0  0  0  0  0  0  0
   31.9583   26.5465   48.9934 H   0  0  0  0  0  0  0  0  0  0  0  0
   29.6562   27.4023   47.8728 H   0  0  0  0  0  0  0  0  0  0  0  0
   28.1636   28.6000   46.7849 H   0  0  0  0  0  0  0  0  0  0  0  0
   29.5827   32.4867   43.3816 H   0  0  0  0  0  0  0  0  0  0  0  0
   25.4612   31.5425   43.7317 H   0  0  0  0  0  0  0  0  0  0  0  0
   33.5577   28.8723   49.9504 H   0  0  0  0  0  0  0  0  0  0  0  0
   34.5171   27.3588   50.1365 H   0  0  0  0  0  0  0  0  0  0  0  0
   37.5489   30.0956   52.4985 H   0  0  0  0  0  0  0  0  0  0  0  0
   38.7790   31.2269   50.6159 H   0  0  0  0  0  0  0  0  0  0  0  0
   38.0836   29.6202   46.6204 H   0  0  0  0  0  0  0  0  0  0  0  0
   39.4051   30.7049   44.9307 H   0  0  0  0  0  0  0  0  0  0  0  0
   40.4012   32.9524   45.3261 H   0  0  0  0  0  0  0  0  0  0  0  0
  1 16  1  0
  2  1  1  0
  2  3  1  0
  4  3  2  0
  5  6  1  0
  5  4  1  0
  6  2  2  0
  8  7  1  0
  8  5  1  0
  9  8  2  0
 10  9  1  0
 10 15  2  0
 11 10  1  0
 12 11  2  0
 12 13  1  0
 13 14  2  0
 14 15  1  0
 15  7  1  0
 16 21  1  0
 18 17  2  0
 19 18  1  0
 20 19  2  0
 20 21  1  0
 21 22  2  0
 22 17  1  0
 24 23  1  0
 25 24  2  0
 25 19  1  0
 26 25  1  0
 27 28  1  0
 27 26  2  0
 28 29  2  0
 29 30  1  0
 29 24  1  0
  1 31  1  0
  1 32  1  0
  3 33  1  0
  4 34  1  0
  7 35  1  0
 11 36  1  0
 13 37  1  0
 16 38  1  0
 16 39  1  0
 17 40  1  0
 18 41  1  0
 26 42  1  0
 27 43  1  0
 28 44  1  0
M  ISO  8  31   8  32   8  33  14  34  14  35   9  36  14  37  14  38   8
M  ISO  6  39   8  40  14  41  14  42  14  43  14  44  14
M  END
>  <minimizedAffinity>  (1) 
-7.56846809

>  <minimizedRMSD>  (1) 
0.407399446

$$$$
