
     RDKit          3D

 44 49  0  0  1  0  0  0  0  0999 V2000
   32.2360   27.6550   47.9290 C   0  0  1  0  0  0  0  0  0  0  0  0
   33.1640   26.5500   47.3170 C   0  0  0  0  0  0  0  0  0  0  0  0
   32.9730   27.8740   46.6710 C   0  0  2  0  0  0  0  0  0  0  0  0
   28.6520   27.5810   48.3120 C   0  0  0  0  0  0  0  0  0  0  0  0
   28.8260   26.5340   47.4370 C   0  0  0  0  0  0  0  0  0  0  0  0
   30.2060   26.4110   47.1660 C   0  0  0  0  0  0  0  0  0  0  0  0
   30.8120   27.3800   47.8810 N   0  0  0  0  0  0  0  0  0  0  0  0
   29.8780   28.0390   48.5330 N   0  0  0  0  0  0  0  0  0  0  0  0
   27.0080   27.9260   50.1870 C   0  0  0  0  0  0  0  0  0  0  0  0
   27.3770   28.0110   48.8190 C   0  0  0  0  0  0  0  0  0  0  0  0
   26.4340   28.5410   47.9440 C   0  0  0  0  0  0  0  0  0  0  0  0
   25.2360   28.9400   48.4480 N   0  0  0  0  0  0  0  0  0  0  0  0
   24.9300   28.8420   49.7460 C   0  0  0  0  0  0  0  0  0  0  0  0
   25.8250   28.3260   50.6410 N   0  0  0  0  0  0  0  0  0  0  0  0
   34.1110   28.8580   46.6550 C   0  0  0  0  0  0  0  0  0  0  0  0
   34.7170   29.3180   45.4770 C   0  0  0  0  0  0  0  0  0  0  0  0
   35.7000   30.1820   45.8460 N   0  0  0  0  0  0  0  0  0  0  0  0
   35.7090   30.2610   47.2050 C   0  0  0  0  0  0  0  0  0  0  0  0
   34.7380   29.4520   47.7040 N   0  0  0  0  0  0  0  0  0  0  0  0
   36.4700   31.1420   49.3460 C   0  0  0  0  0  0  0  0  0  0  0  0
   36.6260   31.0910   47.9780 C   0  0  0  0  0  0  0  0  0  0  0  0
   37.6160   31.7940   47.3280 C   0  0  0  0  0  0  0  0  0  0  0  0
   38.4930   32.5850   48.0450 C   0  0  0  0  0  0  0  0  0  0  0  0
   38.3020   32.6090   49.4140 C   0  0  0  0  0  0  0  0  0  0  0  0
   37.3190   31.9150   50.1110 C   0  0  0  0  0  0  0  0  0  0  0  0
   39.2940   33.4640   49.9290 O   0  0  0  0  0  0  0  0  0  0  0  0
   39.7650   34.3100   48.8800 C   0  0  0  0  0  0  0  0  0  0  0  0
   39.5890   33.4210   47.7670 O   0  0  0  0  0  0  0  0  0  0  0  0
   32.1539   28.2084   48.8761 H   0  0  0  0  0  0  0  0  0  0  0  0
   34.1209   26.2983   47.7976 H   0  0  0  0  0  0  0  0  0  0  0  0
   33.0492   25.4985   47.0152 H   0  0  0  0  0  0  0  0  0  0  0  0
   32.6680   28.1795   45.6592 H   0  0  0  0  0  0  0  0  0  0  0  0
   28.0279   25.9019   47.0205 H   0  0  0  0  0  0  0  0  0  0  0  0
   30.6883   25.6748   46.5062 H   0  0  0  0  0  0  0  0  0  0  0  0
   27.7330   27.5109   50.9025 H   0  0  0  0  0  0  0  0  0  0  0  0
   26.6525   28.6350   46.8700 H   0  0  0  0  0  0  0  0  0  0  0  0
   23.9447   29.1812   50.0983 H   0  0  0  0  0  0  0  0  0  0  0  0
   34.4480   29.0337   44.4490 H   0  0  0  0  0  0  0  0  0  0  0  0
   36.3292   30.6892   45.2075 H   0  0  0  0  0  0  0  0  0  0  0  0
   35.6673   30.5655   49.8290 H   0  0  0  0  0  0  0  0  0  0  0  0
   37.7088   31.7255   46.2341 H   0  0  0  0  0  0  0  0  0  0  0  0
   37.2241   31.9784   51.2051 H   0  0  0  0  0  0  0  0  0  0  0  0
   39.1545   35.2196   48.7801 H   0  0  0  0  0  0  0  0  0  0  0  0
   40.7849   34.6999   49.0131 H   0  0  0  0  0  0  0  0  0  0  0  0
  2  1  1  0
  3  2  1  0
  3  1  1  0
  4  8  2  0
  4 10  1  0
  5  4  1  0
  6  5  2  0
  6  7  1  0
  7  1  1  0
  7  8  1  0
  9 14  2  0
 10  9  1  0
 11 12  1  0
 11 10  2  0
 12 13  2  0
 13 14  1  0
 15  3  1  0
 15 19  1  0
 16 17  1  0
 16 15  2  0
 17 18  1  0
 18 19  2  0
 18 21  1  0
 20 25  2  0
 21 20  1  0
 22 21  2  0
 22 23  1  0
 23 24  2  0
 24 26  1  0
 24 25  1  0
 27 26  1  0
 28 23  1  0
 28 27  1  0
  1 29  1  1
  2 30  1  0
  2 31  1  0
  3 32  1  6
  5 33  1  0
  6 34  1  0
  9 35  1  0
 11 36  1  0
 13 37  1  0
 16 38  1  0
 17 39  1  0
 20 40  1  0
 22 41  1  0
 25 42  1  0
 27 43  1  0
 27 44  1  0
M  ISO  8  29  13  30  13  31  13  32  13  33  14  34  14  35  14  36  14
M  ISO  8  37  14  38  14  39   9  40  14  41  14  42  14  43  13  44  13
M  END
>  <minimizedAffinity>  (1) 
-6.83701515

>  <minimizedRMSD>  (1) 
5.59239817

$$$$
