
     RDKit          3D

 38 42  0  0  0  0  0  0  0  0999 V2000
   35.4070   29.3950   50.5270 C   0  0  0  0  0  0  0  0  0  0  0  0
   36.2370   30.1340   49.6920 C   0  0  0  0  0  0  0  0  0  0  0  0
   36.0370   30.0210   48.3130 C   0  0  0  0  0  0  0  0  0  0  0  0
   35.0490   29.1980   47.8210 N   0  0  0  0  0  0  0  0  0  0  0  0
   34.2680   28.5000   48.6980 C   0  0  0  0  0  0  0  0  0  0  0  0
   34.4480   28.6000   50.0280 N   0  0  0  0  0  0  0  0  0  0  0  0
   36.5270   30.5360   45.9900 C   0  0  0  0  0  0  0  0  0  0  0  0
   36.8380   30.7460   47.3300 C   0  0  0  0  0  0  0  0  0  0  0  0
   37.8550   31.6050   47.6640 C   0  0  0  0  0  0  0  0  0  0  0  0
   38.5470   32.2420   46.6480 C   0  0  0  0  0  0  0  0  0  0  0  0
   39.5790   33.1250   46.7340 N   0  0  0  0  0  0  0  0  0  0  0  0
   39.9120   33.4650   45.4840 C   0  0  0  0  0  0  0  0  0  0  0  0
   39.1220   32.8240   44.6040 N   0  0  0  0  0  0  0  0  0  0  0  0
   38.2610   32.0540   45.3000 C   0  0  0  0  0  0  0  0  0  0  0  0
   37.2290   31.1810   44.9740 C   0  0  0  0  0  0  0  0  0  0  0  0
   33.2300   27.6610   48.1070 C   0  0  0  0  0  0  0  0  0  0  0  0
   33.5580   26.6300   47.4290 O   0  0  0  0  0  0  0  0  0  0  0  0
   31.0150   27.5670   49.3260 C   0  0  0  0  0  0  0  0  0  0  0  0
   31.7610   27.8630   48.1950 C   0  0  0  0  0  0  0  0  0  0  0  0
   31.1020   28.4170   47.1010 C   0  0  0  0  0  0  0  0  0  0  0  0
   29.7510   28.6690   47.1350 C   0  0  0  0  0  0  0  0  0  0  0  0
   29.0050   28.3730   48.2660 C   0  0  0  0  0  0  0  0  0  0  0  0
   29.6480   27.8240   49.3460 C   0  0  0  0  0  0  0  0  0  0  0  0
   27.6660   28.7510   47.9680 O   0  0  0  0  0  0  0  0  0  0  0  0
   27.7680   29.7920   46.9930 C   0  0  0  0  0  0  0  0  0  0  0  0
   28.8270   29.2190   46.1990 O   0  0  0  0  0  0  0  0  0  0  0  0
   35.5387   29.4631   51.6170 H   0  0  0  0  0  0  0  0  0  0  0  0
   37.0235   30.7848   50.1018 H   0  0  0  0  0  0  0  0  0  0  0  0
   35.7106   29.8470   45.7277 H   0  0  0  0  0  0  0  0  0  0  0  0
   38.1151   31.7838   48.7178 H   0  0  0  0  0  0  0  0  0  0  0  0
   40.0207   33.4672   47.5993 H   0  0  0  0  0  0  0  0  0  0  0  0
   40.7151   34.1668   45.2148 H   0  0  0  0  0  0  0  0  0  0  0  0
   36.9685   31.0008   43.9206 H   0  0  0  0  0  0  0  0  0  0  0  0
   31.5047   27.1286   50.2081 H   0  0  0  0  0  0  0  0  0  0  0  0
   31.6731   28.6577   46.1922 H   0  0  0  0  0  0  0  0  0  0  0  0
   29.0691   27.5812   50.2493 H   0  0  0  0  0  0  0  0  0  0  0  0
   26.8381   29.9180   46.4190 H   0  0  0  0  0  0  0  0  0  0  0  0
   27.9506   30.8038   47.3839 H   0  0  0  0  0  0  0  0  0  0  0  0
  2  1  2  0
  3  2  1  0
  4  3  2  0
  4  5  1  0
  5  6  2  0
  6  1  1  0
  7  8  2  0
  8  9  1  0
  8  3  1  0
 10 11  1  0
 10  9  2  0
 12 11  1  0
 13 14  1  0
 13 12  2  0
 14 10  1  0
 15 14  2  0
 15  7  1  0
 16 19  1  0
 16  5  1  0
 17 16  2  0
 18 23  2  0
 19 18  1  0
 20 21  1  0
 20 19  2  0
 21 22  2  0
 22 23  1  0
 24 22  1  0
 25 24  1  0
 26 25  1  0
 26 21  1  0
  1 27  1  0
  2 28  1  0
  7 29  1  0
  9 30  1  0
 11 31  1  0
 12 32  1  0
 15 33  1  0
 18 34  1  0
 20 35  1  0
 23 36  1  0
 25 37  1  0
 25 38  1  0
M  ISO  8  27  14  28  14  29  14  30  14  31   9  32  14  33  14  34  14
M  ISO  4  35  14  36  14  37  13  38  13
M  END
>  <minimizedAffinity>  (1) 
-6.87895298

>  <minimizedRMSD>  (1) 
2.94095612

$$$$
