
     RDKit          3D

 47 51  0  0  0  0  0  0  0  0999 V2000
   33.1060   28.2280   47.7310 C   0  0  0  0  0  0  0  0  0  0  0  0
   33.5050   27.0840   46.8650 C   0  0  0  0  0  0  0  0  0  0  0  0
   33.5270   25.7500   47.2640 C   0  0  0  0  0  0  0  0  0  0  0  0
   33.9010   24.7570   46.3990 C   0  0  0  0  0  0  0  0  0  0  0  0
   34.2680   25.0460   45.1030 C   0  0  0  0  0  0  0  0  0  0  0  0
   34.2470   26.3600   44.7030 C   0  0  0  0  0  0  0  0  0  0  0  0
   33.8700   27.3800   45.5670 C   0  0  0  0  0  0  0  0  0  0  0  0
   33.0110   29.4940   44.3510 C   0  0  0  0  0  0  0  0  0  0  0  0
   33.9690   28.6590   44.8730 C   0  0  0  0  0  0  0  0  0  0  0  0
   35.2850   29.1070   44.6730 C   0  0  0  0  0  0  0  0  0  0  0  0
   35.6310   30.2700   44.0190 C   0  0  0  0  0  0  0  0  0  0  0  0
   34.6280   31.0680   43.5160 C   0  0  0  0  0  0  0  0  0  0  0  0
   33.3400   30.6540   43.6980 C   0  0  0  0  0  0  0  0  0  0  0  0
   35.2220   32.1670   42.9090 O   0  0  0  0  0  0  0  0  0  0  0  0
   36.5290   32.2780   43.4440 C   0  0  0  0  0  0  0  0  0  0  0  0
   36.8270   30.9000   43.7100 O   0  0  0  0  0  0  0  0  0  0  0  0
   34.9780   28.4500   49.3940 C   0  0  0  0  0  0  0  0  0  0  0  0
   34.2440   28.8950   48.4020 C   0  0  0  0  0  0  0  0  0  0  0  0
   37.3860   30.1500   51.5410 C   0  0  0  0  0  0  0  0  0  0  0  0
   38.1060   30.9260   50.6120 C   0  0  0  0  0  0  0  0  0  0  0  0
   37.7310   30.8390   49.2490 C   0  0  0  0  0  0  0  0  0  0  0  0
   36.6980   30.0110   48.9160 N   0  0  0  0  0  0  0  0  0  0  0  0
   36.0510   29.2930   49.8740 C   0  0  0  0  0  0  0  0  0  0  0  0
   36.3860   29.3610   51.1590 N   0  0  0  0  0  0  0  0  0  0  0  0
   38.3970   31.6070   48.1970 C   0  0  0  0  0  0  0  0  0  0  0  0
   38.6030   31.1040   46.9310 C   0  0  0  0  0  0  0  0  0  0  0  0
   39.2500   32.0970   46.1900 C   0  0  0  0  0  0  0  0  0  0  0  0
   39.4070   33.1460   47.0320 N   0  0  0  0  0  0  0  0  0  0  0  0
   38.9020   32.8640   48.2310 N   0  0  0  0  0  0  0  0  0  0  0  0
   32.4183   27.8544   48.5040 H   0  0  0  0  0  0  0  0  0  0  0  0
   32.6368   28.9769   47.0761 H   0  0  0  0  0  0  0  0  0  0  0  0
   33.2386   25.4894   48.2930 H   0  0  0  0  0  0  0  0  0  0  0  0
   33.9086   23.7125   46.7440 H   0  0  0  0  0  0  0  0  0  0  0  0
   34.5691   24.2478   44.4086 H   0  0  0  0  0  0  0  0  0  0  0  0
   34.5362   26.6108   43.6718 H   0  0  0  0  0  0  0  0  0  0  0  0
   31.9501   29.2244   44.4600 H   0  0  0  0  0  0  0  0  0  0  0  0
   36.1005   28.4832   45.0677 H   0  0  0  0  0  0  0  0  0  0  0  0
   32.5274   31.2808   43.3020 H   0  0  0  0  0  0  0  0  0  0  0  0
   37.2298   32.7105   42.7148 H   0  0  0  0  0  0  0  0  0  0  0  0
   36.6087   32.9390   44.3196 H   0  0  0  0  0  0  0  0  0  0  0  0
   34.7836   27.4665   49.8467 H   0  0  0  0  0  0  0  0  0  0  0  0
   34.5083   29.8920   48.0198 H   0  0  0  0  0  0  0  0  0  0  0  0
   37.6568   30.1976   52.6061 H   0  0  0  0  0  0  0  0  0  0  0  0
   38.9316   31.5776   50.9341 H   0  0  0  0  0  0  0  0  0  0  0  0
   38.3123   30.1063   46.5704 H   0  0  0  0  0  0  0  0  0  0  0  0
   39.5668   32.0384   45.1382 H   0  0  0  0  0  0  0  0  0  0  0  0
   39.8551   34.0384   46.7796 H   0  0  0  0  0  0  0  0  0  0  0  0
  1 18  1  0
  2  3  2  0
  2  1  1  0
  4  3  1  0
  5  4  2  0
  6  5  1  0
  6  7  2  0
  7  2  1  0
  8  9  2  0
  9  7  1  0
 10  9  1  0
 11 10  2  0
 12 13  2  0
 12 11  1  0
 13  8  1  0
 14 15  1  0
 14 12  1  0
 15 16  1  0
 16 11  1  0
 17 23  1  0
 18 17  2  0
 20 19  2  0
 21 20  1  0
 22 21  2  0
 22 23  1  0
 23 24  2  0
 24 19  1  0
 25 29  2  0
 25 21  1  0
 26 25  1  0
 27 26  2  0
 27 28  1  0
 28 29  1  0
  1 30  1  0
  1 31  1  0
  3 32  1  0
  4 33  1  0
  5 34  1  0
  6 35  1  0
  8 36  1  0
 10 37  1  0
 13 38  1  0
 15 39  1  0
 15 40  1  0
 17 41  1  0
 18 42  1  0
 19 43  1  0
 20 44  1  0
 26 45  1  0
 27 46  1  0
 28 47  1  0
M  ISO  8  30   8  31   8  32  14  33  14  34  14  35  14  36  14  37  14
M  ISO  8  38  14  39  13  40  13  43  14  44  14  45  14  46  14  47   9
M  END
>  <minimizedAffinity>  (1) 
-6.61996078

>  <minimizedRMSD>  (1) 
0.439558893

$$$$
