
     RDKit          3D

 51 56  0  0  1  0  0  0  0  0999 V2000
   37.2400   29.7600   50.1190 C   0  0  0  0  0  0  0  0  0  0  0  0
   37.8420   29.2000   51.0740 O   0  0  0  0  0  0  0  0  0  0  0  0
   37.8140   30.8100   49.3190 C   0  0  0  0  0  0  0  0  0  0  0  0
   37.6430   32.1130   49.7550 C   0  0  0  0  0  0  0  0  0  0  0  0
   38.1810   33.1610   49.0130 C   0  0  0  0  0  0  0  0  0  0  0  0
   38.8570   32.8210   47.8750 N   0  0  0  0  0  0  0  0  0  0  0  0
   39.0140   31.5610   47.4640 C   0  0  0  0  0  0  0  0  0  0  0  0
   38.4880   30.5670   48.1960 N   0  0  0  0  0  0  0  0  0  0  0  0
   39.7510   31.2260   46.2280 C   0  0  0  0  0  0  0  0  0  0  0  0
   39.1690   32.0410   45.0940 C   0  0  2  0  0  0  0  0  0  0  0  0
   37.6880   32.1310   45.2870 C   0  0  0  0  0  0  0  0  0  0  0  0
   37.0800   32.1770   43.9740 N   0  0  0  0  0  0  0  0  0  0  0  0
   36.2970   32.5800   42.8310 C   0  0  0  0  0  0  0  0  0  0  0  0
   35.2600   33.3040   42.6820 O   0  0  0  0  0  0  0  0  0  0  0  0
   37.1880   31.8080   41.9000 C   0  0  0  0  0  0  0  0  0  0  0  0
   37.5110   31.0530   43.1620 C   0  0  1  0  0  0  0  0  0  0  0  0
   39.2770   31.0290   43.5890 S   0  0  0  0  0  0  0  0  0  0  0  0
   39.8540   33.3560   44.9460 C   0  0  0  0  0  0  0  0  0  0  0  0
   35.8870   29.3310   49.7960 C   0  0  0  0  0  0  0  0  0  0  0  0
   34.7990   29.8420   50.4110 C   0  0  0  0  0  0  0  0  0  0  0  0
   33.6840   29.2100   49.8600 C   0  0  0  0  0  0  0  0  0  0  0  0
   34.1890   28.3190   48.9050 C   0  0  0  0  0  0  0  0  0  0  0  0
   35.4820   28.4430   48.9220 O   0  0  0  0  0  0  0  0  0  0  0  0
   33.8140   26.5420   47.2080 C   0  0  0  0  0  0  0  0  0  0  0  0
   33.3100   27.4700   48.1120 C   0  0  0  0  0  0  0  0  0  0  0  0
   31.9510   27.6190   48.2920 C   0  0  0  0  0  0  0  0  0  0  0  0
   31.1110   26.8220   47.5490 C   0  0  0  0  0  0  0  0  0  0  0  0
   29.7640   26.7640   47.5300 N   0  0  0  0  0  0  0  0  0  0  0  0
   29.4120   25.8320   46.6460 N   0  0  0  0  0  0  0  0  0  0  0  0
   30.5400   25.3080   46.1110 C   0  0  0  0  0  0  0  0  0  0  0  0
   31.6440   25.9110   46.6600 C   0  0  0  0  0  0  0  0  0  0  0  0
   32.9990   25.7490   46.4680 C   0  0  0  0  0  0  0  0  0  0  0  0
   37.0861   32.3187   50.6810 H   0  0  0  0  0  0  0  0  0  0  0  0
   38.0677   34.2092   49.3267 H   0  0  0  0  0  0  0  0  0  0  0  0
   40.8165   31.4692   46.3525 H   0  0  0  0  0  0  0  0  0  0  0  0
   39.6583   30.1518   46.0100 H   0  0  0  0  0  0  0  0  0  0  0  0
   37.3268   31.2498   45.8375 H   0  0  0  0  0  0  0  0  0  0  0  0
   37.4267   33.0287   45.8666 H   0  0  0  0  0  0  0  0  0  0  0  0
   36.6755   31.2316   41.1157 H   0  0  0  0  0  0  0  0  0  0  0  0
   37.9391   32.2629   41.2375 H   0  0  0  0  0  0  0  0  0  0  0  0
   37.1342   30.0202   43.1980 H   0  0  0  0  0  0  0  0  0  0  0  0
   40.0701   33.7709   45.9415 H   0  0  0  0  0  0  0  0  0  0  0  0
   40.7953   33.2190   44.3936 H   0  0  0  0  0  0  0  0  0  0  0  0
   39.2022   34.0488   44.3936 H   0  0  0  0  0  0  0  0  0  0  0  0
   34.7929   30.6110   51.1975 H   0  0  0  0  0  0  0  0  0  0  0  0
   32.6285   29.3768   50.1212 H   0  0  0  0  0  0  0  0  0  0  0  0
   34.9035   26.4480   47.0894 H   0  0  0  0  0  0  0  0  0  0  0  0
   31.5509   28.3524   49.0075 H   0  0  0  0  0  0  0  0  0  0  0  0
   29.1229   27.3371   48.0969 H   0  0  0  0  0  0  0  0  0  0  0  0
   30.5676   24.5156   45.3485 H   0  0  0  0  0  0  0  0  0  0  0  0
   33.3987   25.0154   45.7524 H   0  0  0  0  0  0  0  0  0  0  0  0
  1  2  2  0
  3  4  2  0
  3  1  1  0
  5  4  1  0
  6  5  2  0
  7  6  1  0
  7  8  2  0
  8  3  1  0
  9  7  1  0
 10 18  1  6
 10 11  1  0
 10  9  1  0
 12 11  1  0
 13 12  1  0
 14 13  2  0
 15 13  1  0
 16 15  1  0
 16 17  1  0
 16 12  1  0
 17 10  1  0
 19  1  1  0
 19 20  2  0
 21 20  1  0
 22 23  1  0
 22 21  2  0
 23 19  1  0
 24 25  2  0
 25 26  1  0
 25 22  1  0
 27 26  2  0
 28 27  1  0
 29 28  1  0
 30 29  2  0
 30 31  1  0
 31 27  1  0
 32 31  2  0
 32 24  1  0
  4 33  1  0
  5 34  1  0
  9 35  1  0
  9 36  1  0
 11 37  1  0
 11 38  1  0
 15 39  1  0
 15 40  1  0
 16 41  1  1
 18 42  1  0
 18 43  1  0
 18 44  1  0
 20 45  1  0
 21 46  1  0
 24 47  1  0
 26 48  1  0
 28 49  1  0
 30 50  1  0
 32 51  1  0
M  ISO  8  33  14  34  14  35   8  36   8  37  13  38  13  39  13  40  13
M  ISO  8  41  13  42   8  43   8  44   8  45  14  46  14  47  14  48  14
M  ISO  3  49   9  50  14  51  14
M  END
>  <minimizedAffinity>  (1) 
-7.13482904

>  <minimizedRMSD>  (1) 
0.864207327

$$$$
