
     RDKit          3D

 36 39  0  0  1  0  0  0  0  0999 V2000
   38.4270   32.4430   48.0220 C   0  0  0  0  0  0  0  0  0  0  0  0
   38.1550   30.9610   47.8920 C   0  0  0  0  0  0  0  0  0  0  0  0
   37.3020   30.1770   51.4840 C   0  0  0  0  0  0  0  0  0  0  0  0
   37.9640   30.7290   50.3880 C   0  0  0  0  0  0  0  0  0  0  0  0
   37.5240   30.4450   49.1190 C   0  0  0  0  0  0  0  0  0  0  0  0
   36.4450   29.6230   49.0010 N   0  0  0  0  0  0  0  0  0  0  0  0
   35.8220   29.1000   50.0690 C   0  0  0  0  0  0  0  0  0  0  0  0
   36.2550   29.3820   51.3190 N   0  0  0  0  0  0  0  0  0  0  0  0
   39.3950   33.0110   46.5950 S   0  0  0  0  0  0  0  0  0  0  0  0
   38.8080   32.0860   45.1620 C   0  0  0  0  0  0  0  0  0  0  0  0
   39.8060   31.1110   44.5920 C   0  0  1  0  0  0  0  0  0  0  0  0
   39.2570   29.7520   44.5910 C   0  0  0  0  0  0  0  0  0  0  0  0
   39.4400   29.1520   43.2960 N   0  0  0  0  0  0  0  0  0  0  0  0
   39.7310   28.1500   42.3290 C   0  0  2  0  0  0  0  0  0  0  0  0
   39.7000   26.9030   42.1060 O   0  0  0  0  0  0  0  0  0  0  0  0
   40.2040   29.1960   41.4140 C   0  0  0  0  0  0  0  0  0  0  0  0
   39.2150   30.0360   42.1960 C   0  0  1  0  0  0  0  0  0  0  0  0
   39.9330   31.5820   42.8120 S   0  0  0  0  0  0  0  0  0  0  0  0
   41.1540   31.2870   45.2530 C   0  0  0  0  0  0  0  0  0  0  0  0
   37.4726   32.9888   48.0578 H   0  0  0  0  0  0  0  0  0  0  0  0
   38.9932   32.6312   48.9461 H   0  0  0  0  0  0  0  0  0  0  0  0
   37.4822   30.7895   47.0388 H   0  0  0  0  0  0  0  0  0  0  0  0
   39.1084   30.4359   47.7332 H   0  0  0  0  0  0  0  0  0  0  0  0
   37.6543   30.4050   52.5008 H   0  0  0  0  0  0  0  0  0  0  0  0
   38.8324   31.3871   50.5390 H   0  0  0  0  0  0  0  0  0  0  0  0
   34.9547   28.4385   49.9268 H   0  0  0  0  0  0  0  0  0  0  0  0
   37.9111   31.5235   45.4607 H   0  0  0  0  0  0  0  0  0  0  0  0
   38.6104   32.8265   44.3729 H   0  0  0  0  0  0  0  0  0  0  0  0
   39.7763   29.1481   45.3497 H   0  0  0  0  0  0  0  0  0  0  0  0
   38.1824   29.7948   44.8223 H   0  0  0  0  0  0  0  0  0  0  0  0
   39.6878   26.4140   42.9667 H   0  0  0  0  0  0  0  0  0  0  0  0
   41.2614   29.4807   41.5178 H   0  0  0  0  0  0  0  0  0  0  0  0
   40.2162   29.1065   40.3177 H   0  0  0  0  0  0  0  0  0  0  0  0
   41.0313   31.2710   46.3460 H   0  0  0  0  0  0  0  0  0  0  0  0
   41.8221   30.4685   44.9470 H   0  0  0  0  0  0  0  0  0  0  0  0
   41.5895   32.2496   44.9470 H   0  0  0  0  0  0  0  0  0  0  0  0
  2  1  1  0
  2  5  1  0
  4  3  2  0
  5  4  1  0
  6  5  2  0
  6  7  1  0
  7  8  2  0
  8  3  1  0
  9  1  1  0
 10  9  1  0
 11 10  1  1
 11 19  1  0
 12 11  1  0
 13 12  1  0
 14 15  1  6
 14 13  1  0
 16 14  1  0
 17 16  1  0
 17 14  1  0
 17 18  1  1
 17 13  1  0
 18 11  1  0
  1 20  1  0
  1 21  1  0
  2 22  1  0
  2 23  1  0
  3 24  1  0
  4 25  1  0
  7 26  1  0
 10 27  1  0
 10 28  1  0
 12 29  1  0
 12 30  1  0
 15 31  1  0
 16 32  1  0
 16 33  1  0
 19 34  1  0
 19 35  1  0
 19 36  1  0
M  ISO  8  20   8  21   8  22   8  23   8  24  14  25  14  26  14  27   8
M  ISO  8  28   8  29  13  30  13  31   3  32  13  33  13  34   8  35   8
M  ISO  1  36   8
M  END
>  <minimizedAffinity>  (1) 
-4.8844347

>  <minimizedRMSD>  (1) 
4.3602562

$$$$
