
     RDKit          3D

 30 32  0  0  0  0  0  0  0  0999 V2000
   34.6360   29.3070   45.9280 C   0  0  0  0  0  0  0  0  0  0  0  0
   34.2450   30.2280   47.0500 C   0  0  0  0  0  0  0  0  0  0  0  0
   37.0650   29.8130   49.5370 C   0  0  0  0  0  0  0  0  0  0  0  0
   36.4040   30.1030   48.3450 C   0  0  0  0  0  0  0  0  0  0  0  0
   35.0410   29.9520   48.2560 C   0  0  0  0  0  0  0  0  0  0  0  0
   34.4130   29.5120   49.3840 N   0  0  0  0  0  0  0  0  0  0  0  0
   35.0530   29.2370   50.5220 C   0  0  0  0  0  0  0  0  0  0  0  0
   36.3810   29.3830   50.6100 N   0  0  0  0  0  0  0  0  0  0  0  0
   35.2010   30.2620   44.4900 S   0  0  0  0  0  0  0  0  0  0  0  0
   37.9350   29.6010   44.1390 C   0  0  0  0  0  0  0  0  0  0  0  0
   36.9700   30.4910   44.5670 C   0  0  0  0  0  0  0  0  0  0  0  0
   37.3220   31.7090   45.1240 C   0  0  0  0  0  0  0  0  0  0  0  0
   38.6600   32.0670   45.2670 C   0  0  0  0  0  0  0  0  0  0  0  0
   39.3110   33.1610   45.7620 N   0  0  0  0  0  0  0  0  0  0  0  0
   40.6060   32.9640   45.6500 N   0  0  0  0  0  0  0  0  0  0  0  0
   40.8440   31.7590   45.0890 C   0  0  0  0  0  0  0  0  0  0  0  0
   39.6320   31.1620   44.8330 C   0  0  0  0  0  0  0  0  0  0  0  0
   39.2580   29.9700   44.2880 C   0  0  0  0  0  0  0  0  0  0  0  0
   35.4488   28.6479   46.2670 H   0  0  0  0  0  0  0  0  0  0  0  0
   33.7600   28.7090   45.6365 H   0  0  0  0  0  0  0  0  0  0  0  0
   34.4139   31.2690   46.7372 H   0  0  0  0  0  0  0  0  0  0  0  0
   33.1827   30.0655   47.2847 H   0  0  0  0  0  0  0  0  0  0  0  0
   38.1562   29.9373   49.5997 H   0  0  0  0  0  0  0  0  0  0  0  0
   36.9750   30.4538   47.4727 H   0  0  0  0  0  0  0  0  0  0  0  0
   34.4842   28.8870   51.3961 H   0  0  0  0  0  0  0  0  0  0  0  0
   37.6602   28.6327   43.6952 H   0  0  0  0  0  0  0  0  0  0  0  0
   36.5353   32.4018   45.4574 H   0  0  0  0  0  0  0  0  0  0  0  0
   38.8624   33.9999   46.1569 H   0  0  0  0  0  0  0  0  0  0  0  0
   41.8339   31.3301   44.8744 H   0  0  0  0  0  0  0  0  0  0  0  0
   40.0411   29.2738   43.9533 H   0  0  0  0  0  0  0  0  0  0  0  0
  1  2  1  0
  2  5  1  0
  3  8  2  0
  4  3  1  0
  5  4  2  0
  5  6  1  0
  6  7  2  0
  7  8  1  0
  9 11  1  0
  9  1  1  0
 10 18  2  0
 10 11  1  0
 11 12  2  0
 12 13  1  0
 13 14  1  0
 15 14  1  0
 16 15  2  0
 17 16  1  0
 17 13  2  0
 18 17  1  0
  1 19  1  0
  1 20  1  0
  2 21  1  0
  2 22  1  0
  3 23  1  0
  4 24  1  0
  7 25  1  0
 10 26  1  0
 12 27  1  0
 14 28  1  0
 16 29  1  0
 18 30  1  0
M  ISO  8  19   8  20   8  21   8  22   8  23  14  24  14  25  14  26  14
M  ISO  4  27  14  28   9  29  14  30  14
M  END
>  <minimizedAffinity>  (1) 
-4.61093855

>  <minimizedRMSD>  (1) 
5.70351028

$$$$
