
     RDKit          3D

 35 37  0  0  0  0  0  0  0  0999 V2000
   34.7330   30.5780   49.1740 O   0  0  0  0  0  0  0  0  0  0  0  0
   34.4690   29.4360   50.1420 P   0  0  2  0  0  0  0  0  0  0  0  0
   33.0250   29.7990   50.9200 O   0  0  0  0  0  0  0  0  0  0  0  0
   35.7590   29.3640   51.2420 O   0  0  0  0  0  0  0  0  0  0  0  0
   36.9840   29.2480   50.5740 C   0  0  0  0  0  0  0  0  0  0  0  0
   37.7540   30.5050   50.7990 C   0  0  0  0  0  0  0  0  0  0  0  0
   38.1390   31.2260   49.5820 C   0  0  0  0  0  0  0  0  0  0  0  0
   38.5630   32.5500   49.6030 C   0  0  0  0  0  0  0  0  0  0  0  0
   38.9050   33.1320   48.3730 C   0  0  0  0  0  0  0  0  0  0  0  0
   38.8060   32.3790   47.2330 N   0  0  0  0  0  0  0  0  0  0  0  0
   38.3810   31.0770   47.2740 C   0  0  0  0  0  0  0  0  0  0  0  0
   38.0500   30.5090   48.4540 N   0  0  0  0  0  0  0  0  0  0  0  0
   34.2970   27.9840   49.3120 O   0  0  0  0  0  0  0  0  0  0  0  0
   33.5490   28.0040   47.0400 C   0  0  0  0  0  0  0  0  0  0  0  0
   33.2660   27.8630   48.3870 C   0  0  0  0  0  0  0  0  0  0  0  0
   31.9510   27.6090   48.6970 C   0  0  0  0  0  0  0  0  0  0  0  0
   30.9850   27.5040   47.7110 C   0  0  0  0  0  0  0  0  0  0  0  0
   29.6810   27.2680   47.7890 N   0  0  0  0  0  0  0  0  0  0  0  0
   29.1580   27.2580   46.5570 N   0  0  0  0  0  0  0  0  0  0  0  0
   30.1460   27.4940   45.6590 C   0  0  0  0  0  0  0  0  0  0  0  0
   31.3170   27.6540   46.3690 C   0  0  0  0  0  0  0  0  0  0  0  0
   32.6140   27.9070   46.0210 C   0  0  0  0  0  0  0  0  0  0  0  0
   33.1606   29.7649   51.9001 H   0  0  0  0  0  0  0  0  0  0  0  0
   36.8097   29.1049   49.4974 H   0  0  0  0  0  0  0  0  0  0  0  0
   37.5461   28.3828   50.9554 H   0  0  0  0  0  0  0  0  0  0  0  0
   37.1363   31.1776   51.4123 H   0  0  0  0  0  0  0  0  0  0  0  0
   38.6932   30.2052   51.2869 H   0  0  0  0  0  0  0  0  0  0  0  0
   38.6275   33.1168   50.5435 H   0  0  0  0  0  0  0  0  0  0  0  0
   39.2472   34.1763   48.3249 H   0  0  0  0  0  0  0  0  0  0  0  0
   38.3092   30.4933   46.3444 H   0  0  0  0  0  0  0  0  0  0  0  0
   34.5922   28.2080   46.7569 H   0  0  0  0  0  0  0  0  0  0  0  0
   31.6602   27.4866   49.7508 H   0  0  0  0  0  0  0  0  0  0  0  0
   29.1542   27.1163   48.6610 H   0  0  0  0  0  0  0  0  0  0  0  0
   30.0340   27.5479   44.5660 H   0  0  0  0  0  0  0  0  0  0  0  0
   32.9064   28.0296   44.9677 H   0  0  0  0  0  0  0  0  0  0  0  0
  2  1  2  0
  2  3  1  0
  2  4  1  0
  5  6  1  0
  5  4  1  0
  7  8  2  0
  7  6  1  0
  9  8  1  0
 10 11  1  0
 10  9  2  0
 11 12  2  0
 12  7  1  0
 13  2  1  0
 14 15  2  0
 15 16  1  0
 15 13  1  0
 17 18  1  0
 17 16  2  0
 19 18  1  0
 20 21  1  0
 20 19  2  0
 21 17  1  0
 22 21  2  0
 22 14  1  0
  3 23  1  0
  5 24  1  0
  5 25  1  0
  6 26  1  0
  6 27  1  0
  8 28  1  0
  9 29  1  0
 11 30  1  0
 14 31  1  0
 16 32  1  0
 18 33  1  0
 20 34  1  0
 22 35  1  0
M  ISO  8  23   3  24   8  25   8  26   8  27   8  28  14  29  14  30  14
M  ISO  5  31  14  32  14  33   9  34  14  35  14
M  END
>  <minimizedAffinity>  (1) 
-5.55965757

>  <minimizedRMSD>  (1) 
1.43950939

$$$$
