
     RDKit          3D

 40 44  0  0  0  0  0  0  0  0999 V2000
   37.2230   29.7630   50.5610 C   0  0  0  0  0  0  0  0  0  0  0  0
   37.9140   30.4010   49.5060 C   0  0  0  0  0  0  0  0  0  0  0  0
   37.3320   30.3300   48.2230 C   0  0  0  0  0  0  0  0  0  0  0  0
   36.1790   29.6800   48.0620 N   0  0  0  0  0  0  0  0  0  0  0  0
   35.5520   29.0860   49.0950 C   0  0  0  0  0  0  0  0  0  0  0  0
   36.0710   29.1300   50.3230 N   0  0  0  0  0  0  0  0  0  0  0  0
   34.2170   27.3490   47.9550 C   0  0  0  0  0  0  0  0  0  0  0  0
   34.2940   28.3910   48.8490 C   0  0  0  0  0  0  0  0  0  0  0  0
   33.1460   28.7690   49.5140 C   0  0  0  0  0  0  0  0  0  0  0  0
   31.9600   28.0820   49.2530 C   0  0  0  0  0  0  0  0  0  0  0  0
   30.7000   28.1830   49.7080 N   0  0  0  0  0  0  0  0  0  0  0  0
   29.9160   27.2770   49.1380 N   0  0  0  0  0  0  0  0  0  0  0  0
   30.6520   26.5330   48.2710 C   0  0  0  0  0  0  0  0  0  0  0  0
   31.9400   27.0370   48.3410 C   0  0  0  0  0  0  0  0  0  0  0  0
   33.0760   26.6510   47.6730 C   0  0  0  0  0  0  0  0  0  0  0  0
   37.9850   30.9650   47.0730 C   0  0  0  0  0  0  0  0  0  0  0  0
   39.0380   31.7780   46.9820 C   0  0  0  0  0  0  0  0  0  0  0  0
   39.4360   32.2260   45.7740 C   0  0  0  0  0  0  0  0  0  0  0  0
   38.7130   31.8060   44.6740 C   0  0  0  0  0  0  0  0  0  0  0  0
   37.4250   30.7370   45.4170 S   0  0  0  0  0  0  0  0  0  0  0  0
   40.8800   30.2380   43.2160 Cl  0  0  0  0  0  0  0  0  0  0  0  0
   39.7830   31.4050   42.5410 C   0  0  0  0  0  0  0  0  0  0  0  0
   38.8350   32.0690   43.2560 C   0  0  0  0  0  0  0  0  0  0  0  0
   37.9510   32.9910   42.7810 C   0  0  0  0  0  0  0  0  0  0  0  0
   38.0050   33.3020   41.4180 C   0  0  0  0  0  0  0  0  0  0  0  0
   38.9420   32.6660   40.6310 C   0  0  0  0  0  0  0  0  0  0  0  0
   39.0500   33.0200   38.9170 Cl  0  0  0  0  0  0  0  0  0  0  0  0
   39.8180   31.7330   41.1790 C   0  0  0  0  0  0  0  0  0  0  0  0
   37.6349   29.7878   51.5807 H   0  0  0  0  0  0  0  0  0  0  0  0
   38.8634   30.9294   49.6777 H   0  0  0  0  0  0  0  0  0  0  0  0
   35.1383   27.0566   47.4299 H   0  0  0  0  0  0  0  0  0  0  0  0
   33.1653   29.5975   50.2373 H   0  0  0  0  0  0  0  0  0  0  0  0
   30.3847   28.8717   50.4060 H   0  0  0  0  0  0  0  0  0  0  0  0
   30.2978   25.7020   47.6433 H   0  0  0  0  0  0  0  0  0  0  0  0
   33.0682   25.8232   46.9487 H   0  0  0  0  0  0  0  0  0  0  0  0
   39.5802   32.0822   47.8894 H   0  0  0  0  0  0  0  0  0  0  0  0
   40.3005   32.8980   45.6687 H   0  0  0  0  0  0  0  0  0  0  0  0
   37.2202   33.4740   43.4463 H   0  0  0  0  0  0  0  0  0  0  0  0
   37.3140   34.0390   40.9829 H   0  0  0  0  0  0  0  0  0  0  0  0
   40.5553   31.2415   40.5273 H   0  0  0  0  0  0  0  0  0  0  0  0
  2  1  2  0
  3  2  1  0
  4  3  2  0
  4  5  1  0
  5  6  2  0
  6  1  1  0
  7  8  2  0
  8  5  1  0
  8  9  1  0
 10  9  2  0
 10 11  1  0
 12 11  1  0
 13 14  1  0
 13 12  2  0
 14 10  1  0
 15  7  1  0
 15 14  2  0
 16  3  1  0
 17 16  2  0
 18 17  1  0
 19 20  1  0
 19 18  2  0
 20 16  1  0
 22 21  1  0
 22 23  2  0
 23 19  1  0
 24 23  1  0
 25 24  2  0
 26 28  2  0
 26 25  1  0
 27 26  1  0
 28 22  1  0
  1 29  1  0
  2 30  1  0
  7 31  1  0
  9 32  1  0
 11 33  1  0
 13 34  1  0
 15 35  1  0
 17 36  1  0
 18 37  1  0
 24 38  1  0
 25 39  1  0
 28 40  1  0
M  ISO  8  29  14  30  14  31  14  32  14  33   9  34  14  35  14  36  14
M  ISO  4  37  14  38  14  39  14  40  14
M  END
>  <minimizedAffinity>  (1) 
-6.74272776

>  <minimizedRMSD>  (1) 
1.60481393

$$$$
