
     RDKit          3D

 35 38  0  0  0  0  0  0  0  0999 V2000
   33.3550   27.7200   48.6320 C   0  0  0  0  0  0  0  0  0  0  0  0
   33.2860   26.6810   47.6310 C   0  0  0  0  0  0  0  0  0  0  0  0
   31.5390   26.3410   47.6260 S   0  0  0  0  0  0  0  0  0  0  0  0
   31.1540   27.6160   48.9430 C   0  0  0  0  0  0  0  0  0  0  0  0
   32.2300   28.0750   49.1890 N   0  0  0  0  0  0  0  0  0  0  0  0
   29.1930   27.1500   50.4310 C   0  0  0  0  0  0  0  0  0  0  0  0
   29.7350   27.7530   49.3430 C   0  0  0  0  0  0  0  0  0  0  0  0
   29.0620   28.5680   48.4590 C   0  0  0  0  0  0  0  0  0  0  0  0
   27.7020   28.8150   48.6770 C   0  0  0  0  0  0  0  0  0  0  0  0
   26.7050   29.5130   48.1000 N   0  0  0  0  0  0  0  0  0  0  0  0
   25.5870   29.3510   48.7980 N   0  0  0  0  0  0  0  0  0  0  0  0
   25.8020   28.5460   49.8580 C   0  0  0  0  0  0  0  0  0  0  0  0
   27.1420   28.2010   49.7880 C   0  0  0  0  0  0  0  0  0  0  0  0
   27.8370   27.3860   50.6620 C   0  0  0  0  0  0  0  0  0  0  0  0
   34.7010   28.3110   48.9550 C   0  0  0  0  0  0  0  0  0  0  0  0
   34.5890   29.6910   49.4800 C   0  0  0  0  0  0  0  0  0  0  0  0
   37.3310   32.1670   49.7410 C   0  0  0  0  0  0  0  0  0  0  0  0
   38.2570   31.7070   48.8000 C   0  0  0  0  0  0  0  0  0  0  0  0
   37.9300   30.5490   48.0850 C   0  0  0  0  0  0  0  0  0  0  0  0
   36.7500   29.9300   48.3280 N   0  0  0  0  0  0  0  0  0  0  0  0
   35.8940   30.4350   49.2600 C   0  0  0  0  0  0  0  0  0  0  0  0
   36.1710   31.5380   49.9620 N   0  0  0  0  0  0  0  0  0  0  0  0
   34.0912   26.2255   47.0359 H   0  0  0  0  0  0  0  0  0  0  0  0
   29.7907   26.5091   51.0958 H   0  0  0  0  0  0  0  0  0  0  0  0
   29.5831   29.0152   47.5997 H   0  0  0  0  0  0  0  0  0  0  0  0
   26.7958   30.0847   47.2481 H   0  0  0  0  0  0  0  0  0  0  0  0
   25.0701   28.2306   50.6162 H   0  0  0  0  0  0  0  0  0  0  0  0
   27.3295   26.9310   51.5254 H   0  0  0  0  0  0  0  0  0  0  0  0
   35.1928   27.6820   49.7116 H   0  0  0  0  0  0  0  0  0  0  0  0
   35.2881   28.3475   48.0255 H   0  0  0  0  0  0  0  0  0  0  0  0
   33.7770   30.2160   48.9556 H   0  0  0  0  0  0  0  0  0  0  0  0
   34.3715   29.6520   50.5576 H   0  0  0  0  0  0  0  0  0  0  0  0
   37.5634   33.0744   50.3177 H   0  0  0  0  0  0  0  0  0  0  0  0
   39.2065   32.2351   48.6281 H   0  0  0  0  0  0  0  0  0  0  0  0
   38.6244   30.1457   47.3332 H   0  0  0  0  0  0  0  0  0  0  0  0
  1 15  1  0
  1  5  1  0
  2  1  2  0
  3  2  1  0
  3  4  1  0
  4  5  2  0
  4  7  1  0
  6 14  2  0
  7  6  1  0
  8  9  1  0
  8  7  2  0
  9 13  2  0
 10  9  1  0
 10 11  1  0
 11 12  2  0
 13 12  1  0
 13 14  1  0
 15 16  1  0
 17 22  2  0
 18 17  1  0
 19 20  1  0
 19 18  2  0
 20 21  2  0
 21 16  1  0
 21 22  1  0
  2 23  1  0
  6 24  1  0
  8 25  1  0
 10 26  1  0
 12 27  1  0
 14 28  1  0
 15 29  1  0
 15 30  1  0
 16 31  1  0
 16 32  1  0
 17 33  1  0
 18 34  1  0
 19 35  1  0
M  ISO  8  23  14  24  14  25  14  26   9  27  14  28  14  29   8  30   8
M  ISO  5  31   8  32   8  33  14  34  14  35  14
M  END
>  <minimizedAffinity>  (1) 
-6.39131689

>  <minimizedRMSD>  (1) 
2.50617599

$$$$
