
     RDKit          3D

 55 59  0  0  1  0  0  0  0  0999 V2000
   31.7500   27.7300   46.9340 C   0  0  0  0  0  0  0  0  0  0  0  0
   30.5970   28.0770   47.7910 C   0  0  0  0  0  0  0  0  0  0  0  0
   30.6150   27.6840   49.1280 C   0  0  0  0  0  0  0  0  0  0  0  0
   29.6070   27.9520   50.0020 C   0  0  0  0  0  0  0  0  0  0  0  0
   28.5520   28.6240   49.5580 N   0  0  0  0  0  0  0  0  0  0  0  0
   28.5170   29.0170   48.2510 C   0  0  0  0  0  0  0  0  0  0  0  0
   29.5140   28.7590   47.3620 N   0  0  0  0  0  0  0  0  0  0  0  0
   27.3190   29.7820   47.7480 C   0  0  0  0  0  0  0  0  0  0  0  0
   26.9270   29.4170   46.3860 C   0  0  0  0  0  0  0  0  0  0  0  0
   26.7860   30.3340   45.4450 C   0  0  0  0  0  0  0  0  0  0  0  0
   26.4070   29.9690   44.1310 N   0  0  0  0  0  0  0  0  0  0  0  0
   25.6230   30.2960   42.9960 C   0  0  0  0  0  0  0  0  0  0  0  0
   24.9110   31.2130   42.5490 O   0  0  0  0  0  0  0  0  0  0  0  0
   25.9570   28.9930   42.3760 C   0  0  0  0  0  0  0  0  0  0  0  0
   26.9520   28.7590   43.4920 C   0  0  2  0  0  0  0  0  0  0  0  0
   26.5530   27.3830   44.5650 S   0  0  0  0  0  0  0  0  0  0  0  0
   26.7320   27.9590   46.2670 C   0  0  0  0  0  0  0  0  0  0  0  0
   27.0140   31.7430   45.7280 C   0  0  0  0  0  0  0  0  0  0  0  0
   27.8610   32.4480   45.1350 O   0  0  0  0  0  0  0  0  0  0  0  0
   26.9450   33.0010   46.2560 O   0  0  0  0  0  0  0  0  0  0  0  0
   32.6860   28.8800   46.7300 C   0  0  0  0  0  0  0  0  0  0  0  0
   34.0310   28.4820   46.9930 O   0  0  0  0  0  0  0  0  0  0  0  0
   34.9660   28.7790   50.4580 C   0  0  0  0  0  0  0  0  0  0  0  0
   35.9610   29.7880   50.3730 C   0  0  0  0  0  0  0  0  0  0  0  0
   36.2390   30.2950   49.1230 C   0  0  0  0  0  0  0  0  0  0  0  0
   35.5250   29.7750   48.0670 N   0  0  0  0  0  0  0  0  0  0  0  0
   34.5910   28.8220   48.1820 C   0  0  0  0  0  0  0  0  0  0  0  0
   34.3210   28.3300   49.3980 N   0  0  0  0  0  0  0  0  0  0  0  0
   36.6150   32.8380   50.4510 F   0  0  0  0  0  0  0  0  0  0  0  0
   37.4050   32.5150   49.4360 C   0  0  0  0  0  0  0  0  0  0  0  0
   37.2100   31.3180   48.8290 C   0  0  0  0  0  0  0  0  0  0  0  0
   38.0990   31.0830   47.7740 C   0  0  0  0  0  0  0  0  0  0  0  0
   39.0690   31.9740   47.3930 C   0  0  0  0  0  0  0  0  0  0  0  0
   39.2210   33.1750   48.0450 C   0  0  0  0  0  0  0  0  0  0  0  0
   38.3670   33.4370   49.0840 C   0  0  0  0  0  0  0  0  0  0  0  0
   32.3038   26.9053   47.4064 H   0  0  0  0  0  0  0  0  0  0  0  0
   31.3561   27.4437   45.9477 H   0  0  0  0  0  0  0  0  0  0  0  0
   31.4899   27.1280   49.4961 H   0  0  0  0  0  0  0  0  0  0  0  0
   29.6650   27.6204   51.0492 H   0  0  0  0  0  0  0  0  0  0  0  0
   26.4711   29.5835   48.4200 H   0  0  0  0  0  0  0  0  0  0  0  0
   27.5963   30.8464   47.7322 H   0  0  0  0  0  0  0  0  0  0  0  0
   25.1243   28.2746   42.3514 H   0  0  0  0  0  0  0  0  0  0  0  0
   26.2596   28.9259   41.3206 H   0  0  0  0  0  0  0  0  0  0  0  0
   28.0088   28.5837   43.2420 H   0  0  0  0  0  0  0  0  0  0  0  0
   25.8237   27.6842   46.8233 H   0  0  0  0  0  0  0  0  0  0  0  0
   27.6357   27.4811   46.6731 H   0  0  0  0  0  0  0  0  0  0  0  0
   27.5404   33.7145   45.9145 H   0  0  0  0  0  0  0  0  0  0  0  0
   32.6087   29.2296   45.6899 H   0  0  0  0  0  0  0  0  0  0  0  0
   32.4122   29.6890   47.4232 H   0  0  0  0  0  0  0  0  0  0  0  0
   34.7237   28.3558   51.4440 H   0  0  0  0  0  0  0  0  0  0  0  0
   36.4880   30.1498   51.2682 H   0  0  0  0  0  0  0  0  0  0  0  0
   38.0153   30.1351   47.2223 H   0  0  0  0  0  0  0  0  0  0  0  0
   39.7350   31.7245   46.5539 H   0  0  0  0  0  0  0  0  0  0  0  0
   39.9961   33.8956   47.7449 H   0  0  0  0  0  0  0  0  0  0  0  0
   38.4493   34.3840   49.6376 H   0  0  0  0  0  0  0  0  0  0  0  0
  1  2  1  0
  2  3  2  0
  3  4  1  0
  5  4  2  0
  6  5  1  0
  7  2  1  0
  7  6  2  0
  8  6  1  0
  9  8  1  0
 10 18  1  0
 10  9  2  0
 11 10  1  0
 12 11  1  0
 13 12  2  0
 14 12  1  0
 15 14  1  0
 15 11  1  0
 15 16  1  0
 16 17  1  0
 17  9  1  0
 18 20  1  0
 19 18  2  0
 21  1  1  0
 21 22  1  0
 22 27  1  0
 24 23  2  0
 25 24  1  0
 26 27  1  0
 26 25  2  0
 27 28  2  0
 28 23  1  0
 30 29  1  0
 31 25  1  0
 31 30  2  0
 32 31  1  0
 33 32  2  0
 33 34  1  0
 34 35  2  0
 35 30  1  0
  1 36  1  0
  1 37  1  0
  3 38  1  0
  4 39  1  0
  8 40  1  0
  8 41  1  0
 14 42  1  0
 14 43  1  0
 15 44  1  6
 17 45  1  0
 17 46  1  0
 20 47  1  0
 21 48  1  0
 21 49  1  0
 23 50  1  0
 24 51  1  0
 32 52  1  0
 33 53  1  0
 34 54  1  0
 35 55  1  0
M  ISO  8  36   8  37   8  38  14  39  14  40   8  41   8  42  13  43  13
M  ISO  8  44  13  45  13  46  13  47   3  48   8  49   8  50  14  51  14
M  ISO  4  52  14  53  14  54  14  55  14
M  END
>  <minimizedAffinity>  (1) 
-7.52146673

>  <minimizedRMSD>  (1) 
2.88993716

$$$$
