
     RDKit          3D

 56 61  0  0  1  0  0  0  0  0999 V2000
   33.2320   27.2310   47.5450 C   0  0  0  0  0  0  0  0  0  0  0  0
   33.8130   25.9890   47.2960 C   0  0  0  0  0  0  0  0  0  0  0  0
   33.9500   25.4880   46.0090 C   0  0  0  0  0  0  0  0  0  0  0  0
   33.5000   26.2290   44.9220 C   0  0  0  0  0  0  0  0  0  0  0  0
   32.9330   27.4450   45.1770 C   0  0  0  0  0  0  0  0  0  0  0  0
   32.7910   27.9550   46.4470 C   0  0  0  0  0  0  0  0  0  0  0  0
   33.0860   27.7860   48.9090 C   0  0  0  0  0  0  0  0  0  0  0  0
   35.4760   28.5300   48.9160 C   0  0  0  0  0  0  0  0  0  0  0  0
   34.2450   28.6040   49.3420 C   0  0  0  0  0  0  0  0  0  0  0  0
   37.6160   30.3370   51.2580 C   0  0  0  0  0  0  0  0  0  0  0  0
   38.3270   31.1900   50.3960 C   0  0  0  0  0  0  0  0  0  0  0  0
   38.0470   31.1210   49.0120 C   0  0  0  0  0  0  0  0  0  0  0  0
   37.0970   30.2230   48.5830 N   0  0  0  0  0  0  0  0  0  0  0  0
   36.4550   29.4340   49.4820 C   0  0  0  0  0  0  0  0  0  0  0  0
   36.7030   29.4840   50.7920 N   0  0  0  0  0  0  0  0  0  0  0  0
   38.7250   31.9620   48.0250 C   0  0  0  0  0  0  0  0  0  0  0  0
   39.0730   31.4930   46.7710 C   0  0  0  0  0  0  0  0  0  0  0  0
   39.6980   32.5460   46.0910 C   0  0  0  0  0  0  0  0  0  0  0  0
   39.7020   33.5970   46.9530 N   0  0  0  0  0  0  0  0  0  0  0  0
   39.1210   33.2380   48.1010 N   0  0  0  0  0  0  0  0  0  0  0  0
   32.2090   29.2760   46.5570 C   0  0  0  0  0  0  0  0  0  0  0  0
   30.8320   29.5270   46.1900 C   0  0  0  0  0  0  0  0  0  0  0  0
   29.6840   29.0940   46.7030 C   0  0  0  0  0  0  0  0  0  0  0  0
   28.3840   29.4210   46.2270 N   0  0  0  0  0  0  0  0  0  0  0  0
   27.0010   29.6490   46.3970 C   0  0  1  0  0  0  0  0  0  0  0  0
   26.1840   29.4570   47.3360 O   0  0  0  0  0  0  0  0  0  0  0  0
   26.7900   30.2150   45.0640 C   0  0  0  0  0  0  0  0  0  0  0  0
   28.1720   29.7070   44.8160 C   0  0  2  0  0  0  0  0  0  0  0  0
   29.3030   31.0810   44.4650 S   0  0  0  0  0  0  0  0  0  0  0  0
   30.8570   30.4400   45.0470 C   0  0  0  0  0  0  0  0  0  0  0  0
   29.7380   28.1920   47.8520 C   0  0  0  0  0  0  0  0  0  0  0  0
   29.6020   26.9460   47.6850 O   0  0  0  0  0  0  0  0  0  0  0  0
   29.7910   27.3400   48.9420 O   0  0  0  0  0  0  0  0  0  0  0  0
   34.1735   25.3883   48.1441 H   0  0  0  0  0  0  0  0  0  0  0  0
   34.4149   24.5040   45.8488 H   0  0  0  0  0  0  0  0  0  0  0  0
   33.5971   25.8496   43.8941 H   0  0  0  0  0  0  0  0  0  0  0  0
   32.5732   28.0444   44.3278 H   0  0  0  0  0  0  0  0  0  0  0  0
   32.1856   28.4174   48.9334 H   0  0  0  0  0  0  0  0  0  0  0  0
   33.0160   26.9328   49.5997 H   0  0  0  0  0  0  0  0  0  0  0  0
   35.7629   27.7989   48.1459 H   0  0  0  0  0  0  0  0  0  0  0  0
   34.0430   29.3622   50.1129 H   0  0  0  0  0  0  0  0  0  0  0  0
   37.8168   30.3739   52.3389 H   0  0  0  0  0  0  0  0  0  0  0  0
   39.0793   31.8908   50.7870 H   0  0  0  0  0  0  0  0  0  0  0  0
   38.8924   30.4807   46.3803 H   0  0  0  0  0  0  0  0  0  0  0  0
   40.1029   32.5264   45.0684 H   0  0  0  0  0  0  0  0  0  0  0  0
   40.0934   34.5282   46.7517 H   0  0  0  0  0  0  0  0  0  0  0  0
   32.3083   29.5724   47.6117 H   0  0  0  0  0  0  0  0  0  0  0  0
   32.7645   29.8439   45.7961 H   0  0  0  0  0  0  0  0  0  0  0  0
   26.6474   29.5659   48.2040 H   0  0  0  0  0  0  0  0  0  0  0  0
   25.9966   29.7406   44.4678 H   0  0  0  0  0  0  0  0  0  0  0  0
   26.4775   31.2539   44.8821 H   0  0  0  0  0  0  0  0  0  0  0  0
   31.3256   29.9037   44.2086 H   0  0  0  0  0  0  0  0  0  0  0  0
   31.4034   31.3233   45.4093 H   0  0  0  0  0  0  0  0  0  0  0  0
   30.7178   28.3433   48.3286 H   0  0  0  0  0  0  0  0  0  0  0  0
   28.8451   28.4681   48.4321 H   0  0  0  0  0  0  0  0  0  0  0  0
   29.4566   26.6428   49.5602 H   0  0  0  0  0  0  0  0  0  0  0  0
  1  7  1  0
  2  1  2  0
  3  2  1  0
  4  5  1  0
  4  3  2  0
  5  6  2  0
  6 21  1  0
  6  1  1  0
  7  9  1  0
  8  9  2  0
  8 14  1  0
 11 10  2  0
 12 11  1  0
 13 12  2  0
 13 14  1  0
 14 15  2  0
 15 10  1  0
 16 20  2  0
 16 12  1  0
 17 16  1  0
 18 17  2  0
 18 19  1  0
 19 20  1  0
 22 21  1  0
 22 23  2  0
 23 31  1  0
 24 25  1  0
 24 23  1  0
 25 26  1  6
 27 25  1  0
 28 29  1  6
 28 27  1  0
 28 24  1  0
 28 25  1  0
 29 30  1  0
 30 22  1  0
 32 31  1  0
 32 33  1  0
  2 34  1  0
  3 35  1  0
  4 36  1  0
  5 37  1  0
  7 38  1  0
  7 39  1  0
  8 40  1  0
  9 41  1  0
 10 42  1  0
 11 43  1  0
 17 44  1  0
 18 45  1  0
 19 46  1  0
 21 47  1  0
 21 48  1  0
 26 49  1  0
 27 50  1  0
 27 51  1  0
 30 52  1  0
 30 53  1  0
 31 54  1  0
 31 55  1  0
 33 56  1  0
M  ISO  8  34  14  35  14  36  14  37  14  38   8  39   8  42  14  43  14
M  ISO  8  44  14  45  14  46   9  47   8  48   8  49   3  50  13  51  13
M  ISO  5  52  13  53  13  54   8  55   8  56   3
M  END
>  <minimizedAffinity>  (1) 
-6.8208909

>  <minimizedRMSD>  (1) 
3.19219661

$$$$
