
     RDKit          3D

 52 56  0  0  1  0  0  0  0  0999 V2000
   40.9800   31.4710   44.9410 Cl  0  0  0  0  0  0  0  0  0  0  0  0
   39.3770   30.8590   44.6180 C   0  0  0  0  0  0  0  0  0  0  0  0
   38.3960   31.4020   45.4360 C   0  0  0  0  0  0  0  0  0  0  0  0
   37.1120   30.9460   45.1960 C   0  0  0  0  0  0  0  0  0  0  0  0
   36.8200   30.0130   44.2120 C   0  0  0  0  0  0  0  0  0  0  0  0
   37.8470   29.5110   43.4310 C   0  0  0  0  0  0  0  0  0  0  0  0
   39.1230   29.9370   43.6390 C   0  0  0  0  0  0  0  0  0  0  0  0
   38.4190   32.3030   46.4430 O   0  0  0  0  0  0  0  0  0  0  0  0
   39.0140   32.4310   47.6510 C   0  0  2  0  0  0  0  0  0  0  0  0
   37.9750   32.6200   48.8060 C   0  0  2  0  0  0  0  0  0  0  0  0
   38.7800   33.3440   49.7760 C   0  0  0  0  0  0  0  0  0  0  0  0
   39.6270   34.2030   49.0810 O   0  0  0  0  0  0  0  0  0  0  0  0
   39.6190   33.8570   47.7650 C   0  0  0  0  0  0  0  0  0  0  0  0
   37.3460   29.3230   50.5170 C   0  0  0  0  0  0  0  0  0  0  0  0
   37.9850   30.5470   50.1770 C   0  0  0  0  0  0  0  0  0  0  0  0
   37.3780   31.3770   49.2040 C   0  0  0  0  0  0  0  0  0  0  0  0
   36.1870   30.9570   48.6270 N   0  0  0  0  0  0  0  0  0  0  0  0
   35.6230   29.7920   48.9820 C   0  0  0  0  0  0  0  0  0  0  0  0
   36.1860   28.9730   49.9170 N   0  0  0  0  0  0  0  0  0  0  0  0
   40.3400   29.5030   42.9090 C   0  0  0  0  0  0  0  0  0  0  0  0
   40.2950   29.5880   41.4630 C   0  0  0  0  0  0  0  0  0  0  0  0
   40.0880   28.5060   40.7680 C   0  0  0  0  0  0  0  0  0  0  0  0
   40.0620   28.5670   39.3300 N   0  0  0  0  0  0  0  0  0  0  0  0
   39.3830   28.2650   38.0930 C   0  0  0  0  0  0  0  0  0  0  0  0
   38.6200   27.3050   37.7380 O   0  0  0  0  0  0  0  0  0  0  0  0
   39.9860   29.5180   37.5560 C   0  0  0  0  0  0  0  0  0  0  0  0
   41.1060   29.1740   38.5060 C   0  0  1  0  0  0  0  0  0  0  0  0
   41.7140   30.6210   39.4030 S   0  0  0  0  0  0  0  0  0  0  0  0
   40.5000   30.8740   40.7610 C   0  0  0  0  0  0  0  0  0  0  0  0
   39.8810   27.1370   41.3030 C   0  0  0  0  0  0  0  0  0  0  0  0
   39.7980   26.0150   40.7660 O   0  0  0  0  0  0  0  0  0  0  0  0
   39.6890   26.3570   42.4270 O   0  0  0  0  0  0  0  0  0  0  0  0
   36.2890   31.3395   45.8107 H   0  0  0  0  0  0  0  0  0  0  0  0
   35.7849   29.6760   44.0541 H   0  0  0  0  0  0  0  0  0  0  0  0
   37.6328   28.7711   42.6458 H   0  0  0  0  0  0  0  0  0  0  0  0
   39.6760   31.5558   47.7267 H   0  0  0  0  0  0  0  0  0  0  0  0
   37.0577   33.1792   48.5696 H   0  0  0  0  0  0  0  0  0  0  0  0
   38.1264   33.9245   50.4437 H   0  0  0  0  0  0  0  0  0  0  0  0
   39.3670   32.6405   50.3847 H   0  0  0  0  0  0  0  0  0  0  0  0
   40.6461   33.8600   47.3713 H   0  0  0  0  0  0  0  0  0  0  0  0
   39.0218   34.5747   47.1833 H   0  0  0  0  0  0  0  0  0  0  0  0
   37.7964   28.6594   51.2698 H   0  0  0  0  0  0  0  0  0  0  0  0
   38.9289   30.8420   50.6588 H   0  0  0  0  0  0  0  0  0  0  0  0
   34.6793   29.4885   48.5053 H   0  0  0  0  0  0  0  0  0  0  0  0
   41.1767   30.1282   43.2540 H   0  0  0  0  0  0  0  0  0  0  0  0
   40.4455   28.4312   43.1331 H   0  0  0  0  0  0  0  0  0  0  0  0
   40.2470   29.4994   36.4876 H   0  0  0  0  0  0  0  0  0  0  0  0
   39.4710   30.4898   37.5392 H   0  0  0  0  0  0  0  0  0  0  0  0
   42.0204   28.6734   38.1550 H   0  0  0  0  0  0  0  0  0  0  0  0
   40.8864   31.6234   41.4675 H   0  0  0  0  0  0  0  0  0  0  0  0
   39.5451   31.2302   40.3471 H   0  0  0  0  0  0  0  0  0  0  0  0
   39.5835   25.3767   42.3372 H   0  0  0  0  0  0  0  0  0  0  0  0
  2  1  1  0
  2  3  2  0
  3  8  1  0
  4  3  1  0
  5  4  2  0
  6  7  2  0
  6  5  1  0
  7  2  1  0
  8  9  1  0
  9 13  1  0
  9 10  1  0
 10 16  1  0
 10 11  1  0
 12 11  1  0
 13 12  1  0
 15 14  2  0
 16 15  1  0
 17 18  1  0
 17 16  2  0
 18 19  2  0
 19 14  1  0
 20  7  1  0
 21 20  1  0
 22 30  1  0
 22 21  2  0
 23 22  1  0
 24 23  1  0
 25 24  2  0
 26 24  1  0
 27 26  1  0
 27 23  1  0
 27 28  1  0
 28 29  1  0
 29 21  1  0
 30 32  1  0
 31 30  2  0
  4 33  1  0
  5 34  1  0
  6 35  1  0
  9 36  1  1
 10 37  1  6
 11 38  1  0
 11 39  1  0
 13 40  1  0
 13 41  1  0
 14 42  1  0
 15 43  1  0
 18 44  1  0
 20 45  1  0
 20 46  1  0
 26 47  1  0
 26 48  1  0
 27 49  1  6
 29 50  1  0
 29 51  1  0
 32 52  1  0
M  ISO  8  33  14  34  14  35  14  36  13  37  13  38  13  39  13  40  13
M  ISO  8  41  13  42  14  43  14  44  14  45   8  46   8  47  13  48  13
M  ISO  4  49  13  50  13  51  13  52   3
M  END
>  <minimizedAffinity>  (1) 
-6.22116041

>  <minimizedRMSD>  (1) 
0.919803381

$$$$
