
     RDKit          3D

 47 50  0  0  1  0  0  0  0  0999 V2000
   36.9930   30.5900   50.5220 C   0  0  0  0  0  0  0  0  0  0  0  0
   37.8820   30.8220   49.4750 C   0  0  0  0  0  0  0  0  0  0  0  0
   37.5500   30.4210   48.2090 C   0  0  0  0  0  0  0  0  0  0  0  0
   36.3290   29.7930   48.0280 N   0  0  0  0  0  0  0  0  0  0  0  0
   35.5160   29.5950   49.0590 C   0  0  0  0  0  0  0  0  0  0  0  0
   35.8370   29.9880   50.3060 N   0  0  0  0  0  0  0  0  0  0  0  0
   38.5770   30.6480   46.7770 S   0  0  0  0  0  0  0  0  0  0  0  0
   39.7500   33.0110   46.1710 N   0  0  0  0  0  0  0  0  0  0  0  0
   38.4620   32.3960   46.2080 C   0  0  1  0  0  0  0  0  0  0  0  0
   37.8520   32.3310   44.8280 C   0  0  0  0  0  0  0  0  0  0  0  0
   38.7720   31.5750   43.9830 N   0  0  0  0  0  0  0  0  0  0  0  0
   39.9470   32.4610   43.8300 C   0  0  0  0  0  0  0  0  0  0  0  0
   40.6310   32.4630   45.1910 C   0  0  2  0  0  0  0  0  0  0  0  0
   41.0700   31.1290   45.5070 N   0  0  0  0  0  0  0  0  0  0  0  0
   34.1960   28.9060   48.8070 C   0  0  0  0  0  0  0  0  0  0  0  0
   33.9150   29.0730   47.3850 C   0  0  0  0  0  0  0  0  0  0  0  0
   33.7870   28.0700   46.5210 C   0  0  0  0  0  0  0  0  0  0  0  0
   33.5020   28.3620   45.1570 N   0  0  0  0  0  0  0  0  0  0  0  0
   33.7500   28.1780   43.7680 C   0  0  0  0  0  0  0  0  0  0  0  0
   34.0920   27.1600   43.1130 O   0  0  0  0  0  0  0  0  0  0  0  0
   33.4160   29.6440   43.6290 C   0  0  0  0  0  0  0  0  0  0  0  0
   32.4640   29.3010   44.7530 C   0  0  2  0  0  0  0  0  0  0  0  0
   32.3470   30.6740   45.9270 S   0  0  0  0  0  0  0  0  0  0  0  0
   33.8060   30.5060   47.0210 C   0  0  0  0  0  0  0  0  0  0  0  0
   33.9220   26.6510   46.9230 C   0  0  0  0  0  0  0  0  0  0  0  0
   33.7620   25.9800   47.9570 O   0  0  0  0  0  0  0  0  0  0  0  0
   34.3140   25.6280   46.0970 O   0  0  0  0  0  0  0  0  0  0  0  0
   37.2565   30.9117   51.5404 H   0  0  0  0  0  0  0  0  0  0  0  0
   38.8428   31.3232   49.6640 H   0  0  0  0  0  0  0  0  0  0  0  0
   39.6240   34.0129   45.9681 H   0  0  0  0  0  0  0  0  0  0  0  0
   37.8536   33.0052   46.8926 H   0  0  0  0  0  0  0  0  0  0  0  0
   36.8768   31.8239   44.8708 H   0  0  0  0  0  0  0  0  0  0  0  0
   37.6927   33.3417   44.4241 H   0  0  0  0  0  0  0  0  0  0  0  0
   39.0399   30.6902   44.4371 H   0  0  0  0  0  0  0  0  0  0  0  0
   40.6263   32.0698   43.0583 H   0  0  0  0  0  0  0  0  0  0  0  0
   39.6573   33.4746   43.5159 H   0  0  0  0  0  0  0  0  0  0  0  0
   41.5259   33.1025   45.1761 H   0  0  0  0  0  0  0  0  0  0  0  0
   41.1081   31.0133   46.5298 H   0  0  0  0  0  0  0  0  0  0  0  0
   40.4092   30.4467   45.1087 H   0  0  0  0  0  0  0  0  0  0  0  0
   34.2693   27.8376   49.0584 H   0  0  0  0  0  0  0  0  0  0  0  0
   33.3950   29.3348   49.4271 H   0  0  0  0  0  0  0  0  0  0  0  0
   34.2235   30.3476   43.8798 H   0  0  0  0  0  0  0  0  0  0  0  0
   33.1280   30.1373   42.6890 H   0  0  0  0  0  0  0  0  0  0  0  0
   31.4112   29.0202   44.6025 H   0  0  0  0  0  0  0  0  0  0  0  0
   34.7139   30.8310   46.4918 H   0  0  0  0  0  0  0  0  0  0  0  0
   33.6958   31.1310   47.9195 H   0  0  0  0  0  0  0  0  0  0  0  0
   34.3781   24.7048   46.4486 H   0  0  0  0  0  0  0  0  0  0  0  0
  2  1  2  0
  3  2  1  0
  4  3  2  0
  4  5  1  0
  5  6  2  0
  6  1  1  0
  7  3  1  0
  8  9  1  0
  9  7  1  0
 10  9  1  0
 11 10  1  0
 12 11  1  0
 12 13  1  0
 13 14  1  0
 13  8  1  0
 15  5  1  0
 16 15  1  0
 17 25  1  0
 17 16  2  0
 18 17  1  0
 19 18  1  0
 20 19  2  0
 21 19  1  0
 22 21  1  0
 22 18  1  0
 22 23  1  0
 23 24  1  0
 24 16  1  0
 25 26  2  0
 27 25  1  0
  1 28  1  0
  2 29  1  0
  8 30  1  0
  9 31  1  1
 10 32  1  0
 10 33  1  0
 11 34  1  0
 12 35  1  0
 12 36  1  0
 13 37  1  6
 14 38  1  0
 14 39  1  0
 15 40  1  0
 15 41  1  0
 21 42  1  0
 21 43  1  0
 22 44  1  6
 24 45  1  0
 24 46  1  0
 27 47  1  0
M  ISO  8  28  14  29  14  30   5  31  13  32  13  33  13  34   5  35  13
M  ISO  8  36  13  37  13  38   5  39   5  40   8  41   8  42  13  43  13
M  ISO  4  44  13  45  13  46  13  47   3
M  END
>  <minimizedAffinity>  (1) 
-5.55605078

>  <minimizedRMSD>  (1) 
1.74235487

$$$$
