
     RDKit          3D

 32 33  0  0  0  0  0  0  0  0999 V2000
   39.4310   32.6460   46.7060 C   0  0  0  0  0  0  0  0  0  0  0  0
   38.1310   30.9760   47.9270 C   0  0  0  0  0  0  0  0  0  0  0  0
   38.7750   32.1100   47.9470 C   0  0  0  0  0  0  0  0  0  0  0  0
   37.3280   30.2060   51.4830 C   0  0  0  0  0  0  0  0  0  0  0  0
   37.9780   30.7560   50.3610 C   0  0  0  0  0  0  0  0  0  0  0  0
   37.4980   30.4370   49.0930 C   0  0  0  0  0  0  0  0  0  0  0  0
   36.4240   29.6120   48.9760 N   0  0  0  0  0  0  0  0  0  0  0  0
   35.8350   29.1100   50.0670 C   0  0  0  0  0  0  0  0  0  0  0  0
   36.2650   29.3910   51.3140 N   0  0  0  0  0  0  0  0  0  0  0  0
   38.5870   31.9870   45.2370 S   0  0  0  0  0  0  0  0  0  0  0  0
   39.4540   30.5060   44.6780 C   0  0  0  0  0  0  0  0  0  0  0  0
   38.4700   29.6740   43.9000 C   0  0  0  0  0  0  0  0  0  0  0  0
   38.0340   30.3440   42.6200 C   0  0  0  0  0  0  0  0  0  0  0  0
   39.0960   30.8950   41.9070 O   0  0  0  0  0  0  0  0  0  0  0  0
   39.8260   31.8090   42.6710 C   0  0  0  0  0  0  0  0  0  0  0  0
   40.5450   30.9490   43.7180 C   0  0  0  0  0  0  0  0  0  0  0  0
   39.3670   33.7441   46.7032 H   0  0  0  0  0  0  0  0  0  0  0  0
   40.4871   32.3387   46.6892 H   0  0  0  0  0  0  0  0  0  0  0  0
   38.0721   30.4148   46.9828 H   0  0  0  0  0  0  0  0  0  0  0  0
   38.8387   32.6815   48.8847 H   0  0  0  0  0  0  0  0  0  0  0  0
   37.6862   30.4403   52.4963 H   0  0  0  0  0  0  0  0  0  0  0  0
   38.8448   31.4221   50.4833 H   0  0  0  0  0  0  0  0  0  0  0  0
   34.9685   28.4439   49.9426 H   0  0  0  0  0  0  0  0  0  0  0  0
   39.8735   29.9419   45.5241 H   0  0  0  0  0  0  0  0  0  0  0  0
   38.9402   28.7110   43.6520 H   0  0  0  0  0  0  0  0  0  0  0  0
   37.5770   29.5373   44.5276 H   0  0  0  0  0  0  0  0  0  0  0  0
   37.5353   29.5969   41.9851 H   0  0  0  0  0  0  0  0  0  0  0  0
   37.3573   31.1673   42.8926 H   0  0  0  0  0  0  0  0  0  0  0  0
   40.5528   32.3465   42.0441 H   0  0  0  0  0  0  0  0  0  0  0  0
   39.1848   32.5762   43.1296 H   0  0  0  0  0  0  0  0  0  0  0  0
   41.0195   30.0776   43.2431 H   0  0  0  0  0  0  0  0  0  0  0  0
   41.3457   31.5034   44.2294 H   0  0  0  0  0  0  0  0  0  0  0  0
  1  3  1  0
  2  3  2  0
  2  6  1  0
  5  4  2  0
  6  5  1  0
  7  6  2  0
  7  8  1  0
  8  9  2  0
  9  4  1  0
 10  1  1  0
 11 10  1  0
 12 11  1  0
 13 12  1  0
 14 13  1  0
 14 15  1  0
 15 16  1  0
 16 11  1  0
  1 17  1  0
  1 18  1  0
  2 19  1  0
  3 20  1  0
  4 21  1  0
  5 22  1  0
  8 23  1  0
 11 24  1  0
 12 25  1  0
 12 26  1  0
 13 27  1  0
 13 28  1  0
 15 29  1  0
 15 30  1  0
 16 31  1  0
 16 32  1  0
M  ISO  8  17   8  18   8  21  14  22  14  23  14  24  13  25  13  26  13
M  ISO  6  27  13  28  13  29  13  30  13  31  13  32  13
M  END
>  <minimizedAffinity>  (1) 
-4.88276911

>  <minimizedRMSD>  (1) 
2.50064659

$$$$
