
     RDKit          3D

 43 46  0  0  0  0  0  0  0  0999 V2000
   35.5860   29.4100   50.5060 C   0  0  0  0  0  0  0  0  0  0  0  0
   36.3490   30.1820   49.6130 C   0  0  0  0  0  0  0  0  0  0  0  0
   36.1010   29.9960   48.2340 C   0  0  0  0  0  0  0  0  0  0  0  0
   35.1750   29.1150   47.8620 N   0  0  0  0  0  0  0  0  0  0  0  0
   34.4640   28.3940   48.7360 C   0  0  0  0  0  0  0  0  0  0  0  0
   34.6700   28.5440   50.0410 N   0  0  0  0  0  0  0  0  0  0  0  0
   36.8590   30.7670   47.2310 C   0  0  0  0  0  0  0  0  0  0  0  0
   37.7920   31.7040   47.3390 C   0  0  0  0  0  0  0  0  0  0  0  0
   38.3230   32.2490   46.2330 C   0  0  0  0  0  0  0  0  0  0  0  0
   37.8700   31.8020   45.0160 C   0  0  0  0  0  0  0  0  0  0  0  0
   36.6260   30.5470   45.5070 S   0  0  0  0  0  0  0  0  0  0  0  0
   40.6720   31.0210   44.1050 Cl  0  0  0  0  0  0  0  0  0  0  0  0
   39.4180   31.8120   43.1680 C   0  0  0  0  0  0  0  0  0  0  0  0
   38.1840   32.1300   43.6450 C   0  0  0  0  0  0  0  0  0  0  0  0
   37.1970   32.7330   42.9670 C   0  0  0  0  0  0  0  0  0  0  0  0
   37.4400   33.0770   41.6290 C   0  0  0  0  0  0  0  0  0  0  0  0
   38.6500   32.7910   41.0810 C   0  0  0  0  0  0  0  0  0  0  0  0
   38.9960   33.2030   39.4160 Cl  0  0  0  0  0  0  0  0  0  0  0  0
   39.6360   32.1620   41.8400 C   0  0  0  0  0  0  0  0  0  0  0  0
   33.4810   27.4650   48.2140 C   0  0  0  0  0  0  0  0  0  0  0  0
   33.8530   26.3230   47.8580 O   0  0  0  0  0  0  0  0  0  0  0  0
   32.0770   27.9190   48.1290 C   0  0  0  0  0  0  0  0  0  0  0  0
   31.6350   28.3670   46.7780 C   0  0  0  0  0  0  0  0  0  0  0  0
   30.2040   28.8840   46.9630 C   0  0  0  0  0  0  0  0  0  0  0  0
   29.3280   27.8620   47.2980 O   0  0  0  0  0  0  0  0  0  0  0  0
   29.9410   26.6760   47.6300 C   0  0  0  0  0  0  0  0  0  0  0  0
   31.1100   26.8320   48.5670 C   0  0  0  0  0  0  0  0  0  0  0  0
   35.7395   29.5153   51.5901 H   0  0  0  0  0  0  0  0  0  0  0  0
   37.1040   30.8976   49.9707 H   0  0  0  0  0  0  0  0  0  0  0  0
   38.1297   32.0336   48.3326 H   0  0  0  0  0  0  0  0  0  0  0  0
   39.0962   33.0286   46.2994 H   0  0  0  0  0  0  0  0  0  0  0  0
   36.2298   32.9505   43.4436 H   0  0  0  0  0  0  0  0  0  0  0  0
   36.6608   33.5721   41.0309 H   0  0  0  0  0  0  0  0  0  0  0  0
   40.6086   31.9375   41.3777 H   0  0  0  0  0  0  0  0  0  0  0  0
   32.0567   28.7876   48.8036 H   0  0  0  0  0  0  0  0  0  0  0  0
   31.6506   27.5252   46.0701 H   0  0  0  0  0  0  0  0  0  0  0  0
   32.2986   29.1432   46.3693 H   0  0  0  0  0  0  0  0  0  0  0  0
   30.1978   29.6361   47.7657 H   0  0  0  0  0  0  0  0  0  0  0  0
   29.8718   29.3214   46.0099 H   0  0  0  0  0  0  0  0  0  0  0  0
   29.1965   26.0247   48.1112 H   0  0  0  0  0  0  0  0  0  0  0  0
   30.3362   26.2497   46.6962 H   0  0  0  0  0  0  0  0  0  0  0  0
   31.6531   25.8765   48.6129 H   0  0  0  0  0  0  0  0  0  0  0  0
   30.7095   27.1224   49.5495 H   0  0  0  0  0  0  0  0  0  0  0  0
  2  1  2  0
  3  2  1  0
  4  3  2  0
  4  5  1  0
  5  6  2  0
  6  1  1  0
  7  8  2  0
  7  3  1  0
  9  8  1  0
 10 11  1  0
 10  9  2  0
 11  7  1  0
 13 14  2  0
 13 12  1  0
 14 10  1  0
 15 14  1  0
 16 15  2  0
 17 16  1  0
 17 19  2  0
 18 17  1  0
 19 13  1  0
 20  5  1  0
 21 20  2  0
 22 20  1  0
 22 27  1  0
 23 24  1  0
 23 22  1  0
 24 25  1  0
 25 26  1  0
 26 27  1  0
  1 28  1  0
  2 29  1  0
  8 30  1  0
  9 31  1  0
 15 32  1  0
 16 33  1  0
 19 34  1  0
 22 35  1  0
 23 36  1  0
 23 37  1  0
 24 38  1  0
 24 39  1  0
 26 40  1  0
 26 41  1  0
 27 42  1  0
 27 43  1  0
M  ISO  8  28  14  29  14  30  14  31  14  32  14  33  14  34  14  35  13
M  ISO  8  36  13  37  13  38  13  39  13  40  13  41  13  42  13  43  13
M  END
>  <minimizedAffinity>  (1) 
-5.837502

>  <minimizedRMSD>  (1) 
2.78438497

$$$$
