
     RDKit          3D

 35 37  0  0  0  0  0  0  0  0999 V2000
   35.8770   29.2020   49.7290 C   0  0  0  0  0  0  0  0  0  0  0  0
   34.8200   29.7480   50.3790 C   0  0  0  0  0  0  0  0  0  0  0  0
   33.6520   29.1500   49.9250 C   0  0  0  0  0  0  0  0  0  0  0  0
   34.0940   28.2240   48.9720 C   0  0  0  0  0  0  0  0  0  0  0  0
   35.3810   28.3210   48.9240 O   0  0  0  0  0  0  0  0  0  0  0  0
   37.2490   29.6070   49.9740 C   0  0  0  0  0  0  0  0  0  0  0  0
   37.8780   29.0950   50.9000 O   0  0  0  0  0  0  0  0  0  0  0  0
   37.8020   30.6210   49.0800 C   0  0  0  0  0  0  0  0  0  0  0  0
   38.1720   31.8380   49.6640 C   0  0  0  0  0  0  0  0  0  0  0  0
   38.7000   32.8230   48.8420 C   0  0  0  0  0  0  0  0  0  0  0  0
   38.8320   32.5510   47.5000 N   0  0  0  0  0  0  0  0  0  0  0  0
   38.4640   31.3680   46.9730 C   0  0  0  0  0  0  0  0  0  0  0  0
   37.9500   30.4010   47.7560 N   0  0  0  0  0  0  0  0  0  0  0  0
   33.2040   27.3340   48.2030 C   0  0  0  0  0  0  0  0  0  0  0  0
   31.9680   27.3290   48.4760 O   0  0  0  0  0  0  0  0  0  0  0  0
   33.8130   26.5040   47.1590 C   0  0  0  0  0  0  0  0  0  0  0  0
   33.4630   26.9020   45.7650 C   0  0  0  0  0  0  0  0  0  0  0  0
   34.2440   25.9740   44.8340 C   0  0  0  0  0  0  0  0  0  0  0  0
   34.7930   24.8890   45.4970 O   0  0  0  0  0  0  0  0  0  0  0  0
   33.8120   24.1840   46.2090 C   0  0  0  0  0  0  0  0  0  0  0  0
   33.4040   25.0730   47.3830 C   0  0  0  0  0  0  0  0  0  0  0  0
   34.8783   30.5374   51.1428 H   0  0  0  0  0  0  0  0  0  0  0  0
   32.6186   29.3560   50.2408 H   0  0  0  0  0  0  0  0  0  0  0  0
   38.0477   32.0085   50.7436 H   0  0  0  0  0  0  0  0  0  0  0  0
   39.0053   33.7966   49.2529 H   0  0  0  0  0  0  0  0  0  0  0  0
   38.5843   31.1902   45.8942 H   0  0  0  0  0  0  0  0  0  0  0  0
   34.9007   26.6430   47.2461 H   0  0  0  0  0  0  0  0  0  0  0  0
   32.3821   26.7851   45.5974 H   0  0  0  0  0  0  0  0  0  0  0  0
   33.7179   27.9557   45.5785 H   0  0  0  0  0  0  0  0  0  0  0  0
   35.0570   26.5483   44.3659 H   0  0  0  0  0  0  0  0  0  0  0  0
   33.5382   25.5835   44.0861 H   0  0  0  0  0  0  0  0  0  0  0  0
   32.9438   23.9848   45.5637 H   0  0  0  0  0  0  0  0  0  0  0  0
   34.1950   23.2141   46.5592 H   0  0  0  0  0  0  0  0  0  0  0  0
   33.8887   24.7017   48.2980 H   0  0  0  0  0  0  0  0  0  0  0  0
   32.3087   25.0378   47.4784 H   0  0  0  0  0  0  0  0  0  0  0  0
  1  6  1  0
  1  2  2  0
  3  2  1  0
  4  3  2  0
  5  4  1  0
  5  1  1  0
  6  7  2  0
  8  9  2  0
  8  6  1  0
 10  9  1  0
 11 10  2  0
 12 11  1  0
 12 13  2  0
 13  8  1  0
 14 15  2  0
 14  4  1  0
 16 21  1  0
 16 14  1  0
 17 16  1  0
 18 19  1  0
 18 17  1  0
 19 20  1  0
 20 21  1  0
  2 22  1  0
  3 23  1  0
  9 24  1  0
 10 25  1  0
 12 26  1  0
 16 27  1  0
 17 28  1  0
 17 29  1  0
 18 30  1  0
 18 31  1  0
 20 32  1  0
 20 33  1  0
 21 34  1  0
 21 35  1  0
M  ISO  8  22  14  23  14  24  14  25  14  26  14  27  13  28  13  29  13
M  ISO  6  30  13  31  13  32  13  33  13  34  13  35  13
M  END
>  <minimizedAffinity>  (1) 
-5.21144772

>  <minimizedRMSD>  (1) 
0.915952027

$$$$
