
     RDKit          3D

 37 39  0  0  0  0  0  0  0  0999 V2000
   37.4480   31.0900   47.0750 N   0  0  0  0  0  0  0  0  0  0  0  0
   36.8690   30.7150   45.9030 C   0  0  0  0  0  0  0  0  0  0  0  0
   37.3320   31.1690   44.6750 C   0  0  0  0  0  0  0  0  0  0  0  0
   38.4360   32.0410   44.6870 C   0  0  0  0  0  0  0  0  0  0  0  0
   38.8860   32.4740   43.6020 O   0  0  0  0  0  0  0  0  0  0  0  0
   39.0110   32.4100   45.8750 N   0  0  0  0  0  0  0  0  0  0  0  0
   38.4750   31.9080   46.9780 C   0  0  0  0  0  0  0  0  0  0  0  0
   39.0290   32.2720   48.0420 O   0  0  0  0  0  0  0  0  0  0  0  0
   36.6760   30.7400   43.4490 C   0  0  0  0  0  0  0  0  0  0  0  0
   35.4800   31.6000   43.0750 C   0  0  0  0  0  0  0  0  0  0  0  0
   34.9370   31.0480   41.7750 C   0  0  0  0  0  0  0  0  0  0  0  0
   35.7880   30.1360   41.1690 O   0  0  0  0  0  0  0  0  0  0  0  0
   35.9890   28.9950   41.9280 C   0  0  0  0  0  0  0  0  0  0  0  0
   36.2160   29.3170   43.4110 C   0  0  0  0  0  0  0  0  0  0  0  0
   37.3030   29.5900   50.4670 C   0  0  0  0  0  0  0  0  0  0  0  0
   37.7910   30.0530   49.2350 C   0  0  0  0  0  0  0  0  0  0  0  0
   36.9630   30.6220   48.3010 C   0  0  0  0  0  0  0  0  0  0  0  0
   35.6350   30.7220   48.6080 N   0  0  0  0  0  0  0  0  0  0  0  0
   35.1400   30.2790   49.7950 C   0  0  0  0  0  0  0  0  0  0  0  0
   35.9650   29.7150   50.7210 N   0  0  0  0  0  0  0  0  0  0  0  0
   40.1540   33.3050   45.8800 C   0  0  0  0  0  0  0  0  0  0  0  0
   40.0140   34.2630   44.9300 F   0  0  0  0  0  0  0  0  0  0  0  0
   41.3410   32.6490   45.5970 F   0  0  0  0  0  0  0  0  0  0  0  0
   40.2290   33.9300   47.1180 F   0  0  0  0  0  0  0  0  0  0  0  0
   36.0077   30.0312   45.9285 H   0  0  0  0  0  0  0  0  0  0  0  0
   37.4943   30.8551   42.7230 H   0  0  0  0  0  0  0  0  0  0  0  0
   34.7122   31.5439   43.8607 H   0  0  0  0  0  0  0  0  0  0  0  0
   35.7702   32.6554   42.9661 H   0  0  0  0  0  0  0  0  0  0  0  0
   33.9789   30.5483   41.9808 H   0  0  0  0  0  0  0  0  0  0  0  0
   34.8218   31.8958   41.0836 H   0  0  0  0  0  0  0  0  0  0  0  0
   35.1034   28.3489   41.8375 H   0  0  0  0  0  0  0  0  0  0  0  0
   36.8917   28.4929   41.5498 H   0  0  0  0  0  0  0  0  0  0  0  0
   35.2797   29.2011   43.9766 H   0  0  0  0  0  0  0  0  0  0  0  0
   36.9532   28.6391   43.8660 H   0  0  0  0  0  0  0  0  0  0  0  0
   37.9787   29.1387   51.2084 H   0  0  0  0  0  0  0  0  0  0  0  0
   38.8641   29.9572   49.0130 H   0  0  0  0  0  0  0  0  0  0  0  0
   34.0654   30.3769   50.0089 H   0  0  0  0  0  0  0  0  0  0  0  0
  1 17  1  0
  2  1  1  0
  3  4  1  0
  3  2  2  0
  4  6  1  0
  5  4  2  0
  6 21  1  0
  6  7  1  0
  7  1  1  0
  7  8  2  0
  9  3  1  0
 10  9  1  0
 11 10  1  0
 12 11  1  0
 12 13  1  0
 13 14  1  0
 14  9  1  0
 15 20  2  0
 16 15  1  0
 17 18  1  0
 17 16  2  0
 18 19  2  0
 19 20  1  0
 21 24  1  0
 22 21  1  0
 23 21  1  0
  2 25  1  0
  9 26  1  0
 10 27  1  0
 10 28  1  0
 11 29  1  0
 11 30  1  0
 13 31  1  0
 13 32  1  0
 14 33  1  0
 14 34  1  0
 15 35  1  0
 16 36  1  0
 19 37  1  0
M  ISO  8  25  14  26  13  27  13  28  13  29  13  30  13  31  13  32  13
M  ISO  5  33  13  34  13  35  14  36  14  37  14
M  END
>  <minimizedAffinity>  (1) 
-6.11565065

>  <minimizedRMSD>  (1) 
0.717579126

$$$$
