
     RDKit          3D

 35 37  0  0  0  0  0  0  0  0999 V2000
   37.0480   29.6820   49.7510 C   0  0  0  0  0  0  0  0  0  0  0  0
   37.6840   30.3640   48.7010 C   0  0  0  0  0  0  0  0  0  0  0  0
   36.9810   30.5070   47.5250 C   0  0  0  0  0  0  0  0  0  0  0  0
   35.7290   29.9930   47.4360 N   0  0  0  0  0  0  0  0  0  0  0  0
   35.1430   29.3430   48.4620 C   0  0  0  0  0  0  0  0  0  0  0  0
   35.8130   29.1920   49.6210 N   0  0  0  0  0  0  0  0  0  0  0  0
   33.7690   28.8210   48.2550 C   0  0  0  0  0  0  0  0  0  0  0  0
   33.8700   27.2970   48.2560 C   0  0  0  0  0  0  0  0  0  0  0  0
   32.4140   26.8740   48.0490 C   0  0  0  0  0  0  0  0  0  0  0  0
   32.1260   27.1040   46.7370 O   0  0  0  0  0  0  0  0  0  0  0  0
   32.3610   28.3300   46.2200 C   0  0  0  0  0  0  0  0  0  0  0  0
   33.0950   29.3310   47.0300 C   0  0  0  0  0  0  0  0  0  0  0  0
   37.4970   31.1930   46.3260 C   0  0  0  0  0  0  0  0  0  0  0  0
   36.9100   31.0820   45.0910 C   0  0  0  0  0  0  0  0  0  0  0  0
   37.3950   31.7240   43.9750 C   0  0  0  0  0  0  0  0  0  0  0  0
   38.4950   32.5010   44.0810 N   0  0  0  0  0  0  0  0  0  0  0  0
   39.0570   32.6000   45.2870 C   0  0  0  0  0  0  0  0  0  0  0  0
   38.5930   31.9820   46.3720 N   0  0  0  0  0  0  0  0  0  0  0  0
   40.2710   33.4520   45.4280 C   0  0  0  0  0  0  0  0  0  0  0  0
   40.2990   33.9480   46.7280 F   0  0  0  0  0  0  0  0  0  0  0  0
   41.4300   32.7030   45.1710 F   0  0  0  0  0  0  0  0  0  0  0  0
   40.2670   34.5130   44.5890 F   0  0  0  0  0  0  0  0  0  0  0  0
   37.5806   29.5482   50.7041 H   0  0  0  0  0  0  0  0  0  0  0  0
   38.7013   30.7673   48.8129 H   0  0  0  0  0  0  0  0  0  0  0  0
   33.1256   29.1833   49.0704 H   0  0  0  0  0  0  0  0  0  0  0  0
   34.5093   26.9395   47.4353 H   0  0  0  0  0  0  0  0  0  0  0  0
   34.3225   26.8860   49.1705 H   0  0  0  0  0  0  0  0  0  0  0  0
   32.2917   25.8062   48.2832 H   0  0  0  0  0  0  0  0  0  0  0  0
   31.7386   27.4383   48.7089 H   0  0  0  0  0  0  0  0  0  0  0  0
   32.9361   28.1827   45.2939 H   0  0  0  0  0  0  0  0  0  0  0  0
   31.3562   28.7655   46.1161 H   0  0  0  0  0  0  0  0  0  0  0  0
   33.8648   29.7830   46.3873 H   0  0  0  0  0  0  0  0  0  0  0  0
   32.3307   30.0367   47.3876 H   0  0  0  0  0  0  0  0  0  0  0  0
   36.0134   30.4529   44.9887 H   0  0  0  0  0  0  0  0  0  0  0  0
   36.8912   31.6056   43.0043 H   0  0  0  0  0  0  0  0  0  0  0  0
  2  1  2  0
  3  2  1  0
  4  3  2  0
  4  5  1  0
  5  6  2  0
  6  1  1  0
  7  8  1  0
  7  5  1  0
  9  8  1  0
 10  9  1  0
 11 10  1  0
 11 12  1  0
 12  7  1  0
 13 18  1  0
 13  3  1  0
 14 13  2  0
 15 16  2  0
 15 14  1  0
 16 17  1  0
 17 19  1  0
 17 18  2  0
 19 20  1  0
 21 19  1  0
 22 19  1  0
  1 23  1  0
  2 24  1  0
  7 25  1  0
  8 26  1  0
  8 27  1  0
  9 28  1  0
  9 29  1  0
 11 30  1  0
 11 31  1  0
 12 32  1  0
 12 33  1  0
 14 34  1  0
 15 35  1  0
M  ISO  8  23  14  24  14  25  13  26  13  27  13  28  13  29  13  30  13
M  ISO  5  31  13  32  13  33  13  34  14  35  14
M  END
>  <minimizedAffinity>  (1) 
-6.0286746

>  <minimizedRMSD>  (1) 
1.78881097

$$$$
