
     RDKit          3D

 36 38  0  0  1  0  0  0  0  0999 V2000
   37.1310   31.3110   49.3260 C   0  0  0  0  0  0  0  0  0  0  0  0
   37.3070   32.5690   49.8960 C   0  0  0  0  0  0  0  0  0  0  0  0
   38.2310   33.3760   49.2330 C   0  0  0  0  0  0  0  0  0  0  0  0
   38.8920   32.9310   48.1130 N   0  0  0  0  0  0  0  0  0  0  0  0
   38.6830   31.6960   47.5980 C   0  0  0  0  0  0  0  0  0  0  0  0
   37.7800   30.8720   48.2260 N   0  0  0  0  0  0  0  0  0  0  0  0
   39.4170   31.2770   46.4010 C   0  0  0  0  0  0  0  0  0  0  0  0
   40.0220   32.5250   45.8030 C   0  0  0  0  0  0  0  0  0  0  0  0
   40.5380   32.2180   44.4330 C   0  0  0  0  0  0  0  0  0  0  0  0
   40.7160   30.8460   44.2530 O   0  0  0  0  0  0  0  0  0  0  0  0
   39.5070   30.1590   44.2380 C   0  0  0  0  0  0  0  0  0  0  0  0
   38.6160   30.4870   45.4120 C   0  0  0  0  0  0  0  0  0  0  0  0
   36.1240   30.4170   49.9960 C   0  0  1  0  0  0  0  0  0  0  0  0
   34.9350   29.9350   49.2950 C   0  0  2  0  0  0  0  0  0  0  0  0
   36.1060   29.0030   49.3810 C   0  0  0  0  0  0  0  0  0  0  0  0
   34.6320   30.5270   48.0780 O   0  0  0  0  0  0  0  0  0  0  0  0
   33.9200   30.0470   47.0300 C   0  0  0  0  0  0  0  0  0  0  0  0
   34.1420   28.9250   46.5280 O   0  0  0  0  0  0  0  0  0  0  0  0
   32.9710   31.0060   46.6720 N   0  0  0  0  0  0  0  0  0  0  0  0
   36.7631   32.8985   50.7936 H   0  0  0  0  0  0  0  0  0  0  0  0
   38.4347   34.3878   49.6135 H   0  0  0  0  0  0  0  0  0  0  0  0
   40.1968   30.5589   46.6948 H   0  0  0  0  0  0  0  0  0  0  0  0
   39.2548   33.3107   45.7389 H   0  0  0  0  0  0  0  0  0  0  0  0
   40.8495   32.8737   46.4384 H   0  0  0  0  0  0  0  0  0  0  0  0
   39.8174   32.5864   43.6880 H   0  0  0  0  0  0  0  0  0  0  0  0
   41.5126   32.7131   44.3105 H   0  0  0  0  0  0  0  0  0  0  0  0
   38.9718   30.4154   43.3118 H   0  0  0  0  0  0  0  0  0  0  0  0
   39.7425   29.0862   44.2990 H   0  0  0  0  0  0  0  0  0  0  0  0
   37.7547   31.0805   45.0715 H   0  0  0  0  0  0  0  0  0  0  0  0
   38.2438   29.5620   45.8767 H   0  0  0  0  0  0  0  0  0  0  0  0
   36.2392   30.9005   50.9773 H   0  0  0  0  0  0  0  0  0  0  0  0
   33.8720   29.8308   49.5582 H   0  0  0  0  0  0  0  0  0  0  0  0
   36.0644   28.1146   50.0283 H   0  0  0  0  0  0  0  0  0  0  0  0
   36.7261   28.4415   48.6667 H   0  0  0  0  0  0  0  0  0  0  0  0
   32.3268   30.8257   45.8888 H   0  0  0  0  0  0  0  0  0  0  0  0
   32.9150   31.8939   47.1910 H   0  0  0  0  0  0  0  0  0  0  0  0
  1  2  2  0
  1 13  1  0
  3  2  1  0
  4  3  2  0
  5  4  1  0
  5  6  2  0
  6  1  1  0
  7  5  1  0
  8  7  1  0
  9  8  1  0
 10  9  1  0
 11 10  1  0
 11 12  1  0
 12  7  1  0
 14 15  1  0
 14 13  1  0
 15 13  1  0
 16 14  1  0
 17 16  1  0
 18 17  2  0
 19 17  1  0
  2 20  1  0
  3 21  1  0
  7 22  1  0
  8 23  1  0
  8 24  1  0
  9 25  1  0
  9 26  1  0
 11 27  1  0
 11 28  1  0
 12 29  1  0
 12 30  1  0
 13 31  1  1
 14 32  1  1
 15 33  1  0
 15 34  1  0
 19 35  1  0
 19 36  1  0
M  ISO  8  20  14  21  14  22  13  23  13  24  13  25  13  26  13  27  13
M  ISO  7  28  13  29  13  30  13  31  13  32  13  33  13  34  13
M  END
>  <minimizedAffinity>  (1) 
-6.24498987

>  <minimizedRMSD>  (1) 
2.93617797

$$$$
