
     RDKit          3D

 41 44  0  0  0  0  0  0  0  0999 V2000
   34.0740   28.4190   48.6720 C   0  0  0  0  0  0  0  0  0  0  0  0
   34.9000   28.2970   49.7480 C   0  0  0  0  0  0  0  0  0  0  0  0
   35.7580   29.2770   50.1910 C   0  0  0  0  0  0  0  0  0  0  0  0
   35.8140   30.4690   49.5300 C   0  0  0  0  0  0  0  0  0  0  0  0
   34.9680   30.6000   48.4270 C   0  0  0  0  0  0  0  0  0  0  0  0
   34.1430   29.6130   48.0270 N   0  0  0  0  0  0  0  0  0  0  0  0
   31.8050   27.3370   48.4740 C   0  0  0  0  0  0  0  0  0  0  0  0
   33.1870   27.3760   48.2320 C   0  0  0  0  0  0  0  0  0  0  0  0
   33.7160   26.3170   47.5110 C   0  0  0  0  0  0  0  0  0  0  0  0
   32.8910   25.3140   47.0830 N   0  0  0  0  0  0  0  0  0  0  0  0
   31.5610   25.3370   47.3510 C   0  0  0  0  0  0  0  0  0  0  0  0
   31.0110   26.3490   48.0500 N   0  0  0  0  0  0  0  0  0  0  0  0
   36.6140   31.5710   49.8300 O   0  0  0  0  0  0  0  0  0  0  0  0
   37.5770   32.0510   48.9460 C   0  0  0  0  0  0  0  0  0  0  0  0
   38.2670   33.1560   49.4080 C   0  0  0  0  0  0  0  0  0  0  0  0
   39.1800   33.5090   48.4240 C   0  0  0  0  0  0  0  0  0  0  0  0
   39.0150   32.6310   47.4290 N   0  0  0  0  0  0  0  0  0  0  0  0
   38.0750   31.7750   47.7350 N   0  0  0  0  0  0  0  0  0  0  0  0
   39.7020   32.5300   46.1610 C   0  0  0  0  0  0  0  0  0  0  0  0
   40.2660   31.1620   45.9220 C   0  0  0  0  0  0  0  0  0  0  0  0
   41.0050   31.2260   44.5860 C   0  0  0  0  0  0  0  0  0  0  0  0
   40.1360   31.5710   43.5660 O   0  0  0  0  0  0  0  0  0  0  0  0
   39.7100   32.8880   43.7700 C   0  0  0  0  0  0  0  0  0  0  0  0
   38.7970   32.8630   44.9950 C   0  0  0  0  0  0  0  0  0  0  0  0
   34.8797   27.3471   50.3024 H   0  0  0  0  0  0  0  0  0  0  0  0
   36.3938   29.1008   51.0712 H   0  0  0  0  0  0  0  0  0  0  0  0
   34.9754   31.5446   47.8635 H   0  0  0  0  0  0  0  0  0  0  0  0
   31.3517   28.1626   49.0422 H   0  0  0  0  0  0  0  0  0  0  0  0
   34.7920   26.2836   47.2847 H   0  0  0  0  0  0  0  0  0  0  0  0
   30.9220   24.5167   46.9920 H   0  0  0  0  0  0  0  0  0  0  0  0
   38.1201   33.6609   50.3742 H   0  0  0  0  0  0  0  0  0  0  0  0
   39.8958   34.3436   48.4562 H   0  0  0  0  0  0  0  0  0  0  0  0
   40.5210   33.2617   46.2232 H   0  0  0  0  0  0  0  0  0  0  0  0
   40.9626   30.8916   46.7292 H   0  0  0  0  0  0  0  0  0  0  0  0
   39.4714   30.4016   45.9016 H   0  0  0  0  0  0  0  0  0  0  0  0
   41.8043   31.9790   44.6504 H   0  0  0  0  0  0  0  0  0  0  0  0
   41.4324   30.2360   44.3688 H   0  0  0  0  0  0  0  0  0  0  0  0
   40.5744   33.5431   43.9535 H   0  0  0  0  0  0  0  0  0  0  0  0
   39.1812   33.2766   42.8872 H   0  0  0  0  0  0  0  0  0  0  0  0
   38.3237   33.8449   45.1428 H   0  0  0  0  0  0  0  0  0  0  0  0
   37.9835   32.1307   44.8852 H   0  0  0  0  0  0  0  0  0  0  0  0
  1  2  2  0
  2  3  1  0
  4 13  1  0
  4  3  2  0
  5  4  1  0
  6  5  2  0
  6  1  1  0
  8  7  2  0
  8  1  1  0
  9  8  1  0
 10 11  1  0
 10  9  2  0
 11 12  2  0
 12  7  1  0
 14 15  1  0
 14 13  1  0
 16 15  2  0
 17 18  1  0
 17 16  1  0
 18 14  2  0
 19 17  1  0
 20 19  1  0
 21 20  1  0
 22 23  1  0
 22 21  1  0
 23 24  1  0
 24 19  1  0
  2 25  1  0
  3 26  1  0
  5 27  1  0
  7 28  1  0
  9 29  1  0
 11 30  1  0
 15 31  1  0
 16 32  1  0
 19 33  1  0
 20 34  1  0
 20 35  1  0
 21 36  1  0
 21 37  1  0
 23 38  1  0
 23 39  1  0
 24 40  1  0
 24 41  1  0
M  ISO  8  25  14  26  14  27  14  28  14  29  14  30  14  31  14  32  14
M  ISO  8  33  13  34  13  35  13  36  13  37  13  38  13  39  13  40  13
M  ISO  1  41  13
M  END
>  <minimizedAffinity>  (1) 
-6.52877808

>  <minimizedRMSD>  (1) 
1.90554321

$$$$
