
     RDKit          3D

 34 36  0  0  0  0  0  0  0  0999 V2000
   39.1100   32.0510   46.5450 C   0  0  0  0  0  0  0  0  0  0  0  0
   39.3900   33.2070   47.2320 C   0  0  0  0  0  0  0  0  0  0  0  0
   39.1520   33.4500   48.5640 C   0  0  0  0  0  0  0  0  0  0  0  0
   38.5830   32.4280   49.2380 N   0  0  0  0  0  0  0  0  0  0  0  0
   38.2830   31.2540   48.5950 C   0  0  0  0  0  0  0  0  0  0  0  0
   38.5380   31.0570   47.2750 N   0  0  0  0  0  0  0  0  0  0  0  0
   37.6570   30.1840   49.4200 C   0  0  0  0  0  0  0  0  0  0  0  0
   36.2150   29.9360   49.0430 C   0  0  0  0  0  0  0  0  0  0  0  0
   35.6980   28.8330   49.9290 C   0  0  0  0  0  0  0  0  0  0  0  0
   35.6540   29.3280   51.2270 O   0  0  0  0  0  0  0  0  0  0  0  0
   36.9130   29.6210   51.7220 C   0  0  0  0  0  0  0  0  0  0  0  0
   37.6760   30.6010   50.8690 C   0  0  0  0  0  0  0  0  0  0  0  0
   40.2700   30.5870   43.4260 C   0  0  0  0  0  0  0  0  0  0  0  0
   39.9970   31.5570   42.4460 C   0  0  0  0  0  0  0  0  0  0  0  0
   39.3920   32.7440   42.9140 C   0  0  0  0  0  0  0  0  0  0  0  0
   39.1160   32.8820   44.2330 N   0  0  0  0  0  0  0  0  0  0  0  0
   39.4100   31.9000   45.1150 C   0  0  0  0  0  0  0  0  0  0  0  0
   39.9880   30.7360   44.7410 N   0  0  0  0  0  0  0  0  0  0  0  0
   40.3080   31.3580   41.0820 N   0  0  0  0  0  0  0  0  0  0  0  0
   39.8525   34.0227   46.6569 H   0  0  0  0  0  0  0  0  0  0  0  0
   39.4063   34.4061   49.0449 H   0  0  0  0  0  0  0  0  0  0  0  0
   38.2342   29.2640   49.2458 H   0  0  0  0  0  0  0  0  0  0  0  0
   35.6237   30.8505   49.1982 H   0  0  0  0  0  0  0  0  0  0  0  0
   36.1353   29.6511   47.9835 H   0  0  0  0  0  0  0  0  0  0  0  0
   34.6899   28.5333   49.6066 H   0  0  0  0  0  0  0  0  0  0  0  0
   36.3522   27.9505   49.8721 H   0  0  0  0  0  0  0  0  0  0  0  0
   36.8012   30.0483   52.7295 H   0  0  0  0  0  0  0  0  0  0  0  0
   37.4860   28.6821   51.7309 H   0  0  0  0  0  0  0  0  0  0  0  0
   38.7185   30.6456   51.2170 H   0  0  0  0  0  0  0  0  0  0  0  0
   37.1985   31.5881   50.9563 H   0  0  0  0  0  0  0  0  0  0  0  0
   40.7427   29.6475   43.1036 H   0  0  0  0  0  0  0  0  0  0  0  0
   39.1459   33.5531   42.2105 H   0  0  0  0  0  0  0  0  0  0  0  0
   40.7493   30.4786   40.7774 H   0  0  0  0  0  0  0  0  0  0  0  0
   40.0933   32.0923   40.3924 H   0  0  0  0  0  0  0  0  0  0  0  0
  1  2  2  0
  1  6  1  0
  2  3  1  0
  3  4  2  0
  5  4  1  0
  5  7  1  0
  6  5  2  0
  7 12  1  0
  8  7  1  0
  8  9  1  0
  9 10  1  0
 10 11  1  0
 12 11  1  0
 13 18  2  0
 14 15  2  0
 14 13  1  0
 15 16  1  0
 16 17  2  0
 17  1  1  0
 18 17  1  0
 19 14  1  0
  2 20  1  0
  3 21  1  0
  7 22  1  0
  8 23  1  0
  8 24  1  0
  9 25  1  0
  9 26  1  0
 11 27  1  0
 11 28  1  0
 12 29  1  0
 12 30  1  0
 13 31  1  0
 15 32  1  0
 19 33  1  0
 19 34  1  0
M  ISO  8  20  14  21  14  22  13  23  13  24  13  25  13  26  13  27  13
M  ISO  5  28  13  29  13  30  13  31  14  32  14
M  END
>  <minimizedAffinity>  (1) 
-6.13951683

>  <minimizedRMSD>  (1) 
7.22836781

$$$$
