
     RDKit          3D

 23 25  0  0  1  0  0  0  0  0999 V2000
   37.0550   31.5030   47.5450 C   0  0  1  0  0  0  0  0  0  0  0  0
   36.2720   30.3350   47.1590 C   0  0  0  0  0  0  0  0  0  0  0  0
   37.4490   30.1320   48.0710 C   0  0  2  0  0  0  0  0  0  0  0  0
   38.0810   32.0920   46.6130 C   0  0  0  0  0  0  0  0  0  0  0  0
   39.2340   32.6370   47.2030 C   0  0  0  0  0  0  0  0  0  0  0  0
   40.1660   33.1950   46.3310 C   0  0  0  0  0  0  0  0  0  0  0  0
   39.9090   33.1800   44.9870 N   0  0  0  0  0  0  0  0  0  0  0  0
   38.7820   32.6440   44.4560 C   0  0  0  0  0  0  0  0  0  0  0  0
   37.8630   32.0960   45.2820 N   0  0  0  0  0  0  0  0  0  0  0  0
   37.2230   29.9790   49.5280 C   0  0  0  0  0  0  0  0  0  0  0  0
   37.9700   30.4510   50.5260 N   0  0  0  0  0  0  0  0  0  0  0  0
   37.4250   30.0940   51.6980 C   0  0  0  0  0  0  0  0  0  0  0  0
   36.3180   29.3870   51.4270 N   0  0  0  0  0  0  0  0  0  0  0  0
   36.2020   29.3210   50.0950 N   0  0  0  0  0  0  0  0  0  0  0  0
   36.7539   32.4820   47.9462 H   0  0  0  0  0  0  0  0  0  0  0  0
   35.2515   30.2095   47.5500 H   0  0  0  0  0  0  0  0  0  0  0  0
   35.9639   29.9019   46.1959 H   0  0  0  0  0  0  0  0  0  0  0  0
   38.3156   29.4549   48.0492 H   0  0  0  0  0  0  0  0  0  0  0  0
   39.3916   32.6237   48.2916 H   0  0  0  0  0  0  0  0  0  0  0  0
   41.0945   33.6410   46.7169 H   0  0  0  0  0  0  0  0  0  0  0  0
   38.6181   32.6551   43.3683 H   0  0  0  0  0  0  0  0  0  0  0  0
   37.8143   30.3364   52.6978 H   0  0  0  0  0  0  0  0  0  0  0  0
   35.6756   28.9715   52.1166 H   0  0  0  0  0  0  0  0  0  0  0  0
  1  3  1  0
  2  1  1  0
  2  3  1  0
  3 10  1  0
  4  5  2  0
  4  1  1  0
  6  5  1  0
  7  6  2  0
  8  7  1  0
  8  9  2  0
  9  4  1  0
 10 14  2  0
 10 11  1  0
 11 12  2  0
 13 12  1  0
 14 13  1  0
  1 15  1  1
  2 16  1  0
  2 17  1  0
  3 18  1  6
  5 19  1  0
  6 20  1  0
  8 21  1  0
 12 22  1  0
 13 23  1  0
M  ISO  8  15  13  16  13  17  13  18  13  19  14  20  14  21  14  22  14
M  ISO  1  23   9
M  END
>  <minimizedAffinity>  (1) 
-4.57973576

>  <minimizedRMSD>  (1) 
3.22620511

$$$$
