
     RDKit          3D

 40 43  0  0  0  0  0  0  0  0999 V2000
   32.8860   27.8650   48.6840 C   0  0  0  0  0  0  0  0  0  0  0  0
   33.2430   27.0980   47.4570 C   0  0  0  0  0  0  0  0  0  0  0  0
   33.6470   25.7670   47.4950 C   0  0  0  0  0  0  0  0  0  0  0  0
   33.9800   25.0740   46.3630 C   0  0  0  0  0  0  0  0  0  0  0  0
   33.9220   25.6860   45.1270 C   0  0  0  0  0  0  0  0  0  0  0  0
   33.5250   26.9950   45.0830 C   0  0  0  0  0  0  0  0  0  0  0  0
   33.1890   27.6990   46.2200 C   0  0  0  0  0  0  0  0  0  0  0  0
   32.7820   29.0850   46.0310 C   0  0  0  0  0  0  0  0  0  0  0  0
   31.5430   29.4880   45.6990 N   0  0  0  0  0  0  0  0  0  0  0  0
   31.4550   30.8220   45.5940 C   0  0  0  0  0  0  0  0  0  0  0  0
   32.6880   31.2650   45.8720 N   0  0  0  0  0  0  0  0  0  0  0  0
   33.4580   30.2400   46.1260 N   0  0  0  0  0  0  0  0  0  0  0  0
   35.2790   28.4010   49.0790 C   0  0  0  0  0  0  0  0  0  0  0  0
   34.0020   28.6510   49.2330 C   0  0  0  0  0  0  0  0  0  0  0  0
   37.3680   30.1350   51.5170 C   0  0  0  0  0  0  0  0  0  0  0  0
   38.0940   31.0260   50.6990 C   0  0  0  0  0  0  0  0  0  0  0  0
   37.8360   30.9990   49.3170 C   0  0  0  0  0  0  0  0  0  0  0  0
   36.8980   30.1140   48.8330 N   0  0  0  0  0  0  0  0  0  0  0  0
   36.2430   29.2890   49.6960 C   0  0  0  0  0  0  0  0  0  0  0  0
   36.4730   29.3010   51.0060 N   0  0  0  0  0  0  0  0  0  0  0  0
   38.5210   31.8760   48.3560 C   0  0  0  0  0  0  0  0  0  0  0  0
   38.8620   31.4720   47.0910 C   0  0  0  0  0  0  0  0  0  0  0  0
   39.4900   32.5530   46.4640 C   0  0  0  0  0  0  0  0  0  0  0  0
   39.5000   33.5630   47.3810 N   0  0  0  0  0  0  0  0  0  0  0  0
   38.9240   33.1530   48.4990 N   0  0  0  0  0  0  0  0  0  0  0  0
   32.5500   27.1539   49.4531 H   0  0  0  0  0  0  0  0  0  0  0  0
   32.0979   28.5782   48.4006 H   0  0  0  0  0  0  0  0  0  0  0  0
   33.7005   25.2550   48.4671 H   0  0  0  0  0  0  0  0  0  0  0  0
   34.2958   24.0230   46.4384 H   0  0  0  0  0  0  0  0  0  0  0  0
   34.1858   25.1403   44.2090 H   0  0  0  0  0  0  0  0  0  0  0  0
   33.4722   27.5023   44.1084 H   0  0  0  0  0  0  0  0  0  0  0  0
   30.5678   31.4193   45.3368 H   0  0  0  0  0  0  0  0  0  0  0  0
   32.9814   32.2522   45.8837 H   0  0  0  0  0  0  0  0  0  0  0  0
   35.6129   27.5327   48.4920 H   0  0  0  0  0  0  0  0  0  0  0  0
   33.7384   29.5355   49.8316 H   0  0  0  0  0  0  0  0  0  0  0  0
   37.5484   30.1321   52.6021 H   0  0  0  0  0  0  0  0  0  0  0  0
   38.8352   31.7170   51.1269 H   0  0  0  0  0  0  0  0  0  0  0  0
   38.6761   30.4812   46.6508 H   0  0  0  0  0  0  0  0  0  0  0  0
   39.8933   32.5827   45.4410 H   0  0  0  0  0  0  0  0  0  0  0  0
   39.8956   34.5014   47.2264 H   0  0  0  0  0  0  0  0  0  0  0  0
  1 14  1  0
  2  3  2  0
  2  1  1  0
  4  3  1  0
  5  4  2  0
  6  5  1  0
  6  7  2  0
  7  2  1  0
  8 12  2  0
  8  7  1  0
  9  8  1  0
 10  9  2  0
 10 11  1  0
 11 12  1  0
 13 14  2  0
 13 19  1  0
 16 15  2  0
 17 16  1  0
 18 17  2  0
 18 19  1  0
 19 20  2  0
 20 15  1  0
 21 25  2  0
 21 17  1  0
 22 21  1  0
 23 22  2  0
 23 24  1  0
 24 25  1  0
  1 26  1  0
  1 27  1  0
  3 28  1  0
  4 29  1  0
  5 30  1  0
  6 31  1  0
 10 32  1  0
 11 33  1  0
 13 34  1  0
 14 35  1  0
 15 36  1  0
 16 37  1  0
 22 38  1  0
 23 39  1  0
 24 40  1  0
M  ISO  8  26   8  27   8  28  14  29  14  30  14  31  14  32  14  33   9
M  ISO  5  36  14  37  14  38  14  39  14  40   9
M  END
>  <minimizedAffinity>  (1) 
-6.62131882

>  <minimizedRMSD>  (1) 
1.10650313

$$$$
