
     RDKit          3D

 41 45  0  0  0  0  0  0  0  0999 V2000
   38.0790   31.6380   46.6250 C   0  0  0  0  0  0  0  0  0  0  0  0
   38.4500   31.7090   45.3180 N   0  0  0  0  0  0  0  0  0  0  0  0
   39.3600   32.6360   44.9130 C   0  0  0  0  0  0  0  0  0  0  0  0
   39.9270   33.5050   45.7540 N   0  0  0  0  0  0  0  0  0  0  0  0
   39.5930   33.4780   47.0680 C   0  0  0  0  0  0  0  0  0  0  0  0
   40.1640   34.3840   47.9130 C   0  0  0  0  0  0  0  0  0  0  0  0
   39.8320   34.3940   49.2420 C   0  0  0  0  0  0  0  0  0  0  0  0
   38.9050   33.4630   49.7160 C   0  0  0  0  0  0  0  0  0  0  0  0
   38.3510   32.5590   48.8250 C   0  0  0  0  0  0  0  0  0  0  0  0
   38.6640   32.5360   47.5080 C   0  0  0  0  0  0  0  0  0  0  0  0
   37.4340   31.6660   49.5480 C   0  0  0  0  0  0  0  0  0  0  0  0
   37.9040   30.7780   50.3990 N   0  0  0  0  0  0  0  0  0  0  0  0
   37.0360   29.9760   50.9790 C   0  0  0  0  0  0  0  0  0  0  0  0
   35.8830   30.3550   50.4760 N   0  0  0  0  0  0  0  0  0  0  0  0
   36.1900   31.2970   49.6930 N   0  0  0  0  0  0  0  0  0  0  0  0
   36.9050   30.5170   47.2690 S   0  0  0  0  0  0  0  0  0  0  0  0
   34.0710   29.9960   47.8320 F   0  0  0  0  0  0  0  0  0  0  0  0
   34.3530   29.8250   46.5040 C   0  0  0  0  0  0  0  0  0  0  0  0
   33.3670   29.4500   45.6060 C   0  0  0  0  0  0  0  0  0  0  0  0
   33.7100   29.2910   44.2500 C   0  0  0  0  0  0  0  0  0  0  0  0
   35.0190   29.5060   43.8120 C   0  0  0  0  0  0  0  0  0  0  0  0
   35.9440   29.8790   44.7700 C   0  0  0  0  0  0  0  0  0  0  0  0
   35.6480   30.0440   46.1010 C   0  0  0  0  0  0  0  0  0  0  0  0
   31.9330   28.1530   46.9630 C   0  0  0  0  0  0  0  0  0  0  0  0
   32.0590   29.2450   46.1100 C   0  0  0  0  0  0  0  0  0  0  0  0
   30.9120   29.9830   45.8610 C   0  0  0  0  0  0  0  0  0  0  0  0
   29.7450   29.5960   46.4620 N   0  0  0  0  0  0  0  0  0  0  0  0
   29.6720   28.5510   47.2650 C   0  0  0  0  0  0  0  0  0  0  0  0
   30.7510   27.8110   47.5330 N   0  0  0  0  0  0  0  0  0  0  0  0
   39.6401   32.6711   43.8498 H   0  0  0  0  0  0  0  0  0  0  0  0
   40.8942   35.1097   47.5255 H   0  0  0  0  0  0  0  0  0  0  0  0
   40.2888   35.1245   49.9258 H   0  0  0  0  0  0  0  0  0  0  0  0
   38.6200   33.4481   50.7783 H   0  0  0  0  0  0  0  0  0  0  0  0
   37.2300   29.1781   51.7109 H   0  0  0  0  0  0  0  0  0  0  0  0
   34.9472   29.9730   50.6741 H   0  0  0  0  0  0  0  0  0  0  0  0
   32.9372   28.9936   43.5259 H   0  0  0  0  0  0  0  0  0  0  0  0
   35.3005   29.3844   42.7556 H   0  0  0  0  0  0  0  0  0  0  0  0
   36.9805   30.0543   44.4461 H   0  0  0  0  0  0  0  0  0  0  0  0
   32.8235   27.5457   47.1827 H   0  0  0  0  0  0  0  0  0  0  0  0
   30.9394   30.8589   45.1961 H   0  0  0  0  0  0  0  0  0  0  0  0
   28.7068   28.2853   47.7209 H   0  0  0  0  0  0  0  0  0  0  0  0
  1 16  1  0
  1 10  1  0
  2  1  2  0
  3  2  1  0
  3  4  2  0
  4  5  1  0
  5 10  2  0
  5  6  1  0
  6  7  2  0
  7  8  1  0
  9 11  1  0
  9  8  2  0
 10  9  1  0
 11 15  2  0
 11 12  1  0
 12 13  2  0
 14 13  1  0
 15 14  1  0
 18 17  1  0
 19 25  1  0
 19 18  2  0
 20 19  1  0
 21 20  2  0
 21 22  1  0
 22 23  2  0
 23 18  1  0
 23 16  1  0
 24 29  2  0
 25 24  1  0
 26 25  2  0
 26 27  1  0
 27 28  2  0
 28 29  1  0
  3 30  1  0
  6 31  1  0
  7 32  1  0
  8 33  1  0
 13 34  1  0
 14 35  1  0
 20 36  1  0
 21 37  1  0
 22 38  1  0
 24 39  1  0
 26 40  1  0
 28 41  1  0
M  ISO  8  30  14  31  14  32  14  33  14  34  14  35   9  36  14  37  14
M  ISO  4  38  14  39  14  40  14  41  14
M  END
>  <minimizedAffinity>  (1) 
-6.55961752

>  <minimizedRMSD>  (1) 
1.29093301

$$$$
