
     RDKit          3D

 44 48  0  0  0  0  0  0  0  0999 V2000
   38.0520   31.2670   47.7780 C   0  0  0  0  0  0  0  0  0  0  0  0
   37.0970   31.3020   48.7750 C   0  0  0  0  0  0  0  0  0  0  0  0
   37.1760   32.4190   49.6080 C   0  0  0  0  0  0  0  0  0  0  0  0
   38.1490   33.4070   49.4300 C   0  0  0  0  0  0  0  0  0  0  0  0
   39.0890   33.2820   48.3750 C   0  0  0  0  0  0  0  0  0  0  0  0
   39.0220   32.1770   47.5380 C   0  0  0  0  0  0  0  0  0  0  0  0
   34.9550   30.2870   48.1830 C   0  0  0  0  0  0  0  0  0  0  0  0
   36.1000   30.2940   48.9600 C   0  0  0  0  0  0  0  0  0  0  0  0
   36.2330   29.2780   49.9240 C   0  0  0  0  0  0  0  0  0  0  0  0
   35.2510   28.3620   50.0380 N   0  0  0  0  0  0  0  0  0  0  0  0
   34.1400   28.3970   49.2490 C   0  0  0  0  0  0  0  0  0  0  0  0
   34.0000   29.3530   48.3340 N   0  0  0  0  0  0  0  0  0  0  0  0
   37.4490   29.2320   50.7930 C   0  0  0  0  0  0  0  0  0  0  0  0
   38.0560   30.1820   46.8850 O   0  0  0  0  0  0  0  0  0  0  0  0
   39.9580   32.1110   46.5340 O   0  0  0  0  0  0  0  0  0  0  0  0
   40.4360   31.2160   44.2560 C   0  0  0  0  0  0  0  0  0  0  0  0
   39.7190   31.9390   45.2030 C   0  0  0  0  0  0  0  0  0  0  0  0
   38.5780   32.6120   44.8020 C   0  0  0  0  0  0  0  0  0  0  0  0
   38.1460   32.5690   43.4600 C   0  0  0  0  0  0  0  0  0  0  0  0
   37.1180   33.0960   42.7780 N   0  0  0  0  0  0  0  0  0  0  0  0
   37.1760   32.7320   41.4850 C   0  0  0  0  0  0  0  0  0  0  0  0
   38.2770   31.9510   41.3510 N   0  0  0  0  0  0  0  0  0  0  0  0
   38.8930   31.8350   42.5540 C   0  0  0  0  0  0  0  0  0  0  0  0
   40.0220   31.1690   42.9480 C   0  0  0  0  0  0  0  0  0  0  0  0
   40.8200   30.3910   42.0020 C   0  0  0  0  0  0  0  0  0  0  0  0
   40.9710   30.7400   40.7020 N   0  0  0  0  0  0  0  0  0  0  0  0
   41.7560   29.8370   40.0790 C   0  0  0  0  0  0  0  0  0  0  0  0
   42.0680   28.9350   41.0530 N   0  0  0  0  0  0  0  0  0  0  0  0
   41.5110   29.2620   42.2050 N   0  0  0  0  0  0  0  0  0  0  0  0
   36.4514   32.5251   50.4288 H   0  0  0  0  0  0  0  0  0  0  0  0
   38.1854   34.2758   50.1037 H   0  0  0  0  0  0  0  0  0  0  0  0
   39.8608   34.0507   48.2223 H   0  0  0  0  0  0  0  0  0  0  0  0
   34.8224   31.0681   47.4199 H   0  0  0  0  0  0  0  0  0  0  0  0
   33.3575   27.6333   49.3689 H   0  0  0  0  0  0  0  0  0  0  0  0
   37.1449   29.2435   51.8501 H   0  0  0  0  0  0  0  0  0  0  0  0
   38.0144   28.3118   50.5841 H   0  0  0  0  0  0  0  0  0  0  0  0
   38.0823   30.1068   50.5841 H   0  0  0  0  0  0  0  0  0  0  0  0
   38.7320   30.1375   46.1631 H   0  0  0  0  0  0  0  0  0  0  0  0
   41.3452   30.6756   44.5584 H   0  0  0  0  0  0  0  0  0  0  0  0
   38.0003   33.1881   45.5398 H   0  0  0  0  0  0  0  0  0  0  0  0
   36.3871   33.6952   43.1873 H   0  0  0  0  0  0  0  0  0  0  0  0
   36.4686   33.0127   40.6908 H   0  0  0  0  0  0  0  0  0  0  0  0
   42.0723   29.8299   39.0255 H   0  0  0  0  0  0  0  0  0  0  0  0
   42.6615   28.1056   40.9088 H   0  0  0  0  0  0  0  0  0  0  0  0
  1  2  2  0
  2  8  1  0
  2  3  1  0
  4  3  2  0
  5  4  1  0
  6  1  1  0
  6  5  2  0
  7 12  2  0
  7  8  1  0
  8  9  2  0
  9 10  1  0
  9 13  1  0
 11 10  2  0
 12 11  1  0
 14  1  1  0
 15  6  1  0
 16 17  2  0
 17 15  1  0
 18 17  1  0
 19 18  2  0
 20 19  1  0
 21 20  1  0
 22 21  2  0
 22 23  1  0
 23 24  2  0
 23 19  1  0
 24 16  1  0
 25 29  2  0
 25 24  1  0
 26 25  1  0
 27 26  2  0
 27 28  1  0
 28 29  1  0
  3 30  1  0
  4 31  1  0
  5 32  1  0
  7 33  1  0
 11 34  1  0
 13 35  1  0
 13 36  1  0
 13 37  1  0
 14 38  1  0
 16 39  1  0
 18 40  1  0
 20 41  1  0
 21 42  1  0
 27 43  1  0
 28 44  1  0
M  ISO  8  30  14  31  14  32  14  33  14  34  14  35   8  36   8  37   8
M  ISO  7  38   3  39  14  40  14  41   9  42  14  43  14  44   9
M  END
>  <minimizedAffinity>  (1) 
-7.96292114

>  <minimizedRMSD>  (1) 
0.269676805

$$$$
