
     RDKit          3D

 32 34  0  0  0  0  0  0  0  0999 V2000
   35.4440   30.3580   49.8940 C   0  0  0  0  0  0  0  0  0  0  0  0
   36.4570   31.2030   49.1520 C   0  0  0  0  0  0  0  0  0  0  0  0
   37.8650   30.7080   49.3080 C   0  0  0  0  0  0  0  0  0  0  0  0
   38.2580   30.6040   50.7600 C   0  0  0  0  0  0  0  0  0  0  0  0
   37.2200   29.9370   51.6090 C   0  0  0  0  0  0  0  0  0  0  0  0
   36.0800   29.3560   50.7960 C   0  0  0  0  0  0  0  0  0  0  0  0
   34.5950   29.6140   48.9140 C   0  0  0  0  0  0  0  0  0  0  0  0
   34.2270   30.3020   47.7450 C   0  0  0  0  0  0  0  0  0  0  0  0
   33.4320   29.6220   46.8310 C   0  0  0  0  0  0  0  0  0  0  0  0
   33.0560   28.3430   47.1070 N   0  0  0  0  0  0  0  0  0  0  0  0
   33.4250   27.6990   48.2450 C   0  0  0  0  0  0  0  0  0  0  0  0
   34.1920   28.3460   49.1360 N   0  0  0  0  0  0  0  0  0  0  0  0
   33.0020   30.2540   45.5900 C   0  0  0  0  0  0  0  0  0  0  0  0
   33.2140   30.1340   44.2680 N   0  0  0  0  0  0  0  0  0  0  0  0
   32.4580   31.0900   43.6620 C   0  0  0  0  0  0  0  0  0  0  0  0
   31.7810   31.7980   44.6090 N   0  0  0  0  0  0  0  0  0  0  0  0
   32.1280   31.2710   45.7720 N   0  0  0  0  0  0  0  0  0  0  0  0
   34.8466   31.0500   50.5058 H   0  0  0  0  0  0  0  0  0  0  0  0
   36.4032   32.2321   49.5368 H   0  0  0  0  0  0  0  0  0  0  0  0
   36.2075   31.1493   48.0820 H   0  0  0  0  0  0  0  0  0  0  0  0
   37.9478   29.7143   48.8435 H   0  0  0  0  0  0  0  0  0  0  0  0
   38.5391   31.4269   48.8193 H   0  0  0  0  0  0  0  0  0  0  0  0
   39.1903   30.0242   50.8286 H   0  0  0  0  0  0  0  0  0  0  0  0
   38.3785   31.6296   51.1389 H   0  0  0  0  0  0  0  0  0  0  0  0
   37.6983   29.1238   52.1747 H   0  0  0  0  0  0  0  0  0  0  0  0
   36.7951   30.7026   52.2748 H   0  0  0  0  0  0  0  0  0  0  0  0
   35.3161   28.9707   51.4873 H   0  0  0  0  0  0  0  0  0  0  0  0
   36.4973   28.5588   50.1633 H   0  0  0  0  0  0  0  0  0  0  0  0
   34.5548   31.3358   47.5615 H   0  0  0  0  0  0  0  0  0  0  0  0
   33.1006   26.6648   48.4328 H   0  0  0  0  0  0  0  0  0  0  0  0
   32.4023   31.2638   42.5772 H   0  0  0  0  0  0  0  0  0  0  0  0
   31.1323   32.5824   44.4518 H   0  0  0  0  0  0  0  0  0  0  0  0
  1  6  1  0
  2  3  1  0
  2  1  1  0
  3  4  1  0
  4  5  1  0
  6  5  1  0
  7 12  1  0
  7  1  1  0
  8  7  2  0
  9 10  2  0
  9  8  1  0
 10 11  1  0
 11 12  2  0
 13 17  2  0
 13  9  1  0
 14 13  1  0
 15 14  2  0
 15 16  1  0
 16 17  1  0
  1 18  1  0
  2 19  1  0
  2 20  1  0
  3 21  1  0
  3 22  1  0
  4 23  1  0
  4 24  1  0
  5 25  1  0
  5 26  1  0
  6 27  1  0
  6 28  1  0
  8 29  1  0
 11 30  1  0
 15 31  1  0
 16 32  1  0
M  ISO  8  18  13  19  13  20  13  21  13  22  13  23  13  24  13  25  13
M  ISO  7  26  13  27  13  28  13  29  14  30  14  31  14  32   9
M  END
>  <minimizedAffinity>  (1) 
-5.22809172

>  <minimizedRMSD>  (1) 
0.831828654

$$$$
