
     RDKit          3D

 30 32  0  0  0  0  0  0  0  0999 V2000
   36.5780   31.3610   48.8200 N   0  0  0  0  0  0  0  0  0  0  0  0
   36.6590   32.2430   49.8220 C   0  0  0  0  0  0  0  0  0  0  0  0
   37.6830   33.1840   49.8450 C   0  0  0  0  0  0  0  0  0  0  0  0
   38.5410   33.1120   48.7920 C   0  0  0  0  0  0  0  0  0  0  0  0
   39.4780   33.9660   48.8040 O   0  0  0  0  0  0  0  0  0  0  0  0
   38.4970   32.2560   47.7790 N   0  0  0  0  0  0  0  0  0  0  0  0
   37.4800   31.3630   47.8110 C   0  0  0  0  0  0  0  0  0  0  0  0
   37.4200   30.5300   46.8420 O   0  0  0  0  0  0  0  0  0  0  0  0
   39.4250   32.2250   46.7010 C   0  0  0  0  0  0  0  0  0  0  0  0
   40.0410   33.0660   45.8510 N   0  0  0  0  0  0  0  0  0  0  0  0
   40.8370   32.3360   45.0350 C   0  0  0  0  0  0  0  0  0  0  0  0
   40.7130   31.0240   45.3850 N   0  0  0  0  0  0  0  0  0  0  0  0
   39.8490   30.9800   46.4010 N   0  0  0  0  0  0  0  0  0  0  0  0
   35.3460   29.5590   49.8780 C   0  0  0  0  0  0  0  0  0  0  0  0
   35.5430   30.3670   48.7490 C   0  0  0  0  0  0  0  0  0  0  0  0
   34.7400   30.1800   47.6150 C   0  0  0  0  0  0  0  0  0  0  0  0
   33.7940   29.2080   47.6680 N   0  0  0  0  0  0  0  0  0  0  0  0
   33.6100   28.4460   48.7330 C   0  0  0  0  0  0  0  0  0  0  0  0
   34.3730   28.6130   49.8280 N   0  0  0  0  0  0  0  0  0  0  0  0
   37.3910   29.1890   51.4470 C   0  0  0  0  0  0  0  0  0  0  0  0
   38.1260   28.5580   50.6550 O   0  0  0  0  0  0  0  0  0  0  0  0
   36.0960   29.6770   51.0680 N   0  0  0  0  0  0  0  0  0  0  0  0
   35.9134   32.2242   50.6305 H   0  0  0  0  0  0  0  0  0  0  0  0
   37.7903   33.9263   50.6496 H   0  0  0  0  0  0  0  0  0  0  0  0
   41.4731   32.7322   44.2298 H   0  0  0  0  0  0  0  0  0  0  0  0
   41.1927   30.2230   44.9500 H   0  0  0  0  0  0  0  0  0  0  0  0
   34.8718   30.7985   46.7150 H   0  0  0  0  0  0  0  0  0  0  0  0
   32.8289   27.6716   48.7233 H   0  0  0  0  0  0  0  0  0  0  0  0
   37.7502   29.3762   52.4697 H   0  0  0  0  0  0  0  0  0  0  0  0
   35.6226   30.2173   51.8062 H   0  0  0  0  0  0  0  0  0  0  0  0
  1  2  1  0
  2  3  2  0
  4  5  2  0
  4  3  1  0
  6  7  1  0
  6  4  1  0
  7  1  1  0
  8  7  2  0
  9  6  1  0
 10  9  1  0
 11 12  1  0
 11 10  2  0
 12 13  1  0
 13  9  2  0
 14 22  1  0
 15  1  1  0
 15 14  2  0
 16 17  2  0
 16 15  1  0
 17 18  1  0
 18 19  2  0
 19 14  1  0
 21 20  2  0
 22 20  1  0
  2 23  1  0
  3 24  1  0
 11 25  1  0
 12 26  1  0
 16 27  1  0
 18 28  1  0
 20 29  1  0
 22 30  1  0
M  ISO  7  23  14  24  14  25  14  26   9  27  14  28  14  29   6
M  END
>  <minimizedAffinity>  (1) 
-6.59521055

>  <minimizedRMSD>  (1) 
0.844335079

$$$$
