
     RDKit          3D

 40 43  0  0  1  0  0  0  0  0999 V2000
   31.1540   28.1160   47.4300 C   0  0  2  0  0  0  0  0  0  0  0  0
   32.2470   27.4350   48.2010 C   0  0  1  0  0  0  0  0  0  0  0  0
   32.0460   26.0910   48.1190 O   0  0  0  0  0  0  0  0  0  0  0  0
   31.0940   25.8290   47.1390 C   0  0  0  0  0  0  0  0  0  0  0  0
   30.9760   27.0690   46.2850 C   0  0  1  0  0  0  0  0  0  0  0  0
   31.6170   29.3270   46.8750 O   0  0  0  0  0  0  0  0  0  0  0  0
   33.8410   27.8200   47.3640 S   0  0  0  0  0  0  0  0  0  0  0  0
   35.5930   29.3430   50.5770 C   0  0  0  0  0  0  0  0  0  0  0  0
   36.2660   30.4810   50.1170 C   0  0  0  0  0  0  0  0  0  0  0  0
   36.1710   30.7850   48.7490 C   0  0  0  0  0  0  0  0  0  0  0  0
   35.4380   29.9690   47.9570 N   0  0  0  0  0  0  0  0  0  0  0  0
   34.8020   28.8790   48.4380 C   0  0  0  0  0  0  0  0  0  0  0  0
   34.8710   28.5500   49.7550 N   0  0  0  0  0  0  0  0  0  0  0  0
   29.7090   27.1270   45.7590 O   0  0  0  0  0  0  0  0  0  0  0  0
   29.0760   29.7790   44.6450 Cl  0  0  0  0  0  0  0  0  0  0  0  0
   28.2520   28.9070   45.9160 C   0  0  0  0  0  0  0  0  0  0  0  0
   28.6380   27.6570   46.3400 C   0  0  0  0  0  0  0  0  0  0  0  0
   27.8800   27.0420   47.3390 C   0  0  0  0  0  0  0  0  0  0  0  0
   26.7790   27.6790   47.8780 C   0  0  0  0  0  0  0  0  0  0  0  0
   26.3850   28.9390   47.4570 C   0  0  0  0  0  0  0  0  0  0  0  0
   27.1450   29.5360   46.4660 C   0  0  0  0  0  0  0  0  0  0  0  0
   26.7510   30.8660   46.0040 C   0  0  0  0  0  0  0  0  0  0  0  0
   26.4000   31.2590   44.7630 N   0  0  0  0  0  0  0  0  0  0  0  0
   26.1030   32.5860   44.7500 C   0  0  0  0  0  0  0  0  0  0  0  0
   26.2770   33.0050   46.0030 N   0  0  0  0  0  0  0  0  0  0  0  0
   26.6610   31.9810   46.7400 N   0  0  0  0  0  0  0  0  0  0  0  0
   30.2566   28.3687   48.0137 H   0  0  0  0  0  0  0  0  0  0  0  0
   32.2573   27.7658   49.2500 H   0  0  0  0  0  0  0  0  0  0  0  0
   31.4135   24.9761   46.5222 H   0  0  0  0  0  0  0  0  0  0  0  0
   30.1253   25.5762   47.5947 H   0  0  0  0  0  0  0  0  0  0  0  0
   31.6592   27.1704   45.4289 H   0  0  0  0  0  0  0  0  0  0  0  0
   31.8565   29.9535   47.6032 H   0  0  0  0  0  0  0  0  0  0  0  0
   35.6540   29.0854   51.6447 H   0  0  0  0  0  0  0  0  0  0  0  0
   36.8483   31.1144   50.8023 H   0  0  0  0  0  0  0  0  0  0  0  0
   36.6806   31.6659   48.3314 H   0  0  0  0  0  0  0  0  0  0  0  0
   28.1621   26.0418   47.6997 H   0  0  0  0  0  0  0  0  0  0  0  0
   26.1990   27.1719   48.6632 H   0  0  0  0  0  0  0  0  0  0  0  0
   25.5081   29.4420   47.8906 H   0  0  0  0  0  0  0  0  0  0  0  0
   25.7855   33.1878   43.8857 H   0  0  0  0  0  0  0  0  0  0  0  0
   26.1352   33.9680   46.3397 H   0  0  0  0  0  0  0  0  0  0  0  0
  1  2  1  0
  3  2  1  0
  4  3  1  0
  5  4  1  0
  5  1  1  0
  6  1  1  0
  7  2  1  0
  7 12  1  0
  9  8  2  0
 10  9  1  0
 11 12  1  0
 11 10  2  0
 12 13  2  0
 13  8  1  0
 14  5  1  0
 14 17  1  0
 15 16  1  0
 16 17  2  0
 16 21  1  0
 17 18  1  0
 18 19  2  0
 20 19  1  0
 21 20  2  0
 22 21  1  0
 22 26  2  0
 23 22  1  0
 24 23  2  0
 24 25  1  0
 25 26  1  0
  1 27  1  1
  2 28  1  1
  4 29  1  0
  4 30  1  0
  5 31  1  6
  6 32  1  0
  8 33  1  0
  9 34  1  0
 10 35  1  0
 18 36  1  0
 19 37  1  0
 20 38  1  0
 24 39  1  0
 25 40  1  0
M  ISO  8  27  13  28  13  29  13  30  13  31  13  32   3  33  14  34  14
M  ISO  6  35  14  36  14  37  14  38  14  39  14  40   9
M  END
>  <minimizedAffinity>  (1) 
-5.65319633

>  <minimizedRMSD>  (1) 
1.77865922

$$$$
