
     RDKit          3D

 37 38  0  0  1  0  0  0  0  0999 V2000
   38.7370   30.6520   45.7350 S   0  0  0  0  0  0  0  0  0  0  0  0
   37.3620   32.5430   44.3450 N   0  0  0  0  0  0  0  0  0  0  0  0
   37.3360   31.1360   44.6510 C   0  0  1  0  0  0  0  0  0  0  0  0
   37.4730   30.3140   43.4000 C   0  0  0  0  0  0  0  0  0  0  0  0
   38.7410   30.6830   42.7840 N   0  0  0  0  0  0  0  0  0  0  0  0
   38.5210   32.0530   42.2930 C   0  0  0  0  0  0  0  0  0  0  0  0
   38.4750   32.9240   43.5350 C   0  0  2  0  0  0  0  0  0  0  0  0
   39.7360   32.8400   44.2360 N   0  0  0  0  0  0  0  0  0  0  0  0
   38.5760   32.8830   49.1180 C   0  0  0  0  0  0  0  0  0  0  0  0
   38.8520   32.5240   47.8160 C   0  0  0  0  0  0  0  0  0  0  0  0
   38.4610   31.2730   47.3810 C   0  0  0  0  0  0  0  0  0  0  0  0
   37.8130   30.4500   48.2790 N   0  0  0  0  0  0  0  0  0  0  0  0
   37.5790   30.8560   49.5180 C   0  0  0  0  0  0  0  0  0  0  0  0
   37.9490   32.0600   49.9580 N   0  0  0  0  0  0  0  0  0  0  0  0
   36.8890   29.9490   50.4390 C   0  0  0  0  0  0  0  0  0  0  0  0
   37.0070   29.9960   51.6800 O   0  0  0  0  0  0  0  0  0  0  0  0
   36.0250   28.9470   49.8780 N   0  0  0  0  0  0  0  0  0  0  0  0
   34.3380   29.2130   49.5810 S   0  0  0  0  0  0  0  0  0  0  0  0
   33.6570   27.9720   49.1300 O   0  0  0  0  0  0  0  0  0  0  0  0
   33.6920   29.6570   50.8620 O   0  0  0  0  0  0  0  0  0  0  0  0
   34.1760   30.3900   48.3920 O   0  0  0  0  0  0  0  0  0  0  0  0
   36.4951   32.7848   43.8442 H   0  0  0  0  0  0  0  0  0  0  0  0
   36.3742   30.9523   45.1522 H   0  0  0  0  0  0  0  0  0  0  0  0
   37.4721   29.2428   43.6500 H   0  0  0  0  0  0  0  0  0  0  0  0
   36.6341   30.5013   42.7136 H   0  0  0  0  0  0  0  0  0  0  0  0
   39.5031   30.6615   43.4765 H   0  0  0  0  0  0  0  0  0  0  0  0
   39.3466   32.3634   41.6357 H   0  0  0  0  0  0  0  0  0  0  0  0
   37.5959   32.1325   41.7033 H   0  0  0  0  0  0  0  0  0  0  0  0
   38.3299   33.9793   43.2605 H   0  0  0  0  0  0  0  0  0  0  0  0
   39.5656   32.8514   45.2517 H   0  0  0  0  0  0  0  0  0  0  0  0
   40.2147   31.9653   43.9779 H   0  0  0  0  0  0  0  0  0  0  0  0
   38.8822   33.8777   49.4740 H   0  0  0  0  0  0  0  0  0  0  0  0
   39.3717   33.2180   47.1391 H   0  0  0  0  0  0  0  0  0  0  0  0
   36.4266   28.0285   49.6415 H   0  0  0  0  0  0  0  0  0  0  0  0
   33.3694   27.4480   49.9192 H   0  0  0  0  0  0  0  0  0  0  0  0
   34.2062   29.3036   51.6307 H   0  0  0  0  0  0  0  0  0  0  0  0
   34.0542   31.2752   48.8183 H   0  0  0  0  0  0  0  0  0  0  0  0
  1 11  1  0
  2  3  1  0
  3  1  1  0
  4  3  1  0
  5  4  1  0
  6  5  1  0
  6  7  1  0
  7  8  1  0
  7  2  1  0
  9 14  2  0
 10  9  1  0
 11 10  2  0
 11 12  1  0
 12 13  2  0
 13 14  1  0
 13 15  1  0
 15 16  2  0
 17 15  1  0
 18 17  1  0
 18 20  1  0
 19 18  1  0
 21 18  1  0
  2 22  1  0
  3 23  1  1
  4 24  1  0
  4 25  1  0
  5 26  1  0
  6 27  1  0
  6 28  1  0
  7 29  1  6
  8 30  1  0
  8 31  1  0
  9 32  1  0
 10 33  1  0
 17 34  1  0
 19 35  1  0
 20 36  1  0
 21 37  1  0
M  ISO  8  22   5  23  13  24  13  25  13  26   5  27  13  28  13  29  13
M  ISO  7  30   5  31   5  32  14  33  14  35   3  36   3  37   3
M  END
>  <minimizedAffinity>  (1) 
-5.87010908

>  <minimizedRMSD>  (1) 
2.8406837

$$$$
