
     RDKit          3D

 40 42  0  0  1  0  0  0  0  0999 V2000
   39.6890   33.1300   44.7490 C   0  0  0  0  0  0  0  0  0  0  0  0
   40.5850   32.1350   44.3550 C   0  0  0  0  0  0  0  0  0  0  0  0
   40.6510   30.9900   45.1180 C   0  0  0  0  0  0  0  0  0  0  0  0
   39.8360   30.9070   46.2010 N   0  0  0  0  0  0  0  0  0  0  0  0
   38.9790   31.8760   46.5650 C   0  0  0  0  0  0  0  0  0  0  0  0
   38.9050   32.9830   45.8410 N   0  0  0  0  0  0  0  0  0  0  0  0
   38.1530   31.6920   47.7420 N   0  0  0  0  0  0  0  0  0  0  0  0
   38.0010   32.7730   48.6800 C   0  0  0  0  0  0  0  0  0  0  0  0
   37.7790   32.2910   50.0930 C   0  0  0  0  0  0  0  0  0  0  0  0
   38.3080   30.8830   50.1940 C   0  0  0  0  0  0  0  0  0  0  0  0
   37.3620   30.0300   49.3810 C   0  0  0  0  0  0  0  0  0  0  0  0
   37.4970   30.3970   47.9460 C   0  0  1  0  0  0  0  0  0  0  0  0
   36.2370   30.3040   47.2000 C   0  0  0  0  0  0  0  0  0  0  0  0
   34.9380   30.1920   47.7150 C   0  0  0  0  0  0  0  0  0  0  0  0
   33.9050   30.1310   46.8410 C   0  0  0  0  0  0  0  0  0  0  0  0
   34.1910   30.1840   45.4340 C   0  0  0  0  0  0  0  0  0  0  0  0
   36.0720   30.3290   45.4790 S   0  0  0  0  0  0  0  0  0  0  0  0
   33.5440   30.1610   44.2260 N   0  0  0  0  0  0  0  0  0  0  0  0
   32.8190   31.4880   43.4720 S   0  0  0  0  0  0  0  0  0  0  0  0
   31.6370   31.9330   44.2800 O   0  0  0  0  0  0  0  0  0  0  0  0
   32.3050   31.1720   42.0920 O   0  0  0  0  0  0  0  0  0  0  0  0
   33.8540   32.8120   43.3460 O   0  0  0  0  0  0  0  0  0  0  0  0
   39.6190   34.0549   44.1577 H   0  0  0  0  0  0  0  0  0  0  0  0
   41.2179   32.2611   43.4642 H   0  0  0  0  0  0  0  0  0  0  0  0
   41.3394   30.1720   44.8592 H   0  0  0  0  0  0  0  0  0  0  0  0
   38.9119   33.3893   48.6574 H   0  0  0  0  0  0  0  0  0  0  0  0
   37.1126   33.3492   48.3820 H   0  0  0  0  0  0  0  0  0  0  0  0
   38.3155   32.9427   50.7983 H   0  0  0  0  0  0  0  0  0  0  0  0
   36.7076   32.3151   50.3408 H   0  0  0  0  0  0  0  0  0  0  0  0
   39.3262   30.8256   49.7818 H   0  0  0  0  0  0  0  0  0  0  0  0
   38.3627   30.5444   51.2392 H   0  0  0  0  0  0  0  0  0  0  0  0
   37.6136   28.9677   49.5160 H   0  0  0  0  0  0  0  0  0  0  0  0
   36.3273   30.1991   49.7138 H   0  0  0  0  0  0  0  0  0  0  0  0
   38.1661   29.6330   47.5232 H   0  0  0  0  0  0  0  0  0  0  0  0
   34.7622   30.1546   48.8002 H   0  0  0  0  0  0  0  0  0  0  0  0
   32.8692   30.0428   47.2008 H   0  0  0  0  0  0  0  0  0  0  0  0
   33.4955   29.2567   43.7354 H   0  0  0  0  0  0  0  0  0  0  0  0
   31.8476   31.8537   45.2441 H   0  0  0  0  0  0  0  0  0  0  0  0
   31.4638   30.6549   42.1636 H   0  0  0  0  0  0  0  0  0  0  0  0
   34.0996   33.1262   44.2521 H   0  0  0  0  0  0  0  0  0  0  0  0
  1  6  2  0
  2  1  1  0
  2  3  2  0
  3  4  1  0
  4  5  2  0
  5  7  1  0
  6  5  1  0
  7 12  1  0
  7  8  1  0
  8  9  1  0
  9 10  1  0
 11 10  1  0
 12 11  1  0
 13 14  2  0
 13 12  1  0
 15 14  1  0
 16 17  1  0
 16 15  2  0
 17 13  1  0
 18 16  1  0
 19 18  1  0
 19 20  1  0
 21 19  1  0
 22 19  1  0
  1 23  1  0
  2 24  1  0
  3 25  1  0
  8 26  1  0
  8 27  1  0
  9 28  1  0
  9 29  1  0
 10 30  1  0
 10 31  1  0
 11 32  1  0
 11 33  1  0
 12 34  1  6
 14 35  1  0
 15 36  1  0
 18 37  1  0
 20 38  1  0
 21 39  1  0
 22 40  1  0
M  ISO  8  23  14  24  14  25  14  26  13  27  13  28  13  29  13  30  13
M  ISO  8  31  13  32  13  33  13  34  13  35  14  36  14  38   3  39   3
M  ISO  1  40   3
M  END
>  <minimizedAffinity>  (1) 
-5.55467796

>  <minimizedRMSD>  (1) 
0.690987349

$$$$
