
     RDKit          3D

 47 50  0  0  1  0  0  0  0  0999 V2000
   31.3490   27.0090   48.2250 C   0  0  0  0  0  0  0  0  0  0  0  0
   30.1300   27.6320   47.6430 C   0  0  1  0  0  0  0  0  0  0  0  0
   29.4280   26.5820   46.8060 C   0  0  0  0  0  0  0  0  0  0  0  0
   28.0370   26.4320   47.3670 C   0  0  0  0  0  0  0  0  0  0  0  0
   28.2000   26.8220   48.8100 C   0  0  0  0  0  0  0  0  0  0  0  0
   29.0950   28.0600   48.6570 C   0  0  2  0  0  0  0  0  0  0  0  0
   28.3540   29.1650   48.1260 N   0  0  0  0  0  0  0  0  0  0  0  0
   27.4530   29.9890   49.3430 S   0  0  0  0  0  0  0  0  0  0  0  0
   26.4060   29.0450   49.8580 O   0  0  0  0  0  0  0  0  0  0  0  0
   26.8870   31.2310   48.7450 O   0  0  0  0  0  0  0  0  0  0  0  0
   28.5270   30.3470   50.5910 O   0  0  0  0  0  0  0  0  0  0  0  0
   34.1510   29.1000   49.4420 C   0  0  0  0  0  0  0  0  0  0  0  0
   34.6410   29.6660   48.2410 C   0  0  0  0  0  0  0  0  0  0  0  0
   34.0050   29.3210   47.0520 C   0  0  0  0  0  0  0  0  0  0  0  0
   32.9590   28.4690   47.0940 N   0  0  0  0  0  0  0  0  0  0  0  0
   32.5050   27.9360   48.2740 C   0  0  0  0  0  0  0  0  0  0  0  0
   33.1110   28.2610   49.4330 N   0  0  0  0  0  0  0  0  0  0  0  0
   36.0260   31.0560   49.6620 C   0  0  0  0  0  0  0  0  0  0  0  0
   35.7710   30.5570   48.3910 C   0  0  0  0  0  0  0  0  0  0  0  0
   36.6220   30.9590   47.3790 C   0  0  0  0  0  0  0  0  0  0  0  0
   37.6830   31.8300   47.6620 C   0  0  0  0  0  0  0  0  0  0  0  0
   38.6330   32.3660   46.9060 N   0  0  0  0  0  0  0  0  0  0  0  0
   39.4230   33.1420   47.6430 C   0  0  0  0  0  0  0  0  0  0  0  0
   38.9750   33.1110   48.9250 N   0  0  0  0  0  0  0  0  0  0  0  0
   37.9030   32.3000   48.9320 C   0  0  0  0  0  0  0  0  0  0  0  0
   37.0670   31.9130   49.9500 C   0  0  0  0  0  0  0  0  0  0  0  0
   31.6240   26.1375   47.6127 H   0  0  0  0  0  0  0  0  0  0  0  0
   31.1111   26.7240   49.2604 H   0  0  0  0  0  0  0  0  0  0  0  0
   30.4823   28.5194   47.0967 H   0  0  0  0  0  0  0  0  0  0  0  0
   29.9668   25.6251   46.8700 H   0  0  0  0  0  0  0  0  0  0  0  0
   29.3954   26.8797   45.7476 H   0  0  0  0  0  0  0  0  0  0  0  0
   27.3315   27.1030   46.8551 H   0  0  0  0  0  0  0  0  0  0  0  0
   27.6291   25.4184   47.2393 H   0  0  0  0  0  0  0  0  0  0  0  0
   27.2354   27.0716   49.2761 H   0  0  0  0  0  0  0  0  0  0  0  0
   28.6101   26.0332   49.4578 H   0  0  0  0  0  0  0  0  0  0  0  0
   29.5188   28.3849   49.6187 H   0  0  0  0  0  0  0  0  0  0  0  0
   29.0123   29.8289   47.6938 H   0  0  0  0  0  0  0  0  0  0  0  0
   26.4137   29.0519   50.8479 H   0  0  0  0  0  0  0  0  0  0  0  0
   26.6063   31.8469   49.4675 H   0  0  0  0  0  0  0  0  0  0  0  0
   28.0815   30.1985   51.4625 H   0  0  0  0  0  0  0  0  0  0  0  0
   34.6335   29.3545   50.3972 H   0  0  0  0  0  0  0  0  0  0  0  0
   34.3494   29.7361   46.0933 H   0  0  0  0  0  0  0  0  0  0  0  0
   35.3612   30.7508   50.4835 H   0  0  0  0  0  0  0  0  0  0  0  0
   36.4668   30.5957   46.3524 H   0  0  0  0  0  0  0  0  0  0  0  0
   38.7427   32.2045   45.8947 H   0  0  0  0  0  0  0  0  0  0  0  0
   40.2903   33.7112   47.2771 H   0  0  0  0  0  0  0  0  0  0  0  0
   37.2246   32.2794   50.9751 H   0  0  0  0  0  0  0  0  0  0  0  0
  1 16  1  0
  2  1  1  0
  2  6  1  0
  3  4  1  0
  3  2  1  0
  4  5  1  0
  6  5  1  0
  7  6  1  0
  7  8  1  0
  8  9  1  0
  8 11  1  0
 10  8  1  0
 13 19  1  0
 13 12  2  0
 14 15  2  0
 14 13  1  0
 15 16  1  0
 16 17  2  0
 17 12  1  0
 18 26  2  0
 19 18  1  0
 20 21  1  0
 20 19  2  0
 21 25  2  0
 22 23  1  0
 22 21  1  0
 23 24  2  0
 24 25  1  0
 25 26  1  0
  1 27  1  0
  1 28  1  0
  2 29  1  6
  3 30  1  0
  3 31  1  0
  4 32  1  0
  4 33  1  0
  5 34  1  0
  5 35  1  0
  6 36  1  1
  7 37  1  0
  9 38  1  0
 10 39  1  0
 11 40  1  0
 12 41  1  0
 14 42  1  0
 18 43  1  0
 20 44  1  0
 22 45  1  0
 23 46  1  0
 26 47  1  0
M  ISO  8  27   8  28   8  29  13  30  13  31  13  32  13  33  13  34  13
M  ISO  8  35  13  36  13  37   5  38   3  39   3  40   3  41  14  42  14
M  ISO  5  43  14  44  14  45   9  46  14  47  14
M  END
>  <minimizedAffinity>  (1) 
-6.93894053

>  <minimizedRMSD>  (1) 
1.29768121

$$$$
