
     RDKit          3D

 47 50  0  0  1  0  0  0  0  0999 V2000
   30.2490   27.5150   48.0800 C   0  0  0  0  0  0  0  0  0  0  0  0
   30.4460   27.3250   49.4330 C   0  0  0  0  0  0  0  0  0  0  0  0
   29.4250   27.5400   50.3360 C   0  0  0  0  0  0  0  0  0  0  0  0
   28.1860   27.9540   49.8730 C   0  0  0  0  0  0  0  0  0  0  0  0
   28.0050   28.1390   48.5250 C   0  0  0  0  0  0  0  0  0  0  0  0
   29.0150   27.9250   47.6380 C   0  0  0  0  0  0  0  0  0  0  0  0
   27.5200   27.4270   45.7190 C   0  0  2  0  0  0  0  0  0  0  0  0
   28.7820   28.1090   46.2100 C   0  0  1  0  0  0  0  0  0  0  0  0
   28.7310   29.5350   45.7300 C   0  0  0  0  0  0  0  0  0  0  0  0
   28.1700   29.5450   44.4510 O   0  0  0  0  0  0  0  0  0  0  0  0
   28.4670   28.4410   43.6990 C   0  0  0  0  0  0  0  0  0  0  0  0
   27.6810   27.2390   44.2240 C   0  0  2  0  0  0  0  0  0  0  0  0
   26.4590   28.2960   45.9680 O   0  0  0  0  0  0  0  0  0  0  0  0
   26.4760   27.0710   43.5860 O   0  0  0  0  0  0  0  0  0  0  0  0
   31.3710   27.2600   47.2970 O   0  0  0  0  0  0  0  0  0  0  0  0
   34.5100   28.4860   48.5570 C   0  0  0  0  0  0  0  0  0  0  0  0
   34.6240   29.7520   47.9830 C   0  0  0  0  0  0  0  0  0  0  0  0
   33.5770   30.1730   47.1410 C   0  0  0  0  0  0  0  0  0  0  0  0
   32.5330   29.3270   46.9450 N   0  0  0  0  0  0  0  0  0  0  0  0
   32.4530   28.1220   47.5100 C   0  0  0  0  0  0  0  0  0  0  0  0
   33.4540   27.6870   48.3300 N   0  0  0  0  0  0  0  0  0  0  0  0
   35.7660   30.5310   48.2710 N   0  0  0  0  0  0  0  0  0  0  0  0
   36.0120   31.0090   49.4860 C   0  0  0  0  0  0  0  0  0  0  0  0
   37.1540   31.7750   49.7080 C   0  0  0  0  0  0  0  0  0  0  0  0
   37.9500   31.9720   48.6080 C   0  0  0  0  0  0  0  0  0  0  0  0
   38.9840   32.6660   48.8030 O   0  0  0  0  0  0  0  0  0  0  0  0
   37.7350   31.5100   47.3840 N   0  0  0  0  0  0  0  0  0  0  0  0
   36.6080   30.7670   47.2110 C   0  0  0  0  0  0  0  0  0  0  0  0
   36.3890   30.3170   46.0400 O   0  0  0  0  0  0  0  0  0  0  0  0
   31.4312   26.9975   49.7966 H   0  0  0  0  0  0  0  0  0  0  0  0
   29.5927   27.3845   51.4120 H   0  0  0  0  0  0  0  0  0  0  0  0
   27.3590   28.1319   50.5762 H   0  0  0  0  0  0  0  0  0  0  0  0
   27.0229   28.4671   48.1537 H   0  0  0  0  0  0  0  0  0  0  0  0
   27.3393   26.4604   46.2120 H   0  0  0  0  0  0  0  0  0  0  0  0
   29.6793   27.6375   45.7827 H   0  0  0  0  0  0  0  0  0  0  0  0
   28.1122   30.1358   46.4127 H   0  0  0  0  0  0  0  0  0  0  0  0
   29.7437   29.9637   45.7041 H   0  0  0  0  0  0  0  0  0  0  0  0
   29.5448   28.2315   43.7654 H   0  0  0  0  0  0  0  0  0  0  0  0
   28.1933   28.6278   42.6501 H   0  0  0  0  0  0  0  0  0  0  0  0
   28.2336   26.3115   44.0135 H   0  0  0  0  0  0  0  0  0  0  0  0
   26.3368   28.3961   46.9453 H   0  0  0  0  0  0  0  0  0  0  0  0
   25.7572   26.9708   44.2594 H   0  0  0  0  0  0  0  0  0  0  0  0
   35.3129   28.1291   49.2188 H   0  0  0  0  0  0  0  0  0  0  0  0
   33.6039   31.1597   46.6555 H   0  0  0  0  0  0  0  0  0  0  0  0
   35.3170   30.8008   50.3128 H   0  0  0  0  0  0  0  0  0  0  0  0
   37.4003   32.1925   50.6955 H   0  0  0  0  0  0  0  0  0  0  0  0
   38.3842   31.7025   46.6079 H   0  0  0  0  0  0  0  0  0  0  0  0
  1  2  2  0
  2  3  1  0
  4  3  2  0
  5  4  1  0
  6  1  1  0
  6  5  2  0
  7 13  1  0
  7  8  1  0
  8  6  1  0
  9  8  1  0
 10  9  1  0
 11 12  1  0
 11 10  1  0
 12 14  1  0
 12  7  1  0
 15 20  1  0
 15  1  1  0
 17 22  1  0
 17 16  2  0
 18 17  1  0
 19 18  2  0
 19 20  1  0
 20 21  2  0
 21 16  1  0
 22 23  1  0
 23 24  2  0
 25 26  2  0
 25 24  1  0
 27 25  1  0
 28 27  1  0
 28 22  1  0
 29 28  2  0
  2 30  1  0
  3 31  1  0
  4 32  1  0
  5 33  1  0
  7 34  1  1
  8 35  1  6
  9 36  1  0
  9 37  1  0
 11 38  1  0
 11 39  1  0
 12 40  1  1
 13 41  1  0
 14 42  1  0
 16 43  1  0
 18 44  1  0
 23 45  1  0
 24 46  1  0
 27 47  1  0
M  ISO  8  30  14  31  14  32  14  33  14  34  13  35  13  36  13  37  13
M  ISO  8  38  13  39  13  40  13  41   3  42   3  43  14  44  14  45  14
M  ISO  2  46  14  47   9
M  END
>  <minimizedAffinity>  (1) 
-6.12405634

>  <minimizedRMSD>  (1) 
2.17187595

$$$$
