
     RDKit          3D

 52 55  0  0  1  0  0  0  0  0999 V2000
   34.8130   28.4520   49.2080 C   0  0  0  0  0  0  0  0  0  0  0  0
   33.5570   28.3460   48.3780 C   0  0  0  0  0  0  0  0  0  0  0  0
   33.6000   28.6780   46.9770 C   0  0  0  0  0  0  0  0  0  0  0  0
   31.9210   28.3910   46.5060 S   0  0  0  0  0  0  0  0  0  0  0  0
   31.3710   27.8650   48.2360 C   0  0  0  0  0  0  0  0  0  0  0  0
   32.4000   27.9730   48.8240 N   0  0  0  0  0  0  0  0  0  0  0  0
   30.0780   27.4480   48.7350 N   0  0  0  0  0  0  0  0  0  0  0  0
   29.2220   26.7780   47.8060 C   0  0  0  0  0  0  0  0  0  0  0  0
   27.7880   26.7300   48.2140 C   0  0  0  0  0  0  0  0  0  0  0  0
   27.4940   27.5320   49.4060 N   0  0  0  0  0  0  0  0  0  0  0  0
   28.4250   27.0740   50.4220 C   0  0  0  0  0  0  0  0  0  0  0  0
   29.7430   27.7270   50.1080 C   0  0  0  0  0  0  0  0  0  0  0  0
   34.8590   29.7250   49.9550 C   0  0  0  0  0  0  0  0  0  0  0  0
   37.4410   32.3720   49.6740 C   0  0  0  0  0  0  0  0  0  0  0  0
   38.0530   32.0910   48.4630 C   0  0  0  0  0  0  0  0  0  0  0  0
   37.5690   30.9910   47.7540 C   0  0  0  0  0  0  0  0  0  0  0  0
   36.5520   30.2540   48.2490 N   0  0  0  0  0  0  0  0  0  0  0  0
   35.9940   30.5870   49.4520 C   0  0  0  0  0  0  0  0  0  0  0  0
   36.4400   31.6360   50.1500 N   0  0  0  0  0  0  0  0  0  0  0  0
   37.2390   30.9370   45.2790 C   0  0  2  0  0  0  0  0  0  0  0  0
   38.1290   30.5740   46.4420 C   0  0  1  0  0  0  0  0  0  0  0  0
   39.5010   31.1540   46.1740 C   0  0  0  0  0  0  0  0  0  0  0  0
   39.7730   31.0630   44.8150 O   0  0  0  0  0  0  0  0  0  0  0  0
   39.2030   29.9360   44.2370 C   0  0  0  0  0  0  0  0  0  0  0  0
   37.6970   30.0940   44.0860 C   0  0  2  0  0  0  0  0  0  0  0  0
   37.3340   32.2580   44.9210 O   0  0  0  0  0  0  0  0  0  0  0  0
   37.4410   30.8330   42.9350 O   0  0  0  0  0  0  0  0  0  0  0  0
   35.6874   28.3954   48.5429 H   0  0  0  0  0  0  0  0  0  0  0  0
   34.8199   27.6247   49.9329 H   0  0  0  0  0  0  0  0  0  0  0  0
   34.4487   29.0183   46.3655 H   0  0  0  0  0  0  0  0  0  0  0  0
   29.5816   25.7449   47.6901 H   0  0  0  0  0  0  0  0  0  0  0  0
   29.2630   27.3537   46.8696 H   0  0  0  0  0  0  0  0  0  0  0  0
   27.1758   27.1061   47.3811 H   0  0  0  0  0  0  0  0  0  0  0  0
   27.5559   25.6836   48.4615 H   0  0  0  0  0  0  0  0  0  0  0  0
   27.6382   28.5330   49.2108 H   0  0  0  0  0  0  0  0  0  0  0  0
   28.0781   27.3762   51.4212 H   0  0  0  0  0  0  0  0  0  0  0  0
   28.5108   25.9774   50.4221 H   0  0  0  0  0  0  0  0  0  0  0  0
   30.5237   27.3232   50.7694 H   0  0  0  0  0  0  0  0  0  0  0  0
   29.6710   28.8135   50.2642 H   0  0  0  0  0  0  0  0  0  0  0  0
   33.9081   30.2608   49.8181 H   0  0  0  0  0  0  0  0  0  0  0  0
   35.0192   29.5087   51.0216 H   0  0  0  0  0  0  0  0  0  0  0  0
   37.7945   33.2322   50.2614 H   0  0  0  0  0  0  0  0  0  0  0  0
   38.8806   32.7056   48.0790 H   0  0  0  0  0  0  0  0  0  0  0  0
   36.1954   30.7501   45.5724 H   0  0  0  0  0  0  0  0  0  0  0  0
   38.2018   29.4792   46.5208 H   0  0  0  0  0  0  0  0  0  0  0  0
   39.5224   32.2090   46.4845 H   0  0  0  0  0  0  0  0  0  0  0  0
   40.2584   30.5947   46.7428 H   0  0  0  0  0  0  0  0  0  0  0  0
   39.6482   29.7787   43.2435 H   0  0  0  0  0  0  0  0  0  0  0  0
   39.3978   29.0737   44.8916 H   0  0  0  0  0  0  0  0  0  0  0  0
   37.1916   29.1183   44.0347 H   0  0  0  0  0  0  0  0  0  0  0  0
   37.3743   32.8187   45.7359 H   0  0  0  0  0  0  0  0  0  0  0  0
   37.1276   31.7377   43.1866 H   0  0  0  0  0  0  0  0  0  0  0  0
  1 13  1  0
  2  6  1  0
  2  1  1  0
  3  2  2  0
  4  3  1  0
  4  5  1  0
  5  7  1  0
  5  6  2  0
  7 12  1  0
  8  9  1  0
  8  7  1  0
  9 10  1  0
 10 11  1  0
 12 11  1  0
 14 19  2  0
 15 14  1  0
 16 17  1  0
 16 15  2  0
 17 18  2  0
 18 13  1  0
 18 19  1  0
 20 26  1  0
 20 21  1  0
 21 16  1  0
 22 21  1  0
 23 22  1  0
 24 23  1  0
 25 27  1  0
 25 24  1  0
 25 20  1  0
  1 28  1  0
  1 29  1  0
  3 30  1  0
  8 31  1  0
  8 32  1  0
  9 33  1  0
  9 34  1  0
 10 35  1  0
 11 36  1  0
 11 37  1  0
 12 38  1  0
 12 39  1  0
 13 40  1  0
 13 41  1  0
 14 42  1  0
 15 43  1  0
 20 44  1  1
 21 45  1  1
 22 46  1  0
 22 47  1  0
 24 48  1  0
 24 49  1  0
 25 50  1  6
 26 51  1  0
 27 52  1  0
M  ISO  8  28   8  29   8  30  14  31  13  32  13  33  13  34  13  35   5
M  ISO  8  36  13  37  13  38  13  39  13  40   8  41   8  42  14  43  14
M  ISO  8  44  13  45  13  46  13  47  13  48  13  49  13  50  13  51   3
M  ISO  1  52   3
M  END
>  <minimizedAffinity>  (1) 
-7.06414175

>  <minimizedRMSD>  (1) 
1.07772839

$$$$
