
     RDKit          3D

 47 50  0  0  1  0  0  0  0  0999 V2000
   34.6500   30.2310   48.0280 F   0  0  0  0  0  0  0  0  0  0  0  0
   35.0120   29.9140   46.7420 C   0  0  0  0  0  0  0  0  0  0  0  0
   34.1680   29.2180   45.8910 C   0  0  0  0  0  0  0  0  0  0  0  0
   34.5930   28.9540   44.6060 C   0  0  0  0  0  0  0  0  0  0  0  0
   35.8520   29.3790   44.1680 C   0  0  0  0  0  0  0  0  0  0  0  0
   36.6420   30.0660   45.0680 C   0  0  0  0  0  0  0  0  0  0  0  0
   36.2710   30.3460   46.3290 C   0  0  0  0  0  0  0  0  0  0  0  0
   38.2080   32.4680   45.0840 Br  0  0  0  0  0  0  0  0  0  0  0  0
   38.0610   32.0490   46.9370 C   0  0  0  0  0  0  0  0  0  0  0  0
   37.1550   31.0600   47.2290 C   0  0  0  0  0  0  0  0  0  0  0  0
   37.0200   30.6690   48.5740 C   0  0  0  0  0  0  0  0  0  0  0  0
   37.7630   31.2570   49.5470 C   0  0  0  0  0  0  0  0  0  0  0  0
   38.6560   32.2480   49.1930 C   0  0  0  0  0  0  0  0  0  0  0  0
   38.8190   32.6630   47.8650 C   0  0  0  0  0  0  0  0  0  0  0  0
   39.6690   33.6300   47.4260 O   0  0  0  0  0  0  0  0  0  0  0  0
   32.8940   27.7750   47.3340 C   0  0  0  0  0  0  0  0  0  0  0  0
   32.9060   28.8410   46.4600 C   0  0  0  0  0  0  0  0  0  0  0  0
   31.6960   29.4910   46.2010 C   0  0  0  0  0  0  0  0  0  0  0  0
   30.5610   29.0570   46.8110 N   0  0  0  0  0  0  0  0  0  0  0  0
   30.5910   28.0250   47.6480 C   0  0  0  0  0  0  0  0  0  0  0  0
   31.7230   27.3910   47.9110 N   0  0  0  0  0  0  0  0  0  0  0  0
   28.9400   28.4020   49.4950 C   0  0  1  0  0  0  0  0  0  0  0  0
   29.3620   27.5370   48.3250 C   0  0  1  0  0  0  0  0  0  0  0  0
   28.1780   27.5020   47.3830 C   0  0  0  0  0  0  0  0  0  0  0  0
   27.0470   27.4020   48.1690 O   0  0  0  0  0  0  0  0  0  0  0  0
   27.2320   26.7100   49.3540 C   0  0  0  0  0  0  0  0  0  0  0  0
   28.0380   27.5260   50.3720 C   0  0  1  0  0  0  0  0  0  0  0  0
   30.0610   28.8480   50.1500 O   0  0  0  0  0  0  0  0  0  0  0  0
   28.9110   26.7150   51.0990 O   0  0  0  0  0  0  0  0  0  0  0  0
   33.9350   28.4032   43.9178 H   0  0  0  0  0  0  0  0  0  0  0  0
   36.1994   29.1734   43.1448 H   0  0  0  0  0  0  0  0  0  0  0  0
   37.6337   30.4042   44.7332 H   0  0  0  0  0  0  0  0  0  0  0  0
   36.3041   29.8776   48.8405 H   0  0  0  0  0  0  0  0  0  0  0  0
   37.6551   30.9492   50.5975 H   0  0  0  0  0  0  0  0  0  0  0  0
   39.2588   32.7271   49.9785 H   0  0  0  0  0  0  0  0  0  0  0  0
   40.2473   34.1104   48.0701 H   0  0  0  0  0  0  0  0  0  0  0  0
   33.8260   27.2377   47.5637 H   0  0  0  0  0  0  0  0  0  0  0  0
   31.6623   30.3461   45.5098 H   0  0  0  0  0  0  0  0  0  0  0  0
   28.3831   29.3005   49.1907 H   0  0  0  0  0  0  0  0  0  0  0  0
   29.6305   26.5298   48.6765 H   0  0  0  0  0  0  0  0  0  0  0  0
   28.2521   26.6324   46.7134 H   0  0  0  0  0  0  0  0  0  0  0  0
   28.1450   28.4053   46.7561 H   0  0  0  0  0  0  0  0  0  0  0  0
   26.2481   26.4745   49.7858 H   0  0  0  0  0  0  0  0  0  0  0  0
   27.7957   25.7926   49.1290 H   0  0  0  0  0  0  0  0  0  0  0  0
   27.3684   28.0530   51.0677 H   0  0  0  0  0  0  0  0  0  0  0  0
   29.9167   28.7906   51.1277 H   0  0  0  0  0  0  0  0  0  0  0  0
   28.7612   26.8541   52.0677 H   0  0  0  0  0  0  0  0  0  0  0  0
  2  1  1  0
  3 17  1  0
  3  2  2  0
  4  3  1  0
  5  4  2  0
  5  6  1  0
  6  7  2  0
  7  2  1  0
  7 10  1  0
  8  9  1  0
  9 10  2  0
  9 14  1  0
 10 11  1  0
 11 12  2  0
 13 12  1  0
 14 13  2  0
 15 14  1  0
 16 21  2  0
 17 16  1  0
 18 17  2  0
 18 19  1  0
 19 20  2  0
 20 21  1  0
 22 28  1  0
 22 27  1  0
 23 20  1  0
 23 22  1  0
 24 25  1  0
 24 23  1  0
 25 26  1  0
 26 27  1  0
 27 29  1  0
  4 30  1  0
  5 31  1  0
  6 32  1  0
 11 33  1  0
 12 34  1  0
 13 35  1  0
 15 36  1  0
 16 37  1  0
 18 38  1  0
 22 39  1  6
 23 40  1  1
 24 41  1  0
 24 42  1  0
 26 43  1  0
 26 44  1  0
 27 45  1  1
 28 46  1  0
 29 47  1  0
M  END
>  <minimizedAffinity>  (1) 
-7.74348688

>  <minimizedRMSD>  (1) 
1.39078879

$$$$
