
     RDKit          3D

 38 40  0  0  1  0  0  0  0  0999 V2000
   33.1650   27.2740   45.8850 C   0  0  1  0  0  0  0  0  0  0  0  0
   33.8950   27.4550   47.2360 C   0  0  2  0  0  0  0  0  0  0  0  0
   33.7500   26.2430   47.8330 O   0  0  0  0  0  0  0  0  0  0  0  0
   34.0550   25.3270   46.8470 C   0  0  0  0  0  0  0  0  0  0  0  0
   33.5480   25.8690   45.5370 C   0  0  2  0  0  0  0  0  0  0  0  0
   31.8090   27.4860   46.0380 O   0  0  0  0  0  0  0  0  0  0  0  0
   33.2750   28.5180   47.8220 O   0  0  0  0  0  0  0  0  0  0  0  0
   35.3420   29.7910   46.7840 O   0  0  0  0  0  0  0  0  0  0  0  0
   34.0780   29.9830   47.6140 P   0  0  1  0  0  0  0  0  0  0  0  0
   33.1180   31.0510   46.7170 O   0  0  0  0  0  0  0  0  0  0  0  0
   34.3900   30.6230   49.1620 O   0  0  0  0  0  0  0  0  0  0  0  0
   35.6190   30.4900   49.7830 C   0  0  0  0  0  0  0  0  0  0  0  0
   35.9630   29.4740   50.6990 C   0  0  0  0  0  0  0  0  0  0  0  0
   37.2450   29.4870   51.2330 C   0  0  0  0  0  0  0  0  0  0  0  0
   38.1060   30.4810   50.8450 N   0  0  0  0  0  0  0  0  0  0  0  0
   37.7440   31.4460   49.9600 C   0  0  0  0  0  0  0  0  0  0  0  0
   36.4930   31.4510   49.4260 N   0  0  0  0  0  0  0  0  0  0  0  0
   34.5640   25.8740   44.5830 O   0  0  0  0  0  0  0  0  0  0  0  0
   35.0220   24.6610   44.0710 C   0  0  0  0  0  0  0  0  0  0  0  0
   36.3750   24.4140   44.0800 C   0  0  0  0  0  0  0  0  0  0  0  0
   36.8560   23.2150   43.5770 C   0  0  0  0  0  0  0  0  0  0  0  0
   35.9760   22.2760   43.0700 C   0  0  0  0  0  0  0  0  0  0  0  0
   34.6300   22.5680   43.0820 C   0  0  0  0  0  0  0  0  0  0  0  0
   34.1470   23.7420   43.5740 N   0  0  0  0  0  0  0  0  0  0  0  0
   33.4343   27.9821   45.0875 H   0  0  0  0  0  0  0  0  0  0  0  0
   34.9689   27.6930   47.2406 H   0  0  0  0  0  0  0  0  0  0  0  0
   35.1443   25.1829   46.7951 H   0  0  0  0  0  0  0  0  0  0  0  0
   33.5851   24.3571   47.0673 H   0  0  0  0  0  0  0  0  0  0  0  0
   32.7241   25.2770   45.1118 H   0  0  0  0  0  0  0  0  0  0  0  0
   31.5871   27.5207   47.0022 H   0  0  0  0  0  0  0  0  0  0  0  0
   32.6003   31.6269   47.3338 H   0  0  0  0  0  0  0  0  0  0  0  0
   35.2387   28.6959   50.9815 H   0  0  0  0  0  0  0  0  0  0  0  0
   37.5626   28.7169   51.9513 H   0  0  0  0  0  0  0  0  0  0  0  0
   38.4650   32.2260   49.6743 H   0  0  0  0  0  0  0  0  0  0  0  0
   37.0714   25.1635   44.4840 H   0  0  0  0  0  0  0  0  0  0  0  0
   37.9368   23.0105   43.5811 H   0  0  0  0  0  0  0  0  0  0  0  0
   36.3419   21.3200   42.6673 H   0  0  0  0  0  0  0  0  0  0  0  0
   33.9218   21.8281   42.6808 H   0  0  0  0  0  0  0  0  0  0  0  0
  1  6  1  0
  1  2  1  0
  2  7  1  0
  2  3  1  0
  4  3  1  0
  5  1  1  0
  5  4  1  0
  9  8  2  0
  9  7  1  0
  9 11  1  0
 10  9  1  0
 11 12  1  0
 12 13  2  0
 13 14  1  0
 15 14  2  0
 16 15  1  0
 17 12  1  0
 17 16  2  0
 18  5  1  0
 19 20  2  0
 19 18  1  0
 21 20  1  0
 22 23  1  0
 22 21  2  0
 23 24  2  0
 24 19  1  0
  1 25  1  6
  2 26  1  6
  4 27  1  0
  4 28  1  0
  5 29  1  6
  6 30  1  0
 10 31  1  0
 13 32  1  0
 14 33  1  0
 16 34  1  0
 20 35  1  0
 21 36  1  0
 22 37  1  0
 23 38  1  0
M  ISO  8  25  13  26  13  27  13  28  13  29  13  30   3  31   3  32  14
M  ISO  6  33  14  34  14  35  14  36  14  37  14  38  14
M  END
>  <minimizedAffinity>  (1) 
-4.1182456

>  <minimizedRMSD>  (1) 
1.4381665

$$$$
