
     RDKit          3D

 30 32  0  0  0  0  0  0  0  0999 V2000
   36.6630   29.7540   50.2970 C   0  0  0  0  0  0  0  0  0  0  0  0
   37.2950   30.4420   49.2480 C   0  0  0  0  0  0  0  0  0  0  0  0
   36.7560   30.2930   47.9850 C   0  0  0  0  0  0  0  0  0  0  0  0
   35.6670   29.5050   47.8350 N   0  0  0  0  0  0  0  0  0  0  0  0
   35.0770   28.8530   48.8620 C   0  0  0  0  0  0  0  0  0  0  0  0
   35.5920   28.9880   50.1020 N   0  0  0  0  0  0  0  0  0  0  0  0
   37.2970   30.9440   46.7810 C   0  0  0  0  0  0  0  0  0  0  0  0
   36.7320   30.7770   45.5360 C   0  0  0  0  0  0  0  0  0  0  0  0
   37.2370   31.3870   44.4010 C   0  0  0  0  0  0  0  0  0  0  0  0
   38.3300   32.1810   44.5120 N   0  0  0  0  0  0  0  0  0  0  0  0
   38.8660   32.3320   45.7220 C   0  0  0  0  0  0  0  0  0  0  0  0
   38.3770   31.7410   46.8250 N   0  0  0  0  0  0  0  0  0  0  0  0
   40.0710   33.1990   45.8820 C   0  0  0  0  0  0  0  0  0  0  0  0
   40.0720   33.7080   47.1580 F   0  0  0  0  0  0  0  0  0  0  0  0
   41.2370   32.4770   45.6340 F   0  0  0  0  0  0  0  0  0  0  0  0
   40.0500   34.2470   45.0140 F   0  0  0  0  0  0  0  0  0  0  0  0
   33.9140   28.0350   48.5870 C   0  0  0  0  0  0  0  0  0  0  0  0
   33.9360   26.9550   47.7600 C   0  0  0  0  0  0  0  0  0  0  0  0
   32.7820   26.2260   47.5510 C   0  0  0  0  0  0  0  0  0  0  0  0
   31.5820   26.5570   48.1620 C   0  0  0  0  0  0  0  0  0  0  0  0
   31.6260   27.6640   48.9890 C   0  0  0  0  0  0  0  0  0  0  0  0
   32.7530   28.3710   49.1890 N   0  0  0  0  0  0  0  0  0  0  0  0
   37.0673   29.8517   51.3153 H   0  0  0  0  0  0  0  0  0  0  0  0
   38.1797   31.0714   49.4245 H   0  0  0  0  0  0  0  0  0  0  0  0
   35.8449   30.1337   45.4401 H   0  0  0  0  0  0  0  0  0  0  0  0
   36.7584   31.2298   43.4231 H   0  0  0  0  0  0  0  0  0  0  0  0
   34.8708   26.6632   47.2590 H   0  0  0  0  0  0  0  0  0  0  0  0
   32.8157   25.3558   46.8790 H   0  0  0  0  0  0  0  0  0  0  0  0
   30.6600   25.9794   48.0001 H   0  0  0  0  0  0  0  0  0  0  0  0
   30.7054   27.9784   49.5025 H   0  0  0  0  0  0  0  0  0  0  0  0
  2  1  2  0
  3  2  1  0
  4  3  2  0
  4  5  1  0
  5  6  2  0
  6  1  1  0
  7 12  1  0
  7  3  1  0
  8  7  2  0
  9 10  2  0
  9  8  1  0
 10 11  1  0
 11 13  1  0
 11 12  2  0
 13 14  1  0
 15 13  1  0
 16 13  1  0
 17  5  1  0
 17 22  1  0
 18 17  2  0
 19 18  1  0
 19 20  2  0
 20 21  1  0
 21 22  2  0
  1 23  1  0
  2 24  1  0
  8 25  1  0
  9 26  1  0
 18 27  1  0
 19 28  1  0
 20 29  1  0
 21 30  1  0
M  ISO  8  23  14  24  14  25  14  26  14  27  14  28  14  29  14  30  14
M  END
>  <minimizedAffinity>  (1) 
-6.17032671

>  <minimizedRMSD>  (1) 
1.40709233

$$$$
