
     RDKit          3D

 26 27  0  0  0  0  0  0  0  0999 V2000
   33.5440   28.2910   49.1710 C   0  0  0  0  0  0  0  0  0  0  0  0
   34.5990   28.8810   48.2610 C   0  0  0  0  0  0  0  0  0  0  0  0
   35.6620   29.4830   49.1090 C   0  0  0  0  0  0  0  0  0  0  0  0
   35.8040   30.8550   48.9710 C   0  0  0  0  0  0  0  0  0  0  0  0
   36.7900   31.4590   49.7510 C   0  0  0  0  0  0  0  0  0  0  0  0
   37.6010   30.7520   50.6250 C   0  0  0  0  0  0  0  0  0  0  0  0
   37.3970   29.3730   50.7080 C   0  0  0  0  0  0  0  0  0  0  0  0
   36.4420   28.7790   49.9560 N   0  0  0  0  0  0  0  0  0  0  0  0
   32.6480   27.5050   48.4260 O   0  0  0  0  0  0  0  0  0  0  0  0
   29.2860   28.5470   47.5450 C   0  0  0  0  0  0  0  0  0  0  0  0
   28.6820   28.4610   48.8070 C   0  0  0  0  0  0  0  0  0  0  0  0
   29.4510   28.0530   49.8900 C   0  0  0  0  0  0  0  0  0  0  0  0
   30.7630   27.7630   49.6320 N   0  0  0  0  0  0  0  0  0  0  0  0
   31.3200   27.8530   48.4080 C   0  0  0  0  0  0  0  0  0  0  0  0
   30.5590   28.2490   47.3770 N   0  0  0  0  0  0  0  0  0  0  0  0
   34.0302   27.6646   49.9334 H   0  0  0  0  0  0  0  0  0  0  0  0
   32.9891   29.1078   49.6557 H   0  0  0  0  0  0  0  0  0  0  0  0
   34.1489   29.6556   47.6227 H   0  0  0  0  0  0  0  0  0  0  0  0
   35.0255   28.0979   47.6169 H   0  0  0  0  0  0  0  0  0  0  0  0
   35.1727   31.4364   48.2830 H   0  0  0  0  0  0  0  0  0  0  0  0
   36.9306   32.5469   49.6688 H   0  0  0  0  0  0  0  0  0  0  0  0
   38.3718   31.2553   51.2271 H   0  0  0  0  0  0  0  0  0  0  0  0
   38.0150   28.7675   51.3873 H   0  0  0  0  0  0  0  0  0  0  0  0
   28.6874   28.8687   46.6800 H   0  0  0  0  0  0  0  0  0  0  0  0
   27.6190   28.7118   48.9376 H   0  0  0  0  0  0  0  0  0  0  0  0
   29.0273   27.9677   50.9015 H   0  0  0  0  0  0  0  0  0  0  0  0
  2  3  1  0
  2  1  1  0
  3  8  1  0
  4  3  2  0
  4  5  1  0
  5  6  2  0
  6  7  1  0
  8  7  2  0
  9  1  1  0
 10 11  2  0
 11 12  1  0
 13 12  2  0
 14  9  1  0
 14 13  1  0
 15 10  1  0
 15 14  2  0
  1 16  1  0
  1 17  1  0
  2 18  1  0
  2 19  1  0
  4 20  1  0
  5 21  1  0
  6 22  1  0
  7 23  1  0
 10 24  1  0
 11 25  1  0
 12 26  1  0
M  ISO  8  16   8  17   8  18   8  19   8  20  14  21  14  22  14  23  14
M  ISO  3  24  14  25  14  26  14
M  END
>  <minimizedAffinity>  (1) 
-4.42765617

>  <minimizedRMSD>  (1) 
6.57903814

$$$$
