
     RDKit          3D

 38 40  0  0  0  0  0  0  0  0999 V2000
   36.0570   30.5100   45.4880 C   0  0  0  0  0  0  0  0  0  0  0  0
   35.6880   30.3450   46.8030 C   0  0  0  0  0  0  0  0  0  0  0  0
   34.4020   29.9240   47.0990 C   0  0  0  0  0  0  0  0  0  0  0  0
   33.4570   29.6570   46.1280 C   0  0  0  0  0  0  0  0  0  0  0  0
   33.7990   29.8160   44.8090 C   0  0  0  0  0  0  0  0  0  0  0  0
   35.0760   30.2330   44.5370 C   0  0  0  0  0  0  0  0  0  0  0  0
   38.3900   31.9120   48.7410 C   0  0  0  0  0  0  0  0  0  0  0  0
   37.4850   31.6260   47.7250 C   0  0  0  0  0  0  0  0  0  0  0  0
   36.5910   30.6220   47.8680 C   0  0  0  0  0  0  0  0  0  0  0  0
   36.6150   29.9220   49.0420 N   0  0  0  0  0  0  0  0  0  0  0  0
   37.4820   30.1960   50.0250 C   0  0  0  0  0  0  0  0  0  0  0  0
   38.3630   31.1880   49.8660 N   0  0  0  0  0  0  0  0  0  0  0  0
   37.3560   29.3990   51.2750 C   0  0  0  0  0  0  0  0  0  0  0  0
   37.6610   30.1490   52.3990 F   0  0  0  0  0  0  0  0  0  0  0  0
   35.9590   29.0810   51.4740 F   0  0  0  0  0  0  0  0  0  0  0  0
   37.9430   28.2240   51.3040 F   0  0  0  0  0  0  0  0  0  0  0  0
   37.6430   30.9830   44.9970 S   0  0  0  0  0  0  0  0  0  0  0  0
   37.7520   32.4610   44.9570 O   0  0  0  0  0  0  0  0  0  0  0  0
   37.4720   30.7770   43.5140 O   0  0  0  0  0  0  0  0  0  0  0  0
   39.0430   30.0490   44.8760 C   0  0  0  0  0  0  0  0  0  0  0  0
   39.6110   29.4020   43.7310 C   0  0  0  0  0  0  0  0  0  0  0  0
   40.5860   30.0470   42.9890 C   0  0  0  0  0  0  0  0  0  0  0  0
   41.2240   29.5440   41.8590 C   0  0  0  0  0  0  0  0  0  0  0  0
   40.8130   28.2700   41.4710 C   0  0  0  0  0  0  0  0  0  0  0  0
   39.8430   27.6090   42.1960 C   0  0  0  0  0  0  0  0  0  0  0  0
   39.2720   28.1630   43.2800 N   0  0  0  0  0  0  0  0  0  0  0  0
   34.1209   29.7966   48.1548 H   0  0  0  0  0  0  0  0  0  0  0  0
   32.4471   29.3225   46.4075 H   0  0  0  0  0  0  0  0  0  0  0  0
   33.0778   29.6170   44.0026 H   0  0  0  0  0  0  0  0  0  0  0  0
   35.3499   30.3598   43.4792 H   0  0  0  0  0  0  0  0  0  0  0  0
   39.1209   32.7253   48.6212 H   0  0  0  0  0  0  0  0  0  0  0  0
   37.4965   32.2202   46.7993 H   0  0  0  0  0  0  0  0  0  0  0  0
   39.8430   30.7121   45.2370 H   0  0  0  0  0  0  0  0  0  0  0  0
   38.6677   29.1494   45.3858 H   0  0  0  0  0  0  0  0  0  0  0  0
   40.8843   31.0513   43.3241 H   0  0  0  0  0  0  0  0  0  0  0  0
   41.9942   30.1090   41.3135 H   0  0  0  0  0  0  0  0  0  0  0  0
   41.2615   27.7920   40.5876 H   0  0  0  0  0  0  0  0  0  0  0  0
   39.5288   26.6035   41.8793 H   0  0  0  0  0  0  0  0  0  0  0  0
  1  2  1  0
  2  3  2  0
  2  9  1  0
  4  3  1  0
  5  4  2  0
  6  5  1  0
  6  1  2  0
  7 12  2  0
  8  9  2  0
  8  7  1  0
  9 10  1  0
 10 11  2  0
 11 13  1  0
 12 11  1  0
 13 16  1  0
 13 15  1  0
 13 14  1  0
 17  1  1  0
 18 17  2  0
 19 17  2  0
 20 17  1  0
 21 20  1  0
 22 21  2  0
 23 22  1  0
 24 23  2  0
 24 25  1  0
 25 26  2  0
 26 21  1  0
  3 27  1  0
  4 28  1  0
  5 29  1  0
  6 30  1  0
  7 31  1  0
  8 32  1  0
 20 33  1  0
 20 34  1  0
 22 35  1  0
 23 36  1  0
 24 37  1  0
 25 38  1  0
M  ISO  8  27  14  28  14  29  14  30  14  31  14  32  14  33   8  34   8
M  ISO  4  35  14  36  14  37  14  38  14
M  END
>  <minimizedAffinity>  (1) 
-6.34341526

>  <minimizedRMSD>  (1) 
2.44298697

$$$$
