
     RDKit          3D

 41 43  0  0  1  0  0  0  0  0999 V2000
   34.2330   29.4080   48.6890 C   0  0  1  0  0  0  0  0  0  0  0  0
   33.8920   30.0540   49.9410 C   0  0  0  0  0  0  0  0  0  0  0  0
   34.6700   29.6250   51.1690 C   0  0  0  0  0  0  0  0  0  0  0  0
   36.1220   29.3530   50.9310 C   0  0  0  0  0  0  0  0  0  0  0  0
   36.5040   28.7310   49.6430 C   0  0  0  0  0  0  0  0  0  0  0  0
   35.7170   29.2580   48.4980 C   0  0  2  0  0  0  0  0  0  0  0  0
   32.1710   27.8950   48.8080 C   0  0  0  0  0  0  0  0  0  0  0  0
   33.5010   28.1730   48.3640 C   0  0  0  0  0  0  0  0  0  0  0  0
   34.0850   27.1830   47.5870 C   0  0  0  0  0  0  0  0  0  0  0  0
   33.3900   26.0360   47.2940 N   0  0  0  0  0  0  0  0  0  0  0  0
   32.1450   25.8390   47.7440 C   0  0  0  0  0  0  0  0  0  0  0  0
   31.5310   26.7790   48.5080 N   0  0  0  0  0  0  0  0  0  0  0  0
   36.2280   30.7080   48.3080 C   0  0  0  0  0  0  0  0  0  0  0  0
   37.6420   30.6860   47.7150 C   0  0  0  0  0  0  0  0  0  0  0  0
   38.3530   31.9390   48.0940 C   0  0  0  0  0  0  0  0  0  0  0  0
   38.2440   32.5410   49.3330 C   0  0  0  0  0  0  0  0  0  0  0  0
   38.9730   33.6980   49.5110 C   0  0  0  0  0  0  0  0  0  0  0  0
   39.7830   34.2970   48.5910 C   0  0  0  0  0  0  0  0  0  0  0  0
   39.8410   33.6290   47.3660 C   0  0  0  0  0  0  0  0  0  0  0  0
   39.1450   32.4970   47.1460 N   0  0  0  0  0  0  0  0  0  0  0  0
   33.8637   30.1239   47.9399 H   0  0  0  0  0  0  0  0  0  0  0  0
   34.0475   31.1351   49.8101 H   0  0  0  0  0  0  0  0  0  0  0  0
   32.8522   29.7571   50.1426 H   0  0  0  0  0  0  0  0  0  0  0  0
   34.5907   30.4244   51.9204 H   0  0  0  0  0  0  0  0  0  0  0  0
   34.2275   28.6732   51.4979 H   0  0  0  0  0  0  0  0  0  0  0  0
   36.6521   30.3143   51.0015 H   0  0  0  0  0  0  0  0  0  0  0  0
   36.3930   28.6058   51.6915 H   0  0  0  0  0  0  0  0  0  0  0  0
   37.5702   28.9292   49.4586 H   0  0  0  0  0  0  0  0  0  0  0  0
   36.2990   27.6530   49.7200 H   0  0  0  0  0  0  0  0  0  0  0  0
   35.8518   28.5373   47.6780 H   0  0  0  0  0  0  0  0  0  0  0  0
   31.6570   28.6445   49.4277 H   0  0  0  0  0  0  0  0  0  0  0  0
   35.1076   27.3175   47.2047 H   0  0  0  0  0  0  0  0  0  0  0  0
   31.6149   24.9084   47.4930 H   0  0  0  0  0  0  0  0  0  0  0  0
   35.5540   31.2464   47.6255 H   0  0  0  0  0  0  0  0  0  0  0  0
   36.2506   31.2162   49.2833 H   0  0  0  0  0  0  0  0  0  0  0  0
   37.5800   30.6155   46.6190 H   0  0  0  0  0  0  0  0  0  0  0  0
   38.1923   29.8170   48.1050 H   0  0  0  0  0  0  0  0  0  0  0  0
   37.6128   32.1220   50.1305 H   0  0  0  0  0  0  0  0  0  0  0  0
   38.8934   34.1869   50.4932 H   0  0  0  0  0  0  0  0  0  0  0  0
   40.3403   35.2230   48.7958 H   0  0  0  0  0  0  0  0  0  0  0  0
   40.4703   34.0371   46.5614 H   0  0  0  0  0  0  0  0  0  0  0  0
  1  2  1  0
  2  3  1  0
  4  3  1  0
  5  4  1  0
  6  1  1  0
  6  5  1  0
  8  1  1  0
  8  7  2  0
  9  8  1  0
 10  9  2  0
 10 11  1  0
 11 12  2  0
 12  7  1  0
 13  6  1  0
 14 15  1  0
 14 13  1  0
 15 16  2  0
 16 17  1  0
 18 17  2  0
 19 18  1  0
 20 19  2  0
 20 15  1  0
  1 21  1  6
  2 22  1  0
  2 23  1  0
  3 24  1  0
  3 25  1  0
  4 26  1  0
  4 27  1  0
  5 28  1  0
  5 29  1  0
  6 30  1  6
  7 31  1  0
  9 32  1  0
 11 33  1  0
 13 34  1  0
 13 35  1  0
 14 36  1  0
 14 37  1  0
 16 38  1  0
 17 39  1  0
 18 40  1  0
 19 41  1  0
M  ISO  8  21  13  22  13  23  13  24  13  25  13  26  13  27  13  28  13
M  ISO  8  29  13  30  13  31  14  32  14  33  14  34   8  35   8  36   8
M  ISO  5  37   8  38  14  39  14  40  14  41  14
M  END
>  <minimizedAffinity>  (1) 
-5.50562763

>  <minimizedRMSD>  (1) 
2.89201331

$$$$
