
     RDKit          3D

 40 43  0  0  1  0  0  0  0  0999 V2000
   34.8490   29.9000   47.3820 C   0  0  0  0  0  0  0  0  0  0  0  0
   35.4850   29.9410   46.1500 C   0  0  0  0  0  0  0  0  0  0  0  0
   36.7000   30.6100   46.3420 C   0  0  0  0  0  0  0  0  0  0  0  0
   36.7510   30.9370   47.6370 N   0  0  0  0  0  0  0  0  0  0  0  0
   35.6550   30.5090   48.2250 N   0  0  0  0  0  0  0  0  0  0  0  0
   38.4630   32.6280   47.5440 N   0  0  0  0  0  0  0  0  0  0  0  0
   39.1450   33.4680   48.5000 C   0  0  0  0  0  0  0  0  0  0  0  0
   38.4890   33.2570   49.8460 C   0  0  0  0  0  0  0  0  0  0  0  0
   37.2340   32.4790   49.4590 C   0  0  0  0  0  0  0  0  0  0  0  0
   37.7810   31.6300   48.3430 C   0  0  1  0  0  0  0  0  0  0  0  0
   38.6830   30.6650   48.9110 N   0  0  0  0  0  0  0  0  0  0  0  0
   33.2360   28.4790   48.6700 C   0  0  0  0  0  0  0  0  0  0  0  0
   33.5480   29.2740   47.5650 C   0  0  0  0  0  0  0  0  0  0  0  0
   32.5520   29.4690   46.5930 C   0  0  0  0  0  0  0  0  0  0  0  0
   31.3510   28.8680   46.7980 N   0  0  0  0  0  0  0  0  0  0  0  0
   31.0810   28.1100   47.8730 C   0  0  0  0  0  0  0  0  0  0  0  0
   32.0470   27.9140   48.8270 N   0  0  0  0  0  0  0  0  0  0  0  0
   29.7990   27.4670   48.0960 C   0  0  0  0  0  0  0  0  0  0  0  0
   29.2730   27.4390   49.3590 C   0  0  0  0  0  0  0  0  0  0  0  0
   28.0450   26.8320   49.6240 C   0  0  0  0  0  0  0  0  0  0  0  0
   27.3780   26.2590   48.5530 C   0  0  0  0  0  0  0  0  0  0  0  0
   27.9000   26.2860   47.2910 C   0  0  0  0  0  0  0  0  0  0  0  0
   29.0900   26.8910   47.1260 N   0  0  0  0  0  0  0  0  0  0  0  0
   35.1072   29.5272   45.2034 H   0  0  0  0  0  0  0  0  0  0  0  0
   37.4619   30.8241   45.5781 H   0  0  0  0  0  0  0  0  0  0  0  0
   39.1384   32.1822   46.9068 H   0  0  0  0  0  0  0  0  0  0  0  0
   40.2077   33.1890   48.5531 H   0  0  0  0  0  0  0  0  0  0  0  0
   39.0801   34.5245   48.2006 H   0  0  0  0  0  0  0  0  0  0  0  0
   39.1327   32.6711   50.5185 H   0  0  0  0  0  0  0  0  0  0  0  0
   38.2859   34.1883   50.3951 H   0  0  0  0  0  0  0  0  0  0  0  0
   36.8616   31.8656   50.2927 H   0  0  0  0  0  0  0  0  0  0  0  0
   36.3707   33.1028   49.1839 H   0  0  0  0  0  0  0  0  0  0  0  0
   38.6364   30.7148   49.9387 H   0  0  0  0  0  0  0  0  0  0  0  0
   38.4150   29.7202   48.6006 H   0  0  0  0  0  0  0  0  0  0  0  0
   34.0055   28.3155   49.4388 H   0  0  0  0  0  0  0  0  0  0  0  0
   32.7377   30.0846   45.7005 H   0  0  0  0  0  0  0  0  0  0  0  0
   29.8310   27.9057   50.1841 H   0  0  0  0  0  0  0  0  0  0  0  0
   27.6241   26.8093   50.6400 H   0  0  0  0  0  0  0  0  0  0  0  0
   26.4066   25.7716   48.7229 H   0  0  0  0  0  0  0  0  0  0  0  0
   27.3679   25.8307   46.4427 H   0  0  0  0  0  0  0  0  0  0  0  0
  1 13  1  0
  1  5  2  0
  2  3  2  0
  2  1  1  0
  3  4  1  0
  4  5  1  0
  4 10  1  0
  6 10  1  0
  6  7  1  0
  7  8  1  0
  9  8  1  0
 10 11  1  1
 10  9  1  0
 12 17  2  0
 13 12  1  0
 14 15  1  0
 14 13  2  0
 15 16  2  0
 16 18  1  0
 16 17  1  0
 18 19  2  0
 19 20  1  0
 21 20  2  0
 22 21  1  0
 23 22  2  0
 23 18  1  0
  2 24  1  0
  3 25  1  0
  6 26  1  0
  7 27  1  0
  7 28  1  0
  8 29  1  0
  8 30  1  0
  9 31  1  0
  9 32  1  0
 11 33  1  0
 11 34  1  0
 12 35  1  0
 14 36  1  0
 19 37  1  0
 20 38  1  0
 21 39  1  0
 22 40  1  0
M  ISO  8  24  14  25  14  26   5  27  13  28  13  29  13  30  13  31  13
M  ISO  8  32  13  33   5  34   5  35  14  36  14  37  14  38  14  39  14
M  ISO  1  40  14
M  END
>  <minimizedAffinity>  (1) 
-5.85040045

>  <minimizedRMSD>  (1) 
0.577473521

$$$$
