
     RDKit          3D

 28 30  0  0  0  0  0  0  0  0999 V2000
   35.8430   30.1670   49.9000 C   0  0  0  0  0  0  0  0  0  0  0  0
   36.7240   29.9030   50.9320 C   0  0  0  0  0  0  0  0  0  0  0  0
   37.8190   30.6980   50.6000 C   0  0  0  0  0  0  0  0  0  0  0  0
   37.5740   31.3820   49.4350 C   0  0  0  0  0  0  0  0  0  0  0  0
   36.3680   31.0390   49.0350 O   0  0  0  0  0  0  0  0  0  0  0  0
   38.4540   32.3180   48.7400 C   0  0  0  0  0  0  0  0  0  0  0  0
   38.8450   33.4680   49.4210 C   0  0  0  0  0  0  0  0  0  0  0  0
   39.6880   34.3800   48.7760 C   0  0  0  0  0  0  0  0  0  0  0  0
   40.0420   34.0130   47.4950 C   0  0  0  0  0  0  0  0  0  0  0  0
   39.6720   32.8850   46.7980 C   0  0  0  0  0  0  0  0  0  0  0  0
   38.8580   32.0530   47.4850 N   0  0  0  0  0  0  0  0  0  0  0  0
   34.5080   29.5660   49.7750 C   0  0  0  0  0  0  0  0  0  0  0  0
   33.7190   29.6960   50.7470 O   0  0  0  0  0  0  0  0  0  0  0  0
   33.8190   26.8120   47.5140 C   0  0  0  0  0  0  0  0  0  0  0  0
   33.4500   27.4530   46.3260 C   0  0  0  0  0  0  0  0  0  0  0  0
   33.4360   28.8410   46.2930 C   0  0  0  0  0  0  0  0  0  0  0  0
   33.7830   29.5000   47.4280 N   0  0  0  0  0  0  0  0  0  0  0  0
   34.1370   28.8560   48.5640 C   0  0  0  0  0  0  0  0  0  0  0  0
   34.1550   27.5130   48.6080 N   0  0  0  0  0  0  0  0  0  0  0  0
   36.5936   29.2348   51.7960 H   0  0  0  0  0  0  0  0  0  0  0  0
   38.7467   30.7677   51.1870 H   0  0  0  0  0  0  0  0  0  0  0  0
   38.4975   33.6562   50.4475 H   0  0  0  0  0  0  0  0  0  0  0  0
   40.0378   35.3090   49.2499 H   0  0  0  0  0  0  0  0  0  0  0  0
   40.7047   34.7106   46.9619 H   0  0  0  0  0  0  0  0  0  0  0  0
   40.0094   32.6788   45.7715 H   0  0  0  0  0  0  0  0  0  0  0  0
   33.8339   25.7128   47.5519 H   0  0  0  0  0  0  0  0  0  0  0  0
   33.1763   26.8684   45.4353 H   0  0  0  0  0  0  0  0  0  0  0  0
   33.1540   29.3867   45.3805 H   0  0  0  0  0  0  0  0  0  0  0  0
  1  2  2  0
  3  2  1  0
  4  3  2  0
  5  4  1  0
  5  1  1  0
  6  7  2  0
  6  4  1  0
  8  7  1  0
  9  8  2  0
 10 11  2  0
 10  9  1  0
 11  6  1  0
 12  1  1  0
 12 13  2  0
 14 19  2  0
 15 14  1  0
 16 15  2  0
 16 17  1  0
 17 18  2  0
 18 19  1  0
 18 12  1  0
  2 20  1  0
  3 21  1  0
  7 22  1  0
  8 23  1  0
  9 24  1  0
 10 25  1  0
 14 26  1  0
 15 27  1  0
 16 28  1  0
M  ISO  8  20  14  21  14  22  14  23  14  24  14  25  14  26  14  27  14
M  ISO  1  28  14
M  END
>  <minimizedAffinity>  (1) 
-5.74664021

>  <minimizedRMSD>  (1) 
2.08623004

$$$$
