
     RDKit          3D

 37 40  0  0  0  0  0  0  0  0999 V2000
   37.3790   29.1710   50.8140 Br  0  0  0  0  0  0  0  0  0  0  0  0
   35.9740   29.2790   49.5230 C   0  0  0  0  0  0  0  0  0  0  0  0
   35.9760   30.2730   48.5550 C   0  0  0  0  0  0  0  0  0  0  0  0
   34.9330   30.2880   47.6580 C   0  0  0  0  0  0  0  0  0  0  0  0
   33.8970   29.3710   47.6790 C   0  0  0  0  0  0  0  0  0  0  0  0
   33.9310   28.4120   48.6420 C   0  0  0  0  0  0  0  0  0  0  0  0
   34.9630   28.3720   49.5540 C   0  0  0  0  0  0  0  0  0  0  0  0
   38.0010   33.1720   49.4650 C   0  0  0  0  0  0  0  0  0  0  0  0
   39.0250   33.1750   48.4710 C   0  0  0  0  0  0  0  0  0  0  0  0
   38.9950   32.1860   47.5160 C   0  0  0  0  0  0  0  0  0  0  0  0
   37.9980   31.2420   47.5480 N   0  0  0  0  0  0  0  0  0  0  0  0
   37.0480   31.2620   48.4940 C   0  0  0  0  0  0  0  0  0  0  0  0
   37.0600   32.2270   49.4430 N   0  0  0  0  0  0  0  0  0  0  0  0
   32.7990   29.3860   46.7370 C   0  0  0  0  0  0  0  0  0  0  0  0
   31.9820   28.3120   46.4570 C   0  0  0  0  0  0  0  0  0  0  0  0
   30.9390   28.3800   45.5400 C   0  0  0  0  0  0  0  0  0  0  0  0
   30.6980   29.5290   44.8880 N   0  0  0  0  0  0  0  0  0  0  0  0
   31.4870   30.5760   45.1540 C   0  0  0  0  0  0  0  0  0  0  0  0
   32.4920   30.4950   46.0420 N   0  0  0  0  0  0  0  0  0  0  0  0
   31.2550   31.8410   44.4620 C   0  0  0  0  0  0  0  0  0  0  0  0
   31.7570   33.0260   44.9640 C   0  0  0  0  0  0  0  0  0  0  0  0
   31.5220   34.2100   44.2900 C   0  0  0  0  0  0  0  0  0  0  0  0
   30.7970   34.2380   43.1270 C   0  0  0  0  0  0  0  0  0  0  0  0
   30.3140   33.0420   42.6610 C   0  0  0  0  0  0  0  0  0  0  0  0
   30.5410   31.8760   43.3180 N   0  0  0  0  0  0  0  0  0  0  0  0
   34.9221   31.0695   46.8840 H   0  0  0  0  0  0  0  0  0  0  0  0
   33.1281   27.6619   48.6935 H   0  0  0  0  0  0  0  0  0  0  0  0
   34.9685   27.5875   50.3251 H   0  0  0  0  0  0  0  0  0  0  0  0
   37.9878   33.9461   50.2464 H   0  0  0  0  0  0  0  0  0  0  0  0
   39.8124   33.9431   48.4688 H   0  0  0  0  0  0  0  0  0  0  0  0
   39.7649   32.1512   46.7312 H   0  0  0  0  0  0  0  0  0  0  0  0
   32.1625   27.3616   46.9806 H   0  0  0  0  0  0  0  0  0  0  0  0
   30.3134   27.4956   45.3493 H   0  0  0  0  0  0  0  0  0  0  0  0
   32.3412   33.0276   45.8960 H   0  0  0  0  0  0  0  0  0  0  0  0
   31.9254   35.1495   44.6956 H   0  0  0  0  0  0  0  0  0  0  0  0
   30.6105   35.1799   42.5902 H   0  0  0  0  0  0  0  0  0  0  0  0
   29.7274   33.0272   41.7306 H   0  0  0  0  0  0  0  0  0  0  0  0
  2  7  2  0
  2  1  1  0
  3  2  1  0
  4  5  1  0
  4  3  2  0
  5  6  2  0
  6  7  1  0
  9  8  2  0
 10 11  2  0
 10  9  1  0
 11 12  1  0
 12  3  1  0
 12 13  2  0
 13  8  1  0
 14  5  1  0
 15 14  2  0
 16 15  1  0
 17 18  1  0
 17 16  2  0
 18 19  2  0
 19 14  1  0
 20 21  2  0
 20 18  1  0
 22 21  1  0
 23 22  2  0
 24 23  1  0
 24 25  2  0
 25 20  1  0
  4 26  1  0
  6 27  1  0
  7 28  1  0
  8 29  1  0
  9 30  1  0
 10 31  1  0
 15 32  1  0
 16 33  1  0
 21 34  1  0
 22 35  1  0
 23 36  1  0
 24 37  1  0
M  ISO  8  26  14  27  14  28  14  29  14  30  14  31  14  32  14  33  14
M  ISO  4  34  14  35  14  36  14  37  14
M  END
>  <minimizedAffinity>  (1) 
-6.6693387

>  <minimizedRMSD>  (1) 
0.318716764

$$$$
