
     RDKit          3D

 31 33  0  0  0  0  0  0  0  0999 V2000
   36.4450   29.3500   50.7510 C   0  0  0  0  0  0  0  0  0  0  0  0
   37.3290   29.9880   49.8880 C   0  0  0  0  0  0  0  0  0  0  0  0
   37.0710   30.2570   48.5660 C   0  0  0  0  0  0  0  0  0  0  0  0
   35.8520   29.8440   48.1440 N   0  0  0  0  0  0  0  0  0  0  0  0
   34.9830   29.2230   48.9640 C   0  0  0  0  0  0  0  0  0  0  0  0
   35.2570   28.9780   50.2290 N   0  0  0  0  0  0  0  0  0  0  0  0
   37.5650   33.0650   49.3110 Cl  0  0  0  0  0  0  0  0  0  0  0  0
   38.2940   32.2510   47.9560 C   0  0  0  0  0  0  0  0  0  0  0  0
   38.0000   30.9220   47.6820 C   0  0  0  0  0  0  0  0  0  0  0  0
   38.6230   30.3620   46.5910 C   0  0  0  0  0  0  0  0  0  0  0  0
   39.5000   31.0390   45.7820 C   0  0  0  0  0  0  0  0  0  0  0  0
   39.7670   32.3830   46.1000 C   0  0  0  0  0  0  0  0  0  0  0  0
   40.8820   33.2170   45.0560 Cl  0  0  0  0  0  0  0  0  0  0  0  0
   39.1730   32.9910   47.1750 C   0  0  0  0  0  0  0  0  0  0  0  0
   33.7050   28.8380   48.3520 C   0  0  0  0  0  0  0  0  0  0  0  0
   33.4250   29.3150   47.0800 C   0  0  0  0  0  0  0  0  0  0  0  0
   32.1860   28.8930   46.5870 C   0  0  0  0  0  0  0  0  0  0  0  0
   31.2990   28.0840   47.2590 C   0  0  0  0  0  0  0  0  0  0  0  0
   31.6560   27.6520   48.5240 C   0  0  0  0  0  0  0  0  0  0  0  0
   32.8470   28.0470   49.0210 N   0  0  0  0  0  0  0  0  0  0  0  0
   38.5920   30.3840   50.4390 N   0  0  0  0  0  0  0  0  0  0  0  0
   36.7003   29.1585   51.8037 H   0  0  0  0  0  0  0  0  0  0  0  0
   38.4054   29.3102   46.3534 H   0  0  0  0  0  0  0  0  0  0  0  0
   39.9756   30.5503   44.9189 H   0  0  0  0  0  0  0  0  0  0  0  0
   39.3877   34.0429   47.4145 H   0  0  0  0  0  0  0  0  0  0  0  0
   34.1109   29.9624   46.5139 H   0  0  0  0  0  0  0  0  0  0  0  0
   31.8978   29.2351   45.5821 H   0  0  0  0  0  0  0  0  0  0  0  0
   30.3401   27.7910   46.8066 H   0  0  0  0  0  0  0  0  0  0  0  0
   30.9869   27.0039   49.1091 H   0  0  0  0  0  0  0  0  0  0  0  0
   39.2861   30.8606   49.8456 H   0  0  0  0  0  0  0  0  0  0  0  0
   38.8053   30.1919   51.4282 H   0  0  0  0  0  0  0  0  0  0  0  0
  2 21  1  0
  2  1  2  0
  3  2  1  0
  4  3  2  0
  4  5  1  0
  5  6  2  0
  6  1  1  0
  8  7  1  0
  9  8  2  0
  9  3  1  0
 10  9  1  0
 11 12  1  0
 11 10  2  0
 12 14  2  0
 13 12  1  0
 14  8  1  0
 15  5  1  0
 15 20  1  0
 16 15  2  0
 17 16  1  0
 17 18  2  0
 18 19  1  0
 19 20  2  0
  1 22  1  0
 10 23  1  0
 11 24  1  0
 14 25  1  0
 16 26  1  0
 17 27  1  0
 18 28  1  0
 19 29  1  0
 21 30  1  0
 21 31  1  0
M  ISO  8  22  14  23  14  24  14  25  14  26  14  27  14  28  14  29  14
M  END
>  <minimizedAffinity>  (1) 
-6.56894875

>  <minimizedRMSD>  (1) 
1.36263239

$$$$
