
     RDKit          3D

 35 37  0  0  1  0  0  0  0  0999 V2000
   34.7110   30.5390   48.6880 C   0  0  1  0  0  0  0  0  0  0  0  0
   34.0800   30.1720   47.4000 C   0  0  0  0  0  0  0  0  0  0  0  0
   34.1360   28.7270   47.0050 C   0  0  0  0  0  0  0  0  0  0  0  0
   33.9560   27.7630   48.1180 C   0  0  1  0  0  0  0  0  0  0  0  0
   34.5750   28.1140   49.4270 C   0  0  0  0  0  0  0  0  0  0  0  0
   34.4100   29.5660   49.7640 C   0  0  0  0  0  0  0  0  0  0  0  0
   36.9210   30.7770   47.4420 C   0  0  0  0  0  0  0  0  0  0  0  0
   36.1360   30.9270   48.6110 C   0  0  0  0  0  0  0  0  0  0  0  0
   36.7540   31.4720   49.7220 C   0  0  0  0  0  0  0  0  0  0  0  0
   38.0660   31.8380   49.6560 N   0  0  0  0  0  0  0  0  0  0  0  0
   38.7750   31.6720   48.5060 C   0  0  0  0  0  0  0  0  0  0  0  0
   38.2090   31.1460   47.4050 N   0  0  0  0  0  0  0  0  0  0  0  0
   32.5070   27.4310   48.1980 C   0  0  0  0  0  0  0  0  0  0  0  0
   31.9460   26.6210   47.2050 C   0  0  0  0  0  0  0  0  0  0  0  0
   30.5920   26.2720   47.2220 C   0  0  0  0  0  0  0  0  0  0  0  0
   29.8290   26.7640   48.2700 C   0  0  0  0  0  0  0  0  0  0  0  0
   30.4050   27.5670   49.2470 C   0  0  0  0  0  0  0  0  0  0  0  0
   31.7300   27.8800   49.1860 N   0  0  0  0  0  0  0  0  0  0  0  0
   34.2209   31.4810   48.9752 H   0  0  0  0  0  0  0  0  0  0  0  0
   33.0200   30.4607   47.4550 H   0  0  0  0  0  0  0  0  0  0  0  0
   34.6641   30.7018   46.6331 H   0  0  0  0  0  0  0  0  0  0  0  0
   33.3428   28.5450   46.2649 H   0  0  0  0  0  0  0  0  0  0  0  0
   35.1492   28.5558   46.6123 H   0  0  0  0  0  0  0  0  0  0  0  0
   34.5459   26.8678   47.8720 H   0  0  0  0  0  0  0  0  0  0  0  0
   34.1002   27.5117   50.2156 H   0  0  0  0  0  0  0  0  0  0  0  0
   35.6527   27.9056   49.3560 H   0  0  0  0  0  0  0  0  0  0  0  0
   35.0760   29.7891   50.6105 H   0  0  0  0  0  0  0  0  0  0  0  0
   33.3380   29.6928   49.9757 H   0  0  0  0  0  0  0  0  0  0  0  0
   36.4615   30.3461   46.5402 H   0  0  0  0  0  0  0  0  0  0  0  0
   36.1890   31.6097   50.6557 H   0  0  0  0  0  0  0  0  0  0  0  0
   39.8323   31.9741   48.4764 H   0  0  0  0  0  0  0  0  0  0  0  0
   32.5856   26.2495   46.3908 H   0  0  0  0  0  0  0  0  0  0  0  0
   30.1522   25.6361   46.4396 H   0  0  0  0  0  0  0  0  0  0  0  0
   28.7588   26.5166   48.3285 H   0  0  0  0  0  0  0  0  0  0  0  0
   29.7889   27.9516   50.0731 H   0  0  0  0  0  0  0  0  0  0  0  0
  1  6  1  0
  2  1  1  0
  3  2  1  0
  3  4  1  0
  4 13  1  0
  4  5  1  0
  5  6  1  0
  7  8  2  0
  8  1  1  0
  8  9  1  0
 10  9  2  0
 11 10  1  0
 12  7  1  0
 12 11  2  0
 13 18  2  0
 14 15  2  0
 14 13  1  0
 15 16  1  0
 16 17  2  0
 18 17  1  0
  1 19  1  1
  2 20  1  0
  2 21  1  0
  3 22  1  0
  3 23  1  0
  4 24  1  6
  5 25  1  0
  5 26  1  0
  6 27  1  0
  6 28  1  0
  7 29  1  0
  9 30  1  0
 11 31  1  0
 14 32  1  0
 15 33  1  0
 16 34  1  0
 17 35  1  0
M  ISO  8  19  13  20  13  21  13  22  13  23  13  24  13  25  13  26  13
M  ISO  8  27  13  28  13  29  14  30  14  31  14  32  14  33  14  34  14
M  ISO  1  35  14
M  END
>  <minimizedAffinity>  (1) 
-5.39003134

>  <minimizedRMSD>  (1) 
1.48441815

$$$$
