
     RDKit          3D

 40 44  0  0  1  0  0  0  0  0999 V2000
   34.0730   29.0270   48.5830 C   0  0  1  0  0  0  0  0  0  0  0  0
   33.9130   29.1330   50.1380 C   0  0  0  0  0  0  0  0  0  0  0  0
   35.1530   28.6230   49.5000 C   0  0  2  0  0  0  0  0  0  0  0  0
   31.5580   27.0720   46.8920 C   0  0  0  0  0  0  0  0  0  0  0  0
   32.5270   26.1140   47.0840 C   0  0  0  0  0  0  0  0  0  0  0  0
   33.6120   26.7140   47.7490 C   0  0  0  0  0  0  0  0  0  0  0  0
   33.2710   28.0040   47.9350 N   0  0  0  0  0  0  0  0  0  0  0  0
   32.0770   28.1590   47.4240 N   0  0  0  0  0  0  0  0  0  0  0  0
   29.0960   27.4930   46.6010 C   0  0  0  0  0  0  0  0  0  0  0  0
   30.3010   26.8210   46.2430 C   0  0  0  0  0  0  0  0  0  0  0  0
   30.2200   25.8910   45.2180 C   0  0  0  0  0  0  0  0  0  0  0  0
   29.0220   25.6710   44.6190 N   0  0  0  0  0  0  0  0  0  0  0  0
   27.9070   26.3330   44.9940 C   0  0  0  0  0  0  0  0  0  0  0  0
   27.9370   27.2550   45.9940 N   0  0  0  0  0  0  0  0  0  0  0  0
   36.4030   29.4520   49.5640 C   0  0  0  0  0  0  0  0  0  0  0  0
   37.4450   29.2200   50.4750 C   0  0  0  0  0  0  0  0  0  0  0  0
   38.3990   30.1630   50.2430 N   0  0  0  0  0  0  0  0  0  0  0  0
   37.9690   30.9540   49.2220 C   0  0  0  0  0  0  0  0  0  0  0  0
   36.7550   30.5230   48.8090 N   0  0  0  0  0  0  0  0  0  0  0  0
   38.6830   32.0890   48.6520 C   0  0  0  0  0  0  0  0  0  0  0  0
   38.9160   33.2200   49.3980 C   0  0  0  0  0  0  0  0  0  0  0  0
   39.5850   34.3430   48.9360 C   0  0  0  0  0  0  0  0  0  0  0  0
   40.0210   34.2350   47.6110 C   0  0  0  0  0  0  0  0  0  0  0  0
   39.8010   33.1200   46.8480 C   0  0  0  0  0  0  0  0  0  0  0  0
   39.1340   32.0550   47.3740 N   0  0  0  0  0  0  0  0  0  0  0  0
   34.0146   29.7022   47.7166 H   0  0  0  0  0  0  0  0  0  0  0  0
   33.9048   30.1164   50.6307 H   0  0  0  0  0  0  0  0  0  0  0  0
   33.1981   28.7617   50.8871 H   0  0  0  0  0  0  0  0  0  0  0  0
   35.7351   27.6972   49.6188 H   0  0  0  0  0  0  0  0  0  0  0  0
   32.4642   25.0612   46.7716 H   0  0  0  0  0  0  0  0  0  0  0  0
   34.5499   26.2277   48.0554 H   0  0  0  0  0  0  0  0  0  0  0  0
   29.1260   28.2371   47.4106 H   0  0  0  0  0  0  0  0  0  0  0  0
   31.1146   25.3388   44.8945 H   0  0  0  0  0  0  0  0  0  0  0  0
   26.9565   26.1231   44.4816 H   0  0  0  0  0  0  0  0  0  0  0  0
   37.4836   28.4251   51.2343 H   0  0  0  0  0  0  0  0  0  0  0  0
   39.2898   30.2608   50.7508 H   0  0  0  0  0  0  0  0  0  0  0  0
   38.5458   33.2350   50.4337 H   0  0  0  0  0  0  0  0  0  0  0  0
   39.7571   35.2365   49.5542 H   0  0  0  0  0  0  0  0  0  0  0  0
   40.5631   35.0812   47.1638 H   0  0  0  0  0  0  0  0  0  0  0  0
   40.1629   33.0840   45.8099 H   0  0  0  0  0  0  0  0  0  0  0  0
  1  3  1  0
  1  2  1  0
  3 15  1  0
  3  2  1  0
  4  5  1  0
  4  8  2  0
  5  6  2  0
  6  7  1  0
  7  1  1  0
  8  7  1  0
 10  9  2  0
 10  4  1  0
 11 10  1  0
 12 13  1  0
 12 11  2  0
 13 14  2  0
 14  9  1  0
 15 16  2  0
 17 16  1  0
 18 17  1  0
 19 18  2  0
 19 15  1  0
 20 18  1  0
 20 21  2  0
 22 21  1  0
 23 22  2  0
 24 25  2  0
 24 23  1  0
 25 20  1  0
  1 26  1  6
  2 27  1  0
  2 28  1  0
  3 29  1  1
  5 30  1  0
  6 31  1  0
  9 32  1  0
 11 33  1  0
 13 34  1  0
 16 35  1  0
 17 36  1  0
 21 37  1  0
 22 38  1  0
 23 39  1  0
 24 40  1  0
M  ISO  8  26  13  27  13  28  13  29  13  30  14  31  14  32  14  33  14
M  ISO  7  34  14  35  14  36   9  37  14  38  14  39  14  40  14
M  END
>  <minimizedAffinity>  (1) 
-6.118361

>  <minimizedRMSD>  (1) 
3.80732083

$$$$
