
     RDKit          3D

 25 26  0  0  0  0  0  0  0  0999 V2000
   39.1970   32.7690   47.1060 C   0  0  0  0  0  0  0  0  0  0  0  0
   38.3560   31.8440   47.7540 C   0  0  0  0  0  0  0  0  0  0  0  0
   38.0550   32.0390   49.0960 C   0  0  0  0  0  0  0  0  0  0  0  0
   38.6010   33.1230   49.7010 N   0  0  0  0  0  0  0  0  0  0  0  0
   39.4060   34.0040   49.0690 C   0  0  0  0  0  0  0  0  0  0  0  0
   39.7000   33.8190   47.7680 N   0  0  0  0  0  0  0  0  0  0  0  0
   37.1840   31.0880   49.7760 C   0  0  0  0  0  0  0  0  0  0  0  0
   37.6260   30.4590   50.9230 C   0  0  0  0  0  0  0  0  0  0  0  0
   36.7190   29.5740   51.4870 C   0  0  0  0  0  0  0  0  0  0  0  0
   35.4540   29.3360   50.9400 C   0  0  0  0  0  0  0  0  0  0  0  0
   35.0820   30.0140   49.7750 C   0  0  0  0  0  0  0  0  0  0  0  0
   35.9810   30.8800   49.2280 N   0  0  0  0  0  0  0  0  0  0  0  0
   39.5780   32.6910   45.7650 O   0  0  0  0  0  0  0  0  0  0  0  0
   39.0920   30.1130   45.1490 O   0  0  0  0  0  0  0  0  0  0  0  0
   40.1360   31.2240   45.0700 P   0  0  0  0  0  0  0  0  0  0  0  0
   40.5230   31.5830   43.4640 O   0  0  0  0  0  0  0  0  0  0  0  0
   41.4970   30.6820   45.9110 O   0  0  0  0  0  0  0  0  0  0  0  0
   37.9448   30.9825   47.2074 H   0  0  0  0  0  0  0  0  0  0  0  0
   39.8186   34.8665   49.6130 H   0  0  0  0  0  0  0  0  0  0  0  0
   38.6200   30.6452   51.3558 H   0  0  0  0  0  0  0  0  0  0  0  0
   37.0067   29.0369   52.4028 H   0  0  0  0  0  0  0  0  0  0  0  0
   34.7627   28.6267   51.4186 H   0  0  0  0  0  0  0  0  0  0  0  0
   34.0958   29.8536   49.3150 H   0  0  0  0  0  0  0  0  0  0  0  0
   41.2486   32.2561   43.4420 H   0  0  0  0  0  0  0  0  0  0  0  0
   41.3312   30.7480   46.8848 H   0  0  0  0  0  0  0  0  0  0  0  0
  1  2  2  0
  1  6  1  0
  2  3  1  0
  3  4  2  0
  3  7  1  0
  5  4  1  0
  6  5  2  0
  7  8  2  0
  8  9  1  0
 10  9  2  0
 11 10  1  0
 12 11  2  0
 12  7  1  0
 13  1  1  0
 15 14  2  0
 15 13  1  0
 15 17  1  0
 16 15  1  0
  2 18  1  0
  5 19  1  0
  8 20  1  0
  9 21  1  0
 10 22  1  0
 11 23  1  0
 16 24  1  0
 17 25  1  0
M  ISO  8  18  14  19  14  20  14  21  14  22  14  23  14  24   3  25   3
M  END
>  <minimizedAffinity>  (1) 
-6.08219624

>  <minimizedRMSD>  (1) 
5.14211559

$$$$
