
     RDKit          3D

 43 46  0  0  0  0  0  0  0  0999 V2000
   31.0030   26.5270   46.8870 C   0  0  0  0  0  0  0  0  0  0  0  0
   30.9120   25.1550   46.7460 C   0  0  0  0  0  0  0  0  0  0  0  0
   31.6960   24.3980   45.8770 C   0  0  0  0  0  0  0  0  0  0  0  0
   32.6500   25.0760   45.0830 C   0  0  0  0  0  0  0  0  0  0  0  0
   32.7240   26.4410   45.2400 C   0  0  0  0  0  0  0  0  0  0  0  0
   31.9530   27.1710   46.0940 C   0  0  0  0  0  0  0  0  0  0  0  0
   30.5900   27.2990   49.1420 C   0  0  0  0  0  0  0  0  0  0  0  0
   30.1110   27.1390   47.8310 C   0  0  0  0  0  0  0  0  0  0  0  0
   28.8180   27.5870   47.5470 C   0  0  0  0  0  0  0  0  0  0  0  0
   28.0820   28.1510   48.5400 N   0  0  0  0  0  0  0  0  0  0  0  0
   28.5690   28.2950   49.8050 C   0  0  0  0  0  0  0  0  0  0  0  0
   29.8290   27.8660   50.1000 N   0  0  0  0  0  0  0  0  0  0  0  0
   28.1750   27.4820   46.2060 C   0  0  0  0  0  0  0  0  0  0  0  0
   26.8870   28.0530   46.2550 F   0  0  0  0  0  0  0  0  0  0  0  0
   28.8480   28.0380   45.1800 F   0  0  0  0  0  0  0  0  0  0  0  0
   27.9270   26.1490   45.9080 F   0  0  0  0  0  0  0  0  0  0  0  0
   32.0690   28.9130   46.2810 S   0  0  0  0  0  0  0  0  0  0  0  0
   33.5800   29.1860   48.9850 Cl  0  0  0  0  0  0  0  0  0  0  0  0
   34.3700   29.6080   47.4810 C   0  0  0  0  0  0  0  0  0  0  0  0
   33.7300   29.5260   46.2430 C   0  0  0  0  0  0  0  0  0  0  0  0
   34.3810   29.8890   45.1030 C   0  0  0  0  0  0  0  0  0  0  0  0
   35.6860   30.3350   45.1940 C   0  0  0  0  0  0  0  0  0  0  0  0
   36.3290   30.4170   46.4300 C   0  0  0  0  0  0  0  0  0  0  0  0
   35.6740   30.0550   47.5850 C   0  0  0  0  0  0  0  0  0  0  0  0
   36.3150   30.1290   48.8920 C   0  0  0  0  0  0  0  0  0  0  0  0
   36.5670   31.3010   49.5490 C   0  0  0  0  0  0  0  0  0  0  0  0
   37.1760   31.3870   50.7920 C   0  0  0  0  0  0  0  0  0  0  0  0
   37.5620   30.2250   51.4280 C   0  0  0  0  0  0  0  0  0  0  0  0
   37.3040   29.0460   50.7590 C   0  0  0  0  0  0  0  0  0  0  0  0
   36.7090   29.0210   49.5530 N   0  0  0  0  0  0  0  0  0  0  0  0
   30.1705   24.6245   47.3614 H   0  0  0  0  0  0  0  0  0  0  0  0
   31.5764   23.3065   45.8108 H   0  0  0  0  0  0  0  0  0  0  0  0
   33.2997   24.5394   44.3759 H   0  0  0  0  0  0  0  0  0  0  0  0
   33.4611   26.9838   44.6301 H   0  0  0  0  0  0  0  0  0  0  0  0
   31.6047   26.9554   49.3916 H   0  0  0  0  0  0  0  0  0  0  0  0
   27.9468   28.7563   50.5860 H   0  0  0  0  0  0  0  0  0  0  0  0
   33.8770   29.8283   44.1271 H   0  0  0  0  0  0  0  0  0  0  0  0
   36.2245   30.6290   44.2810 H   0  0  0  0  0  0  0  0  0  0  0  0
   37.3682   30.7740   46.4814 H   0  0  0  0  0  0  0  0  0  0  0  0
   36.2666   32.2388   49.0589 H   0  0  0  0  0  0  0  0  0  0  0  0
   37.3485   32.3658   51.2633 H   0  0  0  0  0  0  0  0  0  0  0  0
   38.0488   30.2377   52.4144 H   0  0  0  0  0  0  0  0  0  0  0  0
   37.5948   28.0944   51.2279 H   0  0  0  0  0  0  0  0  0  0  0  0
  1  8  1  0
  2  1  2  0
  3  2  1  0
  4  5  1  0
  4  3  2  0
  5  6  2  0
  6 17  1  0
  6  1  1  0
  7 12  2  0
  8  7  1  0
  9  8  2  0
  9 10  1  0
 10 11  2  0
 11 12  1  0
 13 14  1  0
 13  9  1  0
 15 13  1  0
 16 13  1  0
 19 24  2  0
 19 18  1  0
 20 17  1  0
 20 19  1  0
 21 22  1  0
 21 20  2  0
 22 23  2  0
 23 24  1  0
 24 25  1  0
 25 26  2  0
 25 30  1  0
 26 27  1  0
 27 28  2  0
 29 28  1  0
 30 29  2  0
  2 31  1  0
  3 32  1  0
  4 33  1  0
  5 34  1  0
  7 35  1  0
 11 36  1  0
 21 37  1  0
 22 38  1  0
 23 39  1  0
 26 40  1  0
 27 41  1  0
 28 42  1  0
 29 43  1  0
M  ISO  8  31  14  32  14  33  14  34  14  35  14  36  14  37  14  38  14
M  ISO  5  39  14  40  14  41  14  42  14  43  14
M  END
>  <minimizedAffinity>  (1) 
-5.88243103

>  <minimizedRMSD>  (1) 
4.05945587

$$$$
