
     RDKit          3D

 41 43  0  0  1  0  0  0  0  0999 V2000
   36.9940   30.9280   49.0010 C   0  0  0  0  0  0  0  0  0  0  0  0
   36.6990   31.7880   50.0620 C   0  0  0  0  0  0  0  0  0  0  0  0
   37.2980   33.0310   50.1840 C   0  0  0  0  0  0  0  0  0  0  0  0
   38.2270   33.4430   49.2170 C   0  0  0  0  0  0  0  0  0  0  0  0
   38.5020   32.5930   48.1920 C   0  0  0  0  0  0  0  0  0  0  0  0
   37.8850   31.3530   48.0980 C   0  0  0  0  0  0  0  0  0  0  0  0
   36.3940   29.6160   48.8960 C   0  0  2  0  0  0  0  0  0  0  0  0
   33.5680   30.1770   46.6800 C   0  0  0  0  0  0  0  0  0  0  0  0
   32.8480   28.9990   46.7520 C   0  0  0  0  0  0  0  0  0  0  0  0
   33.2930   28.0140   47.6150 C   0  0  0  0  0  0  0  0  0  0  0  0
   34.4260   28.2380   48.3640 N   0  0  0  0  0  0  0  0  0  0  0  0
   35.0710   29.3800   48.2500 C   0  0  0  0  0  0  0  0  0  0  0  0
   34.6490   30.3560   47.4130 N   0  0  0  0  0  0  0  0  0  0  0  0
   36.8220   28.8030   49.7960 O   0  0  0  0  0  0  0  0  0  0  0  0
   38.2920   30.5420   46.9750 C   0  0  0  0  0  0  0  0  0  0  0  0
   39.0220   31.0010   45.9530 C   0  0  0  0  0  0  0  0  0  0  0  0
   39.5350   30.2550   44.7820 C   0  0  0  0  0  0  0  0  0  0  0  0
   40.0070   31.4120   43.4890 S   0  0  0  0  0  0  0  0  0  0  0  0
   38.5660   32.2340   42.7970 C   0  0  0  0  0  0  0  0  0  0  0  0
   38.9240   33.0460   41.7150 C   0  0  0  0  0  0  0  0  0  0  0  0
   37.9110   33.7490   41.0650 C   0  0  0  0  0  0  0  0  0  0  0  0
   36.6060   33.6090   41.5220 C   0  0  0  0  0  0  0  0  0  0  0  0
   36.3340   32.7910   42.5940 C   0  0  0  0  0  0  0  0  0  0  0  0
   37.3030   32.1140   43.2200 N   0  0  0  0  0  0  0  0  0  0  0  0
   35.9705   31.4689   50.8219 H   0  0  0  0  0  0  0  0  0  0  0  0
   37.0479   33.6880   51.0301 H   0  0  0  0  0  0  0  0  0  0  0  0
   38.7185   34.4247   49.2859 H   0  0  0  0  0  0  0  0  0  0  0  0
   39.2277   32.8938   47.4220 H   0  0  0  0  0  0  0  0  0  0  0  0
   36.7933   29.2827   47.9267 H   0  0  0  0  0  0  0  0  0  0  0  0
   33.2342   30.9760   46.0017 H   0  0  0  0  0  0  0  0  0  0  0  0
   31.9463   28.8492   46.1400 H   0  0  0  0  0  0  0  0  0  0  0  0
   32.7478   27.0626   47.7018 H   0  0  0  0  0  0  0  0  0  0  0  0
   36.6276   29.1724   50.6937 H   0  0  0  0  0  0  0  0  0  0  0  0
   37.9840   29.4861   46.9592 H   0  0  0  0  0  0  0  0  0  0  0  0
   39.2738   32.0713   45.9869 H   0  0  0  0  0  0  0  0  0  0  0  0
   40.4122   29.6625   45.0811 H   0  0  0  0  0  0  0  0  0  0  0  0
   38.7494   29.5846   44.4033 H   0  0  0  0  0  0  0  0  0  0  0  0
   39.9711   33.1269   41.3880 H   0  0  0  0  0  0  0  0  0  0  0  0
   38.1396   34.4006   40.2087 H   0  0  0  0  0  0  0  0  0  0  0  0
   35.7891   34.1533   41.0256 H   0  0  0  0  0  0  0  0  0  0  0  0
   35.2961   32.6914   42.9444 H   0  0  0  0  0  0  0  0  0  0  0  0
  1  2  2  0
  2  3  1  0
  4  3  2  0
  5  4  1  0
  6  5  2  0
  6  1  1  0
  7  1  1  0
  7 14  1  0
  8  9  2  0
  8 13  1  0
  9 10  1  0
 10 11  2  0
 12 11  1  0
 12  7  1  0
 13 12  2  0
 15  6  1  0
 16 15  2  0
 17 16  1  0
 18 17  1  0
 19 24  1  0
 19 18  1  0
 20 19  2  0
 21 22  2  0
 21 20  1  0
 22 23  1  0
 23 24  2  0
  2 25  1  0
  3 26  1  0
  4 27  1  0
  5 28  1  0
  7 29  1  6
  8 30  1  0
  9 31  1  0
 10 32  1  0
 14 33  1  0
 15 34  1  0
 16 35  1  0
 17 36  1  0
 17 37  1  0
 20 38  1  0
 21 39  1  0
 22 40  1  0
 23 41  1  0
M  ISO  8  25  14  26  14  27  14  28  14  29   8  30  14  31  14  32  14
M  ISO  7  33   3  36   8  37   8  38  14  39  14  40  14  41  14
M  END
>  <minimizedAffinity>  (1) 
-5.79759789

>  <minimizedRMSD>  (1) 
0.99027884

$$$$
