
     RDKit          3D

 24 25  0  0  0  0  0  0  0  0999 V2000
   36.9020   31.5460   48.4860 C   0  0  0  0  0  0  0  0  0  0  0  0
   36.6910   29.8170   48.9710 S   0  0  0  0  0  0  0  0  0  0  0  0
   35.1200   29.2580   48.3450 C   0  0  0  0  0  0  0  0  0  0  0  0
   34.5630   28.1890   49.0440 C   0  0  0  0  0  0  0  0  0  0  0  0
   33.3260   27.6890   48.6110 C   0  0  0  0  0  0  0  0  0  0  0  0
   32.7210   28.2830   47.5130 N   0  0  0  0  0  0  0  0  0  0  0  0
   33.3340   29.3220   46.8880 C   0  0  0  0  0  0  0  0  0  0  0  0
   34.4930   29.7900   47.2940 N   0  0  0  0  0  0  0  0  0  0  0  0
   38.6490   32.0720   48.5760 S   0  0  0  0  0  0  0  0  0  0  0  0
   39.3280   32.0650   46.9250 C   0  0  0  0  0  0  0  0  0  0  0  0
   39.9510   33.0920   46.2490 C   0  0  0  0  0  0  0  0  0  0  0  0
   40.4130   32.8950   44.9730 C   0  0  0  0  0  0  0  0  0  0  0  0
   40.2700   31.6680   44.3210 C   0  0  0  0  0  0  0  0  0  0  0  0
   39.6420   30.6790   45.0390 C   0  0  0  0  0  0  0  0  0  0  0  0
   39.1810   30.8590   46.3030 N   0  0  0  0  0  0  0  0  0  0  0  0
   36.3051   32.1792   49.1589 H   0  0  0  0  0  0  0  0  0  0  0  0
   36.5686   31.6500   47.4429 H   0  0  0  0  0  0  0  0  0  0  0  0
   35.0786   27.7497   49.9107 H   0  0  0  0  0  0  0  0  0  0  0  0
   32.8469   26.8457   49.1299 H   0  0  0  0  0  0  0  0  0  0  0  0
   32.8463   29.7847   46.0173 H   0  0  0  0  0  0  0  0  0  0  0  0
   40.0778   34.0712   46.7339 H   0  0  0  0  0  0  0  0  0  0  0  0
   40.9093   33.7252   44.4491 H   0  0  0  0  0  0  0  0  0  0  0  0
   40.6371   31.5038   43.2971 H   0  0  0  0  0  0  0  0  0  0  0  0
   39.5064   29.6947   44.5671 H   0  0  0  0  0  0  0  0  0  0  0  0
  1  9  1  0
  1  2  1  0
  3  2  1  0
  3  4  2  0
  5  4  1  0
  6  5  2  0
  7  8  2  0
  7  6  1  0
  8  3  1  0
 10  9  1  0
 11 10  2  0
 12 11  1  0
 13 12  2  0
 13 14  1  0
 14 15  2  0
 15 10  1  0
  1 16  1  0
  1 17  1  0
  4 18  1  0
  5 19  1  0
  7 20  1  0
 11 21  1  0
 12 22  1  0
 13 23  1  0
 14 24  1  0
M  ISO  8  16   8  17   8  18  14  19  14  20  14  21  14  22  14  23  14
M  ISO  1  24  14
M  END
>  <minimizedAffinity>  (1) 
-4.19352102

>  <minimizedRMSD>  (1) 
7.45202875

$$$$
