
     RDKit          3D

 46 48  0  0  0  0  0  0  0  0999 V2000
   34.3830   29.1230   48.8170 C   0  0  0  0  0  0  0  0  0  0  0  0
   37.1390   30.2400   48.7380 Cl  0  0  0  0  0  0  0  0  0  0  0  0
   36.0850   30.1160   47.3290 C   0  0  0  0  0  0  0  0  0  0  0  0
   36.5350   30.5480   46.1320 C   0  0  0  0  0  0  0  0  0  0  0  0
   35.7240   30.4570   45.0200 C   0  0  0  0  0  0  0  0  0  0  0  0
   34.4490   29.9180   45.1590 C   0  0  0  0  0  0  0  0  0  0  0  0
   34.0550   29.4910   46.4420 C   0  0  0  0  0  0  0  0  0  0  0  0
   34.8370   29.5730   47.5340 C   0  0  0  0  0  0  0  0  0  0  0  0
   39.5050   32.6960   46.5190 C   0  0  0  0  0  0  0  0  0  0  0  0
   40.4100   32.0690   45.6080 C   0  0  0  0  0  0  0  0  0  0  0  0
   39.9610   30.9460   44.9100 C   0  0  0  0  0  0  0  0  0  0  0  0
   38.6950   30.4910   45.1160 N   0  0  0  0  0  0  0  0  0  0  0  0
   37.8650   31.1140   45.9880 C   0  0  0  0  0  0  0  0  0  0  0  0
   38.2770   32.1880   46.6650 N   0  0  0  0  0  0  0  0  0  0  0  0
   40.8740   30.3490   44.0160 N   0  0  0  0  0  0  0  0  0  0  0  0
   33.5940   27.8940   48.9330 C   0  0  0  0  0  0  0  0  0  0  0  0
   32.2920   28.1610   49.2680 O   0  0  0  0  0  0  0  0  0  0  0  0
   31.9800   26.4810   47.2730 O   0  0  0  0  0  0  0  0  0  0  0  0
   31.2460   27.3890   48.2280 P   0  0  2  0  0  0  0  0  0  0  0  0
   30.4490   28.6400   47.3330 O   0  0  0  0  0  0  0  0  0  0  0  0
   29.2290   28.4900   46.7330 C   0  0  0  0  0  0  0  0  0  0  0  0
   28.7450   27.4600   45.9610 C   0  0  0  0  0  0  0  0  0  0  0  0
   27.4720   27.4840   45.4340 C   0  0  0  0  0  0  0  0  0  0  0  0
   26.6540   28.5640   45.6810 C   0  0  0  0  0  0  0  0  0  0  0  0
   27.1540   29.5890   46.4570 C   0  0  0  0  0  0  0  0  0  0  0  0
   28.4130   29.5580   46.9740 N   0  0  0  0  0  0  0  0  0  0  0  0
   30.0570   26.5430   49.0030 O   0  0  0  0  0  0  0  0  0  0  0  0
   29.4690   27.3100   49.9870 C   0  0  0  0  0  0  0  0  0  0  0  0
   29.3060   26.6070   51.1790 F   0  0  0  0  0  0  0  0  0  0  0  0
   30.2560   28.3950   50.3100 F   0  0  0  0  0  0  0  0  0  0  0  0
   28.2180   27.7510   49.5690 F   0  0  0  0  0  0  0  0  0  0  0  0
   33.7692   29.9334   49.2371 H   0  0  0  0  0  0  0  0  0  0  0  0
   35.3182   28.8690   49.3374 H   0  0  0  0  0  0  0  0  0  0  0  0
   36.0797   30.8050   44.0390 H   0  0  0  0  0  0  0  0  0  0  0  0
   33.7720   29.8284   44.2967 H   0  0  0  0  0  0  0  0  0  0  0  0
   33.0476   29.0649   46.5584 H   0  0  0  0  0  0  0  0  0  0  0  0
   39.8140   33.5831   47.0914 H   0  0  0  0  0  0  0  0  0  0  0  0
   41.4281   32.4587   45.4612 H   0  0  0  0  0  0  0  0  0  0  0  0
   41.8193   30.7429   43.9058 H   0  0  0  0  0  0  0  0  0  0  0  0
   40.5955   29.5191   43.4733 H   0  0  0  0  0  0  0  0  0  0  0  0
   33.6134   27.3648   47.9689 H   0  0  0  0  0  0  0  0  0  0  0  0
   34.0346   27.2756   49.7289 H   0  0  0  0  0  0  0  0  0  0  0  0
   29.3916   26.5934   45.7587 H   0  0  0  0  0  0  0  0  0  0  0  0
   27.1114   26.6457   44.8198 H   0  0  0  0  0  0  0  0  0  0  0  0
   25.6337   28.6079   45.2722 H   0  0  0  0  0  0  0  0  0  0  0  0
   26.5147   30.4597   46.6648 H   0  0  0  0  0  0  0  0  0  0  0  0
  1 16  1  0
  3  8  2  0
  3  2  1  0
  4  3  1  0
  5  6  1  0
  5  4  2  0
  6  7  2  0
  7  8  1  0
  8  1  1  0
  9 14  2  0
 10  9  1  0
 11 12  1  0
 11 10  2  0
 12 13  2  0
 13  4  1  0
 13 14  1  0
 15 11  1  0
 16 17  1  0
 19 18  2  0
 19 27  1  0
 19 17  1  0
 20 19  1  0
 21 26  1  0
 21 20  1  0
 22 21  2  0
 23 24  2  0
 23 22  1  0
 24 25  1  0
 25 26  2  0
 27 28  1  0
 28 30  1  0
 28 29  1  0
 31 28  1  0
  1 32  1  0
  1 33  1  0
  5 34  1  0
  6 35  1  0
  7 36  1  0
  9 37  1  0
 10 38  1  0
 15 39  1  0
 15 40  1  0
 16 41  1  0
 16 42  1  0
 22 43  1  0
 23 44  1  0
 24 45  1  0
 25 46  1  0
M  ISO  8  32   8  33   8  34  14  35  14  36  14  37  14  38  14  41   8
M  ISO  5  42   8  43  14  44  14  45  14  46  14
M  END
>  <minimizedAffinity>  (1) 
-6.06070328

>  <minimizedRMSD>  (1) 
1.10481811

$$$$
