
     RDKit          3D

 40 43  0  0  0  0  0  0  0  0999 V2000
   34.2320   28.5180   46.0590 C   0  0  0  0  0  0  0  0  0  0  0  0
   34.7040   28.5460   44.7470 C   0  0  0  0  0  0  0  0  0  0  0  0
   34.5930   27.4940   43.8630 C   0  0  0  0  0  0  0  0  0  0  0  0
   33.9810   26.3140   44.2440 C   0  0  0  0  0  0  0  0  0  0  0  0
   33.4780   26.2000   45.5310 C   0  0  0  0  0  0  0  0  0  0  0  0
   33.6360   27.2910   46.3350 C   0  0  0  0  0  0  0  0  0  0  0  0
   36.9870   31.3790   44.2070 C   0  0  0  0  0  0  0  0  0  0  0  0
   36.2710   32.0690   43.3200 C   0  0  0  0  0  0  0  0  0  0  0  0
   35.0810   31.6550   42.8840 C   0  0  0  0  0  0  0  0  0  0  0  0
   34.6020   30.4960   43.3720 N   0  0  0  0  0  0  0  0  0  0  0  0
   35.2950   29.7860   44.2680 C   0  0  0  0  0  0  0  0  0  0  0  0
   36.4900   30.2180   44.6910 N   0  0  0  0  0  0  0  0  0  0  0  0
   40.3190   31.1820   45.7690 C   0  0  0  0  0  0  0  0  0  0  0  0
   40.8740   32.4420   45.4180 C   0  0  0  0  0  0  0  0  0  0  0  0
   40.0810   33.3250   44.6440 C   0  0  0  0  0  0  0  0  0  0  0  0
   38.8240   32.9300   44.2700 N   0  0  0  0  0  0  0  0  0  0  0  0
   38.3410   31.7460   44.6170 C   0  0  0  0  0  0  0  0  0  0  0  0
   39.0890   30.8660   45.3700 N   0  0  0  0  0  0  0  0  0  0  0  0
   34.3510   29.7780   47.1610 S   0  0  0  0  0  0  0  0  0  0  0  0
   33.8750   29.1470   48.3910 O   0  0  0  0  0  0  0  0  0  0  0  0
   33.2950   30.8280   46.9920 O   0  0  0  0  0  0  0  0  0  0  0  0
   35.6620   30.1740   48.2030 C   0  0  0  0  0  0  0  0  0  0  0  0
   35.8050   29.1790   49.2010 C   0  0  0  0  0  0  0  0  0  0  0  0
   36.8030   29.1760   50.1390 C   0  0  0  0  0  0  0  0  0  0  0  0
   37.7000   30.2010   50.0910 C   0  0  0  0  0  0  0  0  0  0  0  0
   37.6160   31.1930   49.1480 C   0  0  0  0  0  0  0  0  0  0  0  0
   36.5980   31.0860   48.2870 N   0  0  0  0  0  0  0  0  0  0  0  0
   34.9954   27.5943   42.8442 H   0  0  0  0  0  0  0  0  0  0  0  0
   33.8944   25.4770   43.5355 H   0  0  0  0  0  0  0  0  0  0  0  0
   32.9809   25.2841   45.8831 H   0  0  0  0  0  0  0  0  0  0  0  0
   33.2323   27.1850   47.3527 H   0  0  0  0  0  0  0  0  0  0  0  0
   36.6768   33.0154   42.9331 H   0  0  0  0  0  0  0  0  0  0  0  0
   34.5096   32.2415   42.1495 H   0  0  0  0  0  0  0  0  0  0  0  0
   40.9042   30.4695   46.3689 H   0  0  0  0  0  0  0  0  0  0  0  0
   41.8883   32.7234   45.7374 H   0  0  0  0  0  0  0  0  0  0  0  0
   40.4684   34.3112   44.3484 H   0  0  0  0  0  0  0  0  0  0  0  0
   35.0709   28.3601   49.2240 H   0  0  0  0  0  0  0  0  0  0  0  0
   36.8772   28.3822   50.8969 H   0  0  0  0  0  0  0  0  0  0  0  0
   38.5144   30.2334   50.8297 H   0  0  0  0  0  0  0  0  0  0  0  0
   38.3379   32.0217   49.1026 H   0  0  0  0  0  0  0  0  0  0  0  0
  1  6  1  0
  1 19  1  0
  2  1  2  0
  3  4  2  0
  3  2  1  0
  4  5  1  0
  5  6  2  0
  7 17  1  0
  7 12  1  0
  8  7  2  0
  9  8  1  0
  9 10  2  0
 10 11  1  0
 11 12  2  0
 11  2  1  0
 14 13  2  0
 15 14  1  0
 16 17  1  0
 16 15  2  0
 17 18  2  0
 18 13  1  0
 19 22  1  0
 19 20  2  0
 21 19  2  0
 22 27  1  0
 22 23  2  0
 23 24  1  0
 25 24  2  0
 26 25  1  0
 27 26  2  0
  3 28  1  0
  4 29  1  0
  5 30  1  0
  6 31  1  0
  8 32  1  0
  9 33  1  0
 13 34  1  0
 14 35  1  0
 15 36  1  0
 23 37  1  0
 24 38  1  0
 25 39  1  0
 26 40  1  0
M  ISO  8  28  14  29  14  30  14  31  14  32  14  33  14  34  14  35  14
M  ISO  5  36  14  37  14  38  14  39  14  40  14
M  END
>  <minimizedAffinity>  (1) 
-6.05530214

>  <minimizedRMSD>  (1) 
4.83458233

$$$$
