
     RDKit          3D

 50 54  0  0  0  0  0  0  0  0999 V2000
   34.7070   27.9160   48.2750 O   0  0  0  0  0  0  0  0  0  0  0  0
   34.0390   29.0580   47.5170 P   0  0  1  0  0  0  0  0  0  0  0  0
   34.4830   28.9060   45.8950 O   0  0  0  0  0  0  0  0  0  0  0  0
   37.0440   29.6610   46.2520 F   0  0  0  0  0  0  0  0  0  0  0  0
   36.3430   30.2390   45.2310 C   0  0  0  0  0  0  0  0  0  0  0  0
   36.8800   31.1810   44.3860 C   0  0  0  0  0  0  0  0  0  0  0  0
   36.1100   31.7050   43.3960 C   0  0  0  0  0  0  0  0  0  0  0  0
   34.7870   31.3340   43.1900 C   0  0  0  0  0  0  0  0  0  0  0  0
   34.2550   30.3800   44.0520 C   0  0  0  0  0  0  0  0  0  0  0  0
   35.0260   29.8310   45.0720 C   0  0  0  0  0  0  0  0  0  0  0  0
   39.7530   33.2100   45.4010 C   0  0  0  0  0  0  0  0  0  0  0  0
   40.8620   32.4510   45.0120 C   0  0  0  0  0  0  0  0  0  0  0  0
   40.6100   31.2260   44.3930 C   0  0  0  0  0  0  0  0  0  0  0  0
   39.3230   30.8150   44.1900 N   0  0  0  0  0  0  0  0  0  0  0  0
   38.2720   31.5870   44.5850 C   0  0  0  0  0  0  0  0  0  0  0  0
   38.5030   32.7780   45.1870 N   0  0  0  0  0  0  0  0  0  0  0  0
   32.3980   28.9630   47.8190 O   0  0  0  0  0  0  0  0  0  0  0  0
   31.5260   28.2700   46.9910 C   0  0  0  0  0  0  0  0  0  0  0  0
   31.9090   27.0880   46.3910 C   0  0  0  0  0  0  0  0  0  0  0  0
   30.9900   26.4520   45.5800 C   0  0  0  0  0  0  0  0  0  0  0  0
   29.7080   26.8940   45.3110 C   0  0  0  0  0  0  0  0  0  0  0  0
   29.3920   28.0730   45.9400 C   0  0  0  0  0  0  0  0  0  0  0  0
   30.2570   28.7550   46.7570 C   0  0  0  0  0  0  0  0  0  0  0  0
   27.7860   28.7720   45.6980 S   0  0  0  0  0  0  0  0  0  0  0  0
   26.9130   27.6870   44.6160 C   0  0  0  0  0  0  0  0  0  0  0  0
   25.6460   27.9280   44.2230 C   0  0  0  0  0  0  0  0  0  0  0  0
   24.9050   27.1200   43.3790 C   0  0  0  0  0  0  0  0  0  0  0  0
   25.5530   25.9890   42.9260 C   0  0  0  0  0  0  0  0  0  0  0  0
   26.8510   25.7360   43.3230 C   0  0  0  0  0  0  0  0  0  0  0  0
   27.5630   26.5630   44.1680 C   0  0  0  0  0  0  0  0  0  0  0  0
   28.8640   26.1410   44.4580 N   0  0  0  0  0  0  0  0  0  0  0  0
   34.6580   30.5080   48.1810 O   0  0  0  0  0  0  0  0  0  0  0  0
   35.2560   30.3260   49.3950 C   0  0  0  0  0  0  0  0  0  0  0  0
   36.3270   29.4690   49.3420 F   0  0  0  0  0  0  0  0  0  0  0  0
   35.7050   31.5480   49.8170 F   0  0  0  0  0  0  0  0  0  0  0  0
   34.3360   29.8410   50.3210 F   0  0  0  0  0  0  0  0  0  0  0  0
   36.5545   32.4570   42.7275 H   0  0  0  0  0  0  0  0  0  0  0  0
   34.1864   31.7751   42.3809 H   0  0  0  0  0  0  0  0  0  0  0  0
   33.2115   30.0557   43.9255 H   0  0  0  0  0  0  0  0  0  0  0  0
   39.9106   34.1813   45.8926 H   0  0  0  0  0  0  0  0  0  0  0  0
   41.8888   32.8048   45.1866 H   0  0  0  0  0  0  0  0  0  0  0  0
   41.4477   30.5912   44.0685 H   0  0  0  0  0  0  0  0  0  0  0  0
   32.9121   26.6667   46.5532 H   0  0  0  0  0  0  0  0  0  0  0  0
   31.3058   25.5108   45.1063 H   0  0  0  0  0  0  0  0  0  0  0  0
   29.9360   29.6954   47.2288 H   0  0  0  0  0  0  0  0  0  0  0  0
   25.1628   28.8399   44.6038 H   0  0  0  0  0  0  0  0  0  0  0  0
   23.8718   27.3622   43.0894 H   0  0  0  0  0  0  0  0  0  0  0  0
   25.0369   25.2909   42.2505 H   0  0  0  0  0  0  0  0  0  0  0  0
   27.3435   24.8275   42.9460 H   0  0  0  0  0  0  0  0  0  0  0  0
   29.2155   25.2660   44.0436 H   0  0  0  0  0  0  0  0  0  0  0  0
  2 17  1  0
  2 32  1  0
  2  1  2  0
  3  2  1  0
  5  4  1  0
  6 15  1  0
  6  5  2  0
  7  6  1  0
  8  7  2  0
  8  9  1  0
  9 10  2  0
 10  5  1  0
 10  3  1  0
 12 11  2  0
 13 12  1  0
 14 13  2  0
 14 15  1  0
 15 16  2  0
 16 11  1  0
 18 17  1  0
 19 18  2  0
 20 19  1  0
 21 20  2  0
 21 22  1  0
 22 23  2  0
 23 18  1  0
 24 22  1  0
 25 24  1  0
 26 25  2  0
 27 26  1  0
 28 29  1  0
 28 27  2  0
 29 30  2  0
 30 31  1  0
 30 25  1  0
 31 21  1  0
 32 33  1  0
 33 35  1  0
 33 36  1  0
 34 33  1  0
  7 37  1  0
  8 38  1  0
  9 39  1  0
 11 40  1  0
 12 41  1  0
 13 42  1  0
 19 43  1  0
 20 44  1  0
 23 45  1  0
 26 46  1  0
 27 47  1  0
 28 48  1  0
 29 49  1  0
 31 50  1  0
M  ISO  8  37  14  38  14  39  14  40  14  41  14  42  14  43  14  44  14
M  ISO  5  45  14  46  14  47  14  48  14  49  14
M  END
>  <minimizedAffinity>  (1) 
-5.73267221

>  <minimizedRMSD>  (1) 
4.63658524

$$$$
