
     RDKit          3D

 46 49  0  0  0  0  0  0  0  0999 V2000
   38.0980   30.7990   50.0930 C   0  0  0  0  0  0  0  0  0  0  0  0
   38.0390   30.5190   48.6240 C   0  0  0  0  0  0  0  0  0  0  0  0
   37.3800   31.4050   47.8590 C   0  0  0  0  0  0  0  0  0  0  0  0
   38.4090   32.2480   47.5280 O   0  0  0  0  0  0  0  0  0  0  0  0
   38.6710   32.4940   46.2080 C   0  0  0  0  0  0  0  0  0  0  0  0
   39.9480   32.9330   45.9740 C   0  0  0  0  0  0  0  0  0  0  0  0
   40.3520   33.2220   44.6570 C   0  0  0  0  0  0  0  0  0  0  0  0
   39.4170   33.0410   43.6630 N   0  0  0  0  0  0  0  0  0  0  0  0
   38.1490   32.6000   43.9350 C   0  0  0  0  0  0  0  0  0  0  0  0
   37.7960   32.3340   45.1940 N   0  0  0  0  0  0  0  0  0  0  0  0
   37.7940   32.8350   41.5860 C   0  0  0  0  0  0  0  0  0  0  0  0
   38.9640   33.2920   41.3700 O   0  0  0  0  0  0  0  0  0  0  0  0
   37.2420   32.4410   42.8410 N   0  0  0  0  0  0  0  0  0  0  0  0
   37.1750   29.6620   51.0890 S   0  0  0  0  0  0  0  0  0  0  0  0
   35.6130   29.1610   50.3880 C   0  0  0  0  0  0  0  0  0  0  0  0
   34.4860   29.7710   50.9270 C   0  0  0  0  0  0  0  0  0  0  0  0
   33.2060   29.4960   50.4930 C   0  0  0  0  0  0  0  0  0  0  0  0
   33.0000   28.5660   49.4680 C   0  0  0  0  0  0  0  0  0  0  0  0
   34.1210   27.9710   48.9430 C   0  0  0  0  0  0  0  0  0  0  0  0
   35.4050   28.2460   49.3780 C   0  0  0  0  0  0  0  0  0  0  0  0
   33.9290   26.7820   47.6390 S   0  0  0  0  0  0  0  0  0  0  0  0
   32.1950   26.6320   47.2840 C   0  0  0  0  0  0  0  0  0  0  0  0
   31.7920   25.7600   46.2930 C   0  0  0  0  0  0  0  0  0  0  0  0
   30.4560   25.6120   45.9850 C   0  0  0  0  0  0  0  0  0  0  0  0
   29.5490   26.3710   46.7090 C   0  0  0  0  0  0  0  0  0  0  0  0
   29.9430   27.2450   47.7010 C   0  0  0  0  0  0  0  0  0  0  0  0
   31.2910   27.3950   48.0140 C   0  0  0  0  0  0  0  0  0  0  0  0
   31.6940   28.2970   49.0340 N   0  0  0  0  0  0  0  0  0  0  0  0
   37.7015   31.8102   50.2672 H   0  0  0  0  0  0  0  0  0  0  0  0
   39.1517   30.6958   50.3914 H   0  0  0  0  0  0  0  0  0  0  0  0
   39.0738   30.4670   48.2546 H   0  0  0  0  0  0  0  0  0  0  0  0
   37.4664   29.5840   48.5349 H   0  0  0  0  0  0  0  0  0  0  0  0
   36.9406   30.9290   46.9700 H   0  0  0  0  0  0  0  0  0  0  0  0
   36.5229   31.8910   48.3480 H   0  0  0  0  0  0  0  0  0  0  0  0
   40.6523   33.0586   46.8096 H   0  0  0  0  0  0  0  0  0  0  0  0
   41.3688   33.5764   44.4322 H   0  0  0  0  0  0  0  0  0  0  0  0
   37.1382   32.7333   40.7088 H   0  0  0  0  0  0  0  0  0  0  0  0
   36.2842   32.0777   42.9486 H   0  0  0  0  0  0  0  0  0  0  0  0
   34.6210   30.5051   51.7350 H   0  0  0  0  0  0  0  0  0  0  0  0
   32.3474   30.0076   50.9525 H   0  0  0  0  0  0  0  0  0  0  0  0
   36.2621   27.7334   48.9169 H   0  0  0  0  0  0  0  0  0  0  0  0
   32.5449   25.1766   45.7427 H   0  0  0  0  0  0  0  0  0  0  0  0
   30.1234   24.9201   45.1972 H   0  0  0  0  0  0  0  0  0  0  0  0
   28.4767   26.2726   46.4842 H   0  0  0  0  0  0  0  0  0  0  0  0
   29.1869   27.8272   48.2482 H   0  0  0  0  0  0  0  0  0  0  0  0
   30.9403   28.8131   49.5098 H   0  0  0  0  0  0  0  0  0  0  0  0
  1 14  1  0
  2  1  1  0
  3  2  1  0
  4  3  1  0
  5  4  1  0
  6  5  2  0
  7  6  1  0
  8  9  1  0
  8  7  2  0
  9 10  2  0
 10  5  1  0
 11 13  1  0
 12 11  2  0
 13  9  1  0
 15 16  2  0
 15 14  1  0
 17 16  1  0
 18 17  2  0
 19 20  2  0
 19 18  1  0
 20 15  1  0
 21 19  1  0
 22 21  1  0
 22 27  2  0
 23 22  1  0
 24 23  2  0
 24 25  1  0
 25 26  2  0
 26 27  1  0
 27 28  1  0
 28 18  1  0
  1 29  1  0
  1 30  1  0
  2 31  1  0
  2 32  1  0
  3 33  1  0
  3 34  1  0
  6 35  1  0
  7 36  1  0
 11 37  1  0
 13 38  1  0
 16 39  1  0
 17 40  1  0
 20 41  1  0
 23 42  1  0
 24 43  1  0
 25 44  1  0
 26 45  1  0
 28 46  1  0
M  ISO  8  29   8  30   8  31   8  32   8  33   8  34   8  35  14  36  14
M  ISO  8  37   6  39  14  40  14  41  14  42  14  43  14  44  14  45  14
M  END
>  <minimizedAffinity>  (1) 
-5.61914206

>  <minimizedRMSD>  (1) 
2.89270973

$$$$
