
     RDKit          3D

 42 45  0  0  0  0  0  0  0  0999 V2000
   37.8740   32.8420   42.9050 C   0  0  0  0  0  0  0  0  0  0  0  0
   38.3810   33.4040   41.7460 C   0  0  0  0  0  0  0  0  0  0  0  0
   37.4780   33.9230   40.8400 C   0  0  0  0  0  0  0  0  0  0  0  0
   36.1050   33.9320   40.9830 C   0  0  0  0  0  0  0  0  0  0  0  0
   35.6520   33.3630   42.1480 C   0  0  0  0  0  0  0  0  0  0  0  0
   36.5010   32.8390   43.0700 C   0  0  0  0  0  0  0  0  0  0  0  0
   33.9140   33.3090   42.4570 S   0  0  0  0  0  0  0  0  0  0  0  0
   33.1390   34.0780   41.0460 C   0  0  0  0  0  0  0  0  0  0  0  0
   31.7920   34.1720   41.0220 C   0  0  0  0  0  0  0  0  0  0  0  0
   31.1230   34.7520   39.9690 C   0  0  0  0  0  0  0  0  0  0  0  0
   31.8570   35.2440   38.9210 C   0  0  0  0  0  0  0  0  0  0  0  0
   33.2370   35.1200   39.0010 C   0  0  0  0  0  0  0  0  0  0  0  0
   33.9310   34.5430   40.0450 C   0  0  0  0  0  0  0  0  0  0  0  0
   35.3240   34.4950   39.9760 N   0  0  0  0  0  0  0  0  0  0  0  0
   39.1980   31.7950   46.1470 C   0  0  0  0  0  0  0  0  0  0  0  0
   40.3900   31.1810   45.8050 C   0  0  0  0  0  0  0  0  0  0  0  0
   40.7640   31.1150   44.4590 C   0  0  0  0  0  0  0  0  0  0  0  0
   39.9070   31.6730   43.5510 N   0  0  0  0  0  0  0  0  0  0  0  0
   38.7400   32.2680   43.9230 C   0  0  0  0  0  0  0  0  0  0  0  0
   38.4010   32.3240   45.2000 N   0  0  0  0  0  0  0  0  0  0  0  0
   38.9700   31.7790   47.5170 O   0  0  0  0  0  0  0  0  0  0  0  0
   37.6700   31.6150   47.9460 C   0  0  0  0  0  0  0  0  0  0  0  0
   37.8560   30.5870   48.7990 C   0  0  0  0  0  0  0  0  0  0  0  0
   38.1720   30.9230   50.2180 C   0  0  0  0  0  0  0  0  0  0  0  0
   37.2410   29.9490   51.3950 S   0  0  0  0  0  0  0  0  0  0  0  0
   39.4636   33.4359   41.5540 H   0  0  0  0  0  0  0  0  0  0  0  0
   37.8891   34.3691   39.9224 H   0  0  0  0  0  0  0  0  0  0  0  0
   36.0797   32.3948   43.9839 H   0  0  0  0  0  0  0  0  0  0  0  0
   31.2133   33.7735   41.8684 H   0  0  0  0  0  0  0  0  0  0  0  0
   30.0251   34.8193   39.9681 H   0  0  0  0  0  0  0  0  0  0  0  0
   31.3729   35.7168   38.0538 H   0  0  0  0  0  0  0  0  0  0  0  0
   33.8275   35.5150   38.1612 H   0  0  0  0  0  0  0  0  0  0  0  0
   35.7928   34.8910   39.1488 H   0  0  0  0  0  0  0  0  0  0  0  0
   41.0364   30.7495   46.5834 H   0  0  0  0  0  0  0  0  0  0  0  0
   41.7036   30.6366   44.1453 H   0  0  0  0  0  0  0  0  0  0  0  0
   37.2885   32.5111   48.4574 H   0  0  0  0  0  0  0  0  0  0  0  0
   36.9287   31.4419   47.1520 H   0  0  0  0  0  0  0  0  0  0  0  0
   36.9341   29.9869   48.7991 H   0  0  0  0  0  0  0  0  0  0  0  0
   38.7517   30.0691   48.4255 H   0  0  0  0  0  0  0  0  0  0  0  0
   39.2443   30.7471   50.3888 H   0  0  0  0  0  0  0  0  0  0  0  0
   37.8969   31.9765   50.3743 H   0  0  0  0  0  0  0  0  0  0  0  0
   37.5905   30.3147   52.6682 H   0  0  0  0  0  0  0  0  0  0  0  0
  1  6  1  0
  1 19  1  0
  2  1  2  0
  3  4  2  0
  3  2  1  0
  4  5  1  0
  5  7  1  0
  5  6  2  0
  8  7  1  0
  9  8  2  0
 10  9  1  0
 11 12  1  0
 11 10  2  0
 12 13  2  0
 13  8  1  0
 14 13  1  0
 14  4  1  0
 15 21  1  0
 16 15  2  0
 17 16  1  0
 18 19  1  0
 18 17  2  0
 19 20  2  0
 20 15  1  0
 21 22  1  0
 22 23  1  0
 23 24  1  0
 24 25  1  0
  2 26  1  0
  3 27  1  0
  6 28  1  0
  9 29  1  0
 10 30  1  0
 11 31  1  0
 12 32  1  0
 14 33  1  0
 16 34  1  0
 17 35  1  0
 22 36  1  0
 22 37  1  0
 23 38  1  0
 23 39  1  0
 24 40  1  0
 24 41  1  0
 25 42  1  0
M  ISO  8  26  14  27  14  28  14  29  14  30  14  31  14  32  14  34  14
M  ISO  8  35  14  36   8  37   8  38   8  39   8  40   8  41   8  42  11
M  END
>  <minimizedAffinity>  (1) 
-5.03478098

>  <minimizedRMSD>  (1) 
2.16130042

$$$$
