
     RDKit          3D

 47 51  0  0  0  0  0  0  0  0999 V2000
   39.7720   31.8540   45.1900 C   0  0  0  0  0  0  0  0  0  0  0  0
   39.6400   33.0250   44.5150 C   0  0  0  0  0  0  0  0  0  0  0  0
   39.5460   33.0770   43.1170 C   0  0  0  0  0  0  0  0  0  0  0  0
   39.6010   31.8530   42.4890 N   0  0  0  0  0  0  0  0  0  0  0  0
   39.7330   30.7010   43.1660 C   0  0  0  0  0  0  0  0  0  0  0  0
   39.8180   30.7120   44.5160 N   0  0  0  0  0  0  0  0  0  0  0  0
   39.7870   29.4160   42.4750 C   0  0  0  0  0  0  0  0  0  0  0  0
   40.3890   29.3130   41.2430 C   0  0  0  0  0  0  0  0  0  0  0  0
   40.4190   28.0800   40.6250 C   0  0  0  0  0  0  0  0  0  0  0  0
   39.8870   26.9230   41.1450 C   0  0  0  0  0  0  0  0  0  0  0  0
   39.2960   27.0720   42.3750 C   0  0  0  0  0  0  0  0  0  0  0  0
   39.2470   28.2680   43.0150 C   0  0  0  0  0  0  0  0  0  0  0  0
   38.5700   25.6470   43.1560 S   0  0  0  0  0  0  0  0  0  0  0  0
   38.8200   24.2810   42.0430 C   0  0  0  0  0  0  0  0  0  0  0  0
   38.3670   23.0520   42.3750 C   0  0  0  0  0  0  0  0  0  0  0  0
   38.5230   21.9560   41.5690 C   0  0  0  0  0  0  0  0  0  0  0  0
   39.1770   22.1420   40.3670 C   0  0  0  0  0  0  0  0  0  0  0  0
   39.6310   23.4080   40.0510 C   0  0  0  0  0  0  0  0  0  0  0  0
   39.4750   24.5120   40.8600 C   0  0  0  0  0  0  0  0  0  0  0  0
   39.9990   25.7380   40.3870 N   0  0  0  0  0  0  0  0  0  0  0  0
   39.8640   31.8430   46.6140 C   0  0  0  0  0  0  0  0  0  0  0  0
   38.7990   32.4110   47.4430 C   0  0  0  0  0  0  0  0  0  0  0  0
   38.0550   31.4340   48.2680 C   0  0  0  0  0  0  0  0  0  0  0  0
   37.0150   30.7000   47.7180 C   0  0  0  0  0  0  0  0  0  0  0  0
   36.5090   29.8810   48.6930 C   0  0  0  0  0  0  0  0  0  0  0  0
   37.2210   30.1180   49.7970 N   0  0  0  0  0  0  0  0  0  0  0  0
   38.1170   31.0300   49.5160 N   0  0  0  0  0  0  0  0  0  0  0  0
   37.0870   29.5050   51.1280 C   0  0  0  0  0  0  0  0  0  0  0  0
   37.8480   28.3710   51.2170 F   0  0  0  0  0  0  0  0  0  0  0  0
   35.7660   29.1760   51.3940 F   0  0  0  0  0  0  0  0  0  0  0  0
   37.5220   30.3760   52.1230 F   0  0  0  0  0  0  0  0  0  0  0  0
   39.6056   33.9653   45.0848 H   0  0  0  0  0  0  0  0  0  0  0  0
   39.4368   34.0222   42.5649 H   0  0  0  0  0  0  0  0  0  0  0  0
   40.8368   30.1944   40.7608 H   0  0  0  0  0  0  0  0  0  0  0  0
   40.9058   28.0173   39.6406 H   0  0  0  0  0  0  0  0  0  0  0  0
   38.7592   28.3233   43.9994 H   0  0  0  0  0  0  0  0  0  0  0  0
   37.8490   22.9261   43.3372 H   0  0  0  0  0  0  0  0  0  0  0  0
   38.1429   20.9677   41.8669 H   0  0  0  0  0  0  0  0  0  0  0  0
   39.3331   21.3004   39.6761 H   0  0  0  0  0  0  0  0  0  0  0  0
   40.1508   23.5432   39.0910 H   0  0  0  0  0  0  0  0  0  0  0  0
   40.4712   25.7662   39.4720 H   0  0  0  0  0  0  0  0  0  0  0  0
   39.9644   30.7891   46.9128 H   0  0  0  0  0  0  0  0  0  0  0  0
   40.7084   32.5210   46.8070 H   0  0  0  0  0  0  0  0  0  0  0  0
   39.2518   33.1519   48.1183 H   0  0  0  0  0  0  0  0  0  0  0  0
   38.0662   32.8427   46.7455 H   0  0  0  0  0  0  0  0  0  0  0  0
   36.6582   30.7641   46.6794 H   0  0  0  0  0  0  0  0  0  0  0  0
   35.6784   29.1677   48.5868 H   0  0  0  0  0  0  0  0  0  0  0  0
  1 21  1  0
  2  1  2  0
  3  2  1  0
  4  3  2  0
  4  5  1  0
  5  6  2  0
  6  1  1  0
  7 12  1  0
  7  5  1  0
  8  7  2  0
  9 10  2  0
  9  8  1  0
 10 11  1  0
 11 12  2  0
 11 13  1  0
 14 15  2  0
 14 13  1  0
 16 15  1  0
 17 16  2  0
 18 17  1  0
 18 19  2  0
 19 14  1  0
 20 19  1  0
 20 10  1  0
 21 22  1  0
 22 23  1  0
 23 27  2  0
 24 23  1  0
 24 25  2  0
 25 26  1  0
 26 28  1  0
 27 26  1  0
 28 29  1  0
 28 30  1  0
 28 31  1  0
  2 32  1  0
  3 33  1  0
  8 34  1  0
  9 35  1  0
 12 36  1  0
 15 37  1  0
 16 38  1  0
 17 39  1  0
 18 40  1  0
 20 41  1  0
 21 42  1  0
 21 43  1  0
 22 44  1  0
 22 45  1  0
 24 46  1  0
 25 47  1  0
M  ISO  8  32  14  33  14  34  14  35  14  36  14  37  14  38  14  39  14
M  ISO  7  40  14  42   8  43   8  44   8  45   8  46  14  47  14
M  END
>  <minimizedAffinity>  (1) 
-6.68742132

>  <minimizedRMSD>  (1) 
2.06953764

$$$$
