
     RDKit          3D

 38 42  0  0  0  0  0  0  0  0999 V2000
   39.2720   31.7350   44.3540 C   0  0  0  0  0  0  0  0  0  0  0  0
   38.7690   32.7480   43.5800 C   0  0  0  0  0  0  0  0  0  0  0  0
   39.1290   32.6360   42.2320 C   0  0  0  0  0  0  0  0  0  0  0  0
   39.9060   31.6150   41.7290 C   0  0  0  0  0  0  0  0  0  0  0  0
   40.3490   30.6580   42.6090 C   0  0  0  0  0  0  0  0  0  0  0  0
   40.0400   30.7040   43.9310 C   0  0  0  0  0  0  0  0  0  0  0  0
   41.3570   29.3290   41.9840 S   0  0  0  0  0  0  0  0  0  0  0  0
   41.5310   29.6270   40.2360 C   0  0  0  0  0  0  0  0  0  0  0  0
   42.2870   28.6880   39.5850 C   0  0  0  0  0  0  0  0  0  0  0  0
   42.4780   28.8420   38.2080 C   0  0  0  0  0  0  0  0  0  0  0  0
   41.9020   29.9220   37.5720 C   0  0  0  0  0  0  0  0  0  0  0  0
   41.1590   30.8090   38.3240 C   0  0  0  0  0  0  0  0  0  0  0  0
   40.9330   30.7150   39.6820 C   0  0  0  0  0  0  0  0  0  0  0  0
   40.1590   31.6790   40.3390 N   0  0  0  0  0  0  0  0  0  0  0  0
   38.0250   31.1100   48.1960 C   0  0  0  0  0  0  0  0  0  0  0  0
   38.7840   32.2000   48.0670 C   0  0  0  0  0  0  0  0  0  0  0  0
   39.2790   32.5560   46.8780 C   0  0  0  0  0  0  0  0  0  0  0  0
   38.9610   31.7390   45.8070 C   0  0  0  0  0  0  0  0  0  0  0  0
   37.9170   30.4320   46.5910 S   0  0  0  0  0  0  0  0  0  0  0  0
   37.2390   30.0430   51.7160 C   0  0  0  0  0  0  0  0  0  0  0  0
   37.9500   30.6250   50.6540 C   0  0  0  0  0  0  0  0  0  0  0  0
   37.3870   30.5430   49.3960 C   0  0  0  0  0  0  0  0  0  0  0  0
   36.2040   29.9190   49.2480 N   0  0  0  0  0  0  0  0  0  0  0  0
   35.5380   29.3710   50.2640 C   0  0  0  0  0  0  0  0  0  0  0  0
   36.0570   29.4350   51.4870 N   0  0  0  0  0  0  0  0  0  0  0  0
   38.1472   33.5640   43.9768 H   0  0  0  0  0  0  0  0  0  0  0  0
   38.7712   33.4072   41.5341 H   0  0  0  0  0  0  0  0  0  0  0  0
   40.3995   29.9342   44.6297 H   0  0  0  0  0  0  0  0  0  0  0  0
   42.7297   27.8400   40.1280 H   0  0  0  0  0  0  0  0  0  0  0  0
   43.0775   28.1140   37.6417 H   0  0  0  0  0  0  0  0  0  0  0  0
   42.0319   30.0728   36.4902 H   0  0  0  0  0  0  0  0  0  0  0  0
   40.7090   31.6629   37.7964 H   0  0  0  0  0  0  0  0  0  0  0  0
   39.7621   32.4577   39.7940 H   0  0  0  0  0  0  0  0  0  0  0  0
   39.0053   32.8143   48.9522 H   0  0  0  0  0  0  0  0  0  0  0  0
   39.9063   33.4514   46.7567 H   0  0  0  0  0  0  0  0  0  0  0  0
   37.6469   30.0831   52.7368 H   0  0  0  0  0  0  0  0  0  0  0  0
   38.9157   31.1256   50.8177 H   0  0  0  0  0  0  0  0  0  0  0  0
   34.5723   28.8726   50.0935 H   0  0  0  0  0  0  0  0  0  0  0  0
  1 18  1  0
  2  1  2  0
  3  2  1  0
  4  3  2  0
  4  5  1  0
  5  6  2  0
  6  1  1  0
  7  5  1  0
  8  7  1  0
  9  8  2  0
 10  9  1  0
 11 10  2  0
 11 12  1  0
 12 13  2  0
 13  8  1  0
 13 14  1  0
 14  4  1  0
 15 22  1  0
 16 15  2  0
 17 16  1  0
 18 19  1  0
 18 17  2  0
 19 15  1  0
 21 20  2  0
 22 21  1  0
 23 22  2  0
 23 24  1  0
 24 25  2  0
 25 20  1  0
  2 26  1  0
  3 27  1  0
  6 28  1  0
  9 29  1  0
 10 30  1  0
 11 31  1  0
 12 32  1  0
 14 33  1  0
 16 34  1  0
 17 35  1  0
 20 36  1  0
 21 37  1  0
 24 38  1  0
M  ISO  8  26  14  27  14  28  14  29  14  30  14  31  14  32  14  34  14
M  ISO  4  35  14  36  14  37  14  38  14
M  END
>  <minimizedAffinity>  (1) 
-6.43256807

>  <minimizedRMSD>  (1) 
2.22417879

$$$$
