
     RDKit          3D

 25 26  0  0  0  0  0  0  0  0999 V2000
   37.0810   30.4280   48.1610 C   0  0  0  0  0  0  0  0  0  0  0  0
   35.9520   30.2690   47.3450 C   0  0  0  0  0  0  0  0  0  0  0  0
   34.6900   30.3740   47.8870 C   0  0  0  0  0  0  0  0  0  0  0  0
   34.5940   30.6330   49.2200 N   0  0  0  0  0  0  0  0  0  0  0  0
   35.6950   30.7850   50.0060 C   0  0  0  0  0  0  0  0  0  0  0  0
   36.9020   30.6810   49.4640 N   0  0  0  0  0  0  0  0  0  0  0  0
   34.7820   30.0560   45.2130 C   0  0  0  0  0  0  0  0  0  0  0  0
   33.5570   30.3140   45.4640 O   0  0  0  0  0  0  0  0  0  0  0  0
   35.9740   30.0040   45.9760 N   0  0  0  0  0  0  0  0  0  0  0  0
   38.2450   30.2900   47.4510 O   0  0  0  0  0  0  0  0  0  0  0  0
   38.7990   32.8510   48.9300 Cl  0  0  0  0  0  0  0  0  0  0  0  0
   39.2450   32.5700   47.2620 C   0  0  0  0  0  0  0  0  0  0  0  0
   38.8900   31.3240   46.7950 C   0  0  0  0  0  0  0  0  0  0  0  0
   39.1890   30.9690   45.4740 C   0  0  0  0  0  0  0  0  0  0  0  0
   39.8440   31.8830   44.6440 C   0  0  0  0  0  0  0  0  0  0  0  0
   40.1920   33.1400   45.1440 C   0  0  0  0  0  0  0  0  0  0  0  0
   39.8870   33.4720   46.4530 C   0  0  0  0  0  0  0  0  0  0  0  0
   33.7912   30.2528   47.2645 H   0  0  0  0  0  0  0  0  0  0  0  0
   35.5853   30.9922   51.0807 H   0  0  0  0  0  0  0  0  0  0  0  0
   34.9518   29.8176   44.1527 H   0  0  0  0  0  0  0  0  0  0  0  0
   36.8649   29.7684   45.5158 H   0  0  0  0  0  0  0  0  0  0  0  0
   38.9099   29.9761   45.0915 H   0  0  0  0  0  0  0  0  0  0  0  0
   40.0837   31.6144   43.6046 H   0  0  0  0  0  0  0  0  0  0  0  0
   40.7080   33.8656   44.4981 H   0  0  0  0  0  0  0  0  0  0  0  0
   40.1606   34.4626   46.8453 H   0  0  0  0  0  0  0  0  0  0  0  0
  1  6  2  0
  2  3  2  0
  2  1  1  0
  3  4  1  0
  4  5  2  0
  6  5  1  0
  7  8  2  0
  7  9  1  0
  9  2  1  0
 10  1  1  0
 12 11  1  0
 13 12  2  0
 13 10  1  0
 14 13  1  0
 15 16  1  0
 15 14  2  0
 16 17  2  0
 17 12  1  0
  3 18  1  0
  5 19  1  0
  7 20  1  0
  9 21  1  0
 14 22  1  0
 15 23  1  0
 16 24  1  0
 17 25  1  0
M  ISO  7  18  14  19  14  20   6  22  14  23  14  24  14  25  14
M  END
>  <minimizedAffinity>  (1) 
-4.62340593

>  <minimizedRMSD>  (1) 
6.81370306

$$$$
