
     RDKit          3D

 29 31  0  0  0  0  0  0  0  0999 V2000
   35.7810   30.1710   49.9880 C   0  0  0  0  0  0  0  0  0  0  0  0
   36.7200   29.7960   50.9400 C   0  0  0  0  0  0  0  0  0  0  0  0
   37.8160   30.5810   50.6000 C   0  0  0  0  0  0  0  0  0  0  0  0
   37.5100   31.3580   49.5130 C   0  0  0  0  0  0  0  0  0  0  0  0
   36.2790   31.0870   49.1700 O   0  0  0  0  0  0  0  0  0  0  0  0
   38.4340   30.6560   46.6890 Cl  0  0  0  0  0  0  0  0  0  0  0  0
   38.8770   32.0900   47.5910 C   0  0  0  0  0  0  0  0  0  0  0  0
   38.4020   32.3110   48.8640 C   0  0  0  0  0  0  0  0  0  0  0  0
   38.7870   33.4610   49.5210 C   0  0  0  0  0  0  0  0  0  0  0  0
   39.6240   34.4170   48.9910 C   0  0  0  0  0  0  0  0  0  0  0  0
   40.0950   34.1760   47.6990 C   0  0  0  0  0  0  0  0  0  0  0  0
   39.7230   33.0340   47.0230 C   0  0  0  0  0  0  0  0  0  0  0  0
   34.4210   29.6100   49.9190 C   0  0  0  0  0  0  0  0  0  0  0  0
   33.6630   29.7770   50.9090 O   0  0  0  0  0  0  0  0  0  0  0  0
   32.7160   27.1630   47.8400 C   0  0  0  0  0  0  0  0  0  0  0  0
   33.1550   27.4870   46.5420 C   0  0  0  0  0  0  0  0  0  0  0  0
   34.0430   28.5540   46.3790 C   0  0  0  0  0  0  0  0  0  0  0  0
   34.4290   29.2150   47.4940 N   0  0  0  0  0  0  0  0  0  0  0  0
   34.0000   28.8930   48.7260 C   0  0  0  0  0  0  0  0  0  0  0  0
   33.1490   27.8720   48.8870 N   0  0  0  0  0  0  0  0  0  0  0  0
   36.6217   29.0643   51.7554 H   0  0  0  0  0  0  0  0  0  0  0  0
   38.7830   30.5789   51.1243 H   0  0  0  0  0  0  0  0  0  0  0  0
   38.3991   33.6254   50.5371 H   0  0  0  0  0  0  0  0  0  0  0  0
   39.9056   35.3194   49.5535 H   0  0  0  0  0  0  0  0  0  0  0  0
   40.7670   34.9019   47.2177 H   0  0  0  0  0  0  0  0  0  0  0  0
   40.1065   32.8655   46.0059 H   0  0  0  0  0  0  0  0  0  0  0  0
   32.0173   26.3271   47.9922 H   0  0  0  0  0  0  0  0  0  0  0  0
   32.8056   26.9111   45.6724 H   0  0  0  0  0  0  0  0  0  0  0  0
   34.4128   28.8442   45.3845 H   0  0  0  0  0  0  0  0  0  0  0  0
  1  2  2  0
  3  2  1  0
  4  3  2  0
  5  4  1  0
  5  1  1  0
  6  7  1  0
  7  8  2  0
  8  4  1  0
  8  9  1  0
 10  9  2  0
 11 10  1  0
 12  7  1  0
 12 11  2  0
 13  1  1  0
 13 14  2  0
 15 20  2  0
 16 15  1  0
 17 16  2  0
 17 18  1  0
 18 19  2  0
 19 20  1  0
 19 13  1  0
  2 21  1  0
  3 22  1  0
  9 23  1  0
 10 24  1  0
 11 25  1  0
 12 26  1  0
 15 27  1  0
 16 28  1  0
 17 29  1  0
M  ISO  8  21  14  22  14  23  14  24  14  25  14  26  14  27  14  28  14
M  ISO  1  29  14
M  END
>  <minimizedAffinity>  (1) 
-6.27797031

>  <minimizedRMSD>  (1) 
2.2040782

$$$$
