
     RDKit          3D

 37 40  0  0  0  0  0  0  0  0999 V2000
   38.8600   30.9310   45.8390 C   0  0  0  0  0  0  0  0  0  0  0  0
   40.0110   31.6300   46.0830 C   0  0  0  0  0  0  0  0  0  0  0  0
   40.8570   31.5790   44.9900 C   0  0  0  0  0  0  0  0  0  0  0  0
   40.1790   30.8340   44.1010 N   0  0  0  0  0  0  0  0  0  0  0  0
   39.0050   30.4470   44.5870 N   0  0  0  0  0  0  0  0  0  0  0  0
   37.7230   30.7480   46.7360 C   0  0  0  0  0  0  0  0  0  0  0  0
   37.9320   30.9410   48.1250 C   0  0  0  0  0  0  0  0  0  0  0  0
   36.8430   30.7640   48.9700 C   0  0  0  0  0  0  0  0  0  0  0  0
   35.6380   30.4150   48.4170 N   0  0  0  0  0  0  0  0  0  0  0  0
   35.4680   30.2380   47.0900 C   0  0  0  0  0  0  0  0  0  0  0  0
   36.5150   30.4060   46.2590 N   0  0  0  0  0  0  0  0  0  0  0  0
   37.0480   30.9650   50.4370 C   0  0  0  0  0  0  0  0  0  0  0  0
   36.5370   32.2130   50.7050 F   0  0  0  0  0  0  0  0  0  0  0  0
   36.3480   30.0410   51.1940 F   0  0  0  0  0  0  0  0  0  0  0  0
   38.3880   30.9290   50.7840 F   0  0  0  0  0  0  0  0  0  0  0  0
   40.5690   30.4380   42.7530 C   0  0  0  0  0  0  0  0  0  0  0  0
   40.1880   31.1690   41.6230 C   0  0  0  0  0  0  0  0  0  0  0  0
   40.5440   30.7950   40.4000 C   0  0  0  0  0  0  0  0  0  0  0  0
   41.3340   29.6190   40.2390 C   0  0  0  0  0  0  0  0  0  0  0  0
   41.5260   29.0880   42.0110 S   0  0  0  0  0  0  0  0  0  0  0  0
   43.7180   30.9820   38.8800 Cl  0  0  0  0  0  0  0  0  0  0  0  0
   42.9990   29.4280   38.5210 C   0  0  0  0  0  0  0  0  0  0  0  0
   41.9330   28.8580   39.1550 C   0  0  0  0  0  0  0  0  0  0  0  0
   41.3570   27.6600   38.8970 C   0  0  0  0  0  0  0  0  0  0  0  0
   41.8970   26.9020   37.8700 C   0  0  0  0  0  0  0  0  0  0  0  0
   42.9870   27.4030   37.1680 C   0  0  0  0  0  0  0  0  0  0  0  0
   43.5320   28.6490   37.4860 C   0  0  0  0  0  0  0  0  0  0  0  0
   40.2331   32.1603   47.0208 H   0  0  0  0  0  0  0  0  0  0  0  0
   41.8495   32.0392   44.8757 H   0  0  0  0  0  0  0  0  0  0  0  0
   38.9201   31.2206   48.5194 H   0  0  0  0  0  0  0  0  0  0  0  0
   34.4821   29.9587   46.6899 H   0  0  0  0  0  0  0  0  0  0  0  0
   39.5786   32.0758   41.7508 H   0  0  0  0  0  0  0  0  0  0  0  0
   40.2341   31.3836   39.5239 H   0  0  0  0  0  0  0  0  0  0  0  0
   40.4949   27.3027   39.4793 H   0  0  0  0  0  0  0  0  0  0  0  0
   41.4703   25.9208   37.6149 H   0  0  0  0  0  0  0  0  0  0  0  0
   43.4260   26.8107   36.3516 H   0  0  0  0  0  0  0  0  0  0  0  0
   44.3936   29.0246   36.9145 H   0  0  0  0  0  0  0  0  0  0  0  0
  1  2  1  0
  1  6  1  0
  3  2  2  0
  4  5  1  0
  4  3  1  0
  5  1  2  0
  6  7  2  0
  7  8  1  0
  8 12  1  0
  9  8  2  0
 10  9  1  0
 11  6  1  0
 11 10  2  0
 12 13  1  0
 12 15  1  0
 12 14  1  0
 16  4  1  0
 17 16  2  0
 18 17  1  0
 19 18  2  0
 19 20  1  0
 20 16  1  0
 22 21  1  0
 22 23  2  0
 23 19  1  0
 24 23  1  0
 25 24  2  0
 26 27  2  0
 26 25  1  0
 27 22  1  0
  2 28  1  0
  3 29  1  0
  7 30  1  0
 10 31  1  0
 17 32  1  0
 18 33  1  0
 24 34  1  0
 25 35  1  0
 26 36  1  0
 27 37  1  0
M  ISO  8  28  14  29  14  30  14  31  14  32  14  33  14  34  14  35  14
M  ISO  2  36  14  37  14
M  END
>  <minimizedAffinity>  (1) 
-6.53416252

>  <minimizedRMSD>  (1) 
0.160467952

$$$$
