
     RDKit          3D

 37 40  0  0  0  0  0  0  0  0999 V2000
   36.6240   30.6540   47.4570 C   0  0  0  0  0  0  0  0  0  0  0  0
   37.6260   31.5080   47.6620 C   0  0  0  0  0  0  0  0  0  0  0  0
   38.1880   32.1510   46.6160 C   0  0  0  0  0  0  0  0  0  0  0  0
   37.6770   31.8750   45.3640 C   0  0  0  0  0  0  0  0  0  0  0  0
   36.3600   30.6610   45.7340 S   0  0  0  0  0  0  0  0  0  0  0  0
   40.6380   32.1350   44.7350 Cl  0  0  0  0  0  0  0  0  0  0  0  0
   39.3010   32.4850   43.6810 C   0  0  0  0  0  0  0  0  0  0  0  0
   37.9950   32.3430   44.0330 C   0  0  0  0  0  0  0  0  0  0  0  0
   36.9080   32.6010   43.2510 C   0  0  0  0  0  0  0  0  0  0  0  0
   37.1350   33.0600   41.9450 C   0  0  0  0  0  0  0  0  0  0  0  0
   38.4410   33.2260   41.5230 C   0  0  0  0  0  0  0  0  0  0  0  0
   38.7920   33.7960   39.9050 Cl  0  0  0  0  0  0  0  0  0  0  0  0
   39.5070   32.9440   42.3730 C   0  0  0  0  0  0  0  0  0  0  0  0
   35.1790   29.2090   50.6250 C   0  0  0  0  0  0  0  0  0  0  0  0
   35.9690   30.0370   49.8010 C   0  0  0  0  0  0  0  0  0  0  0  0
   35.8570   29.8480   48.4060 C   0  0  0  0  0  0  0  0  0  0  0  0
   35.0170   28.9030   47.9150 N   0  0  0  0  0  0  0  0  0  0  0  0
   34.2850   28.1410   48.7610 C   0  0  0  0  0  0  0  0  0  0  0  0
   34.3630   28.2890   50.0840 N   0  0  0  0  0  0  0  0  0  0  0  0
   31.3360   28.2910   49.5100 Cl  0  0  0  0  0  0  0  0  0  0  0  0
   32.0480   27.1160   48.4220 C   0  0  0  0  0  0  0  0  0  0  0  0
   33.4040   27.1460   48.1570 C   0  0  0  0  0  0  0  0  0  0  0  0
   33.9360   26.2060   47.2960 C   0  0  0  0  0  0  0  0  0  0  0  0
   33.1850   25.2290   46.6780 C   0  0  0  0  0  0  0  0  0  0  0  0
   31.8350   25.2110   46.9520 C   0  0  0  0  0  0  0  0  0  0  0  0
   31.2810   26.1420   47.8110 C   0  0  0  0  0  0  0  0  0  0  0  0
   37.9950   31.6891   48.6823 H   0  0  0  0  0  0  0  0  0  0  0  0
   39.0154   32.8623   46.7554 H   0  0  0  0  0  0  0  0  0  0  0  0
   35.8866   32.4540   43.6319 H   0  0  0  0  0  0  0  0  0  0  0  0
   36.2935   33.2826   41.2724 H   0  0  0  0  0  0  0  0  0  0  0  0
   40.5355   33.0848   42.0092 H   0  0  0  0  0  0  0  0  0  0  0  0
   35.2313   29.3172   51.7184 H   0  0  0  0  0  0  0  0  0  0  0  0
   36.6423   30.7961   50.2258 H   0  0  0  0  0  0  0  0  0  0  0  0
   35.0165   26.2387   47.0926 H   0  0  0  0  0  0  0  0  0  0  0  0
   33.6430   24.4968   45.9968 H   0  0  0  0  0  0  0  0  0  0  0  0
   31.1931   24.4502   46.4839 H   0  0  0  0  0  0  0  0  0  0  0  0
   30.2004   26.1066   48.0137 H   0  0  0  0  0  0  0  0  0  0  0  0
  1  2  2  0
  1 16  1  0
  3  2  1  0
  4  5  1  0
  4  3  2  0
  5  1  1  0
  7  8  2  0
  7  6  1  0
  8  4  1  0
  9  8  1  0
 10  9  2  0
 11 10  1  0
 11 13  2  0
 12 11  1  0
 13  7  1  0
 15 14  2  0
 16 15  1  0
 17 16  2  0
 17 18  1  0
 18 19  2  0
 19 14  1  0
 21 20  1  0
 22 21  2  0
 22 18  1  0
 23 22  1  0
 24 25  1  0
 24 23  2  0
 25 26  2  0
 26 21  1  0
  2 27  1  0
  3 28  1  0
  9 29  1  0
 10 30  1  0
 13 31  1  0
 14 32  1  0
 15 33  1  0
 23 34  1  0
 24 35  1  0
 25 36  1  0
 26 37  1  0
M  ISO  8  27  14  28  14  29  14  30  14  31  14  32  14  33  14  34  14
M  ISO  3  35  14  36  14  37  14
M  END
>  <minimizedAffinity>  (1) 
-5.78631783

>  <minimizedRMSD>  (1) 
2.15634656

$$$$
