
     RDKit          3D

 41 44  0  0  0  0  0  0  0  0999 V2000
   34.3180   30.3670   47.7010 F   0  0  0  0  0  0  0  0  0  0  0  0
   34.6560   29.9040   46.4540 C   0  0  0  0  0  0  0  0  0  0  0  0
   33.7420   29.2650   45.6340 C   0  0  0  0  0  0  0  0  0  0  0  0
   34.1480   28.8450   44.3900 C   0  0  0  0  0  0  0  0  0  0  0  0
   35.4610   29.0560   43.9580 C   0  0  0  0  0  0  0  0  0  0  0  0
   36.3220   29.7000   44.8270 C   0  0  0  0  0  0  0  0  0  0  0  0
   35.9700   30.1280   46.0510 C   0  0  0  0  0  0  0  0  0  0  0  0
   37.8200   32.3150   44.7850 Br  0  0  0  0  0  0  0  0  0  0  0  0
   37.8100   31.7930   46.6170 C   0  0  0  0  0  0  0  0  0  0  0  0
   36.9270   30.7830   46.9190 C   0  0  0  0  0  0  0  0  0  0  0  0
   36.8970   30.3110   48.2420 C   0  0  0  0  0  0  0  0  0  0  0  0
   37.7200   30.8420   49.1890 C   0  0  0  0  0  0  0  0  0  0  0  0
   38.5780   31.8520   48.8200 C   0  0  0  0  0  0  0  0  0  0  0  0
   38.6390   32.3500   47.5180 C   0  0  0  0  0  0  0  0  0  0  0  0
   39.4540   33.3440   47.0740 O   0  0  0  0  0  0  0  0  0  0  0  0
   32.2680   28.1600   47.1830 C   0  0  0  0  0  0  0  0  0  0  0  0
   32.4260   29.1110   46.1970 C   0  0  0  0  0  0  0  0  0  0  0  0
   31.3070   29.8630   45.8230 C   0  0  0  0  0  0  0  0  0  0  0  0
   30.1160   29.6380   46.4350 N   0  0  0  0  0  0  0  0  0  0  0  0
   30.0040   28.7120   47.3840 C   0  0  0  0  0  0  0  0  0  0  0  0
   31.0460   27.9850   47.7570 N   0  0  0  0  0  0  0  0  0  0  0  0
   28.2700   26.5040   46.1880 Cl  0  0  0  0  0  0  0  0  0  0  0  0
   27.8300   27.5440   47.5150 C   0  0  0  0  0  0  0  0  0  0  0  0
   28.6810   28.5270   48.0000 C   0  0  0  0  0  0  0  0  0  0  0  0
   28.3370   29.3580   49.0580 C   0  0  0  0  0  0  0  0  0  0  0  0
   27.0950   29.2190   49.6730 C   0  0  0  0  0  0  0  0  0  0  0  0
   26.2310   28.2460   49.2050 C   0  0  0  0  0  0  0  0  0  0  0  0
   26.6150   27.4470   48.1560 C   0  0  0  0  0  0  0  0  0  0  0  0
   33.4321   28.3373   43.7269 H   0  0  0  0  0  0  0  0  0  0  0  0
   35.7960   28.7224   42.9648 H   0  0  0  0  0  0  0  0  0  0  0  0
   37.3570   29.8723   44.4967 H   0  0  0  0  0  0  0  0  0  0  0  0
   36.2015   29.5040   48.5161 H   0  0  0  0  0  0  0  0  0  0  0  0
   37.6989   30.4717   50.2246 H   0  0  0  0  0  0  0  0  0  0  0  0
   39.2429   32.2845   49.5822 H   0  0  0  0  0  0  0  0  0  0  0  0
   40.0821   33.7854   47.6991 H   0  0  0  0  0  0  0  0  0  0  0  0
   33.1233   27.5471   47.5035 H   0  0  0  0  0  0  0  0  0  0  0  0
   31.3914   30.6304   45.0394 H   0  0  0  0  0  0  0  0  0  0  0  0
   29.0436   30.1242   49.4096 H   0  0  0  0  0  0  0  0  0  0  0  0
   26.8077   29.8690   50.5126 H   0  0  0  0  0  0  0  0  0  0  0  0
   25.2429   28.1129   49.6697 H   0  0  0  0  0  0  0  0  0  0  0  0
   25.9073   26.6812   47.8057 H   0  0  0  0  0  0  0  0  0  0  0  0
  2  1  1  0
  3 17  1  0
  3  2  2  0
  4  3  1  0
  5  4  2  0
  5  6  1  0
  6  7  2  0
  7  2  1  0
  7 10  1  0
  8  9  1  0
  9 10  2  0
  9 14  1  0
 10 11  1  0
 11 12  2  0
 13 12  1  0
 14 13  2  0
 15 14  1  0
 16 21  2  0
 17 16  1  0
 18 17  2  0
 18 19  1  0
 19 20  2  0
 20 21  1  0
 20 24  1  0
 22 23  1  0
 23 24  2  0
 23 28  1  0
 24 25  1  0
 25 26  2  0
 27 26  1  0
 28 27  2  0
  4 29  1  0
  5 30  1  0
  6 31  1  0
 11 32  1  0
 12 33  1  0
 13 34  1  0
 15 35  1  0
 16 36  1  0
 18 37  1  0
 25 38  1  0
 26 39  1  0
 27 40  1  0
 28 41  1  0
M  ISO  8  29  14  30  14  31  14  32  14  33  14  34  14  35   3  36  14
M  ISO  5  37  14  38  14  39  14  40  14  41  14
M  END
>  <minimizedAffinity>  (1) 
-7.11284208

>  <minimizedRMSD>  (1) 
0.517553747

$$$$
