
     RDKit          3D

 48 52  0  0  0  0  0  0  0  0999 V2000
   38.1400   31.4110   47.9340 C   0  0  0  0  0  0  0  0  0  0  0  0
   37.2830   31.5970   49.0010 C   0  0  0  0  0  0  0  0  0  0  0  0
   37.4730   32.7960   49.6880 C   0  0  0  0  0  0  0  0  0  0  0  0
   38.4520   33.7200   49.3130 C   0  0  0  0  0  0  0  0  0  0  0  0
   39.2800   33.4340   48.2030 C   0  0  0  0  0  0  0  0  0  0  0  0
   39.1050   32.2430   47.5050 C   0  0  0  0  0  0  0  0  0  0  0  0
   35.1710   30.4420   48.5700 C   0  0  0  0  0  0  0  0  0  0  0  0
   36.2810   30.6590   49.3900 C   0  0  0  0  0  0  0  0  0  0  0  0
   36.3490   29.9240   50.5800 C   0  0  0  0  0  0  0  0  0  0  0  0
   35.3640   29.0550   50.8830 N   0  0  0  0  0  0  0  0  0  0  0  0
   34.2970   28.8810   50.0400 C   0  0  0  0  0  0  0  0  0  0  0  0
   34.2080   29.5650   48.9070 N   0  0  0  0  0  0  0  0  0  0  0  0
   37.5180   30.1210   51.4910 C   0  0  0  0  0  0  0  0  0  0  0  0
   38.0300   30.2380   47.1790 O   0  0  0  0  0  0  0  0  0  0  0  0
   39.9480   32.0390   46.4380 O   0  0  0  0  0  0  0  0  0  0  0  0
   40.1560   31.0230   44.1710 C   0  0  0  0  0  0  0  0  0  0  0  0
   39.5780   31.8280   45.1340 C   0  0  0  0  0  0  0  0  0  0  0  0
   38.4480   32.5670   44.7990 C   0  0  0  0  0  0  0  0  0  0  0  0
   37.9030   32.4980   43.5140 C   0  0  0  0  0  0  0  0  0  0  0  0
   36.8480   33.0720   42.8990 N   0  0  0  0  0  0  0  0  0  0  0  0
   36.7780   32.6430   41.6210 C   0  0  0  0  0  0  0  0  0  0  0  0
   37.8150   31.7800   41.4340 N   0  0  0  0  0  0  0  0  0  0  0  0
   38.5080   31.6860   42.5860 C   0  0  0  0  0  0  0  0  0  0  0  0
   39.6280   30.9500   42.9070 C   0  0  0  0  0  0  0  0  0  0  0  0
   38.8090   28.1480   43.2780 Cl  0  0  0  0  0  0  0  0  0  0  0  0
   39.9130   28.7610   42.0660 C   0  0  0  0  0  0  0  0  0  0  0  0
   40.2730   30.0860   41.9250 C   0  0  0  0  0  0  0  0  0  0  0  0
   41.1600   30.4700   40.9270 C   0  0  0  0  0  0  0  0  0  0  0  0
   41.6590   29.4870   40.0970 C   0  0  0  0  0  0  0  0  0  0  0  0
   41.3100   28.1580   40.2250 C   0  0  0  0  0  0  0  0  0  0  0  0
   40.4220   27.7900   41.2260 C   0  0  0  0  0  0  0  0  0  0  0  0
   36.8316   33.0215   50.5527 H   0  0  0  0  0  0  0  0  0  0  0  0
   38.5769   34.6578   49.8741 H   0  0  0  0  0  0  0  0  0  0  0  0
   40.0572   34.1482   47.8934 H   0  0  0  0  0  0  0  0  0  0  0  0
   35.0823   31.0012   47.6269 H   0  0  0  0  0  0  0  0  0  0  0  0
   33.5051   28.1655   50.3064 H   0  0  0  0  0  0  0  0  0  0  0  0
   37.1815   30.0643   52.5367 H   0  0  0  0  0  0  0  0  0  0  0  0
   38.2655   29.3362   51.3033 H   0  0  0  0  0  0  0  0  0  0  0  0
   37.9670   31.1075   51.3033 H   0  0  0  0  0  0  0  0  0  0  0  0
   38.6348   30.0856   46.4102 H   0  0  0  0  0  0  0  0  0  0  0  0
   41.0504   30.4335   44.4210 H   0  0  0  0  0  0  0  0  0  0  0  0
   37.9778   33.2134   45.5547 H   0  0  0  0  0  0  0  0  0  0  0  0
   36.1951   33.7367   43.3381 H   0  0  0  0  0  0  0  0  0  0  0  0
   36.0263   32.9349   40.8728 H   0  0  0  0  0  0  0  0  0  0  0  0
   41.4547   31.5225   40.8026 H   0  0  0  0  0  0  0  0  0  0  0  0
   42.3628   29.7741   39.3019 H   0  0  0  0  0  0  0  0  0  0  0  0
   41.7290   27.4023   39.5444 H   0  0  0  0  0  0  0  0  0  0  0  0
   40.1270   26.7374   41.3489 H   0  0  0  0  0  0  0  0  0  0  0  0
  1  2  2  0
  2  8  1  0
  2  3  1  0
  4  3  2  0
  5  4  1  0
  6  1  1  0
  6  5  2  0
  7 12  2  0
  7  8  1  0
  8  9  2  0
  9 10  1  0
  9 13  1  0
 11 10  2  0
 12 11  1  0
 14  1  1  0
 15  6  1  0
 16 17  2  0
 17 15  1  0
 18 17  1  0
 19 18  2  0
 20 19  1  0
 21 20  1  0
 22 21  2  0
 22 23  1  0
 23 24  2  0
 23 19  1  0
 24 16  1  0
 26 25  1  0
 27 26  2  0
 27 24  1  0
 28 27  1  0
 29 30  1  0
 29 28  2  0
 30 31  2  0
 31 26  1  0
  3 32  1  0
  4 33  1  0
  5 34  1  0
  7 35  1  0
 11 36  1  0
 13 37  1  0
 13 38  1  0
 13 39  1  0
 14 40  1  0
 16 41  1  0
 18 42  1  0
 20 43  1  0
 21 44  1  0
 28 45  1  0
 29 46  1  0
 30 47  1  0
 31 48  1  0
M  ISO  8  32  14  33  14  34  14  35  14  36  14  37   8  38   8  39   8
M  ISO  8  40   3  41  14  42  14  43   9  44  14  45  14  46  14  47  14
M  ISO  1  48  14
M  END
>  <minimizedAffinity>  (1) 
-7.9019165

>  <minimizedRMSD>  (1) 
0.782803953

$$$$
