
     RDKit          3D

 43 46  0  0  0  0  0  0  0  0999 V2000
   36.1790   30.8020   43.7730 C   0  0  0  0  0  0  0  0  0  0  0  0
   38.1960   28.8950   42.5920 Cl  0  0  0  0  0  0  0  0  0  0  0  0
   36.5930   28.4940   43.0880 C   0  0  0  0  0  0  0  0  0  0  0  0
   36.1500   27.1810   42.9490 C   0  0  0  0  0  0  0  0  0  0  0  0
   34.8840   26.8130   43.3210 C   0  0  0  0  0  0  0  0  0  0  0  0
   34.0120   27.7380   43.8450 C   0  0  0  0  0  0  0  0  0  0  0  0
   34.4170   29.0500   43.9990 C   0  0  0  0  0  0  0  0  0  0  0  0
   33.4050   30.3250   44.6500 Cl  0  0  0  0  0  0  0  0  0  0  0  0
   35.7110   29.3830   43.6090 C   0  0  0  0  0  0  0  0  0  0  0  0
   38.0560   25.1240   40.5850 C   0  0  0  0  0  0  0  0  0  0  0  0
   38.8160   24.2970   41.4290 C   0  0  0  0  0  0  0  0  0  0  0  0
   38.6560   24.4610   42.8320 C   0  0  0  0  0  0  0  0  0  0  0  0
   37.7810   25.4070   43.2510 N   0  0  0  0  0  0  0  0  0  0  0  0
   37.0600   26.1930   42.3990 C   0  0  0  0  0  0  0  0  0  0  0  0
   37.2190   26.0290   41.0940 N   0  0  0  0  0  0  0  0  0  0  0  0
   35.5760   30.3930   46.4960 F   0  0  0  0  0  0  0  0  0  0  0  0
   36.8750   30.6560   46.1360 C   0  0  0  0  0  0  0  0  0  0  0  0
   37.2370   30.8880   44.8010 C   0  0  0  0  0  0  0  0  0  0  0  0
   38.5510   31.1720   44.5210 C   0  0  0  0  0  0  0  0  0  0  0  0
   39.5040   31.2270   45.5290 C   0  0  0  0  0  0  0  0  0  0  0  0
   39.1250   30.9900   46.8650 C   0  0  0  0  0  0  0  0  0  0  0  0
   37.7880   30.7020   47.1680 C   0  0  0  0  0  0  0  0  0  0  0  0
   38.2070   33.0850   48.8480 Cl  0  0  0  0  0  0  0  0  0  0  0  0
   37.5590   31.5610   49.3680 C   0  0  0  0  0  0  0  0  0  0  0  0
   37.3740   30.4560   48.5450 C   0  0  0  0  0  0  0  0  0  0  0  0
   36.8500   29.2920   49.0670 C   0  0  0  0  0  0  0  0  0  0  0  0
   36.5170   29.2570   50.4070 C   0  0  0  0  0  0  0  0  0  0  0  0
   36.6880   30.3350   51.2470 C   0  0  0  0  0  0  0  0  0  0  0  0
   37.2210   31.5130   50.7150 C   0  0  0  0  0  0  0  0  0  0  0  0
   35.3284   31.4298   44.0769 H   0  0  0  0  0  0  0  0  0  0  0  0
   36.5886   31.1521   42.8140 H   0  0  0  0  0  0  0  0  0  0  0  0
   34.5622   25.7682   43.1994 H   0  0  0  0  0  0  0  0  0  0  0  0
   32.9966   27.4349   44.1402 H   0  0  0  0  0  0  0  0  0  0  0  0
   38.1522   25.0241   39.4938 H   0  0  0  0  0  0  0  0  0  0  0  0
   39.5103   23.5490   41.0187 H   0  0  0  0  0  0  0  0  0  0  0  0
   39.2195   23.8451   43.5483 H   0  0  0  0  0  0  0  0  0  0  0  0
   38.8537   31.3591   43.4801 H   0  0  0  0  0  0  0  0  0  0  0  0
   40.5521   31.4550   45.2852 H   0  0  0  0  0  0  0  0  0  0  0  0
   39.8763   31.0310   47.6674 H   0  0  0  0  0  0  0  0  0  0  0  0
   36.7002   28.4088   48.4287 H   0  0  0  0  0  0  0  0  0  0  0  0
   36.0972   28.3284   50.8210 H   0  0  0  0  0  0  0  0  0  0  0  0
   36.4121   30.2708   52.3099 H   0  0  0  0  0  0  0  0  0  0  0  0
   37.3714   32.3936   51.3568 H   0  0  0  0  0  0  0  0  0  0  0  0
  1 18  1  0
  2  3  1  0
  3  9  2  0
  4  3  1  0
  4  5  2  0
  5  6  1  0
  6  7  2  0
  7  8  1  0
  9  1  1  0
  9  7  1  0
 10 15  2  0
 10 11  1  0
 11 12  2  0
 12 13  1  0
 14  4  1  0
 14 13  2  0
 15 14  1  0
 17 16  1  0
 17 22  2  0
 18 17  1  0
 19 18  2  0
 19 20  1  0
 20 21  2  0
 21 22  1  0
 22 25  1  0
 23 24  1  0
 24 29  2  0
 25 26  2  0
 25 24  1  0
 26 27  1  0
 27 28  2  0
 29 28  1  0
  1 30  1  0
  1 31  1  0
  5 32  1  0
  6 33  1  0
 10 34  1  0
 11 35  1  0
 12 36  1  0
 19 37  1  0
 20 38  1  0
 21 39  1  0
 26 40  1  0
 27 41  1  0
 28 42  1  0
 29 43  1  0
M  ISO  8  30   8  31   8  32  14  33  14  34  14  35  14  36  14  37  14
M  ISO  6  38  14  39  14  40  14  41  14  42  14  43  14
M  END
>  <minimizedAffinity>  (1) 
-5.69811726

>  <minimizedRMSD>  (1) 
5.64512348

$$$$
