
     RDKit          3D

 45 49  0  0  0  0  0  0  0  0999 V2000
   37.3100   30.6460   46.8200 C   0  0  0  0  0  0  0  0  0  0  0  0
   37.8550   30.6140   45.5720 N   0  0  0  0  0  0  0  0  0  0  0  0
   38.8280   31.4930   45.2360 C   0  0  0  0  0  0  0  0  0  0  0  0
   39.3000   32.4200   46.0850 N   0  0  0  0  0  0  0  0  0  0  0  0
   38.7960   32.4910   47.3240 C   0  0  0  0  0  0  0  0  0  0  0  0
   39.2880   33.4420   48.1820 C   0  0  0  0  0  0  0  0  0  0  0  0
   38.7770   33.5290   49.4730 C   0  0  0  0  0  0  0  0  0  0  0  0
   37.7620   32.6430   49.8840 C   0  0  0  0  0  0  0  0  0  0  0  0
   37.3270   31.7220   48.9620 C   0  0  0  0  0  0  0  0  0  0  0  0
   37.8040   31.6070   47.6940 C   0  0  0  0  0  0  0  0  0  0  0  0
   38.2250   29.2330   50.4790 Cl  0  0  0  0  0  0  0  0  0  0  0  0
   36.5550   29.7220   50.2750 C   0  0  0  0  0  0  0  0  0  0  0  0
   36.2810   30.8980   49.5610 C   0  0  0  0  0  0  0  0  0  0  0  0
   34.9690   31.3520   49.3590 C   0  0  0  0  0  0  0  0  0  0  0  0
   33.9220   30.5910   49.8940 C   0  0  0  0  0  0  0  0  0  0  0  0
   34.1920   29.4170   50.6050 C   0  0  0  0  0  0  0  0  0  0  0  0
   35.4880   28.9830   50.7980 C   0  0  0  0  0  0  0  0  0  0  0  0
   36.0390   29.5790   47.4110 S   0  0  0  0  0  0  0  0  0  0  0  0
   33.5380   28.1230   47.8600 F   0  0  0  0  0  0  0  0  0  0  0  0
   33.4880   28.8440   46.7040 C   0  0  0  0  0  0  0  0  0  0  0  0
   32.3590   28.8360   45.8980 C   0  0  0  0  0  0  0  0  0  0  0  0
   32.3500   29.5870   44.7260 C   0  0  0  0  0  0  0  0  0  0  0  0
   33.4630   30.3510   44.3510 C   0  0  0  0  0  0  0  0  0  0  0  0
   34.5520   30.3130   45.2010 C   0  0  0  0  0  0  0  0  0  0  0  0
   34.5940   29.5810   46.3640 C   0  0  0  0  0  0  0  0  0  0  0  0
   31.2210   26.7600   45.8110 C   0  0  0  0  0  0  0  0  0  0  0  0
   31.2600   28.0430   46.3300 C   0  0  0  0  0  0  0  0  0  0  0  0
   30.2290   28.4020   47.2050 C   0  0  0  0  0  0  0  0  0  0  0  0
   29.2610   27.4930   47.4960 N   0  0  0  0  0  0  0  0  0  0  0  0
   29.2720   26.2650   46.9640 C   0  0  0  0  0  0  0  0  0  0  0  0
   30.2360   25.8810   46.1260 N   0  0  0  0  0  0  0  0  0  0  0  0
   39.2511   31.4458   44.2217 H   0  0  0  0  0  0  0  0  0  0  0  0
   40.0801   34.1301   47.8517 H   0  0  0  0  0  0  0  0  0  0  0  0
   39.1641   34.2867   50.1701 H   0  0  0  0  0  0  0  0  0  0  0  0
   37.3368   32.6865   50.8976 H   0  0  0  0  0  0  0  0  0  0  0  0
   34.7689   32.2768   48.7980 H   0  0  0  0  0  0  0  0  0  0  0  0
   32.8812   30.9185   49.7543 H   0  0  0  0  0  0  0  0  0  0  0  0
   33.3579   28.8301   51.0170 H   0  0  0  0  0  0  0  0  0  0  0  0
   35.6816   28.0584   51.3616 H   0  0  0  0  0  0  0  0  0  0  0  0
   31.4561   29.5806   44.0850 H   0  0  0  0  0  0  0  0  0  0  0  0
   33.4697   30.9498   43.4283 H   0  0  0  0  0  0  0  0  0  0  0  0
   35.4392   30.9044   44.9306 H   0  0  0  0  0  0  0  0  0  0  0  0
   32.0155   26.4422   45.1197 H   0  0  0  0  0  0  0  0  0  0  0  0
   30.2020   29.4068   47.6517 H   0  0  0  0  0  0  0  0  0  0  0  0
   28.4699   25.5582   47.2230 H   0  0  0  0  0  0  0  0  0  0  0  0
  1 18  1  0
  1 10  1  0
  2  1  2  0
  3  2  1  0
  3  4  2  0
  4  5  1  0
  5 10  2  0
  5  6  1  0
  6  7  2  0
  7  8  1  0
  9 13  1  0
  9  8  2  0
 10  9  1  0
 12 11  1  0
 12 17  2  0
 13 12  1  0
 14 13  2  0
 14 15  1  0
 15 16  2  0
 16 17  1  0
 20 19  1  0
 21 27  1  0
 21 20  2  0
 22 21  1  0
 23 22  2  0
 23 24  1  0
 24 25  2  0
 25 20  1  0
 25 18  1  0
 26 31  2  0
 26 27  1  0
 27 28  2  0
 28 29  1  0
 30 29  2  0
 31 30  1  0
  3 32  1  0
  6 33  1  0
  7 34  1  0
  8 35  1  0
 14 36  1  0
 15 37  1  0
 16 38  1  0
 17 39  1  0
 22 40  1  0
 23 41  1  0
 24 42  1  0
 26 43  1  0
 28 44  1  0
 30 45  1  0
M  ISO  8  32  14  33  14  34  14  35  14  36  14  37  14  38  14  39  14
M  ISO  6  40  14  41  14  42  14  43  14  44  14  45  14
M  END
>  <minimizedAffinity>  (1) 
-5.74129677

>  <minimizedRMSD>  (1) 
1.29329515

$$$$
