
     RDKit          3D

 39 41  0  0  0  0  0  0  0  0999 V2000
   35.0380   29.6250   50.5100 C   0  0  0  0  0  0  0  0  0  0  0  0
   36.2420   30.0860   49.8780 C   0  0  0  0  0  0  0  0  0  0  0  0
   36.3870   29.9080   48.5010 C   0  0  0  0  0  0  0  0  0  0  0  0
   35.3670   29.3030   47.8310 N   0  0  0  0  0  0  0  0  0  0  0  0
   34.2580   28.8790   48.4260 C   0  0  0  0  0  0  0  0  0  0  0  0
   34.0810   29.0320   49.7530 N   0  0  0  0  0  0  0  0  0  0  0  0
   32.8730   30.6380   46.4040 Cl  0  0  0  0  0  0  0  0  0  0  0  0
   32.5060   28.9470   46.6500 C   0  0  0  0  0  0  0  0  0  0  0  0
   33.2130   28.2300   47.6230 C   0  0  0  0  0  0  0  0  0  0  0  0
   32.9610   26.8710   47.8680 C   0  0  0  0  0  0  0  0  0  0  0  0
   31.9580   26.2790   47.0820 C   0  0  0  0  0  0  0  0  0  0  0  0
   31.2610   26.9600   46.1320 C   0  0  0  0  0  0  0  0  0  0  0  0
   30.0420   26.1150   45.2220 Cl  0  0  0  0  0  0  0  0  0  0  0  0
   31.5430   28.3110   45.9200 C   0  0  0  0  0  0  0  0  0  0  0  0
   30.7940   29.0760   44.8880 C   0  0  0  0  0  0  0  0  0  0  0  0
   29.7540   28.2990   44.3700 F   0  0  0  0  0  0  0  0  0  0  0  0
   31.6040   29.5270   43.8810 F   0  0  0  0  0  0  0  0  0  0  0  0
   30.1920   30.1640   45.4640 F   0  0  0  0  0  0  0  0  0  0  0  0
   37.2670   30.7300   50.7480 C   0  0  0  0  0  0  0  0  0  0  0  0
   38.5470   30.4440   50.2770 F   0  0  0  0  0  0  0  0  0  0  0  0
   37.0760   32.0980   50.6640 F   0  0  0  0  0  0  0  0  0  0  0  0
   37.1720   30.3640   52.0670 F   0  0  0  0  0  0  0  0  0  0  0  0
   37.6150   30.3640   47.8750 C   0  0  0  0  0  0  0  0  0  0  0  0
   39.3330   32.6950   47.0100 Cl  0  0  0  0  0  0  0  0  0  0  0  0
   38.1040   31.9570   45.9860 C   0  0  0  0  0  0  0  0  0  0  0  0
   37.4010   30.8890   46.5060 C   0  0  0  0  0  0  0  0  0  0  0  0
   36.4650   30.3500   45.6450 C   0  0  0  0  0  0  0  0  0  0  0  0
   36.1930   30.7830   44.3560 C   0  0  0  0  0  0  0  0  0  0  0  0
   36.9240   31.8550   43.8820 C   0  0  0  0  0  0  0  0  0  0  0  0
   37.8740   32.4360   44.6990 C   0  0  0  0  0  0  0  0  0  0  0  0
   34.8935   29.7509   51.5932 H   0  0  0  0  0  0  0  0  0  0  0  0
   33.5156   26.3034   48.6298 H   0  0  0  0  0  0  0  0  0  0  0  0
   31.7254   25.2158   47.2419 H   0  0  0  0  0  0  0  0  0  0  0  0
   38.0493   31.1629   48.4939 H   0  0  0  0  0  0  0  0  0  0  0  0
   38.2880   29.4975   47.7960 H   0  0  0  0  0  0  0  0  0  0  0  0
   35.8798   29.4962   46.0172 H   0  0  0  0  0  0  0  0  0  0  0  0
   35.4271   30.2932   43.7368 H   0  0  0  0  0  0  0  0  0  0  0  0
   36.7516   32.2411   42.8665 H   0  0  0  0  0  0  0  0  0  0  0  0
   38.4581   33.2907   44.3271 H   0  0  0  0  0  0  0  0  0  0  0  0
  2  1  2  0
  2 19  1  0
  3  2  1  0
  4  5  1  0
  4  3  2  0
  5  6  2  0
  6  1  1  0
  7  8  1  0
  8  9  2  0
  9 10  1  0
  9  5  1  0
 11 10  2  0
 12 11  1  0
 13 12  1  0
 14 12  2  0
 14  8  1  0
 15 18  1  0
 15 14  1  0
 16 15  1  0
 17 15  1  0
 19 22  1  0
 20 19  1  0
 21 19  1  0
 23  3  1  0
 25 26  2  0
 25 24  1  0
 26 23  1  0
 27 26  1  0
 28 27  2  0
 29 28  1  0
 29 30  2  0
 30 25  1  0
  1 31  1  0
 10 32  1  0
 11 33  1  0
 23 34  1  0
 23 35  1  0
 27 36  1  0
 28 37  1  0
 29 38  1  0
 30 39  1  0
M  ISO  8  31  14  32  14  33  14  34   8  35   8  36  14  37  14  38  14
M  ISO  1  39  14
M  END
>  <minimizedAffinity>  (1) 
-6.63144827

>  <minimizedRMSD>  (1) 
0.593919933

$$$$
