
     RDKit          3D

 37 38  0  0  0  0  0  0  0  0999 V2000
   37.0020   29.2450   50.6380 C   0  0  0  0  0  0  0  0  0  0  0  0
   37.7440   30.5360   50.8490 C   0  0  0  0  0  0  0  0  0  0  0  0
   38.1230   31.2110   49.6120 C   0  0  0  0  0  0  0  0  0  0  0  0
   38.5410   32.5360   49.6010 C   0  0  0  0  0  0  0  0  0  0  0  0
   38.8900   33.1100   48.3620 C   0  0  0  0  0  0  0  0  0  0  0  0
   38.7950   32.3300   47.2360 N   0  0  0  0  0  0  0  0  0  0  0  0
   38.3780   31.0300   47.3040 C   0  0  0  0  0  0  0  0  0  0  0  0
   38.0480   30.4950   48.5020 N   0  0  0  0  0  0  0  0  0  0  0  0
   35.7100   29.4100   51.1390 O   0  0  0  0  0  0  0  0  0  0  0  0
   34.7260   30.6310   49.0610 O   0  0  0  0  0  0  0  0  0  0  0  0
   34.5590   29.3680   49.8940 P   0  0  2  0  0  0  0  0  0  0  0  0
   32.9980   29.4330   50.5130 O   0  0  0  0  0  0  0  0  0  0  0  0
   34.7270   27.9920   48.9690 O   0  0  0  0  0  0  0  0  0  0  0  0
   31.4430   28.9450   46.8600 N   0  0  0  0  0  0  0  0  0  0  0  0
   31.2640   27.8350   47.7780 C   0  0  0  0  0  0  0  0  0  0  0  0
   32.3060   27.9270   48.8770 C   0  0  0  0  0  0  0  0  0  0  0  0
   33.6150   27.5730   48.3000 C   0  0  0  0  0  0  0  0  0  0  0  0
   33.7150   28.0330   46.8770 C   0  0  0  0  0  0  0  0  0  0  0  0
   32.8470   29.2620   46.6800 C   0  0  0  0  0  0  0  0  0  0  0  0
   36.9599   29.0085   49.5646 H   0  0  0  0  0  0  0  0  0  0  0  0
   37.5125   28.4190   51.1548 H   0  0  0  0  0  0  0  0  0  0  0  0
   37.1011   31.2136   51.4300 H   0  0  0  0  0  0  0  0  0  0  0  0
   38.6776   30.2848   51.3737 H   0  0  0  0  0  0  0  0  0  0  0  0
   38.5979   33.1197   50.5316 H   0  0  0  0  0  0  0  0  0  0  0  0
   39.2293   34.1545   48.2988 H   0  0  0  0  0  0  0  0  0  0  0  0
   38.3111   30.4222   46.3896 H   0  0  0  0  0  0  0  0  0  0  0  0
   33.0350   29.4315   51.5023 H   0  0  0  0  0  0  0  0  0  0  0  0
   31.0365   28.6941   45.9475 H   0  0  0  0  0  0  0  0  0  0  0  0
   30.2576   27.8809   48.2197 H   0  0  0  0  0  0  0  0  0  0  0  0
   31.3789   26.8842   47.2369 H   0  0  0  0  0  0  0  0  0  0  0  0
   32.3390   28.9522   49.2742 H   0  0  0  0  0  0  0  0  0  0  0  0
   32.0541   27.2401   49.6984 H   0  0  0  0  0  0  0  0  0  0  0  0
   33.6228   26.4764   48.3864 H   0  0  0  0  0  0  0  0  0  0  0  0
   34.7610   28.2819   46.6449 H   0  0  0  0  0  0  0  0  0  0  0  0
   33.3715   27.2306   46.2075 H   0  0  0  0  0  0  0  0  0  0  0  0
   32.9999   29.6502   45.6622 H   0  0  0  0  0  0  0  0  0  0  0  0
   33.1335   30.0153   47.4286 H   0  0  0  0  0  0  0  0  0  0  0  0
  1  2  1  0
  1  9  1  0
  3  2  1  0
  4  3  2  0
  5  4  1  0
  6  7  1  0
  6  5  2  0
  7  8  2  0
  8  3  1  0
 11 10  2  0
 11 12  1  0
 11  9  1  0
 13 11  1  0
 14 15  1  0
 15 16  1  0
 17 16  1  0
 17 13  1  0
 18 17  1  0
 19 14  1  0
 19 18  1  0
  1 20  1  0
  1 21  1  0
  2 22  1  0
  2 23  1  0
  4 24  1  0
  5 25  1  0
  7 26  1  0
 12 27  1  0
 14 28  1  0
 15 29  1  0
 15 30  1  0
 16 31  1  0
 16 32  1  0
 17 33  1  0
 18 34  1  0
 18 35  1  0
 19 36  1  0
 19 37  1  0
M  ISO  8  20   8  21   8  22   8  23   8  24  14  25  14  26  14  27   3
M  ISO  8  28   5  29  13  30  13  31  13  32  13  33  13  34  13  35  13
M  ISO  2  36  13  37  13
M  END
>  <minimizedAffinity>  (1) 
-5.32105541

>  <minimizedRMSD>  (1) 
0.847117603

$$$$
