
     RDKit          3D

 45 47  0  0  1  0  0  0  0  0999 V2000
   36.3860   30.7160   48.9090 C   0  0  2  0  0  0  0  0  0  0  0  0
   37.3270   31.4500   49.8180 C   0  0  0  0  0  0  0  0  0  0  0  0
   38.0360   30.5360   50.7970 C   0  0  0  0  0  0  0  0  0  0  0  0
   36.9980   29.7900   51.6400 C   0  0  0  0  0  0  0  0  0  0  0  0
   35.8040   29.3230   50.8600 C   0  0  0  0  0  0  0  0  0  0  0  0
   36.1500   29.3150   49.3610 C   0  0  1  0  0  0  0  0  0  0  0  0
   33.8810   28.3490   48.7740 C   0  0  0  0  0  0  0  0  0  0  0  0
   33.0940   28.8090   49.6520 O   0  0  0  0  0  0  0  0  0  0  0  0
   35.2710   28.5480   48.5580 N   0  0  0  0  0  0  0  0  0  0  0  0
   33.0230   27.5210   47.9810 N   0  0  0  0  0  0  0  0  0  0  0  0
   33.3580   27.3720   46.5780 C   0  0  0  0  0  0  0  0  0  0  0  0
   33.9580   25.9860   46.3730 C   0  0  0  0  0  0  0  0  0  0  0  0
   33.3240   25.0410   47.3950 C   0  0  0  0  0  0  0  0  0  0  0  0
   31.8650   25.4500   47.5600 C   0  0  0  0  0  0  0  0  0  0  0  0
   31.8130   26.7610   48.3320 C   0  0  0  0  0  0  0  0  0  0  0  0
   36.9020   30.6870   47.5150 C   0  0  0  0  0  0  0  0  0  0  0  0
   38.2910   30.8960   47.3750 C   0  0  0  0  0  0  0  0  0  0  0  0
   38.7910   30.8700   46.0680 C   0  0  0  0  0  0  0  0  0  0  0  0
   37.9250   30.6460   45.0230 N   0  0  0  0  0  0  0  0  0  0  0  0
   36.5830   30.4480   45.2180 C   0  0  0  0  0  0  0  0  0  0  0  0
   36.0870   30.4710   46.4720 N   0  0  0  0  0  0  0  0  0  0  0  0
   35.4332   31.2647   48.9423 H   0  0  0  0  0  0  0  0  0  0  0  0
   38.0833   31.9593   49.2027 H   0  0  0  0  0  0  0  0  0  0  0  0
   36.7293   32.1623   50.4056 H   0  0  0  0  0  0  0  0  0  0  0  0
   38.6492   29.8100   50.2431 H   0  0  0  0  0  0  0  0  0  0  0  0
   38.6828   31.1342   51.4556 H   0  0  0  0  0  0  0  0  0  0  0  0
   37.4835   28.9112   52.0895 H   0  0  0  0  0  0  0  0  0  0  0  0
   36.6289   30.5003   52.3945 H   0  0  0  0  0  0  0  0  0  0  0  0
   35.5303   28.3067   51.1798 H   0  0  0  0  0  0  0  0  0  0  0  0
   34.9569   30.0013   51.0399 H   0  0  0  0  0  0  0  0  0  0  0  0
   37.0907   28.7630   49.2184 H   0  0  0  0  0  0  0  0  0  0  0  0
   35.6814   28.0874   47.7332 H   0  0  0  0  0  0  0  0  0  0  0  0
   32.4504   27.4785   45.9657 H   0  0  0  0  0  0  0  0  0  0  0  0
   34.0799   28.1454   46.2768 H   0  0  0  0  0  0  0  0  0  0  0  0
   33.7423   25.6328   45.3538 H   0  0  0  0  0  0  0  0  0  0  0  0
   35.0493   26.0181   46.5076 H   0  0  0  0  0  0  0  0  0  0  0  0
   33.3840   24.0037   47.0340 H   0  0  0  0  0  0  0  0  0  0  0  0
   33.8531   25.1026   48.3574 H   0  0  0  0  0  0  0  0  0  0  0  0
   31.4034   25.5839   46.5706 H   0  0  0  0  0  0  0  0  0  0  0  0
   31.3153   24.6697   48.1067 H   0  0  0  0  0  0  0  0  0  0  0  0
   31.7941   26.5610   49.4135 H   0  0  0  0  0  0  0  0  0  0  0  0
   30.9068   27.3294   48.0756 H   0  0  0  0  0  0  0  0  0  0  0  0
   38.9433   31.0694   48.2436 H   0  0  0  0  0  0  0  0  0  0  0  0
   39.8632   31.0268   45.8788 H   0  0  0  0  0  0  0  0  0  0  0  0
   35.9170   30.2721   44.3604 H   0  0  0  0  0  0  0  0  0  0  0  0
  1  6  1  0
  1  2  1  0
  2  3  1  0
  3  4  1  0
  5  4  1  0
  6  5  1  0
  7  8  2  0
  9  7  1  0
  9  6  1  0
 10 15  1  0
 10  7  1  0
 11 10  1  0
 12 11  1  0
 12 13  1  0
 13 14  1  0
 14 15  1  0
 16  1  1  0
 17 16  2  0
 18 17  1  0
 19 20  1  0
 19 18  2  0
 20 21  2  0
 21 16  1  0
  1 22  1  6
  2 23  1  0
  2 24  1  0
  3 25  1  0
  3 26  1  0
  4 27  1  0
  4 28  1  0
  5 29  1  0
  5 30  1  0
  6 31  1  1
  9 32  1  0
 11 33  1  0
 11 34  1  0
 12 35  1  0
 12 36  1  0
 13 37  1  0
 13 38  1  0
 14 39  1  0
 14 40  1  0
 15 41  1  0
 15 42  1  0
 17 43  1  0
 18 44  1  0
 20 45  1  0
M  ISO  8  22  13  23  13  24  13  25  13  26  13  27  13  28  13  29  13
M  ISO  8  30  13  31  13  33  13  34  13  35  13  36  13  37  13  38  13
M  ISO  7  39  13  40  13  41  13  42  13  43  14  44  14  45  14
M  END
>  <minimizedAffinity>  (1) 
-6.25788164

>  <minimizedRMSD>  (1) 
0.841634929

$$$$
