
     RDKit          3D

 33 35  0  0  1  0  0  0  0  0999 V2000
   37.3010   30.6780   50.9430 C   0  0  1  0  0  0  0  0  0  0  0  0
   36.4430   29.5230   51.0540 C   0  0  2  0  0  0  0  0  0  0  0  0
   37.9100   29.3420   51.3930 C   0  0  0  0  0  0  0  0  0  0  0  0
   37.8490   31.1330   49.6060 C   0  0  0  0  0  0  0  0  0  0  0  0
   38.3710   32.4260   49.5520 C   0  0  0  0  0  0  0  0  0  0  0  0
   38.8390   32.8210   48.3130 C   0  0  0  0  0  0  0  0  0  0  0  0
   38.7750   31.9710   47.2390 N   0  0  0  0  0  0  0  0  0  0  0  0
   38.2610   30.7260   47.3350 C   0  0  0  0  0  0  0  0  0  0  0  0
   37.7880   30.2920   48.5390 N   0  0  0  0  0  0  0  0  0  0  0  0
   36.0250   28.8630   49.8860 O   0  0  0  0  0  0  0  0  0  0  0  0
   33.3360   29.5770   47.2620 N   0  0  0  0  0  0  0  0  0  0  0  0
   34.3200   30.3250   48.0110 C   0  0  0  0  0  0  0  0  0  0  0  0
   34.0830   30.0990   49.4800 C   0  0  0  0  0  0  0  0  0  0  0  0
   34.6560   28.7240   49.8260 C   0  0  0  0  0  0  0  0  0  0  0  0
   34.3210   27.8270   48.6520 C   0  0  0  0  0  0  0  0  0  0  0  0
   33.0630   28.3580   47.9630 C   0  0  0  0  0  0  0  0  0  0  0  0
   37.1786   31.7018   51.3261 H   0  0  0  0  0  0  0  0  0  0  0  0
   35.4860   29.3631   51.5722 H   0  0  0  0  0  0  0  0  0  0  0  0
   38.5734   28.7755   50.7230 H   0  0  0  0  0  0  0  0  0  0  0  0
   38.4915   28.9794   52.2534 H   0  0  0  0  0  0  0  0  0  0  0  0
   38.4074   33.0840   50.4328 H   0  0  0  0  0  0  0  0  0  0  0  0
   39.2668   33.8266   48.1873 H   0  0  0  0  0  0  0  0  0  0  0  0
   38.2241   30.0696   46.4531 H   0  0  0  0  0  0  0  0  0  0  0  0
   33.7022   29.3636   46.3232 H   0  0  0  0  0  0  0  0  0  0  0  0
   35.3297   29.9813   47.7419 H   0  0  0  0  0  0  0  0  0  0  0  0
   34.2330   31.3965   47.7780 H   0  0  0  0  0  0  0  0  0  0  0  0
   34.5915   30.8776   50.0676 H   0  0  0  0  0  0  0  0  0  0  0  0
   33.0089   30.1435   49.7129 H   0  0  0  0  0  0  0  0  0  0  0  0
   34.2630   28.3213   50.7712 H   0  0  0  0  0  0  0  0  0  0  0  0
   35.1587   27.8242   47.9391 H   0  0  0  0  0  0  0  0  0  0  0  0
   34.1455   26.8006   49.0066 H   0  0  0  0  0  0  0  0  0  0  0  0
   32.2893   28.5454   48.7221 H   0  0  0  0  0  0  0  0  0  0  0  0
   32.7179   27.6068   47.2373 H   0  0  0  0  0  0  0  0  0  0  0  0
  1  2  1  0
  1  3  1  0
  2  3  1  0
  4  1  1  0
  5  4  2  0
  6  5  1  0
  7  8  1  0
  7  6  2  0
  8  9  2  0
  9  4  1  0
 10  2  1  0
 11 16  1  0
 11 12  1  0
 12 13  1  0
 13 14  1  0
 14 10  1  0
 15 14  1  0
 16 15  1  0
  1 17  1  1
  2 18  1  1
  3 19  1  0
  3 20  1  0
  5 21  1  0
  6 22  1  0
  8 23  1  0
 11 24  1  0
 12 25  1  0
 12 26  1  0
 13 27  1  0
 13 28  1  0
 14 29  1  0
 15 30  1  0
 15 31  1  0
 16 32  1  0
 16 33  1  0
M  ISO  8  17  13  18  13  19  13  20  13  21  14  22  14  23  14  24   5
M  ISO  8  25  13  26  13  27  13  28  13  29  13  30  13  31  13  32  13
M  ISO  1  33  13
M  END
>  <minimizedAffinity>  (1) 
-5.29230642

>  <minimizedRMSD>  (1) 
0.953415334

$$$$
