
     RDKit          3D

 45 48  0  0  1  0  0  0  0  0999 V2000
   33.8060   28.8270   47.2460 C   0  0  2  0  0  0  0  0  0  0  0  0
   34.4870   28.1000   48.3970 C   0  0  2  0  0  0  0  0  0  0  0  0
   33.5300   27.9740   49.3670 O   0  0  0  0  0  0  0  0  0  0  0  0
   32.2890   28.0090   48.8230 C   0  0  0  0  0  0  0  0  0  0  0  0
   32.4280   28.1580   47.3220 C   0  0  1  0  0  0  0  0  0  0  0  0
   35.5420   30.3920   48.9760 C   0  0  1  0  0  0  0  0  0  0  0  0
   35.6280   28.9560   48.8450 C   0  0  1  0  0  0  0  0  0  0  0  0
   35.6940   29.5150   50.2280 C   0  0  0  0  0  0  0  0  0  0  0  0
   36.7570   31.2770   48.7540 C   0  0  0  0  0  0  0  0  0  0  0  0
   37.0210   32.2540   49.7150 C   0  0  0  0  0  0  0  0  0  0  0  0
   38.1280   33.0500   49.4450 C   0  0  0  0  0  0  0  0  0  0  0  0
   38.8780   32.8640   48.3140 N   0  0  0  0  0  0  0  0  0  0  0  0
   38.5810   31.9010   47.4090 C   0  0  0  0  0  0  0  0  0  0  0  0
   37.5040   31.0950   47.6350 N   0  0  0  0  0  0  0  0  0  0  0  0
   34.4060   28.6040   46.0220 O   0  0  0  0  0  0  0  0  0  0  0  0
   31.4650   28.9150   46.7220 O   0  0  0  0  0  0  0  0  0  0  0  0
   28.4300   30.0370   46.0620 N   0  0  0  0  0  0  0  0  0  0  0  0
   28.9210   29.2000   47.1230 C   0  0  0  0  0  0  0  0  0  0  0  0
   29.4040   27.8950   46.4820 C   0  0  0  0  0  0  0  0  0  0  0  0
   30.6990   28.3080   45.7660 C   0  0  0  0  0  0  0  0  0  0  0  0
   30.2440   29.2370   44.6680 C   0  0  0  0  0  0  0  0  0  0  0  0
   29.5350   30.4480   45.2310 C   0  0  0  0  0  0  0  0  0  0  0  0
   33.8231   29.9238   47.3281 H   0  0  0  0  0  0  0  0  0  0  0  0
   34.8841   27.1080   48.1357 H   0  0  0  0  0  0  0  0  0  0  0  0
   31.7551   27.0758   49.0557 H   0  0  0  0  0  0  0  0  0  0  0  0
   31.7197   28.8551   49.2353 H   0  0  0  0  0  0  0  0  0  0  0  0
   32.3204   27.2035   46.7859 H   0  0  0  0  0  0  0  0  0  0  0  0
   34.8343   31.1178   48.5489 H   0  0  0  0  0  0  0  0  0  0  0  0
   36.2746   28.2949   48.2493 H   0  0  0  0  0  0  0  0  0  0  0  0
   36.6394   29.5036   50.7902 H   0  0  0  0  0  0  0  0  0  0  0  0
   35.1452   29.3723   51.1706 H   0  0  0  0  0  0  0  0  0  0  0  0
   36.4020   32.3838   50.6150 H   0  0  0  0  0  0  0  0  0  0  0  0
   38.4070   33.8443   50.1529 H   0  0  0  0  0  0  0  0  0  0  0  0
   39.1976   31.7711   46.5074 H   0  0  0  0  0  0  0  0  0  0  0  0
   35.3246   28.2626   46.1621 H   0  0  0  0  0  0  0  0  0  0  0  0
   27.7498   29.5108   45.4950 H   0  0  0  0  0  0  0  0  0  0  0  0
   29.7547   29.6972   47.6404 H   0  0  0  0  0  0  0  0  0  0  0  0
   28.1314   29.0033   47.8632 H   0  0  0  0  0  0  0  0  0  0  0  0
   29.6040   27.1309   47.2476 H   0  0  0  0  0  0  0  0  0  0  0  0
   28.6616   27.4493   45.8036 H   0  0  0  0  0  0  0  0  0  0  0  0
   31.2961   27.4996   45.3189 H   0  0  0  0  0  0  0  0  0  0  0  0
   29.5550   28.6955   44.0031 H   0  0  0  0  0  0  0  0  0  0  0  0
   31.1304   29.5801   44.1143 H   0  0  0  0  0  0  0  0  0  0  0  0
   30.2431   31.0363   45.8330 H   0  0  0  0  0  0  0  0  0  0  0  0
   29.1514   31.0579   44.3998 H   0  0  0  0  0  0  0  0  0  0  0  0
  1  5  1  0
  1  2  1  0
  2  7  1  0
  2  3  1  0
  4  3  1  0
  5  4  1  0
  6  8  1  0
  7  6  1  0
  7  8  1  0
  9  6  1  0
  9 10  2  0
 11 10  1  0
 12 11  2  0
 13 14  2  0
 13 12  1  0
 14  9  1  0
 15  1  1  0
 16  5  1  0
 17 18  1  0
 19 18  1  0
 20 19  1  0
 20 16  1  0
 21 22  1  0
 21 20  1  0
 22 17  1  0
  1 23  1  1
  2 24  1  6
  4 25  1  0
  4 26  1  0
  5 27  1  6
  6 28  1  1
  7 29  1  6
  8 30  1  0
  8 31  1  0
 10 32  1  0
 11 33  1  0
 13 34  1  0
 15 35  1  0
 17 36  1  0
 18 37  1  0
 18 38  1  0
 19 39  1  0
 19 40  1  0
 20 41  1  0
 21 42  1  0
 21 43  1  0
 22 44  1  0
 22 45  1  0
M  ISO  8  23  13  24  13  25  13  26  13  27  13  28  13  29  13  30  13
M  ISO  8  31  13  32  14  33  14  34  14  35   3  36   5  37  13  38  13
M  ISO  7  39  13  40  13  41  13  42  13  43  13  44  13  45  13
M  END
>  <minimizedAffinity>  (1) 
-5.11220312

>  <minimizedRMSD>  (1) 
1.47413731

$$$$
