
     RDKit          3D

 34 35  0  0  0  0  0  0  0  0999 V2000
   35.1080   29.3510   50.5220 O   0  0  0  0  0  0  0  0  0  0  0  0
   35.0830   28.4040   49.5270 C   0  0  0  0  0  0  0  0  0  0  0  0
   34.1220   28.7400   48.4370 C   0  0  0  0  0  0  0  0  0  0  0  0
   34.4210   29.8150   47.6190 C   0  0  0  0  0  0  0  0  0  0  0  0
   33.5250   30.1400   46.5910 C   0  0  0  0  0  0  0  0  0  0  0  0
   32.4100   29.3650   46.4710 N   0  0  0  0  0  0  0  0  0  0  0  0
   32.1370   28.3260   47.2760 C   0  0  0  0  0  0  0  0  0  0  0  0
   33.0030   28.0240   48.2570 N   0  0  0  0  0  0  0  0  0  0  0  0
   37.6200   29.1280   49.8020 O   0  0  0  0  0  0  0  0  0  0  0  0
   36.6600   30.0000   50.5690 P   0  0  2  0  0  0  0  0  0  0  0  0
   37.2110   30.0590   52.1900 O   0  0  0  0  0  0  0  0  0  0  0  0
   36.7180   31.5530   49.8870 O   0  0  0  0  0  0  0  0  0  0  0  0
   39.5370   33.4690   47.6000 N   0  0  0  0  0  0  0  0  0  0  0  0
   38.9880   32.2660   47.0540 C   0  0  0  0  0  0  0  0  0  0  0  0
   37.6480   31.8950   47.6760 C   0  0  0  0  0  0  0  0  0  0  0  0
   37.9110   31.6000   49.1320 C   0  0  0  0  0  0  0  0  0  0  0  0
   38.8450   32.5980   49.7460 C   0  0  0  0  0  0  0  0  0  0  0  0
   38.8790   33.8410   48.8570 C   0  0  0  0  0  0  0  0  0  0  0  0
   36.0910   28.3213   49.0944 H   0  0  0  0  0  0  0  0  0  0  0  0
   34.7552   27.4560   49.9786 H   0  0  0  0  0  0  0  0  0  0  0  0
   35.3396   30.4005   47.7716 H   0  0  0  0  0  0  0  0  0  0  0  0
   33.7135   30.9837   45.9108 H   0  0  0  0  0  0  0  0  0  0  0  0
   31.2212   27.7332   47.1348 H   0  0  0  0  0  0  0  0  0  0  0  0
   36.4390   29.9763   52.8042 H   0  0  0  0  0  0  0  0  0  0  0  0
   39.4130   34.2320   46.9193 H   0  0  0  0  0  0  0  0  0  0  0  0
   38.8475   32.4031   45.9717 H   0  0  0  0  0  0  0  0  0  0  0  0
   39.6927   31.4503   47.2731 H   0  0  0  0  0  0  0  0  0  0  0  0
   36.9413   32.7326   47.5808 H   0  0  0  0  0  0  0  0  0  0  0  0
   37.2052   31.0243   47.1702 H   0  0  0  0  0  0  0  0  0  0  0  0
   38.3849   30.6076   49.1570 H   0  0  0  0  0  0  0  0  0  0  0  0
   38.4893   32.8700   50.7507 H   0  0  0  0  0  0  0  0  0  0  0  0
   39.8537   32.1676   49.8311 H   0  0  0  0  0  0  0  0  0  0  0  0
   39.4454   34.6423   49.3541 H   0  0  0  0  0  0  0  0  0  0  0  0
   37.8596   34.2074   48.6659 H   0  0  0  0  0  0  0  0  0  0  0  0
  1 10  1  0
  2  1  1  0
  3  2  1  0
  4  3  2  0
  5  4  1  0
  6  5  2  0
  6  7  1  0
  7  8  2  0
  8  3  1  0
 10  9  2  0
 10 11  1  0
 12 10  1  0
 13 18  1  0
 14 13  1  0
 14 15  1  0
 15 16  1  0
 16 17  1  0
 16 12  1  0
 18 17  1  0
  2 19  1  0
  2 20  1  0
  4 21  1  0
  5 22  1  0
  7 23  1  0
 11 24  1  0
 13 25  1  0
 14 26  1  0
 14 27  1  0
 15 28  1  0
 15 29  1  0
 16 30  1  0
 17 31  1  0
 17 32  1  0
 18 33  1  0
 18 34  1  0
M  ISO  8  19   8  20   8  21  14  22  14  23  14  24   3  25   5  26  13
M  ISO  8  27  13  28  13  29  13  30  13  31  13  32  13  33  13  34  13
M  END
>  <minimizedAffinity>  (1) 
-4.70286655

>  <minimizedRMSD>  (1) 
2.44947672

$$$$
