
     RDKit          3D

 46 49  0  0  0  0  0  0  0  0999 V2000
   36.8870   31.2770   48.5910 C   0  0  0  0  0  0  0  0  0  0  0  0
   37.0830   32.1440   49.6560 C   0  0  0  0  0  0  0  0  0  0  0  0
   38.0000   33.1920   49.5070 C   0  0  0  0  0  0  0  0  0  0  0  0
   38.6920   33.3530   48.3170 C   0  0  0  0  0  0  0  0  0  0  0  0
   38.4660   32.4650   47.2770 C   0  0  0  0  0  0  0  0  0  0  0  0
   37.5860   31.4810   47.4580 N   0  0  0  0  0  0  0  0  0  0  0  0
   35.2050   28.3330   50.2010 C   0  0  0  0  0  0  0  0  0  0  0  0
   36.1750   29.3340   49.9250 C   0  0  0  0  0  0  0  0  0  0  0  0
   35.9210   30.2540   48.8950 C   0  0  0  0  0  0  0  0  0  0  0  0
   34.7480   30.1240   48.2210 N   0  0  0  0  0  0  0  0  0  0  0  0
   33.8440   29.1480   48.5190 C   0  0  0  0  0  0  0  0  0  0  0  0
   34.0690   28.2680   49.4910 N   0  0  0  0  0  0  0  0  0  0  0  0
   32.7000   29.2240   47.6690 N   0  0  0  0  0  0  0  0  0  0  0  0
   37.4120   29.3610   50.7350 C   0  0  0  0  0  0  0  0  0  0  0  0
   38.5050   29.8060   49.9820 F   0  0  0  0  0  0  0  0  0  0  0  0
   37.2620   30.1980   51.7820 F   0  0  0  0  0  0  0  0  0  0  0  0
   37.7660   28.1080   51.2280 F   0  0  0  0  0  0  0  0  0  0  0  0
   39.1480   32.5750   45.9970 C   0  0  0  0  0  0  0  0  0  0  0  0
   40.5060   32.6720   45.8050 C   0  0  0  0  0  0  0  0  0  0  0  0
   40.7860   32.7590   44.4520 C   0  0  0  0  0  0  0  0  0  0  0  0
   39.5650   32.7110   43.8600 N   0  0  0  0  0  0  0  0  0  0  0  0
   38.6110   32.6030   44.7750 N   0  0  0  0  0  0  0  0  0  0  0  0
   37.8330   30.4510   41.4050 N   0  0  0  0  0  0  0  0  0  0  0  0
   39.0990   30.3400   42.0780 C   0  0  0  0  0  0  0  0  0  0  0  0
   39.9590   31.5400   41.7430 C   0  0  0  0  0  0  0  0  0  0  0  0
   39.3760   32.7720   42.4180 C   0  0  0  0  0  0  0  0  0  0  0  0
   37.9150   32.8080   42.0450 C   0  0  0  0  0  0  0  0  0  0  0  0
   37.5800   31.8160   40.9610 C   0  0  0  0  0  0  0  0  0  0  0  0
   36.5299   32.0112   50.5975 H   0  0  0  0  0  0  0  0  0  0  0  0
   38.1719   33.8910   50.3388 H   0  0  0  0  0  0  0  0  0  0  0  0
   39.4123   34.1760   48.1992 H   0  0  0  0  0  0  0  0  0  0  0  0
   35.3875   27.6044   51.0047 H   0  0  0  0  0  0  0  0  0  0  0  0
   31.9311   28.5475   47.7786 H   0  0  0  0  0  0  0  0  0  0  0  0
   32.6433   29.9553   46.9459 H   0  0  0  0  0  0  0  0  0  0  0  0
   41.2584   32.6794   46.6074 H   0  0  0  0  0  0  0  0  0  0  0  0
   41.7701   32.8467   43.9684 H   0  0  0  0  0  0  0  0  0  0  0  0
   37.8344   29.8275   40.5851 H   0  0  0  0  0  0  0  0  0  0  0  0
   38.9336   30.3000   43.1648 H   0  0  0  0  0  0  0  0  0  0  0  0
   39.6084   29.4222   41.7491 H   0  0  0  0  0  0  0  0  0  0  0  0
   40.9840   31.3716   42.1050 H   0  0  0  0  0  0  0  0  0  0  0  0
   39.9805   31.6888   40.6533 H   0  0  0  0  0  0  0  0  0  0  0  0
   39.8814   33.6908   42.0856 H   0  0  0  0  0  0  0  0  0  0  0  0
   37.3157   32.5738   42.9372 H   0  0  0  0  0  0  0  0  0  0  0  0
   37.6884   33.8146   41.6636 H   0  0  0  0  0  0  0  0  0  0  0  0
   38.1991   32.0270   40.0766 H   0  0  0  0  0  0  0  0  0  0  0  0
   36.5120   31.9123   40.7160 H   0  0  0  0  0  0  0  0  0  0  0  0
  1  9  1  0
  1  2  2  0
  3  2  1  0
  4  3  2  0
  5  6  2  0
  5  4  1  0
  6  1  1  0
  8  7  2  0
  8 14  1  0
  9  8  1  0
 10 11  1  0
 10  9  2  0
 11 12  2  0
 12  7  1  0
 13 11  1  0
 14 17  1  0
 14 16  1  0
 15 14  1  0
 18  5  1  0
 19 18  1  0
 20 19  2  0
 21 20  1  0
 21 22  1  0
 22 18  2  0
 23 24  1  0
 25 24  1  0
 25 26  1  0
 26 21  1  0
 27 26  1  0
 28 23  1  0
 28 27  1  0
  2 29  1  0
  3 30  1  0
  4 31  1  0
  7 32  1  0
 13 33  1  0
 13 34  1  0
 19 35  1  0
 20 36  1  0
 23 37  1  0
 24 38  1  0
 24 39  1  0
 25 40  1  0
 25 41  1  0
 26 42  1  0
 27 43  1  0
 27 44  1  0
 28 45  1  0
 28 46  1  0
M  ISO  8  29  14  30  14  31  14  32  14  35  14  36  14  37   5  38  13
M  ISO  8  39  13  40  13  41  13  42  13  43  13  44  13  45  13  46  13
M  END
>  <minimizedAffinity>  (1) 
-7.36029005

>  <minimizedRMSD>  (1) 
1.92211056

$$$$
