
     RDKit          3D

 41 43  0  0  1  0  0  0  0  0999 V2000
   36.8190   30.2090   48.5680 N   0  0  0  0  0  0  0  0  0  0  0  0
   37.7150   29.7990   49.6260 C   0  0  0  0  0  0  0  0  0  0  0  0
   38.3310   30.8440   50.4480 C   0  0  0  0  0  0  0  0  0  0  0  0
   38.4800   32.1900   49.8760 C   0  0  0  0  0  0  0  0  0  0  0  0
   37.5550   32.4910   48.7370 C   0  0  0  0  0  0  0  0  0  0  0  0
   37.4530   31.2700   47.8220 C   0  0  1  0  0  0  0  0  0  0  0  0
   35.5220   29.6440   48.3150 C   0  0  0  0  0  0  0  0  0  0  0  0
   34.6970   30.0360   47.2640 C   0  0  0  0  0  0  0  0  0  0  0  0
   33.4580   29.3950   47.1470 C   0  0  0  0  0  0  0  0  0  0  0  0
   33.1370   28.4420   48.0520 N   0  0  0  0  0  0  0  0  0  0  0  0
   33.9720   28.0940   49.0610 C   0  0  0  0  0  0  0  0  0  0  0  0
   35.1680   28.7040   49.1840 N   0  0  0  0  0  0  0  0  0  0  0  0
   38.7780   30.9380   47.5010 O   0  0  0  0  0  0  0  0  0  0  0  0
   39.4440   33.3950   45.0060 N   0  0  0  0  0  0  0  0  0  0  0  0
   38.3940   32.5990   44.4610 C   0  0  0  0  0  0  0  0  0  0  0  0
   37.8570   31.5400   45.3780 C   0  0  0  0  0  0  0  0  0  0  0  0
   38.9290   30.8230   46.1300 C   0  0  0  0  0  0  0  0  0  0  0  0
   40.3320   31.2380   45.7780 C   0  0  0  0  0  0  0  0  0  0  0  0
   40.5350   32.6980   45.5910 C   0  0  0  0  0  0  0  0  0  0  0  0
   37.1454   29.1442   50.3019 H   0  0  0  0  0  0  0  0  0  0  0  0
   38.5597   29.3262   49.1035 H   0  0  0  0  0  0  0  0  0  0  0  0
   37.7206   30.9435   51.3577 H   0  0  0  0  0  0  0  0  0  0  0  0
   39.3648   30.4975   50.5936 H   0  0  0  0  0  0  0  0  0  0  0  0
   38.2921   32.9241   50.6734 H   0  0  0  0  0  0  0  0  0  0  0  0
   39.5010   32.2443   49.4703 H   0  0  0  0  0  0  0  0  0  0  0  0
   36.5579   32.7377   49.1306 H   0  0  0  0  0  0  0  0  0  0  0  0
   37.9466   33.3447   48.1644 H   0  0  0  0  0  0  0  0  0  0  0  0
   36.8645   31.4481   46.9099 H   0  0  0  0  0  0  0  0  0  0  0  0
   35.0063   30.8176   46.5545 H   0  0  0  0  0  0  0  0  0  0  0  0
   32.7615   29.6601   46.3379 H   0  0  0  0  0  0  0  0  0  0  0  0
   33.6745   27.3151   49.7785 H   0  0  0  0  0  0  0  0  0  0  0  0
   39.0333   33.9983   45.7328 H   0  0  0  0  0  0  0  0  0  0  0  0
   37.5641   33.2684   44.1905 H   0  0  0  0  0  0  0  0  0  0  0  0
   38.8269   32.0683   43.6003 H   0  0  0  0  0  0  0  0  0  0  0  0
   37.1779   32.0142   46.1018 H   0  0  0  0  0  0  0  0  0  0  0  0
   37.3379   30.7968   44.7550 H   0  0  0  0  0  0  0  0  0  0  0  0
   38.7979   29.7773   45.8148 H   0  0  0  0  0  0  0  0  0  0  0  0
   40.9983   30.9032   46.5867 H   0  0  0  0  0  0  0  0  0  0  0  0
   40.5512   30.7737   44.8052 H   0  0  0  0  0  0  0  0  0  0  0  0
   41.4135   32.8383   44.9440 H   0  0  0  0  0  0  0  0  0  0  0  0
   40.6573   33.1186   46.6000 H   0  0  0  0  0  0  0  0  0  0  0  0
  1  2  1  0
  2  3  1  0
  4  3  1  0
  5  4  1  0
  6  1  1  0
  6  5  1  0
  7  1  1  0
  7 12  1  0
  8  7  2  0
  9  8  1  0
  9 10  2  0
 10 11  1  0
 11 12  2  0
 13  6  1  0
 14 19  1  0
 15 14  1  0
 15 16  1  0
 16 17  1  0
 17 13  1  0
 18 17  1  0
 19 18  1  0
  2 20  1  0
  2 21  1  0
  3 22  1  0
  3 23  1  0
  4 24  1  0
  4 25  1  0
  5 26  1  0
  5 27  1  0
  6 28  1  6
  8 29  1  0
  9 30  1  0
 11 31  1  0
 14 32  1  0
 15 33  1  0
 15 34  1  0
 16 35  1  0
 16 36  1  0
 17 37  1  0
 18 38  1  0
 18 39  1  0
 19 40  1  0
 19 41  1  0
M  ISO  8  20  13  21  13  22  13  23  13  24  13  25  13  26  13  27  13
M  ISO  8  28  13  29  14  30  14  31  14  32   5  33  13  34  13  35  13
M  ISO  6  36  13  37  13  38  13  39  13  40  13  41  13
M  END
>  <minimizedAffinity>  (1) 
-5.90187693

>  <minimizedRMSD>  (1) 
1.76859522

$$$$
