
     RDKit          3D

 47 50  0  0  1  0  0  0  0  0999 V2000
   35.3700   30.2530   46.6860 C   0  0  0  0  0  0  0  0  0  0  0  0
   36.6540   30.8650   46.6970 C   0  0  0  0  0  0  0  0  0  0  0  0
   37.3830   30.8290   45.5030 C   0  0  0  0  0  0  0  0  0  0  0  0
   36.8340   30.2230   44.4140 N   0  0  0  0  0  0  0  0  0  0  0  0
   35.6170   29.6560   44.4460 C   0  0  0  0  0  0  0  0  0  0  0  0
   34.8850   29.6720   45.5870 N   0  0  0  0  0  0  0  0  0  0  0  0
   37.0350   31.4300   47.9340 N   0  0  0  0  0  0  0  0  0  0  0  0
   38.0810   32.3620   48.4280 C   0  0  0  0  0  0  0  0  0  0  0  0
   38.6500   31.5860   49.5970 C   0  0  0  0  0  0  0  0  0  0  0  0
   37.4450   30.8520   50.1660 C   0  0  0  0  0  0  0  0  0  0  0  0
   36.3430   31.1410   49.1730 C   0  0  2  0  0  0  0  0  0  0  0  0
   35.3620   30.1030   49.0950 N   0  0  0  0  0  0  0  0  0  0  0  0
   34.2360   30.5070   49.9470 C   0  0  0  0  0  0  0  0  0  0  0  0
   33.4180   29.3010   50.3590 C   0  0  0  0  0  0  0  0  0  0  0  0
   33.4590   28.3030   49.2380 C   0  0  0  0  0  0  0  0  0  0  0  0
   34.8820   27.7490   49.1580 C   0  0  0  0  0  0  0  0  0  0  0  0
   35.8160   28.8400   49.6370 C   0  0  0  0  0  0  0  0  0  0  0  0
   38.6880   31.4180   45.3950 C   0  0  0  0  0  0  0  0  0  0  0  0
   38.8020   32.7030   44.9600 C   0  0  0  0  0  0  0  0  0  0  0  0
   40.0070   33.3630   44.8210 C   0  0  0  0  0  0  0  0  0  0  0  0
   41.1450   32.6400   45.1550 C   0  0  0  0  0  0  0  0  0  0  0  0
   41.1160   31.3260   45.6040 C   0  0  0  0  0  0  0  0  0  0  0  0
   39.8460   30.7490   45.7100 C   0  0  0  0  0  0  0  0  0  0  0  0
   34.7635   30.2588   47.6037 H   0  0  0  0  0  0  0  0  0  0  0  0
   35.2124   29.1765   43.5425 H   0  0  0  0  0  0  0  0  0  0  0  0
   38.8461   32.5505   47.6604 H   0  0  0  0  0  0  0  0  0  0  0  0
   37.7026   33.3600   48.6941 H   0  0  0  0  0  0  0  0  0  0  0  0
   39.4182   30.8750   49.2587 H   0  0  0  0  0  0  0  0  0  0  0  0
   39.1429   32.2329   50.3376 H   0  0  0  0  0  0  0  0  0  0  0  0
   37.6397   29.7713   50.2314 H   0  0  0  0  0  0  0  0  0  0  0  0
   37.1930   31.1762   51.1865 H   0  0  0  0  0  0  0  0  0  0  0  0
   35.7213   31.9968   49.4748 H   0  0  0  0  0  0  0  0  0  0  0  0
   34.6248   31.0046   50.8477 H   0  0  0  0  0  0  0  0  0  0  0  0
   33.5917   31.1947   49.3796 H   0  0  0  0  0  0  0  0  0  0  0  0
   33.8438   28.8556   51.2702 H   0  0  0  0  0  0  0  0  0  0  0  0
   32.3794   29.5983   50.5661 H   0  0  0  0  0  0  0  0  0  0  0  0
   32.7500   27.4861   49.4380 H   0  0  0  0  0  0  0  0  0  0  0  0
   33.1783   28.7805   48.2876 H   0  0  0  0  0  0  0  0  0  0  0  0
   34.9776   26.8620   49.8014 H   0  0  0  0  0  0  0  0  0  0  0  0
   35.1269   27.4503   48.1280 H   0  0  0  0  0  0  0  0  0  0  0  0
   36.8385   28.6327   49.2886 H   0  0  0  0  0  0  0  0  0  0  0  0
   35.8171   28.8799   50.7363 H   0  0  0  0  0  0  0  0  0  0  0  0
   37.8808   33.2471   44.7044 H   0  0  0  0  0  0  0  0  0  0  0  0
   40.0625   34.4026   44.4658 H   0  0  0  0  0  0  0  0  0  0  0  0
   42.1225   33.1351   45.0586 H   0  0  0  0  0  0  0  0  0  0  0  0
   42.0327   30.7745   45.8598 H   0  0  0  0  0  0  0  0  0  0  0  0
   39.7709   29.7097   46.0625 H   0  0  0  0  0  0  0  0  0  0  0  0
  1  2  2  0
  2  7  1  0
  3  2  1  0
  4  5  1  0
  4  3  2  0
  5  6  2  0
  6  1  1  0
  7  8  1  0
  7 11  1  0
  8  9  1  0
  9 10  1  0
 11 10  1  0
 12 11  1  0
 12 17  1  0
 12 13  1  0
 13 14  1  0
 15 14  1  0
 16 15  1  0
 16 17  1  0
 18  3  1  0
 18 23  1  0
 19 18  2  0
 20 19  1  0
 20 21  2  0
 21 22  1  0
 22 23  2  0
  1 24  1  0
  5 25  1  0
  8 26  1  0
  8 27  1  0
  9 28  1  0
  9 29  1  0
 10 30  1  0
 10 31  1  0
 11 32  1  1
 13 33  1  0
 13 34  1  0
 14 35  1  0
 14 36  1  0
 15 37  1  0
 15 38  1  0
 16 39  1  0
 16 40  1  0
 17 41  1  0
 17 42  1  0
 19 43  1  0
 20 44  1  0
 21 45  1  0
 22 46  1  0
 23 47  1  0
M  ISO  8  24  14  25  14  26  13  27  13  28  13  29  13  30  13  31  13
M  ISO  8  32  13  33  13  34  13  35  13  36  13  37  13  38  13  39  13
M  ISO  8  40  13  41  13  42  13  43  14  44  14  45  14  46  14  47  14
M  END
>  <minimizedAffinity>  (1) 
-6.05559683

>  <minimizedRMSD>  (1) 
1.30477321

$$$$
