
     RDKit          3D

 52 56  0  0  1  0  0  0  0  0999 V2000
   37.6460   30.8130   50.6460 C   0  0  0  0  0  0  0  0  0  0  0  0
   38.3860   31.4690   49.6930 C   0  0  0  0  0  0  0  0  0  0  0  0
   38.0590   31.4330   48.3290 C   0  0  0  0  0  0  0  0  0  0  0  0
   37.0020   30.7450   47.9910 N   0  0  0  0  0  0  0  0  0  0  0  0
   36.2700   30.0960   48.9520 C   0  0  0  0  0  0  0  0  0  0  0  0
   36.5830   30.1280   50.2420 N   0  0  0  0  0  0  0  0  0  0  0  0
   35.0780   29.3320   48.5930 C   0  0  0  0  0  0  0  0  0  0  0  0
   34.5430   28.1840   49.1120 C   0  0  0  0  0  0  0  0  0  0  0  0
   33.4140   27.6530   48.6230 C   0  0  0  0  0  0  0  0  0  0  0  0
   32.8320   28.3700   47.5420 C   0  0  0  0  0  0  0  0  0  0  0  0
   33.9710   29.7820   47.3020 S   0  0  0  0  0  0  0  0  0  0  0  0
   31.6800   28.1580   46.7780 N   0  0  0  0  0  0  0  0  0  0  0  0
   31.1740   26.8290   46.4050 C   0  0  0  0  0  0  0  0  0  0  0  0
   29.7340   26.6770   46.8550 C   0  0  0  0  0  0  0  0  0  0  0  0
   28.8820   27.8260   46.3470 C   0  0  0  0  0  0  0  0  0  0  0  0
   29.4860   29.1200   46.8640 C   0  0  0  0  0  0  0  0  0  0  0  0
   30.8700   29.2510   46.2700 C   0  0  0  0  0  0  0  0  0  0  0  0
   38.9950   32.0920   47.4530 C   0  0  1  0  0  0  0  0  0  0  0  0
   39.0980   31.5380   46.0470 C   0  0  2  0  0  0  0  0  0  0  0  0
   40.5660   31.1870   45.8200 C   0  0  0  0  0  0  0  0  0  0  0  0
   39.8580   32.2440   45.0450 C   0  0  1  0  0  0  0  0  0  0  0  0
   39.8100   31.9850   43.5990 C   0  0  0  0  0  0  0  0  0  0  0  0
   39.1140   32.8700   42.8150 C   0  0  0  0  0  0  0  0  0  0  0  0
   39.1070   32.6210   41.4640 C   0  0  0  0  0  0  0  0  0  0  0  0
   39.7490   31.5550   40.8860 C   0  0  0  0  0  0  0  0  0  0  0  0
   40.4450   30.6790   41.7120 C   0  0  0  0  0  0  0  0  0  0  0  0
   40.4610   30.9090   43.0380 N   0  0  0  0  0  0  0  0  0  0  0  0
   39.2410   33.3650   47.5390 O   0  0  0  0  0  0  0  0  0  0  0  0
   37.9250   30.8538   51.7093 H   0  0  0  0  0  0  0  0  0  0  0  0
   39.2681   32.0442   50.0109 H   0  0  0  0  0  0  0  0  0  0  0  0
   35.0518   27.6855   49.9503 H   0  0  0  0  0  0  0  0  0  0  0  0
   32.9707   26.7312   49.0277 H   0  0  0  0  0  0  0  0  0  0  0  0
   31.2285   26.7119   45.3126 H   0  0  0  0  0  0  0  0  0  0  0  0
   31.7882   26.0586   46.8940 H   0  0  0  0  0  0  0  0  0  0  0  0
   29.3325   25.7307   46.4633 H   0  0  0  0  0  0  0  0  0  0  0  0
   29.7079   26.6804   47.9547 H   0  0  0  0  0  0  0  0  0  0  0  0
   28.8768   27.8294   45.2470 H   0  0  0  0  0  0  0  0  0  0  0  0
   27.8456   27.7194   46.6999 H   0  0  0  0  0  0  0  0  0  0  0  0
   28.8638   29.9732   46.5559 H   0  0  0  0  0  0  0  0  0  0  0  0
   29.5379   29.1089   47.9627 H   0  0  0  0  0  0  0  0  0  0  0  0
   31.3137   30.2133   46.5652 H   0  0  0  0  0  0  0  0  0  0  0  0
   30.8204   29.2124   45.1718 H   0  0  0  0  0  0  0  0  0  0  0  0
   39.8699   31.7422   48.0206 H   0  0  0  0  0  0  0  0  0  0  0  0
   38.0927   31.0955   45.9870 H   0  0  0  0  0  0  0  0  0  0  0  0
   41.3263   31.4580   46.5673 H   0  0  0  0  0  0  0  0  0  0  0  0
   41.1380   30.2775   45.5839 H   0  0  0  0  0  0  0  0  0  0  0  0
   39.9244   33.3268   44.8630 H   0  0  0  0  0  0  0  0  0  0  0  0
   38.5884   33.7348   43.2462 H   0  0  0  0  0  0  0  0  0  0  0  0
   38.5569   33.3138   40.8102 H   0  0  0  0  0  0  0  0  0  0  0  0
   39.7141   31.3974   39.7979 H   0  0  0  0  0  0  0  0  0  0  0  0
   40.9738   29.8123   41.2885 H   0  0  0  0  0  0  0  0  0  0  0  0
   39.2918   33.6276   48.4922 H   0  0  0  0  0  0  0  0  0  0  0  0
  2  1  2  0
  3  2  1  0
  4  3  2  0
  4  5  1  0
  5  6  2  0
  6  1  1  0
  7  5  1  0
  7  8  2  0
  9  8  1  0
 10  9  2  0
 11 10  1  0
 11  7  1  0
 12 10  1  0
 13 12  1  0
 13 14  1  0
 15 14  1  0
 15 16  1  0
 17 12  1  0
 17 16  1  0
 18 28  1  0
 18  3  1  0
 19 18  1  0
 20 19  1  0
 21 20  1  0
 21 19  1  0
 22 21  1  0
 23 22  2  0
 24 23  1  0
 25 24  2  0
 25 26  1  0
 26 27  2  0
 27 22  1  0
  1 29  1  0
  2 30  1  0
  8 31  1  0
  9 32  1  0
 13 33  1  0
 13 34  1  0
 14 35  1  0
 14 36  1  0
 15 37  1  0
 15 38  1  0
 16 39  1  0
 16 40  1  0
 17 41  1  0
 17 42  1  0
 18 43  1  1
 19 44  1  6
 20 45  1  0
 20 46  1  0
 21 47  1  6
 23 48  1  0
 24 49  1  0
 25 50  1  0
 26 51  1  0
 28 52  1  0
M  ISO  8  29  14  30  14  31  14  32  14  33  13  34  13  35  13  36  13
M  ISO  8  37  13  38  13  39  13  40  13  41  13  42  13  43   8  44  13
M  ISO  8  45  13  46  13  47  13  48  14  49  14  50  14  51  14  52   3
M  END
>  <minimizedAffinity>  (1) 
-6.88418913

>  <minimizedRMSD>  (1) 
0.588913143

$$$$
