
     RDKit          3D

 37 39  0  0  1  0  0  0  0  0999 V2000
   36.4720   29.5530   50.9570 C   0  0  0  0  0  0  0  0  0  0  0  0
   37.3840   30.5890   50.6680 C   0  0  0  0  0  0  0  0  0  0  0  0
   37.4720   31.0460   49.3380 C   0  0  0  0  0  0  0  0  0  0  0  0
   36.6730   30.4570   48.4370 N   0  0  0  0  0  0  0  0  0  0  0  0
   35.8070   29.4690   48.7250 C   0  0  0  0  0  0  0  0  0  0  0  0
   35.7080   29.0190   49.9870 N   0  0  0  0  0  0  0  0  0  0  0  0
   38.3740   32.0740   49.0110 N   0  0  0  0  0  0  0  0  0  0  0  0
   38.7550   33.1770   49.9060 C   0  0  0  0  0  0  0  0  0  0  0  0
   39.5840   34.1000   49.0600 C   0  0  0  0  0  0  0  0  0  0  0  0
   39.1570   33.7210   47.6710 C   0  0  0  0  0  0  0  0  0  0  0  0
   39.0700   32.2220   47.7930 C   0  0  2  0  0  0  0  0  0  0  0  0
   38.6810   31.5300   46.6430 N   0  0  0  0  0  0  0  0  0  0  0  0
   37.8370   32.1530   45.6940 C   0  0  0  0  0  0  0  0  0  0  0  0
   38.6160   32.4500   44.3980 C   0  0  0  0  0  0  0  0  0  0  0  0
   38.9060   31.1130   43.7530 C   0  0  0  0  0  0  0  0  0  0  0  0
   39.6470   30.2750   44.7580 C   0  0  0  0  0  0  0  0  0  0  0  0
   39.8920   31.0120   46.0210 C   0  0  0  0  0  0  0  0  0  0  0  0
   36.3843   29.1773   51.9871 H   0  0  0  0  0  0  0  0  0  0  0  0
   38.0095   31.0283   51.4591 H   0  0  0  0  0  0  0  0  0  0  0  0
   35.1832   29.0318   47.9315 H   0  0  0  0  0  0  0  0  0  0  0  0
   37.8607   33.6961   50.2812 H   0  0  0  0  0  0  0  0  0  0  0  0
   39.3069   32.8197   50.7879 H   0  0  0  0  0  0  0  0  0  0  0  0
   39.3536   35.1539   49.2751 H   0  0  0  0  0  0  0  0  0  0  0  0
   40.6664   34.0058   49.2318 H   0  0  0  0  0  0  0  0  0  0  0  0
   39.9048   34.0222   46.9227 H   0  0  0  0  0  0  0  0  0  0  0  0
   38.2262   34.2025   47.3367 H   0  0  0  0  0  0  0  0  0  0  0  0
   40.0314   31.6903   47.8475 H   0  0  0  0  0  0  0  0  0  0  0  0
   36.9934   31.4852   45.4652 H   0  0  0  0  0  0  0  0  0  0  0  0
   37.4657   33.0999   46.1129 H   0  0  0  0  0  0  0  0  0  0  0  0
   38.0090   33.0728   43.7244 H   0  0  0  0  0  0  0  0  0  0  0  0
   39.5457   32.9983   44.6104 H   0  0  0  0  0  0  0  0  0  0  0  0
   37.9637   30.6187   43.4742 H   0  0  0  0  0  0  0  0  0  0  0  0
   39.5077   31.2459   42.8418 H   0  0  0  0  0  0  0  0  0  0  0  0
   39.0515   29.3772   44.9802 H   0  0  0  0  0  0  0  0  0  0  0  0
   40.6223   30.0077   44.3252 H   0  0  0  0  0  0  0  0  0  0  0  0
   40.3823   30.3299   46.7312 H   0  0  0  0  0  0  0  0  0  0  0  0
   40.5196   31.8796   45.7694 H   0  0  0  0  0  0  0  0  0  0  0  0
  2  1  2  0
  3  2  1  0
  4  5  1  0
  4  3  2  0
  5  6  2  0
  6  1  1  0
  7  3  1  0
  7  8  1  0
  9  8  1  0
 10 11  1  0
 10  9  1  0
 11  7  1  0
 12 11  1  0
 13 12  1  0
 14 13  1  0
 15 14  1  0
 15 16  1  0
 16 17  1  0
 17 12  1  0
  1 18  1  0
  2 19  1  0
  5 20  1  0
  8 21  1  0
  8 22  1  0
  9 23  1  0
  9 24  1  0
 10 25  1  0
 10 26  1  0
 11 27  1  1
 13 28  1  0
 13 29  1  0
 14 30  1  0
 14 31  1  0
 15 32  1  0
 15 33  1  0
 16 34  1  0
 16 35  1  0
 17 36  1  0
 17 37  1  0
M  ISO  8  18  14  19  14  20  14  21  13  22  13  23  13  24  13  25  13
M  ISO  8  26  13  27  13  28  13  29  13  30  13  31  13  32  13  33  13
M  ISO  4  34  13  35  13  36  13  37  13
M  END
>  <minimizedAffinity>  (1) 
-5.19558525

>  <minimizedRMSD>  (1) 
2.34970474

$$$$
