
     RDKit          3D

 48 52  0  0  0  0  0  0  0  0999 V2000
   38.7740   31.5850   47.0870 C   0  0  0  0  0  0  0  0  0  0  0  0
   39.4270   32.7970   47.0470 C   0  0  0  0  0  0  0  0  0  0  0  0
   40.2390   33.1770   46.0010 C   0  0  0  0  0  0  0  0  0  0  0  0
   40.4200   32.3280   44.9360 C   0  0  0  0  0  0  0  0  0  0  0  0
   39.7530   31.1270   45.0080 C   0  0  0  0  0  0  0  0  0  0  0  0
   38.9730   30.7710   46.0230 N   0  0  0  0  0  0  0  0  0  0  0  0
   39.1010   29.0770   43.7190 C   0  0  0  0  0  0  0  0  0  0  0  0
   39.8990   30.1800   43.9170 C   0  0  0  0  0  0  0  0  0  0  0  0
   40.8910   30.3180   42.9550 C   0  0  0  0  0  0  0  0  0  0  0  0
   41.0930   29.4580   41.8860 C   0  0  0  0  0  0  0  0  0  0  0  0
   41.9770   29.4280   40.8790 N   0  0  0  0  0  0  0  0  0  0  0  0
   41.6920   28.3400   40.1290 C   0  0  0  0  0  0  0  0  0  0  0  0
   40.6200   27.6620   40.6480 C   0  0  0  0  0  0  0  0  0  0  0  0
   40.2570   28.3840   41.7600 C   0  0  0  0  0  0  0  0  0  0  0  0
   39.2490   28.1860   42.6810 C   0  0  0  0  0  0  0  0  0  0  0  0
   37.3440   30.9090   50.5030 C   0  0  0  0  0  0  0  0  0  0  0  0
   38.2550   31.3380   49.5340 C   0  0  0  0  0  0  0  0  0  0  0  0
   37.9140   31.1800   48.1930 C   0  0  0  0  0  0  0  0  0  0  0  0
   36.7250   30.6200   47.9200 N   0  0  0  0  0  0  0  0  0  0  0  0
   35.8390   30.2020   48.8600 C   0  0  0  0  0  0  0  0  0  0  0  0
   36.1790   30.3600   50.1460 N   0  0  0  0  0  0  0  0  0  0  0  0
   34.6040   29.6210   48.4410 N   0  0  0  0  0  0  0  0  0  0  0  0
   34.0540   30.0800   47.1760 C   0  0  0  0  0  0  0  0  0  0  0  0
   32.8450   29.2700   46.7720 C   0  0  0  0  0  0  0  0  0  0  0  0
   33.1100   27.8380   47.2220 C   0  0  0  0  0  0  0  0  0  0  0  0
   32.8880   27.8630   48.7280 C   0  0  0  0  0  0  0  0  0  0  0  0
   34.0220   28.6170   49.3410 C   0  0  0  0  0  0  0  0  0  0  0  0
   39.2942   33.4931   47.8883 H   0  0  0  0  0  0  0  0  0  0  0  0
   40.7403   34.1560   46.0184 H   0  0  0  0  0  0  0  0  0  0  0  0
   41.0581   32.5920   44.0797 H   0  0  0  0  0  0  0  0  0  0  0  0
   38.2897   28.8951   44.4392 H   0  0  0  0  0  0  0  0  0  0  0  0
   41.5706   31.1779   43.0484 H   0  0  0  0  0  0  0  0  0  0  0  0
   42.7324   30.1071   40.7084 H   0  0  0  0  0  0  0  0  0  0  0  0
   42.2445   28.0401   39.2263 H   0  0  0  0  0  0  0  0  0  0  0  0
   40.1537   26.7441   40.2608 H   0  0  0  0  0  0  0  0  0  0  0  0
   38.5709   27.3250   42.5865 H   0  0  0  0  0  0  0  0  0  0  0  0
   37.5881   31.0242   51.5694 H   0  0  0  0  0  0  0  0  0  0  0  0
   39.2160   31.7886   49.8228 H   0  0  0  0  0  0  0  0  0  0  0  0
   33.7602   31.1353   47.2758 H   0  0  0  0  0  0  0  0  0  0  0  0
   34.8249   29.9600   46.4005 H   0  0  0  0  0  0  0  0  0  0  0  0
   31.9433   29.6621   47.2652 H   0  0  0  0  0  0  0  0  0  0  0  0
   32.6788   29.3201   45.6858 H   0  0  0  0  0  0  0  0  0  0  0  0
   32.4091   27.1424   46.7374 H   0  0  0  0  0  0  0  0  0  0  0  0
   34.1207   27.4963   46.9543 H   0  0  0  0  0  0  0  0  0  0  0  0
   31.9365   28.3646   48.9583 H   0  0  0  0  0  0  0  0  0  0  0  0
   32.8445   26.8394   49.1283 H   0  0  0  0  0  0  0  0  0  0  0  0
   34.8082   27.9000   49.6197 H   0  0  0  0  0  0  0  0  0  0  0  0
   33.6230   29.1537   50.2144 H   0  0  0  0  0  0  0  0  0  0  0  0
  1 18  1  0
  2  1  2  0
  3  2  1  0
  4  5  1  0
  4  3  2  0
  5  6  2  0
  6  1  1  0
  7  8  2  0
  8  5  1  0
  9  8  1  0
 10  9  2  0
 11 10  1  0
 12 13  2  0
 12 11  1  0
 13 14  1  0
 14 10  1  0
 14 15  2  0
 15  7  1  0
 17 16  2  0
 18 17  1  0
 19 18  2  0
 19 20  1  0
 20 21  2  0
 21 16  1  0
 22 20  1  0
 22 27  1  0
 23 22  1  0
 24 23  1  0
 24 25  1  0
 25 26  1  0
 26 27  1  0
  2 28  1  0
  3 29  1  0
  4 30  1  0
  7 31  1  0
  9 32  1  0
 11 33  1  0
 12 34  1  0
 13 35  1  0
 15 36  1  0
 16 37  1  0
 17 38  1  0
 23 39  1  0
 23 40  1  0
 24 41  1  0
 24 42  1  0
 25 43  1  0
 25 44  1  0
 26 45  1  0
 26 46  1  0
 27 47  1  0
 27 48  1  0
M  END
>  <minimizedAffinity>  (1) 
-7.90043068

>  <minimizedRMSD>  (1) 
1.16284502

$$$$
