
     RDKit          3D

 38 41  0  0  0  0  0  0  0  0999 V2000
   38.2000   32.5450   49.5640 C   0  0  0  0  0  0  0  0  0  0  0  0
   38.8120   32.8610   48.3310 C   0  0  0  0  0  0  0  0  0  0  0  0
   38.3200   32.2010   47.1910 C   0  0  0  0  0  0  0  0  0  0  0  0
   37.3000   31.3130   47.3430 N   0  0  0  0  0  0  0  0  0  0  0  0
   36.7470   31.0420   48.5350 C   0  0  0  0  0  0  0  0  0  0  0  0
   37.1930   31.6530   49.6380 N   0  0  0  0  0  0  0  0  0  0  0  0
   38.8200   32.4020   45.8740 N   0  0  0  0  0  0  0  0  0  0  0  0
   40.2180   32.7660   45.6240 C   0  0  0  0  0  0  0  0  0  0  0  0
   40.6050   32.0120   44.3490 C   0  0  0  0  0  0  0  0  0  0  0  0
   39.8310   32.6630   43.2270 C   0  0  0  0  0  0  0  0  0  0  0  0
   38.3610   32.7120   43.4620 C   0  0  0  0  0  0  0  0  0  0  0  0
   37.8920   32.2290   44.7890 C   0  0  0  0  0  0  0  0  0  0  0  0
   35.6950   29.0750   49.5600 C   0  0  0  0  0  0  0  0  0  0  0  0
   35.6560   30.0750   48.6030 C   0  0  0  0  0  0  0  0  0  0  0  0
   34.6020   30.1650   47.7170 C   0  0  0  0  0  0  0  0  0  0  0  0
   33.5580   29.2590   47.7640 C   0  0  0  0  0  0  0  0  0  0  0  0
   32.4290   29.1200   47.0340 N   0  0  0  0  0  0  0  0  0  0  0  0
   31.8160   28.0380   47.5720 C   0  0  0  0  0  0  0  0  0  0  0  0
   32.5420   27.5310   48.5940 N   0  0  0  0  0  0  0  0  0  0  0  0
   33.6360   28.2850   48.7270 C   0  0  0  0  0  0  0  0  0  0  0  0
   34.6560   28.1560   49.6220 C   0  0  0  0  0  0  0  0  0  0  0  0
   38.5526   33.0371   50.4824 H   0  0  0  0  0  0  0  0  0  0  0  0
   39.6343   33.5887   48.2656 H   0  0  0  0  0  0  0  0  0  0  0  0
   40.3135   33.8516   45.4746 H   0  0  0  0  0  0  0  0  0  0  0  0
   40.8695   32.5048   46.4709 H   0  0  0  0  0  0  0  0  0  0  0  0
   41.6864   32.0987   44.1674 H   0  0  0  0  0  0  0  0  0  0  0  0
   40.3719   30.9400   44.4293 H   0  0  0  0  0  0  0  0  0  0  0  0
   40.0160   32.0957   42.3029 H   0  0  0  0  0  0  0  0  0  0  0  0
   40.1799   33.7039   43.1581 H   0  0  0  0  0  0  0  0  0  0  0  0
   38.0381   33.7578   43.3521 H   0  0  0  0  0  0  0  0  0  0  0  0
   37.9217   32.0230   42.7256 H   0  0  0  0  0  0  0  0  0  0  0  0
   36.9701   32.7735   45.0414 H   0  0  0  0  0  0  0  0  0  0  0  0
   37.7506   31.1433   44.6826 H   0  0  0  0  0  0  0  0  0  0  0  0
   36.5388   29.0094   50.2626 H   0  0  0  0  0  0  0  0  0  0  0  0
   34.5920   30.9670   46.9642 H   0  0  0  0  0  0  0  0  0  0  0  0
   32.1079   29.7034   46.2482 H   0  0  0  0  0  0  0  0  0  0  0  0
   30.8567   27.6272   47.2242 H   0  0  0  0  0  0  0  0  0  0  0  0
   34.6560   27.3493   50.3698 H   0  0  0  0  0  0  0  0  0  0  0  0
  1  6  2  0
  2  1  1  0
  3  4  1  0
  3  2  2  0
  4  5  2  0
  5 14  1  0
  5  6  1  0
  7  3  1  0
  8  7  1  0
  9  8  1  0
 10 11  1  0
 10  9  1  0
 11 12  1  0
 12  7  1  0
 13 21  2  0
 14 13  1  0
 15 16  1  0
 15 14  2  0
 16 20  2  0
 17 18  1  0
 17 16  1  0
 18 19  2  0
 19 20  1  0
 20 21  1  0
  1 22  1  0
  2 23  1  0
  8 24  1  0
  8 25  1  0
  9 26  1  0
  9 27  1  0
 10 28  1  0
 10 29  1  0
 11 30  1  0
 11 31  1  0
 12 32  1  0
 12 33  1  0
 13 34  1  0
 15 35  1  0
 17 36  1  0
 18 37  1  0
 21 38  1  0
M  ISO  8  22  14  23  14  24  13  25  13  26  13  27  13  28  13  29  13
M  ISO  8  30  13  31  13  32  13  33  13  34  14  35  14  36   9  37  14
M  ISO  1  38  14
M  END
>  <minimizedAffinity>  (1) 
-7.25437641

>  <minimizedRMSD>  (1) 
2.05518508

$$$$
