
     RDKit          3D

 38 40  0  0  0  0  0  0  0  0999 V2000
   33.1960   30.1840   45.7740 O   0  0  0  0  0  0  0  0  0  0  0  0
   31.8920   29.7850   46.0710 C   0  0  0  0  0  0  0  0  0  0  0  0
   30.6850   30.2600   45.5830 C   0  0  0  0  0  0  0  0  0  0  0  0
   29.6800   29.5900   46.1390 N   0  0  0  0  0  0  0  0  0  0  0  0
   30.1980   28.6890   46.9780 C   0  0  0  0  0  0  0  0  0  0  0  0
   31.5390   28.7990   46.9430 N   0  0  0  0  0  0  0  0  0  0  0  0
   29.4890   27.7590   47.7820 N   0  0  0  0  0  0  0  0  0  0  0  0
   29.9880   27.2820   49.0570 C   0  0  0  0  0  0  0  0  0  0  0  0
   29.0420   27.7810   50.1260 C   0  0  0  0  0  0  0  0  0  0  0  0
   27.6410   27.3880   49.8060 C   0  0  0  0  0  0  0  0  0  0  0  0
   27.4540   26.6230   48.5390 C   0  0  0  0  0  0  0  0  0  0  0  0
   28.2060   27.2240   47.3710 C   0  0  0  0  0  0  0  0  0  0  0  0
   35.7260   29.9300   46.1640 O   0  0  0  0  0  0  0  0  0  0  0  0
   34.4090   29.6400   46.8370 P   0  0  2  0  0  0  0  0  0  0  0  0
   34.2250   27.9870   47.1620 O   0  0  0  0  0  0  0  0  0  0  0  0
   34.2610   30.4640   48.3330 O   0  0  0  0  0  0  0  0  0  0  0  0
   35.2000   30.3190   49.3500 C   0  0  0  0  0  0  0  0  0  0  0  0
   35.1660   29.3790   50.3790 C   0  0  0  0  0  0  0  0  0  0  0  0
   36.2040   29.4020   51.2960 C   0  0  0  0  0  0  0  0  0  0  0  0
   37.2010   30.3080   51.1820 N   0  0  0  0  0  0  0  0  0  0  0  0
   37.2050   31.2210   50.1580 C   0  0  0  0  0  0  0  0  0  0  0  0
   36.2020   31.2170   49.2500 N   0  0  0  0  0  0  0  0  0  0  0  0
   30.5749   31.0696   44.8465 H   0  0  0  0  0  0  0  0  0  0  0  0
   28.6777   29.7396   45.9549 H   0  0  0  0  0  0  0  0  0  0  0  0
   30.0159   26.1824   49.0626 H   0  0  0  0  0  0  0  0  0  0  0  0
   31.0087   27.6502   49.2378 H   0  0  0  0  0  0  0  0  0  0  0  0
   29.3281   27.3456   51.0948 H   0  0  0  0  0  0  0  0  0  0  0  0
   29.1027   28.8784   50.1715 H   0  0  0  0  0  0  0  0  0  0  0  0
   27.2675   26.7668   50.6334 H   0  0  0  0  0  0  0  0  0  0  0  0
   27.0903   28.3304   49.6697 H   0  0  0  0  0  0  0  0  0  0  0  0
   27.8111   25.5942   48.6943 H   0  0  0  0  0  0  0  0  0  0  0  0
   26.3826   26.6517   48.2914 H   0  0  0  0  0  0  0  0  0  0  0  0
   27.6030   28.0354   46.9375 H   0  0  0  0  0  0  0  0  0  0  0  0
   28.3850   26.4298   46.6312 H   0  0  0  0  0  0  0  0  0  0  0  0
   34.2090   27.8430   48.1413 H   0  0  0  0  0  0  0  0  0  0  0  0
   34.3477   28.6483   50.4595 H   0  0  0  0  0  0  0  0  0  0  0  0
   36.2172   28.6774   52.1235 H   0  0  0  0  0  0  0  0  0  0  0  0
   38.0211   31.9539   50.0755 H   0  0  0  0  0  0  0  0  0  0  0  0
  1  2  1  0
  1 14  1  0
  2  6  1  0
  3  2  2  0
  3  4  1  0
  4  5  1  0
  5  7  1  0
  6  5  2  0
  7  8  1  0
  8  9  1  0
 10  9  1  0
 11 10  1  0
 12  7  1  0
 12 11  1  0
 14 13  2  0
 14 15  1  0
 14 16  1  0
 16 17  1  0
 17 18  2  0
 18 19  1  0
 20 19  2  0
 21 20  1  0
 22 17  1  0
 22 21  2  0
  3 23  1  0
  4 24  1  0
  8 25  1  0
  8 26  1  0
  9 27  1  0
  9 28  1  0
 10 29  1  0
 10 30  1  0
 11 31  1  0
 11 32  1  0
 12 33  1  0
 12 34  1  0
 15 35  1  0
 18 36  1  0
 19 37  1  0
 21 38  1  0
M  ISO  8  23  14  24   9  25  13  26  13  27  13  28  13  29  13  30  13
M  ISO  8  31  13  32  13  33  13  34  13  35   3  36  14  37  14  38  14
M  END
>  <minimizedAffinity>  (1) 
-5.25552607

>  <minimizedRMSD>  (1) 
1.40241027

$$$$
