
     RDKit          3D

 35 37  0  0  0  0  0  0  0  0999 V2000
   36.3170   30.5000   46.9720 C   0  0  0  0  0  0  0  0  0  0  0  0
   35.6610   29.9610   45.8910 C   0  0  0  0  0  0  0  0  0  0  0  0
   35.9720   30.2060   44.5710 C   0  0  0  0  0  0  0  0  0  0  0  0
   37.0480   31.0770   44.3000 C   0  0  0  0  0  0  0  0  0  0  0  0
   37.7170   31.6270   45.3870 C   0  0  0  0  0  0  0  0  0  0  0  0
   37.3700   31.3540   46.6830 C   0  0  0  0  0  0  0  0  0  0  0  0
   36.6620   29.2340   49.0250 C   0  0  0  0  0  0  0  0  0  0  0  0
   35.8430   30.1230   48.2870 C   0  0  0  0  0  0  0  0  0  0  0  0
   34.6730   30.5380   48.9020 C   0  0  0  0  0  0  0  0  0  0  0  0
   34.3720   30.0920   50.1390 N   0  0  0  0  0  0  0  0  0  0  0  0
   35.1770   29.2400   50.8210 C   0  0  0  0  0  0  0  0  0  0  0  0
   36.3330   28.8110   50.2500 N   0  0  0  0  0  0  0  0  0  0  0  0
   38.0490   31.9110   47.8080 N   0  0  0  0  0  0  0  0  0  0  0  0
   37.6050   31.6390   49.1730 C   0  0  0  0  0  0  0  0  0  0  0  0
   37.1770   32.9150   49.8640 C   0  0  0  0  0  0  0  0  0  0  0  0
   38.0450   34.0800   49.4510 C   0  0  0  0  0  0  0  0  0  0  0  0
   39.3740   33.6080   48.8940 C   0  0  0  0  0  0  0  0  0  0  0  0
   39.2100   32.7750   47.6570 C   0  0  0  0  0  0  0  0  0  0  0  0
   34.8215   29.2803   46.0957 H   0  0  0  0  0  0  0  0  0  0  0  0
   35.4003   29.7380   43.7560 H   0  0  0  0  0  0  0  0  0  0  0  0
   37.3462   31.3120   43.2676 H   0  0  0  0  0  0  0  0  0  0  0  0
   38.5592   32.3091   45.1985 H   0  0  0  0  0  0  0  0  0  0  0  0
   37.6010   28.8793   48.5750 H   0  0  0  0  0  0  0  0  0  0  0  0
   33.9919   31.2288   48.3834 H   0  0  0  0  0  0  0  0  0  0  0  0
   34.8964   28.8989   51.8284 H   0  0  0  0  0  0  0  0  0  0  0  0
   36.7542   30.9424   49.1432 H   0  0  0  0  0  0  0  0  0  0  0  0
   38.4420   31.1982   49.7344 H   0  0  0  0  0  0  0  0  0  0  0  0
   36.1325   33.1340   49.5973 H   0  0  0  0  0  0  0  0  0  0  0  0
   37.2796   32.7732   50.9500 H   0  0  0  0  0  0  0  0  0  0  0  0
   37.5198   34.6621   48.6795 H   0  0  0  0  0  0  0  0  0  0  0  0
   38.2413   34.6982   50.3394 H   0  0  0  0  0  0  0  0  0  0  0  0
   39.9873   34.4877   48.6492 H   0  0  0  0  0  0  0  0  0  0  0  0
   39.8562   32.9821   49.6594 H   0  0  0  0  0  0  0  0  0  0  0  0
   40.1090   32.1592   47.5071 H   0  0  0  0  0  0  0  0  0  0  0  0
   39.0686   33.4326   46.7866 H   0  0  0  0  0  0  0  0  0  0  0  0
  1  8  1  0
  2  1  2  0
  3  2  1  0
  4  3  2  0
  4  5  1  0
  5  6  2  0
  6  1  1  0
  6 13  1  0
  7 12  2  0
  8  9  2  0
  8  7  1  0
  9 10  1  0
 10 11  2  0
 12 11  1  0
 13 14  1  0
 14 15  1  0
 16 15  1  0
 17 16  1  0
 18 13  1  0
 18 17  1  0
  2 19  1  0
  3 20  1  0
  4 21  1  0
  5 22  1  0
  7 23  1  0
  9 24  1  0
 11 25  1  0
 14 26  1  0
 14 27  1  0
 15 28  1  0
 15 29  1  0
 16 30  1  0
 16 31  1  0
 17 32  1  0
 17 33  1  0
 18 34  1  0
 18 35  1  0
M  ISO  8  19  14  20  14  21  14  22  14  23  14  24  14  25  14  26  13
M  ISO  8  27  13  28  13  29  13  30  13  31  13  32  13  33  13  34  13
M  ISO  1  35  13
M  END
>  <minimizedAffinity>  (1) 
-4.71823311

>  <minimizedRMSD>  (1) 
3.39044547

$$$$
