
     RDKit          3D

 21 22  0  0  0  0  0  0  0  0999 V2000
   38.4130   32.5180   48.1970 S   0  0  0  0  0  0  0  0  0  0  0  0
   39.1850   31.9740   46.6870 C   0  0  0  0  0  0  0  0  0  0  0  0
   39.9870   32.9580   46.0790 C   0  0  0  0  0  0  0  0  0  0  0  0
   40.6390   32.6490   44.8970 C   0  0  0  0  0  0  0  0  0  0  0  0
   40.4760   31.4010   44.3670 N   0  0  0  0  0  0  0  0  0  0  0  0
   39.6970   30.4780   44.9760 C   0  0  0  0  0  0  0  0  0  0  0  0
   39.0580   30.7710   46.1300 N   0  0  0  0  0  0  0  0  0  0  0  0
   38.9050   31.1240   50.7380 F   0  0  0  0  0  0  0  0  0  0  0  0
   37.8310   30.6630   50.0190 C   0  0  0  0  0  0  0  0  0  0  0  0
   37.4090   31.1650   48.7950 C   0  0  0  0  0  0  0  0  0  0  0  0
   36.3080   30.6120   48.1720 C   0  0  0  0  0  0  0  0  0  0  0  0
   35.6320   29.5650   48.7630 C   0  0  0  0  0  0  0  0  0  0  0  0
   36.0650   29.0660   49.9950 C   0  0  0  0  0  0  0  0  0  0  0  0
   37.1670   29.6120   50.6330 C   0  0  0  0  0  0  0  0  0  0  0  0
   40.0939   33.9537   46.5342 H   0  0  0  0  0  0  0  0  0  0  0  0
   41.2750   33.3933   44.3954 H   0  0  0  0  0  0  0  0  0  0  0  0
   39.5827   29.4800   44.5278 H   0  0  0  0  0  0  0  0  0  0  0  0
   35.9694   31.0070   47.2028 H   0  0  0  0  0  0  0  0  0  0  0  0
   34.7550   29.1241   48.2665 H   0  0  0  0  0  0  0  0  0  0  0  0
   35.5245   28.2302   50.4633 H   0  0  0  0  0  0  0  0  0  0  0  0
   37.5070   29.2211   51.6034 H   0  0  0  0  0  0  0  0  0  0  0  0
  1 10  1  0
  2  1  1  0
  3  2  2  0
  4  3  1  0
  5  4  2  0
  5  6  1  0
  6  7  2  0
  7  2  1  0
  9 14  2  0
  9  8  1  0
 10  9  1  0
 11 12  1  0
 11 10  2  0
 12 13  2  0
 13 14  1  0
  3 15  1  0
  4 16  1  0
  6 17  1  0
 11 18  1  0
 12 19  1  0
 13 20  1  0
 14 21  1  0
M  ISO  7  15  14  16  14  17  14  18  14  19  14  20  14  21  14
M  END
>  <minimizedAffinity>  (1) 
-5.56876898

>  <minimizedRMSD>  (1) 
4.58748484

$$$$
