
     RDKit          3D

 27 28  0  0  0  0  0  0  0  0999 V2000
   32.9860   27.8470   48.0270 C   0  0  0  0  0  0  0  0  0  0  0  0
   33.3970   28.6220   45.4290 F   0  0  0  0  0  0  0  0  0  0  0  0
   33.6700   27.3370   45.7710 C   0  0  0  0  0  0  0  0  0  0  0  0
   33.5040   26.8270   47.0430 C   0  0  0  0  0  0  0  0  0  0  0  0
   33.7770   25.5300   47.3990 C   0  0  0  0  0  0  0  0  0  0  0  0
   34.2540   24.6720   46.4060 C   0  0  0  0  0  0  0  0  0  0  0  0
   34.4240   25.1720   45.1270 C   0  0  0  0  0  0  0  0  0  0  0  0
   34.1420   26.4830   44.7940 C   0  0  0  0  0  0  0  0  0  0  0  0
   34.8540   28.3180   49.5970 C   0  0  0  0  0  0  0  0  0  0  0  0
   34.1730   28.5920   48.5290 C   0  0  0  0  0  0  0  0  0  0  0  0
   37.3570   30.2530   51.4440 C   0  0  0  0  0  0  0  0  0  0  0  0
   38.1400   30.7910   50.4120 C   0  0  0  0  0  0  0  0  0  0  0  0
   37.7890   30.4760   49.0940 C   0  0  0  0  0  0  0  0  0  0  0  0
   36.7020   29.6610   48.8950 N   0  0  0  0  0  0  0  0  0  0  0  0
   35.9910   29.1760   49.9200 C   0  0  0  0  0  0  0  0  0  0  0  0
   36.3030   29.4590   51.1790 N   0  0  0  0  0  0  0  0  0  0  0  0
   32.4726   27.3446   48.8601 H   0  0  0  0  0  0  0  0  0  0  0  0
   32.2624   28.5258   47.5520 H   0  0  0  0  0  0  0  0  0  0  0  0
   33.6254   25.1787   48.4303 H   0  0  0  0  0  0  0  0  0  0  0  0
   34.4893   23.6222   46.6353 H   0  0  0  0  0  0  0  0  0  0  0  0
   34.7992   24.4979   44.3429 H   0  0  0  0  0  0  0  0  0  0  0  0
   34.2914   26.8414   43.7648 H   0  0  0  0  0  0  0  0  0  0  0  0
   34.5844   27.4668   50.2395 H   0  0  0  0  0  0  0  0  0  0  0  0
   34.5037   29.4579   47.9368 H   0  0  0  0  0  0  0  0  0  0  0  0
   37.6091   30.4843   52.4894 H   0  0  0  0  0  0  0  0  0  0  0  0
   39.0014   31.4390   50.6312 H   0  0  0  0  0  0  0  0  0  0  0  0
   38.3661   30.8692   48.2441 H   0  0  0  0  0  0  0  0  0  0  0  0
  1 10  1  0
  2  3  1  0
  3  4  2  0
  4  5  1  0
  4  1  1  0
  6  5  2  0
  7  6  1  0
  8  7  2  0
  8  3  1  0
  9 15  1  0
 10  9  2  0
 12 11  2  0
 13 12  1  0
 14 13  2  0
 14 15  1  0
 15 16  2  0
 16 11  1  0
  1 17  1  0
  1 18  1  0
  5 19  1  0
  6 20  1  0
  7 21  1  0
  8 22  1  0
  9 23  1  0
 10 24  1  0
 11 25  1  0
 12 26  1  0
 13 27  1  0
M  ISO  8  17   8  18   8  19  14  20  14  21  14  22  14  25  14  26  14
M  ISO  1  27  14
M  END
>  <minimizedAffinity>  (1) 
-4.69246531

>  <minimizedRMSD>  (1) 
0.997863472

$$$$
