
     RDKit          3D

 34 36  0  0  1  0  0  0  0  0999 V2000
   30.9750   26.9110   48.2720 C   0  0  2  0  0  0  0  0  0  0  0  0
   32.4620   26.6860   48.0830 C   0  0  1  0  0  0  0  0  0  0  0  0
   32.6210   25.5880   47.2690 O   0  0  0  0  0  0  0  0  0  0  0  0
   31.3980   25.2230   46.7490 C   0  0  0  0  0  0  0  0  0  0  0  0
   30.4770   26.4450   46.9090 C   0  0  1  0  0  0  0  0  0  0  0  0
   30.6990   28.2700   48.4740 O   0  0  0  0  0  0  0  0  0  0  0  0
   33.1020   28.1420   47.1820 S   0  0  0  0  0  0  0  0  0  0  0  0
   35.2110   29.2420   50.3560 C   0  0  0  0  0  0  0  0  0  0  0  0
   36.0100   30.3000   49.9120 C   0  0  0  0  0  0  0  0  0  0  0  0
   35.8930   30.6910   48.5750 C   0  0  0  0  0  0  0  0  0  0  0  0
   35.0120   30.0270   47.7770 N   0  0  0  0  0  0  0  0  0  0  0  0
   34.2530   29.0040   48.2430 C   0  0  0  0  0  0  0  0  0  0  0  0
   34.3490   28.6110   49.5230 N   0  0  0  0  0  0  0  0  0  0  0  0
   29.1650   26.0400   46.9370 O   0  0  0  0  0  0  0  0  0  0  0  0
   28.3710   27.8450   45.1050 F   0  0  0  0  0  0  0  0  0  0  0  0
   27.7850   27.7510   46.3250 C   0  0  0  0  0  0  0  0  0  0  0  0
   28.1210   26.8540   47.3440 C   0  0  0  0  0  0  0  0  0  0  0  0
   27.4280   26.8820   48.5360 C   0  0  0  0  0  0  0  0  0  0  0  0
   26.4110   27.7970   48.7130 C   0  0  0  0  0  0  0  0  0  0  0  0
   26.0630   28.6950   47.7150 C   0  0  0  0  0  0  0  0  0  0  0  0
   26.7550   28.6760   46.5080 C   0  0  0  0  0  0  0  0  0  0  0  0
   30.5233   26.4018   49.1361 H   0  0  0  0  0  0  0  0  0  0  0  0
   32.9777   26.5389   49.0434 H   0  0  0  0  0  0  0  0  0  0  0  0
   30.9903   24.3640   47.3021 H   0  0  0  0  0  0  0  0  0  0  0  0
   31.4858   24.9247   45.6939 H   0  0  0  0  0  0  0  0  0  0  0  0
   30.5062   27.2091   46.1183 H   0  0  0  0  0  0  0  0  0  0  0  0
   30.6608   28.4582   49.4452 H   0  0  0  0  0  0  0  0  0  0  0  0
   35.2839   28.9151   51.4038 H   0  0  0  0  0  0  0  0  0  0  0  0
   36.7084   30.8085   50.5930 H   0  0  0  0  0  0  0  0  0  0  0  0
   36.4997   31.5174   48.1762 H   0  0  0  0  0  0  0  0  0  0  0  0
   27.6849   26.1783   49.3415 H   0  0  0  0  0  0  0  0  0  0  0  0
   25.8638   27.8148   49.6671 H   0  0  0  0  0  0  0  0  0  0  0  0
   25.2476   29.4155   47.8761 H   0  0  0  0  0  0  0  0  0  0  0  0
   26.4934   29.3823   45.7063 H   0  0  0  0  0  0  0  0  0  0  0  0
  1  6  1  0
  2  1  1  0
  3  2  1  0
  4  5  1  0
  4  3  1  0
  5 14  1  0
  5  1  1  0
  7  2  1  0
  7 12  1  0
  9  8  2  0
 10  9  1  0
 11 12  1  0
 11 10  2  0
 12 13  2  0
 13  8  1  0
 14 17  1  0
 15 16  1  0
 16 21  2  0
 16 17  1  0
 17 18  2  0
 18 19  1  0
 20 19  2  0
 21 20  1  0
  1 22  1  1
  2 23  1  1
  4 24  1  0
  4 25  1  0
  5 26  1  6
  6 27  1  0
  8 28  1  0
  9 29  1  0
 10 30  1  0
 18 31  1  0
 19 32  1  0
 20 33  1  0
 21 34  1  0
M  ISO  8  22  13  23  13  24  13  25  13  26  13  27   3  28  14  29  14
M  ISO  5  30  14  31  14  32  14  33  14  34  14
M  END
>  <minimizedAffinity>  (1) 
-4.8616581

>  <minimizedRMSD>  (1) 
4.32163811

$$$$
