
     RDKit          3D

 23 24  0  0  0  0  0  0  0  0999 V2000
   37.3580   29.9880   51.6650 C   0  0  0  0  0  0  0  0  0  0  0  0
   38.1500   30.6450   50.6930 C   0  0  0  0  0  0  0  0  0  0  0  0
   37.6250   30.8000   49.4200 C   0  0  0  0  0  0  0  0  0  0  0  0
   36.3810   30.3040   49.2040 N   0  0  0  0  0  0  0  0  0  0  0  0
   35.6480   29.6870   50.1310 C   0  0  0  0  0  0  0  0  0  0  0  0
   36.1470   29.5360   51.3540 N   0  0  0  0  0  0  0  0  0  0  0  0
   38.5940   33.4320   49.6440 F   0  0  0  0  0  0  0  0  0  0  0  0
   38.7900   32.7350   48.4800 C   0  0  0  0  0  0  0  0  0  0  0  0
   38.3360   31.4560   48.3310 C   0  0  0  0  0  0  0  0  0  0  0  0
   38.5930   30.8600   47.1150 C   0  0  0  0  0  0  0  0  0  0  0  0
   39.2630   31.4700   46.0830 C   0  0  0  0  0  0  0  0  0  0  0  0
   39.7200   32.7620   46.2370 C   0  0  0  0  0  0  0  0  0  0  0  0
   39.4660   33.3750   47.4600 C   0  0  0  0  0  0  0  0  0  0  0  0
   34.3130   29.1900   49.7430 C   0  0  0  0  0  0  0  0  0  0  0  0
   33.3290   29.5300   50.6660 F   0  0  0  0  0  0  0  0  0  0  0  0
   33.9070   29.7120   48.5290 F   0  0  0  0  0  0  0  0  0  0  0  0
   34.2530   27.8140   49.6130 F   0  0  0  0  0  0  0  0  0  0  0  0
   37.7472   29.8505   52.6846 H   0  0  0  0  0  0  0  0  0  0  0  0
   39.1533   31.0217   50.9410 H   0  0  0  0  0  0  0  0  0  0  0  0
   38.2388   29.8300   46.9614 H   0  0  0  0  0  0  0  0  0  0  0  0
   39.4341   30.9313   45.1393 H   0  0  0  0  0  0  0  0  0  0  0  0
   40.2592   33.2827   45.4320 H   0  0  0  0  0  0  0  0  0  0  0  0
   39.8159   34.4055   47.6200 H   0  0  0  0  0  0  0  0  0  0  0  0
  2  1  2  0
  3  2  1  0
  4  3  2  0
  4  5  1  0
  5  6  2  0
  6  1  1  0
  8  7  1  0
  9  8  2  0
  9  3  1  0
 10  9  1  0
 11 12  1  0
 11 10  2  0
 12 13  2  0
 13  8  1  0
 14  5  1  0
 14 15  1  0
 16 14  1  0
 17 14  1  0
  1 18  1  0
  2 19  1  0
 10 20  1  0
 11 21  1  0
 12 22  1  0
 13 23  1  0
M  ISO  6  18  14  19  14  20  14  21  14  22  14  23  14
M  END
>  <minimizedAffinity>  (1) 
-6.34674263

>  <minimizedRMSD>  (1) 
2.34627414

$$$$
