
     RDKit          3D

 22 23  0  0  0  0  0  0  0  0999 V2000
   37.5520   30.2710   50.7370 C   0  0  0  0  0  0  0  0  0  0  0  0
   38.3270   31.3060   50.1750 C   0  0  0  0  0  0  0  0  0  0  0  0
   38.0120   31.6870   48.8740 C   0  0  0  0  0  0  0  0  0  0  0  0
   37.0030   31.0620   48.2270 N   0  0  0  0  0  0  0  0  0  0  0  0
   36.2810   30.0720   48.8000 C   0  0  0  0  0  0  0  0  0  0  0  0
   36.5710   29.6960   50.0450 N   0  0  0  0  0  0  0  0  0  0  0  0
   34.9130   27.9050   49.9000 F   0  0  0  0  0  0  0  0  0  0  0  0
   34.5430   28.3380   48.6630 C   0  0  0  0  0  0  0  0  0  0  0  0
   35.1910   29.4160   48.0640 C   0  0  0  0  0  0  0  0  0  0  0  0
   34.8330   29.8810   46.7990 C   0  0  0  0  0  0  0  0  0  0  0  0
   33.8060   29.2590   46.1100 C   0  0  0  0  0  0  0  0  0  0  0  0
   33.1910   28.1950   46.7400 C   0  0  0  0  0  0  0  0  0  0  0  0
   33.5140   27.7040   47.9900 C   0  0  0  0  0  0  0  0  0  0  0  0
   37.7820   29.7890   52.0740 N   0  0  0  0  0  0  0  0  0  0  0  0
   39.1403   31.7885   50.7369 H   0  0  0  0  0  0  0  0  0  0  0  0
   38.5783   32.4886   48.3773 H   0  0  0  0  0  0  0  0  0  0  0  0
   35.3625   30.7354   46.3521 H   0  0  0  0  0  0  0  0  0  0  0  0
   33.4951   29.5956   45.1100 H   0  0  0  0  0  0  0  0  0  0  0  0
   32.3734   27.6954   46.1997 H   0  0  0  0  0  0  0  0  0  0  0  0
   32.9785   26.8495   48.4294 H   0  0  0  0  0  0  0  0  0  0  0  0
   37.1982   29.0312   52.4558 H   0  0  0  0  0  0  0  0  0  0  0  0
   38.5303   30.2020   52.6487 H   0  0  0  0  0  0  0  0  0  0  0  0
  1 14  1  0
  2  1  2  0
  3  2  1  0
  4  5  1  0
  4  3  2  0
  5  6  2  0
  6  1  1  0
  8  7  1  0
  9  8  2  0
  9  5  1  0
 10  9  1  0
 11 12  1  0
 11 10  2  0
 12 13  2  0
 13  8  1  0
  2 15  1  0
  3 16  1  0
 10 17  1  0
 11 18  1  0
 12 19  1  0
 13 20  1  0
 14 21  1  0
 14 22  1  0
M  ISO  6  15  14  16  14  17  14  18  14  19  14  20  14
M  END
>  <minimizedAffinity>  (1) 
-5.19176245

>  <minimizedRMSD>  (1) 
1.11456537

$$$$
