
     RDKit          3D

 42 46  0  0  0  0  0  0  0  0999 V2000
   35.4550   29.4900   49.6210 C   0  0  0  0  0  0  0  0  0  0  0  0
   36.5010   28.9830   50.3690 C   0  0  0  0  0  0  0  0  0  0  0  0
   37.6280   29.5310   49.7590 C   0  0  0  0  0  0  0  0  0  0  0  0
   37.2310   30.3170   48.7070 C   0  0  0  0  0  0  0  0  0  0  0  0
   35.9210   30.2680   48.6540 O   0  0  0  0  0  0  0  0  0  0  0  0
   38.5370   32.3240   48.1850 C   0  0  0  0  0  0  0  0  0  0  0  0
   38.0860   31.0740   47.8010 C   0  0  0  0  0  0  0  0  0  0  0  0
   38.4280   30.5210   46.5750 C   0  0  0  0  0  0  0  0  0  0  0  0
   39.2410   31.2230   45.6940 C   0  0  0  0  0  0  0  0  0  0  0  0
   39.7360   30.9700   44.4690 N   0  0  0  0  0  0  0  0  0  0  0  0
   40.4600   32.0230   44.1200 N   0  0  0  0  0  0  0  0  0  0  0  0
   40.4410   32.9570   45.1020 C   0  0  0  0  0  0  0  0  0  0  0  0
   39.6560   32.4650   46.1390 C   0  0  0  0  0  0  0  0  0  0  0  0
   39.3590   33.0660   47.3270 C   0  0  0  0  0  0  0  0  0  0  0  0
   34.0550   29.2000   49.8720 C   0  0  0  0  0  0  0  0  0  0  0  0
   33.4920   29.7950   50.8200 O   0  0  0  0  0  0  0  0  0  0  0  0
   31.3290   27.2130   48.4790 C   0  0  0  0  0  0  0  0  0  0  0  0
   31.9700   26.4640   47.4940 C   0  0  0  0  0  0  0  0  0  0  0  0
   33.3170   26.6240   47.2950 C   0  0  0  0  0  0  0  0  0  0  0  0
   33.9570   27.5140   48.0790 N   0  0  0  0  0  0  0  0  0  0  0  0
   33.3360   28.2400   49.0320 C   0  0  0  0  0  0  0  0  0  0  0  0
   32.0170   28.0830   49.2270 N   0  0  0  0  0  0  0  0  0  0  0  0
   34.3840   24.1440   47.8400 F   0  0  0  0  0  0  0  0  0  0  0  0
   34.5830   24.6460   46.5860 C   0  0  0  0  0  0  0  0  0  0  0  0
   34.0610   25.8810   46.2890 C   0  0  0  0  0  0  0  0  0  0  0  0
   34.2980   26.3220   45.0130 C   0  0  0  0  0  0  0  0  0  0  0  0
   35.0120   25.5650   44.1070 C   0  0  0  0  0  0  0  0  0  0  0  0
   35.5260   24.3260   44.4300 C   0  0  0  0  0  0  0  0  0  0  0  0
   35.2990   23.8650   45.7090 C   0  0  0  0  0  0  0  0  0  0  0  0
   36.4550   28.3090   51.2371 H   0  0  0  0  0  0  0  0  0  0  0  0
   38.6690   29.3606   50.0711 H   0  0  0  0  0  0  0  0  0  0  0  0
   38.2502   32.7354   49.1640 H   0  0  0  0  0  0  0  0  0  0  0  0
   38.0542   29.5237   46.2999 H   0  0  0  0  0  0  0  0  0  0  0  0
   39.5815   30.1194   43.9090 H   0  0  0  0  0  0  0  0  0  0  0  0
   40.9544   33.9296   45.0822 H   0  0  0  0  0  0  0  0  0  0  0  0
   39.7385   34.0637   47.5927 H   0  0  0  0  0  0  0  0  0  0  0  0
   30.2485   27.0878   48.6428 H   0  0  0  0  0  0  0  0  0  0  0  0
   31.3999   25.7503   46.8812 H   0  0  0  0  0  0  0  0  0  0  0  0
   33.9094   27.3035   44.7037 H   0  0  0  0  0  0  0  0  0  0  0  0
   35.1768   25.9621   43.0945 H   0  0  0  0  0  0  0  0  0  0  0  0
   36.0927   23.7316   43.6982 H   0  0  0  0  0  0  0  0  0  0  0  0
   35.6857   22.8847   46.0244 H   0  0  0  0  0  0  0  0  0  0  0  0
  1 15  1  0
  1  2  2  0
  3  2  1  0
  4  3  2  0
  5  4  1  0
  5  1  1  0
  7  6  2  0
  7  4  1  0
  8  7  1  0
  9 13  1  0
  9  8  2  0
 10  9  1  0
 11 10  1  0
 11 12  2  0
 12 13  1  0
 13 14  2  0
 14  6  1  0
 15 16  2  0
 17 22  2  0
 18 17  1  0
 19 18  2  0
 19 20  1  0
 20 21  2  0
 21 22  1  0
 21 15  1  0
 24 23  1  0
 25 24  2  0
 25 19  1  0
 26 25  1  0
 27 28  1  0
 27 26  2  0
 28 29  2  0
 29 24  1  0
  2 30  1  0
  3 31  1  0
  6 32  1  0
  8 33  1  0
 10 34  1  0
 12 35  1  0
 14 36  1  0
 17 37  1  0
 18 38  1  0
 26 39  1  0
 27 40  1  0
 28 41  1  0
 29 42  1  0
M  ISO  8  30  14  31  14  32  14  33  14  34   9  35  14  36  14  37  14
M  ISO  5  38  14  39  14  40  14  41  14  42  14
M  END
>  <minimizedAffinity>  (1) 
-6.84117889

>  <minimizedRMSD>  (1) 
0.738044858

$$$$
