
     RDKit          3D

 40 43  0  0  1  0  0  0  0  0999 V2000
   38.3030   31.8560   44.7050 C   0  0  0  0  0  0  0  0  0  0  0  0
   37.1570   32.3460   44.5880 O   0  0  0  0  0  0  0  0  0  0  0  0
   38.8830   31.6500   46.0160 N   0  0  0  0  0  0  0  0  0  0  0  0
   39.1050   31.4700   43.5280 C   0  0  0  0  0  0  0  0  0  0  0  0
   40.1430   30.5970   43.6970 C   0  0  0  0  0  0  0  0  0  0  0  0
   40.8760   30.2530   42.5750 C   0  0  0  0  0  0  0  0  0  0  0  0
   40.5250   30.8020   41.3700 C   0  0  0  0  0  0  0  0  0  0  0  0
   39.4790   31.6840   41.1960 C   0  0  0  0  0  0  0  0  0  0  0  0
   38.8210   31.9650   42.3220 N   0  0  0  0  0  0  0  0  0  0  0  0
   38.6000   34.4220   40.8720 F   0  0  0  0  0  0  0  0  0  0  0  0
   38.6110   33.6070   39.7980 C   0  0  0  0  0  0  0  0  0  0  0  0
   39.0320   32.3130   39.9770 C   0  0  0  0  0  0  0  0  0  0  0  0
   39.0050   31.5630   38.8210 C   0  0  0  0  0  0  0  0  0  0  0  0
   38.5950   32.0700   37.6090 C   0  0  0  0  0  0  0  0  0  0  0  0
   38.1820   33.3780   37.4870 C   0  0  0  0  0  0  0  0  0  0  0  0
   38.1910   34.1700   38.6150 C   0  0  0  0  0  0  0  0  0  0  0  0
   38.3840   31.1730   48.4140 C   0  0  2  0  0  0  0  0  0  0  0  0
   38.5880   32.6260   48.3010 C   0  0  0  0  0  0  0  0  0  0  0  0
   37.9900   31.7620   47.1590 C   0  0  1  0  0  0  0  0  0  0  0  0
   35.1400   29.9450   49.6750 C   0  0  0  0  0  0  0  0  0  0  0  0
   35.4830   29.4640   50.9790 C   0  0  0  0  0  0  0  0  0  0  0  0
   36.8580   29.5910   51.3940 C   0  0  0  0  0  0  0  0  0  0  0  0
   37.7550   30.1520   50.5450 N   0  0  0  0  0  0  0  0  0  0  0  0
   37.3600   30.5890   49.3160 C   0  0  0  0  0  0  0  0  0  0  0  0
   36.0620   30.5000   48.8540 N   0  0  0  0  0  0  0  0  0  0  0  0
   39.8831   31.4338   46.1339 H   0  0  0  0  0  0  0  0  0  0  0  0
   40.3863   30.1838   44.6870 H   0  0  0  0  0  0  0  0  0  0  0  0
   41.7221   29.5540   42.6490 H   0  0  0  0  0  0  0  0  0  0  0  0
   41.1149   30.5216   40.4849 H   0  0  0  0  0  0  0  0  0  0  0  0
   39.3256   30.5119   38.8693 H   0  0  0  0  0  0  0  0  0  0  0  0
   38.5972   31.4191   36.7223 H   0  0  0  0  0  0  0  0  0  0  0  0
   37.8542   33.7794   36.5167 H   0  0  0  0  0  0  0  0  0  0  0  0
   37.8716   35.2217   38.5707 H   0  0  0  0  0  0  0  0  0  0  0  0
   39.0600   30.3511   48.6926 H   0  0  0  0  0  0  0  0  0  0  0  0
   37.9520   33.3247   48.8643 H   0  0  0  0  0  0  0  0  0  0  0  0
   39.4322   33.3222   48.4136 H   0  0  0  0  0  0  0  0  0  0  0  0
   37.0667   31.7104   46.5633 H   0  0  0  0  0  0  0  0  0  0  0  0
   34.0986   29.8613   49.3308 H   0  0  0  0  0  0  0  0  0  0  0  0
   34.7265   29.0147   51.6391 H   0  0  0  0  0  0  0  0  0  0  0  0
   37.1755   29.2376   52.3861 H   0  0  0  0  0  0  0  0  0  0  0  0
  1  3  1  0
  2  1  2  0
  3 19  1  0
  4  5  2  0
  4  1  1  0
  6  5  1  0
  7  6  2  0
  8  7  1  0
  8  9  2  0
  9  4  1  0
 11 12  2  0
 11 10  1  0
 12  8  1  0
 13 12  1  0
 14 13  2  0
 15 14  1  0
 15 16  2  0
 16 11  1  0
 17 24  1  0
 18 17  1  0
 19 18  1  0
 19 17  1  0
 20 21  2  0
 21 22  1  0
 23 22  2  0
 24 23  1  0
 25 24  2  0
 25 20  1  0
  3 26  1  0
  5 27  1  0
  6 28  1  0
  7 29  1  0
 13 30  1  0
 14 31  1  0
 15 32  1  0
 16 33  1  0
 17 34  1  6
 18 35  1  0
 18 36  1  0
 19 37  1  6
 20 38  1  0
 21 39  1  0
 22 40  1  0
M  ISO  8  27  14  28  14  29  14  30  14  31  14  32  14  33  14  34  13
M  ISO  6  35  13  36  13  37  13  38  14  39  14  40  14
M  END
>  <minimizedAffinity>  (1) 
-5.40047455

>  <minimizedRMSD>  (1) 
0.548882306

$$$$
