
     RDKit          3D

 48 52  0  0  0  0  0  0  0  0999 V2000
   38.0910   31.3980   47.9880 C   0  0  0  0  0  0  0  0  0  0  0  0
   37.2410   31.5970   49.0600 C   0  0  0  0  0  0  0  0  0  0  0  0
   37.4480   32.8090   49.7300 C   0  0  0  0  0  0  0  0  0  0  0  0
   38.4310   33.7200   49.3340 C   0  0  0  0  0  0  0  0  0  0  0  0
   39.2440   33.4180   48.2260 C   0  0  0  0  0  0  0  0  0  0  0  0
   39.0610   32.2310   47.5470 C   0  0  0  0  0  0  0  0  0  0  0  0
   35.1090   30.4670   48.6670 C   0  0  0  0  0  0  0  0  0  0  0  0
   36.2370   30.6680   49.4660 C   0  0  0  0  0  0  0  0  0  0  0  0
   36.3370   29.9330   50.6560 C   0  0  0  0  0  0  0  0  0  0  0  0
   35.3420   29.0720   50.9690 N   0  0  0  0  0  0  0  0  0  0  0  0
   34.2550   28.9080   50.1570 C   0  0  0  0  0  0  0  0  0  0  0  0
   34.1570   29.6020   49.0280 N   0  0  0  0  0  0  0  0  0  0  0  0
   37.5140   30.1070   51.5420 C   0  0  0  0  0  0  0  0  0  0  0  0
   37.9740   30.2180   47.2450 O   0  0  0  0  0  0  0  0  0  0  0  0
   39.8940   32.0100   46.4790 O   0  0  0  0  0  0  0  0  0  0  0  0
   40.0750   30.9520   44.2210 C   0  0  0  0  0  0  0  0  0  0  0  0
   39.5290   31.7790   45.1770 C   0  0  0  0  0  0  0  0  0  0  0  0
   38.4070   32.5430   44.8320 C   0  0  0  0  0  0  0  0  0  0  0  0
   37.8610   32.4620   43.5420 C   0  0  0  0  0  0  0  0  0  0  0  0
   36.8160   33.0520   42.9180 N   0  0  0  0  0  0  0  0  0  0  0  0
   36.7320   32.6090   41.6550 C   0  0  0  0  0  0  0  0  0  0  0  0
   37.7410   31.7260   41.4830 N   0  0  0  0  0  0  0  0  0  0  0  0
   38.4420   31.6240   42.6290 C   0  0  0  0  0  0  0  0  0  0  0  0
   39.5450   30.8690   42.9600 C   0  0  0  0  0  0  0  0  0  0  0  0
   39.2930   28.0340   42.9130 F   0  0  0  0  0  0  0  0  0  0  0  0
   40.0770   28.5910   41.9670 C   0  0  0  0  0  0  0  0  0  0  0  0
   40.1870   29.9660   42.0050 C   0  0  0  0  0  0  0  0  0  0  0  0
   40.9660   30.6710   41.0830 C   0  0  0  0  0  0  0  0  0  0  0  0
   41.6500   29.9630   40.1000 C   0  0  0  0  0  0  0  0  0  0  0  0
   41.5150   28.5900   40.0950 C   0  0  0  0  0  0  0  0  0  0  0  0
   40.7520   27.8720   40.9940 C   0  0  0  0  0  0  0  0  0  0  0  0
   36.8159   33.0521   50.5968 H   0  0  0  0  0  0  0  0  0  0  0  0
   38.5677   34.6634   49.8828 H   0  0  0  0  0  0  0  0  0  0  0  0
   40.0220   34.1252   47.9026 H   0  0  0  0  0  0  0  0  0  0  0  0
   35.0031   31.0289   47.7273 H   0  0  0  0  0  0  0  0  0  0  0  0
   33.4606   28.2010   50.4382 H   0  0  0  0  0  0  0  0  0  0  0  0
   37.1922   30.0594   52.5928 H   0  0  0  0  0  0  0  0  0  0  0  0
   38.2426   29.3068   51.3451 H   0  0  0  0  0  0  0  0  0  0  0  0
   37.9800   31.0838   51.3451 H   0  0  0  0  0  0  0  0  0  0  0  0
   38.5735   30.0572   46.4738 H   0  0  0  0  0  0  0  0  0  0  0  0
   40.9561   30.3445   44.4751 H   0  0  0  0  0  0  0  0  0  0  0  0
   37.9508   33.2110   45.5774 H   0  0  0  0  0  0  0  0  0  0  0  0
   36.1801   33.7386   43.3483 H   0  0  0  0  0  0  0  0  0  0  0  0
   35.9858   32.9068   40.9037 H   0  0  0  0  0  0  0  0  0  0  0  0
   41.0370   31.7675   41.1339 H   0  0  0  0  0  0  0  0  0  0  0  0
   42.2745   30.4782   39.3553 H   0  0  0  0  0  0  0  0  0  0  0  0
   42.0541   28.0269   39.3189 H   0  0  0  0  0  0  0  0  0  0  0  0
   40.6829   26.7755   40.9400 H   0  0  0  0  0  0  0  0  0  0  0  0
  1  2  2  0
  2  8  1  0
  2  3  1  0
  4  3  2  0
  5  4  1  0
  6  1  1  0
  6  5  2  0
  7 12  2  0
  7  8  1  0
  8  9  2  0
  9 10  1  0
  9 13  1  0
 11 10  2  0
 12 11  1  0
 14  1  1  0
 15  6  1  0
 16 17  2  0
 17 15  1  0
 18 17  1  0
 19 18  2  0
 20 19  1  0
 21 20  1  0
 22 21  2  0
 22 23  1  0
 23 24  2  0
 23 19  1  0
 24 16  1  0
 26 27  2  0
 26 25  1  0
 27 24  1  0
 28 27  1  0
 29 28  2  0
 30 29  1  0
 30 31  2  0
 31 26  1  0
  3 32  1  0
  4 33  1  0
  5 34  1  0
  7 35  1  0
 11 36  1  0
 13 37  1  0
 13 38  1  0
 13 39  1  0
 14 40  1  0
 16 41  1  0
 18 42  1  0
 20 43  1  0
 21 44  1  0
 28 45  1  0
 29 46  1  0
 30 47  1  0
 31 48  1  0
M  ISO  8  32  14  33  14  34  14  35  14  36  14  37   8  38   8  39   8
M  ISO  8  40   3  41  14  42  14  43   9  44  14  45  14  46  14  47  14
M  ISO  1  48  14
M  END
>  <minimizedAffinity>  (1) 
-7.79775095

>  <minimizedRMSD>  (1) 
1.12876225

$$$$
