
     RDKit          3D

 44 47  0  0  0  0  0  0  0  0999 V2000
   31.0500   26.8530   46.8740 C   0  0  0  0  0  0  0  0  0  0  0  0
   30.8830   25.4870   46.7180 C   0  0  0  0  0  0  0  0  0  0  0  0
   31.6220   24.6960   45.8460 C   0  0  0  0  0  0  0  0  0  0  0  0
   32.6140   25.3250   45.0640 C   0  0  0  0  0  0  0  0  0  0  0  0
   32.7700   26.6860   45.2300 C   0  0  0  0  0  0  0  0  0  0  0  0
   32.0350   27.4480   46.0900 C   0  0  0  0  0  0  0  0  0  0  0  0
   30.6530   27.5760   49.1430 C   0  0  0  0  0  0  0  0  0  0  0  0
   30.1910   27.5040   47.8200 C   0  0  0  0  0  0  0  0  0  0  0  0
   28.9430   28.0640   47.5270 C   0  0  0  0  0  0  0  0  0  0  0  0
   28.2370   28.6490   48.5280 N   0  0  0  0  0  0  0  0  0  0  0  0
   28.7050   28.7080   49.8070 C   0  0  0  0  0  0  0  0  0  0  0  0
   29.9190   28.1670   50.1090 N   0  0  0  0  0  0  0  0  0  0  0  0
   28.3260   28.0610   46.1730 C   0  0  0  0  0  0  0  0  0  0  0  0
   27.0890   28.7340   46.2190 F   0  0  0  0  0  0  0  0  0  0  0  0
   29.0680   28.5970   45.1840 F   0  0  0  0  0  0  0  0  0  0  0  0
   27.9740   26.7570   45.8210 F   0  0  0  0  0  0  0  0  0  0  0  0
   32.2490   29.1780   46.2910 S   0  0  0  0  0  0  0  0  0  0  0  0
   33.7900   29.5070   48.9690 Cl  0  0  0  0  0  0  0  0  0  0  0  0
   34.5850   29.8140   47.4550 C   0  0  0  0  0  0  0  0  0  0  0  0
   33.9410   29.7040   46.2200 C   0  0  0  0  0  0  0  0  0  0  0  0
   34.6120   29.9660   45.0580 C   0  0  0  0  0  0  0  0  0  0  0  0
   35.9340   30.3350   45.1130 C   0  0  0  0  0  0  0  0  0  0  0  0
   36.5920   30.4490   46.3390 C   0  0  0  0  0  0  0  0  0  0  0  0
   35.9260   30.1910   47.5270 C   0  0  0  0  0  0  0  0  0  0  0  0
   37.3450   32.4650   48.4840 F   0  0  0  0  0  0  0  0  0  0  0  0
   37.3110   31.3940   49.3110 C   0  0  0  0  0  0  0  0  0  0  0  0
   36.6150   30.3120   48.8120 C   0  0  0  0  0  0  0  0  0  0  0  0
   36.5220   29.1600   49.5880 C   0  0  0  0  0  0  0  0  0  0  0  0
   37.1050   29.0720   50.8350 C   0  0  0  0  0  0  0  0  0  0  0  0
   37.8060   30.1710   51.3310 C   0  0  0  0  0  0  0  0  0  0  0  0
   37.8950   31.3120   50.5550 C   0  0  0  0  0  0  0  0  0  0  0  0
   30.1113   24.9933   47.3270 H   0  0  0  0  0  0  0  0  0  0  0  0
   31.4393   23.6141   45.7680 H   0  0  0  0  0  0  0  0  0  0  0  0
   33.2341   24.7568   44.3550 H   0  0  0  0  0  0  0  0  0  0  0  0
   33.5396   27.1908   44.6277 H   0  0  0  0  0  0  0  0  0  0  0  0
   31.6315   27.1427   49.3974 H   0  0  0  0  0  0  0  0  0  0  0  0
   28.1050   29.1905   50.5926 H   0  0  0  0  0  0  0  0  0  0  0  0
   34.0984   29.8822   44.0889 H   0  0  0  0  0  0  0  0  0  0  0  0
   36.4801   30.5429   44.1810 H   0  0  0  0  0  0  0  0  0  0  0  0
   37.6506   30.7468   46.3625 H   0  0  0  0  0  0  0  0  0  0  0  0
   35.9676   28.2949   49.1954 H   0  0  0  0  0  0  0  0  0  0  0  0
   37.0185   28.1500   51.4286 H   0  0  0  0  0  0  0  0  0  0  0  0
   38.2801   30.1308   52.3228 H   0  0  0  0  0  0  0  0  0  0  0  0
   38.4487   32.1797   50.9430 H   0  0  0  0  0  0  0  0  0  0  0  0
  1  8  1  0
  2  1  2  0
  3  2  1  0
  4  5  1  0
  4  3  2  0
  5  6  2  0
  6 17  1  0
  6  1  1  0
  7 12  2  0
  8  7  1  0
  9  8  2  0
  9 10  1  0
 10 11  2  0
 11 12  1  0
 13 14  1  0
 13  9  1  0
 15 13  1  0
 16 13  1  0
 19 24  2  0
 19 18  1  0
 20 17  1  0
 20 19  1  0
 21 22  1  0
 21 20  2  0
 22 23  2  0
 23 24  1  0
 24 27  1  0
 25 26  1  0
 26 31  2  0
 27 26  1  0
 27 28  2  0
 28 29  1  0
 29 30  2  0
 31 30  1  0
  2 32  1  0
  3 33  1  0
  4 34  1  0
  5 35  1  0
  7 36  1  0
 11 37  1  0
 21 38  1  0
 22 39  1  0
 23 40  1  0
 28 41  1  0
 29 42  1  0
 30 43  1  0
 31 44  1  0
M  ISO  8  32  14  33  14  34  14  35  14  36  14  37  14  38  14  39  14
M  ISO  5  40  14  41  14  42  14  43  14  44  14
M  END
>  <minimizedAffinity>  (1) 
-6.47925568

>  <minimizedRMSD>  (1) 
3.98502231

$$$$
