
     RDKit          3D

 46 49  0  0  1  0  0  0  0  0999 V2000
   40.4520   31.8020   44.5140 C   0  0  0  0  0  0  0  0  0  0  0  0
   40.0290   31.8940   43.1760 N   0  0  0  0  0  0  0  0  0  0  0  0
   39.3570   33.0760   42.8130 C   0  0  0  0  0  0  0  0  0  0  0  0
   37.9610   32.9160   42.3470 C   0  0  0  0  0  0  0  0  0  0  0  0
   37.7600   31.7780   41.5630 O   0  0  0  0  0  0  0  0  0  0  0  0
   38.1890   30.6570   42.1920 C   0  0  0  0  0  0  0  0  0  0  0  0
   39.6520   30.7320   42.5110 C   0  0  1  0  0  0  0  0  0  0  0  0
   40.8180   28.0570   42.3720 F   0  0  0  0  0  0  0  0  0  0  0  0
   41.0370   28.9390   41.3770 C   0  0  0  0  0  0  0  0  0  0  0  0
   40.5100   30.1900   41.4510 C   0  0  0  0  0  0  0  0  0  0  0  0
   40.8860   30.9370   40.3240 C   0  0  0  0  0  0  0  0  0  0  0  0
   41.6680   30.5260   39.2670 C   0  0  0  0  0  0  0  0  0  0  0  0
   42.1420   29.2350   39.3040 C   0  0  0  0  0  0  0  0  0  0  0  0
   41.8250   28.4290   40.3690 C   0  0  0  0  0  0  0  0  0  0  0  0
   39.8320   32.6410   45.5180 C   0  0  0  0  0  0  0  0  0  0  0  0
   37.7180   30.9790   47.8960 C   0  0  0  0  0  0  0  0  0  0  0  0
   36.9860   30.8000   46.7370 C   0  0  0  0  0  0  0  0  0  0  0  0
   37.6980   31.4040   45.7050 C   0  0  0  0  0  0  0  0  0  0  0  0
   38.7990   31.9100   46.2550 N   0  0  0  0  0  0  0  0  0  0  0  0
   38.8070   31.6530   47.5700 N   0  0  0  0  0  0  0  0  0  0  0  0
   37.4400   30.1670   51.5540 C   0  0  0  0  0  0  0  0  0  0  0  0
   37.9490   30.6930   50.3750 C   0  0  0  0  0  0  0  0  0  0  0  0
   37.2860   30.4810   49.1760 C   0  0  0  0  0  0  0  0  0  0  0  0
   36.1430   29.7440   49.2670 N   0  0  0  0  0  0  0  0  0  0  0  0
   35.6560   29.2360   50.4160 C   0  0  0  0  0  0  0  0  0  0  0  0
   36.3110   29.4540   51.5520 N   0  0  0  0  0  0  0  0  0  0  0  0
   41.5278   32.0312   44.5257 H   0  0  0  0  0  0  0  0  0  0  0  0
   40.1551   30.7847   44.8089 H   0  0  0  0  0  0  0  0  0  0  0  0
   39.3441   33.7382   43.6912 H   0  0  0  0  0  0  0  0  0  0  0  0
   39.9112   33.4777   41.9519 H   0  0  0  0  0  0  0  0  0  0  0  0
   37.3056   32.8515   43.2281 H   0  0  0  0  0  0  0  0  0  0  0  0
   37.7298   33.7870   41.7163 H   0  0  0  0  0  0  0  0  0  0  0  0
   37.6248   30.5343   43.1283 H   0  0  0  0  0  0  0  0  0  0  0  0
   38.0254   29.8007   41.5212 H   0  0  0  0  0  0  0  0  0  0  0  0
   39.8618   30.0050   43.3094 H   0  0  0  0  0  0  0  0  0  0  0  0
   40.5129   31.9708   40.2795 H   0  0  0  0  0  0  0  0  0  0  0  0
   41.9031   31.2003   38.4303 H   0  0  0  0  0  0  0  0  0  0  0  0
   42.7702   28.8516   38.4865 H   0  0  0  0  0  0  0  0  0  0  0  0
   42.1939   27.3938   40.4166 H   0  0  0  0  0  0  0  0  0  0  0  0
   40.6022   32.9837   46.2246 H   0  0  0  0  0  0  0  0  0  0  0  0
   39.3600   33.4969   45.0134 H   0  0  0  0  0  0  0  0  0  0  0  0
   36.0218   30.2782   46.6473 H   0  0  0  0  0  0  0  0  0  0  0  0
   37.4082   31.4533   44.6450 H   0  0  0  0  0  0  0  0  0  0  0  0
   37.9726   30.3394   52.5009 H   0  0  0  0  0  0  0  0  0  0  0  0
   38.8798   31.2790   50.3918 H   0  0  0  0  0  0  0  0  0  0  0  0
   34.7267   28.6474   50.4140 H   0  0  0  0  0  0  0  0  0  0  0  0
  1 15  1  0
  2  1  1  0
  3  2  1  0
  4  3  1  0
  5  6  1  0
  5  4  1  0
  6  7  1  0
  7  2  1  0
  9 10  2  0
  9  8  1  0
 10  7  1  0
 11 10  1  0
 12 13  1  0
 12 11  2  0
 13 14  2  0
 14  9  1  0
 15 19  1  0
 16 23  1  0
 17 16  1  0
 18 19  1  0
 18 17  2  0
 19 20  1  0
 20 16  2  0
 22 21  2  0
 23 24  2  0
 23 22  1  0
 24 25  1  0
 25 26  2  0
 26 21  1  0
  1 27  1  0
  1 28  1  0
  3 29  1  0
  3 30  1  0
  4 31  1  0
  4 32  1  0
  6 33  1  0
  6 34  1  0
  7 35  1  1
 11 36  1  0
 12 37  1  0
 13 38  1  0
 14 39  1  0
 15 40  1  0
 15 41  1  0
 17 42  1  0
 18 43  1  0
 21 44  1  0
 22 45  1  0
 25 46  1  0
M  ISO  8  27   8  28   8  29  13  30  13  31  13  32  13  33  13  34  13
M  ISO  8  35  13  36  14  37  14  38  14  39  14  40   8  41   8  42  14
M  ISO  4  43  14  44  14  45  14  46  14
M  END
>  <minimizedAffinity>  (1) 
-5.93120098

>  <minimizedRMSD>  (1) 
0.888446331

$$$$
