
     RDKit          3D

 34 36  0  0  0  0  0  0  0  0999 V2000
   37.9070   30.2700   49.6610 C   0  0  0  0  0  0  0  0  0  0  0  0
   37.8410   30.9810   48.4480 C   0  0  0  0  0  0  0  0  0  0  0  0
   36.6080   31.0860   47.8380 C   0  0  0  0  0  0  0  0  0  0  0  0
   35.5680   30.4960   48.4580 N   0  0  0  0  0  0  0  0  0  0  0  0
   35.6450   29.8380   49.5870 C   0  0  0  0  0  0  0  0  0  0  0  0
   36.8430   29.7030   50.2340 N   0  0  0  0  0  0  0  0  0  0  0  0
   39.0280   31.4930   48.0100 O   0  0  0  0  0  0  0  0  0  0  0  0
   39.2860   31.4420   46.6340 C   0  0  0  0  0  0  0  0  0  0  0  0
   39.2940   30.3480   45.8210 C   0  0  0  0  0  0  0  0  0  0  0  0
   39.5680   30.4870   44.5000 C   0  0  0  0  0  0  0  0  0  0  0  0
   39.8360   31.7630   44.0090 C   0  0  0  0  0  0  0  0  0  0  0  0
   39.8240   32.8540   44.8440 C   0  0  0  0  0  0  0  0  0  0  0  0
   39.5460   32.6590   46.1520 N   0  0  0  0  0  0  0  0  0  0  0  0
   40.1200   34.2270   44.2870 C   0  0  0  0  0  0  0  0  0  0  0  0
   34.0440   29.1930   50.1010 S   0  0  0  0  0  0  0  0  0  0  0  0
   31.2750   28.3080   49.9050 F   0  0  0  0  0  0  0  0  0  0  0  0
   32.1090   27.7550   48.9880 C   0  0  0  0  0  0  0  0  0  0  0  0
   33.4740   28.0230   48.8830 C   0  0  0  0  0  0  0  0  0  0  0  0
   34.2050   27.3890   47.9020 C   0  0  0  0  0  0  0  0  0  0  0  0
   33.5590   26.5140   47.0600 C   0  0  0  0  0  0  0  0  0  0  0  0
   32.2130   26.2430   47.1540 C   0  0  0  0  0  0  0  0  0  0  0  0
   31.4690   26.8690   48.1320 C   0  0  0  0  0  0  0  0  0  0  0  0
   38.8824   30.1771   50.1609 H   0  0  0  0  0  0  0  0  0  0  0  0
   36.4801   31.6268   46.8887 H   0  0  0  0  0  0  0  0  0  0  0  0
   39.0783   29.3525   46.2362 H   0  0  0  0  0  0  0  0  0  0  0  0
   39.5784   29.6130   43.8321 H   0  0  0  0  0  0  0  0  0  0  0  0
   40.0598   31.8985   42.9406 H   0  0  0  0  0  0  0  0  0  0  0  0
   40.2724   34.9339   45.1159 H   0  0  0  0  0  0  0  0  0  0  0  0
   41.0295   34.1840   43.6698 H   0  0  0  0  0  0  0  0  0  0  0  0
   39.2736   34.5626   43.6698 H   0  0  0  0  0  0  0  0  0  0  0  0
   35.2832   27.5788   47.7944 H   0  0  0  0  0  0  0  0  0  0  0  0
   34.1438   26.0087   46.2772 H   0  0  0  0  0  0  0  0  0  0  0  0
   31.7369   25.5364   46.4583 H   0  0  0  0  0  0  0  0  0  0  0  0
   30.3916   26.6706   48.2317 H   0  0  0  0  0  0  0  0  0  0  0  0
  1  6  2  0
  2  1  1  0
  3  2  2  0
  3  4  1  0
  4  5  2  0
  5 15  1  0
  5  6  1  0
  7  2  1  0
  8  7  1  0
  9  8  2  0
 10  9  1  0
 11 10  2  0
 11 12  1  0
 12 13  2  0
 13  8  1  0
 14 12  1  0
 17 16  1  0
 18 17  2  0
 18 15  1  0
 19 18  1  0
 20 21  1  0
 20 19  2  0
 21 22  2  0
 22 17  1  0
  1 23  1  0
  3 24  1  0
  9 25  1  0
 10 26  1  0
 11 27  1  0
 14 28  1  0
 14 29  1  0
 14 30  1  0
 19 31  1  0
 20 32  1  0
 21 33  1  0
 22 34  1  0
M  ISO  8  23  14  24  14  25  14  26  14  27  14  28   8  29   8  30   8
M  ISO  4  31  14  32  14  33  14  34  14
M  END
>  <minimizedAffinity>  (1) 
-5.26033497

>  <minimizedRMSD>  (1) 
1.63132715

$$$$
