
     RDKit          3D

 33 35  0  0  0  0  0  0  0  0999 V2000
   36.2010   30.4270   45.3910 C   0  0  0  0  0  0  0  0  0  0  0  0
   34.9710   29.9970   45.8530 C   0  0  0  0  0  0  0  0  0  0  0  0
   35.0430   29.8760   47.2140 C   0  0  0  0  0  0  0  0  0  0  0  0
   36.2850   30.2250   47.5590 N   0  0  0  0  0  0  0  0  0  0  0  0
   36.9490   30.5440   46.4750 N   0  0  0  0  0  0  0  0  0  0  0  0
   38.6000   31.4840   48.5460 F   0  0  0  0  0  0  0  0  0  0  0  0
   37.8470   30.8260   49.4310 C   0  0  0  0  0  0  0  0  0  0  0  0
   36.7130   30.2140   48.9250 C   0  0  0  0  0  0  0  0  0  0  0  0
   35.8830   29.5090   49.8040 C   0  0  0  0  0  0  0  0  0  0  0  0
   36.1970   29.4290   51.1470 C   0  0  0  0  0  0  0  0  0  0  0  0
   37.3220   30.0360   51.6550 C   0  0  0  0  0  0  0  0  0  0  0  0
   38.1350   30.7300   50.7800 C   0  0  0  0  0  0  0  0  0  0  0  0
   36.4430   30.6530   43.9490 C   0  0  0  0  0  0  0  0  0  0  0  0
   37.7680   30.1850   43.4860 C   0  0  0  0  0  0  0  0  0  0  0  0
   38.3560   30.7820   42.3220 C   0  0  0  0  0  0  0  0  0  0  0  0
   37.6360   31.6290   41.5250 C   0  0  0  0  0  0  0  0  0  0  0  0
   38.2140   32.2130   40.3750 C   0  0  0  0  0  0  0  0  0  0  0  0
   39.5340   31.8650   40.1350 N   0  0  0  0  0  0  0  0  0  0  0  0
   40.2050   31.0240   40.9520 C   0  0  0  0  0  0  0  0  0  0  0  0
   39.6140   30.4880   42.0380 N   0  0  0  0  0  0  0  0  0  0  0  0
   34.0866   29.7881   45.2331 H   0  0  0  0  0  0  0  0  0  0  0  0
   34.2371   29.5548   47.8903 H   0  0  0  0  0  0  0  0  0  0  0  0
   34.9761   29.0161   49.4237 H   0  0  0  0  0  0  0  0  0  0  0  0
   35.5344   28.8690   51.8233 H   0  0  0  0  0  0  0  0  0  0  0  0
   37.5668   29.9708   52.7254 H   0  0  0  0  0  0  0  0  0  0  0  0
   39.0393   31.2214   51.1683 H   0  0  0  0  0  0  0  0  0  0  0  0
   35.6680   30.1193   43.3793 H   0  0  0  0  0  0  0  0  0  0  0  0
   36.4117   31.7403   43.7851 H   0  0  0  0  0  0  0  0  0  0  0  0
   38.4718   30.3410   44.3169 H   0  0  0  0  0  0  0  0  0  0  0  0
   37.5845   29.1443   43.1805 H   0  0  0  0  0  0  0  0  0  0  0  0
   36.5917   31.8590   41.7829 H   0  0  0  0  0  0  0  0  0  0  0  0
   37.6558   32.8953   39.7171 H   0  0  0  0  0  0  0  0  0  0  0  0
   41.2519   30.7724   40.7269 H   0  0  0  0  0  0  0  0  0  0  0  0
  1  2  1  0
  1  5  2  0
  2  3  2  0
  3  4  1  0
  4  8  1  0
  5  4  1  0
  6  7  1  0
  7 12  2  0
  8  7  1  0
  8  9  2  0
  9 10  1  0
 10 11  2  0
 12 11  1  0
 13  1  1  0
 14 13  1  0
 15 14  1  0
 16 15  2  0
 17 16  1  0
 18 17  2  0
 18 19  1  0
 19 20  2  0
 20 15  1  0
  2 21  1  0
  3 22  1  0
  9 23  1  0
 10 24  1  0
 11 25  1  0
 12 26  1  0
 13 27  1  0
 13 28  1  0
 14 29  1  0
 14 30  1  0
 16 31  1  0
 17 32  1  0
 19 33  1  0
M  ISO  8  21  14  22  14  23  14  24  14  25  14  26  14  27   8  28   8
M  ISO  5  29   8  30   8  31  14  32  14  33  14
M  END
>  <minimizedAffinity>  (1) 
-4.9878726

>  <minimizedRMSD>  (1) 
4.67778254

$$$$
