
     RDKit          3D

 37 40  0  0  0  0  0  0  0  0999 V2000
   33.5910   28.3850   48.5460 C   0  0  0  0  0  0  0  0  0  0  0  0
   34.5040   28.0970   49.4960 C   0  0  0  0  0  0  0  0  0  0  0  0
   35.5420   28.9120   49.8610 C   0  0  0  0  0  0  0  0  0  0  0  0
   35.7170   30.1130   49.2580 C   0  0  0  0  0  0  0  0  0  0  0  0
   34.7780   30.4330   48.2650 C   0  0  0  0  0  0  0  0  0  0  0  0
   33.7730   29.5950   47.9420 N   0  0  0  0  0  0  0  0  0  0  0  0
   31.2190   27.6120   48.7250 C   0  0  0  0  0  0  0  0  0  0  0  0
   32.4990   27.5380   48.1520 C   0  0  0  0  0  0  0  0  0  0  0  0
   32.6720   26.5920   47.1640 C   0  0  0  0  0  0  0  0  0  0  0  0
   31.6320   25.7910   46.7930 N   0  0  0  0  0  0  0  0  0  0  0  0
   30.4280   25.9120   47.3830 C   0  0  0  0  0  0  0  0  0  0  0  0
   30.2010   26.8250   48.3580 N   0  0  0  0  0  0  0  0  0  0  0  0
   36.7140   31.0620   49.5050 O   0  0  0  0  0  0  0  0  0  0  0  0
   37.5280   31.5410   48.4890 C   0  0  0  0  0  0  0  0  0  0  0  0
   38.3900   32.5760   48.8630 C   0  0  0  0  0  0  0  0  0  0  0  0
   39.1300   32.9400   47.7450 C   0  0  0  0  0  0  0  0  0  0  0  0
   38.7040   32.1380   46.7610 N   0  0  0  0  0  0  0  0  0  0  0  0
   37.7720   31.3200   47.1850 N   0  0  0  0  0  0  0  0  0  0  0  0
   40.9990   30.7900   45.9650 F   0  0  0  0  0  0  0  0  0  0  0  0
   40.2660   31.4080   45.0050 C   0  0  0  0  0  0  0  0  0  0  0  0
   39.1270   32.0780   45.3870 C   0  0  0  0  0  0  0  0  0  0  0  0
   38.3680   32.7130   44.4240 C   0  0  0  0  0  0  0  0  0  0  0  0
   38.7750   32.6550   43.1070 C   0  0  0  0  0  0  0  0  0  0  0  0
   39.9070   31.9950   42.6890 C   0  0  0  0  0  0  0  0  0  0  0  0
   40.6450   31.3720   43.6680 C   0  0  0  0  0  0  0  0  0  0  0  0
   34.4073   27.1334   50.0176 H   0  0  0  0  0  0  0  0  0  0  0  0
   36.2386   28.5897   50.6490 H   0  0  0  0  0  0  0  0  0  0  0  0
   34.8647   31.3936   47.7361 H   0  0  0  0  0  0  0  0  0  0  0  0
   31.0442   28.3555   49.5166 H   0  0  0  0  0  0  0  0  0  0  0  0
   33.6507   26.4829   46.6739 H   0  0  0  0  0  0  0  0  0  0  0  0
   29.6071   25.2524   47.0652 H   0  0  0  0  0  0  0  0  0  0  0  0
   38.4685   33.0230   49.8650 H   0  0  0  0  0  0  0  0  0  0  0  0
   39.9019   33.7211   47.6816 H   0  0  0  0  0  0  0  0  0  0  0  0
   37.4532   33.2566   44.7025 H   0  0  0  0  0  0  0  0  0  0  0  0
   38.1606   33.1644   42.3500 H   0  0  0  0  0  0  0  0  0  0  0  0
   40.2054   31.9670   41.6306 H   0  0  0  0  0  0  0  0  0  0  0  0
   41.5599   30.8306   43.3855 H   0  0  0  0  0  0  0  0  0  0  0  0
  1  2  2  0
  2  3  1  0
  4 13  1  0
  4  3  2  0
  5  4  1  0
  6  5  2  0
  6  1  1  0
  8  1  1  0
  8  7  2  0
  9  8  1  0
 10  9  2  0
 10 11  1  0
 11 12  2  0
 12  7  1  0
 14 15  1  0
 14 13  1  0
 16 15  2  0
 17 18  1  0
 17 16  1  0
 18 14  2  0
 20 21  2  0
 20 19  1  0
 21 17  1  0
 22 21  1  0
 23 22  2  0
 24 23  1  0
 24 25  2  0
 25 20  1  0
  2 26  1  0
  3 27  1  0
  5 28  1  0
  7 29  1  0
  9 30  1  0
 11 31  1  0
 15 32  1  0
 16 33  1  0
 22 34  1  0
 23 35  1  0
 24 36  1  0
 25 37  1  0
M  ISO  8  26  14  27  14  28  14  29  14  30  14  31  14  32  14  33  14
M  ISO  4  34  14  35  14  36  14  37  14
M  END
>  <minimizedAffinity>  (1) 
-6.22987127

>  <minimizedRMSD>  (1) 
2.29588914

$$$$
