
 OpenBabel03242504583D

 48 51  0  0  0  0  0  0  0  0999 V2000
   38.1140   29.1570   43.1040 C   0  0  0  0  0  0  0  0  0  0  0  0
   39.0340   28.2260   42.6380 C   0  0  0  0  0  0  0  0  0  0  0  0
   38.8730   27.7020   41.3380 C   0  0  0  0  0  0  0  0  0  0  0  0
   37.7790   28.1860   40.6360 N   0  0  0  0  0  0  0  0  0  0  0  0
   36.9290   29.0790   41.1350 C   0  0  0  0  0  0  0  0  0  0  0  0
   37.0910   29.5630   42.3590 N   0  0  0  0  0  0  0  0  0  0  0  0
   38.3250   29.4980   44.1140 H   0  0  0  0  0  0  0  0  0  0  0  0
   40.1740   27.7200   43.3700 C   0  0  0  0  0  0  0  0  0  0  0  0
   40.3350   26.6330   44.1000 N   0  0  0  0  0  0  0  0  0  0  0  0
   41.5290   26.5620   44.5760 O   0  0  0  0  0  0  0  0  0  0  0  0
   42.2270   27.5980   44.1890 C   0  0  0  0  0  0  0  0  0  0  0  0
   41.3870   28.3410   43.4260 N   0  0  0  0  0  0  0  0  0  0  0  0
   43.5600   28.0360   44.4010 N   0  0  0  0  0  0  0  0  0  0  0  0
   44.0480   28.8980   43.4940 C   0  0  0  0  0  0  0  0  0  0  0  0
   45.3320   29.3800   43.6230 C   0  0  0  0  0  0  0  0  0  0  0  0
   46.0370   28.9030   44.7360 C   0  0  0  0  0  0  0  0  0  0  0  0
   47.2150   29.3190   44.8910 O   0  0  0  0  0  0  0  0  0  0  0  0
   45.5180   28.0290   45.6400 N   0  0  0  0  0  0  0  0  0  0  0  0
   44.2700   27.5950   45.4660 C   0  0  0  0  0  0  0  0  0  0  0  0
   43.7650   26.8000   46.2680 O   0  0  0  0  0  0  0  0  0  0  0  0
   43.5190   29.2730   42.6310 H   0  0  0  0  0  0  0  0  0  0  0  0
   45.7930   30.0730   42.9360 H   0  0  0  0  0  0  0  0  0  0  0  0
   46.1130   27.7340   46.4280 H   0  0  0  0  0  0  0  0  0  0  0  0
   35.8080   29.4920   40.2650 C   0  0  0  0  0  0  0  0  0  0  0  0
   35.6340   30.8520   40.3350 F   0  0  0  0  0  0  0  0  0  0  0  0
   36.0300   29.1170   38.9790 F   0  0  0  0  0  0  0  0  0  0  0  0
   34.6150   28.9150   40.7180 F   0  0  0  0  0  0  0  0  0  0  0  0
   39.7320   26.7000   40.6450 C   0  0  0  0  0  0  0  0  0  0  0  0
   41.1560   27.1580   40.4480 C   0  0  0  0  0  0  0  0  0  0  0  0
   41.7210   26.9330   41.3620 H   0  0  0  0  0  0  0  0  0  0  0  0
   41.6530   26.6850   39.5980 H   0  0  0  0  0  0  0  0  0  0  0  0
   41.1100   28.2630   40.2590 H   0  0  0  0  0  0  0  0  0  0  0  0
   39.2090   26.6260   39.1680 C   0  0  0  0  0  0  0  0  0  0  0  0
   39.9110   26.1180   38.5160 H   0  0  0  0  0  0  0  0  0  0  0  0
   38.1930   26.2190   39.1400 H   0  0  0  0  0  0  0  0  0  0  0  0
   39.0970   27.6990   38.8360 H   0  0  0  0  0  0  0  0  0  0  0  0
   39.5910   25.3180   41.1480 C   0  0  0  0  0  0  0  0  0  0  0  0
   40.4280   24.6780   40.9970 H   0  0  0  0  0  0  0  0  0  0  0  0
   39.5080   25.4430   42.3030 H   0  0  0  0  0  0  0  0  0  0  0  0
   38.3940   24.6070   40.7190 N   0  0  0  0  0  0  0  0  0  0  0  0
   38.4790   23.8670   39.5750 C   0  0  0  0  0  0  0  0  0  0  0  0
   37.4340   23.1320   39.0570 C   0  0  0  0  0  0  0  0  0  0  0  0
   36.2220   23.1260   39.7120 C   0  0  0  0  0  0  0  0  0  0  0  0
   35.1990   22.4960   39.3380 O   0  0  0  0  0  0  0  0  0  0  0  0
   36.1560   23.8600   40.8340 N   0  0  0  0  0  0  0  0  0  0  0  0
   37.1950   24.5640   41.3090 C   0  0  0  0  0  0  0  0  0  0  0  0
   37.0320   25.2140   42.3550 O   0  0  0  0  0  0  0  0  0  0  0  0
   35.2530   23.8760   41.3530 H   0  0  0  0  0  0  0  0  0  0  0  0
  1  7  1  0  0  0  0
  2  1  1  0  0  0  0
  2  8  1  0  0  0  0
  3  2  2  0  0  0  0
  4  5  2  0  0  0  0
  4  3  1  0  0  0  0
  5  6  1  0  0  0  0
  6  1  2  0  0  0  0
  8 12  1  0  0  0  0
  8  9  2  0  0  0  0
  9 10  1  0  0  0  0
 11 13  1  0  0  0  0
 11 10  1  0  0  0  0
 12 11  2  0  0  0  0
 13 19  1  0  0  0  0
 14 15  2  0  0  0  0
 14 13  1  0  0  0  0
 15 16  1  0  0  0  0
 16 17  2  0  0  0  0
 16 18  1  0  0  0  0
 18 23  1  0  0  0  0
 19 18  1  0  0  0  0
 19 20  2  0  0  0  0
 21 14  1  0  0  0  0
 22 15  1  0  0  0  0
 24 25  1  0  0  0  0
 24 27  1  0  0  0  0
 24  5  1  0  0  0  0
 26 24  1  0  0  0  0
 28 37  1  0  0  0  0
 28  3  1  0  0  0  0
 29 28  1  0  0  0  0
 29 30  1  0  0  0  0
 31 29  1  0  0  0  0
 32 29  1  0  0  0  0
 33 28  1  0  0  0  0
 34 33  1  0  0  0  0
 35 33  1  0  0  0  0
 36 33  1  0  0  0  0
 37 39  1  0  0  0  0
 38 37  1  0  0  0  0
 40 37  1  0  0  0  0
 40 46  1  0  0  0  0
 41 40  1  0  0  0  0
 42 41  2  0  0  0  0
 42 43  1  0  0  0  0
 43 45  1  0  0  0  0
 44 43  2  0  0  0  0
 45 46  1  0  0  0  0
 45 48  1  0  0  0  0
 46 47  2  0  0  0  0
M  END
>  <minimizedAffinity>
-6.02331018

>  <minimizedRMSD>
1.91735923

$$$$
