
 OpenBabel03242508353D

 31 33  0  0  0  0  0  0  0  0999 V2000
   38.3450   28.0010   43.4610 C   0  0  0  0  0  0  0  0  0  0  0  0
   38.0320   26.8490   42.6670 C   0  0  0  0  0  0  0  0  0  0  0  0
   37.2020   27.0230   41.5780 C   0  0  0  0  0  0  0  0  0  0  0  0
   36.7330   28.2660   41.3210 N   0  0  0  0  0  0  0  0  0  0  0  0
   37.0310   29.3220   42.0630 C   0  0  0  0  0  0  0  0  0  0  0  0
   37.8390   29.2110   43.1430 N   0  0  0  0  0  0  0  0  0  0  0  0
   38.9770   28.0170   44.3370 H   0  0  0  0  0  0  0  0  0  0  0  0
   38.5510   26.0160   43.1150 H   0  0  0  0  0  0  0  0  0  0  0  0
   36.9640   25.7950   40.8580 C   0  0  0  0  0  0  0  0  0  0  0  0
   36.0280   25.8650   40.2410 H   0  0  0  0  0  0  0  0  0  0  0  0
   37.7740   25.7030   40.0760 H   0  0  0  0  0  0  0  0  0  0  0  0
   36.9860   24.5560   41.6570 C   0  0  0  0  0  0  0  0  0  0  0  0
   37.3320   24.5980   42.6810 H   0  0  0  0  0  0  0  0  0  0  0  0
   35.9090   24.2000   41.7300 H   0  0  0  0  0  0  0  0  0  0  0  0
   37.8190   23.1980   40.7560 S   0  0  0  0  0  0  0  0  0  0  0  0
   39.0300   23.7750   40.2770 H   0  0  0  0  0  0  0  0  0  0  0  0
   36.4300   30.4590   41.5900 O   0  0  0  0  0  0  0  0  0  0  0  0
   37.0740   31.2210   40.6020 C   0  0  0  0  0  0  0  0  0  0  0  0
   36.7840   31.3690   39.2660 N   0  0  0  0  0  0  0  0  0  0  0  0
   37.6690   32.1880   38.7400 O   0  0  0  0  0  0  0  0  0  0  0  0
   38.4930   32.5500   39.7090 C   0  0  0  0  0  0  0  0  0  0  0  0
   38.1470   31.9710   40.8550 N   0  0  0  0  0  0  0  0  0  0  0  0
   39.6080   33.4590   39.4970 C   0  0  0  0  0  0  0  0  0  0  0  0
   39.8070   34.6810   40.1110 C   0  0  0  0  0  0  0  0  0  0  0  0
   40.9740   35.2400   39.6480 C   0  0  0  0  0  0  0  0  0  0  0  0
   41.4660   34.3200   38.7430 C   0  0  0  0  0  0  0  0  0  0  0  0
   40.6400   33.3200   38.7000 O   0  0  0  0  0  0  0  0  0  0  0  0
   39.1520   35.1480   40.8490 H   0  0  0  0  0  0  0  0  0  0  0  0
   41.4580   36.1690   39.8840 H   0  0  0  0  0  0  0  0  0  0  0  0
   42.7320   34.4830   37.9700 C   0  0  0  0  0  0  0  0  0  0  0  0
   43.1140   33.4870   37.6270 H   0  0  0  0  0  0  0  0  0  0  0  0
  1  7  1  0  0  0  0
  2  8  1  0  0  0  0
  2  1  2  0  0  0  0
  3  2  1  0  0  0  0
  4  3  2  0  0  0  0
  4  5  1  0  0  0  0
  5  6  2  0  0  0  0
  6  1  1  0  0  0  0
  9  3  1  0  0  0  0
  9 12  1  0  0  0  0
 10  9  1  0  0  0  0
 11  9  1  0  0  0  0
 12 14  1  0  0  0  0
 12 13  1  0  0  0  0
 15 12  1  0  0  0  0
 16 15  1  0  0  0  0
 17  5  1  0  0  0  0
 18 22  1  0  0  0  0
 18 17  1  0  0  0  0
 19 18  2  0  0  0  0
 20 19  1  0  0  0  0
 20 21  1  0  0  0  0
 21 22  2  0  0  0  0
 23 21  1  0  0  0  0
 23 24  2  0  0  0  0
 24 28  1  0  0  0  0
 25 29  1  0  0  0  0
 25 24  1  0  0  0  0
 26 25  2  0  0  0  0
 27 26  1  0  0  0  0
 27 23  1  0  0  0  0
 30 26  1  0  0  0  0
 31 30  1  0  0  0  0
M  END
>  <minimizedAffinity>
-5.20433187

>  <minimizedRMSD>
0.708935797

$$$$
