
 OpenBabel03242505333D

 43 46  0  0  1  0  0  0  0  0999 V2000
   38.5110   30.9080   41.2930 C   0  0  0  0  0  0  0  0  0  0  0  0
   38.3450   29.7540   42.0400 C   0  0  0  0  0  0  0  0  0  0  0  0
   37.1730   29.0360   42.2070 C   0  0  0  0  0  0  0  0  0  0  0  0
   36.1380   29.5830   41.5440 N   0  0  0  0  0  0  0  0  0  0  0  0
   36.2240   30.6860   40.8130 C   0  0  0  0  0  0  0  0  0  0  0  0
   37.3860   31.3130   40.7050 N   0  0  0  0  0  0  0  0  0  0  0  0
   39.2590   29.4720   42.5250 H   0  0  0  0  0  0  0  0  0  0  0  0
   35.3010   31.0120   40.3350 H   0  0  0  0  0  0  0  0  0  0  0  0
   39.6880   31.6820   41.0820 C   0  0  0  0  0  0  0  0  0  0  0  0
   40.9200   31.0570   41.2350 C   0  0  0  0  0  0  0  0  0  0  0  0
   42.1430   31.6750   41.0900 C   0  0  0  0  0  0  0  0  0  0  0  0
   42.1680   33.0160   40.7690 C   0  0  0  0  0  0  0  0  0  0  0  0
   40.9680   33.6980   40.6010 C   0  0  0  0  0  0  0  0  0  0  0  0
   40.9890   35.0250   40.2730 C   0  0  0  0  0  0  0  0  0  0  0  0
   39.8340   35.7510   40.0820 C   0  0  0  0  0  0  0  0  0  0  0  0
   38.6550   35.0320   40.2470 C   0  0  0  0  0  0  0  0  0  0  0  0
   38.6960   33.7100   40.5760 C   0  0  0  0  0  0  0  0  0  0  0  0
   39.8320   32.9950   40.7670 C   0  0  0  0  0  0  0  0  0  0  0  0
   41.0810   30.0040   41.4900 H   0  0  0  0  0  0  0  0  0  0  0  0
   43.1100   31.2110   41.2040 H   0  0  0  0  0  0  0  0  0  0  0  0
   43.1190   33.5440   40.6460 H   0  0  0  0  0  0  0  0  0  0  0  0
   41.9480   35.5390   40.1560 H   0  0  0  0  0  0  0  0  0  0  0  0
   39.9050   36.7980   39.8230 H   0  0  0  0  0  0  0  0  0  0  0  0
   37.7680   35.6510   40.0830 H   0  0  0  0  0  0  0  0  0  0  0  0
   37.6790   33.3540   40.6380 H   0  0  0  0  0  0  0  0  0  0  0  0
   37.1350   27.8360   43.0740 C   0  0  2  0  0  0  0  0  0  0  0  0
   36.2670   27.2120   42.7270 H   0  0  0  0  0  0  0  0  0  0  0  0
   36.8240   28.1420   44.4990 C   0  0  0  0  0  0  0  0  0  0  0  0
   37.7070   27.9870   45.1710 H   0  0  0  0  0  0  0  0  0  0  0  0
   35.9830   27.5900   44.9320 H   0  0  0  0  0  0  0  0  0  0  0  0
   36.5680   29.2270   44.5590 H   0  0  0  0  0  0  0  0  0  0  0  0
   38.4360   27.0770   42.9050 C   0  0  0  0  0  0  0  0  0  0  0  0
   38.9110   27.1180   43.9380 H   0  0  0  0  0  0  0  0  0  0  0  0
   39.1670   27.6950   42.3200 H   0  0  0  0  0  0  0  0  0  0  0  0
   38.3580   25.7410   42.4690 N   0  0  0  0  0  0  0  0  0  0  0  0
   37.3480   25.6820   41.5290 C   0  0  0  0  0  0  0  0  0  0  0  0
   36.9480   24.5670   40.7760 C   0  0  0  0  0  0  0  0  0  0  0  0
   37.6170   23.3790   40.9740 C   0  0  0  0  0  0  0  0  0  0  0  0
   37.3700   22.3210   40.3810 O   0  0  0  0  0  0  0  0  0  0  0  0
   38.5990   23.4110   41.8830 N   0  0  0  0  0  0  0  0  0  0  0  0
   38.8940   24.5250   42.5400 C   0  0  0  0  0  0  0  0  0  0  0  0
   39.8230   24.4370   43.3710 O   0  0  0  0  0  0  0  0  0  0  0  0
   39.1350   22.5490   42.0720 H   0  0  0  0  0  0  0  0  0  0  0  0
  1  2  1  0  0  0  0
  2  3  2  0  0  0  0
  2  7  1  0  0  0  0
  3 26  1  0  0  0  0
  4  3  1  0  0  0  0
  5  4  2  0  0  0  0
  6  5  1  0  0  0  0
  6  1  2  0  0  0  0
  8  5  1  0  0  0  0
  9 10  1  0  0  0  0
  9  1  1  0  0  0  0
 10 19  1  0  0  0  0
 11 20  1  0  0  0  0
 11 10  2  0  0  0  0
 12 11  1  0  0  0  0
 13 18  1  0  0  0  0
 13 12  2  0  0  0  0
 14 13  1  0  0  0  0
 15 16  1  0  0  0  0
 15 14  2  0  0  0  0
 16 17  2  0  0  0  0
 17 25  1  0  0  0  0
 17 18  1  0  0  0  0
 18  9  2  0  0  0  0
 21 12  1  0  0  0  0
 22 14  1  0  0  0  0
 23 15  1  0  0  0  0
 24 16  1  0  0  0  0
 26 27  1  6  0  0  0
 26 28  1  0  0  0  0
 28 31  1  0  0  0  0
 28 30  1  0  0  0  0
 28 29  1  0  0  0  0
 32 26  1  0  0  0  0
 32 33  1  0  0  0  0
 34 32  1  0  0  0  0
 35 41  1  0  0  0  0
 35 32  1  0  0  0  0
 36 35  1  0  0  0  0
 37 38  1  0  0  0  0
 37 36  2  0  0  0  0
 38 40  1  0  0  0  0
 39 38  2  0  0  0  0
 40 43  1  0  0  0  0
 40 41  1  0  0  0  0
 41 42  2  0  0  0  0
M  END
>  <minimizedAffinity>
-7.28160238

>  <minimizedRMSD>
2.13299727

$$$$
