
 OpenBabel03242504123D

 32 34  0  0  0  0  0  0  0  0999 V2000
   37.0650   29.4880   39.9660 C   0  0  0  0  0  0  0  0  0  0  0  0
   35.9930   29.1420   39.1750 C   0  0  0  0  0  0  0  0  0  0  0  0
   36.0040   29.6770   37.8930 C   0  0  0  0  0  0  0  0  0  0  0  0
   36.9660   30.4710   37.4330 N   0  0  0  0  0  0  0  0  0  0  0  0
   37.9810   30.7750   38.2410 C   0  0  0  0  0  0  0  0  0  0  0  0
   38.0390   30.2950   39.4930 N   0  0  0  0  0  0  0  0  0  0  0  0
   35.1970   28.4920   39.5370 H   0  0  0  0  0  0  0  0  0  0  0  0
   35.1870   29.4470   37.2060 H   0  0  0  0  0  0  0  0  0  0  0  0
   38.0780   29.1000   43.4910 C   0  0  0  0  0  0  0  0  0  0  0  0
   37.3120   28.0030   43.9010 C   0  0  0  0  0  0  0  0  0  0  0  0
   36.4610   27.4120   42.9710 C   0  0  0  0  0  0  0  0  0  0  0  0
   36.3980   27.9110   41.7030 N   0  0  0  0  0  0  0  0  0  0  0  0
   37.1640   28.9760   41.3590 C   0  0  0  0  0  0  0  0  0  0  0  0
   37.9970   29.5760   42.2230 N   0  0  0  0  0  0  0  0  0  0  0  0
   38.7250   29.5330   44.2340 H   0  0  0  0  0  0  0  0  0  0  0  0
   37.3660   27.6130   44.9090 H   0  0  0  0  0  0  0  0  0  0  0  0
   35.8540   26.5670   43.2420 H   0  0  0  0  0  0  0  0  0  0  0  0
   39.1200   31.6430   37.8720 C   0  0  0  0  0  0  0  0  0  0  0  0
   38.6760   32.5710   37.4480 H   0  0  0  0  0  0  0  0  0  0  0  0
   39.7080   31.0590   37.1230 H   0  0  0  0  0  0  0  0  0  0  0  0
   39.9550   31.9500   39.0920 C   0  0  0  0  0  0  0  0  0  0  0  0
   40.9850   31.5910   38.8830 H   0  0  0  0  0  0  0  0  0  0  0  0
   39.5190   31.3450   39.9320 H   0  0  0  0  0  0  0  0  0  0  0  0
   40.0120   33.3490   39.3920 N   0  0  0  0  0  0  0  0  0  0  0  0
   38.9470   33.9180   40.0200 C   0  0  0  0  0  0  0  0  0  0  0  0
   38.8930   35.2550   40.3570 C   0  0  0  0  0  0  0  0  0  0  0  0
   39.9610   36.0790   40.0540 C   0  0  0  0  0  0  0  0  0  0  0  0
   39.9480   37.3030   40.3450 O   0  0  0  0  0  0  0  0  0  0  0  0
   41.0000   35.4830   39.4310 N   0  0  0  0  0  0  0  0  0  0  0  0
   41.0510   34.1800   39.1040 C   0  0  0  0  0  0  0  0  0  0  0  0
   42.0290   33.6750   38.5310 O   0  0  0  0  0  0  0  0  0  0  0  0
   41.8060   36.1090   39.2020 H   0  0  0  0  0  0  0  0  0  0  0  0
  1 13  1  0  0  0  0
  2  7  1  0  0  0  0
  2  1  2  0  0  0  0
  3  2  1  0  0  0  0
  4  3  2  0  0  0  0
  4  5  1  0  0  0  0
  5  6  2  0  0  0  0
  6  1  1  0  0  0  0
  8  3  1  0  0  0  0
  9 10  1  0  0  0  0
  9 15  1  0  0  0  0
 10 16  1  0  0  0  0
 11 17  1  0  0  0  0
 11 10  2  0  0  0  0
 12 11  1  0  0  0  0
 13 12  2  0  0  0  0
 13 14  1  0  0  0  0
 14  9  2  0  0  0  0
 18  5  1  0  0  0  0
 18 21  1  0  0  0  0
 19 18  1  0  0  0  0
 20 18  1  0  0  0  0
 21 24  1  0  0  0  0
 21 23  1  0  0  0  0
 22 21  1  0  0  0  0
 24 25  1  0  0  0  0
 25 26  2  0  0  0  0
 27 28  2  0  0  0  0
 27 26  1  0  0  0  0
 29 27  1  0  0  0  0
 30 24  1  0  0  0  0
 30 29  1  0  0  0  0
 31 30  2  0  0  0  0
 32 29  1  0  0  0  0
M  END
>  <minimizedAffinity>
-5.70272207

>  <minimizedRMSD>
1.36726308

$$$$
