
 OpenBabel03242508503D

 44 47  0  0  1  0  0  0  0  0999 V2000
   38.4620   31.4530   39.7390 C   0  0  2  0  0  0  0  0  0  0  0  0
   37.7070   32.4760   40.3990 C   0  0  0  0  0  0  0  0  0  0  0  0
   38.6590   33.6730   40.5200 C   0  0  0  0  0  0  0  0  0  0  0  0
   39.7470   33.4250   39.4930 C   0  0  0  0  0  0  0  0  0  0  0  0
   39.2990   32.2650   38.6690 C   0  0  1  0  0  0  0  0  0  0  0  0
   39.2390   31.0480   40.3590 H   0  0  0  0  0  0  0  0  0  0  0  0
   37.2610   32.2180   41.3620 H   0  0  0  0  0  0  0  0  0  0  0  0
   36.8680   32.8290   39.7420 H   0  0  0  0  0  0  0  0  0  0  0  0
   39.0210   33.6650   41.5620 H   0  0  0  0  0  0  0  0  0  0  0  0
   38.1370   34.6320   40.3180 H   0  0  0  0  0  0  0  0  0  0  0  0
   40.6580   33.2390   40.0590 H   0  0  0  0  0  0  0  0  0  0  0  0
   39.8970   34.3590   38.9000 H   0  0  0  0  0  0  0  0  0  0  0  0
   38.6680   32.4610   37.8180 H   0  0  0  0  0  0  0  0  0  0  0  0
   36.8460   30.6470   37.9560 C   0  0  0  0  0  0  0  0  0  0  0  0
   37.7090   30.3930   39.0770 C   0  0  0  0  0  0  0  0  0  0  0  0
   37.8380   29.1210   39.5600 C   0  0  0  0  0  0  0  0  0  0  0  0
   37.1090   28.1400   38.9180 N   0  0  0  0  0  0  0  0  0  0  0  0
   36.2820   28.3900   37.8430 C   0  0  0  0  0  0  0  0  0  0  0  0
   36.1530   29.6780   37.3570 N   0  0  0  0  0  0  0  0  0  0  0  0
   35.5690   27.2960   37.2590 N   0  0  0  0  0  0  0  0  0  0  0  0
   36.7720   31.6620   37.6080 H   0  0  0  0  0  0  0  0  0  0  0  0
   36.0640   26.4270   36.9150 H   0  0  0  0  0  0  0  0  0  0  0  0
   34.5370   27.2990   37.1450 H   0  0  0  0  0  0  0  0  0  0  0  0
   38.6140   28.6230   40.6730 C   0  0  0  0  0  0  0  0  0  0  0  0
   39.4400   29.3630   40.9520 H   0  0  0  0  0  0  0  0  0  0  0  0
   39.2280   27.7360   40.4150 H   0  0  0  0  0  0  0  0  0  0  0  0
   37.8770   28.3010   41.8750 N   0  0  0  0  0  0  0  0  0  0  0  0
   37.0130   27.3440   42.2430 C   0  0  0  0  0  0  0  0  0  0  0  0
   36.4250   27.2660   43.4810 C   0  0  0  0  0  0  0  0  0  0  0  0
   36.6920   28.2020   44.4560 C   0  0  0  0  0  0  0  0  0  0  0  0
   36.1010   28.0310   45.5380 O   0  0  0  0  0  0  0  0  0  0  0  0
   37.5550   29.1720   44.1110 N   0  0  0  0  0  0  0  0  0  0  0  0
   38.1050   29.2020   42.8850 C   0  0  0  0  0  0  0  0  0  0  0  0
   38.8960   30.1980   42.7500 O   0  0  0  0  0  0  0  0  0  0  0  0
   37.7480   29.8710   44.8590 H   0  0  0  0  0  0  0  0  0  0  0  0
   40.5800   31.5890   38.3260 C   0  0  0  0  0  0  0  0  0  0  0  0
   41.2640   30.8310   39.2460 N   0  0  0  0  0  0  0  0  0  0  0  0
   42.3390   30.3690   38.6480 O   0  0  0  0  0  0  0  0  0  0  0  0
   42.3400   30.8080   37.4160 C   0  0  0  0  0  0  0  0  0  0  0  0
   41.2600   31.5690   37.1820 N   0  0  0  0  0  0  0  0  0  0  0  0
   43.4490   30.4490   36.4680 C   0  0  0  0  0  0  0  0  0  0  0  0
   44.2390   31.5380   36.2530 F   0  0  0  0  0  0  0  0  0  0  0  0
   44.2190   29.4200   36.9910 F   0  0  0  0  0  0  0  0  0  0  0  0
   42.9230   30.0510   35.2450 F   0  0  0  0  0  0  0  0  0  0  0  0
  1  6  1  1  0  0  0
  1  2  1  0  0  0  0
  2  3  1  0  0  0  0
  2  7  1  0  0  0  0
  3  9  1  0  0  0  0
  4 11  1  0  0  0  0
  4  3  1  0  0  0  0
  5 13  1  6  0  0  0
  5  4  1  0  0  0  0
  5  1  1  0  0  0  0
  8  2  1  0  0  0  0
 10  3  1  0  0  0  0
 12  4  1  0  0  0  0
 14 15  1  0  0  0  0
 15 16  2  0  0  0  0
 15  1  1  0  0  0  0
 16 24  1  0  0  0  0
 17 16  1  0  0  0  0
 18 17  2  0  0  0  0
 19 18  1  0  0  0  0
 19 14  2  0  0  0  0
 20 18  1  0  0  0  0
 21 14  1  0  0  0  0
 22 20  1  0  0  0  0
 23 20  1  0  0  0  0
 24 25  1  0  0  0  0
 24 27  1  0  0  0  0
 26 24  1  0  0  0  0
 27 28  1  0  0  0  0
 27 33  1  0  0  0  0
 28 29  2  0  0  0  0
 29 30  1  0  0  0  0
 30 31  2  0  0  0  0
 32 30  1  0  0  0  0
 32 35  1  0  0  0  0
 33 32  1  0  0  0  0
 34 33  2  0  0  0  0
 36  5  1  0  0  0  0
 36 37  2  0  0  0  0
 38 37  1  0  0  0  0
 39 38  1  0  0  0  0
 40 39  2  0  0  0  0
 40 36  1  0  0  0  0
 41 43  1  0  0  0  0
 41 39  1  0  0  0  0
 42 41  1  0  0  0  0
 44 41  1  0  0  0  0
M  END
>  <minimizedAffinity>
-6.33539438

>  <minimizedRMSD>
6.70326996

$$$$
