
 OpenBabel03242507433D

 43 46  0  0  0  0  0  0  0  0999 V2000
   38.9760   27.7750   43.4040 C   0  0  0  0  0  0  0  0  0  0  0  0
   38.4100   26.4840   43.2980 C   0  0  0  0  0  0  0  0  0  0  0  0
   37.7790   26.1900   42.0980 C   0  0  0  0  0  0  0  0  0  0  0  0
   37.7330   27.1090   41.1210 N   0  0  0  0  0  0  0  0  0  0  0  0
   38.2770   28.3250   41.2480 C   0  0  0  0  0  0  0  0  0  0  0  0
   38.9010   28.6640   42.3890 N   0  0  0  0  0  0  0  0  0  0  0  0
   37.1750   24.9480   41.8540 N   0  0  0  0  0  0  0  0  0  0  0  0
   38.2440   29.3220   40.2330 N   0  0  0  0  0  0  0  0  0  0  0  0
   37.7590   28.9320   39.0290 C   0  0  0  0  0  0  0  0  0  0  0  0
   37.6440   29.7550   37.9110 C   0  0  0  0  0  0  0  0  0  0  0  0
   38.0630   31.0490   38.0860 C   0  0  0  0  0  0  0  0  0  0  0  0
   37.9910   31.8560   37.1260 O   0  0  0  0  0  0  0  0  0  0  0  0
   38.5390   31.4190   39.2850 N   0  0  0  0  0  0  0  0  0  0  0  0
   38.6330   30.5940   40.3370 C   0  0  0  0  0  0  0  0  0  0  0  0
   39.0800   30.9370   41.4580 O   0  0  0  0  0  0  0  0  0  0  0  0
   39.4830   28.0350   44.3450 H   0  0  0  0  0  0  0  0  0  0  0  0
   38.4520   25.7610   44.0780 H   0  0  0  0  0  0  0  0  0  0  0  0
   37.7620   24.1930   41.4530 H   0  0  0  0  0  0  0  0  0  0  0  0
   36.1660   24.8640   42.0960 H   0  0  0  0  0  0  0  0  0  0  0  0
   37.4250   27.9020   38.8850 H   0  0  0  0  0  0  0  0  0  0  0  0
   38.9870   32.7550   39.5130 C   0  0  0  0  0  0  0  0  0  0  0  0
   38.0780   33.6790   39.9890 C   0  0  0  0  0  0  0  0  0  0  0  0
   38.5250   34.9700   40.2050 C   0  0  0  0  0  0  0  0  0  0  0  0
   39.8480   35.2660   39.9360 C   0  0  0  0  0  0  0  0  0  0  0  0
   40.7450   34.3570   39.4660 C   0  0  0  0  0  0  0  0  0  0  0  0
   40.3240   33.0500   39.2400 C   0  0  0  0  0  0  0  0  0  0  0  0
   37.0630   33.3490   40.1700 H   0  0  0  0  0  0  0  0  0  0  0  0
   37.7710   35.6430   40.5760 H   0  0  0  0  0  0  0  0  0  0  0  0
   40.0730   36.3210   40.1490 H   0  0  0  0  0  0  0  0  0  0  0  0
   41.7580   34.6970   39.2900 H   0  0  0  0  0  0  0  0  0  0  0  0
   41.0210   32.3310   38.8720 H   0  0  0  0  0  0  0  0  0  0  0  0
   37.1150   29.2260   36.6420 C   0  0  0  0  0  0  0  0  0  0  0  0
   37.5730   28.2190   36.4610 H   0  0  0  0  0  0  0  0  0  0  0  0
   37.5820   29.8680   35.8370 H   0  0  0  0  0  0  0  0  0  0  0  0
   35.6920   29.1940   36.5340 N   0  0  0  0  0  0  0  0  0  0  0  0
   34.7710   29.0680   37.5040 C   0  0  0  0  0  0  0  0  0  0  0  0
   33.4120   29.0530   37.2990 C   0  0  0  0  0  0  0  0  0  0  0  0
   32.9460   29.1750   36.0090 C   0  0  0  0  0  0  0  0  0  0  0  0
   31.7140   29.1700   35.7500 O   0  0  0  0  0  0  0  0  0  0  0  0
   33.8590   29.3040   35.0140 N   0  0  0  0  0  0  0  0  0  0  0  0
   35.1650   29.3110   35.2790 C   0  0  0  0  0  0  0  0  0  0  0  0
   35.9160   29.4390   34.2600 O   0  0  0  0  0  0  0  0  0  0  0  0
   33.4830   29.3970   34.0400 H   0  0  0  0  0  0  0  0  0  0  0  0
  1 16  1  0  0  0  0
  2  1  1  0  0  0  0
  2 17  1  0  0  0  0
  3  2  2  0  0  0  0
  4  5  2  0  0  0  0
  4  3  1  0  0  0  0
  5  6  1  0  0  0  0
  6  1  2  0  0  0  0
  7 19  1  0  0  0  0
  7  3  1  0  0  0  0
  8 14  1  0  0  0  0
  8  5  1  0  0  0  0
  9  8  1  0  0  0  0
 10 11  1  0  0  0  0
 10  9  2  0  0  0  0
 11 13  1  0  0  0  0
 12 11  2  0  0  0  0
 13 21  1  0  0  0  0
 13 14  1  0  0  0  0
 14 15  2  0  0  0  0
 18  7  1  0  0  0  0
 20  9  1  0  0  0  0
 21 22  1  0  0  0  0
 22 27  1  0  0  0  0
 22 23  2  0  0  0  0
 23 28  1  0  0  0  0
 24 29  1  0  0  0  0
 24 23  1  0  0  0  0
 25 24  2  0  0  0  0
 26 25  1  0  0  0  0
 26 21  2  0  0  0  0
 30 25  1  0  0  0  0
 31 26  1  0  0  0  0
 32 10  1  0  0  0  0
 33 32  1  0  0  0  0
 34 32  1  0  0  0  0
 35 32  1  0  0  0  0
 35 36  1  0  0  0  0
 37 36  2  0  0  0  0
 38 37  1  0  0  0  0
 39 38  2  0  0  0  0
 40 41  1  0  0  0  0
 40 38  1  0  0  0  0
 41 35  1  0  0  0  0
 42 41  2  0  0  0  0
 43 40  1  0  0  0  0
M  END
>  <minimizedAffinity>
-6.5903616

>  <minimizedRMSD>
1.22561121

$$$$
