
 OpenBabel03242501503D

 44 47  0  0  0  0  0  0  0  0999 V2000
   39.2860   30.2230   42.7360 C   0  0  0  0  0  0  0  0  0  0  0  0
   38.6480   29.1850   42.0620 C   0  0  0  0  0  0  0  0  0  0  0  0
   38.2760   29.4360   40.7460 C   0  0  0  0  0  0  0  0  0  0  0  0
   38.5760   30.6480   40.2850 N   0  0  0  0  0  0  0  0  0  0  0  0
   39.1720   31.6480   40.8820 C   0  0  0  0  0  0  0  0  0  0  0  0
   39.5170   31.3800   42.1400 N   0  0  0  0  0  0  0  0  0  0  0  0
   39.5710   30.0000   43.7800 H   0  0  0  0  0  0  0  0  0  0  0  0
   38.4170   28.2080   42.4660 H   0  0  0  0  0  0  0  0  0  0  0  0
   39.5450   32.9950   40.4790 C   0  0  0  0  0  0  0  0  0  0  0  0
   38.8860   34.1160   40.8530 N   0  0  0  0  0  0  0  0  0  0  0  0
   39.1880   35.3560   40.5150 C   0  0  0  0  0  0  0  0  0  0  0  0
   40.2240   35.6010   39.7340 N   0  0  0  0  0  0  0  0  0  0  0  0
   40.9680   34.5840   39.2880 C   0  0  0  0  0  0  0  0  0  0  0  0
   42.0630   34.8400   38.4610 C   0  0  0  0  0  0  0  0  0  0  0  0
   42.8450   33.8140   37.9880 C   0  0  0  0  0  0  0  0  0  0  0  0
   42.5020   32.5160   38.3620 C   0  0  0  0  0  0  0  0  0  0  0  0
   41.4100   32.3230   39.1790 C   0  0  0  0  0  0  0  0  0  0  0  0
   40.6060   33.3090   39.6730 C   0  0  0  0  0  0  0  0  0  0  0  0
   38.5310   36.1280   40.9220 H   0  0  0  0  0  0  0  0  0  0  0  0
   42.2650   35.8750   38.2150 H   0  0  0  0  0  0  0  0  0  0  0  0
   43.6800   34.0430   37.3550 H   0  0  0  0  0  0  0  0  0  0  0  0
   43.1120   31.7010   37.9930 H   0  0  0  0  0  0  0  0  0  0  0  0
   41.1840   31.2880   39.4430 H   0  0  0  0  0  0  0  0  0  0  0  0
   37.5910   28.4780   39.8510 C   0  0  0  0  0  0  0  0  0  0  0  0
   38.5990   27.6260   39.1140 C   0  0  0  0  0  0  0  0  0  0  0  0
   39.1340   26.9990   39.8490 H   0  0  0  0  0  0  0  0  0  0  0  0
   38.1520   27.0110   38.3350 H   0  0  0  0  0  0  0  0  0  0  0  0
   39.3360   28.2940   38.6310 H   0  0  0  0  0  0  0  0  0  0  0  0
   36.8480   29.2550   38.7710 C   0  0  0  0  0  0  0  0  0  0  0  0
   36.0340   29.8850   39.1740 H   0  0  0  0  0  0  0  0  0  0  0  0
   36.5270   28.5210   38.0050 H   0  0  0  0  0  0  0  0  0  0  0  0
   37.6360   29.8690   38.2710 H   0  0  0  0  0  0  0  0  0  0  0  0
   36.6030   27.6200   40.5750 C   0  0  0  0  0  0  0  0  0  0  0  0
   35.5680   27.7790   40.2080 H   0  0  0  0  0  0  0  0  0  0  0  0
   36.5570   27.9110   41.6650 H   0  0  0  0  0  0  0  0  0  0  0  0
   36.8380   26.1980   40.4570 N   0  0  0  0  0  0  0  0  0  0  0  0
   37.5790   25.6790   41.4640 C   0  0  0  0  0  0  0  0  0  0  0  0
   37.9320   24.3530   41.5520 C   0  0  0  0  0  0  0  0  0  0  0  0
   37.5120   23.4910   40.5610 C   0  0  0  0  0  0  0  0  0  0  0  0
   37.8100   22.2660   40.5980 O   0  0  0  0  0  0  0  0  0  0  0  0
   36.7790   24.0410   39.5790 N   0  0  0  0  0  0  0  0  0  0  0  0
   36.4450   25.3300   39.5080 C   0  0  0  0  0  0  0  0  0  0  0  0
   35.7580   25.8460   38.5900 O   0  0  0  0  0  0  0  0  0  0  0  0
   36.4320   23.4310   38.7970 H   0  0  0  0  0  0  0  0  0  0  0  0
  1  7  1  0  0  0  0
  2  8  1  0  0  0  0
  2  1  2  0  0  0  0
  3  2  1  0  0  0  0
  4  3  2  0  0  0  0
  4  5  1  0  0  0  0
  5  6  2  0  0  0  0
  6  1  1  0  0  0  0
  9 10  1  0  0  0  0
  9  5  1  0  0  0  0
 11 10  2  0  0  0  0
 11 19  1  0  0  0  0
 12 11  1  0  0  0  0
 13 18  1  0  0  0  0
 13 12  2  0  0  0  0
 14 13  1  0  0  0  0
 15 16  1  0  0  0  0
 15 14  2  0  0  0  0
 16 17  2  0  0  0  0
 17 23  1  0  0  0  0
 17 18  1  0  0  0  0
 18  9  2  0  0  0  0
 20 14  1  0  0  0  0
 21 15  1  0  0  0  0
 22 16  1  0  0  0  0
 24 33  1  0  0  0  0
 24  3  1  0  0  0  0
 25 26  1  0  0  0  0
 25 24  1  0  0  0  0
 27 25  1  0  0  0  0
 28 25  1  0  0  0  0
 29 30  1  0  0  0  0
 29 24  1  0  0  0  0
 31 29  1  0  0  0  0
 32 29  1  0  0  0  0
 33 35  1  0  0  0  0
 34 33  1  0  0  0  0
 36 33  1  0  0  0  0
 36 37  1  0  0  0  0
 37 38  2  0  0  0  0
 39 40  2  0  0  0  0
 39 38  1  0  0  0  0
 41 39  1  0  0  0  0
 42 41  1  0  0  0  0
 42 36  1  0  0  0  0
 43 42  2  0  0  0  0
 44 41  1  0  0  0  0
M  END
>  <minimizedAffinity>
-5.78174639

>  <minimizedRMSD>
4.35303307

$$$$
