REMARK  Name = 
REMARK  2 active torsions:
REMARK  status: ('A' for Active; 'I' for Inactive)
REMARK    1  A    between atoms: C_3  and  C_7
REMARK    2  A    between atoms: C_5  and  C_13
REMARK                            x       y       z     vdW  Elec       q    Type
REMARK                         _______ _______ _______ _____ _____    ______ ____
ROOT
ATOM      1  C   UNL     1      37.971  28.880  43.371  0.00  0.00    +0.000 A 
ATOM      2  C   UNL     1      38.075  27.468  43.306  0.00  0.00    +0.000 A 
ATOM      3  C   UNL     1      37.432  26.821  42.258  0.00  0.00    +0.000 A 
ATOM      4  N   UNL     1      36.731  27.577  41.342  0.00  0.00    +0.000 NA
ATOM      5  C   UNL     1      36.665  28.913  41.452  0.00  0.00    +0.000 A 
ATOM      6  N   UNL     1      37.275  29.550  42.448  0.00  0.00    +0.000 NA
ATOM      7  H   UNL     1      38.445  29.430  44.154  0.00  0.00    +0.000 HD
ATOM      8  H   UNL     1      38.646  26.933  44.064  0.00  0.00    +0.000 HD
ENDROOT
BRANCH   3   9
ATOM      9  C   UNL     1      37.521  25.330  42.159  0.00  0.00    +0.000 C 
ATOM     10  F   UNL     1      37.656  25.059  40.805  0.00  0.00    +0.000 F 
ATOM     11  F   UNL     1      38.636  24.844  42.790  0.00  0.00    +0.000 F 
ATOM     12  F   UNL     1      36.383  24.713  42.642  0.00  0.00    +0.000 F 
ENDBRANCH   3   9
BRANCH   5  13
ATOM     13  C   UNL     1      35.877  29.655  40.405  0.00  0.00    +0.000 C 
ATOM     14  H   UNL     1      36.609  30.018  39.671  0.00  0.00    +0.000 HD
ENDBRANCH   5  13
TORSDOF 2
