
 OpenBabel03242509133D

 19 20  0  0  1  0  0  0  0  0999 V2000
   37.7960   28.7860   43.3230 C   0  0  1  0  0  0  0  0  0  0  0  0
   37.1400   27.8500   44.2070 C   0  0  0  0  0  0  0  0  0  0  0  0
   38.1470   27.2580   43.2750 C   0  0  2  0  0  0  0  0  0  0  0  0
   38.6450   29.4180   43.6900 H   0  0  0  0  0  0  0  0  0  0  0  0
   37.3270   27.8050   45.2780 H   0  0  0  0  0  0  0  0  0  0  0  0
   36.0850   27.5490   43.9390 H   0  0  0  0  0  0  0  0  0  0  0  0
   37.8480   26.7300   42.3690 H   0  0  0  0  0  0  0  0  0  0  0  0
   37.1280   29.2860   42.0630 C   0  0  0  0  0  0  0  0  0  0  0  0
   37.7240   30.4070   41.4480 C   0  0  0  0  0  0  0  0  0  0  0  0
   37.1000   30.8750   40.3020 C   0  0  0  0  0  0  0  0  0  0  0  0
   35.9750   30.2570   39.8330 N   0  0  0  0  0  0  0  0  0  0  0  0
   35.4370   29.1760   40.4640 C   0  0  0  0  0  0  0  0  0  0  0  0
   36.0350   28.7010   41.5890 N   0  0  0  0  0  0  0  0  0  0  0  0
   38.6010   30.8380   41.8710 H   0  0  0  0  0  0  0  0  0  0  0  0
   37.5180   31.7380   39.7870 H   0  0  0  0  0  0  0  0  0  0  0  0
   34.5460   28.7450   40.0280 H   0  0  0  0  0  0  0  0  0  0  0  0
   39.4690   26.9010   43.9170 C   0  0  0  0  0  0  0  0  0  0  0  0
   39.8570   25.4880   43.5120 C   0  0  0  0  0  0  0  0  0  0  0  0
   39.1150   24.7350   43.8450 H   0  0  0  0  0  0  0  0  0  0  0  0
  1  4  1  1  0  0  0
  1  2  1  0  0  0  0
  2  5  1  0  0  0  0
  3  7  1  6  0  0  0
  3  1  1  0  0  0  0
  3 17  1  0  0  0  0
  3  2  1  0  0  0  0
  6  2  1  0  0  0  0
  8  1  1  0  0  0  0
  9 14  1  0  0  0  0
  9  8  2  0  0  0  0
 10  9  1  0  0  0  0
 11 10  2  0  0  0  0
 11 12  1  0  0  0  0
 12 13  2  0  0  0  0
 13  8  1  0  0  0  0
 15 10  1  0  0  0  0
 16 12  1  0  0  0  0
 18 19  1  0  0  0  0
 18 17  1  0  0  0  0
M  END
>  <minimizedAffinity>
-3.90959287

>  <minimizedRMSD>
2.43797708

$$$$
