
 OpenBabel03242508233D

 17 18  0  0  0  0  0  0  0  0999 V2000
   38.5490   28.8160   43.2790 C   0  0  0  0  0  0  0  0  0  0  0  0
   37.9990   27.5400   43.5540 C   0  0  0  0  0  0  0  0  0  0  0  0
   36.8090   27.1850   42.8950 C   0  0  0  0  0  0  0  0  0  0  0  0
   36.2640   28.0830   42.0420 N   0  0  0  0  0  0  0  0  0  0  0  0
   36.8130   29.2840   41.8070 C   0  0  0  0  0  0  0  0  0  0  0  0
   37.9510   29.6530   42.4220 N   0  0  0  0  0  0  0  0  0  0  0  0
   39.4590   29.1080   43.7740 H   0  0  0  0  0  0  0  0  0  0  0  0
   38.4730   26.8390   44.2530 H   0  0  0  0  0  0  0  0  0  0  0  0
   36.3750   26.2070   43.0960 H   0  0  0  0  0  0  0  0  0  0  0  0
   36.0560   29.9960   40.9010 O   0  0  0  0  0  0  0  0  0  0  0  0
   36.5570   30.7070   39.8190 C   0  0  0  0  0  0  0  0  0  0  0  0
   36.6510   29.9560   38.6470 C   0  0  0  0  0  0  0  0  0  0  0  0
   37.1480   30.6040   37.5100 C   0  0  0  0  0  0  0  0  0  0  0  0
   37.5160   31.9110   37.5700 N   0  0  0  0  0  0  0  0  0  0  0  0
   37.4100   32.6090   38.7250 C   0  0  0  0  0  0  0  0  0  0  0  0
   37.7030   33.6450   38.7700 H   0  0  0  0  0  0  0  0  0  0  0  0
   36.9330   32.0030   39.8370 N   0  0  0  0  0  0  0  0  0  0  0  0
  1  2  1  0  0  0  0
  1  7  1  0  0  0  0
  2  8  1  0  0  0  0
  3  9  1  0  0  0  0
  3  2  2  0  0  0  0
  4  3  1  0  0  0  0
  5  4  2  0  0  0  0
  5  6  1  0  0  0  0
  6  1  2  0  0  0  0
 10  5  1  0  0  0  0
 11 17  1  0  0  0  0
 11 10  1  0  0  0  0
 12 11  2  0  0  0  0
 13 14  2  0  0  0  0
 13 12  1  0  0  0  0
 14 15  1  0  0  0  0
 15 16  1  0  0  0  0
 15 17  2  0  0  0  0
M  END
>  <minimizedAffinity>
-3.8677423

>  <minimizedRMSD>
1.48953652

$$$$
