
 OpenBabel03242509303D

 15 15  0  0  0  0  0  0  0  0999 V2000
   38.0580   28.7040   43.4090 C   0  0  0  0  0  0  0  0  0  0  0  0
   38.0850   27.2970   43.2130 C   0  0  0  0  0  0  0  0  0  0  0  0
   37.3520   26.7830   42.1270 C   0  0  0  0  0  0  0  0  0  0  0  0
   36.6580   27.6600   41.3240 N   0  0  0  0  0  0  0  0  0  0  0  0
   36.6750   28.9810   41.5670 C   0  0  0  0  0  0  0  0  0  0  0  0
   37.3560   29.4980   42.5840 N   0  0  0  0  0  0  0  0  0  0  0  0
   38.6490   29.0140   44.2680 H   0  0  0  0  0  0  0  0  0  0  0  0
   38.6350   26.6420   43.8550 H   0  0  0  0  0  0  0  0  0  0  0  0
   37.3650   25.3200   41.9010 C   0  0  0  0  0  0  0  0  0  0  0  0
   37.0640   25.1440   40.5650 F   0  0  0  0  0  0  0  0  0  0  0  0
   38.5740   24.7470   42.1570 F   0  0  0  0  0  0  0  0  0  0  0  0
   36.3770   24.6730   42.6530 F   0  0  0  0  0  0  0  0  0  0  0  0
   35.8990   29.9010   40.6600 C   0  0  0  0  0  2  0  0  0  0  0  0
   34.8290   29.1620   39.9240 C   0  0  0  0  0  2  0  0  0  0  0  0
   34.6020   28.2030   40.4470 H   0  0  0  0  0  0  0  0  0  0  0  0
  1  7  1  0  0  0  0
  2  1  1  0  0  0  0
  2  8  1  0  0  0  0
  3  2  2  0  0  0  0
  4  5  2  0  0  0  0
  4  3  1  0  0  0  0
  5  6  1  0  0  0  0
  6  1  2  0  0  0  0
  9  3  1  0  0  0  0
  9 11  1  0  0  0  0
  9 12  1  0  0  0  0
 10  9  1  0  0  0  0
 13  5  1  0  0  0  0
 14 15  1  0  0  0  0
 14 13  1  0  0  0  0
M  END
>  <minimizedAffinity>
-3.95472193

>  <minimizedRMSD>
0.536347628

$$$$
