
 OpenBabel03242508183D

 25 27  0  0  0  0  0  0  0  0999 V2000
   38.6480   27.3010   43.8210 C   0  0  0  0  0  0  0  0  0  0  0  0
   39.0900   26.3360   42.9160 C   0  0  0  0  0  0  0  0  0  0  0  0
   39.0650   26.6590   41.5520 C   0  0  0  0  0  0  0  0  0  0  0  0
   38.6090   27.8980   41.2180 N   0  0  0  0  0  0  0  0  0  0  0  0
   38.1910   28.8070   42.1200 C   0  0  0  0  0  0  0  0  0  0  0  0
   38.2120   28.5040   43.4260 N   0  0  0  0  0  0  0  0  0  0  0  0
   37.7700   30.0120   41.4900 N   0  0  0  0  0  0  0  0  0  0  0  0
   36.4530   30.1960   41.1470 C   0  0  0  0  0  0  0  0  0  0  0  0
   36.2910   31.4020   40.5670 N   0  0  0  0  0  0  0  0  0  0  0  0
   37.4900   31.9940   40.5340 C   0  0  0  0  0  0  0  0  0  0  0  0
   37.9830   33.2110   40.0790 C   0  0  0  0  0  0  0  0  0  0  0  0
   39.2990   33.4900   40.2110 N   0  0  0  0  0  0  0  0  0  0  0  0
   40.1470   32.6230   40.7720 C   0  0  0  0  0  0  0  0  0  0  0  0
   39.6920   31.4190   41.2290 N   0  0  0  0  0  0  0  0  0  0  0  0
   38.3910   31.1160   41.1100 C   0  0  0  0  0  0  0  0  0  0  0  0
   36.9870   34.0520   39.5090 N   0  0  0  0  0  0  0  0  0  0  0  0
   38.6390   27.1200   44.8930 H   0  0  0  0  0  0  0  0  0  0  0  0
   39.4330   25.3870   43.2480 H   0  0  0  0  0  0  0  0  0  0  0  0
   39.3920   25.9580   40.7930 H   0  0  0  0  0  0  0  0  0  0  0  0
   35.5990   29.5170   41.2870 H   0  0  0  0  0  0  0  0  0  0  0  0
   36.2630   33.6710   38.8650 H   0  0  0  0  0  0  0  0  0  0  0  0
   37.0670   35.0380   39.8000 H   0  0  0  0  0  0  0  0  0  0  0  0
   41.5680   33.0500   40.8570 C   0  0  0  0  0  0  0  0  0  0  0  0
   41.6620   34.5380   40.6360 C   0  0  0  0  0  0  0  0  0  0  0  0
   41.9940   34.7670   39.5840 H   0  0  0  0  0  0  0  0  0  0  0  0
  1 17  1  0  0  0  0
  2 18  1  0  0  0  0
  2  1  2  0  0  0  0
  3  2  1  0  0  0  0
  4  3  2  0  0  0  0
  4  5  1  0  0  0  0
  5  6  2  0  0  0  0
  6  1  1  0  0  0  0
  7  5  1  0  0  0  0
  8 20  1  0  0  0  0
  8  7  1  0  0  0  0
  9  8  2  0  0  0  0
 10  9  1  0  0  0  0
 10 15  1  0  0  0  0
 11 12  1  0  0  0  0
 11 10  2  0  0  0  0
 12 13  2  0  0  0  0
 13 23  1  0  0  0  0
 13 14  1  0  0  0  0
 15 14  2  0  0  0  0
 15  7  1  0  0  0  0
 16 22  1  0  0  0  0
 16 11  1  0  0  0  0
 19  3  1  0  0  0  0
 21 16  1  0  0  0  0
 24 23  1  0  0  0  0
 25 24  1  0  0  0  0
M  END
>  <minimizedAffinity>
-5.35873938

>  <minimizedRMSD>
1.3737992

$$$$
