
 OpenBabel03242508473D

 33 35  0  0  1  0  0  0  0  0999 V2000
   39.0140   27.1690   42.8950 C   0  0  2  0  0  0  0  0  0  0  0  0
   40.2030   27.2760   43.7220 C   0  0  0  0  0  0  0  0  0  0  0  0
   40.7410   25.8520   43.8330 C   0  0  0  0  0  0  0  0  0  0  0  0
   40.0160   25.0460   42.7910 C   0  0  0  0  0  0  0  0  0  0  0  0
   39.3330   26.0570   41.8900 C   0  0  1  0  0  0  0  0  0  0  0  0
   38.1620   26.7220   43.4870 H   0  0  0  0  0  0  0  0  0  0  0  0
   39.9020   27.5510   44.7700 H   0  0  0  0  0  0  0  0  0  0  0  0
   41.0110   27.9380   43.4070 H   0  0  0  0  0  0  0  0  0  0  0  0
   41.8150   25.8300   43.5560 H   0  0  0  0  0  0  0  0  0  0  0  0
   40.6720   25.4360   44.8390 H   0  0  0  0  0  0  0  0  0  0  0  0
   40.6680   24.3610   42.2150 H   0  0  0  0  0  0  0  0  0  0  0  0
   39.2850   24.4250   43.3460 H   0  0  0  0  0  0  0  0  0  0  0  0
   39.9460   26.4130   41.0720 H   0  0  0  0  0  0  0  0  0  0  0  0
   39.3470   29.1240   41.3140 C   0  0  0  0  0  0  0  0  0  0  0  0
   38.5390   28.3790   42.2330 C   0  0  0  0  0  0  0  0  0  0  0  0
   37.2530   28.7930   42.5130 C   0  0  0  0  0  0  0  0  0  0  0  0
   36.8000   29.9290   41.8800 N   0  0  0  0  0  0  0  0  0  0  0  0
   37.5970   30.6370   40.9910 C   0  0  0  0  0  0  0  0  0  0  0  0
   38.8650   30.2190   40.7230 N   0  0  0  0  0  0  0  0  0  0  0  0
   40.3530   28.8040   41.0890 H   0  0  0  0  0  0  0  0  0  0  0  0
   36.6070   28.2810   43.1880 H   0  0  0  0  0  0  0  0  0  0  0  0
   37.0860   31.8580   40.3200 C   0  0  0  0  0  0  0  0  0  0  0  0
   37.1620   31.7760   38.8340 C   0  0  0  0  0  0  0  0  0  0  0  0
   36.3660   32.4150   38.3730 H   0  0  0  0  0  0  0  0  0  0  0  0
   38.1270   25.3020   41.4390 C   0  0  0  0  0  0  0  0  0  0  0  0
   37.2770   24.7110   42.3150 N   0  0  0  0  0  0  0  0  0  0  0  0
   36.3280   24.1360   41.6110 O   0  0  0  0  0  0  0  0  0  0  0  0
   36.5640   24.3520   40.3400 C   0  0  0  0  0  0  0  0  0  0  0  0
   37.6800   25.0760   40.1910 N   0  0  0  0  0  0  0  0  0  0  0  0
   35.6520   23.8190   39.2740 C   0  0  0  0  0  0  0  0  0  0  0  0
   34.5610   23.2240   39.8680 F   0  0  0  0  0  0  0  0  0  0  0  0
   35.2300   24.8490   38.4420 F   0  0  0  0  0  0  0  0  0  0  0  0
   36.3140   22.8690   38.5080 F   0  0  0  0  0  0  0  0  0  0  0  0
  1  6  1  1  0  0  0
  1  2  1  0  0  0  0
  2  3  1  0  0  0  0
  2  7  1  0  0  0  0
  3 10  1  0  0  0  0
  4 12  1  0  0  0  0
  4  3  1  0  0  0  0
  5 13  1  6  0  0  0
  5  4  1  0  0  0  0
  5  1  1  0  0  0  0
  8  2  1  0  0  0  0
  9  3  1  0  0  0  0
 11  4  1  0  0  0  0
 14 15  1  0  0  0  0
 15 16  2  0  0  0  0
 15  1  1  0  0  0  0
 16 21  1  0  0  0  0
 17 16  1  0  0  0  0
 18 17  2  0  0  0  0
 19 18  1  0  0  0  0
 19 14  2  0  0  0  0
 20 14  1  0  0  0  0
 22 18  1  0  0  0  0
 23 22  1  0  0  0  0
 24 23  1  0  0  0  0
 25  5  1  0  0  0  0
 25 26  2  0  0  0  0
 27 26  1  0  0  0  0
 28 27  1  0  0  0  0
 29 28  2  0  0  0  0
 29 25  1  0  0  0  0
 30 31  1  0  0  0  0
 30 28  1  0  0  0  0
 32 30  1  0  0  0  0
 33 30  1  0  0  0  0
M  END
>  <minimizedAffinity>
-5.10244131

>  <minimizedRMSD>
1.1901021

$$$$
