
 OpenBabel03242508093D

 43 46  0  0  1  0  0  0  0  0999 V2000
   39.0770   35.4900   40.2860 C   0  0  0  0  0  0  0  0  0  0  0  0
   40.3560   35.7610   39.7870 C   0  0  0  0  0  0  0  0  0  0  0  0
   41.0990   34.6470   39.3710 C   0  0  0  0  0  0  0  0  0  0  0  0
   40.5120   33.4620   39.4950 N   0  0  0  0  0  0  0  0  0  0  0  0
   39.3100   33.1750   39.9610 C   0  0  0  0  0  0  0  0  0  0  0  0
   38.6260   34.2510   40.3490 N   0  0  0  0  0  0  0  0  0  0  0  0
   38.5370   36.3810   40.5960 H   0  0  0  0  0  0  0  0  0  0  0  0
   40.7880   36.7350   39.7050 H   0  0  0  0  0  0  0  0  0  0  0  0
   38.5670   31.9440   40.1460 C   0  0  0  0  0  0  0  0  0  0  0  0
   38.4140   31.3360   41.3370 N   0  0  0  0  0  0  0  0  0  0  0  0
   37.7420   30.2100   41.5460 C   0  0  0  0  0  0  0  0  0  0  0  0
   37.1510   29.5870   40.5550 N   0  0  0  0  0  0  0  0  0  0  0  0
   37.2270   30.0920   39.3060 C   0  0  0  0  0  0  0  0  0  0  0  0
   36.6000   29.4330   38.2580 C   0  0  0  0  0  0  0  0  0  0  0  0
   36.6650   29.9300   36.9890 C   0  0  0  0  0  0  0  0  0  0  0  0
   37.3750   31.1200   36.7640 C   0  0  0  0  0  0  0  0  0  0  0  0
   37.9720   31.7190   37.8570 C   0  0  0  0  0  0  0  0  0  0  0  0
   37.9350   31.2610   39.1340 C   0  0  0  0  0  0  0  0  0  0  0  0
   37.7560   29.9130   42.5860 H   0  0  0  0  0  0  0  0  0  0  0  0
   36.0650   28.5190   38.4860 H   0  0  0  0  0  0  0  0  0  0  0  0
   36.1660   29.3890   36.2060 H   0  0  0  0  0  0  0  0  0  0  0  0
   37.4320   31.5210   35.7620 H   0  0  0  0  0  0  0  0  0  0  0  0
   38.5170   32.6420   37.6500 H   0  0  0  0  0  0  0  0  0  0  0  0
   42.3310   34.7170   38.8700 O   0  0  0  0  0  0  0  0  0  0  0  0
   43.3990   33.8480   39.2110 C   0  0  2  0  0  0  0  0  0  0  0  0
   43.0710   32.8100   39.2460 H   0  0  0  0  0  0  0  0  0  0  0  0
   43.7900   34.1610   40.6770 C   0  0  0  0  0  0  0  0  0  0  0  0
   42.8610   33.9840   41.2640 H   0  0  0  0  0  0  0  0  0  0  0  0
   44.5160   33.4040   41.0120 H   0  0  0  0  0  0  0  0  0  0  0  0
   44.0940   35.2020   40.8010 H   0  0  0  0  0  0  0  0  0  0  0  0
   44.5790   34.0920   38.3170 C   0  0  0  0  0  0  0  0  0  0  0  0
   44.3920   35.0610   37.7720 H   0  0  0  0  0  0  0  0  0  0  0  0
   45.4650   34.3310   38.9640 H   0  0  0  0  0  0  0  0  0  0  0  0
   44.8410   33.0330   37.4000 N   0  0  0  0  0  0  0  0  0  0  0  0
   43.8850   32.0820   37.3060 C   0  0  0  0  0  0  0  0  0  0  0  0
   44.0890   31.0290   36.4300 C   0  0  0  0  0  0  0  0  0  0  0  0
   45.2720   31.0490   35.7190 C   0  0  0  0  0  0  0  0  0  0  0  0
   45.5260   29.9970   34.8130 N   0  0  0  0  0  0  0  0  0  0  0  0
   46.2250   32.0190   35.8280 N   0  0  0  0  0  0  0  0  0  0  0  0
   45.9900   33.0360   36.6990 C   0  0  0  0  0  0  0  0  0  0  0  0
   46.8530   33.9390   36.8160 O   0  0  0  0  0  0  0  0  0  0  0  0
   45.6040   29.6600   33.8080 H   0  0  0  0  0  0  0  0  0  0  0  0
   45.7440   29.1160   35.3550 H   0  0  0  0  0  0  0  0  0  0  0  0
  1  6  1  0  0  0  0
  1  7  1  0  0  0  0
  2  1  2  0  0  0  0
  3  4  2  0  0  0  0
  3  2  1  0  0  0  0
  4  5  1  0  0  0  0
  5  9  1  0  0  0  0
  5  6  2  0  0  0  0
  8  2  1  0  0  0  0
  9 10  1  0  0  0  0
 10 11  2  0  0  0  0
 11 19  1  0  0  0  0
 12 11  1  0  0  0  0
 13 12  2  0  0  0  0
 14 20  1  0  0  0  0
 14 13  1  0  0  0  0
 15 14  2  0  0  0  0
 16 15  1  0  0  0  0
 16 17  2  0  0  0  0
 17 18  1  0  0  0  0
 18 13  1  0  0  0  0
 18  9  2  0  0  0  0
 21 15  1  0  0  0  0
 22 16  1  0  0  0  0
 23 17  1  0  0  0  0
 24 25  1  0  0  0  0
 24  3  1  0  0  0  0
 25 26  1  6  0  0  0
 25 27  1  0  0  0  0
 27 30  1  0  0  0  0
 27 29  1  0  0  0  0
 27 28  1  0  0  0  0
 31 33  1  0  0  0  0
 31 25  1  0  0  0  0
 32 31  1  0  0  0  0
 34 31  1  0  0  0  0
 35 34  1  0  0  0  0
 36 35  2  0  0  0  0
 37 39  2  0  0  0  0
 37 36  1  0  0  0  0
 38 43  1  0  0  0  0
 38 37  1  0  0  0  0
 39 40  1  0  0  0  0
 40 41  2  0  0  0  0
 40 34  1  0  0  0  0
 42 38  1  0  0  0  0
M  END
>  <minimizedAffinity>
-6.27907372

>  <minimizedRMSD>
2.35836005

$$$$
