
 OpenBabel03242508593D

 19 20  0  0  1  0  0  0  0  0999 V2000
   38.0210   28.8330   43.4440 C   0  0  1  0  0  0  0  0  0  0  0  0
   37.0620   27.6900   43.5550 C   0  0  0  0  0  0  0  0  0  0  0  0
   38.4110   27.4040   43.0070 C   0  0  2  0  0  0  0  0  0  0  0  0
   38.6110   29.2310   44.2690 H   0  0  0  0  0  0  0  0  0  0  0  0
   36.7950   27.3180   44.5660 H   0  0  0  0  0  0  0  0  0  0  0  0
   36.2240   27.6240   42.8360 H   0  0  0  0  0  0  0  0  0  0  0  0
   38.5680   27.2820   41.9290 H   0  0  0  0  0  0  0  0  0  0  0  0
   36.2550   30.7070   40.7930 C   0  0  0  0  0  0  0  0  0  0  0  0
   37.2800   31.5430   40.2980 C   0  0  0  0  0  0  0  0  0  0  0  0
   38.5650   31.4430   40.8820 C   0  0  0  0  0  0  0  0  0  0  0  0
   38.7590   30.5550   41.8850 N   0  0  0  0  0  0  0  0  0  0  0  0
   37.7360   29.7670   42.3290 C   0  0  0  0  0  0  0  0  0  0  0  0
   36.5000   29.8400   41.7900 N   0  0  0  0  0  0  0  0  0  0  0  0
   35.2830   30.8020   40.3310 H   0  0  0  0  0  0  0  0  0  0  0  0
   37.0520   32.2300   39.4950 H   0  0  0  0  0  0  0  0  0  0  0  0
   39.3290   32.0950   40.4830 H   0  0  0  0  0  0  0  0  0  0  0  0
   39.4540   26.7420   43.8820 C   0  0  0  0  0  0  0  0  0  0  0  0
   39.7850   25.3540   43.3760 C   0  0  0  0  0  0  0  0  0  0  0  0
   40.7610   25.0120   43.7770 H   0  0  0  0  0  0  0  0  0  0  0  0
  1  2  1  0  0  0  0
  1  4  1  1  0  0  0
  2  5  1  0  0  0  0
  3  7  1  6  0  0  0
  3  1  1  0  0  0  0
  3  2  1  0  0  0  0
  3 17  1  0  0  0  0
  6  2  1  0  0  0  0
  8 13  1  0  0  0  0
  9  8  2  0  0  0  0
  9 10  1  0  0  0  0
 10 11  2  0  0  0  0
 11 12  1  0  0  0  0
 12  1  1  0  0  0  0
 13 12  2  0  0  0  0
 14  8  1  0  0  0  0
 15  9  1  0  0  0  0
 16 10  1  0  0  0  0
 18 19  1  0  0  0  0
 18 17  1  0  0  0  0
M  END
>  <minimizedAffinity>
-3.93605709

>  <minimizedRMSD>
5.23736143

$$$$
