
 OpenBabel03242509313D

 15 15  0  0  0  0  0  0  0  0999 V2000
   38.0200   28.8780   43.3830 C   0  0  0  0  0  0  0  0  0  0  0  0
   38.0710   27.4620   43.2760 C   0  0  0  0  0  0  0  0  0  0  0  0
   37.3720   26.8710   42.2060 C   0  0  0  0  0  0  0  0  0  0  0  0
   36.6870   27.6860   41.3340 N   0  0  0  0  0  0  0  0  0  0  0  0
   36.6800   29.0190   41.4940 C   0  0  0  0  0  0  0  0  0  0  0  0
   37.3290   29.6090   42.4930 N   0  0  0  0  0  0  0  0  0  0  0  0
   38.5850   29.2490   44.2360 H   0  0  0  0  0  0  0  0  0  0  0  0
   38.6130   26.8560   43.9710 H   0  0  0  0  0  0  0  0  0  0  0  0
   37.4110   25.3970   42.0730 C   0  0  0  0  0  0  0  0  0  0  0  0
   37.3320   25.1410   40.7180 F   0  0  0  0  0  0  0  0  0  0  0  0
   38.5560   24.8420   42.5580 F   0  0  0  0  0  0  0  0  0  0  0  0
   36.3070   24.7940   42.6890 F   0  0  0  0  0  0  0  0  0  0  0  0
   35.9160   29.8700   40.5130 C   0  0  0  0  0  2  0  0  0  0  0  0
   34.7760   29.1130   39.9120 C   0  0  0  0  0  2  0  0  0  0  0  0
   34.5210   28.2380   40.5530 H   0  0  0  0  0  0  0  0  0  0  0  0
  1  7  1  0  0  0  0
  2  1  1  0  0  0  0
  2  8  1  0  0  0  0
  3  2  2  0  0  0  0
  4  5  2  0  0  0  0
  4  3  1  0  0  0  0
  5  6  1  0  0  0  0
  6  1  2  0  0  0  0
  9  3  1  0  0  0  0
  9 11  1  0  0  0  0
  9 12  1  0  0  0  0
 10  9  1  0  0  0  0
 13  5  1  0  0  0  0
 14 13  1  0  0  0  0
 14 15  1  0  0  0  0
M  END
>  <minimizedAffinity>
-3.95610142

>  <minimizedRMSD>
0.173901588

$$$$
