
 OpenBabel03242506193D

 29 32  0  0  0  0  0  0  0  0999 V2000
   37.7530   31.4320   40.2980 C   0  0  0  0  0  0  0  0  0  0  0  0
   39.1810   31.4910   40.3030 C   0  0  0  0  0  0  0  0  0  0  0  0
   39.8120   32.6750   40.0600 C   0  0  0  0  0  0  0  0  0  0  0  0
   39.0130   33.7600   39.8190 N   0  0  0  0  0  0  0  0  0  0  0  0
   37.6560   33.6870   39.8190 C   0  0  0  0  0  0  0  0  0  0  0  0
   37.0220   32.5230   40.0580 N   0  0  0  0  0  0  0  0  0  0  0  0
   37.2650   30.4910   40.4940 H   0  0  0  0  0  0  0  0  0  0  0  0
   37.1840   34.6320   39.6120 H   0  0  0  0  0  0  0  0  0  0  0  0
   41.2580   32.8780   40.0470 C   0  0  0  0  0  0  0  0  0  0  0  0
   42.3650   32.4810   39.4870 N   0  0  0  0  0  0  0  0  0  0  0  0
   43.3930   33.0910   39.9510 O   0  0  0  0  0  0  0  0  0  0  0  0
   43.0550   33.9480   40.8590 C   0  0  0  0  0  0  0  0  0  0  0  0
   41.7520   33.8100   40.9100 N   0  0  0  0  0  0  0  0  0  0  0  0
   43.8240   34.8520   41.6560 N   0  0  0  0  0  0  0  0  0  0  0  0
   45.1580   35.0120   41.5960 C   0  0  0  0  0  0  0  0  0  0  0  0
   45.5180   35.9340   42.4900 N   0  0  0  0  0  0  0  0  0  0  0  0
   44.4020   36.3540   43.1150 C   0  0  0  0  0  0  0  0  0  0  0  0
   43.3410   35.6820   42.6000 N   0  0  0  0  0  0  0  0  0  0  0  0
   45.8090   34.4570   40.9090 H   0  0  0  0  0  0  0  0  0  0  0  0
   44.3270   37.0980   43.8990 H   0  0  0  0  0  0  0  0  0  0  0  0
   39.8610   30.2330   40.5640 C   0  0  0  0  0  0  0  0  0  0  0  0
   40.2810   29.4470   39.4270 C   0  0  0  0  0  0  0  0  0  0  0  0
   41.0850   27.9650   40.1690 S   0  0  0  0  0  0  0  0  0  0  0  0
   40.6990   28.6950   41.9230 C   0  0  0  0  0  0  0  0  0  0  0  0
   40.1810   29.6510   41.6910 N   0  0  0  0  0  0  0  0  0  0  0  0
   40.1520   29.6750   38.3710 H   0  0  0  0  0  0  0  0  0  0  0  0
   41.0970   27.9710   43.2120 C   0  0  0  0  0  0  0  0  0  0  0  0
   39.9350   27.1340   43.5890 C   0  0  0  0  0  0  0  0  0  0  0  0
   39.3500   27.6060   44.4320 H   0  0  0  0  0  0  0  0  0  0  0  0
  1  2  1  0  0  0  0
  1  7  1  0  0  0  0
  2 21  1  0  0  0  0
  3  2  2  0  0  0  0
  4  5  2  0  0  0  0
  4  3  1  0  0  0  0
  5  6  1  0  0  0  0
  6  1  2  0  0  0  0
  8  5  1  0  0  0  0
  9  3  1  0  0  0  0
  9 13  1  0  0  0  0
 10 11  1  0  0  0  0
 10  9  2  0  0  0  0
 11 12  1  0  0  0  0
 12 13  2  0  0  0  0
 12 14  1  0  0  0  0
 14 18  1  0  0  0  0
 15 14  1  0  0  0  0
 15 16  2  0  0  0  0
 16 17  1  0  0  0  0
 17 20  1  0  0  0  0
 18 17  2  0  0  0  0
 19 15  1  0  0  0  0
 21 25  1  0  0  0  0
 22 23  1  0  0  0  0
 22 21  2  0  0  0  0
 23 24  1  0  0  0  0
 24 27  1  0  0  0  0
 25 24  2  0  0  0  0
 26 22  1  0  0  0  0
 27 28  1  0  0  0  0
 28 29  1  0  0  0  0
M  END
>  <minimizedAffinity>
-4.97404385

>  <minimizedRMSD>
1.8053391

$$$$
