
 OpenBabel03242506443D

 27 29  0  0  0  0  0  0  0  0999 V2000
   44.5120   26.1390   44.1010 C   0  0  0  0  0  0  0  0  0  0  0  0
   43.2630   26.2090   43.4510 C   0  0  0  0  0  0  0  0  0  0  0  0
   42.1610   26.7210   44.1360 C   0  0  0  0  0  0  0  0  0  0  0  0
   42.3430   27.1390   45.4270 N   0  0  0  0  0  0  0  0  0  0  0  0
   43.5520   27.0590   46.0220 C   0  0  0  0  0  0  0  0  0  0  0  0
   44.6260   26.5680   45.3740 N   0  0  0  0  0  0  0  0  0  0  0  0
   45.3820   25.7480   43.5920 H   0  0  0  0  0  0  0  0  0  0  0  0
   43.6720   27.5360   47.4340 C   0  0  0  0  0  0  0  0  0  0  0  0
   44.5020   28.6380   47.5110 F   0  0  0  0  0  0  0  0  0  0  0  0
   42.4330   27.9890   47.9000 F   0  0  0  0  0  0  0  0  0  0  0  0
   44.2030   26.5670   48.2740 F   0  0  0  0  0  0  0  0  0  0  0  0
   40.9740   26.7700   43.4730 O   0  0  0  0  0  0  0  0  0  0  0  0
   37.0940   29.1080   43.3560 N   0  0  0  0  0  0  0  0  0  0  0  0
   36.9060   27.8610   43.8170 C   0  0  0  0  0  0  0  0  0  0  0  0
   38.1170   27.2500   43.8120 N   0  0  0  0  0  0  0  0  0  0  0  0
   39.0660   28.0920   43.3560 C   0  0  0  0  0  0  0  0  0  0  0  0
   40.4360   27.9930   43.1480 C   0  0  0  0  0  0  0  0  0  0  0  0
   41.0940   29.0710   42.6620 N   0  0  0  0  0  0  0  0  0  0  0  0
   40.4320   30.2110   42.3880 C   0  0  0  0  0  0  0  0  0  0  0  0
   39.0960   30.3410   42.5790 N   0  0  0  0  0  0  0  0  0  0  0  0
   38.3850   29.2760   43.0700 C   0  0  0  0  0  0  0  0  0  0  0  0
   36.3030   29.8080   43.2550 H   0  0  0  0  0  0  0  0  0  0  0  0
   36.0150   27.3420   44.1520 H   0  0  0  0  0  0  0  0  0  0  0  0
   40.9850   31.0540   42.0010 H   0  0  0  0  0  0  0  0  0  0  0  0
   43.1150   25.7490   42.0660 C   0  0  0  0  0  0  0  0  0  0  0  0
   44.3930   25.7260   41.2720 C   0  0  0  0  0  0  0  0  0  0  0  0
   44.0880   25.6280   40.1900 H   0  0  0  0  0  0  0  0  0  0  0  0
  1  6  1  0  0  0  0
  2  1  2  0  0  0  0
  2  3  1  0  0  0  0
  3  4  2  0  0  0  0
  4  5  1  0  0  0  0
  5  8  1  0  0  0  0
  6  5  2  0  0  0  0
  7  1  1  0  0  0  0
  8  9  1  0  0  0  0
  8 10  1  0  0  0  0
  8 11  1  0  0  0  0
 12  3  1  0  0  0  0
 13 14  1  0  0  0  0
 14 23  1  0  0  0  0
 15 14  2  0  0  0  0
 16 15  1  0  0  0  0
 17 16  1  0  0  0  0
 17 12  1  0  0  0  0
 18 17  2  0  0  0  0
 19 20  2  0  0  0  0
 19 18  1  0  0  0  0
 20 21  1  0  0  0  0
 21 16  2  0  0  0  0
 21 13  1  0  0  0  0
 22 13  1  0  0  0  0
 24 19  1  0  0  0  0
 25  2  1  0  0  0  0
 26 25  1  0  0  0  0
 27 26  1  0  0  0  0
M  END
>  <minimizedAffinity>
-5.23293877

>  <minimizedRMSD>
0.615439892

$$$$
