
 OpenBabel03242509153D

 30 32  0  0  1  0  0  0  0  0999 V2000
   38.3450   29.1590   41.9250 C   0  0  1  0  0  0  0  0  0  0  0  0
   37.5880   28.8320   43.1650 C   0  0  0  0  0  0  0  0  0  0  0  0
   37.0600   28.3590   41.8840 C   0  0  2  0  0  0  0  0  0  0  0  0
   39.3430   28.7540   41.9470 H   0  0  0  0  0  0  0  0  0  0  0  0
   37.1370   29.7200   43.6720 H   0  0  0  0  0  0  0  0  0  0  0  0
   37.9950   28.1140   43.8760 H   0  0  0  0  0  0  0  0  0  0  0  0
   36.3760   28.9560   41.2000 H   0  0  0  0  0  0  0  0  0  0  0  0
   37.0480   26.9660   41.5560 C   0  0  0  0  0  0  0  0  0  0  0  0
   37.1800   26.0140   42.5080 C   0  0  0  0  0  0  0  0  0  0  0  0
   37.0020   24.6960   42.2340 C   0  0  0  0  0  0  0  0  0  0  0  0
   36.6880   24.3290   40.9610 C   0  0  0  0  0  0  0  0  0  0  0  0
   36.5590   25.2800   40.0070 C   0  0  0  0  0  0  0  0  0  0  0  0
   36.7390   26.6170   40.2990 C   0  0  0  0  0  0  0  0  0  0  0  0
   37.4370   26.3520   43.5240 H   0  0  0  0  0  0  0  0  0  0  0  0
   37.1290   23.9960   43.0790 H   0  0  0  0  0  0  0  0  0  0  0  0
   36.5740   23.2530   40.8710 H   0  0  0  0  0  0  0  0  0  0  0  0
   36.3090   24.7760   39.0590 H   0  0  0  0  0  0  0  0  0  0  0  0
   36.4520   27.3880   39.0860 C   0  0  0  0  0  0  0  0  0  0  0  0
   37.4330   28.2260   38.6730 F   0  0  0  0  0  0  0  0  0  0  0  0
   35.4100   28.2750   39.2510 F   0  0  0  0  0  0  0  0  0  0  0  0
   35.9250   26.5700   38.0670 F   0  0  0  0  0  0  0  0  0  0  0  0
   38.2580   30.5460   41.3930 C   0  0  0  0  0  0  0  0  0  0  0  0
   37.1260   30.8680   40.6810 C   0  0  0  0  0  0  0  0  0  0  0  0
   36.9300   32.1370   40.1340 C   0  0  0  0  0  0  0  0  0  0  0  0
   37.9530   33.0430   40.3610 N   0  0  0  0  0  0  0  0  0  0  0  0
   39.0610   32.6950   41.0730 C   0  0  0  0  0  0  0  0  0  0  0  0
   39.2000   31.4200   41.5900 N   0  0  0  0  0  0  0  0  0  0  0  0
   36.2480   30.4170   40.3870 H   0  0  0  0  0  0  0  0  0  0  0  0
   36.1700   32.6250   39.5590 H   0  0  0  0  0  0  0  0  0  0  0  0
   39.8490   33.4130   41.2420 H   0  0  0  0  0  0  0  0  0  0  0  0
  1  4  1  6  0  0  0
  1  2  1  0  0  0  0
  2  5  1  0  0  0  0
  2  6  1  0  0  0  0
  3  7  1  6  0  0  0
  3  1  1  0  0  0  0
  3  2  1  0  0  0  0
  8  3  1  0  0  0  0
  8  9  1  0  0  0  0
  9 14  1  0  0  0  0
 10  9  2  0  0  0  0
 10 15  1  0  0  0  0
 11 10  1  0  0  0  0
 12 13  1  0  0  0  0
 12 11  2  0  0  0  0
 13  8  2  0  0  0  0
 16 11  1  0  0  0  0
 17 12  1  0  0  0  0
 18 20  1  0  0  0  0
 18 13  1  0  0  0  0
 19 18  1  0  0  0  0
 21 18  1  0  0  0  0
 22 27  1  0  0  0  0
 22  1  1  0  0  0  0
 23 22  2  0  0  0  0
 24 25  2  0  0  0  0
 24 23  1  0  0  0  0
 25 26  1  0  0  0  0
 26 30  1  0  0  0  0
 26 27  2  0  0  0  0
 28 23  1  0  0  0  0
 29 24  1  0  0  0  0
M  END
>  <minimizedAffinity>
-5.21211624

>  <minimizedRMSD>
0.893447399

$$$$
