
 OpenBabel03242509303D

 16 16  0  0  0  0  0  0  0  0999 V2000
   38.0110   28.8640   43.3690 C   0  0  0  0  0  0  0  0  0  0  0  0
   38.1330   27.4520   43.3030 C   0  0  0  0  0  0  0  0  0  0  0  0
   37.4400   26.8000   42.2670 C   0  0  0  0  0  0  0  0  0  0  0  0
   36.7040   27.5730   41.4030 N   0  0  0  0  0  0  0  0  0  0  0  0
   36.6150   28.9040   41.4990 C   0  0  0  0  0  0  0  0  0  0  0  0
   37.2760   29.5330   42.4900 N   0  0  0  0  0  0  0  0  0  0  0  0
   38.5640   29.3280   44.1860 H   0  0  0  0  0  0  0  0  0  0  0  0
   38.7260   26.9010   44.0080 H   0  0  0  0  0  0  0  0  0  0  0  0
   37.5380   25.3180   42.1560 C   0  0  0  0  0  0  0  0  0  0  0  0
   37.6570   25.0530   40.8120 F   0  0  0  0  0  0  0  0  0  0  0  0
   38.6310   24.8220   42.7880 F   0  0  0  0  0  0  0  0  0  0  0  0
   36.3810   24.7020   42.6330 F   0  0  0  0  0  0  0  0  0  0  0  0
   35.7820   29.6190   40.4970 C   0  0  0  0  0  0  0  0  0  0  0  0
   34.4960   29.1020   40.5030 F   0  0  0  0  0  0  0  0  0  0  0  0
   35.7330   30.9750   40.7440 F   0  0  0  0  0  0  0  0  0  0  0  0
   36.3370   29.4200   39.2520 F   0  0  0  0  0  0  0  0  0  0  0  0
  1  7  1  0  0  0  0
  2  1  1  0  0  0  0
  2  8  1  0  0  0  0
  3  2  2  0  0  0  0
  4  5  2  0  0  0  0
  4  3  1  0  0  0  0
  5  6  1  0  0  0  0
  6  1  2  0  0  0  0
  9  3  1  0  0  0  0
  9 12  1  0  0  0  0
  9 11  1  0  0  0  0
 10  9  1  0  0  0  0
 13 14  1  0  0  0  0
 13 15  1  0  0  0  0
 13  5  1  0  0  0  0
 16 13  1  0  0  0  0
M  END
>  <minimizedAffinity>
-4.46102619

>  <minimizedRMSD>
0.15095894

$$$$
