
 OpenBabel03242509303D

 16 16  0  0  0  0  0  0  0  0999 V2000
   38.0040   28.8700   43.3630 C   0  0  0  0  0  0  0  0  0  0  0  0
   38.1270   27.4580   43.3010 C   0  0  0  0  0  0  0  0  0  0  0  0
   37.4390   26.8030   42.2640 C   0  0  0  0  0  0  0  0  0  0  0  0
   36.7050   27.5720   41.3950 N   0  0  0  0  0  0  0  0  0  0  0  0
   36.6140   28.9040   41.4880 C   0  0  0  0  0  0  0  0  0  0  0  0
   37.2710   29.5360   42.4800 N   0  0  0  0  0  0  0  0  0  0  0  0
   38.5530   29.3360   44.1810 H   0  0  0  0  0  0  0  0  0  0  0  0
   38.7180   26.9100   44.0100 H   0  0  0  0  0  0  0  0  0  0  0  0
   37.5390   25.3210   42.1570 C   0  0  0  0  0  0  0  0  0  0  0  0
   37.6600   25.0520   40.8140 F   0  0  0  0  0  0  0  0  0  0  0  0
   38.6320   24.8270   42.7920 F   0  0  0  0  0  0  0  0  0  0  0  0
   36.3830   24.7030   42.6350 F   0  0  0  0  0  0  0  0  0  0  0  0
   35.7840   29.6150   40.4820 C   0  0  0  0  0  0  0  0  0  0  0  0
   35.7300   30.9640   40.7890 F   0  0  0  0  0  0  0  0  0  0  0  0
   36.2780   29.4540   39.2040 F   0  0  0  0  0  0  0  0  0  0  0  0
   34.5090   29.0950   40.5270 F   0  0  0  0  0  0  0  0  0  0  0  0
  1  7  1  0  0  0  0
  2  1  1  0  0  0  0
  2  8  1  0  0  0  0
  3  2  2  0  0  0  0
  4  5  2  0  0  0  0
  4  3  1  0  0  0  0
  5  6  1  0  0  0  0
  6  1  2  0  0  0  0
  9  3  1  0  0  0  0
  9 12  1  0  0  0  0
  9 11  1  0  0  0  0
 10  9  1  0  0  0  0
 13 16  1  0  0  0  0
 13 14  1  0  0  0  0
 13  5  1  0  0  0  0
 15 13  1  0  0  0  0
M  END
>  <minimizedAffinity>
-4.46766329

>  <minimizedRMSD>
0.501159787

$$$$
