
 OpenBabel03242508293D

 26 28  0  0  0  0  0  0  0  0999 V2000
   36.7840   30.9590   40.3260 C   0  0  0  0  0  0  0  0  0  0  0  0
   36.7350   31.1400   38.9670 N   0  0  0  0  0  0  0  0  0  0  0  0
   37.4970   32.1590   38.6620 O   0  0  0  0  0  0  0  0  0  0  0  0
   38.0180   32.6190   39.7800 C   0  0  0  0  0  0  0  0  0  0  0  0
   37.5950   31.8960   40.8290 N   0  0  0  0  0  0  0  0  0  0  0  0
   38.9240   33.7550   39.8360 C   0  0  0  0  0  0  0  0  0  0  0  0
   38.6190   35.0290   40.2850 C   0  0  0  0  0  0  0  0  0  0  0  0
   39.7270   35.8330   40.1900 C   0  0  0  0  0  0  0  0  0  0  0  0
   40.7120   34.9940   39.6670 C   0  0  0  0  0  0  0  0  0  0  0  0
   40.1690   33.8320   39.4970 O   0  0  0  0  0  0  0  0  0  0  0  0
   37.6770   35.4070   40.6650 H   0  0  0  0  0  0  0  0  0  0  0  0
   39.9460   36.8640   40.4170 H   0  0  0  0  0  0  0  0  0  0  0  0
   41.7580   35.1300   39.4020 H   0  0  0  0  0  0  0  0  0  0  0  0
   36.1420   30.0090   41.1050 O   0  0  0  0  0  0  0  0  0  0  0  0
   38.3400   28.3850   43.4910 C   0  0  0  0  0  0  0  0  0  0  0  0
   38.1680   27.0330   43.0760 C   0  0  0  0  0  0  0  0  0  0  0  0
   37.2950   26.8000   41.9940 C   0  0  0  0  0  0  0  0  0  0  0  0
   36.6840   27.8660   41.4240 N   0  0  0  0  0  0  0  0  0  0  0  0
   36.8720   29.1200   41.8420 C   0  0  0  0  0  0  0  0  0  0  0  0
   37.7000   29.3800   42.8750 N   0  0  0  0  0  0  0  0  0  0  0  0
   38.9920   28.6570   44.3150 H   0  0  0  0  0  0  0  0  0  0  0  0
   38.7090   26.2730   43.6080 H   0  0  0  0  0  0  0  0  0  0  0  0
   37.1200   25.3950   41.5670 C   0  0  0  0  0  0  0  0  0  0  0  0
   36.4210   25.2550   40.4130 F   0  0  0  0  0  0  0  0  0  0  0  0
   36.4250   24.7380   42.5920 F   0  0  0  0  0  0  0  0  0  0  0  0
   38.3470   24.7270   41.5070 F   0  0  0  0  0  0  0  0  0  0  0  0
  1  5  1  0  0  0  0
  1 14  1  0  0  0  0
  2  1  2  0  0  0  0
  3  2  1  0  0  0  0
  3  4  1  0  0  0  0
  4  6  1  0  0  0  0
  4  5  2  0  0  0  0
  6  7  2  0  0  0  0
  7 11  1  0  0  0  0
  8  7  1  0  0  0  0
  8 12  1  0  0  0  0
  9  8  2  0  0  0  0
 10  9  1  0  0  0  0
 10  6  1  0  0  0  0
 13  9  1  0  0  0  0
 14 19  1  0  0  0  0
 15 21  1  0  0  0  0
 16 15  1  0  0  0  0
 16 22  1  0  0  0  0
 17 16  2  0  0  0  0
 18 19  2  0  0  0  0
 18 17  1  0  0  0  0
 19 20  1  0  0  0  0
 20 15  2  0  0  0  0
 23 17  1  0  0  0  0
 23 25  1  0  0  0  0
 24 23  1  0  0  0  0
 26 23  1  0  0  0  0
M  END
>  <minimizedAffinity>
-5.78627539

>  <minimizedRMSD>
0.691018045

$$$$
