
 OpenBabel03242509303D

 15 15  0  0  0  0  0  0  0  0999 V2000
   38.0040   28.8250   43.2440 C   0  0  0  0  0  0  0  0  0  0  0  0
   38.0200   27.4070   43.0600 C   0  0  0  0  0  0  0  0  0  0  0  0
   37.2560   26.8910   42.0160 C   0  0  0  0  0  0  0  0  0  0  0  0
   36.5270   27.7570   41.2160 N   0  0  0  0  0  0  0  0  0  0  0  0
   36.5570   29.0810   41.4440 C   0  0  0  0  0  0  0  0  0  0  0  0
   37.2860   29.6010   42.4440 N   0  0  0  0  0  0  0  0  0  0  0  0
   38.6030   29.2010   44.0590 H   0  0  0  0  0  0  0  0  0  0  0  0
   38.5950   26.7250   43.6910 H   0  0  0  0  0  0  0  0  0  0  0  0
   37.2460   25.4150   41.7920 C   0  0  0  0  0  0  0  0  0  0  0  0
   36.7390   25.2280   40.5180 F   0  0  0  0  0  0  0  0  0  0  0  0
   38.4880   24.8700   41.8330 F   0  0  0  0  0  0  0  0  0  0  0  0
   36.4020   24.7720   42.7070 F   0  0  0  0  0  0  0  0  0  0  0  0
   35.7520   29.9530   40.5490 C   0  0  0  0  0  3  0  0  0  0  0  0
   34.7230   29.1830   39.7580 C   0  0  0  0  0  1  0  0  0  0  0  0
   36.7160   30.5590   39.5370 C   0  0  0  0  0  1  0  0  0  0  0  0
  1  7  1  0  0  0  0
  2  1  1  0  0  0  0
  2  8  1  0  0  0  0
  3  2  2  0  0  0  0
  4  5  2  0  0  0  0
  4  3  1  0  0  0  0
  5  6  1  0  0  0  0
  6  1  2  0  0  0  0
  9 11  1  0  0  0  0
  9  3  1  0  0  0  0
  9 12  1  0  0  0  0
 10  9  1  0  0  0  0
 13  5  1  0  0  0  0
 14 13  1  0  0  0  0
 15 13  1  0  0  0  0
M  END
>  <minimizedAffinity>
-4.23508263

>  <minimizedRMSD>
0.611580014

$$$$
