
 OpenBabel03242509303D

 15 15  0  0  0  0  0  0  0  0999 V2000
   37.7500   28.5160   43.4260 C   0  0  0  0  0  0  0  0  0  0  0  0
   38.4300   27.2690   43.5840 C   0  0  0  0  0  0  0  0  0  0  0  0
   38.2800   26.3270   42.5680 C   0  0  0  0  0  0  0  0  0  0  0  0
   37.4930   26.6350   41.4680 N   0  0  0  0  0  0  0  0  0  0  0  0
   36.8820   27.8280   41.3830 C   0  0  0  0  0  0  0  0  0  0  0  0
   37.0120   28.7500   42.3490 N   0  0  0  0  0  0  0  0  0  0  0  0
   37.8810   29.2290   44.2250 H   0  0  0  0  0  0  0  0  0  0  0  0
   39.0510   27.0270   44.4510 H   0  0  0  0  0  0  0  0  0  0  0  0
   38.9750   25.0110   42.6970 C   0  0  0  0  0  0  0  0  0  0  0  0
   39.8100   24.9150   41.5980 F   0  0  0  0  0  0  0  0  0  0  0  0
   39.7390   24.9300   43.8150 F   0  0  0  0  0  0  0  0  0  0  0  0
   38.0580   23.9530   42.6550 F   0  0  0  0  0  0  0  0  0  0  0  0
   36.0530   28.0930   40.1770 C   0  0  0  0  0  3  0  0  0  0  0  0
   36.8860   28.3510   38.9450 C   0  0  0  0  0  1  0  0  0  0  0  0
   35.2710   29.3700   40.4500 C   0  0  0  0  0  1  0  0  0  0  0  0
  1  2  1  0  0  0  0
  1  7  1  0  0  0  0
  2  8  1  0  0  0  0
  3  9  1  0  0  0  0
  3  2  2  0  0  0  0
  4  3  1  0  0  0  0
  5  4  2  0  0  0  0
  5  6  1  0  0  0  0
  6  1  2  0  0  0  0
  9 11  1  0  0  0  0
 10  9  1  0  0  0  0
 12  9  1  0  0  0  0
 13 15  1  0  0  0  0
 13  5  1  0  0  0  0
 14 13  1  0  0  0  0
M  END
>  <minimizedAffinity>
-3.88495398

>  <minimizedRMSD>
1.5168196

$$$$
