
 OpenBabel03242509313D

 15 15  0  0  0  0  0  0  0  0999 V2000
   38.0310   28.8250   43.2210 C   0  0  0  0  0  0  0  0  0  0  0  0
   38.0490   27.4080   43.0290 C   0  0  0  0  0  0  0  0  0  0  0  0
   37.2640   26.8940   42.0000 C   0  0  0  0  0  0  0  0  0  0  0  0
   36.5150   27.7610   41.2190 N   0  0  0  0  0  0  0  0  0  0  0  0
   36.5450   29.0840   41.4530 C   0  0  0  0  0  0  0  0  0  0  0  0
   37.2940   29.6020   42.4400 N   0  0  0  0  0  0  0  0  0  0  0  0
   38.6470   29.2000   44.0240 H   0  0  0  0  0  0  0  0  0  0  0  0
   38.6400   26.7250   43.6450 H   0  0  0  0  0  0  0  0  0  0  0  0
   37.2560   25.4180   41.7690 C   0  0  0  0  0  0  0  0  0  0  0  0
   36.7480   25.2370   40.4940 F   0  0  0  0  0  0  0  0  0  0  0  0
   38.4980   24.8750   41.8070 F   0  0  0  0  0  0  0  0  0  0  0  0
   36.4130   24.7720   42.6810 F   0  0  0  0  0  0  0  0  0  0  0  0
   35.7170   29.9570   40.5790 C   0  0  0  0  0  3  0  0  0  0  0  0
   34.7380   29.1770   39.7370 C   0  0  0  0  0  1  0  0  0  0  0  0
   36.6710   30.6470   39.6130 C   0  0  0  0  0  1  0  0  0  0  0  0
  1  7  1  0  0  0  0
  2  1  1  0  0  0  0
  2  8  1  0  0  0  0
  3  2  2  0  0  0  0
  4  5  2  0  0  0  0
  4  3  1  0  0  0  0
  5  6  1  0  0  0  0
  6  1  2  0  0  0  0
  9 11  1  0  0  0  0
  9  3  1  0  0  0  0
  9 12  1  0  0  0  0
 10  9  1  0  0  0  0
 13  5  1  0  0  0  0
 14 13  1  0  0  0  0
 15 13  1  0  0  0  0
M  END
>  <minimizedAffinity>
-4.23314714

>  <minimizedRMSD>
0.720649838

$$$$
