
 OpenBabel03242509303D

 15 15  0  0  0  0  0  0  0  0999 V2000
   38.1440   28.7290   43.3370 C   0  0  0  0  0  0  0  0  0  0  0  0
   38.1860   27.3120   43.1560 C   0  0  0  0  0  0  0  0  0  0  0  0
   37.3950   26.7750   42.1430 C   0  0  0  0  0  0  0  0  0  0  0  0
   36.6170   27.6220   41.3680 N   0  0  0  0  0  0  0  0  0  0  0  0
   36.6260   28.9470   41.5910 C   0  0  0  0  0  0  0  0  0  0  0  0
   37.3800   29.4860   42.5620 N   0  0  0  0  0  0  0  0  0  0  0  0
   38.7650   29.1230   44.1270 H   0  0  0  0  0  0  0  0  0  0  0  0
   38.8000   26.6450   43.7670 H   0  0  0  0  0  0  0  0  0  0  0  0
   37.4110   25.2980   41.9240 C   0  0  0  0  0  0  0  0  0  0  0  0
   37.1710   25.1130   40.5730 F   0  0  0  0  0  0  0  0  0  0  0  0
   38.6100   24.7370   42.2180 F   0  0  0  0  0  0  0  0  0  0  0  0
   36.3890   24.6710   42.6480 F   0  0  0  0  0  0  0  0  0  0  0  0
   35.7680   29.7970   40.7240 C   0  0  0  0  0  3  0  0  0  0  0  0
   35.5680   29.2080   39.3490 C   0  0  0  0  0  1  0  0  0  0  0  0
   36.5060   31.1160   40.5300 C   0  0  0  0  0  1  0  0  0  0  0  0
  1  7  1  0  0  0  0
  2  1  1  0  0  0  0
  2  8  1  0  0  0  0
  3  2  2  0  0  0  0
  4  5  2  0  0  0  0
  4  3  1  0  0  0  0
  5  6  1  0  0  0  0
  6  1  2  0  0  0  0
  9  3  1  0  0  0  0
  9 11  1  0  0  0  0
  9 12  1  0  0  0  0
 10  9  1  0  0  0  0
 13  5  1  0  0  0  0
 14 13  1  0  0  0  0
 15 13  1  0  0  0  0
M  END
>  <minimizedAffinity>
-4.21366739

>  <minimizedRMSD>
0.606908977

$$$$
