
 OpenBabel03242509313D

 15 15  0  0  0  0  0  0  0  0999 V2000
   38.0680   28.8310   43.3880 C   0  0  0  0  0  0  0  0  0  0  0  0
   38.1830   27.4090   43.2960 C   0  0  0  0  0  0  0  0  0  0  0  0
   37.4560   26.7740   42.2920 C   0  0  0  0  0  0  0  0  0  0  0  0
   36.6670   27.5340   41.4410 N   0  0  0  0  0  0  0  0  0  0  0  0
   36.6050   28.8690   41.5830 C   0  0  0  0  0  0  0  0  0  0  0  0
   37.2970   29.5020   42.5440 N   0  0  0  0  0  0  0  0  0  0  0  0
   38.6410   29.3010   44.1730 H   0  0  0  0  0  0  0  0  0  0  0  0
   38.8060   26.8110   43.9670 H   0  0  0  0  0  0  0  0  0  0  0  0
   37.5490   25.2890   42.1640 C   0  0  0  0  0  0  0  0  0  0  0  0
   37.6690   25.0330   40.8090 F   0  0  0  0  0  0  0  0  0  0  0  0
   38.6410   24.7770   42.7860 F   0  0  0  0  0  0  0  0  0  0  0  0
   36.3850   24.6700   42.6350 F   0  0  0  0  0  0  0  0  0  0  0  0
   35.7400   29.6230   40.6380 C   0  0  0  0  0  3  0  0  0  0  0  0
   35.7180   29.0140   39.2570 C   0  0  0  0  0  1  0  0  0  0  0  0
   36.3500   31.0100   40.4920 C   0  0  0  0  0  1  0  0  0  0  0  0
  1  7  1  0  0  0  0
  2  1  1  0  0  0  0
  2  8  1  0  0  0  0
  3  2  2  0  0  0  0
  4  5  2  0  0  0  0
  4  3  1  0  0  0  0
  5  6  1  0  0  0  0
  6  1  2  0  0  0  0
  9  3  1  0  0  0  0
  9 12  1  0  0  0  0
  9 11  1  0  0  0  0
 10  9  1  0  0  0  0
 13  5  1  0  0  0  0
 14 13  1  0  0  0  0
 15 13  1  0  0  0  0
M  END
>  <minimizedAffinity>
-4.25172806

>  <minimizedRMSD>
0.187290236

$$$$
