
 OpenBabel03242509263D

 42 45  0  0  0  0  0  0  0  0999 V2000
   35.1330   29.4120   39.8560 C   0  0  0  0  0  0  0  0  0  0  0  0
   34.3840   30.2670   39.7330 H   0  0  0  0  0  0  0  0  0  0  0  0
   34.6960   28.4880   40.2080 H   0  0  0  0  0  0  0  0  0  0  0  0
   35.7670   29.3680   38.5190 C   0  0  0  0  0  0  0  0  0  0  0  0
   37.0910   29.5070   38.2150 C   0  0  0  0  0  0  0  0  0  0  0  0
   37.6280   29.5370   36.9630 C   0  0  0  0  0  0  0  0  0  0  0  0
   36.7970   29.4210   35.8710 C   0  0  0  0  0  0  0  0  0  0  0  0
   35.4380   29.2750   36.1010 C   0  0  0  0  0  0  0  0  0  0  0  0
   34.6660   29.1700   34.9700 C   0  0  0  0  0  0  0  0  0  0  0  0
   33.3120   29.0210   35.0980 C   0  0  0  0  0  0  0  0  0  0  0  0
   32.7510   28.9780   36.3590 C   0  0  0  0  0  0  0  0  0  0  0  0
   33.5780   29.0890   37.4410 C   0  0  0  0  0  0  0  0  0  0  0  0
   34.9260   29.2450   37.3970 C   0  0  0  0  0  0  0  0  0  0  0  0
   37.7580   29.6010   39.0680 H   0  0  0  0  0  0  0  0  0  0  0  0
   38.6980   29.6520   36.8610 H   0  0  0  0  0  0  0  0  0  0  0  0
   37.2320   29.4480   34.8810 H   0  0  0  0  0  0  0  0  0  0  0  0
   35.0870   29.1980   33.9760 H   0  0  0  0  0  0  0  0  0  0  0  0
   32.6860   28.9380   34.2200 H   0  0  0  0  0  0  0  0  0  0  0  0
   31.6830   28.8580   36.4550 H   0  0  0  0  0  0  0  0  0  0  0  0
   32.9580   29.0210   38.6770 O   0  0  0  0  0  0  0  0  0  0  0  0
   32.0090   29.2580   38.8780 H   0  0  0  0  0  0  0  0  0  0  0  0
   35.9860   30.0050   40.9310 C   0  0  0  0  0  0  0  0  0  0  0  0
   35.3350   30.4860   41.7190 H   0  0  0  0  0  0  0  0  0  0  0  0
   36.5760   30.8370   40.4920 H   0  0  0  0  0  0  0  0  0  0  0  0
   38.4280   28.1160   42.6160 C   0  0  0  0  0  0  0  0  0  0  0  0
   37.3450   27.2730   42.6970 C   0  0  0  0  0  0  0  0  0  0  0  0
   36.2920   27.9220   42.0500 C   0  0  0  0  0  0  0  0  0  0  0  0
   36.8170   29.0890   41.6370 N   0  0  0  0  0  0  0  0  0  0  0  0
   38.0600   29.2330   41.9520 N   0  0  0  0  0  0  0  0  0  0  0  0
   37.3480   26.2860   43.1850 H   0  0  0  0  0  0  0  0  0  0  0  0
   35.2990   27.5010   41.9500 H   0  0  0  0  0  0  0  0  0  0  0  0
   41.3190   26.4800   44.2950 C   0  0  0  0  0  0  0  0  0  0  0  0
   40.0240   26.6450   43.8200 C   0  0  0  0  0  0  0  0  0  0  0  0
   39.7530   27.8690   43.1470 C   0  0  0  0  0  0  0  0  0  0  0  0
   40.7300   28.8100   42.9930 N   0  0  0  0  0  0  0  0  0  0  0  0
   41.9850   28.5540   43.5020 C   0  0  0  0  0  0  0  0  0  0  0  0
   42.2660   27.4090   44.1380 N   0  0  0  0  0  0  0  0  0  0  0  0
   41.5050   25.5400   44.8040 H   0  0  0  0  0  0  0  0  0  0  0  0
   39.2210   25.9290   43.9180 H   0  0  0  0  0  0  0  0  0  0  0  0
   43.0800   29.5480   43.3600 C   0  0  0  0  0  0  0  0  0  0  0  0
   42.6060   30.9720   43.3150 C   0  0  0  0  0  0  0  0  0  0  0  0
   44.0730   29.4360   44.5170 C   0  0  0  0  0  0  0  0  0  0  0  0
  1  3  1  0  0  0  0
  1 22  1  0  0  0  0
  2  1  1  0  0  0  0
  4  1  1  0  0  0  0
  5  4  1  0  0  0  0
  5 14  1  0  0  0  0
  6  5  2  0  0  0  0
  7  8  2  0  0  0  0
  7  6  1  0  0  0  0
  8 13  1  0  0  0  0
  9 10  2  0  0  0  0
  9  8  1  0  0  0  0
 10 11  1  0  0  0  0
 11 19  1  0  0  0  0
 11 12  2  0  0  0  0
 12 20  1  0  0  0  0
 13 12  1  0  0  0  0
 13  4  2  0  0  0  0
 15  6  1  0  0  0  0
 16  7  1  0  0  0  0
 17  9  1  0  0  0  0
 18 10  1  0  0  0  0
 20 21  1  0  0  0  0
 22 28  1  0  0  0  0
 22 23  1  0  0  0  0
 24 22  1  0  0  0  0
 25 26  1  0  0  0  0
 25 34  1  0  0  0  0
 26 30  1  0  0  0  0
 27 26  2  0  0  0  0
 28 29  1  0  0  0  0
 28 27  1  0  0  0  0
 29 25  2  0  0  0  0
 31 27  1  0  0  0  0
 32 38  1  0  0  0  0
 33 39  1  0  0  0  0
 33 32  2  0  0  0  0
 34 33  1  0  0  0  0
 35 34  2  0  0  0  0
 35 36  1  0  0  0  0
 36 37  2  0  0  0  0
 37 32  1  0  0  0  0
 40 36  1  0  0  0  0
 40 42  1  0  0  0  0
 41 40  1  0  0  0  0
M  END
>  <minimizedAffinity>
-5.99477434

>  <minimizedRMSD>
0.422467262

$$$$
