
 OpenBabel03242509303D

 15 15  0  0  0  0  0  0  0  0999 V2000
   38.0800   28.8540   43.3580 C   0  0  0  0  0  0  0  0  0  0  0  0
   38.2060   27.4330   43.2790 C   0  0  0  0  0  0  0  0  0  0  0  0
   37.4650   26.7800   42.2970 C   0  0  0  0  0  0  0  0  0  0  0  0
   36.6530   27.5230   41.4540 N   0  0  0  0  0  0  0  0  0  0  0  0
   36.5810   28.8590   41.5820 C   0  0  0  0  0  0  0  0  0  0  0  0
   37.2860   29.5080   42.5220 N   0  0  0  0  0  0  0  0  0  0  0  0
   38.6630   29.3380   44.1270 H   0  0  0  0  0  0  0  0  0  0  0  0
   38.8470   26.8470   43.9440 H   0  0  0  0  0  0  0  0  0  0  0  0
   37.5700   25.2950   42.1830 C   0  0  0  0  0  0  0  0  0  0  0  0
   37.7200   25.0280   40.8330 F   0  0  0  0  0  0  0  0  0  0  0  0
   38.6500   24.7940   42.8320 F   0  0  0  0  0  0  0  0  0  0  0  0
   36.3990   24.6720   42.6330 F   0  0  0  0  0  0  0  0  0  0  0  0
   35.6910   29.5950   40.6460 C   0  0  0  0  0  3  0  0  0  0  0  0
   35.5440   28.9000   39.3150 C   0  0  0  0  0  1  0  0  0  0  0  0
   36.3560   30.9360   40.3680 C   0  0  0  0  0  1  0  0  0  0  0  0
  1  7  1  0  0  0  0
  2  1  1  0  0  0  0
  2  8  1  0  0  0  0
  3  2  2  0  0  0  0
  4  5  2  0  0  0  0
  4  3  1  0  0  0  0
  5  6  1  0  0  0  0
  6  1  2  0  0  0  0
  9  3  1  0  0  0  0
  9 12  1  0  0  0  0
  9 11  1  0  0  0  0
 10  9  1  0  0  0  0
 13  5  1  0  0  0  0
 14 13  1  0  0  0  0
 15 13  1  0  0  0  0
M  END
>  <minimizedAffinity>
-4.25159264

>  <minimizedRMSD>
0.288129687

$$$$
