
 OpenBabel03242508573D

 39 42  0  0  0  0  0  0  0  0999 V2000
   36.7090   29.8700   39.7730 C   0  0  0  0  0  0  0  0  0  0  0  0
   37.5540   30.9740   39.7950 C   0  0  0  0  0  0  0  0  0  0  0  0
   38.2000   30.9400   40.9570 N   0  0  0  0  0  0  0  0  0  0  0  0
   37.8360   29.8860   41.7040 C   0  0  0  0  0  0  0  0  0  0  0  0
   38.2700   29.4990   42.9580 C   0  0  0  0  0  0  0  0  0  0  0  0
   37.7090   28.3460   43.4910 C   0  0  0  0  0  0  0  0  0  0  0  0
   36.7470   27.6150   42.7800 C   0  0  0  0  0  0  0  0  0  0  0  0
   36.3330   28.0220   41.5330 C   0  0  0  0  0  0  0  0  0  0  0  0
   36.8810   29.1700   40.9840 C   0  0  0  0  0  0  0  0  0  0  0  0
   37.5530   31.6330   38.9330 H   0  0  0  0  0  0  0  0  0  0  0  0
   39.0160   30.0860   43.4830 H   0  0  0  0  0  0  0  0  0  0  0  0
   38.0140   28.0100   44.4580 H   0  0  0  0  0  0  0  0  0  0  0  0
   36.3440   26.7300   43.2380 H   0  0  0  0  0  0  0  0  0  0  0  0
   35.5910   27.4810   40.9550 H   0  0  0  0  0  0  0  0  0  0  0  0
   33.6670   28.7980   38.0710 C   0  0  0  0  0  0  0  0  0  0  0  0
   34.0720   28.7380   36.6960 C   0  0  0  0  0  0  0  0  0  0  0  0
   35.4000   29.0730   36.3910 C   0  0  0  0  0  0  0  0  0  0  0  0
   36.2050   29.4280   37.4070 N   0  0  0  0  0  0  0  0  0  0  0  0
   35.7880   29.4730   38.6980 C   0  0  0  0  0  0  0  0  0  0  0  0
   34.5400   29.1640   39.0270 N   0  0  0  0  0  0  0  0  0  0  0  0
   32.6660   28.5520   38.3510 H   0  0  0  0  0  0  0  0  0  0  0  0
   33.3830   28.4490   35.9400 H   0  0  0  0  0  0  0  0  0  0  0  0
   35.7380   29.0380   35.3600 H   0  0  0  0  0  0  0  0  0  0  0  0
   39.1560   31.9580   41.2790 C   0  0  0  0  0  0  0  0  0  0  0  0
   39.2070   31.9980   42.4010 H   0  0  0  0  0  0  0  0  0  0  0  0
   40.1770   31.6450   40.9740 H   0  0  0  0  0  0  0  0  0  0  0  0
   38.7760   33.3330   40.8320 C   0  0  0  0  0  0  0  0  0  0  0  0
   38.6780   34.0480   41.6940 H   0  0  0  0  0  0  0  0  0  0  0  0
   37.9440   33.4140   40.1310 H   0  0  0  0  0  0  0  0  0  0  0  0
   39.9090   33.7790   39.9830 N   0  0  0  0  0  0  0  0  0  0  0  0
   40.4900   33.0140   39.0580 N   0  0  0  0  0  0  0  0  0  0  0  0
   41.4720   33.7140   38.4670 C   0  0  0  0  0  0  0  0  0  0  0  0
   41.5100   34.9950   39.0560 C   0  0  0  0  0  0  0  0  0  0  0  0
   40.5060   34.9850   40.0050 C   0  0  0  0  0  0  0  0  0  0  0  0
   42.1270   33.3510   37.6680 H   0  0  0  0  0  0  0  0  0  0  0  0
   42.2140   35.7660   38.7640 H   0  0  0  0  0  0  0  0  0  0  0  0
   40.1890   36.1280   40.8650 C   0  0  0  0  0  0  0  0  0  0  0  0
   41.4410   36.6280   41.5880 C   0  0  0  0  0  0  0  0  0  0  0  0
   39.6810   37.3220   40.0780 C   0  0  0  0  0  0  0  0  0  0  0  0
  1  2  2  0  0  0  0
  1  9  1  0  0  0  0
  2  3  1  0  0  0  0
  3 24  1  0  0  0  0
  3  4  1  0  0  0  0
  4  5  1  0  0  0  0
  5 11  1  0  0  0  0
  5  6  2  0  0  0  0
  6 12  1  0  0  0  0
  7 13  1  0  0  0  0
  7  6  1  0  0  0  0
  8  7  2  0  0  0  0
  9  8  1  0  0  0  0
  9  4  2  0  0  0  0
 10  2  1  0  0  0  0
 14  8  1  0  0  0  0
 15 21  1  0  0  0  0
 15 20  1  0  0  0  0
 16 15  2  0  0  0  0
 17 16  1  0  0  0  0
 17 18  2  0  0  0  0
 18 19  1  0  0  0  0
 19 20  2  0  0  0  0
 19  1  1  0  0  0  0
 22 16  1  0  0  0  0
 23 17  1  0  0  0  0
 24 25  1  0  0  0  0
 26 24  1  0  0  0  0
 27 24  1  0  0  0  0
 27 28  1  0  0  0  0
 29 27  1  0  0  0  0
 30 34  1  0  0  0  0
 30 27  1  0  0  0  0
 31 30  1  0  0  0  0
 32 33  1  0  0  0  0
 32 31  2  0  0  0  0
 33 34  2  0  0  0  0
 34 37  1  0  0  0  0
 35 32  1  0  0  0  0
 36 33  1  0  0  0  0
 37 38  1  0  0  0  0
 39 37  1  0  0  0  0
M  END
>  <minimizedAffinity>
-6.39362717

>  <minimizedRMSD>
1.24006903

$$$$
