
 OpenBabel03242508493D

 35 37  0  0  1  0  0  0  0  0999 V2000
   37.0250   25.3840   41.3160 C   0  0  2  0  0  0  0  0  0  0  0  0
   36.6970   23.9960   41.1240 C   0  0  0  0  0  0  0  0  0  0  0  0
   35.8820   23.9500   39.8210 C   0  0  0  0  0  0  0  0  0  0  0  0
   36.2560   25.2110   39.0820 C   0  0  0  0  0  0  0  0  0  0  0  0
   37.3960   25.8400   39.8480 C   0  0  1  0  0  0  0  0  0  0  0  0
   36.1440   25.9900   41.4610 H   0  0  0  0  0  0  0  0  0  0  0  0
   37.5340   23.2970   40.9390 H   0  0  0  0  0  0  0  0  0  0  0  0
   36.0530   23.5810   41.9490 H   0  0  0  0  0  0  0  0  0  0  0  0
   34.8110   23.9040   40.0680 H   0  0  0  0  0  0  0  0  0  0  0  0
   36.1190   23.0880   39.1980 H   0  0  0  0  0  0  0  0  0  0  0  0
   36.5800   25.0150   38.0330 H   0  0  0  0  0  0  0  0  0  0  0  0
   35.3560   25.8260   39.0230 H   0  0  0  0  0  0  0  0  0  0  0  0
   38.3740   25.4800   39.5990 H   0  0  0  0  0  0  0  0  0  0  0  0
   39.3300   24.8200   42.2960 C   0  0  0  0  0  0  0  0  0  0  0  0
   38.1660   25.6740   42.1910 C   0  0  0  0  0  0  0  0  0  0  0  0
   38.0450   26.8100   42.9740 C   0  0  0  0  0  0  0  0  0  0  0  0
   39.0670   27.0930   43.8400 N   0  0  0  0  0  0  0  0  0  0  0  0
   40.1950   26.2610   43.9350 C   0  0  0  0  0  0  0  0  0  0  0  0
   40.3100   25.1110   43.1460 N   0  0  0  0  0  0  0  0  0  0  0  0
   41.2420   26.6070   44.8460 N   0  0  0  0  0  0  0  0  0  0  0  0
   39.3550   23.9570   41.6610 H   0  0  0  0  0  0  0  0  0  0  0  0
   42.2330   26.6060   44.5470 H   0  0  0  0  0  0  0  0  0  0  0  0
   41.0740   26.8800   45.8540 H   0  0  0  0  0  0  0  0  0  0  0  0
   37.0710   27.8470   43.1870 C   0  0  0  0  0  0  0  0  0  0  0  0
   37.6800   29.2130   42.8940 C   0  0  0  0  0  0  0  0  0  0  0  0
   36.7420   27.9150   44.7080 C   0  0  0  0  0  0  0  0  0  0  0  0
   37.1530   27.2930   39.6310 C   0  0  0  0  0  0  0  0  0  0  0  0
   35.9140   27.8450   39.7040 N   0  0  0  0  0  0  0  0  0  0  0  0
   36.0350   29.1290   39.4680 O   0  0  0  0  0  0  0  0  0  0  0  0
   37.2880   29.3940   39.2540 C   0  0  0  0  0  0  0  0  0  0  0  0
   38.0020   28.2770   39.3490 N   0  0  0  0  0  0  0  0  0  0  0  0
   37.7500   30.7910   38.9530 C   0  0  0  0  0  0  0  0  0  0  0  0
   37.5610   31.5820   40.0550 F   0  0  0  0  0  0  0  0  0  0  0  0
   39.0940   30.7900   38.6120 F   0  0  0  0  0  0  0  0  0  0  0  0
   37.0190   31.3210   37.9010 F   0  0  0  0  0  0  0  0  0  0  0  0
  1  6  1  1  0  0  0
  1 15  1  0  0  0  0
  2  1  1  0  0  0  0
  2  8  1  0  0  0  0
  3  9  1  0  0  0  0
  3  2  1  0  0  0  0
  4  3  1  0  0  0  0
  4  5  1  0  0  0  0
  5 13  1  6  0  0  0
  5  1  1  0  0  0  0
  7  2  1  0  0  0  0
 10  3  1  0  0  0  0
 11  4  1  0  0  0  0
 12  4  1  0  0  0  0
 14 19  1  0  0  0  0
 15 14  2  0  0  0  0
 15 16  1  0  0  0  0
 16 24  1  0  0  0  0
 16 17  2  0  0  0  0
 17 18  1  0  0  0  0
 18 20  1  0  0  0  0
 19 18  2  0  0  0  0
 20 23  1  0  0  0  0
 21 14  1  0  0  0  0
 22 20  1  0  0  0  0
 24 26  1  0  0  0  0
 25 24  1  0  0  0  0
 27 28  2  0  0  0  0
 27  5  1  0  0  0  0
 29 28  1  0  0  0  0
 30 31  2  0  0  0  0
 30 29  1  0  0  0  0
 31 27  1  0  0  0  0
 32 30  1  0  0  0  0
 32 33  1  0  0  0  0
 34 32  1  0  0  0  0
 35 32  1  0  0  0  0
M  END
>  <minimizedAffinity>
-6.25119925

>  <minimizedRMSD>
5.1531167

$$$$
