
 OpenBabel03242509303D

 15 15  0  0  0  0  0  0  0  0999 V2000
   37.8900   28.7580   43.5260 C   0  0  0  0  0  0  0  0  0  0  0  0
   37.9530   27.3340   43.4330 C   0  0  0  0  0  0  0  0  0  0  0  0
   37.4680   26.7490   42.2650 C   0  0  0  0  0  0  0  0  0  0  0  0
   36.9560   27.5580   41.2620 N   0  0  0  0  0  0  0  0  0  0  0  0
   36.9290   28.8930   41.4150 C   0  0  0  0  0  0  0  0  0  0  0  0
   37.3900   29.4780   42.5310 N   0  0  0  0  0  0  0  0  0  0  0  0
   38.2720   29.1890   44.4390 H   0  0  0  0  0  0  0  0  0  0  0  0
   38.3570   26.6960   44.2240 H   0  0  0  0  0  0  0  0  0  0  0  0
   37.5150   25.2620   42.1310 C   0  0  0  0  0  0  0  0  0  0  0  0
   38.6100   24.8490   42.8700 F   0  0  0  0  0  0  0  0  0  0  0  0
   36.4130   24.6540   42.6370 F   0  0  0  0  0  0  0  0  0  0  0  0
   37.7100   24.8840   40.7960 F   0  0  0  0  0  0  0  0  0  0  0  0
   36.3660   29.7020   40.3010 C   0  0  0  0  0  3  0  0  0  0  0  0
   36.3490   31.1790   40.6060 C   0  0  0  0  0  1  0  0  0  0  0  0
   34.9150   29.2740   40.1320 C   0  0  0  0  0  1  0  0  0  0  0  0
  1  7  1  0  0  0  0
  2  1  1  0  0  0  0
  2  8  1  0  0  0  0
  3  2  2  0  0  0  0
  4  5  2  0  0  0  0
  4  3  1  0  0  0  0
  5  6  1  0  0  0  0
  6  1  2  0  0  0  0
  9  3  1  0  0  0  0
  9 11  1  0  0  0  0
  9 10  1  0  0  0  0
 12  9  1  0  0  0  0
 13 14  1  0  0  0  0
 13  5  1  0  0  0  0
 15 13  1  0  0  0  0
M  END
>  <minimizedAffinity>
-4.23757696

>  <minimizedRMSD>
1.16597176

$$$$
