
 OpenBabel03242508493D

 36 38  0  0  1  0  0  0  0  0999 V2000
   38.6840   28.0500   43.0800 C   0  0  2  0  0  0  0  0  0  0  0  0
   37.7720   27.6830   44.1390 C   0  0  0  0  0  0  0  0  0  0  0  0
   36.4060   27.4710   43.4640 C   0  0  0  0  0  0  0  0  0  0  0  0
   36.7000   27.3230   41.9940 C   0  0  0  0  0  0  0  0  0  0  0  0
   38.1930   27.1660   41.8630 C   0  0  1  0  0  0  0  0  0  0  0  0
   38.5080   29.0050   42.6250 H   0  0  0  0  0  0  0  0  0  0  0  0
   38.0380   26.8300   44.7610 H   0  0  0  0  0  0  0  0  0  0  0  0
   37.6210   28.5590   44.8260 H   0  0  0  0  0  0  0  0  0  0  0  0
   35.7090   28.2870   43.6740 H   0  0  0  0  0  0  0  0  0  0  0  0
   35.9760   26.5460   43.8970 H   0  0  0  0  0  0  0  0  0  0  0  0
   36.2830   28.1760   41.4690 H   0  0  0  0  0  0  0  0  0  0  0  0
   36.2250   26.3940   41.6120 H   0  0  0  0  0  0  0  0  0  0  0  0
   38.5780   26.1650   41.9800 H   0  0  0  0  0  0  0  0  0  0  0  0
   40.5950   26.5950   43.9950 C   0  0  0  0  0  0  0  0  0  0  0  0
   40.1100   27.7830   43.3090 C   0  0  0  0  0  0  0  0  0  0  0  0
   40.9680   28.7610   42.8050 C   0  0  0  0  0  0  0  0  0  0  0  0
   42.2890   28.5040   42.9890 N   0  0  0  0  0  0  0  0  0  0  0  0
   42.7710   27.3370   43.6590 C   0  0  0  0  0  0  0  0  0  0  0  0
   41.8890   26.3520   44.1840 N   0  0  0  0  0  0  0  0  0  0  0  0
   44.1900   27.1610   43.8230 N   0  0  0  0  0  0  0  0  0  0  0  0
   39.8590   25.9170   44.3420 H   0  0  0  0  0  0  0  0  0  0  0  0
   44.7820   27.9960   43.9920 H   0  0  0  0  0  0  0  0  0  0  0  0
   44.5630   26.1940   43.7650 H   0  0  0  0  0  0  0  0  0  0  0  0
   40.8820   30.0460   42.0950 C   0  0  0  0  0  0  0  0  0  0  0  0
   39.7140   30.9490   42.4410 C   0  0  0  0  0  0  0  0  0  0  0  0
   41.9300   30.9970   43.0470 C   0  0  0  0  0  0  0  0  0  0  0  0
   41.5880   30.3330   40.8740 C   0  0  0  0  0  0  0  0  0  0  0  0
   38.4700   27.8180   40.5560 C   0  0  0  0  0  0  0  0  0  0  0  0
   37.7700   28.9120   40.1400 N   0  0  0  0  0  0  0  0  0  0  0  0
   38.2420   29.2510   38.9720 O   0  0  0  0  0  0  0  0  0  0  0  0
   39.2030   28.4220   38.6380 C   0  0  0  0  0  0  0  0  0  0  0  0
   39.3600   27.5270   39.6060 N   0  0  0  0  0  0  0  0  0  0  0  0
   39.9330   28.5750   37.3500 C   0  0  0  0  0  0  0  0  0  0  0  0
   40.4510   29.8580   37.2490 F   0  0  0  0  0  0  0  0  0  0  0  0
   41.0050   27.6830   37.3000 F   0  0  0  0  0  0  0  0  0  0  0  0
   39.0900   28.3560   36.2870 F   0  0  0  0  0  0  0  0  0  0  0  0
  1  6  1  6  0  0  0
  1 15  1  0  0  0  0
  1  2  1  0  0  0  0
  2  7  1  0  0  0  0
  2  8  1  0  0  0  0
  3  9  1  0  0  0  0
  3 10  1  0  0  0  0
  3  2  1  0  0  0  0
  4  3  1  0  0  0  0
  5 13  1  1  0  0  0
  5  4  1  0  0  0  0
  5  1  1  0  0  0  0
 11  4  1  0  0  0  0
 12  4  1  0  0  0  0
 14 19  1  0  0  0  0
 14 21  1  0  0  0  0
 15 14  2  0  0  0  0
 16 17  2  0  0  0  0
 16 15  1  0  0  0  0
 17 18  1  0  0  0  0
 18 20  1  0  0  0  0
 18 19  2  0  0  0  0
 20 22  1  0  0  0  0
 23 20  1  0  0  0  0
 24 25  1  0  0  0  0
 24 16  1  0  0  0  0
 24 26  1  0  0  0  0
 27 24  1  0  0  0  0
 28  5  1  0  0  0  0
 29 28  2  0  0  0  0
 30 29  1  0  0  0  0
 31 30  1  0  0  0  0
 31 32  2  0  0  0  0
 32 28  1  0  0  0  0
 33 31  1  0  0  0  0
 34 33  1  0  0  0  0
 35 33  1  0  0  0  0
 36 33  1  0  0  0  0
M  END
>  <minimizedAffinity>
-5.09893084

>  <minimizedRMSD>
5.69423771

$$$$
