
 OpenBabel03242509123D

 39 43  0  0  1  0  0  0  0  0999 V2000
   35.9520   30.5470   40.8570 C   0  0  0  0  0  0  0  0  0  0  0  0
   36.4680   29.3920   41.4830 C   0  0  0  0  0  0  0  0  0  0  0  0
   37.8350   29.2490   41.5830 C   0  0  0  0  0  0  0  0  0  0  0  0
   38.5820   30.2530   41.0630 N   0  0  0  0  0  0  0  0  0  0  0  0
   38.0910   31.3550   40.4670 C   0  0  0  0  0  0  0  0  0  0  0  0
   36.7560   31.4950   40.3660 N   0  0  0  0  0  0  0  0  0  0  0  0
   34.9040   30.7610   40.7220 H   0  0  0  0  0  0  0  0  0  0  0  0
   35.6700   28.7910   41.8200 H   0  0  0  0  0  0  0  0  0  0  0  0
   38.3720   28.0690   42.2020 C   0  0  0  0  0  0  0  0  0  0  0  0
   39.3280   28.0000   43.2090 C   0  0  0  0  0  0  0  0  0  0  0  0
   39.5510   26.6920   43.5050 N   0  0  0  0  0  0  0  0  0  0  0  0
   38.7880   25.9000   42.7430 C   0  0  0  0  0  0  0  0  0  0  0  0
   38.6360   24.5430   42.6460 C   0  0  0  0  0  0  0  0  0  0  0  0
   37.7320   23.9740   41.7240 C   0  0  0  0  0  0  0  0  0  0  0  0
   37.0120   24.8460   40.9250 C   0  0  0  0  0  0  0  0  0  0  0  0
   37.1790   26.1980   41.0360 C   0  0  0  0  0  0  0  0  0  0  0  0
   38.0540   26.7560   41.9290 C   0  0  0  0  0  0  0  0  0  0  0  0
   39.7710   28.8940   43.6330 H   0  0  0  0  0  0  0  0  0  0  0  0
   40.2120   26.3540   44.2170 H   0  0  0  0  0  0  0  0  0  0  0  0
   39.2460   23.9320   43.3160 H   0  0  0  0  0  0  0  0  0  0  0  0
   37.7150   22.8940   41.7570 H   0  0  0  0  0  0  0  0  0  0  0  0
   36.3520   24.3010   40.2570 H   0  0  0  0  0  0  0  0  0  0  0  0
   36.5570   26.6960   40.3240 H   0  0  0  0  0  0  0  0  0  0  0  0
   39.0160   32.4180   39.9530 C   0  0  1  0  0  0  0  0  0  0  0  0
   39.0260   33.7560   40.7160 C   0  0  0  0  0  0  0  0  0  0  0  0
   40.1680   32.8190   40.7940 C   0  0  2  0  0  0  0  0  0  0  0  0
   39.0900   32.4770   38.8690 H   0  0  0  0  0  0  0  0  0  0  0  0
   39.1570   34.6230   40.0580 H   0  0  0  0  0  0  0  0  0  0  0  0
   38.2950   33.8520   41.5340 H   0  0  0  0  0  0  0  0  0  0  0  0
   40.2520   32.2370   41.7590 H   0  0  0  0  0  0  0  0  0  0  0  0
   41.4720   33.1320   40.1750 C   0  0  0  0  0  0  0  0  0  0  0  0
   42.1530   34.2970   40.2740 N   0  0  0  0  0  0  0  0  0  0  0  0
   43.2590   34.1940   39.5720 O   0  0  0  0  0  0  0  0  0  0  0  0
   43.3340   33.0140   39.0130 C   0  0  0  0  0  0  0  0  0  0  0  0
   42.2090   32.3350   39.3890 N   0  0  0  0  0  0  0  0  0  0  0  0
   44.3760   32.4160   38.1310 C   0  0  0  0  0  0  0  0  0  0  0  0
   45.2920   33.4870   37.6200 C   0  0  0  0  0  0  0  0  0  0  0  0
   43.7560   31.6790   36.9580 C   0  0  0  0  0  0  0  0  0  0  0  0
   45.1860   31.4330   38.9400 C   0  0  0  0  0  0  0  0  0  0  0  0
  1  2  1  0  0  0  0
  2  3  2  0  0  0  0
  2  8  1  0  0  0  0
  3  9  1  0  0  0  0
  4  3  1  0  0  0  0
  5  4  2  0  0  0  0
  6  5  1  0  0  0  0
  6  1  2  0  0  0  0
  7  1  1  0  0  0  0
  9 10  2  0  0  0  0
 10 11  1  0  0  0  0
 10 18  1  0  0  0  0
 11 19  1  0  0  0  0
 12 11  1  0  0  0  0
 13 12  1  0  0  0  0
 13 20  1  0  0  0  0
 14 21  1  0  0  0  0
 14 13  2  0  0  0  0
 15 16  2  0  0  0  0
 15 14  1  0  0  0  0
 16 17  1  0  0  0  0
 17  9  1  0  0  0  0
 17 12  2  0  0  0  0
 22 15  1  0  0  0  0
 23 16  1  0  0  0  0
 24 27  1  6  0  0  0
 24  5  1  0  0  0  0
 24 25  1  0  0  0  0
 24 26  1  0  0  0  0
 25 26  1  0  0  0  0
 25 29  1  0  0  0  0
 26 30  1  1  0  0  0
 28 25  1  0  0  0  0
 31 32  2  0  0  0  0
 31 26  1  0  0  0  0
 33 32  1  0  0  0  0
 34 35  2  0  0  0  0
 34 33  1  0  0  0  0
 35 31  1  0  0  0  0
 36 39  1  0  0  0  0
 36 34  1  0  0  0  0
 37 36  1  0  0  0  0
 38 36  1  0  0  0  0
M  END
>  <minimizedAffinity>
-6.01637697

>  <minimizedRMSD>
1.43618619

$$$$
