
 OpenBabel03242508263D

 19 20  0  0  0  0  0  0  0  0999 V2000
   36.3690   30.7150   41.3890 O   0  0  0  0  0  0  0  0  0  0  0  0
   37.8920   28.0310   43.3020 C   0  0  0  0  0  0  0  0  0  0  0  0
   37.6160   26.9450   42.4620 C   0  0  0  0  0  0  0  0  0  0  0  0
   36.9040   27.2340   41.2620 C   0  0  0  0  0  0  0  0  0  0  0  0
   36.5410   28.5340   41.0130 N   0  0  0  0  0  0  0  0  0  0  0  0
   36.8440   29.5200   41.8750 C   0  0  0  0  0  0  0  0  0  0  0  0
   37.5210   29.2770   43.0230 N   0  0  0  0  0  0  0  0  0  0  0  0
   38.4290   27.8320   44.2150 H   0  0  0  0  0  0  0  0  0  0  0  0
   37.8990   25.9250   42.6530 H   0  0  0  0  0  0  0  0  0  0  0  0
   36.6860   26.4060   40.6070 H   0  0  0  0  0  0  0  0  0  0  0  0
   37.1880   31.5010   40.5860 C   0  0  0  0  0  0  0  0  0  0  0  0
   36.9850   31.9640   39.3320 N   0  0  0  0  0  0  0  0  0  0  0  0
   38.0200   32.6720   38.9470 O   0  0  0  0  0  0  0  0  0  0  0  0
   38.8780   32.6640   39.9460 C   0  0  0  0  0  0  0  0  0  0  0  0
   38.4020   31.9440   40.9930 N   0  0  0  0  0  0  0  0  0  0  0  0
   40.1680   33.4100   39.7680 C   0  0  0  0  0  0  0  0  0  0  0  0
   40.7740   33.1800   38.4130 C   0  0  0  0  0  0  0  0  0  0  0  0
   41.1990   32.9500   40.7930 C   0  0  0  0  0  0  0  0  0  0  0  0
   39.9490   34.8990   39.9830 C   0  0  0  0  0  0  0  0  0  0  0  0
  1  6  1  0  0  0  0
  2  8  1  0  0  0  0
  3  9  1  0  0  0  0
  3  2  2  0  0  0  0
  4  3  1  0  0  0  0
  5  4  2  0  0  0  0
  5  6  1  0  0  0  0
  6  7  2  0  0  0  0
  7  2  1  0  0  0  0
 10  4  1  0  0  0  0
 11 15  1  0  0  0  0
 11  1  1  0  0  0  0
 12 11  2  0  0  0  0
 13 12  1  0  0  0  0
 13 14  1  0  0  0  0
 14 15  2  0  0  0  0
 16 14  1  0  0  0  0
 16 19  1  0  0  0  0
 16 18  1  0  0  0  0
 17 16  1  0  0  0  0
M  END
>  <minimizedAffinity>
-4.25297689

>  <minimizedRMSD>
1.81456757

$$$$
