
 OpenBabel03242507283D

 30 32  0  0  0  0  0  0  0  0999 V2000
   36.8140   27.3740   41.8050 C   0  0  0  0  0  0  0  0  0  0  0  0
   37.1090   26.3250   42.5870 C   0  0  0  0  0  0  0  0  0  0  0  0
   37.5430   25.1510   42.0910 C   0  0  0  0  0  0  0  0  0  0  0  0
   37.6500   25.1690   40.6530 C   0  0  0  0  0  0  0  0  0  0  0  0
   37.1460   26.7720   40.1580 S   0  0  0  0  0  0  0  0  0  0  0  0
   36.9640   26.5060   43.6470 H   0  0  0  0  0  0  0  0  0  0  0  0
   37.7960   24.2760   42.6470 H   0  0  0  0  0  0  0  0  0  0  0  0
   38.0870   24.0720   39.7980 C   0  0  0  0  0  0  0  0  0  0  0  0
   39.3730   23.7810   39.5090 C   0  0  0  0  0  0  0  0  0  0  0  0
   39.2700   22.6650   38.6680 C   0  0  0  0  0  0  0  0  0  0  0  0
   37.9610   22.3390   38.4890 N   0  0  0  0  0  0  0  0  0  0  0  0
   37.2520   23.2200   39.1950 N   0  0  0  0  0  0  0  0  0  0  0  0
   40.2990   24.2530   39.8190 H   0  0  0  0  0  0  0  0  0  0  0  0
   40.1130   22.1290   38.2170 H   0  0  0  0  0  0  0  0  0  0  0  0
   37.6030   21.5480   37.9090 H   0  0  0  0  0  0  0  0  0  0  0  0
   36.3330   28.7490   42.0170 C   0  0  0  0  0  0  0  0  0  0  0  0
   35.9120   28.7940   43.0320 H   0  0  0  0  0  0  0  0  0  0  0  0
   35.5400   28.9440   41.2610 H   0  0  0  0  0  0  0  0  0  0  0  0
   39.5620   30.7030   42.4360 C   0  0  0  0  0  0  0  0  0  0  0  0
   38.5260   29.7630   42.6690 C   0  0  0  0  0  0  0  0  0  0  0  0
   37.4370   29.7180   41.8080 C   0  0  0  0  0  0  0  0  0  0  0  0
   37.4090   30.5900   40.7620 N   0  0  0  0  0  0  0  0  0  0  0  0
   38.4200   31.4860   40.5600 C   0  0  0  0  0  0  0  0  0  0  0  0
   39.4530   31.5330   41.3720 N   0  0  0  0  0  0  0  0  0  0  0  0
   40.3750   30.6990   43.1230 H   0  0  0  0  0  0  0  0  0  0  0  0
   38.5290   29.0720   43.4810 H   0  0  0  0  0  0  0  0  0  0  0  0
   38.4440   32.4500   39.4490 C   0  0  0  0  0  0  0  0  0  0  0  0
   39.8680   32.8700   39.1160 C   0  0  0  0  0  0  0  0  0  0  0  0
   37.8090   31.8120   38.2320 C   0  0  0  0  0  0  0  0  0  0  0  0
   37.6250   33.6540   39.8100 C   0  0  0  0  0  0  0  0  0  0  0  0
  1 16  1  0  0  0  0
  1  2  2  0  0  0  0
  2  6  1  0  0  0  0
  3  2  1  0  0  0  0
  3  7  1  0  0  0  0
  4  3  2  0  0  0  0
  5  4  1  0  0  0  0
  5  1  1  0  0  0  0
  8  4  1  0  0  0  0
  9  8  1  0  0  0  0
  9 13  1  0  0  0  0
 10  9  2  0  0  0  0
 11 10  1  0  0  0  0
 11 12  1  0  0  0  0
 12  8  2  0  0  0  0
 14 10  1  0  0  0  0
 15 11  1  0  0  0  0
 16 17  1  0  0  0  0
 18 16  1  0  0  0  0
 19 20  1  0  0  0  0
 19 25  1  0  0  0  0
 20 26  1  0  0  0  0
 21 16  1  0  0  0  0
 21 20  2  0  0  0  0
 22 21  1  0  0  0  0
 23 22  2  0  0  0  0
 23 24  1  0  0  0  0
 24 19  2  0  0  0  0
 27 30  1  0  0  0  0
 27 23  1  0  0  0  0
 28 27  1  0  0  0  0
 29 27  1  0  0  0  0
M  END
>  <minimizedAffinity>
-4.6924715

>  <minimizedRMSD>
1.56616926

$$$$
