
 OpenBabel03242509313D

 16 16  0  0  0  0  0  0  0  0999 V2000
   37.3780   28.4920   43.4020 C   0  0  0  0  0  0  0  0  0  0  0  0
   36.8760   27.2350   42.9730 C   0  0  0  0  0  0  0  0  0  0  0  0
   37.7890   26.3160   42.4590 C   0  0  0  0  0  0  0  0  0  0  0  0
   39.1220   26.6600   42.3920 N   0  0  0  0  0  0  0  0  0  0  0  0
   39.5500   27.8650   42.8120 C   0  0  0  0  0  0  0  0  0  0  0  0
   38.6810   28.7650   43.3100 N   0  0  0  0  0  0  0  0  0  0  0  0
   36.6710   29.2080   43.8010 H   0  0  0  0  0  0  0  0  0  0  0  0
   35.8070   26.9950   43.0410 H   0  0  0  0  0  0  0  0  0  0  0  0
   37.2970   24.9910   42.0000 C   0  0  0  0  0  0  0  0  0  0  0  0
   38.3090   24.0850   42.2780 F   0  0  0  0  0  0  0  0  0  0  0  0
   36.1760   24.5800   42.6820 F   0  0  0  0  0  0  0  0  0  0  0  0
   37.0320   24.9720   40.6400 F   0  0  0  0  0  0  0  0  0  0  0  0
   41.0090   28.1090   42.6840 C   0  0  0  0  0  0  0  0  0  0  0  0
   41.5830   27.4670   41.4490 C   0  0  0  0  0  1  0  0  0  0  0  0
   41.6550   27.4790   43.9230 C   0  0  0  0  0  1  0  0  0  0  0  0
   41.2520   29.6100   42.7140 C   0  0  0  0  0  1  0  0  0  0  0  0
  1  7  1  0  0  0  0
  2  8  1  0  0  0  0
  2  1  2  0  0  0  0
  3  2  1  0  0  0  0
  4  3  2  0  0  0  0
  4  5  1  0  0  0  0
  5  6  2  0  0  0  0
  6  1  1  0  0  0  0
  9 10  1  0  0  0  0
  9  3  1  0  0  0  0
  9 11  1  0  0  0  0
 12  9  1  0  0  0  0
 13 16  1  0  0  0  0
 13  5  1  0  0  0  0
 13 15  1  0  0  0  0
 14 13  1  0  0  0  0
M  END
>  <minimizedAffinity>
-3.96781993

>  <minimizedRMSD>
3.90724826

$$$$
