
 OpenBabel03242504373D

 35 36  0  0  1  0  0  0  0  0999 V2000
   38.2030   26.8520   42.9940 C   0  0  0  0  0  0  0  0  0  0  0  0
   39.0980   27.3290   42.6540 H   0  0  0  0  0  0  0  0  0  0  0  0
   38.4840   26.5610   44.0670 H   0  0  0  0  0  0  0  0  0  0  0  0
   37.7210   25.5900   42.4290 C   0  0  2  0  0  0  0  0  0  0  0  0
   38.7020   24.4810   42.2380 C   0  0  0  0  0  0  0  0  0  0  0  0
   37.9630   23.5390   41.3090 C   0  0  0  0  0  0  0  0  0  0  0  0
   36.6010   24.1270   41.0840 C   0  0  0  0  0  0  0  0  0  0  0  0
   36.9180   25.6590   41.2260 C   0  0  2  0  0  0  0  0  0  0  0  0
   37.0410   25.1800   43.2380 H   0  0  0  0  0  0  0  0  0  0  0  0
   38.9330   23.9470   43.1850 H   0  0  0  0  0  0  0  0  0  0  0  0
   39.6820   24.7930   41.8510 H   0  0  0  0  0  0  0  0  0  0  0  0
   38.5260   23.2420   40.4330 H   0  0  0  0  0  0  0  0  0  0  0  0
   37.7870   22.5580   41.8540 H   0  0  0  0  0  0  0  0  0  0  0  0
   36.0910   23.8790   40.1820 H   0  0  0  0  0  0  0  0  0  0  0  0
   35.9460   23.8530   41.9370 H   0  0  0  0  0  0  0  0  0  0  0  0
   35.9090   26.0630   41.4970 H   0  0  0  0  0  0  0  0  0  0  0  0
   37.2360   26.1450   39.9130 C   0  0  0  0  0  0  0  0  0  0  0  0
   36.3640   27.2620   39.3910 C   0  0  0  0  0  0  0  0  0  0  0  0
   38.6360   26.5850   39.5800 C   0  0  0  0  0  0  0  0  0  0  0  0
   36.9640   25.0410   38.8580 C   0  0  0  0  0  0  0  0  0  0  0  0
   37.0560   27.8650   43.1420 C   0  0  2  0  0  0  0  0  0  0  0  0
   36.1390   27.5170   42.6320 H   0  0  0  0  0  0  0  0  0  0  0  0
   39.1360   30.7650   41.8670 C   0  0  0  0  0  0  0  0  0  0  0  0
   38.8210   29.5880   42.5680 C   0  0  0  0  0  0  0  0  0  0  0  0
   37.4800   29.1030   42.4680 C   0  0  0  0  0  0  0  0  0  0  0  0
   36.6030   29.8440   41.6850 N   0  0  0  0  0  0  0  0  0  0  0  0
   36.9420   30.9480   41.0420 C   0  0  0  0  0  0  0  0  0  0  0  0
   38.1980   31.4140   41.1260 N   0  0  0  0  0  0  0  0  0  0  0  0
   40.1520   31.1260   41.9460 H   0  0  0  0  0  0  0  0  0  0  0  0
   39.5150   29.0390   43.1630 H   0  0  0  0  0  0  0  0  0  0  0  0
   36.1430   31.4080   40.4750 H   0  0  0  0  0  0  0  0  0  0  0  0
   36.7760   28.0940   44.5990 C   0  0  0  0  0  0  0  0  0  0  0  0
   35.8810   27.5020   44.8730 H   0  0  0  0  0  0  0  0  0  0  0  0
   36.5620   29.1550   44.8100 H   0  0  0  0  0  0  0  0  0  0  0  0
   37.5970   27.7250   45.2440 H   0  0  0  0  0  0  0  0  0  0  0  0
  1 21  1  0  0  0  0
  1  3  1  0  0  0  0
  2  1  1  0  0  0  0
  4  1  1  0  0  0  0
  4  9  1  1  0  0  0
  5  4  1  0  0  0  0
  5 10  1  0  0  0  0
  6 13  1  0  0  0  0
  6  5  1  0  0  0  0
  7  8  1  0  0  0  0
  7  6  1  0  0  0  0
  7 15  1  0  0  0  0
  8 16  1  1  0  0  0
  8  4  1  0  0  0  0
 11  5  1  0  0  0  0
 12  6  1  0  0  0  0
 14  7  1  0  0  0  0
 17  8  1  0  0  0  0
 18 17  1  0  0  0  0
 19 17  1  0  0  0  0
 20 17  1  0  0  0  0
 21 22  1  6  0  0  0
 21 32  1  0  0  0  0
 23 29  1  0  0  0  0
 23 24  1  0  0  0  0
 24 30  1  0  0  0  0
 25 24  2  0  0  0  0
 25 21  1  0  0  0  0
 26 25  1  0  0  0  0
 27 28  1  0  0  0  0
 27 26  2  0  0  0  0
 28 23  2  0  0  0  0
 31 27  1  0  0  0  0
 32 34  1  0  0  0  0
 32 33  1  0  0  0  0
 32 35  1  0  0  0  0
M  END
>  <minimizedAffinity>
-5.12114334

>  <minimizedRMSD>
0.776683152

$$$$
