
 OpenBabel03242506103D

 19 20  0  0  0  0  0  0  0  0999 V2000
   36.5920   29.8250   41.4650 C   0  0  0  0  0  0  0  0  0  0  0  0
   37.9840   29.5410   41.5190 C   0  0  0  0  0  0  0  0  0  0  0  0
   38.8900   30.4880   41.0410 C   0  0  0  0  0  0  0  0  0  0  0  0
   38.3620   31.6410   40.5430 N   0  0  0  0  0  0  0  0  0  0  0  0
   37.0310   31.8880   40.5010 C   0  0  0  0  0  0  0  0  0  0  0  0
   36.1350   30.9850   40.9600 N   0  0  0  0  0  0  0  0  0  0  0  0
   35.9150   29.0880   41.8360 H   0  0  0  0  0  0  0  0  0  0  0  0
   36.7030   32.8390   40.0850 H   0  0  0  0  0  0  0  0  0  0  0  0
   38.3790   28.2790   42.0870 C   0  0  0  0  0  0  0  0  0  0  0  0
   38.3750   27.1430   41.2400 C   0  0  0  0  0  0  0  0  0  0  0  0
   38.9110   25.7510   42.3570 S   0  0  0  0  0  0  0  0  0  0  0  0
   39.0450   26.9910   43.8080 C   0  0  0  0  0  0  0  0  0  0  0  0
   38.7450   27.9820   43.3370 N   0  0  0  0  0  0  0  0  0  0  0  0
   38.2280   26.6230   40.3200 H   0  0  0  0  0  0  0  0  0  0  0  0
   39.3360   26.8630   44.8760 H   0  0  0  0  0  0  0  0  0  0  0  0
   40.3640   30.3400   40.9740 C   0  0  0  0  0  0  0  0  0  0  0  0
   41.0700   31.5180   40.4020 C   0  0  0  0  0  0  0  0  0  0  0  0
   41.0000   29.6330   42.1230 C   0  0  0  0  0  0  0  0  0  0  0  0
   40.5830   29.2920   39.7910 C   0  0  0  0  0  0  0  0  0  0  0  0
  1  2  1  0  0  0  0
  1  7  1  0  0  0  0
  2  9  1  0  0  0  0
  3  2  2  0  0  0  0
  4  3  1  0  0  0  0
  5  4  2  0  0  0  0
  5  6  1  0  0  0  0
  6  1  2  0  0  0  0
  8  5  1  0  0  0  0
  9 13  1  0  0  0  0
 10  9  2  0  0  0  0
 10 11  1  0  0  0  0
 11 12  1  0  0  0  0
 12 15  1  0  0  0  0
 13 12  2  0  0  0  0
 14 10  1  0  0  0  0
 16  3  1  0  0  0  0
 16 18  1  0  0  0  0
 17 16  1  0  0  0  0
 19 16  1  0  0  0  0
M  END
>  <minimizedAffinity>
-3.47276902

>  <minimizedRMSD>
2.28692126

$$$$
