
 OpenBabel03242508353D

 33 35  0  0  0  0  0  0  0  0999 V2000
   36.2750   30.4890   41.3760 O   0  0  0  0  0  0  0  0  0  0  0  0
   38.0810   28.0980   43.4450 C   0  0  0  0  0  0  0  0  0  0  0  0
   37.8560   26.9380   42.6470 C   0  0  0  0  0  0  0  0  0  0  0  0
   37.1170   27.0740   41.4900 C   0  0  0  0  0  0  0  0  0  0  0  0
   36.6520   28.3080   41.1860 N   0  0  0  0  0  0  0  0  0  0  0  0
   36.8610   29.3810   41.9260 C   0  0  0  0  0  0  0  0  0  0  0  0
   37.5770   29.2920   43.0630 N   0  0  0  0  0  0  0  0  0  0  0  0
   38.6290   28.1710   44.3700 H   0  0  0  0  0  0  0  0  0  0  0  0
   38.3650   26.1370   43.1660 H   0  0  0  0  0  0  0  0  0  0  0  0
   36.9600   25.8280   40.7780 C   0  0  0  0  0  0  0  0  0  0  0  0
   37.7350   25.7430   39.9660 H   0  0  0  0  0  0  0  0  0  0  0  0
   35.9950   25.8790   40.1920 H   0  0  0  0  0  0  0  0  0  0  0  0
   36.9660   24.6020   41.5850 C   0  0  0  0  0  0  0  0  0  0  0  0
   37.3540   24.6340   42.6030 H   0  0  0  0  0  0  0  0  0  0  0  0
   35.9030   24.2200   41.7040 H   0  0  0  0  0  0  0  0  0  0  0  0
   37.8290   23.2290   40.7390 S   0  0  0  0  0  0  0  0  0  0  0  0
   39.0450   22.9310   41.3750 H   0  0  0  0  0  0  0  0  0  0  0  0
   37.0560   31.3570   40.5940 C   0  0  0  0  0  0  0  0  0  0  0  0
   36.8410   31.8190   39.3080 N   0  0  0  0  0  0  0  0  0  0  0  0
   37.8420   32.6120   38.9920 O   0  0  0  0  0  0  0  0  0  0  0  0
   38.6570   32.6520   40.0270 C   0  0  0  0  0  0  0  0  0  0  0  0
   38.1970   31.8960   41.0110 N   0  0  0  0  0  0  0  0  0  0  0  0
   39.8840   33.4350   40.0440 C   0  0  0  0  0  0  0  0  0  0  0  0
   39.9940   34.8070   39.9190 C   0  0  0  0  0  0  0  0  0  0  0  0
   41.3270   35.1620   39.9850 C   0  0  0  0  0  0  0  0  0  0  0  0
   41.9970   33.9690   40.1500 C   0  0  0  0  0  0  0  0  0  0  0  0
   41.1200   33.0170   40.1770 O   0  0  0  0  0  0  0  0  0  0  0  0
   39.2070   35.5380   39.7900 H   0  0  0  0  0  0  0  0  0  0  0  0
   41.7890   36.1470   39.9250 H   0  0  0  0  0  0  0  0  0  0  0  0
   43.4740   33.8230   40.2750 C   0  0  0  0  0  0  0  0  0  0  0  0
   44.0180   34.7490   41.3400 C   0  0  0  0  0  0  0  0  0  0  0  0
   43.8280   32.4140   40.6950 C   0  0  0  0  0  0  0  0  0  0  0  0
   44.1760   34.0900   38.9590 C   0  0  0  0  0  0  0  0  0  0  0  0
  1  6  1  0  0  0  0
  2  8  1  0  0  0  0
  3  9  1  0  0  0  0
  3  2  2  0  0  0  0
  4  3  1  0  0  0  0
  5  4  2  0  0  0  0
  5  6  1  0  0  0  0
  6  7  2  0  0  0  0
  7  2  1  0  0  0  0
 10  4  1  0  0  0  0
 10 13  1  0  0  0  0
 11 10  1  0  0  0  0
 12 10  1  0  0  0  0
 13 15  1  0  0  0  0
 13 14  1  0  0  0  0
 16 17  1  0  0  0  0
 16 13  1  0  0  0  0
 18 22  1  0  0  0  0
 18  1  1  0  0  0  0
 19 18  2  0  0  0  0
 20 19  1  0  0  0  0
 20 21  1  0  0  0  0
 21 23  1  0  0  0  0
 21 22  2  0  0  0  0
 23 27  1  0  0  0  0
 24 25  1  0  0  0  0
 24 23  2  0  0  0  0
 25 26  2  0  0  0  0
 26 27  1  0  0  0  0
 26 30  1  0  0  0  0
 28 24  1  0  0  0  0
 29 25  1  0  0  0  0
 30 32  1  0  0  0  0
 30 31  1  0  0  0  0
 33 30  1  0  0  0  0
M  END
>  <minimizedAffinity>
-5.26136684

>  <minimizedRMSD>
1.18099701

$$$$
