
 OpenBabel03242504273D

 22 23  0  0  0  0  0  0  0  0999 V2000
   37.1780   30.2630   41.4680 C   0  0  0  0  0  0  0  0  0  0  0  0
   36.0130   30.5330   41.1990 O   0  0  0  0  0  0  0  0  0  0  0  0
   37.4890   28.7100   43.4100 C   0  0  0  0  0  0  0  0  0  0  0  0
   37.7030   29.0090   42.0610 C   0  0  0  0  0  0  0  0  0  0  0  0
   38.4030   28.1690   41.2220 C   0  0  0  0  0  0  0  0  0  0  0  0
   38.8650   27.0290   41.8180 N   0  0  0  0  0  0  0  0  0  0  0  0
   38.6730   26.7230   43.1020 C   0  0  0  0  0  0  0  0  0  0  0  0
   37.9780   27.5660   43.9160 N   0  0  0  0  0  0  0  0  0  0  0  0
   36.9480   29.3670   44.0410 H   0  0  0  0  0  0  0  0  0  0  0  0
   38.5820   28.3770   40.1780 H   0  0  0  0  0  0  0  0  0  0  0  0
   39.1010   25.7810   43.4270 H   0  0  0  0  0  0  0  0  0  0  0  0
   38.1290   31.2250   41.1940 O   0  0  0  0  0  0  0  0  0  0  0  0
   38.0110   32.3760   40.5150 C   0  0  0  0  0  0  0  0  0  0  0  0
   37.5680   33.2040   41.1480 H   0  0  0  0  0  0  0  0  0  0  0  0
   37.4990   32.4500   39.5640 H   0  0  0  0  0  0  0  0  0  0  0  0
   39.7550   32.9310   40.2070 S   0  0  0  0  0  0  0  0  0  0  0  0
   39.7830   34.7240   40.0640 C   0  0  0  0  0  0  0  0  0  0  0  0
   38.7850   35.6230   40.0980 N   0  0  0  0  0  0  0  0  0  0  0  0
   39.2310   36.8190   39.9580 O   0  0  0  0  0  0  0  0  0  0  0  0
   40.5270   36.7680   39.8270 C   0  0  0  0  0  0  0  0  0  0  0  0
   41.1230   37.6620   39.6950 H   0  0  0  0  0  0  0  0  0  0  0  0
   40.8880   35.4680   39.8900 N   0  0  0  0  0  0  0  0  0  0  0  0
  1  4  1  0  0  0  0
  2  1  2  0  0  0  0
  3  8  1  0  0  0  0
  3  9  1  0  0  0  0
  4  3  2  0  0  0  0
  5  6  2  0  0  0  0
  5  4  1  0  0  0  0
  6  7  1  0  0  0  0
  7 11  1  0  0  0  0
  7  8  2  0  0  0  0
 10  5  1  0  0  0  0
 12  1  1  0  0  0  0
 13 14  1  0  0  0  0
 13 12  1  0  0  0  0
 15 13  1  0  0  0  0
 16 13  1  0  0  0  0
 17 18  2  0  0  0  0
 17 16  1  0  0  0  0
 19 18  1  0  0  0  0
 20 22  2  0  0  0  0
 20 19  1  0  0  0  0
 21 20  1  0  0  0  0
 22 17  1  0  0  0  0
M  END
>  <minimizedAffinity>
-4.26669788

>  <minimizedRMSD>
2.47699165

$$$$
