
 OpenBabel03242509313D

 24 26  0  0  0  0  0  0  0  0999 V2000
   37.5730   28.7760   43.1280 C   0  0  0  0  0  0  0  0  0  0  0  0
   38.1830   27.5630   43.5350 C   0  0  0  0  0  0  0  0  0  0  0  0
   38.6680   26.7090   42.5270 C   0  0  0  0  0  0  0  0  0  0  0  0
   38.5290   27.0850   41.2170 N   0  0  0  0  0  0  0  0  0  0  0  0
   37.9400   28.2510   40.8840 C   0  0  0  0  0  0  0  0  0  0  0  0
   37.4760   29.0720   41.8250 N   0  0  0  0  0  0  0  0  0  0  0  0
   37.2100   29.4140   43.9150 H   0  0  0  0  0  0  0  0  0  0  0  0
   38.2650   27.3160   44.5970 H   0  0  0  0  0  0  0  0  0  0  0  0
   37.7770   28.6780   39.5440 N   0  0  0  0  0  0  0  0  0  0  0  0
   37.4950   29.8970   39.0250 C   0  0  0  0  0  3  0  0  0  0  0  0
   37.4320   29.8380   37.6770 N   0  0  0  0  0  0  0  0  0  0  0  0
   37.6750   28.5640   37.3180 C   0  0  0  0  0  0  0  0  0  0  0  0
   37.7390   27.9230   36.0900 C   0  0  0  0  0  0  0  0  0  0  0  0
   38.0030   26.6070   35.9640 N   0  0  0  0  0  0  0  0  0  0  0  0
   38.2070   25.9340   37.1150 C   0  0  0  0  0  3  0  0  0  0  0  0
   38.1590   26.5030   38.3460 N   0  0  0  0  0  0  0  0  0  0  0  0
   37.8920   27.8330   38.4880 C   0  0  0  0  0  0  0  0  0  0  0  0
   39.3120   25.4290   42.9150 C   0  0  0  0  0  0  0  0  0  0  0  0
   40.3230   25.2130   42.0130 F   0  0  0  0  0  0  0  0  0  0  0  0
   39.8540   25.4710   44.1800 F   0  0  0  0  0  0  0  0  0  0  0  0
   38.4140   24.3570   42.8630 F   0  0  0  0  0  0  0  0  0  0  0  0
   37.5050   28.7360   34.9420 N   0  0  0  0  0  0  0  0  0  0  0  0
   38.4120   28.7030   34.3900 H   0  0  0  0  0  0  0  0  0  0  0  0
   36.6450   29.2510   34.6880 H   0  0  0  0  0  0  0  0  0  0  0  0
  1  2  1  0  0  0  0
  1  7  1  0  0  0  0
  2  8  1  0  0  0  0
  3 18  1  0  0  0  0
  3  2  2  0  0  0  0
  4  3  1  0  0  0  0
  5  4  2  0  0  0  0
  5  6  1  0  0  0  0
  6  1  2  0  0  0  0
  9  5  1  0  0  0  0
 10  9  1  0  0  0  0
 11 10  2  0  0  0  0
 12 11  1  0  0  0  0
 12 17  1  0  0  0  0
 13 12  2  0  0  0  0
 14 13  1  0  0  0  0
 14 15  2  0  0  0  0
 15 16  1  0  0  0  0
 16 17  2  0  0  0  0
 17  9  1  0  0  0  0
 18 20  1  0  0  0  0
 19 18  1  0  0  0  0
 21 18  1  0  0  0  0
 22 13  1  0  0  0  0
 23 22  1  0  0  0  0
 24 22  1  0  0  0  0
M  END
>  <minimizedAffinity>
-4.97979736

>  <minimizedRMSD>
3.22010231

$$$$
