
 OpenBabel03242509303D

 24 26  0  0  0  0  0  0  0  0999 V2000
   38.5140   25.0730   42.0650 C   0  0  0  0  0  0  0  0  0  0  0  0
   38.5810   23.7450   41.5720 C   0  0  0  0  0  0  0  0  0  0  0  0
   37.8770   23.4550   40.3890 C   0  0  0  0  0  0  0  0  0  0  0  0
   37.1690   24.4550   39.7780 N   0  0  0  0  0  0  0  0  0  0  0  0
   37.1370   25.7010   40.2890 C   0  0  0  0  0  0  0  0  0  0  0  0
   37.7980   25.9950   41.4080 N   0  0  0  0  0  0  0  0  0  0  0  0
   39.0600   25.2730   42.9710 H   0  0  0  0  0  0  0  0  0  0  0  0
   39.1640   22.9890   42.1040 H   0  0  0  0  0  0  0  0  0  0  0  0
   36.4180   26.7640   39.6890 N   0  0  0  0  0  0  0  0  0  0  0  0
   36.2950   28.0670   40.0400 C   0  0  0  0  0  3  0  0  0  0  0  0
   35.5000   28.7210   39.1670 N   0  0  0  0  0  0  0  0  0  0  0  0
   35.1010   27.8320   38.2400 C   0  0  0  0  0  0  0  0  0  0  0  0
   34.2890   27.9310   37.1210 C   0  0  0  0  0  0  0  0  0  0  0  0
   34.0200   26.8840   36.3150 N   0  0  0  0  0  0  0  0  0  0  0  0
   34.5930   25.7130   36.6600 C   0  0  0  0  0  3  0  0  0  0  0  0
   35.3960   25.5500   37.7410 N   0  0  0  0  0  0  0  0  0  0  0  0
   35.6760   26.6010   38.5650 C   0  0  0  0  0  0  0  0  0  0  0  0
   37.9240   22.0740   39.8430 C   0  0  0  0  0  0  0  0  0  0  0  0
   38.6750   22.1350   38.6970 F   0  0  0  0  0  0  0  0  0  0  0  0
   38.5160   21.1820   40.7090 F   0  0  0  0  0  0  0  0  0  0  0  0
   36.6470   21.5950   39.5300 F   0  0  0  0  0  0  0  0  0  0  0  0
   33.7390   29.2200   36.8530 N   0  0  0  0  0  0  0  0  0  0  0  0
   34.1400   29.5030   35.9120 H   0  0  0  0  0  0  0  0  0  0  0  0
   33.0890   29.7700   37.4400 H   0  0  0  0  0  0  0  0  0  0  0  0
  1  7  1  0  0  0  0
  2  1  1  0  0  0  0
  2  8  1  0  0  0  0
  3  2  2  0  0  0  0
  4  5  2  0  0  0  0
  4  3  1  0  0  0  0
  5  6  1  0  0  0  0
  6  1  2  0  0  0  0
  9 10  1  0  0  0  0
  9  5  1  0  0  0  0
 11 10  2  0  0  0  0
 12 17  1  0  0  0  0
 12 11  1  0  0  0  0
 13 12  2  0  0  0  0
 14 15  2  0  0  0  0
 14 13  1  0  0  0  0
 15 16  1  0  0  0  0
 16 17  2  0  0  0  0
 17  9  1  0  0  0  0
 18  3  1  0  0  0  0
 18 20  1  0  0  0  0
 19 18  1  0  0  0  0
 21 18  1  0  0  0  0
 22 13  1  0  0  0  0
 22 24  1  0  0  0  0
 23 22  1  0  0  0  0
M  END
>  <minimizedAffinity>
-3.59177423

>  <minimizedRMSD>
3.32762837

$$$$
