
 OpenBabel03242509023D

 41 45  0  0  1  0  0  0  0  0999 V2000
   38.3340   30.5100   40.6510 N   0  0  1  0  0  0  0  0  0  0  0  0
   36.9610   31.0580   40.8060 C   0  0  0  0  0  0  0  0  0  0  0  0
   36.0220   30.4960   39.7830 C   0  0  0  0  0  0  0  0  0  0  0  0
   36.6110   30.4520   38.5230 O   0  0  0  0  0  0  0  0  0  0  0  0
   37.6170   31.3860   38.4950 C   0  0  0  0  0  0  0  0  0  0  0  0
   38.8030   30.9600   39.3940 C   0  0  1  0  0  0  0  0  0  0  0  0
   36.9740   32.1560   40.8420 H   0  0  0  0  0  0  0  0  0  0  0  0
   36.5880   30.7500   41.8250 H   0  0  0  0  0  0  0  0  0  0  0  0
   35.1500   31.1710   39.7060 H   0  0  0  0  0  0  0  0  0  0  0  0
   35.6480   29.4870   40.1040 H   0  0  0  0  0  0  0  0  0  0  0  0
   38.0110   31.5030   37.4740 H   0  0  0  0  0  0  0  0  0  0  0  0
   37.2650   32.4040   38.8110 H   0  0  0  0  0  0  0  0  0  0  0  0
   39.2600   30.1020   38.8580 H   0  0  0  0  0  0  0  0  0  0  0  0
   39.7480   32.0560   39.4170 N   0  0  0  0  0  0  0  0  0  0  0  0
   41.0930   32.0680   39.2550 C   0  0  0  0  0  0  0  0  0  0  0  0
   41.5880   33.3130   39.3580 N   0  0  0  0  0  0  0  0  0  0  0  0
   40.5490   34.1350   39.5940 C   0  0  0  0  0  0  0  0  0  0  0  0
   40.3620   35.4960   39.7970 C   0  0  0  0  0  0  0  0  0  0  0  0
   39.1330   36.0220   40.0160 N   0  0  0  0  0  0  0  0  0  0  0  0
   38.0510   35.2260   40.0430 C   0  0  0  0  0  0  0  0  0  0  0  0
   38.1780   33.9020   39.8530 N   0  0  0  0  0  0  0  0  0  0  0  0
   39.4060   33.3640   39.6320 C   0  0  0  0  0  0  0  0  0  0  0  0
   41.5000   36.3440   39.7690 N   0  0  0  0  0  0  0  0  0  0  0  0
   41.3340   37.1310   39.0830 H   0  0  0  0  0  0  0  0  0  0  0  0
   42.3220   36.1310   40.3760 H   0  0  0  0  0  0  0  0  0  0  0  0
   39.0790   29.8620   43.0430 C   0  0  1  0  0  0  0  0  0  0  0  0
   40.3010   30.0620   42.2320 C   0  0  0  0  0  0  0  0  0  0  0  0
   39.0970   30.7710   41.7930 C   0  0  1  0  0  0  0  0  0  0  0  0
   38.8690   30.3470   43.9960 H   0  0  0  0  0  0  0  0  0  0  0  0
   41.1190   30.5960   42.7970 H   0  0  0  0  0  0  0  0  0  0  0  0
   40.7280   29.1620   41.7410 H   0  0  0  0  0  0  0  0  0  0  0  0
   39.1150   31.8610   42.1030 H   0  0  0  0  0  0  0  0  0  0  0  0
   38.5100   26.3210   42.2160 C   0  0  0  0  0  0  0  0  0  0  0  0
   37.1870   26.1030   42.6800 C   0  0  0  0  0  0  0  0  0  0  0  0
   36.5080   27.2100   43.2680 C   0  0  0  0  0  0  0  0  0  0  0  0
   37.1630   28.4320   43.3570 N   0  0  0  0  0  0  0  0  0  0  0  0
   38.4090   28.5460   42.8940 C   0  0  0  0  0  0  0  0  0  0  0  0
   39.0910   27.5240   42.3300 N   0  0  0  0  0  0  0  0  0  0  0  0
   39.0730   25.5250   41.7630 H   0  0  0  0  0  0  0  0  0  0  0  0
   36.7220   25.1520   42.5920 H   0  0  0  0  0  0  0  0  0  0  0  0
   35.5020   27.0950   43.6350 H   0  0  0  0  0  0  0  0  0  0  0  0
  1  2  1  1  0  0  0
  1 28  1  0  0  0  0
  2  7  1  0  0  0  0
  2  8  1  0  0  0  0
  3 10  1  0  0  0  0
  3  2  1  0  0  0  0
  4  3  1  0  0  0  0
  5  4  1  0  0  0  0
  5 12  1  0  0  0  0
  5  6  1  0  0  0  0
  6 13  1  6  0  0  0
  6 14  1  0  0  0  0
  6  1  1  0  0  0  0
  9  3  1  0  0  0  0
 11  5  1  0  0  0  0
 14 22  1  0  0  0  0
 15 16  2  0  0  0  0
 15 14  1  0  0  0  0
 16 17  1  0  0  0  0
 17 22  2  0  0  0  0
 17 18  1  0  0  0  0
 18 19  2  0  0  0  0
 19 20  1  0  0  0  0
 21 20  2  0  0  0  0
 22 21  1  0  0  0  0
 23 18  1  0  0  0  0
 23 25  1  0  0  0  0
 24 23  1  0  0  0  0
 26 29  1  1  0  0  0
 27 30  1  0  0  0  0
 27 26  1  0  0  0  0
 28 32  1  1  0  0  0
 28 27  1  0  0  0  0
 28 26  1  0  0  0  0
 31 27  1  0  0  0  0
 33 38  2  0  0  0  0
 33 34  1  0  0  0  0
 34 35  2  0  0  0  0
 35 36  1  0  0  0  0
 35 41  1  0  0  0  0
 37 26  1  0  0  0  0
 37 36  2  0  0  0  0
 38 37  1  0  0  0  0
 39 33  1  0  0  0  0
 40 34  1  0  0  0  0
M  END
>  <minimizedAffinity>
-6.20213175

>  <minimizedRMSD>
2.60901713

$$$$
