
 OpenBabel03242509213D

 29 31  0  0  0  0  0  0  0  0999 V2000
   38.7560   28.2390   42.7250 C   0  0  0  0  0  0  0  0  0  0  0  0
   37.6630   27.4290   42.7950 C   0  0  0  0  0  0  0  0  0  0  0  0
   36.6040   28.1400   42.2340 C   0  0  0  0  0  0  0  0  0  0  0  0
   37.1300   29.3370   41.8600 N   0  0  0  0  0  0  0  0  0  0  0  0
   38.3880   29.3940   42.1470 N   0  0  0  0  0  0  0  0  0  0  0  0
   37.6700   26.4260   43.2200 H   0  0  0  0  0  0  0  0  0  0  0  0
   35.6110   27.6910   42.1760 H   0  0  0  0  0  0  0  0  0  0  0  0
   41.6320   26.4970   44.3720 C   0  0  0  0  0  0  0  0  0  0  0  0
   40.3290   26.7580   43.9290 C   0  0  0  0  0  0  0  0  0  0  0  0
   40.0910   27.9330   43.1960 C   0  0  0  0  0  0  0  0  0  0  0  0
   41.1130   28.7760   42.9350 N   0  0  0  0  0  0  0  0  0  0  0  0
   42.3720   28.4850   43.3850 C   0  0  0  0  0  0  0  0  0  0  0  0
   42.6260   27.3680   44.0900 N   0  0  0  0  0  0  0  0  0  0  0  0
   41.7270   25.5740   44.9290 H   0  0  0  0  0  0  0  0  0  0  0  0
   39.5160   26.0780   44.1420 H   0  0  0  0  0  0  0  0  0  0  0  0
   43.1510   29.1940   43.1490 H   0  0  0  0  0  0  0  0  0  0  0  0
   36.2100   30.2660   41.2510 C   0  0  0  0  0  0  0  0  0  0  0  0
   36.6510   31.2770   41.1240 H   0  0  0  0  0  0  0  0  0  0  0  0
   35.3880   30.4020   42.0010 H   0  0  0  0  0  0  0  0  0  0  0  0
   35.5870   29.8050   39.9860 C   0  0  0  0  0  0  0  0  0  0  0  0
   34.5550   30.1730   39.9000 H   0  0  0  0  0  0  0  0  0  0  0  0
   35.5560   28.6870   39.9640 H   0  0  0  0  0  0  0  0  0  0  0  0
   36.3490   30.3310   38.8730 N   0  0  0  0  0  0  0  0  0  0  0  0
   36.3870   29.6870   37.6970 N   0  0  0  0  0  0  0  0  0  0  0  0
   37.1450   30.3390   36.8380 C   0  0  0  0  0  0  0  0  0  0  0  0
   37.3490   30.0310   35.8020 H   0  0  0  0  0  0  0  0  0  0  0  0
   37.6540   31.4760   37.4290 C   0  0  0  0  0  0  0  0  0  0  0  0
   37.1180   31.4130   38.6980 C   0  0  0  0  0  0  0  0  0  0  0  0
   37.3060   32.1510   39.4640 H   0  0  0  0  0  0  0  0  0  0  0  0
  1  2  1  0  0  0  0
  1 10  1  0  0  0  0
  2  6  1  0  0  0  0
  3  2  2  0  0  0  0
  4  5  1  0  0  0  0
  4  3  1  0  0  0  0
  5  1  2  0  0  0  0
  7  3  1  0  0  0  0
  8 14  1  0  0  0  0
  9 15  1  0  0  0  0
  9  8  2  0  0  0  0
 10  9  1  0  0  0  0
 11 10  2  0  0  0  0
 11 12  1  0  0  0  0
 12 13  2  0  0  0  0
 13  8  1  0  0  0  0
 16 12  1  0  0  0  0
 17  4  1  0  0  0  0
 17 19  1  0  0  0  0
 18 17  1  0  0  0  0
 20 17  1  0  0  0  0
 21 20  1  0  0  0  0
 22 20  1  0  0  0  0
 23 20  1  0  0  0  0
 24 23  1  0  0  0  0
 25 27  1  0  0  0  0
 25 24  2  0  0  0  0
 26 25  1  0  0  0  0
 27 28  2  0  0  0  0
 28 23  1  0  0  0  0
 28 29  1  0  0  0  0
M  END
>  <minimizedAffinity>
-4.34903288

>  <minimizedRMSD>
1.67551386

$$$$
