
 OpenBabel03242506403D

 22 24  0  0  0  0  0  0  0  0999 V2000
   38.5320   24.9570   42.7040 C   0  0  0  0  0  0  0  0  0  0  0  0
   39.7810   24.6300   43.0870 N   0  0  0  0  0  0  0  0  0  0  0  0
   40.6350   25.6090   43.4620 C   0  0  0  0  0  0  0  0  0  0  0  0
   40.3270   26.9200   43.4820 N   0  0  0  0  0  0  0  0  0  0  0  0
   39.0900   27.2840   43.1060 C   0  0  0  0  0  0  0  0  0  0  0  0
   38.8040   28.6300   43.1360 C   0  0  0  0  0  0  0  0  0  0  0  0
   37.5410   29.0400   42.7560 C   0  0  0  0  0  0  0  0  0  0  0  0
   37.1910   30.0810   42.7360 H   0  0  0  0  0  0  0  0  0  0  0  0
   36.6060   28.1050   42.3590 C   0  0  0  0  0  0  0  0  0  0  0  0
   35.5930   28.3980   42.0500 H   0  0  0  0  0  0  0  0  0  0  0  0
   36.9540   26.7710   42.3500 C   0  0  0  0  0  0  0  0  0  0  0  0
   38.2030   26.3150   42.7210 C   0  0  0  0  0  0  0  0  0  0  0  0
   37.5050   24.1220   42.2850 O   0  0  0  0  0  0  0  0  0  0  0  0
   36.3700   23.1960   38.9500 C   0  0  0  0  0  0  0  0  0  0  0  0
   36.4110   23.7840   40.2300 C   0  0  0  0  0  0  0  0  0  0  0  0
   37.5130   23.5290   41.0550 C   0  0  0  0  0  0  0  0  0  0  0  0
   38.4910   22.7220   40.5750 N   0  0  0  0  0  0  0  0  0  0  0  0
   38.4290   22.1730   39.3500 C   0  0  0  0  0  0  0  0  0  0  0  0
   37.3760   22.4080   38.5430 N   0  0  0  0  0  0  0  0  0  0  0  0
   35.5060   23.4160   38.3430 H   0  0  0  0  0  0  0  0  0  0  0  0
   35.6090   24.4140   40.5580 H   0  0  0  0  0  0  0  0  0  0  0  0
   39.2010   21.5270   38.9540 H   0  0  0  0  0  0  0  0  0  0  0  0
  1 12  2  0  0  0  0
  1  2  1  0  0  0  0
  2  3  2  0  0  0  0
  3  4  1  0  0  0  0
  5  6  1  0  0  0  0
  5  4  2  0  0  0  0
  7  6  2  0  0  0  0
  8  7  1  0  0  0  0
  9  7  1  0  0  0  0
 10  9  1  0  0  0  0
 11  9  2  0  0  0  0
 11 12  1  0  0  0  0
 12  5  1  0  0  0  0
 13  1  1  0  0  0  0
 14 15  1  0  0  0  0
 15 21  1  0  0  0  0
 15 16  2  0  0  0  0
 16 13  1  0  0  0  0
 17 16  1  0  0  0  0
 18 17  2  0  0  0  0
 19 14  2  0  0  0  0
 19 18  1  0  0  0  0
 20 14  1  0  0  0  0
 22 18  1  0  0  0  0
M  END
>  <minimizedAffinity>
-4.66709089

>  <minimizedRMSD>
5.91444778

$$$$
