
 OpenBabel03242508503D

 42 45  0  0  1  0  0  0  0  0999 V2000
   36.9830   28.5750   41.4800 C   0  0  2  0  0  0  0  0  0  0  0  0
   37.3330   29.6080   42.4080 C   0  0  0  0  0  0  0  0  0  0  0  0
   37.7250   28.8690   43.7060 C   0  0  0  0  0  0  0  0  0  0  0  0
   38.0930   27.4630   43.2600 C   0  0  0  0  0  0  0  0  0  0  0  0
   38.0810   27.4720   41.7700 C   0  0  1  0  0  0  0  0  0  0  0  0
   36.0740   28.0730   41.7490 H   0  0  0  0  0  0  0  0  0  0  0  0
   36.5850   30.3760   42.6390 H   0  0  0  0  0  0  0  0  0  0  0  0
   38.2550   30.1500   42.0970 H   0  0  0  0  0  0  0  0  0  0  0  0
   36.8420   28.8940   44.3740 H   0  0  0  0  0  0  0  0  0  0  0  0
   38.6150   29.3090   44.1790 H   0  0  0  0  0  0  0  0  0  0  0  0
   39.1320   27.1900   43.5740 H   0  0  0  0  0  0  0  0  0  0  0  0
   37.3560   26.8010   43.7050 H   0  0  0  0  0  0  0  0  0  0  0  0
   38.9880   27.7530   41.2590 H   0  0  0  0  0  0  0  0  0  0  0  0
   35.9920   28.4270   39.1400 C   0  0  0  0  0  0  0  0  0  0  0  0
   37.0000   28.9200   40.0590 C   0  0  0  0  0  0  0  0  0  0  0  0
   38.0080   29.7220   39.5990 C   0  0  0  0  0  0  0  0  0  0  0  0
   37.9910   30.0090   38.2540 N   0  0  0  0  0  0  0  0  0  0  0  0
   37.0340   29.5410   37.3790 C   0  0  0  0  0  0  0  0  0  0  0  0
   36.0140   28.7300   37.8440 N   0  0  0  0  0  0  0  0  0  0  0  0
   37.1250   29.9010   35.9980 N   0  0  0  0  0  0  0  0  0  0  0  0
   35.2350   27.8080   39.5740 H   0  0  0  0  0  0  0  0  0  0  0  0
   37.0180   30.8620   35.6330 H   0  0  0  0  0  0  0  0  0  0  0  0
   37.3160   29.0690   35.3970 H   0  0  0  0  0  0  0  0  0  0  0  0
   39.1020   30.3050   40.3120 C   0  0  0  0  0  0  0  0  0  0  0  0
   40.1230   29.8940   40.0220 H   0  0  0  0  0  0  0  0  0  0  0  0
   39.0900   30.1010   41.4020 H   0  0  0  0  0  0  0  0  0  0  0  0
   39.2580   31.7470   40.1610 N   0  0  0  0  0  0  0  0  0  0  0  0
   40.1800   32.5370   39.6470 N   0  0  0  0  0  0  0  0  0  0  0  0
   39.8530   33.8330   39.7510 C   0  0  0  0  0  0  0  0  0  0  0  0
   40.4190   34.6890   39.4170 H   0  0  0  0  0  0  0  0  0  0  0  0
   38.6390   33.9380   40.3710 C   0  0  0  0  0  0  0  0  0  0  0  0
   38.2940   32.6060   40.6150 C   0  0  0  0  0  0  0  0  0  0  0  0
   37.3630   32.3280   41.1080 H   0  0  0  0  0  0  0  0  0  0  0  0
   37.6110   26.0970   41.4280 C   0  0  0  0  0  0  0  0  0  0  0  0
   36.8980   25.3430   42.3280 N   0  0  0  0  0  0  0  0  0  0  0  0
   36.6200   24.1990   41.7440 O   0  0  0  0  0  0  0  0  0  0  0  0
   37.1270   24.2250   40.5380 C   0  0  0  0  0  0  0  0  0  0  0  0
   37.7480   25.3920   40.3140 N   0  0  0  0  0  0  0  0  0  0  0  0
   36.9750   23.0480   39.6060 C   0  0  0  0  0  0  0  0  0  0  0  0
   37.4650   21.9300   40.2150 F   0  0  0  0  0  0  0  0  0  0  0  0
   35.6470   22.8550   39.2900 F   0  0  0  0  0  0  0  0  0  0  0  0
   37.7080   23.2630   38.4460 F   0  0  0  0  0  0  0  0  0  0  0  0
  1  6  1  1  0  0  0
  1  5  1  0  0  0  0
  1  2  1  0  0  0  0
  2  7  1  0  0  0  0
  2  3  1  0  0  0  0
  3 10  1  0  0  0  0
  3  9  1  0  0  0  0
  4 11  1  0  0  0  0
  4 12  1  0  0  0  0
  4  3  1  0  0  0  0
  5 13  1  6  0  0  0
  5  4  1  0  0  0  0
  8  2  1  0  0  0  0
 14 21  1  0  0  0  0
 14 15  1  0  0  0  0
 15  1  1  0  0  0  0
 16 15  2  0  0  0  0
 16 24  1  0  0  0  0
 17 16  1  0  0  0  0
 18 19  1  0  0  0  0
 18 17  2  0  0  0  0
 19 14  2  0  0  0  0
 20 18  1  0  0  0  0
 22 20  1  0  0  0  0
 23 20  1  0  0  0  0
 24 26  1  0  0  0  0
 25 24  1  0  0  0  0
 27 24  1  0  0  0  0
 27 32  1  0  0  0  0
 28 29  2  0  0  0  0
 28 27  1  0  0  0  0
 29 31  1  0  0  0  0
 30 29  1  0  0  0  0
 31 32  2  0  0  0  0
 32 33  1  0  0  0  0
 34  5  1  0  0  0  0
 34 35  2  0  0  0  0
 36 35  1  0  0  0  0
 37 36  1  0  0  0  0
 38 37  2  0  0  0  0
 38 34  1  0  0  0  0
 39 40  1  0  0  0  0
 39 37  1  0  0  0  0
 41 39  1  0  0  0  0
 42 39  1  0  0  0  0
M  END
>  <minimizedAffinity>
-5.56653404

>  <minimizedRMSD>
4.6847949

$$$$
