
 OpenBabel03242507433D

 41 44  0  0  0  0  0  0  0  0999 V2000
   39.3890   27.8830   43.3500 C   0  0  0  0  0  0  0  0  0  0  0  0
   38.8370   26.5830   43.2550 C   0  0  0  0  0  0  0  0  0  0  0  0
   38.1280   26.2940   42.0890 C   0  0  0  0  0  0  0  0  0  0  0  0
   38.0010   27.2290   41.1330 N   0  0  0  0  0  0  0  0  0  0  0  0
   38.5380   28.4570   41.2510 C   0  0  0  0  0  0  0  0  0  0  0  0
   39.2290   28.7810   42.3580 N   0  0  0  0  0  0  0  0  0  0  0  0
   37.5340   25.0570   41.8670 N   0  0  0  0  0  0  0  0  0  0  0  0
   38.4370   29.4750   40.2560 N   0  0  0  0  0  0  0  0  0  0  0  0
   37.8740   29.1020   39.0850 C   0  0  0  0  0  0  0  0  0  0  0  0
   37.6950   29.9380   38.0020 C   0  0  0  0  0  0  0  0  0  0  0  0
   38.1230   31.2300   38.1460 C   0  0  0  0  0  0  0  0  0  0  0  0
   37.9940   32.0470   37.2060 O   0  0  0  0  0  0  0  0  0  0  0  0
   38.6790   31.5800   39.3160 N   0  0  0  0  0  0  0  0  0  0  0  0
   38.8430   30.7440   40.3590 C   0  0  0  0  0  0  0  0  0  0  0  0
   39.3580   31.0590   41.4510 O   0  0  0  0  0  0  0  0  0  0  0  0
   39.9410   28.1080   44.2580 H   0  0  0  0  0  0  0  0  0  0  0  0
   38.9440   25.8450   44.0220 H   0  0  0  0  0  0  0  0  0  0  0  0
   36.6190   24.9860   41.3720 H   0  0  0  0  0  0  0  0  0  0  0  0
   37.8900   24.1100   42.1420 H   0  0  0  0  0  0  0  0  0  0  0  0
   37.5240   28.0690   38.9490 H   0  0  0  0  0  0  0  0  0  0  0  0
   39.1480   32.9020   39.5340 C   0  0  0  0  0  0  0  0  0  0  0  0
   38.3020   33.8260   40.0940 C   0  0  0  0  0  0  0  0  0  0  0  0
   38.7800   35.1030   40.2980 C   0  0  0  0  0  0  0  0  0  0  0  0
   40.0760   35.4040   39.9360 C   0  0  0  0  0  0  0  0  0  0  0  0
   40.9300   34.5030   39.3800 C   0  0  0  0  0  0  0  0  0  0  0  0
   40.4590   33.2180   39.1730 C   0  0  0  0  0  0  0  0  0  0  0  0
   37.2920   33.5780   40.3720 H   0  0  0  0  0  0  0  0  0  0  0  0
   38.0900   35.8150   40.7420 H   0  0  0  0  0  0  0  0  0  0  0  0
   40.3590   36.4390   40.1370 H   0  0  0  0  0  0  0  0  0  0  0  0
   41.9320   34.7950   39.1180 H   0  0  0  0  0  0  0  0  0  0  0  0
   41.1100   32.4800   38.7340 H   0  0  0  0  0  0  0  0  0  0  0  0
   37.0650   29.4260   36.7570 C   0  0  0  0  0  0  0  0  0  0  0  0
   37.8640   28.8100   36.2530 H   0  0  0  0  0  0  0  0  0  0  0  0
   36.8950   30.3020   36.0970 H   0  0  0  0  0  0  0  0  0  0  0  0
   35.8820   28.6730   37.0210 N   0  0  0  0  0  0  0  0  0  0  0  0
   35.6620   27.3720   36.9220 N   0  0  0  0  0  0  0  0  0  0  0  0
   34.4030   27.0440   37.2610 C   0  0  0  0  0  0  0  0  0  0  0  0
   33.9260   26.0750   37.2830 H   0  0  0  0  0  0  0  0  0  0  0  0
   33.7860   28.2470   37.6010 C   0  0  0  0  0  0  0  0  0  0  0  0
   34.7230   29.2560   37.4460 C   0  0  0  0  0  0  0  0  0  0  0  0
   34.5630   30.3070   37.6290 H   0  0  0  0  0  0  0  0  0  0  0  0
  1 16  1  0  0  0  0
  2  1  1  0  0  0  0
  2 17  1  0  0  0  0
  3  2  2  0  0  0  0
  4  5  2  0  0  0  0
  4  3  1  0  0  0  0
  5  6  1  0  0  0  0
  6  1  2  0  0  0  0
  7  3  1  0  0  0  0
  7 19  1  0  0  0  0
  8 14  1  0  0  0  0
  8  5  1  0  0  0  0
  9  8  1  0  0  0  0
 10 11  1  0  0  0  0
 10  9  2  0  0  0  0
 11 13  1  0  0  0  0
 12 11  2  0  0  0  0
 13 21  1  0  0  0  0
 13 14  1  0  0  0  0
 14 15  2  0  0  0  0
 18  7  1  0  0  0  0
 20  9  1  0  0  0  0
 21 22  1  0  0  0  0
 22 23  2  0  0  0  0
 22 27  1  0  0  0  0
 23 28  1  0  0  0  0
 24 29  1  0  0  0  0
 24 23  1  0  0  0  0
 25 24  2  0  0  0  0
 26 25  1  0  0  0  0
 26 21  2  0  0  0  0
 30 25  1  0  0  0  0
 31 26  1  0  0  0  0
 32 35  1  0  0  0  0
 32 10  1  0  0  0  0
 33 32  1  0  0  0  0
 34 32  1  0  0  0  0
 35 40  1  0  0  0  0
 36 35  1  0  0  0  0
 36 37  2  0  0  0  0
 37 38  1  0  0  0  0
 37 39  1  0  0  0  0
 40 39  2  0  0  0  0
 40 41  1  0  0  0  0
M  END
>  <minimizedAffinity>
-6.05624485

>  <minimizedRMSD>
1.97540736

$$$$
