
 OpenBabel03242509263D

 51 56  0  0  0  0  0  0  0  0999 V2000
   39.5930   28.1940   43.1230 C   0  0  0  0  0  0  0  0  0  0  0  0
   38.4570   27.4910   43.4200 C   0  0  0  0  0  0  0  0  0  0  0  0
   37.3850   28.2440   42.9380 C   0  0  0  0  0  0  0  0  0  0  0  0
   37.9550   29.3280   42.3950 N   0  0  0  0  0  0  0  0  0  0  0  0
   39.2480   29.3330   42.4850 N   0  0  0  0  0  0  0  0  0  0  0  0
   38.3920   26.5250   43.9350 H   0  0  0  0  0  0  0  0  0  0  0  0
   36.3550   27.9260   43.0350 H   0  0  0  0  0  0  0  0  0  0  0  0
   42.5720   26.1790   44.0940 C   0  0  0  0  0  0  0  0  0  0  0  0
   41.2380   26.4860   43.8100 C   0  0  0  0  0  0  0  0  0  0  0  0
   40.9570   27.8160   43.4270 C   0  0  0  0  0  0  0  0  0  0  0  0
   41.9570   28.7300   43.3490 N   0  0  0  0  0  0  0  0  0  0  0  0
   43.2450   28.3510   43.6450 C   0  0  0  0  0  0  0  0  0  0  0  0
   43.5360   27.0980   44.0100 N   0  0  0  0  0  0  0  0  0  0  0  0
   42.8610   25.1710   44.3950 H   0  0  0  0  0  0  0  0  0  0  0  0
   40.4650   25.7320   43.8810 H   0  0  0  0  0  0  0  0  0  0  0  0
   44.1510   29.4580   43.5040 N   0  0  0  0  0  0  0  0  0  0  0  0
   44.8970   29.8690   42.4490 C   0  0  0  0  0  3  0  0  0  0  0  0
   45.5910   30.9600   42.8010 N   0  0  0  0  0  0  0  0  0  0  0  0
   45.3120   31.2730   44.0790 C   0  0  0  0  0  0  0  0  0  0  0  0
   45.7020   32.2590   44.9810 C   0  0  0  0  0  0  0  0  0  0  0  0
   45.2300   32.3090   46.2320 N   0  0  0  0  0  0  0  0  0  0  0  0
   44.3460   31.3670   46.6320 C   0  0  0  0  0  3  0  0  0  0  0  0
   43.9320   30.3860   45.7950 N   0  0  0  0  0  0  0  0  0  0  0  0
   44.4010   30.3220   44.5220 C   0  0  0  0  0  0  0  0  0  0  0  0
   46.6300   33.2410   44.5500 N   0  0  0  0  0  0  0  0  0  0  0  0
   47.5790   32.8980   44.8160 H   0  0  0  0  0  0  0  0  0  0  0  0
   45.9520   33.9300   44.1260 H   0  0  0  0  0  0  0  0  0  0  0  0
   37.1330   30.3270   41.8040 C   0  0  0  0  0  0  0  0  0  0  0  0
   36.6800   30.9030   42.6460 H   0  0  0  0  0  0  0  0  0  0  0  0
   37.7540   31.0630   41.2500 H   0  0  0  0  0  0  0  0  0  0  0  0
   36.0980   29.8280   40.8460 C   0  0  0  0  0  0  0  0  0  0  0  0
   35.4440   30.7640   40.7970 H   0  0  0  0  0  0  0  0  0  0  0  0
   35.6050   28.9630   41.2620 H   0  0  0  0  0  0  0  0  0  0  0  0
   36.5570   29.7080   39.4420 C   0  0  0  0  0  0  0  0  0  0  0  0
   37.8190   29.9170   38.9580 C   0  0  0  0  0  0  0  0  0  0  0  0
   38.1870   29.8640   37.6430 C   0  0  0  0  0  0  0  0  0  0  0  0
   37.2440   29.5850   36.6920 C   0  0  0  0  0  0  0  0  0  0  0  0
   35.9490   29.3610   37.1110 C   0  0  0  0  0  0  0  0  0  0  0  0
   35.0350   29.0910   36.1150 C   0  0  0  0  0  0  0  0  0  0  0  0
   33.7320   28.8610   36.4280 C   0  0  0  0  0  0  0  0  0  0  0  0
   33.3360   28.8970   37.7480 C   0  0  0  0  0  0  0  0  0  0  0  0
   34.2850   29.1680   38.6980 C   0  0  0  0  0  0  0  0  0  0  0  0
   35.5950   29.4150   38.4580 C   0  0  0  0  0  0  0  0  0  0  0  0
   38.5680   30.1400   39.7180 H   0  0  0  0  0  0  0  0  0  0  0  0
   39.2210   30.0520   37.4100 H   0  0  0  0  0  0  0  0  0  0  0  0
   37.5180   29.5410   35.6450 H   0  0  0  0  0  0  0  0  0  0  0  0
   35.3370   29.0580   35.0640 H   0  0  0  0  0  0  0  0  0  0  0  0
   33.0240   28.6530   35.6270 H   0  0  0  0  0  0  0  0  0  0  0  0
   32.3000   28.7130   38.0000 H   0  0  0  0  0  0  0  0  0  0  0  0
   33.8330   29.1720   40.0080 O   0  0  0  0  0  0  0  0  0  0  0  0
   33.1080   29.8140   40.3360 H   0  0  0  0  0  0  0  0  0  0  0  0
  1  2  1  0  0  0  0
  1 10  1  0  0  0  0
  2  6  1  0  0  0  0
  3  7  1  0  0  0  0
  3  2  2  0  0  0  0
  4  5  1  0  0  0  0
  4  3  1  0  0  0  0
  5  1  2  0  0  0  0
  8 14  1  0  0  0  0
  9 15  1  0  0  0  0
  9  8  2  0  0  0  0
 10  9  1  0  0  0  0
 11 10  2  0  0  0  0
 11 12  1  0  0  0  0
 12 13  2  0  0  0  0
 13  8  1  0  0  0  0
 16 12  1  0  0  0  0
 16 24  1  0  0  0  0
 17 18  2  0  0  0  0
 17 16  1  0  0  0  0
 18 19  1  0  0  0  0
 19 24  2  0  0  0  0
 19 20  1  0  0  0  0
 20 21  2  0  0  0  0
 21 22  1  0  0  0  0
 23 22  2  0  0  0  0
 24 23  1  0  0  0  0
 25 26  1  0  0  0  0
 25 20  1  0  0  0  0
 27 25  1  0  0  0  0
 28  4  1  0  0  0  0
 28 29  1  0  0  0  0
 30 28  1  0  0  0  0
 31 33  1  0  0  0  0
 31 28  1  0  0  0  0
 32 31  1  0  0  0  0
 34 31  1  0  0  0  0
 35 34  1  0  0  0  0
 35 44  1  0  0  0  0
 36 35  2  0  0  0  0
 37 38  2  0  0  0  0
 37 36  1  0  0  0  0
 38 43  1  0  0  0  0
 39 40  2  0  0  0  0
 39 38  1  0  0  0  0
 40 41  1  0  0  0  0
 41 49  1  0  0  0  0
 41 42  2  0  0  0  0
 42 50  1  0  0  0  0
 43 42  1  0  0  0  0
 43 34  2  0  0  0  0
 45 36  1  0  0  0  0
 46 37  1  0  0  0  0
 47 39  1  0  0  0  0
 48 40  1  0  0  0  0
 50 51  1  0  0  0  0
M  END
>  <minimizedAffinity>
-6.90530252

>  <minimizedRMSD>
1.23325598

$$$$
