
 OpenBabel03242509263D

 51 56  0  0  0  0  0  0  0  0999 V2000
   38.4100   28.1040   42.5800 C   0  0  0  0  0  0  0  0  0  0  0  0
   37.3680   27.2300   42.7340 C   0  0  0  0  0  0  0  0  0  0  0  0
   36.2620   27.8160   42.1150 C   0  0  0  0  0  0  0  0  0  0  0  0
   36.7210   28.9820   41.6440 N   0  0  0  0  0  0  0  0  0  0  0  0
   37.9770   29.1850   41.8970 N   0  0  0  0  0  0  0  0  0  0  0  0
   37.3890   26.2590   43.2410 H   0  0  0  0  0  0  0  0  0  0  0  0
   35.2900   27.3420   42.0830 H   0  0  0  0  0  0  0  0  0  0  0  0
   41.4000   26.7370   44.3330 C   0  0  0  0  0  0  0  0  0  0  0  0
   40.0750   26.8470   43.9020 C   0  0  0  0  0  0  0  0  0  0  0  0
   39.7670   27.9370   43.0570 C   0  0  0  0  0  0  0  0  0  0  0  0
   40.7350   28.8180   42.7000 N   0  0  0  0  0  0  0  0  0  0  0  0
   42.0160   28.6420   43.1660 C   0  0  0  0  0  0  0  0  0  0  0  0
   42.3320   27.6190   43.9670 N   0  0  0  0  0  0  0  0  0  0  0  0
   41.7080   25.9200   44.9870 H   0  0  0  0  0  0  0  0  0  0  0  0
   39.3270   26.1260   44.2050 H   0  0  0  0  0  0  0  0  0  0  0  0
   42.8870   29.6760   42.6770 N   0  0  0  0  0  0  0  0  0  0  0  0
   44.2380   29.7790   42.6870 C   0  0  0  0  0  3  0  0  0  0  0  0
   44.5940   30.9360   42.1100 N   0  0  0  0  0  0  0  0  0  0  0  0
   43.4890   31.5980   41.7200 C   0  0  0  0  0  0  0  0  0  0  0  0
   43.2130   32.8070   41.0880 C   0  0  0  0  0  0  0  0  0  0  0  0
   41.9630   33.2050   40.8250 N   0  0  0  0  0  0  0  0  0  0  0  0
   40.9350   32.4030   41.1880 C   0  0  0  0  0  3  0  0  0  0  0  0
   41.1490   31.2170   41.8050 N   0  0  0  0  0  0  0  0  0  0  0  0
   42.4120   30.7990   42.0790 C   0  0  0  0  0  0  0  0  0  0  0  0
   44.2980   33.6380   40.7120 N   0  0  0  0  0  0  0  0  0  0  0  0
   44.4520   34.3090   41.4960 H   0  0  0  0  0  0  0  0  0  0  0  0
   44.5050   33.2170   39.7650 H   0  0  0  0  0  0  0  0  0  0  0  0
   35.8370   29.8510   40.9480 C   0  0  0  0  0  0  0  0  0  0  0  0
   35.1880   30.3270   41.7210 H   0  0  0  0  0  0  0  0  0  0  0  0
   36.3990   30.6900   40.4850 H   0  0  0  0  0  0  0  0  0  0  0  0
   35.0340   29.2170   39.8570 C   0  0  0  0  0  0  0  0  0  0  0  0
   34.2530   30.0400   39.7170 H   0  0  0  0  0  0  0  0  0  0  0  0
   34.6320   28.2760   40.2020 H   0  0  0  0  0  0  0  0  0  0  0  0
   35.6930   29.1990   38.5300 C   0  0  0  0  0  0  0  0  0  0  0  0
   37.0320   29.2730   38.2640 C   0  0  0  0  0  0  0  0  0  0  0  0
   37.5970   29.3250   37.0210 C   0  0  0  0  0  0  0  0  0  0  0  0
   36.7920   29.3070   35.9160 C   0  0  0  0  0  0  0  0  0  0  0  0
   35.4280   29.2310   36.1100 C   0  0  0  0  0  0  0  0  0  0  0  0
   34.6600   29.2240   34.9670 C   0  0  0  0  0  0  0  0  0  0  0  0
   33.3040   29.1560   35.0550 C   0  0  0  0  0  0  0  0  0  0  0  0
   32.7090   29.0910   36.2970 C   0  0  0  0  0  0  0  0  0  0  0  0
   33.5200   29.1000   37.4000 C   0  0  0  0  0  0  0  0  0  0  0  0
   34.8720   29.1740   37.3870 C   0  0  0  0  0  0  0  0  0  0  0  0
   37.6720   29.2880   39.1470 H   0  0  0  0  0  0  0  0  0  0  0  0
   38.6710   29.3820   36.9670 H   0  0  0  0  0  0  0  0  0  0  0  0
   37.2230   29.3500   34.9240 H   0  0  0  0  0  0  0  0  0  0  0  0
   35.1190   29.2730   33.9750 H   0  0  0  0  0  0  0  0  0  0  0  0
   32.7140   29.1550   34.1400 H   0  0  0  0  0  0  0  0  0  0  0  0
   31.6310   29.0360   36.3700 H   0  0  0  0  0  0  0  0  0  0  0  0
   32.8670   29.0140   38.6200 O   0  0  0  0  0  0  0  0  0  0  0  0
   32.1880   29.7130   38.9300 H   0  0  0  0  0  0  0  0  0  0  0  0
  1  2  1  0  0  0  0
  1 10  1  0  0  0  0
  2  6  1  0  0  0  0
  3  2  2  0  0  0  0
  4  5  1  0  0  0  0
  4  3  1  0  0  0  0
  5  1  2  0  0  0  0
  7  3  1  0  0  0  0
  8 14  1  0  0  0  0
  9 15  1  0  0  0  0
  9  8  2  0  0  0  0
 10  9  1  0  0  0  0
 11 10  2  0  0  0  0
 11 12  1  0  0  0  0
 12 13  2  0  0  0  0
 13  8  1  0  0  0  0
 16 17  1  0  0  0  0
 16 12  1  0  0  0  0
 18 17  2  0  0  0  0
 19 24  1  0  0  0  0
 19 18  1  0  0  0  0
 20 19  2  0  0  0  0
 21 20  1  0  0  0  0
 21 22  2  0  0  0  0
 22 23  1  0  0  0  0
 23 24  2  0  0  0  0
 24 16  1  0  0  0  0
 25 20  1  0  0  0  0
 25 26  1  0  0  0  0
 27 25  1  0  0  0  0
 28  4  1  0  0  0  0
 28 29  1  0  0  0  0
 30 28  1  0  0  0  0
 31 33  1  0  0  0  0
 31 28  1  0  0  0  0
 32 31  1  0  0  0  0
 34 31  1  0  0  0  0
 35 34  1  0  0  0  0
 35 44  1  0  0  0  0
 36 35  2  0  0  0  0
 37 38  2  0  0  0  0
 37 36  1  0  0  0  0
 38 43  1  0  0  0  0
 39 40  2  0  0  0  0
 39 38  1  0  0  0  0
 40 41  1  0  0  0  0
 41 49  1  0  0  0  0
 41 42  2  0  0  0  0
 42 50  1  0  0  0  0
 43 42  1  0  0  0  0
 43 34  2  0  0  0  0
 45 36  1  0  0  0  0
 46 37  1  0  0  0  0
 47 39  1  0  0  0  0
 48 40  1  0  0  0  0
 50 51  1  0  0  0  0
M  END
>  <minimizedAffinity>
-6.73312807

>  <minimizedRMSD>
0.418134421

$$$$
