
 OpenBabel03242509263D

 51 56  0  0  0  0  0  0  0  0999 V2000
   38.4410   28.1870   42.5870 C   0  0  0  0  0  0  0  0  0  0  0  0
   37.4260   27.2780   42.7140 C   0  0  0  0  0  0  0  0  0  0  0  0
   36.3080   27.8390   42.0940 C   0  0  0  0  0  0  0  0  0  0  0  0
   36.7350   29.0270   41.6480 N   0  0  0  0  0  0  0  0  0  0  0  0
   37.9810   29.2660   41.9190 N   0  0  0  0  0  0  0  0  0  0  0  0
   37.4730   26.2990   43.2050 H   0  0  0  0  0  0  0  0  0  0  0  0
   35.3530   27.3350   42.0430 H   0  0  0  0  0  0  0  0  0  0  0  0
   41.4900   26.8160   44.2320 C   0  0  0  0  0  0  0  0  0  0  0  0
   40.1680   26.8880   43.7820 C   0  0  0  0  0  0  0  0  0  0  0  0
   39.7970   28.0540   43.0760 C   0  0  0  0  0  0  0  0  0  0  0  0
   40.7040   29.0410   42.8630 N   0  0  0  0  0  0  0  0  0  0  0  0
   41.9860   28.8960   43.3390 C   0  0  0  0  0  0  0  0  0  0  0  0
   42.3610   27.8010   44.0090 N   0  0  0  0  0  0  0  0  0  0  0  0
   41.8440   25.9440   44.7830 H   0  0  0  0  0  0  0  0  0  0  0  0
   39.4700   26.0830   43.9690 H   0  0  0  0  0  0  0  0  0  0  0  0
   42.7880   30.0430   43.0110 N   0  0  0  0  0  0  0  0  0  0  0  0
   44.0750   30.3450   43.3110 C   0  0  0  0  0  3  0  0  0  0  0  0
   44.3820   31.5370   42.7820 N   0  0  0  0  0  0  0  0  0  0  0  0
   43.3090   32.0260   42.1340 C   0  0  0  0  0  0  0  0  0  0  0  0
   43.0100   33.1780   41.4100 C   0  0  0  0  0  0  0  0  0  0  0  0
   41.8060   33.3860   40.8650 N   0  0  0  0  0  0  0  0  0  0  0  0
   40.8470   32.4430   41.0280 C   0  0  0  0  0  3  0  0  0  0  0  0
   41.0850   31.3060   41.7220 N   0  0  0  0  0  0  0  0  0  0  0  0
   42.3020   31.0800   42.2800 C   0  0  0  0  0  0  0  0  0  0  0  0
   44.0230   34.1570   41.2480 N   0  0  0  0  0  0  0  0  0  0  0  0
   43.9020   34.8480   42.0210 H   0  0  0  0  0  0  0  0  0  0  0  0
   44.4910   33.7640   40.3870 H   0  0  0  0  0  0  0  0  0  0  0  0
   35.8300   29.8800   40.9570 C   0  0  0  0  0  0  0  0  0  0  0  0
   35.1720   30.3370   41.7330 H   0  0  0  0  0  0  0  0  0  0  0  0
   36.3740   30.7340   40.4980 H   0  0  0  0  0  0  0  0  0  0  0  0
   35.0420   29.2340   39.8630 C   0  0  0  0  0  0  0  0  0  0  0  0
   34.2520   30.0470   39.7160 H   0  0  0  0  0  0  0  0  0  0  0  0
   34.6480   28.2890   40.2080 H   0  0  0  0  0  0  0  0  0  0  0  0
   35.7090   29.2190   38.5400 C   0  0  0  0  0  0  0  0  0  0  0  0
   37.0490   29.3060   38.2830 C   0  0  0  0  0  0  0  0  0  0  0  0
   37.6220   29.3610   37.0430 C   0  0  0  0  0  0  0  0  0  0  0  0
   36.8230   29.3320   35.9330 C   0  0  0  0  0  0  0  0  0  0  0  0
   35.4590   29.2440   36.1180 C   0  0  0  0  0  0  0  0  0  0  0  0
   34.6980   29.2260   34.9710 C   0  0  0  0  0  0  0  0  0  0  0  0
   33.3420   29.1450   35.0500 C   0  0  0  0  0  0  0  0  0  0  0  0
   32.7410   29.0780   36.2880 C   0  0  0  0  0  0  0  0  0  0  0  0
   33.5440   29.0970   37.3970 C   0  0  0  0  0  0  0  0  0  0  0  0
   34.8960   29.1840   37.3930 C   0  0  0  0  0  0  0  0  0  0  0  0
   37.6830   29.3290   39.1690 H   0  0  0  0  0  0  0  0  0  0  0  0
   38.6950   29.4280   36.9950 H   0  0  0  0  0  0  0  0  0  0  0  0
   37.2600   29.3770   34.9430 H   0  0  0  0  0  0  0  0  0  0  0  0
   35.1630   29.2770   33.9810 H   0  0  0  0  0  0  0  0  0  0  0  0
   32.7580   29.1360   34.1320 H   0  0  0  0  0  0  0  0  0  0  0  0
   31.6630   29.0110   36.3550 H   0  0  0  0  0  0  0  0  0  0  0  0
   32.8850   29.0070   38.6130 O   0  0  0  0  0  0  0  0  0  0  0  0
   32.1970   29.7000   38.9170 H   0  0  0  0  0  0  0  0  0  0  0  0
  1  2  1  0  0  0  0
  1 10  1  0  0  0  0
  2  6  1  0  0  0  0
  3  2  2  0  0  0  0
  4  5  1  0  0  0  0
  4  3  1  0  0  0  0
  5  1  2  0  0  0  0
  7  3  1  0  0  0  0
  8 14  1  0  0  0  0
  9 15  1  0  0  0  0
  9  8  2  0  0  0  0
 10  9  1  0  0  0  0
 11 10  2  0  0  0  0
 11 12  1  0  0  0  0
 12 13  2  0  0  0  0
 13  8  1  0  0  0  0
 16 17  1  0  0  0  0
 16 12  1  0  0  0  0
 18 17  2  0  0  0  0
 19 24  1  0  0  0  0
 19 18  1  0  0  0  0
 20 19  2  0  0  0  0
 21 22  2  0  0  0  0
 21 20  1  0  0  0  0
 22 23  1  0  0  0  0
 23 24  2  0  0  0  0
 24 16  1  0  0  0  0
 25 20  1  0  0  0  0
 25 26  1  0  0  0  0
 27 25  1  0  0  0  0
 28  4  1  0  0  0  0
 28 29  1  0  0  0  0
 30 28  1  0  0  0  0
 31 33  1  0  0  0  0
 31 28  1  0  0  0  0
 32 31  1  0  0  0  0
 34 31  1  0  0  0  0
 35 34  1  0  0  0  0
 35 44  1  0  0  0  0
 36 35  2  0  0  0  0
 37 38  2  0  0  0  0
 37 36  1  0  0  0  0
 38 43  1  0  0  0  0
 39 40  2  0  0  0  0
 39 38  1  0  0  0  0
 40 41  1  0  0  0  0
 41 49  1  0  0  0  0
 41 42  2  0  0  0  0
 42 50  1  0  0  0  0
 43 42  1  0  0  0  0
 43 34  2  0  0  0  0
 45 36  1  0  0  0  0
 46 37  1  0  0  0  0
 47 39  1  0  0  0  0
 48 40  1  0  0  0  0
 50 51  1  0  0  0  0
M  END
>  <minimizedAffinity>
-6.85948038

>  <minimizedRMSD>
0.529239714

$$$$
