REMARK  Name = 
REMARK  6 active torsions:
REMARK  status: ('A' for Active; 'I' for Inactive)
REMARK    1  A    between atoms: C_1  and  C_2
REMARK    2  A    between atoms: C_1  and  C_13
REMARK    3  A    between atoms: C_10  and  O_12
REMARK    4  A    between atoms: C_13  and  N_17
REMARK    5  A    between atoms: C_14  and  C_21
REMARK    6  A    between atoms: C_44  and  N_45
REMARK                            x       y       z     vdW  Elec       q    Type
REMARK                         _______ _______ _______ _____ _____    ______ ____
ROOT
ATOM      1  C   UNL     1      38.651  28.158  42.717  0.00  0.00    +0.000 A 
ATOM      2  C   UNL     1      37.561  27.344  42.868  0.00  0.00    +0.000 A 
ATOM      3  C   UNL     1      36.486  28.002  42.267  0.00  0.00    +0.000 A 
ATOM      4  N   UNL     1      37.009  29.146  41.808  0.00  0.00    +0.000 N 
ATOM      5  N   UNL     1      38.276  29.272  42.053  0.00  0.00    +0.000 NA
ATOM      6  H   UNL     1      37.529  26.366  43.362  0.00  0.00    +0.000 HD
ATOM      7  H   UNL     1      35.488  27.586  42.237  0.00  0.00    +0.000 HD
ENDROOT
BRANCH   1  10
ATOM      8  C   UNL     1      41.584  26.551  44.359  0.00  0.00    +0.000 A 
ATOM      9  C   UNL     1      40.265  26.742  43.937  0.00  0.00    +0.000 A 
ATOM     10  C   UNL     1      39.999  27.905  43.180  0.00  0.00    +0.000 A 
ATOM     11  N   UNL     1      40.999  28.776  42.893  0.00  0.00    +0.000 NA
ATOM     12  C   UNL     1      42.272  28.518  43.345  0.00  0.00    +0.000 A 
ATOM     13  N   UNL     1      42.548  27.425  44.063  0.00  0.00    +0.000 NA
ATOM     14  H   UNL     1      41.860  25.675  44.947  0.00  0.00    +0.000 HD
ATOM     15  H   UNL     1      39.491  26.027  44.183  0.00  0.00    +0.000 HD
ATOM     16  N   UNL     1      43.181  29.555  42.938  0.00  0.00    +0.000 N 
ATOM     17  C   UNL     1      44.516  29.526  42.703  0.00  0.00    +0.000 A 
ATOM     18  N   UNL     1      44.924  30.751  42.343  0.00  0.00    +0.000 NA
ATOM     19  C   UNL     1      43.871  31.589  42.338  0.00  0.00    +0.000 A 
ATOM     20  C   UNL     1      43.660  32.937  42.061  0.00  0.00    +0.000 A 
ATOM     21  N   UNL     1      42.450  33.502  42.148  0.00  0.00    +0.000 NA
ATOM     22  C   UNL     1      41.399  32.735  42.517  0.00  0.00    +0.000 A 
ATOM     23  N   UNL     1      41.549  31.419  42.798  0.00  0.00    +0.000 NA
ATOM     24  C   UNL     1      42.770  30.830  42.714  0.00  0.00    +0.000 A 
BRANCH  20  25
ATOM     25  N   UNL     1      44.770  33.730  41.675  0.00  0.00    +0.000 N 
ATOM     26  H   UNL     1      45.146  34.169  42.544  0.00  0.00    +0.000 HD
ATOM     27  H   UNL     1      44.752  33.538  40.637  0.00  0.00    +0.000 HD
ENDBRANCH  20  25
ENDBRANCH   1  10
BRANCH   4  28
ATOM     28  C   UNL     1      36.171  30.075  41.131  0.00  0.00    +0.000 C 
ATOM     29  H   UNL     1      35.588  30.607  41.920  0.00  0.00    +0.000 HD
ATOM     30  H   UNL     1      36.781  30.863  40.640  0.00  0.00    +0.000 HD
BRANCH  28  31
ATOM     31  C   UNL     1      35.285  29.495  40.075  0.00  0.00    +0.000 C 
ATOM     32  H   UNL     1      34.560  30.371  39.959  0.00  0.00    +0.000 HD
ATOM     33  H   UNL     1      34.830  28.587  40.441  0.00  0.00    +0.000 HD
BRANCH  31  34
ATOM     34  C   UNL     1      35.891  29.424  38.725  0.00  0.00    +0.000 A 
ATOM     35  C   UNL     1      37.208  29.584  38.394  0.00  0.00    +0.000 A 
ATOM     36  C   UNL     1      37.718  29.582  37.126  0.00  0.00    +0.000 A 
ATOM     37  C   UNL     1      36.874  29.411  36.063  0.00  0.00    +0.000 A 
ATOM     38  C   UNL     1      35.530  29.242  36.324  0.00  0.00    +0.000 A 
ATOM     39  C   UNL     1      34.721  29.082  35.221  0.00  0.00    +0.000 A 
ATOM     40  C   UNL     1      33.380  28.913  35.375  0.00  0.00    +0.000 A 
ATOM     41  C   UNL     1      32.842  28.900  36.644  0.00  0.00    +0.000 A 
ATOM     42  C   UNL     1      33.691  29.062  37.706  0.00  0.00    +0.000 A 
ATOM     43  C   UNL     1      35.031  29.243  37.626  0.00  0.00    +0.000 A 
ATOM     44  H   UNL     1      37.878  29.721  39.243  0.00  0.00    +0.000 HD
ATOM     45  H   UNL     1      38.780  29.720  37.019  0.00  0.00    +0.000 HD
ATOM     46  H   UNL     1      37.261  29.409  35.052  0.00  0.00    +0.000 HD
ATOM     47  H   UNL     1      35.136  29.088  34.208  0.00  0.00    +0.000 HD
ATOM     48  H   UNL     1      32.757  28.791  34.491  0.00  0.00    +0.000 HD
ATOM     49  H   UNL     1      31.776  28.764  36.770  0.00  0.00    +0.000 HD
BRANCH  42  50
ATOM     50  O   UNL     1      33.096  29.021  38.957  0.00  0.00    +0.000 OA
ATOM     51  H   UNL     1      32.374  29.686  39.243  0.00  0.00    +0.000 HD
ENDBRANCH  42  50
ENDBRANCH  31  34
ENDBRANCH  28  31
ENDBRANCH   4  28
TORSDOF 6
