
 OpenBabel03242509263D

 51 56  0  0  0  0  0  0  0  0999 V2000
   38.6790   28.1650   42.7240 C   0  0  0  0  0  0  0  0  0  0  0  0
   37.6100   27.3210   42.8580 C   0  0  0  0  0  0  0  0  0  0  0  0
   36.5220   27.9570   42.2560 C   0  0  0  0  0  0  0  0  0  0  0  0
   37.0170   29.1190   41.8140 N   0  0  0  0  0  0  0  0  0  0  0  0
   38.2790   29.2760   42.0700 N   0  0  0  0  0  0  0  0  0  0  0  0
   37.6000   26.3360   43.3400 H   0  0  0  0  0  0  0  0  0  0  0  0
   35.5350   27.5150   42.2140 H   0  0  0  0  0  0  0  0  0  0  0  0
   41.6520   26.5940   44.3270 C   0  0  0  0  0  0  0  0  0  0  0  0
   40.3330   26.7540   43.8950 C   0  0  0  0  0  0  0  0  0  0  0  0
   40.0290   27.9430   43.1950 C   0  0  0  0  0  0  0  0  0  0  0  0
   40.9970   28.8670   42.9680 N   0  0  0  0  0  0  0  0  0  0  0  0
   42.2730   28.6370   43.4250 C   0  0  0  0  0  0  0  0  0  0  0  0
   42.5840   27.5200   44.0910 N   0  0  0  0  0  0  0  0  0  0  0  0
   41.9560   25.7010   44.8740 H   0  0  0  0  0  0  0  0  0  0  0  0
   39.5850   25.9970   44.0930 H   0  0  0  0  0  0  0  0  0  0  0  0
   43.1440   29.7290   43.0860 N   0  0  0  0  0  0  0  0  0  0  0  0
   43.5310   30.2190   41.8820 C   0  0  0  0  0  3  0  0  0  0  0  0
   44.3600   31.2540   42.0760 N   0  0  0  0  0  0  0  0  0  0  0  0
   44.5270   31.4510   43.3960 C   0  0  0  0  0  0  0  0  0  0  0  0
   45.2410   32.3380   44.1980 C   0  0  0  0  0  0  0  0  0  0  0  0
   45.2040   32.2800   45.5350 N   0  0  0  0  0  0  0  0  0  0  0  0
   44.4440   31.3270   46.1220 C   0  0  0  0  0  3  0  0  0  0  0  0
   43.7300   30.4400   45.3900 N   0  0  0  0  0  0  0  0  0  0  0  0
   43.7570   30.4860   44.0330 C   0  0  0  0  0  0  0  0  0  0  0  0
   46.0330   33.3310   43.5690 N   0  0  0  0  0  0  0  0  0  0  0  0
   46.9960   32.9400   43.4810 H   0  0  0  0  0  0  0  0  0  0  0  0
   45.2930   34.0740   43.4480 H   0  0  0  0  0  0  0  0  0  0  0  0
   36.1600   30.0340   41.1420 C   0  0  0  0  0  0  0  0  0  0  0  0
   35.5660   30.5500   41.9330 H   0  0  0  0  0  0  0  0  0  0  0  0
   36.7530   30.8360   40.6540 H   0  0  0  0  0  0  0  0  0  0  0  0
   35.2860   29.4400   40.0830 C   0  0  0  0  0  0  0  0  0  0  0  0
   34.5510   30.3070   39.9610 H   0  0  0  0  0  0  0  0  0  0  0  0
   34.8390   28.5280   40.4500 H   0  0  0  0  0  0  0  0  0  0  0  0
   35.8990   29.3710   38.7370 C   0  0  0  0  0  0  0  0  0  0  0  0
   37.2230   29.4930   38.4170 C   0  0  0  0  0  0  0  0  0  0  0  0
   37.7420   29.4960   37.1530 C   0  0  0  0  0  0  0  0  0  0  0  0
   36.9010   29.3700   36.0820 C   0  0  0  0  0  0  0  0  0  0  0  0
   35.5510   29.2400   36.3300 C   0  0  0  0  0  0  0  0  0  0  0  0
   34.7450   29.1250   35.2190 C   0  0  0  0  0  0  0  0  0  0  0  0
   33.3980   28.9970   35.3610 C   0  0  0  0  0  0  0  0  0  0  0  0
   32.8510   28.9810   36.6260 C   0  0  0  0  0  0  0  0  0  0  0  0
   33.6960   29.0980   37.6960 C   0  0  0  0  0  0  0  0  0  0  0  0
   35.0420   29.2360   37.6290 C   0  0  0  0  0  0  0  0  0  0  0  0
   37.8910   29.5950   39.2730 H   0  0  0  0  0  0  0  0  0  0  0  0
   38.8090   29.6010   37.0560 H   0  0  0  0  0  0  0  0  0  0  0  0
   37.2960   29.3720   35.0730 H   0  0  0  0  0  0  0  0  0  0  0  0
   35.1680   29.1340   34.2090 H   0  0  0  0  0  0  0  0  0  0  0  0
   32.7780   28.9100   34.4710 H   0  0  0  0  0  0  0  0  0  0  0  0
   31.7800   28.8770   36.7420 H   0  0  0  0  0  0  0  0  0  0  0  0
   33.0910   29.0560   38.9420 O   0  0  0  0  0  0  0  0  0  0  0  0
   32.3890   29.7390   39.2340 H   0  0  0  0  0  0  0  0  0  0  0  0
  1  2  1  0  0  0  0
  1 10  1  0  0  0  0
  2  6  1  0  0  0  0
  3  2  2  0  0  0  0
  4  5  1  0  0  0  0
  4  3  1  0  0  0  0
  5  1  2  0  0  0  0
  7  3  1  0  0  0  0
  8 14  1  0  0  0  0
  9 15  1  0  0  0  0
  9  8  2  0  0  0  0
 10  9  1  0  0  0  0
 11 10  2  0  0  0  0
 11 12  1  0  0  0  0
 12 13  2  0  0  0  0
 13  8  1  0  0  0  0
 16 12  1  0  0  0  0
 16 24  1  0  0  0  0
 17 18  2  0  0  0  0
 17 16  1  0  0  0  0
 18 19  1  0  0  0  0
 19 24  2  0  0  0  0
 19 20  1  0  0  0  0
 20 21  2  0  0  0  0
 21 22  1  0  0  0  0
 23 22  2  0  0  0  0
 24 23  1  0  0  0  0
 25 20  1  0  0  0  0
 26 25  1  0  0  0  0
 27 25  1  0  0  0  0
 28  4  1  0  0  0  0
 28 29  1  0  0  0  0
 30 28  1  0  0  0  0
 31 33  1  0  0  0  0
 31 28  1  0  0  0  0
 32 31  1  0  0  0  0
 34 31  1  0  0  0  0
 35 34  1  0  0  0  0
 35 44  1  0  0  0  0
 36 35  2  0  0  0  0
 37 38  2  0  0  0  0
 37 36  1  0  0  0  0
 38 43  1  0  0  0  0
 39 40  2  0  0  0  0
 39 38  1  0  0  0  0
 40 41  1  0  0  0  0
 41 49  1  0  0  0  0
 41 42  2  0  0  0  0
 42 50  1  0  0  0  0
 43 42  1  0  0  0  0
 43 34  2  0  0  0  0
 45 36  1  0  0  0  0
 46 37  1  0  0  0  0
 47 39  1  0  0  0  0
 48 40  1  0  0  0  0
 50 51  1  0  0  0  0
M  END
>  <minimizedAffinity>
-7.01582956

>  <minimizedRMSD>
0.196094096

$$$$
