REMARK  Name = 
REMARK  2 active torsions:
REMARK  status: ('A' for Active; 'I' for Inactive)
REMARK    1  A    between atoms: C_3  and  C_7
REMARK    2  A    between atoms: C_17  and  N_18
REMARK                            x       y       z     vdW  Elec       q    Type
REMARK                         _______ _______ _______ _____ _____    ______ ____
ROOT
ATOM      1  C   UNL     1      37.969  28.885  43.382  0.00  0.00    +0.000 A 
ATOM      2  C   UNL     1      38.080  27.473  43.313  0.00  0.00    +0.000 A 
ATOM      3  C   UNL     1      37.435  26.822  42.246  0.00  0.00    +0.000 A 
ATOM      4  N   UNL     1      36.739  27.572  41.336  0.00  0.00    +0.000 NA
ATOM      5  C   UNL     1      36.664  28.913  41.447  0.00  0.00    +0.000 A 
ATOM      6  N   UNL     1      37.269  29.547  42.451  0.00  0.00    +0.000 NA
ATOM      7  H   UNL     1      38.470  29.363  44.206  0.00  0.00    +0.000 HD
ATOM      8  H   UNL     1      38.650  26.928  44.070  0.00  0.00    +0.000 HD
ATOM      9  N   UNL     1      35.956  29.726  40.529  0.00  0.00    +0.000 N 
ATOM     10  C   UNL     1      35.571  31.023  40.599  0.00  0.00    +0.000 A 
ATOM     11  N   UNL     1      34.911  31.385  39.480  0.00  0.00    +0.000 NA
ATOM     12  C   UNL     1      34.867  30.309  38.672  0.00  0.00    +0.000 A 
ATOM     13  C   UNL     1      34.326  30.092  37.414  0.00  0.00    +0.000 A 
ATOM     14  N   UNL     1      34.402  28.904  36.779  0.00  0.00    +0.000 NA
ATOM     15  C   UNL     1      35.042  27.921  37.444  0.00  0.00    +0.000 A 
ATOM     16  N   UNL     1      35.591  28.070  38.675  0.00  0.00    +0.000 NA
ATOM     17  C   UNL     1      35.522  29.265  39.329  0.00  0.00    +0.000 A 
ENDROOT
BRANCH   3  18
ATOM     18  C   UNL     1      37.529  25.343  42.142  0.00  0.00    +0.000 C 
ATOM     19  F   UNL     1      37.642  25.054  40.806  0.00  0.00    +0.000 F 
ATOM     20  F   UNL     1      38.629  24.835  42.796  0.00  0.00    +0.000 F 
ATOM     21  F   UNL     1      36.389  24.712  42.653  0.00  0.00    +0.000 F 
ENDBRANCH   3  18
BRANCH  13  22
ATOM     22  N   UNL     1      33.672  31.205  36.807  0.00  0.00    +0.000 N 
ATOM     23  H   UNL     1      34.233  31.412  35.930  0.00  0.00    +0.000 HD
ATOM     24  H   UNL     1      32.833  31.710  37.139  0.00  0.00    +0.000 HD
ENDBRANCH  13  22
TORSDOF 2
