
 OpenBabel03242503163D

 46 50  0  0  1  0  0  0  0  0999 V2000
   37.3070   28.8920   41.2740 C   0  0  0  0  0  0  0  0  0  0  0  0
   37.5410   29.3880   42.5810 C   0  0  0  0  0  0  0  0  0  0  0  0
   37.5470   28.5790   43.7310 C   0  0  0  0  0  0  0  0  0  0  0  0
   37.3200   27.2080   43.5840 C   0  0  0  0  0  0  0  0  0  0  0  0
   37.0930   26.6790   42.3220 C   0  0  0  0  0  0  0  0  0  0  0  0
   36.9200   25.3290   42.1450 C   0  0  0  0  0  0  0  0  0  0  0  0
   36.7370   24.7720   40.8750 C   0  0  0  0  0  0  0  0  0  0  0  0
   36.7380   25.6750   39.8040 C   0  0  0  0  0  0  0  0  0  0  0  0
   36.9160   27.0330   40.0330 C   0  0  0  0  0  0  0  0  0  0  0  0
   37.0990   27.5480   41.2700 C   0  0  0  0  0  0  0  0  0  0  0  0
   37.7510   30.3680   42.9620 H   0  0  0  0  0  0  0  0  0  0  0  0
   37.7040   28.8390   44.7460 H   0  0  0  0  0  0  0  0  0  0  0  0
   37.3070   26.4980   44.4110 H   0  0  0  0  0  0  0  0  0  0  0  0
   36.9280   24.7020   43.0270 H   0  0  0  0  0  0  0  0  0  0  0  0
   36.6150   23.7000   40.8740 H   0  0  0  0  0  0  0  0  0  0  0  0
   36.5890   25.1260   38.8920 H   0  0  0  0  0  0  0  0  0  0  0  0
   41.3390   28.5750   41.0330 C   0  0  0  0  0  0  0  0  0  0  0  0
   42.3120   28.7790   40.0290 C   0  0  0  0  0  0  0  0  0  0  0  0
   41.9510   29.5580   38.9330 C   0  0  0  0  0  0  0  0  0  0  0  0
   40.6740   30.0890   38.8790 N   0  0  0  0  0  0  0  0  0  0  0  0
   39.8010   29.8630   39.8560 C   0  0  0  0  0  0  0  0  0  0  0  0
   40.1340   29.1210   40.9050 N   0  0  0  0  0  0  0  0  0  0  0  0
   38.5330   30.3940   39.7570 N   0  0  0  0  0  0  0  0  0  0  0  0
   38.2230   31.6170   38.9960 C   0  0  0  0  0  0  0  0  0  0  0  0
   37.0400   32.1910   39.6890 C   0  0  0  0  0  0  0  0  0  0  0  0
   36.6650   31.2220   40.7750 C   0  0  0  0  0  0  0  0  0  0  0  0
   37.2470   29.9100   40.2970 C   0  0  2  0  0  0  0  0  0  0  0  0
   41.5630   27.9740   41.9130 H   0  0  0  0  0  0  0  0  0  0  0  0
   43.2950   28.3420   40.1210 H   0  0  0  0  0  0  0  0  0  0  0  0
   42.6510   29.7500   38.1330 H   0  0  0  0  0  0  0  0  0  0  0  0
   39.1080   32.2780   38.9340 H   0  0  0  0  0  0  0  0  0  0  0  0
   37.9370   31.2200   37.9800 H   0  0  0  0  0  0  0  0  0  0  0  0
   37.2900   33.1990   40.0790 H   0  0  0  0  0  0  0  0  0  0  0  0
   36.2330   32.3380   38.9430 H   0  0  0  0  0  0  0  0  0  0  0  0
   37.1290   31.6030   41.6570 H   0  0  0  0  0  0  0  0  0  0  0  0
   35.5750   31.1710   40.9550 H   0  0  0  0  0  0  0  0  0  0  0  0
   36.7120   29.8770   39.3570 H   0  0  0  0  0  0  0  0  0  0  0  0
   36.7120   27.6320   38.7740 N   0  0  0  0  0  0  0  0  0  0  0  0
   35.3530   27.9580   38.7660 C   0  0  0  0  0  0  0  0  0  0  0  0
   34.7760   28.5260   37.6170 C   0  0  0  0  0  0  0  0  0  0  0  0
   35.5520   28.7660   36.4860 C   0  0  0  0  0  0  0  0  0  0  0  0
   35.0950   29.2720   35.4280 O   0  0  0  0  0  0  0  0  0  0  0  0
   36.8490   28.4230   36.5700 N   0  0  0  0  0  0  0  0  0  0  0  0
   37.4140   27.8790   37.6590 C   0  0  0  0  0  0  0  0  0  0  0  0
   38.5870   27.5270   37.8170 O   0  0  0  0  0  0  0  0  0  0  0  0
   37.5290   28.5550   35.7900 H   0  0  0  0  0  0  0  0  0  0  0  0
  1  2  1  0  0  0  0
  2 11  1  0  0  0  0
  2  3  2  0  0  0  0
  3 12  1  0  0  0  0
  4  3  1  0  0  0  0
  4 13  1  0  0  0  0
  5  4  2  0  0  0  0
  6  5  1  0  0  0  0
  6 14  1  0  0  0  0
  7  6  2  0  0  0  0
  8  9  2  0  0  0  0
  8  7  1  0  0  0  0
  9 10  1  0  0  0  0
 10  1  2  0  0  0  0
 10  5  1  0  0  0  0
 15  7  1  0  0  0  0
 16  8  1  0  0  0  0
 17 28  1  0  0  0  0
 18 29  1  0  0  0  0
 18 17  2  0  0  0  0
 19 18  1  0  0  0  0
 20 19  2  0  0  0  0
 20 21  1  0  0  0  0
 21 22  2  0  0  0  0
 22 17  1  0  0  0  0
 23 21  1  0  0  0  0
 23 27  1  0  0  0  0
 24 25  1  0  0  0  0
 24 23  1  0  0  0  0
 25 33  1  0  0  0  0
 25 26  1  0  0  0  0
 26 36  1  0  0  0  0
 26 35  1  0  0  0  0
 27 37  1  6  0  0  0
 27 26  1  0  0  0  0
 27  1  1  0  0  0  0
 30 19  1  0  0  0  0
 31 24  1  0  0  0  0
 32 24  1  0  0  0  0
 34 25  1  0  0  0  0
 38  9  1  0  0  0  0
 39 38  1  0  0  0  0
 40 39  2  0  0  0  0
 41 43  1  0  0  0  0
 41 40  1  0  0  0  0
 42 41  2  0  0  0  0
 43 44  1  0  0  0  0
 44 45  2  0  0  0  0
 44 38  1  0  0  0  0
 46 43  1  0  0  0  0
M  END
>  <minimizedAffinity>
-6.67093372

>  <minimizedRMSD>
0.41982764

$$$$
