
 OpenBabel03242509303D

 21 22  0  0  0  0  0  0  0  0999 V2000
   39.6230   25.6750   43.2690 C   0  0  0  0  0  0  0  0  0  0  0  0
   38.9050   24.6260   42.6450 C   0  0  0  0  0  0  0  0  0  0  0  0
   37.9760   24.9710   41.6480 C   0  0  0  0  0  0  0  0  0  0  0  0
   37.8180   26.3080   41.3370 N   0  0  0  0  0  0  0  0  0  0  0  0
   38.5300   27.2620   41.9660 C   0  0  0  0  0  0  0  0  0  0  0  0
   39.4110   26.9410   42.9090 N   0  0  0  0  0  0  0  0  0  0  0  0
   40.3500   25.4700   44.0410 H   0  0  0  0  0  0  0  0  0  0  0  0
   39.0890   23.6050   42.9490 H   0  0  0  0  0  0  0  0  0  0  0  0
   38.3020   28.6210   41.5800 N   0  0  0  0  0  0  0  0  0  0  0  0
   39.1590   29.5480   41.1480 C   0  0  0  0  0  3  0  0  0  0  0  0
   38.6860   30.8040   40.8340 C   0  0  0  0  0  3  0  0  0  0  0  0
   37.3570   31.1290   40.9530 C   0  0  0  0  0  0  0  0  0  0  0  0
   36.9650   32.2920   40.6540 O   0  0  0  0  0  0  0  0  0  0  0  0
   36.5180   30.1570   41.3940 N   0  0  0  0  0  0  0  0  0  0  0  0
   36.9830   28.9160   41.7050 C   0  0  0  0  0  0  0  0  0  0  0  0
   36.0540   28.1510   42.0970 O   0  0  0  0  0  0  0  0  0  0  0  0
   35.5190   30.4500   41.4680 H   0  0  0  0  0  0  0  0  0  0  0  0
   37.2060   23.9030   40.9740 C   0  0  0  0  0  0  0  0  0  0  0  0
   37.2400   24.1890   39.6280 F   0  0  0  0  0  0  0  0  0  0  0  0
   37.7600   22.6570   41.1610 F   0  0  0  0  0  0  0  0  0  0  0  0
   35.8720   23.8830   41.4030 F   0  0  0  0  0  0  0  0  0  0  0  0
  1  7  1  0  0  0  0
  2  8  1  0  0  0  0
  2  1  2  0  0  0  0
  3  2  1  0  0  0  0
  4  3  2  0  0  0  0
  4  5  1  0  0  0  0
  5  6  2  0  0  0  0
  6  1  1  0  0  0  0
  9 15  1  0  0  0  0
  9  5  1  0  0  0  0
 10  9  1  0  0  0  0
 11 12  1  0  0  0  0
 11 10  2  0  0  0  0
 12 14  1  0  0  0  0
 13 12  2  0  0  0  0
 14 17  1  0  0  0  0
 14 15  1  0  0  0  0
 15 16  2  0  0  0  0
 18 20  1  0  0  0  0
 18 21  1  0  0  0  0
 18  3  1  0  0  0  0
 19 18  1  0  0  0  0
M  END
>  <minimizedAffinity>
-4.76269865

>  <minimizedRMSD>
2.99028301

$$$$
