
 OpenBabel03242508433D

 36 39  0  0  1  0  0  0  0  0999 V2000
   37.9380   27.3560   42.7410 C   0  0  2  0  0  0  0  0  0  0  0  0
   39.0040   27.6360   43.7090 C   0  0  0  0  0  0  0  0  0  0  0  0
   39.7350   26.3180   43.8810 C   0  0  0  0  0  0  0  0  0  0  0  0
   39.2890   25.4480   42.7490 C   0  0  0  0  0  0  0  0  0  0  0  0
   38.5690   26.3760   41.7700 C   0  0  1  0  0  0  0  0  0  0  0  0
   37.1270   26.7560   43.2410 H   0  0  0  0  0  0  0  0  0  0  0  0
   38.6150   27.9840   44.6870 H   0  0  0  0  0  0  0  0  0  0  0  0
   39.7800   28.3550   43.3800 H   0  0  0  0  0  0  0  0  0  0  0  0
   40.8380   26.4160   43.8300 H   0  0  0  0  0  0  0  0  0  0  0  0
   39.5110   25.9220   44.8880 H   0  0  0  0  0  0  0  0  0  0  0  0
   38.5860   24.7130   43.1910 H   0  0  0  0  0  0  0  0  0  0  0  0
   40.1090   24.9020   42.2480 H   0  0  0  0  0  0  0  0  0  0  0  0
   39.2450   26.8490   41.0640 H   0  0  0  0  0  0  0  0  0  0  0  0
   37.5930   25.4450   41.1370 C   0  0  0  0  0  0  0  0  0  0  0  0
   36.9610   24.4760   41.8310 N   0  0  0  0  0  0  0  0  0  0  0  0
   36.1830   23.8420   40.9810 O   0  0  0  0  0  0  0  0  0  0  0  0
   36.3180   24.3930   39.7900 C   0  0  0  0  0  0  0  0  0  0  0  0
   37.1890   25.3960   39.8470 N   0  0  0  0  0  0  0  0  0  0  0  0
   35.6880   24.0620   38.5470 N   0  0  0  0  0  0  0  0  0  0  0  0
   36.1900   24.4960   37.3720 C   0  0  0  0  0  0  0  0  0  0  0  0
   35.5080   24.1240   36.2220 C   0  0  0  0  0  0  0  0  0  0  0  0
   34.3610   23.3400   36.2490 C   0  0  0  0  0  0  0  0  0  0  0  0
   33.7920   23.0390   35.1670 O   0  0  0  0  0  0  0  0  0  0  0  0
   33.9340   22.9550   37.4640 N   0  0  0  0  0  0  0  0  0  0  0  0
   34.5780   23.3020   38.6000 C   0  0  0  0  0  0  0  0  0  0  0  0
   34.1050   22.8950   39.6960 O   0  0  0  0  0  0  0  0  0  0  0  0
   33.0740   22.3690   37.4640 H   0  0  0  0  0  0  0  0  0  0  0  0
   38.0120   29.7650   41.9250 C   0  0  0  0  0  0  0  0  0  0  0  0
   37.3610   28.5080   42.0620 C   0  0  0  0  0  0  0  0  0  0  0  0
   36.1000   28.3480   41.5140 C   0  0  0  0  0  0  0  0  0  0  0  0
   35.5370   29.4240   40.8600 N   0  0  0  0  0  0  0  0  0  0  0  0
   36.1850   30.6270   40.7420 C   0  0  0  0  0  0  0  0  0  0  0  0
   37.4440   30.7870   41.2890 N   0  0  0  0  0  0  0  0  0  0  0  0
   38.9910   29.8800   42.3530 H   0  0  0  0  0  0  0  0  0  0  0  0
   35.4960   27.4650   41.5380 H   0  0  0  0  0  0  0  0  0  0  0  0
   35.6090   31.3640   40.2030 H   0  0  0  0  0  0  0  0  0  0  0  0
  1  6  1  1  0  0  0
  1  2  1  0  0  0  0
  2  3  1  0  0  0  0
  2  7  1  0  0  0  0
  3 10  1  0  0  0  0
  4 11  1  0  0  0  0
  4  3  1  0  0  0  0
  5 13  1  6  0  0  0
  5  1  1  0  0  0  0
  5  4  1  0  0  0  0
  8  2  1  0  0  0  0
  9  3  1  0  0  0  0
 12  4  1  0  0  0  0
 14  5  1  0  0  0  0
 14 15  2  0  0  0  0
 16 15  1  0  0  0  0
 17 18  2  0  0  0  0
 17 16  1  0  0  0  0
 18 14  1  0  0  0  0
 19 25  1  0  0  0  0
 19 17  1  0  0  0  0
 20 19  1  0  0  0  0
 21 22  1  0  0  0  0
 21 20  2  0  0  0  0
 22 24  1  0  0  0  0
 23 22  2  0  0  0  0
 24 25  1  0  0  0  0
 25 26  2  0  0  0  0
 27 24  1  0  0  0  0
 28 29  1  0  0  0  0
 28 34  1  0  0  0  0
 29  1  1  0  0  0  0
 30 35  1  0  0  0  0
 30 29  2  0  0  0  0
 31 30  1  0  0  0  0
 32 31  2  0  0  0  0
 32 33  1  0  0  0  0
 33 28  2  0  0  0  0
 36 32  1  0  0  0  0
M  END
>  <minimizedAffinity>
-5.32255125

>  <minimizedRMSD>
0.565773845

$$$$
