
 OpenBabel03242509253D

 48 52  0  0  0  0  0  0  0  0999 V2000
   36.1390   30.0600   41.1370 C   0  0  0  0  0  0  0  0  0  0  0  0
   35.5210   30.5450   41.9410 H   0  0  0  0  0  0  0  0  0  0  0  0
   36.7230   30.8940   40.6870 H   0  0  0  0  0  0  0  0  0  0  0  0
   38.6370   28.1520   42.7120 C   0  0  0  0  0  0  0  0  0  0  0  0
   37.5560   27.3270   42.8490 C   0  0  0  0  0  0  0  0  0  0  0  0
   36.4760   27.9820   42.2500 C   0  0  0  0  0  0  0  0  0  0  0  0
   36.9940   29.1400   41.8060 N   0  0  0  0  0  0  0  0  0  0  0  0
   38.2530   29.2790   42.0540 N   0  0  0  0  0  0  0  0  0  0  0  0
   37.5720   26.3560   43.3360 H   0  0  0  0  0  0  0  0  0  0  0  0
   35.4820   27.5640   42.2070 H   0  0  0  0  0  0  0  0  0  0  0  0
   41.5740   26.5600   44.3600 C   0  0  0  0  0  0  0  0  0  0  0  0
   40.2570   26.7570   43.9300 C   0  0  0  0  0  0  0  0  0  0  0  0
   39.9850   27.9080   43.1740 C   0  0  0  0  0  0  0  0  0  0  0  0
   40.9800   28.7670   42.8910 N   0  0  0  0  0  0  0  0  0  0  0  0
   42.2570   28.5230   43.3390 C   0  0  0  0  0  0  0  0  0  0  0  0
   42.5360   27.4400   44.0580 N   0  0  0  0  0  0  0  0  0  0  0  0
   41.8590   25.6900   44.9500 H   0  0  0  0  0  0  0  0  0  0  0  0
   39.4930   26.0420   44.1800 H   0  0  0  0  0  0  0  0  0  0  0  0
   43.1650   29.5650   42.9280 N   0  0  0  0  0  0  0  0  0  0  0  0
   44.4260   29.6590   43.3880 C   0  0  0  0  0  3  0  0  0  0  0  0
   45.2400   30.6870   42.9470 C   0  0  0  0  0  3  0  0  0  0  0  0
   44.7060   31.5820   42.0370 C   0  0  0  0  0  0  0  0  0  0  0  0
   45.3800   32.5380   41.5890 O   0  0  0  0  0  0  0  0  0  0  0  0
   43.4290   31.4250   41.6150 N   0  0  0  0  0  0  0  0  0  0  0  0
   42.6310   30.4200   42.0470 C   0  0  0  0  0  0  0  0  0  0  0  0
   41.4700   30.3800   41.5850 O   0  0  0  0  0  0  0  0  0  0  0  0
   43.0490   32.1240   40.9200 H   0  0  0  0  0  0  0  0  0  0  0  0
   35.2630   29.4810   40.0720 C   0  0  0  0  0  0  0  0  0  0  0  0
   34.5440   30.3580   39.9370 H   0  0  0  0  0  0  0  0  0  0  0  0
   34.7980   28.5760   40.4370 H   0  0  0  0  0  0  0  0  0  0  0  0
   35.8940   29.3960   38.7330 C   0  0  0  0  0  0  0  0  0  0  0  0
   37.2150   29.5180   38.4200 C   0  0  0  0  0  0  0  0  0  0  0  0
   37.7510   29.5130   37.1700 C   0  0  0  0  0  0  0  0  0  0  0  0
   36.9080   29.3730   36.0790 C   0  0  0  0  0  0  0  0  0  0  0  0
   35.5480   29.2410   36.3260 C   0  0  0  0  0  0  0  0  0  0  0  0
   34.7790   29.1080   35.2010 C   0  0  0  0  0  0  0  0  0  0  0  0
   33.4210   28.9650   35.3350 C   0  0  0  0  0  0  0  0  0  0  0  0
   32.8670   28.9590   36.6030 C   0  0  0  0  0  0  0  0  0  0  0  0
   33.7000   29.0970   37.6730 C   0  0  0  0  0  0  0  0  0  0  0  0
   35.0490   29.2490   37.6180 C   0  0  0  0  0  0  0  0  0  0  0  0
   37.8860   29.6300   39.2730 H   0  0  0  0  0  0  0  0  0  0  0  0
   38.8220   29.6190   37.0630 H   0  0  0  0  0  0  0  0  0  0  0  0
   37.3510   29.3740   35.1050 H   0  0  0  0  0  0  0  0  0  0  0  0
   35.1800   29.1060   34.1970 H   0  0  0  0  0  0  0  0  0  0  0  0
   32.7970   28.8600   34.4570 H   0  0  0  0  0  0  0  0  0  0  0  0
   31.8040   28.8450   36.6950 H   0  0  0  0  0  0  0  0  0  0  0  0
   33.0790   29.0650   38.9140 O   0  0  0  0  0  0  0  0  0  0  0  0
   32.5600   28.2360   39.1580 H   0  0  0  0  0  0  0  0  0  0  0  0
  1  7  1  0  0  0  0
  1  2  1  0  0  0  0
  3  1  1  0  0  0  0
  4  5  1  0  0  0  0
  4 13  1  0  0  0  0
  5  9  1  0  0  0  0
  6  5  2  0  0  0  0
  7  8  1  0  0  0  0
  7  6  1  0  0  0  0
  8  4  2  0  0  0  0
 10  6  1  0  0  0  0
 11 17  1  0  0  0  0
 12 18  1  0  0  0  0
 12 11  2  0  0  0  0
 13 12  1  0  0  0  0
 14 13  2  0  0  0  0
 14 15  1  0  0  0  0
 15 16  2  0  0  0  0
 16 11  1  0  0  0  0
 19 15  1  0  0  0  0
 19 20  1  0  0  0  0
 21 20  2  0  0  0  0
 22 21  1  0  0  0  0
 23 22  2  0  0  0  0
 24 22  1  0  0  0  0
 24 25  1  0  0  0  0
 25 19  1  0  0  0  0
 26 25  2  0  0  0  0
 27 24  1  0  0  0  0
 28 30  1  0  0  0  0
 28  1  1  0  0  0  0
 29 28  1  0  0  0  0
 31 28  1  0  0  0  0
 32 31  1  0  0  0  0
 32 41  1  0  0  0  0
 33 32  2  0  0  0  0
 34 35  2  0  0  0  0
 34 33  1  0  0  0  0
 35 40  1  0  0  0  0
 36 37  2  0  0  0  0
 36 35  1  0  0  0  0
 37 38  1  0  0  0  0
 38 46  1  0  0  0  0
 38 39  2  0  0  0  0
 39 47  1  0  0  0  0
 40 39  1  0  0  0  0
 40 31  2  0  0  0  0
 42 33  1  0  0  0  0
 43 34  1  0  0  0  0
 44 36  1  0  0  0  0
 45 37  1  0  0  0  0
 47 48  1  0  0  0  0
M  END
>  <minimizedAffinity>
-6.3006115

>  <minimizedRMSD>
0.0600933209

$$$$
