
 OpenBabel03242509263D

 48 52  0  0  0  0  0  0  0  0999 V2000
   36.1050   30.0470   41.1070 C   0  0  0  0  0  0  0  0  0  0  0  0
   35.4790   30.5140   41.9160 H   0  0  0  0  0  0  0  0  0  0  0  0
   36.6640   30.8980   40.6570 H   0  0  0  0  0  0  0  0  0  0  0  0
   38.6600   28.2040   42.6670 C   0  0  0  0  0  0  0  0  0  0  0  0
   37.6040   27.3470   42.8000 C   0  0  0  0  0  0  0  0  0  0  0  0
   36.5050   27.9730   42.2070 C   0  0  0  0  0  0  0  0  0  0  0  0
   36.9880   29.1480   41.7690 N   0  0  0  0  0  0  0  0  0  0  0  0
   38.2420   29.3230   42.0170 N   0  0  0  0  0  0  0  0  0  0  0  0
   37.6490   26.3730   43.2810 H   0  0  0  0  0  0  0  0  0  0  0  0
   35.5230   27.5270   42.1620 H   0  0  0  0  0  0  0  0  0  0  0  0
   41.6240   26.7460   44.3910 C   0  0  0  0  0  0  0  0  0  0  0  0
   40.3000   26.9090   43.9680 C   0  0  0  0  0  0  0  0  0  0  0  0
   40.0150   27.9960   43.1260 C   0  0  0  0  0  0  0  0  0  0  0  0
   41.0050   28.8300   42.7610 N   0  0  0  0  0  0  0  0  0  0  0  0
   42.2890   28.6220   43.2070 C   0  0  0  0  0  0  0  0  0  0  0  0
   42.5800   27.5990   44.0050 N   0  0  0  0  0  0  0  0  0  0  0  0
   41.9180   25.9250   45.0430 H   0  0  0  0  0  0  0  0  0  0  0  0
   39.5410   26.2170   44.2850 H   0  0  0  0  0  0  0  0  0  0  0  0
   43.1890   29.6270   42.7000 N   0  0  0  0  0  0  0  0  0  0  0  0
   44.3530   29.3260   42.0930 C   0  0  0  0  0  3  0  0  0  0  0  0
   45.1670   30.3440   41.6310 C   0  0  0  0  0  3  0  0  0  0  0  0
   44.7340   31.6460   41.8190 C   0  0  0  0  0  0  0  0  0  0  0  0
   45.4150   32.6220   41.4290 O   0  0  0  0  0  0  0  0  0  0  0  0
   43.5520   31.8750   42.4380 N   0  0  0  0  0  0  0  0  0  0  0  0
   42.7560   30.8790   42.8910 C   0  0  0  0  0  0  0  0  0  0  0  0
   41.6880   31.2150   43.4460 O   0  0  0  0  0  0  0  0  0  0  0  0
   43.2490   32.8790   42.5680 H   0  0  0  0  0  0  0  0  0  0  0  0
   35.2390   29.4480   40.0450 C   0  0  0  0  0  0  0  0  0  0  0  0
   34.5020   30.3100   39.9100 H   0  0  0  0  0  0  0  0  0  0  0  0
   34.7940   28.5340   40.4120 H   0  0  0  0  0  0  0  0  0  0  0  0
   35.8700   29.3730   38.7050 C   0  0  0  0  0  0  0  0  0  0  0  0
   37.1910   29.4930   38.3930 C   0  0  0  0  0  0  0  0  0  0  0  0
   37.7280   29.4980   37.1430 C   0  0  0  0  0  0  0  0  0  0  0  0
   36.8830   29.3720   36.0500 C   0  0  0  0  0  0  0  0  0  0  0  0
   35.5230   29.2440   36.2970 C   0  0  0  0  0  0  0  0  0  0  0  0
   34.7530   29.1260   35.1700 C   0  0  0  0  0  0  0  0  0  0  0  0
   33.3950   28.9880   35.3030 C   0  0  0  0  0  0  0  0  0  0  0  0
   32.8410   28.9720   36.5710 C   0  0  0  0  0  0  0  0  0  0  0  0
   33.6740   29.0960   37.6430 C   0  0  0  0  0  0  0  0  0  0  0  0
   35.0240   29.2420   37.5890 C   0  0  0  0  0  0  0  0  0  0  0  0
   37.8630   29.5930   39.2470 H   0  0  0  0  0  0  0  0  0  0  0  0
   38.7990   29.5990   37.0370 H   0  0  0  0  0  0  0  0  0  0  0  0
   37.3260   29.3810   35.0760 H   0  0  0  0  0  0  0  0  0  0  0  0
   35.1540   29.1320   34.1670 H   0  0  0  0  0  0  0  0  0  0  0  0
   32.7700   28.8950   34.4250 H   0  0  0  0  0  0  0  0  0  0  0  0
   31.7770   28.8620   36.6630 H   0  0  0  0  0  0  0  0  0  0  0  0
   33.0540   29.0540   38.8840 O   0  0  0  0  0  0  0  0  0  0  0  0
   32.5310   28.2250   39.1190 H   0  0  0  0  0  0  0  0  0  0  0  0
  1  7  1  0  0  0  0
  1  2  1  0  0  0  0
  3  1  1  0  0  0  0
  4  5  1  0  0  0  0
  4 13  1  0  0  0  0
  5  9  1  0  0  0  0
  6  5  2  0  0  0  0
  7  8  1  0  0  0  0
  7  6  1  0  0  0  0
  8  4  2  0  0  0  0
 10  6  1  0  0  0  0
 11 17  1  0  0  0  0
 12 18  1  0  0  0  0
 12 11  2  0  0  0  0
 13 12  1  0  0  0  0
 14 13  2  0  0  0  0
 14 15  1  0  0  0  0
 15 16  2  0  0  0  0
 16 11  1  0  0  0  0
 19 25  1  0  0  0  0
 19 15  1  0  0  0  0
 20 19  1  0  0  0  0
 21 22  1  0  0  0  0
 21 20  2  0  0  0  0
 22 24  1  0  0  0  0
 23 22  2  0  0  0  0
 24 27  1  0  0  0  0
 24 25  1  0  0  0  0
 25 26  2  0  0  0  0
 28 30  1  0  0  0  0
 28  1  1  0  0  0  0
 29 28  1  0  0  0  0
 31 28  1  0  0  0  0
 32 31  1  0  0  0  0
 32 41  1  0  0  0  0
 33 32  2  0  0  0  0
 34 35  2  0  0  0  0
 34 33  1  0  0  0  0
 35 40  1  0  0  0  0
 36 37  2  0  0  0  0
 36 35  1  0  0  0  0
 37 38  1  0  0  0  0
 38 46  1  0  0  0  0
 38 39  2  0  0  0  0
 39 47  1  0  0  0  0
 40 39  1  0  0  0  0
 40 31  2  0  0  0  0
 42 33  1  0  0  0  0
 43 34  1  0  0  0  0
 44 36  1  0  0  0  0
 45 37  1  0  0  0  0
 47 48  1  0  0  0  0
M  END
>  <minimizedAffinity>
-6.38876581

>  <minimizedRMSD>
0.186405212

$$$$
