REMARK  Name = 
REMARK  1 active torsions:
REMARK  status: ('A' for Active; 'I' for Inactive)
REMARK    1  A    between atoms: C_3  and  C_7
REMARK                            x       y       z     vdW  Elec       q    Type
REMARK                         _______ _______ _______ _____ _____    ______ ____
ROOT
ATOM      1  C   UNL     1      37.971  28.884  43.374  0.00  0.00    +0.000 A 
ATOM      2  C   UNL     1      38.083  27.473  43.308  0.00  0.00    +0.000 A 
ATOM      3  C   UNL     1      37.436  26.814  42.249  0.00  0.00    +0.000 A 
ATOM      4  N   UNL     1      36.731  27.577  41.338  0.00  0.00    +0.000 NA
ATOM      5  C   UNL     1      36.660  28.916  41.453  0.00  0.00    +0.000 A 
ATOM      6  N   UNL     1      37.271  29.545  42.453  0.00  0.00    +0.000 NA
ATOM      7  H   UNL     1      38.447  29.444  44.165  0.00  0.00    +0.000 HD
ATOM      8  H   UNL     1      38.655  26.952  44.064  0.00  0.00    +0.000 HD
ATOM      9  N   UNL     1      35.908  29.626  40.464  0.00  0.00    +0.000 N 
ATOM     10  C   UNL     1      34.793  30.348  40.585  0.00  0.00    +0.000 A 
ATOM     11  C   UNL     1      34.254  30.943  39.465  0.00  0.00    +0.000 A 
ATOM     12  C   UNL     1      34.831  30.814  38.226  0.00  0.00    +0.000 A 
ATOM     13  O   UNL     1      34.304  31.375  37.224  0.00  0.00    +0.000 OA
ATOM     14  N   UNL     1      35.964  30.070  38.145  0.00  0.00    +0.000 N 
ATOM     15  C   UNL     1      36.499  29.482  39.250  0.00  0.00    +0.000 A 
ATOM     16  O   UNL     1      37.551  28.834  38.975  0.00  0.00    +0.000 OA
ATOM     17  H   UNL     1      36.367  30.000  37.184  0.00  0.00    +0.000 HD
ENDROOT
BRANCH   3  18
ATOM     18  C   UNL     1      37.530  25.341  42.147  0.00  0.00    +0.000 C 
ATOM     19  F   UNL     1      37.654  25.051  40.807  0.00  0.00    +0.000 F 
ATOM     20  F   UNL     1      38.633  24.838  42.798  0.00  0.00    +0.000 F 
ATOM     21  F   UNL     1      36.378  24.718  42.645  0.00  0.00    +0.000 F 
ENDBRANCH   3  18
TORSDOF 1
