
 OpenBabel03242509253D

 48 52  0  0  0  0  0  0  0  0999 V2000
   35.8720   29.9470   40.9100 C   0  0  0  0  0  0  0  0  0  0  0  0
   35.2120   30.4000   41.6990 H   0  0  0  0  0  0  0  0  0  0  0  0
   36.4210   30.8110   40.4710 H   0  0  0  0  0  0  0  0  0  0  0  0
   38.4270   28.1870   42.5640 C   0  0  0  0  0  0  0  0  0  0  0  0
   37.4040   27.2830   42.6310 C   0  0  0  0  0  0  0  0  0  0  0  0
   36.3090   27.8720   41.9950 C   0  0  0  0  0  0  0  0  0  0  0  0
   36.7610   29.0750   41.6000 N   0  0  0  0  0  0  0  0  0  0  0  0
   37.9930   29.2990   41.9120 N   0  0  0  0  0  0  0  0  0  0  0  0
   37.4680   26.3040   43.0980 H   0  0  0  0  0  0  0  0  0  0  0  0
   35.3510   27.3850   41.8940 H   0  0  0  0  0  0  0  0  0  0  0  0
   41.4330   26.7120   44.1970 C   0  0  0  0  0  0  0  0  0  0  0  0
   40.1290   26.8220   43.7030 C   0  0  0  0  0  0  0  0  0  0  0  0
   39.7660   28.0300   43.0860 C   0  0  0  0  0  0  0  0  0  0  0  0
   40.6670   29.0230   42.9910 N   0  0  0  0  0  0  0  0  0  0  0  0
   41.9370   28.8610   43.4940 C   0  0  0  0  0  0  0  0  0  0  0  0
   42.3010   27.7250   44.0820 N   0  0  0  0  0  0  0  0  0  0  0  0
   41.7850   25.8050   44.6870 H   0  0  0  0  0  0  0  0  0  0  0  0
   39.4420   26.0000   43.8020 H   0  0  0  0  0  0  0  0  0  0  0  0
   42.7370   30.0410   43.2890 N   0  0  0  0  0  0  0  0  0  0  0  0
   44.0840   30.0250   43.3090 C   0  0  0  0  0  3  0  0  0  0  0  0
   44.7860   31.1980   43.1020 C   0  0  0  0  0  3  0  0  0  0  0  0
   44.0530   32.3520   42.8820 C   0  0  0  0  0  0  0  0  0  0  0  0
   44.6160   33.4540   42.6870 O   0  0  0  0  0  0  0  0  0  0  0  0
   42.7010   32.2950   42.8750 N   0  0  0  0  0  0  0  0  0  0  0  0
   42.0140   31.1470   43.0760 C   0  0  0  0  0  0  0  0  0  0  0  0
   40.7670   31.2210   43.0470 O   0  0  0  0  0  0  0  0  0  0  0  0
   42.1700   33.1920   42.7040 H   0  0  0  0  0  0  0  0  0  0  0  0
   35.0530   29.3200   39.8270 C   0  0  0  0  0  0  0  0  0  0  0  0
   34.2740   30.1450   39.6940 H   0  0  0  0  0  0  0  0  0  0  0  0
   34.6500   28.3790   40.1750 H   0  0  0  0  0  0  0  0  0  0  0  0
   35.7040   29.2980   38.4960 C   0  0  0  0  0  0  0  0  0  0  0  0
   37.0310   29.4160   38.2100 C   0  0  0  0  0  0  0  0  0  0  0  0
   37.5870   29.4700   36.9690 C   0  0  0  0  0  0  0  0  0  0  0  0
   36.7590   29.4030   35.8590 C   0  0  0  0  0  0  0  0  0  0  0  0
   35.3930   29.2800   36.0780 C   0  0  0  0  0  0  0  0  0  0  0  0
   34.6410   29.2200   34.9360 C   0  0  0  0  0  0  0  0  0  0  0  0
   33.2790   29.0920   35.0420 C   0  0  0  0  0  0  0  0  0  0  0  0
   32.7050   29.0260   36.2990 C   0  0  0  0  0  0  0  0  0  0  0  0
   33.5230   29.0930   37.3880 C   0  0  0  0  0  0  0  0  0  0  0  0
   34.8740   29.2250   37.3610 C   0  0  0  0  0  0  0  0  0  0  0  0
   37.6900   29.4710   39.0770 H   0  0  0  0  0  0  0  0  0  0  0  0
   38.6610   29.5650   36.8840 H   0  0  0  0  0  0  0  0  0  0  0  0
   37.2180   29.4500   34.8930 H   0  0  0  0  0  0  0  0  0  0  0  0
   35.0580   29.2670   33.9400 H   0  0  0  0  0  0  0  0  0  0  0  0
   32.6670   29.0450   34.1510 H   0  0  0  0  0  0  0  0  0  0  0  0
   31.6390   28.9240   36.3690 H   0  0  0  0  0  0  0  0  0  0  0  0
   32.8820   29.0030   38.6160 O   0  0  0  0  0  0  0  0  0  0  0  0
   32.3460   28.1700   38.8060 H   0  0  0  0  0  0  0  0  0  0  0  0
  1  7  1  0  0  0  0
  1  2  1  0  0  0  0
  3  1  1  0  0  0  0
  4  5  1  0  0  0  0
  4 13  1  0  0  0  0
  5  9  1  0  0  0  0
  6  5  2  0  0  0  0
  7  8  1  0  0  0  0
  7  6  1  0  0  0  0
  8  4  2  0  0  0  0
 10  6  1  0  0  0  0
 11 17  1  0  0  0  0
 12 18  1  0  0  0  0
 12 11  2  0  0  0  0
 13 12  1  0  0  0  0
 14 13  2  0  0  0  0
 14 15  1  0  0  0  0
 15 16  2  0  0  0  0
 16 11  1  0  0  0  0
 19 20  1  0  0  0  0
 19 15  1  0  0  0  0
 21 20  2  0  0  0  0
 22 21  1  0  0  0  0
 23 22  2  0  0  0  0
 24 22  1  0  0  0  0
 24 25  1  0  0  0  0
 25 19  1  0  0  0  0
 26 25  2  0  0  0  0
 27 24  1  0  0  0  0
 28 30  1  0  0  0  0
 28  1  1  0  0  0  0
 29 28  1  0  0  0  0
 31 28  1  0  0  0  0
 32 31  1  0  0  0  0
 32 41  1  0  0  0  0
 33 32  2  0  0  0  0
 34 35  2  0  0  0  0
 34 33  1  0  0  0  0
 35 40  1  0  0  0  0
 36 37  2  0  0  0  0
 36 35  1  0  0  0  0
 37 38  1  0  0  0  0
 38 46  1  0  0  0  0
 38 39  2  0  0  0  0
 39 47  1  0  0  0  0
 40 39  1  0  0  0  0
 40 31  2  0  0  0  0
 42 33  1  0  0  0  0
 43 34  1  0  0  0  0
 44 36  1  0  0  0  0
 45 37  1  0  0  0  0
 47 48  1  0  0  0  0
M  END
>  <minimizedAffinity>
-6.91717577

>  <minimizedRMSD>
0.635551095

$$$$
