
 OpenBabel03242508143D

 48 52  0  0  1  0  0  0  0  0999 V2000
   42.4060   34.9380   40.6770 O   0  0  0  0  0  0  0  0  0  0  0  0
   38.8570   35.4620   40.2160 C   0  0  0  0  0  0  0  0  0  0  0  0
   40.2100   35.8000   40.3400 C   0  0  0  0  0  0  0  0  0  0  0  0
   41.1110   34.7280   40.5450 C   0  0  0  0  0  0  0  0  0  0  0  0
   40.5760   33.5240   40.5970 N   0  0  0  0  0  0  0  0  0  0  0  0
   39.3210   33.1600   40.4870 C   0  0  0  0  0  0  0  0  0  0  0  0
   38.4870   34.1870   40.2940 N   0  0  0  0  0  0  0  0  0  0  0  0
   38.1840   36.2940   40.0600 H   0  0  0  0  0  0  0  0  0  0  0  0
   40.5420   36.8230   40.2810 H   0  0  0  0  0  0  0  0  0  0  0  0
   38.6340   31.8810   40.5320 C   0  0  0  0  0  0  0  0  0  0  0  0
   38.4860   31.1510   41.6510 N   0  0  0  0  0  0  0  0  0  0  0  0
   37.8650   29.9820   41.7280 C   0  0  0  0  0  0  0  0  0  0  0  0
   37.3270   29.4300   40.6590 N   0  0  0  0  0  0  0  0  0  0  0  0
   37.4060   30.0610   39.4650 C   0  0  0  0  0  0  0  0  0  0  0  0
   36.8460   29.4900   38.3520 C   0  0  0  0  0  0  0  0  0  0  0  0
   36.9040   30.0990   37.1310 C   0  0  0  0  0  0  0  0  0  0  0  0
   37.5710   31.3580   37.0460 C   0  0  0  0  0  0  0  0  0  0  0  0
   38.1040   31.8590   38.2060 C   0  0  0  0  0  0  0  0  0  0  0  0
   38.0590   31.2770   39.4280 C   0  0  0  0  0  0  0  0  0  0  0  0
   37.7650   29.4240   42.6420 H   0  0  0  0  0  0  0  0  0  0  0  0
   36.3330   28.5360   38.3810 H   0  0  0  0  0  0  0  0  0  0  0  0
   36.4800   29.6980   36.2090 H   0  0  0  0  0  0  0  0  0  0  0  0
   37.6530   31.8920   36.1110 H   0  0  0  0  0  0  0  0  0  0  0  0
   38.6100   32.8270   38.1130 H   0  0  0  0  0  0  0  0  0  0  0  0
   43.1540   34.7300   41.8560 C   0  0  2  0  0  0  0  0  0  0  0  0
   42.6300   34.0250   42.5230 H   0  0  0  0  0  0  0  0  0  0  0  0
   43.0730   36.1200   42.6070 C   0  0  0  0  0  0  0  0  0  0  0  0
   42.0720   36.1430   43.0540 H   0  0  0  0  0  0  0  0  0  0  0  0
   43.9150   36.0830   43.3070 H   0  0  0  0  0  0  0  0  0  0  0  0
   43.1810   36.8960   41.8290 H   0  0  0  0  0  0  0  0  0  0  0  0
   44.5820   34.4350   41.5820 C   0  0  0  0  0  0  0  0  0  0  0  0
   45.0430   35.3810   41.2150 H   0  0  0  0  0  0  0  0  0  0  0  0
   44.7670   33.6800   40.8190 H   0  0  0  0  0  0  0  0  0  0  0  0
   45.2000   34.0870   42.8660 N   0  0  0  0  0  0  0  0  0  0  0  0
   46.2840   34.7220   43.3850 C   0  0  0  0  0  0  0  0  0  0  0  0
   46.6020   34.1690   44.5780 N   0  0  0  0  0  0  0  0  0  0  0  0
   45.6900   33.1810   44.7820 C   0  0  0  0  0  0  0  0  0  0  0  0
   44.8450   33.1450   43.7320 N   0  0  0  0  0  0  0  0  0  0  0  0
   46.7890   35.5390   42.8900 H   0  0  0  0  0  0  0  0  0  0  0  0
   45.6110   32.3100   45.9080 N   0  0  0  0  0  0  0  0  0  0  0  0
   44.5040   31.5190   45.8760 C   0  0  0  0  0  0  0  0  0  0  0  0
   44.2250   30.5970   46.8690 C   0  0  0  0  0  0  0  0  0  0  0  0
   45.1360   30.5170   47.9070 C   0  0  0  0  0  0  0  0  0  0  0  0
   44.9230   29.6960   48.8280 O   0  0  0  0  0  0  0  0  0  0  0  0
   46.2230   31.3090   47.9180 N   0  0  0  0  0  0  0  0  0  0  0  0
   46.4700   32.1970   46.9380 C   0  0  0  0  0  0  0  0  0  0  0  0
   47.4560   32.9740   46.8680 O   0  0  0  0  0  0  0  0  0  0  0  0
   46.9210   31.2630   48.6940 H   0  0  0  0  0  0  0  0  0  0  0  0
  1 25  1  0  0  0  0
  2  7  2  0  0  0  0
  2  3  1  0  0  0  0
  3  4  2  0  0  0  0
  4  5  1  0  0  0  0
  4  1  1  0  0  0  0
  6 10  1  0  0  0  0
  6  5  2  0  0  0  0
  7  6  1  0  0  0  0
  8  2  1  0  0  0  0
  9  3  1  0  0  0  0
 10 11  1  0  0  0  0
 11 12  2  0  0  0  0
 12 20  1  0  0  0  0
 13 12  1  0  0  0  0
 14 13  2  0  0  0  0
 15 21  1  0  0  0  0
 15 14  1  0  0  0  0
 16 15  2  0  0  0  0
 17 16  1  0  0  0  0
 17 18  2  0  0  0  0
 18 19  1  0  0  0  0
 19 14  1  0  0  0  0
 19 10  2  0  0  0  0
 22 16  1  0  0  0  0
 23 17  1  0  0  0  0
 24 18  1  0  0  0  0
 25 26  1  1  0  0  0
 25 27  1  0  0  0  0
 27 28  1  0  0  0  0
 27 29  1  0  0  0  0
 30 27  1  0  0  0  0
 31 25  1  0  0  0  0
 31 34  1  0  0  0  0
 32 31  1  0  0  0  0
 33 31  1  0  0  0  0
 34 35  1  0  0  0  0
 34 38  1  0  0  0  0
 35 36  2  0  0  0  0
 36 37  1  0  0  0  0
 37 40  1  0  0  0  0
 38 37  2  0  0  0  0
 39 35  1  0  0  0  0
 40 46  1  0  0  0  0
 41 40  1  0  0  0  0
 41 42  2  0  0  0  0
 42 43  1  0  0  0  0
 43 45  1  0  0  0  0
 43 44  2  0  0  0  0
 45 48  1  0  0  0  0
 46 45  1  0  0  0  0
 47 46  2  0  0  0  0
M  END
>  <minimizedAffinity>
-8.0942297

>  <minimizedRMSD>
0.268198848

$$$$
