
 OpenBabel03242506413D

 16 17  0  0  0  0  0  0  0  0999 V2000
   38.1770   29.0720   43.3170 C   0  0  0  0  0  0  0  0  0  0  0  0
   37.8670   27.7180   43.5100 C   0  0  0  0  0  0  0  0  0  0  0  0
   36.9600   27.1090   42.6270 C   0  0  0  0  0  0  0  0  0  0  0  0
   36.4360   27.8780   41.6370 N   0  0  0  0  0  0  0  0  0  0  0  0
   36.7470   29.1750   41.4720 C   0  0  0  0  0  0  0  0  0  0  0  0
   37.6160   29.7710   42.3100 N   0  0  0  0  0  0  0  0  0  0  0  0
   38.8740   29.4810   44.0210 H   0  0  0  0  0  0  0  0  0  0  0  0
   38.2990   27.1230   44.3110 H   0  0  0  0  0  0  0  0  0  0  0  0
   36.2940   29.7330   40.6590 H   0  0  0  0  0  0  0  0  0  0  0  0
   36.6750   25.7890   42.8350 O   0  0  0  0  0  0  0  0  0  0  0  0
   37.3720   24.8360   42.0990 C   0  0  0  0  0  0  0  0  0  0  0  0
   38.6600   24.3310   41.9710 C   0  0  0  0  0  0  0  0  0  0  0  0
   38.6000   23.3690   41.0080 N   0  0  0  0  0  0  0  0  0  0  0  0
   37.3400   23.2710   40.5520 C   0  0  0  0  0  0  0  0  0  0  0  0
   36.5900   24.1760   41.2270 N   0  0  0  0  0  0  0  0  0  0  0  0
   35.5690   24.1680   40.9280 H   0  0  0  0  0  0  0  0  0  0  0  0
  1  2  1  0  0  0  0
  1  7  1  0  0  0  0
  2  8  1  0  0  0  0
  3 10  1  0  0  0  0
  3  2  2  0  0  0  0
  4  3  1  0  0  0  0
  5  4  2  0  0  0  0
  5  6  1  0  0  0  0
  6  1  2  0  0  0  0
  9  5  1  0  0  0  0
 11 10  1  0  0  0  0
 12 11  2  0  0  0  0
 13 12  1  0  0  0  0
 14 13  2  0  0  0  0
 14 15  1  0  0  0  0
 15 11  1  0  0  0  0
 16 15  1  0  0  0  0
M  END
>  <minimizedAffinity>
-3.4983356

>  <minimizedRMSD>
2.04064941

$$$$
