
 OpenBabel03242508513D

 30 33  0  0  0  0  0  0  0  0999 V2000
   39.2790   30.0790   42.0450 C   0  0  0  0  0  0  0  0  0  0  0  0
   38.9450   31.2700   41.3980 C   0  0  0  0  0  0  0  0  0  0  0  0
   40.0340   32.0220   41.4070 N   0  0  0  0  0  0  0  0  0  0  0  0
   41.0740   31.4240   42.0130 C   0  0  0  0  0  0  0  0  0  0  0  0
   42.3590   31.8780   42.2200 C   0  0  0  0  0  0  0  0  0  0  0  0
   43.2290   31.0120   42.8930 C   0  0  0  0  0  0  0  0  0  0  0  0
   42.7970   29.7640   43.3200 C   0  0  0  0  0  0  0  0  0  0  0  0
   41.5100   29.3270   43.1040 C   0  0  0  0  0  0  0  0  0  0  0  0
   40.6210   30.1770   42.4320 C   0  0  0  0  0  0  0  0  0  0  0  0
   37.9490   31.4130   41.0110 H   0  0  0  0  0  0  0  0  0  0  0  0
   42.6510   32.8550   41.8710 H   0  0  0  0  0  0  0  0  0  0  0  0
   44.2560   31.3330   43.0780 H   0  0  0  0  0  0  0  0  0  0  0  0
   43.4890   29.1110   43.8390 H   0  0  0  0  0  0  0  0  0  0  0  0
   41.1600   28.3630   43.4290 H   0  0  0  0  0  0  0  0  0  0  0  0
   37.5170   26.9270   41.5180 C   0  0  0  0  0  0  0  0  0  0  0  0
   36.7840   26.7510   42.7360 C   0  0  0  0  0  0  0  0  0  0  0  0
   36.9260   27.7370   43.7070 C   0  0  0  0  0  0  0  0  0  0  0  0
   37.7340   28.7890   43.4510 N   0  0  0  0  0  0  0  0  0  0  0  0
   38.4130   28.9280   42.2890 C   0  0  0  0  0  0  0  0  0  0  0  0
   38.3020   27.9910   41.3210 N   0  0  0  0  0  0  0  0  0  0  0  0
   37.4590   26.2030   40.7140 H   0  0  0  0  0  0  0  0  0  0  0  0
   36.1620   25.8650   42.8390 H   0  0  0  0  0  0  0  0  0  0  0  0
   36.3840   27.6230   44.6290 H   0  0  0  0  0  0  0  0  0  0  0  0
   40.0130   33.3180   40.8130 C   0  0  0  0  0  0  0  0  0  0  0  0
   38.9530   34.1960   40.8880 C   0  0  0  0  0  0  0  0  0  0  0  0
   39.0640   35.4340   40.2590 C   0  0  0  0  0  0  0  0  0  0  0  0
   38.2200   36.0920   40.3400 H   0  0  0  0  0  0  0  0  0  0  0  0
   40.1630   35.7800   39.5950 N   0  0  0  0  0  0  0  0  0  0  0  0
   41.1870   34.9100   39.5320 C   0  0  0  0  0  0  0  0  0  0  0  0
   41.1370   33.6830   40.1280 N   0  0  0  0  0  0  0  0  0  0  0  0
  1 19  1  0  0  0  0
  1  9  1  0  0  0  0
  2  3  1  0  0  0  0
  2  1  2  0  0  0  0
  3  4  1  0  0  0  0
  4  5  2  0  0  0  0
  4  9  1  0  0  0  0
  5  6  1  0  0  0  0
  6 12  1  0  0  0  0
  6  7  2  0  0  0  0
  7 13  1  0  0  0  0
  8  7  1  0  0  0  0
  8 14  1  0  0  0  0
  9  8  2  0  0  0  0
 10  2  1  0  0  0  0
 11  5  1  0  0  0  0
 15 16  1  0  0  0  0
 16 22  1  0  0  0  0
 16 17  2  0  0  0  0
 17 23  1  0  0  0  0
 18 17  1  0  0  0  0
 19 18  2  0  0  0  0
 20 15  2  0  0  0  0
 20 19  1  0  0  0  0
 21 15  1  0  0  0  0
 24 25  1  0  0  0  0
 24  3  1  0  0  0  0
 26 27  1  0  0  0  0
 26 25  2  0  0  0  0
 28 26  1  0  0  0  0
 29 28  2  0  0  0  0
 29 30  1  0  0  0  0
 30 24  2  0  0  0  0
M  END
>  <minimizedAffinity>
-5.41967201

>  <minimizedRMSD>
6.16520166

$$$$
