
 OpenBabel03242507203D

 17 18  0  0  0  0  0  0  0  0999 V2000
   38.0110   28.9890   43.3600 C   0  0  0  0  0  0  0  0  0  0  0  0
   37.8630   27.5880   43.4600 C   0  0  0  0  0  0  0  0  0  0  0  0
   37.1110   26.9410   42.4760 C   0  0  0  0  0  0  0  0  0  0  0  0
   36.5700   27.7000   41.4840 N   0  0  0  0  0  0  0  0  0  0  0  0
   36.7350   29.0320   41.4240 C   0  0  0  0  0  0  0  0  0  0  0  0
   37.4500   29.6640   42.3570 N   0  0  0  0  0  0  0  0  0  0  0  0
   38.6120   29.3580   44.1820 H   0  0  0  0  0  0  0  0  0  0  0  0
   38.2730   26.9670   44.2230 H   0  0  0  0  0  0  0  0  0  0  0  0
   36.2750   29.5790   40.6050 H   0  0  0  0  0  0  0  0  0  0  0  0
   36.9160   25.4580   42.5240 C   0  0  0  0  0  0  0  0  0  0  0  0
   35.8770   25.2630   42.1650 H   0  0  0  0  0  0  0  0  0  0  0  0
   36.9860   25.0940   43.5520 H   0  0  0  0  0  0  0  0  0  0  0  0
   37.8100   24.7830   41.6120 N   0  0  0  0  0  0  0  0  0  0  0  0
   38.9660   25.1540   41.0360 C   0  0  0  0  0  0  0  0  0  0  0  0
   39.4030   24.1360   40.2570 N   0  0  0  0  0  0  0  0  0  0  0  0
   38.5230   23.1280   40.3440 C   0  0  0  0  0  0  0  0  0  0  0  0
   37.5520   23.5620   41.1880 N   0  0  0  0  0  0  0  0  0  0  0  0
  1  2  1  0  0  0  0
  1  7  1  0  0  0  0
  2  8  1  0  0  0  0
  3 10  1  0  0  0  0
  3  2  2  0  0  0  0
  4  3  1  0  0  0  0
  5  4  2  0  0  0  0
  5  6  1  0  0  0  0
  6  1  2  0  0  0  0
  9  5  1  0  0  0  0
 10 12  1  0  0  0  0
 11 10  1  0  0  0  0
 13 10  1  0  0  0  0
 14 13  1  0  0  0  0
 15 16  1  0  0  0  0
 15 14  2  0  0  0  0
 16 17  2  0  0  0  0
 17 13  1  0  0  0  0
M  END
>  <minimizedAffinity>
-3.19840121

>  <minimizedRMSD>
0.503599524

$$$$
