
     RDKit          3D

 24 25  0  0  0  0  0  0  0  0999 V2000
   37.9682   28.8768   43.3716 C   0  0  0  0  0  0  0  0  0  0  0  0
   38.0840   27.4688   43.3146 C   0  0  0  0  0  0  0  0  0  0  0  0
   37.4370   26.8243   42.2550 C   0  0  0  0  0  0  0  0  0  0  0  0
   36.7383   27.5814   41.3459 N   0  0  0  0  0  0  0  0  0  0  0  0
   36.6602   28.9126   41.4460 C   0  0  0  0  0  0  0  0  0  0  0  0
   37.2677   29.5515   42.4465 N   0  0  0  0  0  0  0  0  0  0  0  0
   37.5272   25.3355   42.1471 C   0  0  0  0  0  0  0  0  0  0  0  0
   37.6497   25.0552   40.8039 F   0  0  0  0  0  0  0  0  0  0  0  0
   38.6293   24.8373   42.7953 F   0  0  0  0  0  0  0  0  0  0  0  0
   36.3844   24.7115   42.6471 F   0  0  0  0  0  0  0  0  0  0  0  0
   38.4541   29.4202   44.1769 H   0  0  0  0  0  0  0  0  0  0  0  0
   38.6471   26.9320   44.0592 H   0  0  0  0  0  0  0  0  0  0  0  0
   35.8865   29.4905   40.3972 N   0  0  0  0  0  0  0  0  0  0  0  0
   35.1573   30.5591   40.8013 C   0  0  0  0  0  0  0  0  0  0  0  0
   34.3525   31.2290   39.8930 C   0  0  0  0  0  0  0  0  0  0  0  0
   34.3604   30.7337   38.6031 C   0  0  0  0  0  0  0  0  0  0  0  0
   33.5401   31.3972   37.6264 N   0  0  0  0  0  0  0  0  0  0  0  0
   35.1000   29.6669   38.2388 N   0  0  0  0  0  0  0  0  0  0  0  0
   35.8743   29.0365   39.1502 C   0  0  0  0  0  0  0  0  0  0  0  0
   36.5899   28.0411   38.8950 O   0  0  0  0  0  0  0  0  0  0  0  0
   35.1432   30.9565   41.8106 H   0  0  0  0  0  0  0  0  0  0  0  0
   33.7512   32.0768   40.1380 H   0  0  0  0  0  0  0  0  0  0  0  0
   33.0568   30.7795   36.9623 H   0  0  0  0  0  0  0  0  0  0  0  0
   33.3565   32.3954   37.4825 H   0  0  0  0  0  0  0  0  0  0  0  0
  2  1  2  0
  3  2  1  0
  4  5  1  0
  4  3  2  0
  5  6  2  0
  6  1  1  0
  7  3  1  0
  7 10  1  0
  7  9  1  0
  8  7  1  0
  1 11  1  0
  2 12  1  0
 13 14  1  0
 14 15  2  0
 15 16  1  0
 16 17  1  0
 16 18  2  0
 18 19  1  0
 19 20  2  0
 19 13  1  0
 14 21  1  0
 15 22  1  0
 17 23  1  0
 17 24  1  0
  5 13  1  0
M  ISO  2  11  14  12  14
M  END
>  <DihAtoms>  (1) 
3,4,12,13

>  <DihDeg>  (1) 
144.1355201195125

$$$$
