
 OpenBabel03242509303D

 22 23  0  0  0  0  0  0  0  0999 V2000
   37.5670   28.5860   43.6080 C   0  0  0  0  0  0  0  0  0  0  0  0
   37.4040   27.2070   43.3410 C   0  0  0  0  0  0  0  0  0  0  0  0
   37.3350   26.8290   41.9950 C   0  0  0  0  0  0  0  0  0  0  0  0
   37.4280   27.8000   41.0280 N   0  0  0  0  0  0  0  0  0  0  0  0
   37.5820   29.0930   41.3360 C   0  0  0  0  0  0  0  0  0  0  0  0
   37.6510   29.4800   42.6110 N   0  0  0  0  0  0  0  0  0  0  0  0
   37.6260   28.9260   44.6380 H   0  0  0  0  0  0  0  0  0  0  0  0
   37.3380   26.4940   44.1440 H   0  0  0  0  0  0  0  0  0  0  0  0
   37.6550   29.9210   40.1770 N   0  0  0  0  0  0  0  0  0  0  0  0
   38.5620   29.4850   39.2690 C   0  0  0  0  0  3  0  0  0  0  0  0
   38.7470   30.1860   38.0880 C   0  0  0  0  0  3  0  0  0  0  0  0
   37.9640   31.3140   37.9290 C   0  0  0  0  0  0  0  0  0  0  0  0
   38.1220   32.0740   36.7190 N   0  0  0  0  0  0  0  0  0  0  0  0
   37.0720   31.7160   38.8570 N   0  0  0  0  0  0  0  0  0  0  0  0
   36.9160   31.0080   39.9980 C   0  0  0  0  0  0  0  0  0  0  0  0
   36.1120   31.3120   40.9090 O   0  0  0  0  0  0  0  0  0  0  0  0
   38.0900   33.0950   36.8310 H   0  0  0  0  0  0  0  0  0  0  0  0
   38.2640   31.7610   35.7530 H   0  0  0  0  0  0  0  0  0  0  0  0
   37.1630   25.3820   41.6560 C   0  0  0  0  0  0  0  0  0  0  0  0
   36.4900   25.3480   40.4550 F   0  0  0  0  0  0  0  0  0  0  0  0
   38.3660   24.7440   41.4950 F   0  0  0  0  0  0  0  0  0  0  0  0
   36.4160   24.7110   42.6240 F   0  0  0  0  0  0  0  0  0  0  0  0
  1  7  1  0  0  0  0
  2  1  1  0  0  0  0
  2  8  1  0  0  0  0
  3  2  2  0  0  0  0
  4  5  2  0  0  0  0
  4  3  1  0  0  0  0
  5  6  1  0  0  0  0
  6  1  2  0  0  0  0
  9  5  1  0  0  0  0
 10  9  1  0  0  0  0
 11 10  2  0  0  0  0
 12 11  1  0  0  0  0
 12 14  2  0  0  0  0
 13 17  1  0  0  0  0
 13 12  1  0  0  0  0
 14 15  1  0  0  0  0
 15  9  1  0  0  0  0
 15 16  2  0  0  0  0
 18 13  1  0  0  0  0
 19  3  1  0  0  0  0
 19 22  1  0  0  0  0
 20 19  1  0  0  0  0
 21 19  1  0  0  0  0
M  END
>  <minimizedAffinity>
-5.61936283

>  <minimizedRMSD>
2.03865123

$$$$
