
 OpenBabel03242504593D

 49 53  0  0  0  0  0  0  0  0999 V2000
   39.2080   30.8980   41.5410 C   0  0  0  0  0  0  0  0  0  0  0  0
   39.2950   29.5170   41.4760 C   0  0  0  0  0  0  0  0  0  0  0  0
   38.6840   28.8450   40.3940 C   0  0  0  0  0  0  0  0  0  0  0  0
   38.0400   29.6570   39.4790 N   0  0  0  0  0  0  0  0  0  0  0  0
   37.9890   30.9910   39.5960 C   0  0  0  0  0  0  0  0  0  0  0  0
   38.5670   31.6060   40.6160 N   0  0  0  0  0  0  0  0  0  0  0  0
   39.6980   31.3410   42.3940 H   0  0  0  0  0  0  0  0  0  0  0  0
   39.9670   28.6620   42.4320 C   0  0  0  0  0  0  0  0  0  0  0  0
   39.5110   27.9390   43.4360 N   0  0  0  0  0  0  0  0  0  0  0  0
   40.4640   27.3180   44.0370 O   0  0  0  0  0  0  0  0  0  0  0  0
   41.6070   27.5920   43.4670 C   0  0  0  0  0  0  0  0  0  0  0  0
   41.3140   28.4360   42.4560 N   0  0  0  0  0  0  0  0  0  0  0  0
   42.9550   27.2070   43.6940 N   0  0  0  0  0  0  0  0  0  0  0  0
   43.7850   27.3260   42.6450 C   0  0  0  0  0  0  0  0  0  0  0  0
   45.1100   26.9800   42.7750 C   0  0  0  0  0  0  0  0  0  0  0  0
   45.4820   26.5150   44.0510 C   0  0  0  0  0  0  0  0  0  0  0  0
   46.6850   26.1890   44.2070 O   0  0  0  0  0  0  0  0  0  0  0  0
   44.6160   26.4040   45.0960 N   0  0  0  0  0  0  0  0  0  0  0  0
   43.3510   26.7550   44.9030 C   0  0  0  0  0  0  0  0  0  0  0  0
   42.5250   26.6710   45.8300 O   0  0  0  0  0  0  0  0  0  0  0  0
   43.5180   27.6800   41.6600 H   0  0  0  0  0  0  0  0  0  0  0  0
   45.8390   27.0440   41.9910 H   0  0  0  0  0  0  0  0  0  0  0  0
   45.0050   26.0470   45.9960 H   0  0  0  0  0  0  0  0  0  0  0  0
   37.2630   31.7260   38.5400 C   0  0  0  0  0  0  0  0  0  0  0  0
   36.7090   32.8720   39.0570 F   0  0  0  0  0  0  0  0  0  0  0  0
   38.0920   32.0460   37.5130 F   0  0  0  0  0  0  0  0  0  0  0  0
   36.1960   30.9380   38.0680 F   0  0  0  0  0  0  0  0  0  0  0  0
   38.6540   27.3840   40.1370 C   0  0  0  0  0  0  0  0  0  0  0  0
   40.0000   26.7500   40.0110 C   0  0  0  0  0  0  0  0  0  0  0  0
   40.0570   25.9380   39.2670 H   0  0  0  0  0  0  0  0  0  0  0  0
   40.6870   27.5470   39.6130 H   0  0  0  0  0  0  0  0  0  0  0  0
   40.4610   26.4420   40.9670 H   0  0  0  0  0  0  0  0  0  0  0  0
   38.0730   27.2140   38.6830 C   0  0  0  0  0  0  0  0  0  0  0  0
   38.1800   26.1730   38.3560 H   0  0  0  0  0  0  0  0  0  0  0  0
   36.9910   27.4120   38.8140 H   0  0  0  0  0  0  0  0  0  0  0  0
   38.5900   27.9180   38.0220 H   0  0  0  0  0  0  0  0  0  0  0  0
   37.7060   26.6260   40.9890 C   0  0  0  0  0  0  0  0  0  0  0  0
   37.5850   26.8890   42.0300 H   0  0  0  0  0  0  0  0  0  0  0  0
   36.6200   26.7940   40.6100 H   0  0  0  0  0  0  0  0  0  0  0  0
   37.8220   25.1620   40.8040 N   0  0  0  0  0  0  0  0  0  0  0  0
   38.7490   24.3130   41.3420 C   0  0  0  0  0  0  0  0  0  0  0  0
   38.5150   23.0510   40.9430 N   0  0  0  0  0  0  0  0  0  0  0  0
   37.4360   23.0550   40.1400 C   0  0  0  0  0  0  0  0  0  0  0  0
   36.7920   22.0290   39.4760 C   0  0  0  0  0  0  0  0  0  0  0  0
   37.2070   21.0210   39.6040 H   0  0  0  0  0  0  0  0  0  0  0  0
   35.7120   22.2960   38.7180 N   0  0  0  0  0  0  0  0  0  0  0  0
   35.3080   23.5930   38.6490 C   0  0  0  0  0  0  0  0  0  0  0  0
   35.9460   24.5720   39.3020 N   0  0  0  0  0  0  0  0  0  0  0  0
   37.0270   24.3640   40.0710 C   0  0  0  0  0  0  0  0  0  0  0  0
  1  7  1  0  0  0  0
  2  1  1  0  0  0  0
  2  8  1  0  0  0  0
  3  2  2  0  0  0  0
  4  5  2  0  0  0  0
  4  3  1  0  0  0  0
  5  6  1  0  0  0  0
  6  1  2  0  0  0  0
  8 12  1  0  0  0  0
  8  9  2  0  0  0  0
  9 10  1  0  0  0  0
 11 13  1  0  0  0  0
 11 10  1  0  0  0  0
 12 11  2  0  0  0  0
 13 19  1  0  0  0  0
 14 15  2  0  0  0  0
 14 13  1  0  0  0  0
 15 16  1  0  0  0  0
 16 17  2  0  0  0  0
 16 18  1  0  0  0  0
 18 23  1  0  0  0  0
 19 18  1  0  0  0  0
 19 20  2  0  0  0  0
 21 14  1  0  0  0  0
 22 15  1  0  0  0  0
 24 25  1  0  0  0  0
 24  5  1  0  0  0  0
 26 24  1  0  0  0  0
 27 24  1  0  0  0  0
 28  3  1  0  0  0  0
 28 37  1  0  0  0  0
 29 28  1  0  0  0  0
 29 32  1  0  0  0  0
 30 29  1  0  0  0  0
 31 29  1  0  0  0  0
 33 35  1  0  0  0  0
 33 28  1  0  0  0  0
 34 33  1  0  0  0  0
 36 33  1  0  0  0  0
 37 38  1  0  0  0  0
 39 37  1  0  0  0  0
 40 37  1  0  0  0  0
 40 41  1  0  0  0  0
 42 41  2  0  0  0  0
 43 42  1  0  0  0  0
 44 45  1  0  0  0  0
 44 43  2  0  0  0  0
 46 44  1  0  0  0  0
 47 46  2  0  0  0  0
 47 48  1  0  0  0  0
 48 49  2  0  0  0  0
 49 43  1  0  0  0  0
 49 40  1  0  0  0  0
M  END
>  <minimizedAffinity>
-5.60399866

>  <minimizedRMSD>
0.517924309

$$$$
