
 OpenBabel03242507283D

 36 39  0  0  0  0  0  0  0  0999 V2000
   36.7970   26.7080   42.7490 C   0  0  0  0  0  0  0  0  0  0  0  0
   37.2330   26.9370   43.7490 H   0  0  0  0  0  0  0  0  0  0  0  0
   35.7310   26.4530   42.8010 H   0  0  0  0  0  0  0  0  0  0  0  0
   37.3670   30.2960   41.6710 C   0  0  0  0  0  0  0  0  0  0  0  0
   37.1830   29.1500   42.5020 C   0  0  0  0  0  0  0  0  0  0  0  0
   36.9930   27.9240   41.9250 C   0  0  0  0  0  0  0  0  0  0  0  0
   36.9900   27.8670   40.5700 N   0  0  0  0  0  0  0  0  0  0  0  0
   37.1640   28.9490   39.7810 C   0  0  0  0  0  0  0  0  0  0  0  0
   37.3480   30.1360   40.3360 N   0  0  0  0  0  0  0  0  0  0  0  0
   37.5140   31.2380   42.1910 H   0  0  0  0  0  0  0  0  0  0  0  0
   37.1940   29.2430   43.5840 H   0  0  0  0  0  0  0  0  0  0  0  0
   37.1460   28.7970   38.3650 N   0  0  0  0  0  0  0  0  0  0  0  0
   37.2540   27.6780   37.6250 C   0  0  0  0  0  0  0  0  0  0  0  0
   37.2090   27.7740   36.2480 C   0  0  0  0  0  0  0  0  0  0  0  0
   37.0570   29.0030   35.6390 C   0  0  0  0  0  0  0  0  0  0  0  0
   37.0140   29.0780   34.2190 N   0  0  0  0  0  0  0  0  0  0  0  0
   36.9520   30.1040   36.4070 N   0  0  0  0  0  0  0  0  0  0  0  0
   36.9970   30.0050   37.7630 C   0  0  0  0  0  0  0  0  0  0  0  0
   36.8840   31.1230   38.3300 O   0  0  0  0  0  0  0  0  0  0  0  0
   37.5630   28.5930   33.5020 H   0  0  0  0  0  0  0  0  0  0  0  0
   36.2780   29.7600   33.8700 H   0  0  0  0  0  0  0  0  0  0  0  0
   37.5750   25.5870   42.1960 C   0  0  0  0  0  0  0  0  0  0  0  0
   38.8410   25.1510   42.2990 C   0  0  0  0  0  0  0  0  0  0  0  0
   39.2890   24.0470   41.6520 C   0  0  0  0  0  0  0  0  0  0  0  0
   38.2530   23.4280   40.8660 C   0  0  0  0  0  0  0  0  0  0  0  0
   36.8200   24.4040   41.0980 S   0  0  0  0  0  0  0  0  0  0  0  0
   39.4670   25.7610   42.9430 H   0  0  0  0  0  0  0  0  0  0  0  0
   40.2950   23.6590   41.7030 H   0  0  0  0  0  0  0  0  0  0  0  0
   38.3770   22.2300   40.0450 C   0  0  0  0  0  0  0  0  0  0  0  0
   39.0870   22.1660   38.8820 C   0  0  0  0  0  0  0  0  0  0  0  0
   38.9150   20.8470   38.4710 C   0  0  0  0  0  0  0  0  0  0  0  0
   38.1360   20.1870   39.3660 N   0  0  0  0  0  0  0  0  0  0  0  0
   37.8140   21.0580   40.3300 N   0  0  0  0  0  0  0  0  0  0  0  0
   39.6710   22.9030   38.3360 H   0  0  0  0  0  0  0  0  0  0  0  0
   39.2930   20.3270   37.5980 H   0  0  0  0  0  0  0  0  0  0  0  0
   37.7980   19.2000   39.3880 H   0  0  0  0  0  0  0  0  0  0  0  0
  1  3  1  0  0  0  0
  1  2  1  0  0  0  0
  4 10  1  0  0  0  0
  4  5  1  0  0  0  0
  5 11  1  0  0  0  0
  6  5  2  0  0  0  0
  6  1  1  0  0  0  0
  7  6  1  0  0  0  0
  8  9  1  0  0  0  0
  8  7  2  0  0  0  0
  9  4  2  0  0  0  0
 12  8  1  0  0  0  0
 13 12  1  0  0  0  0
 14 13  2  0  0  0  0
 15 14  1  0  0  0  0
 15 17  2  0  0  0  0
 16 15  1  0  0  0  0
 17 18  1  0  0  0  0
 18 19  2  0  0  0  0
 18 12  1  0  0  0  0
 20 16  1  0  0  0  0
 21 16  1  0  0  0  0
 22 23  2  0  0  0  0
 22  1  1  0  0  0  0
 23 27  1  0  0  0  0
 24 28  1  0  0  0  0
 24 23  1  0  0  0  0
 25 26  1  0  0  0  0
 25 24  2  0  0  0  0
 26 22  1  0  0  0  0
 29 33  2  0  0  0  0
 29 25  1  0  0  0  0
 30 29  1  0  0  0  0
 31 30  2  0  0  0  0
 31 32  1  0  0  0  0
 32 36  1  0  0  0  0
 32 33  1  0  0  0  0
 34 30  1  0  0  0  0
 35 31  1  0  0  0  0
M  END
>  <minimizedAffinity>
-5.4481802

>  <minimizedRMSD>
3.20943022

$$$$
