
 OpenBabel03242509303D

 22 23  0  0  0  0  0  0  0  0999 V2000
   37.8390   28.6200   43.5830 C   0  0  0  0  0  0  0  0  0  0  0  0
   38.3910   27.3220   43.6960 C   0  0  0  0  0  0  0  0  0  0  0  0
   38.3120   26.5020   42.5650 C   0  0  0  0  0  0  0  0  0  0  0  0
   37.7130   26.9930   41.4300 N   0  0  0  0  0  0  0  0  0  0  0  0
   37.2070   28.2310   41.3760 C   0  0  0  0  0  0  0  0  0  0  0  0
   37.2700   29.0330   42.4400 N   0  0  0  0  0  0  0  0  0  0  0  0
   37.8780   29.2910   44.4350 H   0  0  0  0  0  0  0  0  0  0  0  0
   38.8470   26.9950   44.6150 H   0  0  0  0  0  0  0  0  0  0  0  0
   36.6370   28.5280   40.1040 N   0  0  0  0  0  0  0  0  0  0  0  0
   36.2530   27.4220   39.4220 C   0  0  0  0  0  3  0  0  0  0  0  0
   35.6800   27.5490   38.1660 C   0  0  0  0  0  3  0  0  0  0  0  0
   35.5430   28.8410   37.6960 C   0  0  0  0  0  0  0  0  0  0  0  0
   34.9540   29.0220   36.3980 N   0  0  0  0  0  0  0  0  0  0  0  0
   35.9380   29.9180   38.4050 N   0  0  0  0  0  0  0  0  0  0  0  0
   36.4930   29.7580   39.6270 C   0  0  0  0  0  0  0  0  0  0  0  0
   36.8860   30.7030   40.3490 O   0  0  0  0  0  0  0  0  0  0  0  0
   35.3820   29.7520   35.8160 H   0  0  0  0  0  0  0  0  0  0  0  0
   34.1670   28.5370   35.9520 H   0  0  0  0  0  0  0  0  0  0  0  0
   38.8790   25.1190   42.6300 C   0  0  0  0  0  0  0  0  0  0  0  0
   39.6760   24.9800   41.5150 F   0  0  0  0  0  0  0  0  0  0  0  0
   39.6580   24.9330   43.7440 F   0  0  0  0  0  0  0  0  0  0  0  0
   37.8770   24.1500   42.6070 F   0  0  0  0  0  0  0  0  0  0  0  0
  1  2  1  0  0  0  0
  1  7  1  0  0  0  0
  2  8  1  0  0  0  0
  3 19  1  0  0  0  0
  3  2  2  0  0  0  0
  4  3  1  0  0  0  0
  5  4  2  0  0  0  0
  5  6  1  0  0  0  0
  6  1  2  0  0  0  0
  9  5  1  0  0  0  0
 10  9  1  0  0  0  0
 11 10  2  0  0  0  0
 12 11  1  0  0  0  0
 12 14  2  0  0  0  0
 13 12  1  0  0  0  0
 14 15  1  0  0  0  0
 15  9  1  0  0  0  0
 15 16  2  0  0  0  0
 17 13  1  0  0  0  0
 18 13  1  0  0  0  0
 19 21  1  0  0  0  0
 20 19  1  0  0  0  0
 22 19  1  0  0  0  0
M  END
>  <minimizedAffinity>
-4.69929361

>  <minimizedRMSD>
1.48366797

$$$$
