
 OpenBabel03242509313D

 22 23  0  0  0  0  0  0  0  0999 V2000
   37.7620   28.5550   43.6020 C   0  0  0  0  0  0  0  0  0  0  0  0
   38.3930   27.2950   43.7110 C   0  0  0  0  0  0  0  0  0  0  0  0
   38.2870   26.4380   42.6090 C   0  0  0  0  0  0  0  0  0  0  0  0
   37.5900   26.8620   41.5040 N   0  0  0  0  0  0  0  0  0  0  0  0
   37.0110   28.0670   41.4530 C   0  0  0  0  0  0  0  0  0  0  0  0
   37.0970   28.9030   42.4890 N   0  0  0  0  0  0  0  0  0  0  0  0
   37.8180   29.2530   44.4320 H   0  0  0  0  0  0  0  0  0  0  0  0
   38.9260   27.0210   44.6050 H   0  0  0  0  0  0  0  0  0  0  0  0
   36.3430   28.2960   40.2140 N   0  0  0  0  0  0  0  0  0  0  0  0
   36.2670   27.1850   39.4400 C   0  0  0  0  0  3  0  0  0  0  0  0
   35.6450   27.2490   38.2030 C   0  0  0  0  0  3  0  0  0  0  0  0
   35.1350   28.4840   37.8480 C   0  0  0  0  0  0  0  0  0  0  0  0
   34.4810   28.5970   36.5730 N   0  0  0  0  0  0  0  0  0  0  0  0
   35.2310   29.5660   38.6470 N   0  0  0  0  0  0  0  0  0  0  0  0
   35.8440   29.4690   39.8480 C   0  0  0  0  0  0  0  0  0  0  0  0
   35.9760   30.4240   40.6470 O   0  0  0  0  0  0  0  0  0  0  0  0
   34.6690   29.4650   36.0560 H   0  0  0  0  0  0  0  0  0  0  0  0
   33.8510   27.9480   36.0910 H   0  0  0  0  0  0  0  0  0  0  0  0
   38.9360   25.0920   42.6710 C   0  0  0  0  0  0  0  0  0  0  0  0
   39.7430   25.0040   41.5590 F   0  0  0  0  0  0  0  0  0  0  0  0
   39.7210   24.9490   43.7870 F   0  0  0  0  0  0  0  0  0  0  0  0
   37.9940   24.0640   42.6420 F   0  0  0  0  0  0  0  0  0  0  0  0
  1  2  1  0  0  0  0
  1  7  1  0  0  0  0
  2  8  1  0  0  0  0
  3 19  1  0  0  0  0
  3  2  2  0  0  0  0
  4  3  1  0  0  0  0
  5  4  2  0  0  0  0
  5  6  1  0  0  0  0
  6  1  2  0  0  0  0
  9  5  1  0  0  0  0
 10  9  1  0  0  0  0
 11 10  2  0  0  0  0
 12 11  1  0  0  0  0
 12 14  2  0  0  0  0
 13 12  1  0  0  0  0
 14 15  1  0  0  0  0
 15  9  1  0  0  0  0
 15 16  2  0  0  0  0
 17 13  1  0  0  0  0
 18 13  1  0  0  0  0
 19 21  1  0  0  0  0
 20 19  1  0  0  0  0
 22 19  1  0  0  0  0
M  END
>  <minimizedAffinity>
-4.76157188

>  <minimizedRMSD>
1.54232466

$$$$
