REMARK  Name = 
REMARK  1 active torsions:
REMARK  status: ('A' for Active; 'I' for Inactive)
REMARK    1  A    between atoms: C_3  and  C_7
REMARK                            x       y       z     vdW  Elec       q    Type
REMARK                         _______ _______ _______ _____ _____    ______ ____
ROOT
ATOM      1  C   UNL     1      37.968  28.877  43.372  0.00  0.00    +0.000 A 
ATOM      2  C   UNL     1      38.084  27.469  43.315  0.00  0.00    +0.000 A 
ATOM      3  C   UNL     1      37.437  26.824  42.255  0.00  0.00    +0.000 A 
ATOM      4  N   UNL     1      36.738  27.581  41.346  0.00  0.00    +0.000 NA
ATOM      5  C   UNL     1      36.660  28.913  41.446  0.00  0.00    +0.000 A 
ATOM      6  N   UNL     1      37.268  29.552  42.447  0.00  0.00    +0.000 NA
ATOM      7  H   UNL     1      38.454  29.420  44.177  0.00  0.00    +0.000 HD
ATOM      8  H   UNL     1      38.647  26.932  44.059  0.00  0.00    +0.000 HD
ATOM      9  N   UNL     1      35.886  29.491  40.397  0.00  0.00    +0.000 N 
ATOM     10  C   UNL     1      34.794  28.755  40.075  0.00  0.00    +0.000 A 
ATOM     11  C   UNL     1      33.942  29.189  39.071  0.00  0.00    +0.000 A 
ATOM     12  C   UNL     1      34.289  30.378  38.460  0.00  0.00    +0.000 A 
ATOM     13  N   UNL     1      33.433  30.866  37.413  0.00  0.00    +0.000 N 
ATOM     14  N   UNL     1      35.385  31.082  38.809  0.00  0.00    +0.000 NA
ATOM     15  C   UNL     1      36.195  30.631  39.792  0.00  0.00    +0.000 A 
ATOM     16  O   UNL     1      37.230  31.222  40.176  0.00  0.00    +0.000 OA
ATOM     17  H   UNL     1      33.916  31.286  36.608  0.00  0.00    +0.000 HD
ATOM     18  H   UNL     1      32.411  30.864  37.336  0.00  0.00    +0.000 HD
ENDROOT
BRANCH   3  19
ATOM     19  C   UNL     1      37.527  25.335  42.147  0.00  0.00    +0.000 C 
ATOM     20  F   UNL     1      37.650  25.055  40.804  0.00  0.00    +0.000 F 
ATOM     21  F   UNL     1      38.629  24.837  42.795  0.00  0.00    +0.000 F 
ATOM     22  F   UNL     1      36.384  24.712  42.647  0.00  0.00    +0.000 F 
ENDBRANCH   3  19
TORSDOF 1
