
 OpenBabel03242508103D

 43 47  0  0  1  0  0  0  0  0999 V2000
   38.9000   35.6050   40.1070 C   0  0  0  0  0  0  0  0  0  0  0  0
   40.2600   35.6440   39.7770 C   0  0  0  0  0  0  0  0  0  0  0  0
   40.8500   34.4100   39.4660 C   0  0  0  0  0  0  0  0  0  0  0  0
   40.0580   33.3440   39.5190 N   0  0  0  0  0  0  0  0  0  0  0  0
   38.7840   33.2700   39.8220 C   0  0  0  0  0  0  0  0  0  0  0  0
   38.2410   34.4530   40.1150 N   0  0  0  0  0  0  0  0  0  0  0  0
   38.4630   36.5710   40.3440 H   0  0  0  0  0  0  0  0  0  0  0  0
   40.8750   36.5120   39.7410 H   0  0  0  0  0  0  0  0  0  0  0  0
   37.8250   32.1790   39.9150 C   0  0  0  0  0  0  0  0  0  0  0  0
   37.2570   31.7730   41.0670 N   0  0  0  0  0  0  0  0  0  0  0  0
   36.3790   30.7890   41.1860 C   0  0  0  0  0  0  0  0  0  0  0  0
   35.9870   30.1160   40.1380 N   0  0  0  0  0  0  0  0  0  0  0  0
   36.4700   30.4100   38.9200 C   0  0  0  0  0  0  0  0  0  0  0  0
   36.0550   29.6940   37.8170 C   0  0  0  0  0  0  0  0  0  0  0  0
   36.5440   29.9830   36.5720 C   0  0  0  0  0  0  0  0  0  0  0  0
   37.4860   31.0340   36.4400 C   0  0  0  0  0  0  0  0  0  0  0  0
   37.8470   31.7000   37.5900 C   0  0  0  0  0  0  0  0  0  0  0  0
   37.3870   31.4470   38.8470 C   0  0  0  0  0  0  0  0  0  0  0  0
   35.9380   30.4850   42.1260 H   0  0  0  0  0  0  0  0  0  0  0  0
   35.3380   28.8860   37.8800 H   0  0  0  0  0  0  0  0  0  0  0  0
   36.2740   29.4740   35.6570 H   0  0  0  0  0  0  0  0  0  0  0  0
   37.9040   31.3030   35.4790 H   0  0  0  0  0  0  0  0  0  0  0  0
   38.5700   32.4990   37.4540 H   0  0  0  0  0  0  0  0  0  0  0  0
   42.1280   34.2620   39.1310 O   0  0  0  0  0  0  0  0  0  0  0  0
   43.1970   34.0710   40.0440 C   0  0  2  0  0  0  0  0  0  0  0  0
   44.0670   34.7210   39.8430 H   0  0  0  0  0  0  0  0  0  0  0  0
   43.7530   32.6460   39.7910 C   0  0  0  0  0  0  0  0  0  0  0  0
   42.9090   32.0420   39.4490 H   0  0  0  0  0  0  0  0  0  0  0  0
   44.1030   32.2370   40.7660 H   0  0  0  0  0  0  0  0  0  0  0  0
   44.5420   32.6480   39.0270 H   0  0  0  0  0  0  0  0  0  0  0  0
   42.6680   34.1540   41.4550 C   0  0  0  0  0  0  0  0  0  0  0  0
   42.2070   33.1750   41.7520 H   0  0  0  0  0  0  0  0  0  0  0  0
   41.8370   34.8840   41.5400 H   0  0  0  0  0  0  0  0  0  0  0  0
   43.7050   34.5310   42.3750 N   0  0  0  0  0  0  0  0  0  0  0  0
   44.1070   35.8190   42.5030 C   0  0  0  0  0  0  0  0  0  0  0  0
   45.0870   35.9310   43.4220 N   0  0  0  0  0  0  0  0  0  0  0  0
   45.3310   34.6960   43.9030 C   0  0  0  0  0  0  0  0  0  0  0  0
   46.1780   34.1200   44.8300 C   0  0  0  0  0  0  0  0  0  0  0  0
   46.8420   34.8250   45.3270 H   0  0  0  0  0  0  0  0  0  0  0  0
   46.1280   32.7850   45.0480 N   0  0  0  0  0  0  0  0  0  0  0  0
   45.2680   31.9990   44.3800 C   0  0  0  0  0  0  0  0  0  0  0  0
   44.4160   32.5090   43.4600 N   0  0  0  0  0  0  0  0  0  0  0  0
   44.4630   33.8510   43.2390 C   0  0  0  0  0  0  0  0  0  0  0  0
  1  6  1  0  0  0  0
  1  7  1  0  0  0  0
  2  1  2  0  0  0  0
  3  4  2  0  0  0  0
  3  2  1  0  0  0  0
  4  5  1  0  0  0  0
  5  9  1  0  0  0  0
  5  6  2  0  0  0  0
  8  2  1  0  0  0  0
  9 10  1  0  0  0  0
 10 11  2  0  0  0  0
 11 19  1  0  0  0  0
 12 11  1  0  0  0  0
 13 12  2  0  0  0  0
 14 20  1  0  0  0  0
 14 13  1  0  0  0  0
 15 14  2  0  0  0  0
 16 15  1  0  0  0  0
 16 17  2  0  0  0  0
 17 18  1  0  0  0  0
 18 13  1  0  0  0  0
 18  9  2  0  0  0  0
 21 15  1  0  0  0  0
 22 16  1  0  0  0  0
 23 17  1  0  0  0  0
 24  3  1  0  0  0  0
 24 25  1  0  0  0  0
 25 26  1  6  0  0  0
 25 31  1  0  0  0  0
 27 25  1  0  0  0  0
 27 29  1  0  0  0  0
 28 27  1  0  0  0  0
 30 27  1  0  0  0  0
 31 33  1  0  0  0  0
 31 32  1  0  0  0  0
 31 34  1  0  0  0  0
 34 35  1  0  0  0  0
 34 43  1  0  0  0  0
 35 36  2  0  0  0  0
 36 37  1  0  0  0  0
 37 38  1  0  0  0  0
 38 40  2  0  0  0  0
 38 39  1  0  0  0  0
 41 40  1  0  0  0  0
 42 41  2  0  0  0  0
 43 42  1  0  0  0  0
 43 37  2  0  0  0  0
M  END
>  <minimizedAffinity>
-6.44971943

>  <minimizedRMSD>
3.79086256

$$$$
