
 OpenBabel03242509023D

 39 42  0  0  1  0  0  0  0  0999 V2000
   37.8730   29.9970   39.2220 N   0  0  1  0  0  0  0  0  0  0  0  0
   37.7490   29.2020   37.9670 C   0  0  0  0  0  0  0  0  0  0  0  0
   39.0280   28.4880   37.6480 C   0  0  0  0  0  0  0  0  0  0  0  0
   40.1240   29.3250   37.8370 O   0  0  0  0  0  0  0  0  0  0  0  0
   39.6890   30.6240   37.7250 C   0  0  0  0  0  0  0  0  0  0  0  0
   38.7900   31.0260   38.9270 C   0  0  2  0  0  0  0  0  0  0  0  0
   37.4040   29.8470   37.1330 H   0  0  0  0  0  0  0  0  0  0  0  0
   36.9310   28.4920   38.1970 H   0  0  0  0  0  0  0  0  0  0  0  0
   38.9490   28.1190   36.6190 H   0  0  0  0  0  0  0  0  0  0  0  0
   39.1030   27.6040   38.3280 H   0  0  0  0  0  0  0  0  0  0  0  0
   40.5780   31.2860   37.6950 H   0  0  0  0  0  0  0  0  0  0  0  0
   39.1570   30.8200   36.7680 H   0  0  0  0  0  0  0  0  0  0  0  0
   38.2240   31.9060   38.5520 H   0  0  0  0  0  0  0  0  0  0  0  0
   39.7570   31.3970   39.9290 N   0  0  0  0  0  0  0  0  0  0  0  0
   40.0770   30.4370   40.8370 C   0  0  0  0  0  0  0  0  0  0  0  0
   41.0080   30.6470   41.8450 C   0  0  0  0  0  0  0  0  0  0  0  0
   41.6490   31.8870   41.9400 C   0  0  0  0  0  0  0  0  0  0  0  0
   42.6210   32.2450   42.9150 N   0  0  0  0  0  0  0  0  0  0  0  0
   41.3020   32.8050   41.0210 N   0  0  0  0  0  0  0  0  0  0  0  0
   40.4080   32.5660   40.0750 C   0  0  0  0  0  0  0  0  0  0  0  0
   40.1130   33.4520   39.2340 O   0  0  0  0  0  0  0  0  0  0  0  0
   42.4030   32.9890   43.6410 H   0  0  0  0  0  0  0  0  0  0  0  0
   43.5530   31.7480   42.8860 H   0  0  0  0  0  0  0  0  0  0  0  0
   35.8890   29.6680   40.8520 C   0  0  1  0  0  0  0  0  0  0  0  0
   36.2580   31.0960   40.8870 C   0  0  0  0  0  0  0  0  0  0  0  0
   36.5840   30.3620   39.6600 C   0  0  1  0  0  0  0  0  0  0  0  0
   34.8600   29.3520   40.7110 H   0  0  0  0  0  0  0  0  0  0  0  0
   37.0290   31.4130   41.6390 H   0  0  0  0  0  0  0  0  0  0  0  0
   35.4080   31.8410   40.9110 H   0  0  0  0  0  0  0  0  0  0  0  0
   35.8300   30.5630   38.8370 H   0  0  0  0  0  0  0  0  0  0  0  0
   38.1330   28.4360   43.4870 C   0  0  0  0  0  0  0  0  0  0  0  0
   38.2360   27.0590   43.2070 C   0  0  0  0  0  0  0  0  0  0  0  0
   37.5250   26.5820   42.0890 C   0  0  0  0  0  0  0  0  0  0  0  0
   36.7700   27.4660   41.3280 N   0  0  0  0  0  0  0  0  0  0  0  0
   36.7280   28.7570   41.6660 C   0  0  0  0  0  0  0  0  0  0  0  0
   37.3970   29.2490   42.7300 N   0  0  0  0  0  0  0  0  0  0  0  0
   38.6700   28.8300   44.3420 H   0  0  0  0  0  0  0  0  0  0  0  0
   38.8260   26.3750   43.8020 H   0  0  0  0  0  0  0  0  0  0  0  0
   37.5540   25.5320   41.8070 H   0  0  0  0  0  0  0  0  0  0  0  0
  1  2  1  6  0  0  0
  1 26  1  0  0  0  0
  2  8  1  0  0  0  0
  3  4  1  0  0  0  0
  3  2  1  0  0  0  0
  3 10  1  0  0  0  0
  5  4  1  0  0  0  0
  5  6  1  0  0  0  0
  6 13  1  6  0  0  0
  6  1  1  0  0  0  0
  6 14  1  0  0  0  0
  7  2  1  0  0  0  0
  9  3  1  0  0  0  0
 11  5  1  0  0  0  0
 12  5  1  0  0  0  0
 14 20  1  0  0  0  0
 14 15  1  0  0  0  0
 15 16  2  0  0  0  0
 16 17  1  0  0  0  0
 17 18  1  0  0  0  0
 18 22  1  0  0  0  0
 19 17  2  0  0  0  0
 20 19  1  0  0  0  0
 21 20  2  0  0  0  0
 23 18  1  0  0  0  0
 24 27  1  6  0  0  0
 24 25  1  0  0  0  0
 24 35  1  0  0  0  0
 25 29  1  0  0  0  0
 25 28  1  0  0  0  0
 26 30  1  6  0  0  0
 26 24  1  0  0  0  0
 26 25  1  0  0  0  0
 31 37  1  0  0  0  0
 32 31  1  0  0  0  0
 32 38  1  0  0  0  0
 33 32  2  0  0  0  0
 34 35  2  0  0  0  0
 34 33  1  0  0  0  0
 35 36  1  0  0  0  0
 36 31  2  0  0  0  0
 39 33  1  0  0  0  0
M  END
>  <minimizedAffinity>
-5.27952909

>  <minimizedRMSD>
1.75260568

$$$$
