
 OpenBabel03242509253D

 49 53  0  0  0  0  0  0  0  0999 V2000
   38.7310   28.1660   42.7520 C   0  0  0  0  0  0  0  0  0  0  0  0
   37.6270   27.3790   42.9450 C   0  0  0  0  0  0  0  0  0  0  0  0
   36.5490   28.0480   42.3650 C   0  0  0  0  0  0  0  0  0  0  0  0
   37.0860   29.1760   41.8710 N   0  0  0  0  0  0  0  0  0  0  0  0
   38.3590   29.2750   42.0800 N   0  0  0  0  0  0  0  0  0  0  0  0
   37.6110   26.4140   43.4590 H   0  0  0  0  0  0  0  0  0  0  0  0
   35.5570   27.6340   42.3820 H   0  0  0  0  0  0  0  0  0  0  0  0
   41.6660   26.5300   44.3570 C   0  0  0  0  0  0  0  0  0  0  0  0
   40.3400   26.7510   43.9710 C   0  0  0  0  0  0  0  0  0  0  0  0
   40.0820   27.8830   43.1820 C   0  0  0  0  0  0  0  0  0  0  0  0
   41.1040   28.7090   42.8300 N   0  0  0  0  0  0  0  0  0  0  0  0
   42.3790   28.4330   43.2440 C   0  0  0  0  0  0  0  0  0  0  0  0
   42.6480   27.3590   43.9960 N   0  0  0  0  0  0  0  0  0  0  0  0
   41.7550   25.6340   44.9590 H   0  0  0  0  0  0  0  0  0  0  0  0
   39.5010   26.1400   44.2160 H   0  0  0  0  0  0  0  0  0  0  0  0
   43.4650   29.2820   42.8870 N   0  0  0  0  0  0  0  0  0  0  0  0
   44.0140   29.1430   41.6540 C   0  0  0  0  0  3  0  0  0  0  0  0
   45.0690   29.9480   41.2730 C   0  0  0  0  0  3  0  0  0  0  0  0
   45.5340   30.8840   42.1840 C   0  0  0  0  0  0  0  0  0  0  0  0
   46.6240   31.6930   41.7500 N   0  0  0  0  0  0  0  0  0  0  0  0
   44.9700   30.9960   43.3950 N   0  0  0  0  0  0  0  0  0  0  0  0
   43.9350   30.1880   43.7360 C   0  0  0  0  0  0  0  0  0  0  0  0
   43.4490   30.3330   44.8680 O   0  0  0  0  0  0  0  0  0  0  0  0
   46.7900   32.4570   41.0320 H   0  0  0  0  0  0  0  0  0  0  0  0
   47.4150   31.3590   42.3730 H   0  0  0  0  0  0  0  0  0  0  0  0
   36.2500   30.1080   41.2040 C   0  0  0  0  0  0  0  0  0  0  0  0
   36.8690   30.8880   40.6950 H   0  0  0  0  0  0  0  0  0  0  0  0
   35.6920   30.6630   41.9910 H   0  0  0  0  0  0  0  0  0  0  0  0
   35.3470   29.5370   40.1560 C   0  0  0  0  0  0  0  0  0  0  0  0
   34.8760   28.6390   40.5290 H   0  0  0  0  0  0  0  0  0  0  0  0
   34.6390   30.4250   40.0360 H   0  0  0  0  0  0  0  0  0  0  0  0
   35.9540   29.4380   38.8040 C   0  0  0  0  0  0  0  0  0  0  0  0
   37.2700   29.5710   38.4720 C   0  0  0  0  0  0  0  0  0  0  0  0
   37.7800   29.5480   37.2080 C   0  0  0  0  0  0  0  0  0  0  0  0
   36.9240   29.3780   36.1380 C   0  0  0  0  0  0  0  0  0  0  0  0
   35.5690   29.2370   36.4080 C   0  0  0  0  0  0  0  0  0  0  0  0
   34.7790   29.0750   35.3020 C   0  0  0  0  0  0  0  0  0  0  0  0
   33.4270   28.9210   35.4640 C   0  0  0  0  0  0  0  0  0  0  0  0
   32.8940   28.9320   36.7350 C   0  0  0  0  0  0  0  0  0  0  0  0
   33.7440   29.0990   37.7930 C   0  0  0  0  0  0  0  0  0  0  0  0
   35.0890   29.2620   37.7080 C   0  0  0  0  0  0  0  0  0  0  0  0
   37.9520   29.7050   39.3050 H   0  0  0  0  0  0  0  0  0  0  0  0
   38.8470   29.6630   37.0790 H   0  0  0  0  0  0  0  0  0  0  0  0
   37.3270   29.3620   35.1400 H   0  0  0  0  0  0  0  0  0  0  0  0
   35.1770   29.0600   34.2880 H   0  0  0  0  0  0  0  0  0  0  0  0
   32.7630   28.7930   34.6190 H   0  0  0  0  0  0  0  0  0  0  0  0
   31.8280   28.8100   36.8630 H   0  0  0  0  0  0  0  0  0  0  0  0
   33.1500   29.0810   39.0470 O   0  0  0  0  0  0  0  0  0  0  0  0
   32.2460   28.6860   39.2520 H   0  0  0  0  0  0  0  0  0  0  0  0
  1  2  1  0  0  0  0
  1 10  1  0  0  0  0
  2  6  1  0  0  0  0
  3  7  1  0  0  0  0
  3  2  2  0  0  0  0
  4  5  1  0  0  0  0
  4  3  1  0  0  0  0
  5  1  2  0  0  0  0
  8 14  1  0  0  0  0
  9 15  1  0  0  0  0
  9  8  2  0  0  0  0
 10  9  1  0  0  0  0
 11 10  2  0  0  0  0
 11 12  1  0  0  0  0
 12 13  2  0  0  0  0
 13  8  1  0  0  0  0
 16 12  1  0  0  0  0
 16 22  1  0  0  0  0
 17 16  1  0  0  0  0
 18 17  2  0  0  0  0
 18 19  1  0  0  0  0
 19 21  2  0  0  0  0
 20 19  1  0  0  0  0
 20 25  1  0  0  0  0
 21 22  1  0  0  0  0
 22 23  2  0  0  0  0
 24 20  1  0  0  0  0
 26  4  1  0  0  0  0
 26 28  1  0  0  0  0
 27 26  1  0  0  0  0
 29 30  1  0  0  0  0
 29 26  1  0  0  0  0
 31 29  1  0  0  0  0
 32 29  1  0  0  0  0
 33 32  1  0  0  0  0
 33 42  1  0  0  0  0
 34 33  2  0  0  0  0
 35 36  2  0  0  0  0
 35 34  1  0  0  0  0
 36 41  1  0  0  0  0
 37 38  2  0  0  0  0
 37 36  1  0  0  0  0
 38 39  1  0  0  0  0
 39 47  1  0  0  0  0
 39 40  2  0  0  0  0
 40 48  1  0  0  0  0
 41 40  1  0  0  0  0
 41 32  2  0  0  0  0
 43 34  1  0  0  0  0
 44 35  1  0  0  0  0
 45 37  1  0  0  0  0
 46 38  1  0  0  0  0
 48 49  1  0  0  0  0
M  END
>  <minimizedAffinity>
-6.29886055

>  <minimizedRMSD>
0.188391328

$$$$
