REMARK  Name = 
REMARK  5 active torsions:
REMARK  status: ('A' for Active; 'I' for Inactive)
REMARK    1  A    between atoms: C_1  and  C_2
REMARK    2  A    between atoms: C_1  and  C_13
REMARK    3  A    between atoms: C_10  and  O_12
REMARK    4  A    between atoms: C_13  and  N_17
REMARK    5  A    between atoms: C_14  and  C_21
REMARK                            x       y       z     vdW  Elec       q    Type
REMARK                         _______ _______ _______ _____ _____    ______ ____
ROOT
ATOM      1  C   UNL     1      38.652  28.161  42.718  0.00  0.00    +0.000 A 
ATOM      2  C   UNL     1      37.562  27.346  42.866  0.00  0.00    +0.000 A 
ATOM      3  C   UNL     1      36.486  28.001  42.266  0.00  0.00    +0.000 A 
ATOM      4  N   UNL     1      37.010  29.149  41.807  0.00  0.00    +0.000 N 
ATOM      5  N   UNL     1      38.274  29.273  42.055  0.00  0.00    +0.000 NA
ATOM      6  H   UNL     1      37.553  26.372  43.363  0.00  0.00    +0.000 HD
ATOM      7  H   UNL     1      35.503  27.564  42.247  0.00  0.00    +0.000 HD
ENDROOT
BRANCH   1  10
ATOM      8  C   UNL     1      41.581  26.555  44.364  0.00  0.00    +0.000 A 
ATOM      9  C   UNL     1      40.262  26.752  43.942  0.00  0.00    +0.000 A 
ATOM     10  C   UNL     1      39.997  27.902  43.183  0.00  0.00    +0.000 A 
ATOM     11  N   UNL     1      41.005  28.767  42.891  0.00  0.00    +0.000 NA
ATOM     12  C   UNL     1      42.274  28.513  43.337  0.00  0.00    +0.000 A 
ATOM     13  N   UNL     1      42.550  27.422  44.062  0.00  0.00    +0.000 NA
ATOM     14  H   UNL     1      41.676  25.642  44.939  0.00  0.00    +0.000 HD
ATOM     15  H   UNL     1      39.433  26.110  44.140  0.00  0.00    +0.000 HD
ATOM     16  N   UNL     1      43.346  29.403  43.044  0.00  0.00    +0.000 N 
ATOM     17  C   UNL     1      43.937  29.320  41.825  0.00  0.00    +0.000 A 
ATOM     18  C   UNL     1      44.980  30.166  41.505  0.00  0.00    +0.000 A 
ATOM     19  C   UNL     1      45.389  31.084  42.461  0.00  0.00    +0.000 A 
ATOM     20  N   UNL     1      46.468  31.937  42.089  0.00  0.00    +0.000 N 
ATOM     21  N   UNL     1      44.784  31.140  43.656  0.00  0.00    +0.000 NA
ATOM     22  C   UNL     1      43.762  30.293  43.936  0.00  0.00    +0.000 A 
ATOM     23  O   UNL     1      43.237  30.386  45.056  0.00  0.00    +0.000 OA
ATOM     24  H   UNL     1      46.635  32.729  41.402  0.00  0.00    +0.000 HD
ATOM     25  H   UNL     1      47.249  31.604  42.726  0.00  0.00    +0.000 HD
ENDBRANCH   1  10
BRANCH   4  26
ATOM     26  C   UNL     1      36.172  30.073  41.132  0.00  0.00    +0.000 C 
ATOM     27  H   UNL     1      36.789  30.858  40.627  0.00  0.00    +0.000 HD
ATOM     28  H   UNL     1      35.603  30.624  41.913  0.00  0.00    +0.000 HD
BRANCH  26  29
ATOM     29  C   UNL     1      35.283  29.494  40.077  0.00  0.00    +0.000 C 
ATOM     30  H   UNL     1      34.832  28.582  40.439  0.00  0.00    +0.000 HD
ATOM     31  H   UNL     1      34.556  30.367  39.965  0.00  0.00    +0.000 HD
BRANCH  29  32
ATOM     32  C   UNL     1      35.894  29.423  38.724  0.00  0.00    +0.000 A 
ATOM     33  C   UNL     1      37.208  29.581  38.396  0.00  0.00    +0.000 A 
ATOM     34  C   UNL     1      37.720  29.583  37.133  0.00  0.00    +0.000 A 
ATOM     35  C   UNL     1      36.868  29.414  36.059  0.00  0.00    +0.000 A 
ATOM     36  C   UNL     1      35.515  29.247  36.325  0.00  0.00    +0.000 A 
ATOM     37  C   UNL     1      34.730  29.087  35.216  0.00  0.00    +0.000 A 
ATOM     38  C   UNL     1      33.380  28.910  35.374  0.00  0.00    +0.000 A 
ATOM     39  C   UNL     1      32.845  28.895  36.644  0.00  0.00    +0.000 A 
ATOM     40  C   UNL     1      33.691  29.061  37.705  0.00  0.00    +0.000 A 
ATOM     41  C   UNL     1      35.033  29.247  37.625  0.00  0.00    +0.000 A 
ATOM     42  H   UNL     1      37.886  29.715  39.232  0.00  0.00    +0.000 HD
ATOM     43  H   UNL     1      38.785  29.717  37.007  0.00  0.00    +0.000 HD
ATOM     44  H   UNL     1      37.273  29.418  35.062  0.00  0.00    +0.000 HD
ATOM     45  H   UNL     1      35.129  29.092  34.202  0.00  0.00    +0.000 HD
ATOM     46  H   UNL     1      32.719  28.782  34.526  0.00  0.00    +0.000 HD
ATOM     47  H   UNL     1      31.781  28.754  36.768  0.00  0.00    +0.000 HD
BRANCH  40  48
ATOM     48  O   UNL     1      33.095  29.017  38.958  0.00  0.00    +0.000 OA
ATOM     49  H   UNL     1      32.198  28.605  39.156  0.00  0.00    +0.000 HD
ENDBRANCH  40  48
ENDBRANCH  29  32
ENDBRANCH  26  29
ENDBRANCH   4  26
TORSDOF 5
