
 OpenBabel03242509253D

 49 53  0  0  0  0  0  0  0  0999 V2000
   38.7100   28.1690   42.7600 C   0  0  0  0  0  0  0  0  0  0  0  0
   37.6140   27.3660   42.9270 C   0  0  0  0  0  0  0  0  0  0  0  0
   36.5380   28.0260   42.3320 C   0  0  0  0  0  0  0  0  0  0  0  0
   37.0690   29.1650   41.8570 N   0  0  0  0  0  0  0  0  0  0  0  0
   38.3360   29.2780   42.0910 N   0  0  0  0  0  0  0  0  0  0  0  0
   37.6000   26.3960   43.4320 H   0  0  0  0  0  0  0  0  0  0  0  0
   35.5510   27.5990   42.3260 H   0  0  0  0  0  0  0  0  0  0  0  0
   41.6530   26.5140   44.3320 C   0  0  0  0  0  0  0  0  0  0  0  0
   40.3320   26.7180   43.9180 C   0  0  0  0  0  0  0  0  0  0  0  0
   40.0570   27.9000   43.2140 C   0  0  0  0  0  0  0  0  0  0  0  0
   41.0570   28.7880   42.9650 N   0  0  0  0  0  0  0  0  0  0  0  0
   42.3280   28.5250   43.4000 C   0  0  0  0  0  0  0  0  0  0  0  0
   42.6140   27.4030   44.0730 N   0  0  0  0  0  0  0  0  0  0  0  0
   41.7560   25.5760   44.8640 H   0  0  0  0  0  0  0  0  0  0  0  0
   39.5090   26.0600   44.0850 H   0  0  0  0  0  0  0  0  0  0  0  0
   43.3920   29.4370   43.1510 N   0  0  0  0  0  0  0  0  0  0  0  0
   43.7780   29.6410   41.8660 C   0  0  0  0  0  3  0  0  0  0  0  0
   44.8060   30.5190   41.5850 C   0  0  0  0  0  3  0  0  0  0  0  0
   45.4140   31.1680   42.6490 C   0  0  0  0  0  0  0  0  0  0  0  0
   46.4710   32.0650   42.3140 N   0  0  0  0  0  0  0  0  0  0  0  0
   45.0090   30.9440   43.9070 N   0  0  0  0  0  0  0  0  0  0  0  0
   43.9960   30.0750   44.1450 C   0  0  0  0  0  0  0  0  0  0  0  0
   43.6600   29.9030   45.3270 O   0  0  0  0  0  0  0  0  0  0  0  0
   46.5730   32.9960   41.8160 H   0  0  0  0  0  0  0  0  0  0  0  0
   47.3210   31.5700   42.7140 H   0  0  0  0  0  0  0  0  0  0  0  0
   36.2330   30.0910   41.1820 C   0  0  0  0  0  0  0  0  0  0  0  0
   36.8520   30.8690   40.6690 H   0  0  0  0  0  0  0  0  0  0  0  0
   35.6730   30.6500   41.9640 H   0  0  0  0  0  0  0  0  0  0  0  0
   35.3330   29.5120   40.1360 C   0  0  0  0  0  0  0  0  0  0  0  0
   34.8700   28.6110   40.5100 H   0  0  0  0  0  0  0  0  0  0  0  0
   34.6190   30.3950   40.0150 H   0  0  0  0  0  0  0  0  0  0  0  0
   35.9410   29.4160   38.7830 C   0  0  0  0  0  0  0  0  0  0  0  0
   37.2570   29.5410   38.4520 C   0  0  0  0  0  0  0  0  0  0  0  0
   37.7670   29.5210   37.1880 C   0  0  0  0  0  0  0  0  0  0  0  0
   36.9100   29.3630   36.1160 C   0  0  0  0  0  0  0  0  0  0  0  0
   35.5540   29.2300   36.3860 C   0  0  0  0  0  0  0  0  0  0  0  0
   34.7640   29.0800   35.2790 C   0  0  0  0  0  0  0  0  0  0  0  0
   33.4100   28.9360   35.4400 C   0  0  0  0  0  0  0  0  0  0  0  0
   32.8770   28.9440   36.7110 C   0  0  0  0  0  0  0  0  0  0  0  0
   33.7280   29.0980   37.7690 C   0  0  0  0  0  0  0  0  0  0  0  0
   35.0740   29.2520   37.6860 C   0  0  0  0  0  0  0  0  0  0  0  0
   37.9400   29.6650   39.2860 H   0  0  0  0  0  0  0  0  0  0  0  0
   38.8350   29.6280   37.0590 H   0  0  0  0  0  0  0  0  0  0  0  0
   37.3140   29.3500   35.1190 H   0  0  0  0  0  0  0  0  0  0  0  0
   35.1610   29.0680   34.2640 H   0  0  0  0  0  0  0  0  0  0  0  0
   32.7450   28.8170   34.5940 H   0  0  0  0  0  0  0  0  0  0  0  0
   31.8100   28.8290   36.8370 H   0  0  0  0  0  0  0  0  0  0  0  0
   33.1330   29.0780   39.0240 O   0  0  0  0  0  0  0  0  0  0  0  0
   32.2270   28.6890   39.2260 H   0  0  0  0  0  0  0  0  0  0  0  0
  1  2  1  0  0  0  0
  1 10  1  0  0  0  0
  2  6  1  0  0  0  0
  3  2  2  0  0  0  0
  4  5  1  0  0  0  0
  4  3  1  0  0  0  0
  5  1  2  0  0  0  0
  7  3  1  0  0  0  0
  8 14  1  0  0  0  0
  9 15  1  0  0  0  0
  9  8  2  0  0  0  0
 10  9  1  0  0  0  0
 11 10  2  0  0  0  0
 11 12  1  0  0  0  0
 12 13  2  0  0  0  0
 13  8  1  0  0  0  0
 16 12  1  0  0  0  0
 16 22  1  0  0  0  0
 17 16  1  0  0  0  0
 18 17  2  0  0  0  0
 18 19  1  0  0  0  0
 19 21  2  0  0  0  0
 20 19  1  0  0  0  0
 20 25  1  0  0  0  0
 21 22  1  0  0  0  0
 22 23  2  0  0  0  0
 24 20  1  0  0  0  0
 26  4  1  0  0  0  0
 26 28  1  0  0  0  0
 27 26  1  0  0  0  0
 29 30  1  0  0  0  0
 29 26  1  0  0  0  0
 31 29  1  0  0  0  0
 32 29  1  0  0  0  0
 33 32  1  0  0  0  0
 33 42  1  0  0  0  0
 34 33  2  0  0  0  0
 35 36  2  0  0  0  0
 35 34  1  0  0  0  0
 36 41  1  0  0  0  0
 37 38  2  0  0  0  0
 37 36  1  0  0  0  0
 38 39  1  0  0  0  0
 39 47  1  0  0  0  0
 39 40  2  0  0  0  0
 40 48  1  0  0  0  0
 41 40  1  0  0  0  0
 41 32  2  0  0  0  0
 43 34  1  0  0  0  0
 44 35  1  0  0  0  0
 45 37  1  0  0  0  0
 46 38  1  0  0  0  0
 48 49  1  0  0  0  0
M  END
>  <minimizedAffinity>
-6.38966417

>  <minimizedRMSD>
0.115435898

$$$$
