
 OpenBabel03242509193D

 26 29  0  0  0  0  0  0  0  0999 V2000
   40.2720   27.0890   43.3800 C   0  0  0  0  0  0  0  0  0  0  0  0
   40.4630   25.7430   43.4260 C   0  0  0  0  0  0  0  0  0  0  0  0
   41.7670   25.5370   43.8600 C   0  0  0  0  0  0  0  0  0  0  0  0
   42.2790   26.7740   44.0470 N   0  0  0  0  0  0  0  0  0  0  0  0
   41.4040   27.6850   43.7670 N   0  0  0  0  0  0  0  0  0  0  0  0
   39.7520   24.9430   43.1770 H   0  0  0  0  0  0  0  0  0  0  0  0
   42.2460   24.5670   44.0080 H   0  0  0  0  0  0  0  0  0  0  0  0
   45.8020   27.9310   48.3150 H   0  0  0  0  0  0  0  0  0  0  0  0
   45.0110   27.7200   47.6700 N   0  0  0  0  0  0  0  0  0  0  0  0
   43.6970   27.5830   47.9550 C   0  0  0  0  0  0  0  0  0  0  0  0
   42.9790   27.3100   46.8530 N   0  0  0  0  0  0  0  0  0  0  0  0
   43.8790   27.2740   45.8260 C   0  0  0  0  0  0  0  0  0  0  0  0
   43.6070   27.0280   44.4960 C   0  0  0  0  0  0  0  0  0  0  0  0
   44.6750   27.0470   43.6740 N   0  0  0  0  0  0  0  0  0  0  0  0
   45.9330   27.2930   44.1260 C   0  0  0  0  0  0  0  0  0  0  0  0
   46.1280   27.5250   45.4390 N   0  0  0  0  0  0  0  0  0  0  0  0
   45.1230   27.5270   46.3400 C   0  0  0  0  0  0  0  0  0  0  0  0
   36.7050   27.8150   42.5320 C   0  0  0  0  0  0  0  0  0  0  0  0
   37.8440   27.0960   42.9230 C   0  0  0  0  0  0  0  0  0  0  0  0
   39.0590   27.7760   42.9820 C   0  0  0  0  0  0  0  0  0  0  0  0
   39.0860   29.1000   42.6590 N   0  0  0  0  0  0  0  0  0  0  0  0
   37.9580   29.7540   42.2860 C   0  0  0  0  0  0  0  0  0  0  0  0
   36.7740   29.1130   42.2230 N   0  0  0  0  0  0  0  0  0  0  0  0
   35.7380   27.3390   42.4680 H   0  0  0  0  0  0  0  0  0  0  0  0
   37.7770   26.0340   43.1730 H   0  0  0  0  0  0  0  0  0  0  0  0
   38.1930   30.8020   42.0710 H   0  0  0  0  0  0  0  0  0  0  0  0
  1  2  1  0  0  0  0
  1  5  2  0  0  0  0
  2  3  2  0  0  0  0
  3  7  1  0  0  0  0
  3  4  1  0  0  0  0
  4 13  1  0  0  0  0
  5  4  1  0  0  0  0
  6  2  1  0  0  0  0
  9 10  1  0  0  0  0
  9  8  1  0  0  0  0
 11 10  2  0  0  0  0
 12 17  1  0  0  0  0
 12 11  1  0  0  0  0
 13 12  2  0  0  0  0
 14 15  2  0  0  0  0
 14 13  1  0  0  0  0
 15 16  1  0  0  0  0
 16 17  2  0  0  0  0
 17  9  1  0  0  0  0
 18 19  1  0  0  0  0
 19 20  2  0  0  0  0
 19 25  1  0  0  0  0
 20  1  1  0  0  0  0
 21 20  1  0  0  0  0
 22 21  2  0  0  0  0
 23 22  1  0  0  0  0
 23 18  2  0  0  0  0
 24 18  1  0  0  0  0
 26 22  1  0  0  0  0
M  END
>  <minimizedAffinity>
-4.46683884

>  <minimizedRMSD>
4.94403791

$$$$
