
 OpenBabel03242509083D

 40 44  0  0  1  0  0  0  0  0999 V2000
   35.1870   29.3380   40.4650 C   0  0  0  0  0  0  0  0  0  0  0  0
   35.9830   28.5010   41.2720 C   0  0  0  0  0  0  0  0  0  0  0  0
   37.3440   28.7640   41.3790 C   0  0  0  0  0  0  0  0  0  0  0  0
   37.8010   29.8320   40.6820 N   0  0  0  0  0  0  0  0  0  0  0  0
   37.0420   30.6230   39.9170 C   0  0  0  0  0  0  0  0  0  0  0  0
   35.7190   30.3810   39.8030 N   0  0  0  0  0  0  0  0  0  0  0  0
   34.1310   29.0680   40.4320 H   0  0  0  0  0  0  0  0  0  0  0  0
   35.5710   27.6710   41.8040 H   0  0  0  0  0  0  0  0  0  0  0  0
   38.1700   27.9030   42.1950 C   0  0  0  0  0  0  0  0  0  0  0  0
   38.9690   28.2600   43.2580 C   0  0  0  0  0  0  0  0  0  0  0  0
   39.5710   27.1310   43.7330 N   0  0  0  0  0  0  0  0  0  0  0  0
   39.1990   26.0600   43.0270 C   0  0  0  0  0  0  0  0  0  0  0  0
   39.5000   24.7090   43.0770 C   0  0  0  0  0  0  0  0  0  0  0  0
   38.9440   23.7970   42.1800 C   0  0  0  0  0  0  0  0  0  0  0  0
   38.0830   24.2980   41.2420 C   0  0  0  0  0  0  0  0  0  0  0  0
   37.7740   25.6260   41.1750 C   0  0  0  0  0  0  0  0  0  0  0  0
   38.3280   26.5350   42.0700 C   0  0  0  0  0  0  0  0  0  0  0  0
   39.0550   29.2880   43.6020 H   0  0  0  0  0  0  0  0  0  0  0  0
   40.2400   27.1450   44.5570 H   0  0  0  0  0  0  0  0  0  0  0  0
   40.1980   24.4350   43.8700 H   0  0  0  0  0  0  0  0  0  0  0  0
   39.2830   22.7940   42.3590 H   0  0  0  0  0  0  0  0  0  0  0  0
   37.6780   23.5510   40.5680 H   0  0  0  0  0  0  0  0  0  0  0  0
   37.0760   25.9740   40.4010 H   0  0  0  0  0  0  0  0  0  0  0  0
   37.6560   31.7910   39.1940 C   0  0  1  0  0  0  0  0  0  0  0  0
   37.3870   33.1820   39.7670 C   0  0  0  0  0  0  0  0  0  0  0  0
   38.7320   32.5420   39.8410 C   0  0  2  0  0  0  0  0  0  0  0  0
   37.3540   31.7740   38.1400 H   0  0  0  0  0  0  0  0  0  0  0  0
   37.2870   34.0450   39.0780 H   0  0  0  0  0  0  0  0  0  0  0  0
   36.7180   33.2700   40.6440 H   0  0  0  0  0  0  0  0  0  0  0  0
   38.9740   32.1930   40.8700 H   0  0  0  0  0  0  0  0  0  0  0  0
   39.8710   33.0900   39.1710 N   0  0  0  0  0  0  0  0  0  0  0  0
   40.3400   32.4390   38.0850 C   0  0  0  0  0  0  0  0  0  0  0  0
   41.4340   32.8930   37.3740 C   0  0  0  0  0  0  0  0  0  0  0  0
   42.1010   34.0450   37.7480 C   0  0  0  0  0  0  0  0  0  0  0  0
   43.2010   34.4200   36.9590 N   0  0  0  0  0  0  0  0  0  0  0  0
   41.6080   34.6690   38.8340 N   0  0  0  0  0  0  0  0  0  0  0  0
   40.5410   34.2070   39.5100 C   0  0  0  0  0  0  0  0  0  0  0  0
   40.1240   34.8310   40.5170 O   0  0  0  0  0  0  0  0  0  0  0  0
   43.0140   34.6370   35.9600 H   0  0  0  0  0  0  0  0  0  0  0  0
   44.2120   34.5160   37.2440 H   0  0  0  0  0  0  0  0  0  0  0  0
  1  2  1  0  0  0  0
  2  3  2  0  0  0  0
  2  8  1  0  0  0  0
  3  9  1  0  0  0  0
  4  3  1  0  0  0  0
  5  4  2  0  0  0  0
  6  5  1  0  0  0  0
  6  1  2  0  0  0  0
  7  1  1  0  0  0  0
  9 10  2  0  0  0  0
 10 18  1  0  0  0  0
 10 11  1  0  0  0  0
 11 19  1  0  0  0  0
 12 13  1  0  0  0  0
 12 11  1  0  0  0  0
 13 20  1  0  0  0  0
 14 21  1  0  0  0  0
 14 13  2  0  0  0  0
 15 14  1  0  0  0  0
 16 15  2  0  0  0  0
 16 17  1  0  0  0  0
 17  9  1  0  0  0  0
 17 12  2  0  0  0  0
 22 15  1  0  0  0  0
 23 16  1  0  0  0  0
 24 27  1  6  0  0  0
 24 25  1  0  0  0  0
 24 26  1  0  0  0  0
 24  5  1  0  0  0  0
 25 26  1  0  0  0  0
 25 29  1  0  0  0  0
 26 30  1  1  0  0  0
 28 25  1  0  0  0  0
 31 37  1  0  0  0  0
 31 26  1  0  0  0  0
 32 31  1  0  0  0  0
 33 34  1  0  0  0  0
 33 32  2  0  0  0  0
 34 36  2  0  0  0  0
 35 40  1  0  0  0  0
 35 34  1  0  0  0  0
 36 37  1  0  0  0  0
 37 38  2  0  0  0  0
 39 35  1  0  0  0  0
M  END
>  <minimizedAffinity>
-7.24554348

>  <minimizedRMSD>
1.82142735

$$$$
