
     RDKit          3D

 20 21  0  0  0  0  0  0  0  0999 V2000
   37.9757   28.8859   43.3670 C   0  0  0  0  0  0  0  0  0  0  0  0
   38.0895   27.4607   43.3100 C   0  0  0  0  0  0  0  0  0  0  0  0
   37.4379   26.8181   42.2624 C   0  0  0  0  0  0  0  0  0  0  0  0
   36.7254   27.5758   41.3447 N   0  0  0  0  0  0  0  0  0  0  0  0
   36.6545   28.9191   41.4512 C   0  0  0  0  0  0  0  0  0  0  0  0
   37.2691   29.5568   42.4443 N   0  0  0  0  0  0  0  0  0  0  0  0
   37.5268   25.3318   42.1597 C   0  0  0  0  0  0  0  0  0  0  0  0
   37.6625   25.0574   40.8062 F   0  0  0  0  0  0  0  0  0  0  0  0
   38.6303   24.8379   42.7952 F   0  0  0  0  0  0  0  0  0  0  0  0
   36.3743   24.7115   42.6323 F   0  0  0  0  0  0  0  0  0  0  0  0
   38.4622   29.4429   44.1612 H   0  0  0  0  0  0  0  0  0  0  0  0
   38.6598   26.9518   44.0597 H   0  0  0  0  0  0  0  0  0  0  0  0
   35.8672   29.4495   40.3894 N   0  0  0  0  0  0  0  0  0  0  0  0
   34.5480   29.3793   40.1330 C   0  0  0  0  0  0  0  0  0  0  0  0
   34.3737   30.0972   38.9442 C   0  0  0  0  0  0  0  0  0  0  0  0
   35.5937   30.5623   38.5463 N   0  0  0  0  0  0  0  0  0  0  0  0
   36.5107   30.1471   39.4614 C   0  0  0  0  0  0  0  0  0  0  0  0
   33.8518   28.8681   40.7503 H   0  0  0  0  0  0  0  0  0  0  0  0
   33.4099   30.2371   38.4534 H   0  0  0  0  0  0  0  0  0  0  0  0
   37.5389   30.4355   39.2903 H   0  0  0  0  0  0  0  0  0  0  0  0
  2  1  2  0
  3  2  1  0
  4  5  1  0
  4  3  2  0
  5  6  2  0
  6  1  1  0
  7  3  1  0
  7 10  1  0
  7  9  1  0
  8  7  1  0
  1 11  1  0
  2 12  1  0
 13 14  1  0
 14 15  2  0
 15 16  1  0
 16 17  2  0
 17 13  1  0
 14 18  1  0
 15 19  1  0
 17 20  1  0
  5 13  1  0
M  ISO  2  11  14  12  14
M  END
>  <DihAtoms>  (1) 
3,4,12,13

>  <DihDeg>  (1) 
-50.15345707497034

$$$$
