
 OpenBabel03242508193D

 27 30  0  0  0  0  0  0  0  0999 V2000
   38.6940   27.3320   43.8230 C   0  0  0  0  0  0  0  0  0  0  0  0
   39.1640   26.3680   42.9060 C   0  0  0  0  0  0  0  0  0  0  0  0
   39.1310   26.6880   41.5470 C   0  0  0  0  0  0  0  0  0  0  0  0
   38.6480   27.9090   41.1890 N   0  0  0  0  0  0  0  0  0  0  0  0
   38.2050   28.8080   42.0920 C   0  0  0  0  0  0  0  0  0  0  0  0
   38.2270   28.5220   43.4190 N   0  0  0  0  0  0  0  0  0  0  0  0
   37.7510   30.0060   41.4590 N   0  0  0  0  0  0  0  0  0  0  0  0
   36.4470   30.1610   41.0990 C   0  0  0  0  0  0  0  0  0  0  0  0
   36.2730   31.3690   40.5240 N   0  0  0  0  0  0  0  0  0  0  0  0
   37.4690   31.9830   40.5170 C   0  0  0  0  0  0  0  0  0  0  0  0
   37.9260   33.2220   40.0700 C   0  0  0  0  0  0  0  0  0  0  0  0
   39.2300   33.5250   40.2270 N   0  0  0  0  0  0  0  0  0  0  0  0
   40.0930   32.6790   40.7960 C   0  0  0  0  0  0  0  0  0  0  0  0
   39.6680   31.4590   41.2420 N   0  0  0  0  0  0  0  0  0  0  0  0
   38.3700   31.1300   41.0970 C   0  0  0  0  0  0  0  0  0  0  0  0
   36.9400   34.0460   39.4830 N   0  0  0  0  0  0  0  0  0  0  0  0
   38.6760   27.1810   44.8970 H   0  0  0  0  0  0  0  0  0  0  0  0
   39.5200   25.4420   43.3240 H   0  0  0  0  0  0  0  0  0  0  0  0
   39.4880   25.9550   40.8630 H   0  0  0  0  0  0  0  0  0  0  0  0
   35.6300   29.4730   41.2220 H   0  0  0  0  0  0  0  0  0  0  0  0
   37.0600   35.0860   39.6660 H   0  0  0  0  0  0  0  0  0  0  0  0
   36.1650   33.6490   38.9200 H   0  0  0  0  0  0  0  0  0  0  0  0
   41.4650   33.0250   40.9490 N   0  0  0  0  0  0  0  0  0  0  0  0
   42.0790   34.1050   40.4310 C   0  0  0  0  0  0  0  0  0  0  0  0
   43.4080   34.0320   40.8400 C   0  0  0  0  0  0  0  0  0  0  0  0
   43.5430   32.9300   41.5760 N   0  0  0  0  0  0  0  0  0  0  0  0
   42.3670   32.3120   41.6480 C   0  0  0  0  0  0  0  0  0  0  0  0
  1 17  1  0  0  0  0
  2 18  1  0  0  0  0
  2  1  2  0  0  0  0
  3  2  1  0  0  0  0
  4  3  2  0  0  0  0
  4  5  1  0  0  0  0
  5  6  2  0  0  0  0
  6  1  1  0  0  0  0
  7  5  1  0  0  0  0
  8 20  1  0  0  0  0
  8  7  1  0  0  0  0
  9  8  2  0  0  0  0
 10  9  1  0  0  0  0
 10 15  1  0  0  0  0
 11 12  1  0  0  0  0
 11 10  2  0  0  0  0
 12 13  2  0  0  0  0
 13 23  1  0  0  0  0
 13 14  1  0  0  0  0
 15 14  2  0  0  0  0
 15  7  1  0  0  0  0
 16 21  1  0  0  0  0
 16 11  1  0  0  0  0
 19  3  1  0  0  0  0
 22 16  1  0  0  0  0
 23 27  1  0  0  0  0
 24 25  2  0  0  0  0
 24 23  1  0  0  0  0
 25 26  1  0  0  0  0
 26 27  2  0  0  0  0
M  END
>  <minimizedAffinity>
-6.18746471

>  <minimizedRMSD>
1.25412726

$$$$
