
 OpenBabel03242509313D

 17 18  0  0  0  0  0  0  0  0999 V2000
   37.6350   28.7680   43.6310 C   0  0  0  0  0  0  0  0  0  0  0  0
   37.6570   27.3410   43.5310 C   0  0  0  0  0  0  0  0  0  0  0  0
   37.4540   26.7940   42.2680 C   0  0  0  0  0  0  0  0  0  0  0  0
   37.2450   27.6430   41.1910 N   0  0  0  0  0  0  0  0  0  0  0  0
   37.2350   28.9830   41.3480 C   0  0  0  0  0  0  0  0  0  0  0  0
   37.4270   29.5300   42.5460 N   0  0  0  0  0  0  0  0  0  0  0  0
   37.7860   29.2520   44.5900 H   0  0  0  0  0  0  0  0  0  0  0  0
   37.8240   26.7580   44.4140 H   0  0  0  0  0  0  0  0  0  0  0  0
   37.0020   29.6180   40.0940 N   0  0  0  0  0  0  0  0  0  0  0  0
   37.3200   30.8440   39.6390 C   0  0  0  0  0  3  0  0  0  0  0  0
   36.8240   30.8820   38.3320 C   0  0  0  0  0  3  0  0  0  0  0  0
   36.2360   29.6800   38.0650 N   0  0  0  0  0  0  0  0  0  0  0  0
   36.3580   28.9060   39.1770 C   0  0  0  0  0  3  0  0  0  0  0  0
   37.4680   25.3100   42.1130 C   0  0  0  0  0  0  0  0  0  0  0  0
   37.5110   25.0770   40.7450 F   0  0  0  0  0  0  0  0  0  0  0  0
   38.5820   24.7460   42.6640 F   0  0  0  0  0  0  0  0  0  0  0  0
   36.3170   24.7260   42.6330 F   0  0  0  0  0  0  0  0  0  0  0  0
  1  7  1  0  0  0  0
  2  1  1  0  0  0  0
  2  8  1  0  0  0  0
  3  2  2  0  0  0  0
  4  5  2  0  0  0  0
  4  3  1  0  0  0  0
  5  6  1  0  0  0  0
  6  1  2  0  0  0  0
  9  5  1  0  0  0  0
 10  9  1  0  0  0  0
 11 10  2  0  0  0  0
 12 11  1  0  0  0  0
 12 13  2  0  0  0  0
 13  9  1  0  0  0  0
 14  3  1  0  0  0  0
 14 17  1  0  0  0  0
 14 16  1  0  0  0  0
 15 14  1  0  0  0  0
M  END
>  <minimizedAffinity>
-4.30769205

>  <minimizedRMSD>
1.02751422

$$$$
