
 OpenBabel03242506503D

 37 41  0  0  0  0  0  0  0  0999 V2000
   44.6360   26.4530   44.4650 C   0  0  0  0  0  0  0  0  0  0  0  0
   43.4720   26.4790   43.6690 C   0  0  0  0  0  0  0  0  0  0  0  0
   42.2810   26.9570   44.2110 C   0  0  0  0  0  0  0  0  0  0  0  0
   42.3210   27.3840   45.5200 N   0  0  0  0  0  0  0  0  0  0  0  0
   43.4390   27.3480   46.2480 C   0  0  0  0  0  0  0  0  0  0  0  0
   44.5990   26.8850   45.7290 N   0  0  0  0  0  0  0  0  0  0  0  0
   45.5250   26.0680   43.9770 H   0  0  0  0  0  0  0  0  0  0  0  0
   43.4520   26.0200   42.2820 C   0  0  0  0  0  0  0  0  0  0  0  0
   44.4910   26.1960   41.3930 C   0  0  0  0  0  0  0  0  0  0  0  0
   44.5040   25.7750   40.0780 C   0  0  0  0  0  0  0  0  0  0  0  0
   43.3880   25.1330   39.6330 N   0  0  0  0  0  0  0  0  0  0  0  0
   42.3510   24.9490   40.4920 C   0  0  0  0  0  0  0  0  0  0  0  0
   42.3930   25.3790   41.7610 N   0  0  0  0  0  0  0  0  0  0  0  0
   45.3890   26.7080   41.7410 H   0  0  0  0  0  0  0  0  0  0  0  0
   45.3380   25.9340   39.4220 H   0  0  0  0  0  0  0  0  0  0  0  0
   41.4150   24.4580   40.2640 H   0  0  0  0  0  0  0  0  0  0  0  0
   43.3920   27.8320   47.6630 C   0  0  0  0  0  0  0  0  0  0  0  0
   43.3290   29.2120   47.7070 F   0  0  0  0  0  0  0  0  0  0  0  0
   42.2160   27.3990   48.2790 F   0  0  0  0  0  0  0  0  0  0  0  0
   44.5210   27.4430   48.3850 F   0  0  0  0  0  0  0  0  0  0  0  0
   41.1690   26.9750   43.4330 O   0  0  0  0  0  0  0  0  0  0  0  0
   37.2240   29.1890   43.2740 N   0  0  0  0  0  0  0  0  0  0  0  0
   37.0740   27.9290   43.7230 C   0  0  0  0  0  0  0  0  0  0  0  0
   38.3040   27.3600   43.7320 N   0  0  0  0  0  0  0  0  0  0  0  0
   39.2360   28.2450   43.2930 C   0  0  0  0  0  0  0  0  0  0  0  0
   40.6060   28.1980   43.1020 C   0  0  0  0  0  0  0  0  0  0  0  0
   41.2430   29.2970   42.6340 N   0  0  0  0  0  0  0  0  0  0  0  0
   40.5240   30.4060   42.3660 C   0  0  0  0  0  0  0  0  0  0  0  0
   39.1820   30.4900   42.5390 N   0  0  0  0  0  0  0  0  0  0  0  0
   38.5140   29.4010   43.0090 C   0  0  0  0  0  0  0  0  0  0  0  0
   36.5000   29.9270   43.1320 H   0  0  0  0  0  0  0  0  0  0  0  0
   36.1200   27.5220   44.0050 H   0  0  0  0  0  0  0  0  0  0  0  0
   41.2130   31.5520   41.8740 N   0  0  0  0  0  0  0  0  0  0  0  0
   42.4040   32.1560   42.0420 C   0  0  0  0  0  0  0  0  0  0  0  0
   42.4420   33.2900   41.2240 C   0  0  0  0  0  0  0  0  0  0  0  0
   41.2680   33.3600   40.5660 N   0  0  0  0  0  0  0  0  0  0  0  0
   40.5340   32.3110   40.9630 C   0  0  0  0  0  0  0  0  0  0  0  0
  1  6  1  0  0  0  0
  2  3  1  0  0  0  0
  2  1  2  0  0  0  0
  3  4  2  0  0  0  0
  4  5  1  0  0  0  0
  5 17  1  0  0  0  0
  6  5  2  0  0  0  0
  7  1  1  0  0  0  0
  8  2  1  0  0  0  0
  9 14  1  0  0  0  0
  9  8  2  0  0  0  0
 10  9  1  0  0  0  0
 11 10  2  0  0  0  0
 11 12  1  0  0  0  0
 12 13  2  0  0  0  0
 13  8  1  0  0  0  0
 15 10  1  0  0  0  0
 16 12  1  0  0  0  0
 17 18  1  0  0  0  0
 17 19  1  0  0  0  0
 17 20  1  0  0  0  0
 21  3  1  0  0  0  0
 22 23  1  0  0  0  0
 23 24  2  0  0  0  0
 23 32  1  0  0  0  0
 25 24  1  0  0  0  0
 26 25  1  0  0  0  0
 26 21  1  0  0  0  0
 27 26  2  0  0  0  0
 28 29  2  0  0  0  0
 28 27  1  0  0  0  0
 29 30  1  0  0  0  0
 30 22  1  0  0  0  0
 30 25  2  0  0  0  0
 31 22  1  0  0  0  0
 33 34  1  0  0  0  0
 33 28  1  0  0  0  0
 35 34  2  0  0  0  0
 36 37  2  0  0  0  0
 36 35  1  0  0  0  0
 37 33  1  0  0  0  0
M  END
>  <minimizedAffinity>
-6.356318

>  <minimizedRMSD>
0.121043108

$$$$
