
 OpenBabel03242509303D

 17 18  0  0  0  0  0  0  0  0999 V2000
   37.5900   28.7780   43.6260 C   0  0  0  0  0  0  0  0  0  0  0  0
   37.6150   27.3510   43.5320 C   0  0  0  0  0  0  0  0  0  0  0  0
   37.4710   26.8010   42.2620 C   0  0  0  0  0  0  0  0  0  0  0  0
   37.3130   27.6470   41.1740 N   0  0  0  0  0  0  0  0  0  0  0  0
   37.2980   28.9870   41.3260 C   0  0  0  0  0  0  0  0  0  0  0  0
   37.4340   29.5370   42.5300 N   0  0  0  0  0  0  0  0  0  0  0  0
   37.6970   29.2660   44.5890 H   0  0  0  0  0  0  0  0  0  0  0  0
   37.7400   26.7710   44.4230 H   0  0  0  0  0  0  0  0  0  0  0  0
   37.1250   29.6180   40.0610 N   0  0  0  0  0  0  0  0  0  0  0  0
   36.9590   30.9090   39.7210 C   0  0  0  0  0  3  0  0  0  0  0  0
   36.8420   30.9010   38.3260 C   0  0  0  0  0  3  0  0  0  0  0  0
   36.9450   29.6090   37.8980 N   0  0  0  0  0  0  0  0  0  0  0  0
   37.1210   28.8250   38.9960 C   0  0  0  0  0  3  0  0  0  0  0  0
   37.4900   25.3160   42.1120 C   0  0  0  0  0  0  0  0  0  0  0  0
   37.5480   25.0780   40.7460 F   0  0  0  0  0  0  0  0  0  0  0  0
   38.6000   24.7560   42.6770 F   0  0  0  0  0  0  0  0  0  0  0  0
   36.3350   24.7310   42.6230 F   0  0  0  0  0  0  0  0  0  0  0  0
  1  7  1  0  0  0  0
  2  1  1  0  0  0  0
  2  8  1  0  0  0  0
  3  2  2  0  0  0  0
  4  5  2  0  0  0  0
  4  3  1  0  0  0  0
  5  6  1  0  0  0  0
  6  1  2  0  0  0  0
  9  5  1  0  0  0  0
 10  9  1  0  0  0  0
 11 10  2  0  0  0  0
 12 11  1  0  0  0  0
 12 13  2  0  0  0  0
 13  9  1  0  0  0  0
 14  3  1  0  0  0  0
 14 17  1  0  0  0  0
 14 16  1  0  0  0  0
 15 14  1  0  0  0  0
M  END
>  <minimizedAffinity>
-4.28509855

>  <minimizedRMSD>
1.13044322

$$$$
