
 OpenBabel03242509213D

 27 29  0  0  0  0  0  0  0  0999 V2000
   38.6950   28.1550   42.7490 C   0  0  0  0  0  0  0  0  0  0  0  0
   37.6150   27.3540   42.8790 C   0  0  0  0  0  0  0  0  0  0  0  0
   36.5300   27.9860   42.3140 C   0  0  0  0  0  0  0  0  0  0  0  0
   37.0270   29.1720   41.8610 N   0  0  0  0  0  0  0  0  0  0  0  0
   38.2870   29.2610   42.1180 N   0  0  0  0  0  0  0  0  0  0  0  0
   37.6320   26.3710   43.3580 H   0  0  0  0  0  0  0  0  0  0  0  0
   35.5530   27.5230   42.3070 H   0  0  0  0  0  0  0  0  0  0  0  0
   41.6330   26.5420   44.3700 C   0  0  0  0  0  0  0  0  0  0  0  0
   40.3280   26.7550   43.9470 C   0  0  0  0  0  0  0  0  0  0  0  0
   40.0310   27.8870   43.2060 C   0  0  0  0  0  0  0  0  0  0  0  0
   41.0400   28.7390   42.9300 N   0  0  0  0  0  0  0  0  0  0  0  0
   42.3170   28.5120   43.3550 C   0  0  0  0  0  0  0  0  0  0  0  0
   42.6000   27.4090   44.0740 N   0  0  0  0  0  0  0  0  0  0  0  0
   41.7800   25.6350   44.9420 H   0  0  0  0  0  0  0  0  0  0  0  0
   39.5230   26.0560   44.1790 H   0  0  0  0  0  0  0  0  0  0  0  0
   43.0680   29.2540   43.0850 H   0  0  0  0  0  0  0  0  0  0  0  0
   36.1760   30.1420   41.2000 C   0  0  0  0  0  0  0  0  0  0  0  0
   36.8490   30.9270   40.8010 H   0  0  0  0  0  0  0  0  0  0  0  0
   35.5120   30.5440   42.0010 H   0  0  0  0  0  0  0  0  0  0  0  0
   35.2950   29.5330   40.1670 C   0  0  0  0  0  0  0  0  0  0  0  0
   34.3440   30.0930   40.1190 H   0  0  0  0  0  0  0  0  0  0  0  0
   35.0900   28.4730   40.2990 H   0  0  0  0  0  0  0  0  0  0  0  0
   35.9060   29.7370   38.7710 C   0  0  0  0  0  0  0  0  0  0  0  0
   36.9150   30.6580   38.4680 C   0  0  0  0  0  0  0  0  0  0  0  0
   37.3340   30.7010   37.1840 C   0  0  0  0  0  0  0  0  0  0  0  0
   36.8100   29.8930   36.2020 C   0  0  0  0  0  0  0  0  0  0  0  0
   35.5470   28.9360   37.2510 S   0  0  0  0  0  0  0  0  0  0  0  0
  1  2  1  0  0  0  0
  1 10  1  0  0  0  0
  2  6  1  0  0  0  0
  3  2  2  0  0  0  0
  4  5  1  0  0  0  0
  4  3  1  0  0  0  0
  5  1  2  0  0  0  0
  7  3  1  0  0  0  0
  8 14  1  0  0  0  0
  9 15  1  0  0  0  0
  9  8  2  0  0  0  0
 10  9  1  0  0  0  0
 11 10  2  0  0  0  0
 11 12  1  0  0  0  0
 12 13  2  0  0  0  0
 13  8  1  0  0  0  0
 16 12  1  0  0  0  0
 17  4  1  0  0  0  0
 17 19  1  0  0  0  0
 18 17  1  0  0  0  0
 20 22  1  0  0  0  0
 20 17  1  0  0  0  0
 21 20  1  0  0  0  0
 23 20  1  0  0  0  0
 24 23  2  0  0  0  0
 25 24  1  0  0  0  0
 26 25  2  0  0  0  0
 26 27  1  0  0  0  0
 27 23  1  0  0  0  0
M  END
>  <minimizedAffinity>
-4.45443058

>  <minimizedRMSD>
1.46521783

$$$$
