
     RDKit          3D

 20 21  0  0  0  0  0  0  0  0999 V2000
   37.9757   28.8859   43.3670 C   0  0  0  0  0  0  0  0  0  0  0  0
   38.0895   27.4607   43.3100 C   0  0  0  0  0  0  0  0  0  0  0  0
   37.4379   26.8181   42.2624 C   0  0  0  0  0  0  0  0  0  0  0  0
   36.7254   27.5758   41.3447 N   0  0  0  0  0  0  0  0  0  0  0  0
   36.6545   28.9191   41.4512 C   0  0  0  0  0  0  0  0  0  0  0  0
   37.2691   29.5568   42.4443 N   0  0  0  0  0  0  0  0  0  0  0  0
   37.5268   25.3318   42.1597 C   0  0  0  0  0  0  0  0  0  0  0  0
   37.6625   25.0574   40.8062 F   0  0  0  0  0  0  0  0  0  0  0  0
   38.6303   24.8379   42.7952 F   0  0  0  0  0  0  0  0  0  0  0  0
   36.3743   24.7115   42.6323 F   0  0  0  0  0  0  0  0  0  0  0  0
   38.4622   29.4429   44.1612 H   0  0  0  0  0  0  0  0  0  0  0  0
   38.6598   26.9518   44.0597 H   0  0  0  0  0  0  0  0  0  0  0  0
   35.8672   29.4495   40.3894 N   0  0  0  0  0  0  0  0  0  0  0  0
   36.0607   29.4725   39.0579 C   0  0  0  0  0  0  0  0  0  0  0  0
   34.9391   30.1321   38.5424 C   0  0  0  0  0  0  0  0  0  0  0  0
   34.1290   30.4719   39.5872 N   0  0  0  0  0  0  0  0  0  0  0  0
   34.7265   30.0370   40.7293 C   0  0  0  0  0  0  0  0  0  0  0  0
   36.9106   29.0567   38.5764 H   0  0  0  0  0  0  0  0  0  0  0  0
   34.7789   30.3214   37.4805 H   0  0  0  0  0  0  0  0  0  0  0  0
   34.2071   30.2300   41.6581 H   0  0  0  0  0  0  0  0  0  0  0  0
  2  1  2  0
  3  2  1  0
  4  5  1  0
  4  3  2  0
  5  6  2  0
  6  1  1  0
  7  3  1  0
  7 10  1  0
  7  9  1  0
  8  7  1  0
  1 11  1  0
  2 12  1  0
 13 14  1  0
 14 15  2  0
 15 16  1  0
 16 17  2  0
 17 13  1  0
 14 18  1  0
 15 19  1  0
 17 20  1  0
  5 13  1  0
M  ISO  2  11  14  12  14
M  END
>  <DihAtoms>  (1) 
3,4,12,13

>  <DihDeg>  (1) 
-50.15345707497034

$$$$
