
 OpenBabel03242502333D

 41 45  0  0  0  0  0  0  0  0999 V2000
   40.2680   31.9720   39.0420 N   0  0  0  0  0  0  0  0  0  0  0  0
   39.8000   32.1290   37.7860 C   0  0  0  0  0  0  0  0  0  0  0  0
   38.5890   31.5180   37.5210 C   0  0  0  0  0  0  0  0  0  0  0  0
   37.8560   30.7870   38.4210 C   0  0  0  0  0  0  0  0  0  0  0  0
   36.7720   30.2520   38.1470 O   0  0  0  0  0  0  0  0  0  0  0  0
   38.4140   30.6900   39.6530 N   0  0  0  0  0  0  0  0  0  0  0  0
   39.5890   31.2640   39.9690 C   0  0  0  0  0  0  0  0  0  0  0  0
   40.0330   31.1180   41.1540 O   0  0  0  0  0  0  0  0  0  0  0  0
   40.3520   32.6990   37.0530 H   0  0  0  0  0  0  0  0  0  0  0  0
   38.2010   31.6340   36.5200 H   0  0  0  0  0  0  0  0  0  0  0  0
   37.7210   29.9460   40.6630 C   0  0  0  0  0  0  0  0  0  0  0  0
   36.7830   30.2930   41.6080 C   0  0  0  0  0  0  0  0  0  0  0  0
   36.4420   29.2040   42.3310 N   0  0  0  0  0  0  0  0  0  0  0  0
   37.1680   28.1450   41.8460 C   0  0  0  0  0  0  0  0  0  0  0  0
   37.2180   26.8180   42.2030 C   0  0  0  0  0  0  0  0  0  0  0  0
   38.0320   25.9080   41.5720 C   0  0  0  0  0  0  0  0  0  0  0  0
   38.8420   26.3400   40.5290 C   0  0  0  0  0  0  0  0  0  0  0  0
   38.7770   27.6720   40.1870 C   0  0  0  0  0  0  0  0  0  0  0  0
   37.9560   28.5940   40.8210 C   0  0  0  0  0  0  0  0  0  0  0  0
   36.4390   31.3200   41.6740 H   0  0  0  0  0  0  0  0  0  0  0  0
   35.7590   29.2060   43.0960 H   0  0  0  0  0  0  0  0  0  0  0  0
   36.5770   26.4880   43.0240 H   0  0  0  0  0  0  0  0  0  0  0  0
   38.0040   24.8790   41.9250 H   0  0  0  0  0  0  0  0  0  0  0  0
   39.4840   25.6280   40.0310 H   0  0  0  0  0  0  0  0  0  0  0  0
   39.4130   28.0050   39.3700 H   0  0  0  0  0  0  0  0  0  0  0  0
   41.5300   32.5600   39.4670 C   0  0  0  0  0  0  0  0  0  0  0  0
   42.0500   31.9300   40.2020 H   0  0  0  0  0  0  0  0  0  0  0  0
   42.1660   32.5970   38.5570 H   0  0  0  0  0  0  0  0  0  0  0  0
   40.1150   35.9320   40.0340 C   0  0  0  0  0  0  0  0  0  0  0  0
   40.9830   36.4560   41.0090 C   0  0  0  0  0  0  0  0  0  0  0  0
   42.0250   35.6700   41.4570 C   0  0  0  0  0  0  0  0  0  0  0  0
   42.1490   34.4460   40.9340 N   0  0  0  0  0  0  0  0  0  0  0  0
   41.3080   33.9450   39.9920 C   0  0  0  0  0  0  0  0  0  0  0  0
   40.3160   34.6950   39.5660 N   0  0  0  0  0  0  0  0  0  0  0  0
   39.3050   36.5770   39.7020 H   0  0  0  0  0  0  0  0  0  0  0  0
   40.8560   37.4590   41.4170 H   0  0  0  0  0  0  0  0  0  0  0  0
   42.9400   36.1400   42.4430 N   0  0  0  0  0  0  0  0  0  0  0  0
   42.6640   37.0050   43.4360 C   0  0  0  0  0  0  0  0  0  0  0  0
   43.8500   37.1790   44.1570 C   0  0  0  0  0  0  0  0  0  0  0  0
   44.8120   36.4090   43.5740 N   0  0  0  0  0  0  0  0  0  0  0  0
   44.2340   35.7770   42.5230 C   0  0  0  0  0  0  0  0  0  0  0  0
  1 26  1  0  0  0  0
  1  7  1  0  0  0  0
  2  1  1  0  0  0  0
  3  2  2  0  0  0  0
  3  4  1  0  0  0  0
  4  6  1  0  0  0  0
  5  4  2  0  0  0  0
  6  7  1  0  0  0  0
  6 11  1  0  0  0  0
  7  8  2  0  0  0  0
  9  2  1  0  0  0  0
 10  3  1  0  0  0  0
 11 19  1  0  0  0  0
 11 12  2  0  0  0  0
 12 20  1  0  0  0  0
 12 13  1  0  0  0  0
 13 21  1  0  0  0  0
 14 15  1  0  0  0  0
 14 13  1  0  0  0  0
 15 22  1  0  0  0  0
 16 23  1  0  0  0  0
 16 15  2  0  0  0  0
 17 16  1  0  0  0  0
 18 17  2  0  0  0  0
 18 19  1  0  0  0  0
 19 14  2  0  0  0  0
 24 17  1  0  0  0  0
 25 18  1  0  0  0  0
 26 33  1  0  0  0  0
 26 27  1  0  0  0  0
 28 26  1  0  0  0  0
 29 30  1  0  0  0  0
 30 36  1  0  0  0  0
 30 31  2  0  0  0  0
 31 37  1  0  0  0  0
 32 31  1  0  0  0  0
 33 32  2  0  0  0  0
 34 33  1  0  0  0  0
 34 29  2  0  0  0  0
 35 29  1  0  0  0  0
 37 41  1  0  0  0  0
 37 38  1  0  0  0  0
 38 39  2  0  0  0  0
 40 39  1  0  0  0  0
 41 40  2  0  0  0  0
M  END
>  <minimizedAffinity>
-7.15413904

>  <minimizedRMSD>
8.96549988

$$$$
