
 OpenBabel03242509173D

 31 34  0  0  1  0  0  0  0  0999 V2000
   39.4530   30.6410   41.3330 C   0  0  1  0  0  0  0  0  0  0  0  0
   39.8610   30.6910   42.7530 C   0  0  0  0  0  0  0  0  0  0  0  0
   38.6030   29.9840   42.5140 C   0  0  2  0  0  0  0  0  0  0  0  0
   39.9910   29.9740   40.6840 H   0  0  0  0  0  0  0  0  0  0  0  0
   40.7850   30.1590   43.0450 H   0  0  0  0  0  0  0  0  0  0  0  0
   39.8550   31.7450   43.1620 H   0  0  0  0  0  0  0  0  0  0  0  0
   37.5900   30.4490   42.4110 H   0  0  0  0  0  0  0  0  0  0  0  0
   38.6230   28.5130   42.4970 C   0  0  0  0  0  0  0  0  0  0  0  0
   39.3940   27.7570   43.3500 C   0  0  0  0  0  0  0  0  0  0  0  0
   39.3570   26.4090   43.4540 C   0  0  0  0  0  0  0  0  0  0  0  0
   38.4790   25.7430   42.6380 C   0  0  0  0  0  0  0  0  0  0  0  0
   37.6940   26.4520   41.7750 C   0  0  0  0  0  0  0  0  0  0  0  0
   37.7740   27.8710   41.7100 C   0  0  0  0  0  0  0  0  0  0  0  0
   40.0990   28.3050   44.0000 H   0  0  0  0  0  0  0  0  0  0  0  0
   40.0100   25.9110   44.1630 H   0  0  0  0  0  0  0  0  0  0  0  0
   38.4920   24.6600   42.7640 H   0  0  0  0  0  0  0  0  0  0  0  0
   37.0570   25.7590   41.2010 H   0  0  0  0  0  0  0  0  0  0  0  0
   36.8160   28.2440   40.7360 N   0  0  0  0  0  0  0  0  0  0  0  0
   36.8350   28.0750   39.3760 C   0  0  0  0  0  0  0  0  0  0  0  0
   35.6230   28.6040   38.9360 C   0  0  0  0  0  0  0  0  0  0  0  0
   34.9170   29.0690   40.0010 N   0  0  0  0  0  0  0  0  0  0  0  0
   35.6510   28.8500   41.1260 C   0  0  0  0  0  0  0  0  0  0  0  0
   38.7790   31.8380   40.7170 C   0  0  0  0  0  0  0  0  0  0  0  0
   37.7770   31.5970   39.7810 C   0  0  0  0  0  0  0  0  0  0  0  0
   37.1430   32.6840   39.2430 C   0  0  0  0  0  0  0  0  0  0  0  0
   37.4950   33.9440   39.6230 N   0  0  0  0  0  0  0  0  0  0  0  0
   38.4720   34.1460   40.5350 C   0  0  0  0  0  0  0  0  0  0  0  0
   39.0840   33.0670   41.0530 N   0  0  0  0  0  0  0  0  0  0  0  0
   37.3750   30.7100   39.3750 H   0  0  0  0  0  0  0  0  0  0  0  0
   36.3490   32.6910   38.5100 H   0  0  0  0  0  0  0  0  0  0  0  0
   38.7570   35.1350   40.8420 H   0  0  0  0  0  0  0  0  0  0  0  0
  1  4  1  6  0  0  0
  1  3  1  0  0  0  0
  1  2  1  0  0  0  0
  2  5  1  0  0  0  0
  2  6  1  0  0  0  0
  3  7  1  1  0  0  0
  3  2  1  0  0  0  0
  8  3  1  0  0  0  0
  8  9  1  0  0  0  0
  9 10  2  0  0  0  0
  9 14  1  0  0  0  0
 10 15  1  0  0  0  0
 11 16  1  0  0  0  0
 11 10  1  0  0  0  0
 12 11  2  0  0  0  0
 13 12  1  0  0  0  0
 13  8  2  0  0  0  0
 17 12  1  0  0  0  0
 18 22  1  0  0  0  0
 18 13  1  0  0  0  0
 19 18  1  0  0  0  0
 20 19  2  0  0  0  0
 20 21  1  0  0  0  0
 21 22  2  0  0  0  0
 23 28  1  0  0  0  0
 23  1  1  0  0  0  0
 24 23  2  0  0  0  0
 25 26  2  0  0  0  0
 25 24  1  0  0  0  0
 26 27  1  0  0  0  0
 27 31  1  0  0  0  0
 27 28  2  0  0  0  0
 29 24  1  0  0  0  0
 30 25  1  0  0  0  0
M  END
>  <minimizedAffinity>
-5.28515148

>  <minimizedRMSD>
1.64102745

$$$$
