
 OpenBabel03242509313D

 17 18  0  0  0  0  0  0  0  0999 V2000
   37.6000   28.8020   43.5810 C   0  0  0  0  0  0  0  0  0  0  0  0
   37.6480   27.3740   43.5070 C   0  0  0  0  0  0  0  0  0  0  0  0
   37.4680   26.8010   42.2510 C   0  0  0  0  0  0  0  0  0  0  0  0
   37.2550   27.6270   41.1580 N   0  0  0  0  0  0  0  0  0  0  0  0
   37.2200   28.9690   41.2900 C   0  0  0  0  0  0  0  0  0  0  0  0
   37.3900   29.5410   42.4800 N   0  0  0  0  0  0  0  0  0  0  0  0
   37.7330   29.3060   44.5320 H   0  0  0  0  0  0  0  0  0  0  0  0
   37.8170   26.8100   44.4010 H   0  0  0  0  0  0  0  0  0  0  0  0
   36.9890   29.5770   40.0230 N   0  0  0  0  0  0  0  0  0  0  0  0
   36.6440   29.0560   38.8320 C   0  0  0  0  0  3  0  0  0  0  0  0
   36.5660   30.1540   37.9670 C   0  0  0  0  0  3  0  0  0  0  0  0
   36.8680   31.2780   38.6800 N   0  0  0  0  0  0  0  0  0  0  0  0
   37.1290   30.8950   39.9600 C   0  0  0  0  0  3  0  0  0  0  0  0
   37.5100   25.3150   42.1230 C   0  0  0  0  0  0  0  0  0  0  0  0
   37.5970   25.0590   40.7610 F   0  0  0  0  0  0  0  0  0  0  0  0
   38.6160   24.7780   42.7160 F   0  0  0  0  0  0  0  0  0  0  0  0
   36.3530   24.7210   42.6200 F   0  0  0  0  0  0  0  0  0  0  0  0
  1  7  1  0  0  0  0
  2  1  1  0  0  0  0
  2  8  1  0  0  0  0
  3  2  2  0  0  0  0
  4  5  2  0  0  0  0
  4  3  1  0  0  0  0
  5  6  1  0  0  0  0
  6  1  2  0  0  0  0
  9  5  1  0  0  0  0
 10  9  1  0  0  0  0
 11 12  1  0  0  0  0
 11 10  2  0  0  0  0
 12 13  2  0  0  0  0
 13  9  1  0  0  0  0
 14  3  1  0  0  0  0
 14 17  1  0  0  0  0
 14 16  1  0  0  0  0
 15 14  1  0  0  0  0
M  END
>  <minimizedAffinity>
-4.36933517

>  <minimizedRMSD>
1.00608134

$$$$
