
     RDKit          3D

 26 27  0  0  0  0  0  0  0  0999 V2000
   37.9682   28.8851   43.3767 C   0  0  0  0  0  0  0  0  0  0  0  0
   38.0785   27.4683   43.3158 C   0  0  0  0  0  0  0  0  0  0  0  0
   37.4374   26.8241   42.2616 C   0  0  0  0  0  0  0  0  0  0  0  0
   36.7315   27.5729   41.3320 N   0  0  0  0  0  0  0  0  0  0  0  0
   36.6645   28.9164   41.4456 C   0  0  0  0  0  0  0  0  0  0  0  0
   37.2726   29.5467   42.4486 N   0  0  0  0  0  0  0  0  0  0  0  0
   37.5272   25.3333   42.1585 C   0  0  0  0  0  0  0  0  0  0  0  0
   37.6421   25.0551   40.8077 F   0  0  0  0  0  0  0  0  0  0  0  0
   38.6399   24.8388   42.7875 F   0  0  0  0  0  0  0  0  0  0  0  0
   36.3841   24.7143   42.6390 F   0  0  0  0  0  0  0  0  0  0  0  0
   38.4589   29.4007   44.1872 H   0  0  0  0  0  0  0  0  0  0  0  0
   38.6397   26.9273   44.0634 H   0  0  0  0  0  0  0  0  0  0  0  0
   35.9177   29.6015   40.4453 N   0  0  0  0  0  0  0  0  0  0  0  0
   35.8461   29.0637   39.2141 C   0  0  0  0  0  0  0  0  0  0  0  0
   35.1556   29.6171   38.1390 C   0  0  0  0  0  0  0  0  0  0  0  0
   35.1635   28.9031   36.8205 C   0  0  0  0  0  0  0  0  0  0  0  0
   34.5006   30.8058   38.3674 C   0  0  0  0  0  0  0  0  0  0  0  0
   33.8784   31.3203   37.4282 O   0  0  0  0  0  0  0  0  0  0  0  0
   34.5788   31.3375   39.6072 N   0  0  0  0  0  0  0  0  0  0  0  0
   35.2659   30.7620   40.6304 C   0  0  0  0  0  0  0  0  0  0  0  0
   35.3205   31.2810   41.7740 O   0  0  0  0  0  0  0  0  0  0  0  0
   36.3674   28.1146   39.0270 H   0  0  0  0  0  0  0  0  0  0  0  0
   36.0546   29.2325   36.2889 H   0  0  0  0  0  0  0  0  0  0  0  0
   34.2181   29.0861   36.3101 H   0  0  0  0  0  0  0  0  0  0  0  0
   35.3014   27.8029   37.0158 H   0  0  0  0  0  0  0  0  0  0  0  0
   34.0721   32.2453   39.7616 H   0  0  0  0  0  0  0  0  0  0  0  0
  2  1  2  0
  3  2  1  0
  4  5  1  0
  4  3  2  0
  5  6  2  0
  6  1  1  0
  7  3  1  0
  7 10  1  0
  7  9  1  0
  8  7  1  0
  1 11  1  0
  2 12  1  0
 13 14  1  0
 14 15  2  0
 15 16  1  0
 15 17  1  0
 17 18  2  0
 17 19  1  0
 19 20  1  0
 20 21  2  0
 20 13  1  0
 14 22  1  0
 16 23  1  0
 16 24  1  0
 16 25  1  0
 19 26  1  0
  5 13  1  0
M  ISO  2  11  14  12  14
M  END
>  <DihAtoms>  (1) 
3,4,12,13

>  <DihDeg>  (1) 
-149.3105242598518

$$$$
