
 OpenBabel03242509313D

 22 23  0  0  0  0  0  0  0  0999 V2000
   37.4240   28.5700   43.6840 C   0  0  0  0  0  0  0  0  0  0  0  0
   37.4690   27.1520   43.5720 C   0  0  0  0  0  0  0  0  0  0  0  0
   37.4950   26.6150   42.2890 C   0  0  0  0  0  0  0  0  0  0  0  0
   37.4750   27.4650   41.1920 N   0  0  0  0  0  0  0  0  0  0  0  0
   37.4310   28.8020   41.3660 C   0  0  0  0  0  0  0  0  0  0  0  0
   37.4070   29.3320   42.5880 N   0  0  0  0  0  0  0  0  0  0  0  0
   37.4040   29.0040   44.6720 H   0  0  0  0  0  0  0  0  0  0  0  0
   37.4840   26.5310   44.4550 H   0  0  0  0  0  0  0  0  0  0  0  0
   37.4140   29.5960   40.1830 N   0  0  0  0  0  0  0  0  0  0  0  0
   38.2250   30.6660   40.1130 C   0  0  0  0  0  3  0  0  0  0  0  0
   38.3180   31.5310   39.0260 C   0  0  0  0  0  0  0  0  0  0  0  0
   39.2700   32.6860   39.0900 C   0  0  0  0  0  1  0  0  0  0  0  0
   37.5090   31.2570   37.9460 C   0  0  0  0  0  0  0  0  0  0  0  0
   37.5700   32.0100   36.9640 O   0  0  0  0  0  0  0  0  0  0  0  0
   36.6970   30.1800   38.0260 N   0  0  0  0  0  0  0  0  0  0  0  0
   36.6400   29.3610   39.1100 C   0  0  0  0  0  0  0  0  0  0  0  0
   35.8730   28.3650   39.1560 O   0  0  0  0  0  0  0  0  0  0  0  0
   36.0880   29.9890   37.1910 H   0  0  0  0  0  0  0  0  0  0  0  0
   37.5440   25.1280   42.1240 C   0  0  0  0  0  0  0  0  0  0  0  0
   37.7430   24.9040   40.7730 F   0  0  0  0  0  0  0  0  0  0  0  0
   38.5940   24.5680   42.8050 F   0  0  0  0  0  0  0  0  0  0  0  0
   36.3510   24.5290   42.4970 F   0  0  0  0  0  0  0  0  0  0  0  0
  1  7  1  0  0  0  0
  2  1  1  0  0  0  0
  2  8  1  0  0  0  0
  3  2  2  0  0  0  0
  4  5  2  0  0  0  0
  4  3  1  0  0  0  0
  5  6  1  0  0  0  0
  6  1  2  0  0  0  0
  9  5  1  0  0  0  0
 10  9  1  0  0  0  0
 11 12  1  0  0  0  0
 11 10  2  0  0  0  0
 13 15  1  0  0  0  0
 13 11  1  0  0  0  0
 14 13  2  0  0  0  0
 15 16  1  0  0  0  0
 16 17  2  0  0  0  0
 16  9  1  0  0  0  0
 18 15  1  0  0  0  0
 19  3  1  0  0  0  0
 19 22  1  0  0  0  0
 19 21  1  0  0  0  0
 20 19  1  0  0  0  0
M  END
>  <minimizedAffinity>
-5.1214447

>  <minimizedRMSD>
1.7942723

$$$$
