
 OpenBabel03242509213D

 29 31  0  0  0  0  0  0  0  0999 V2000
   38.7050   28.1670   42.7350 C   0  0  0  0  0  0  0  0  0  0  0  0
   37.6160   27.3750   42.8720 C   0  0  0  0  0  0  0  0  0  0  0  0
   36.5440   28.0130   42.2950 C   0  0  0  0  0  0  0  0  0  0  0  0
   37.0450   29.1890   41.8220 N   0  0  0  0  0  0  0  0  0  0  0  0
   38.3140   29.2750   42.0830 N   0  0  0  0  0  0  0  0  0  0  0  0
   37.6270   26.4100   43.3610 H   0  0  0  0  0  0  0  0  0  0  0  0
   35.5460   27.5840   42.2710 H   0  0  0  0  0  0  0  0  0  0  0  0
   41.6220   26.5150   44.3820 C   0  0  0  0  0  0  0  0  0  0  0  0
   40.3190   26.7460   43.9440 C   0  0  0  0  0  0  0  0  0  0  0  0
   40.0370   27.8840   43.2070 C   0  0  0  0  0  0  0  0  0  0  0  0
   41.0450   28.7540   42.9270 N   0  0  0  0  0  0  0  0  0  0  0  0
   42.3050   28.4900   43.3760 C   0  0  0  0  0  0  0  0  0  0  0  0
   42.5930   27.3970   44.0880 N   0  0  0  0  0  0  0  0  0  0  0  0
   41.7570   25.6040   44.9520 H   0  0  0  0  0  0  0  0  0  0  0  0
   39.5210   26.0480   44.1700 H   0  0  0  0  0  0  0  0  0  0  0  0
   43.1210   29.1630   43.1680 H   0  0  0  0  0  0  0  0  0  0  0  0
   36.1190   30.0860   41.1610 C   0  0  0  0  0  0  0  0  0  0  0  0
   36.6860   30.9610   40.7230 H   0  0  0  0  0  0  0  0  0  0  0  0
   35.5210   30.5420   41.9900 H   0  0  0  0  0  0  0  0  0  0  0  0
   35.2560   29.4410   40.1490 C   0  0  0  0  0  0  0  0  0  0  0  0
   35.1570   28.3550   40.4540 H   0  0  0  0  0  0  0  0  0  0  0  0
   34.2240   29.8450   40.2920 H   0  0  0  0  0  0  0  0  0  0  0  0
   35.6820   29.5450   38.7570 C   0  0  0  0  0  0  0  0  0  0  0  0
   35.2260   28.9610   37.5980 C   0  0  0  0  0  0  0  0  0  0  0  0
   35.7850   29.2150   36.3640 C   0  0  0  0  0  0  0  0  0  0  0  0
   36.8230   30.0620   36.2370 N   0  0  0  0  0  0  0  0  0  0  0  0
   37.2800   30.6440   37.3770 C   0  0  0  0  0  0  0  0  0  0  0  0
   38.1230   31.3310   37.2690 H   0  0  0  0  0  0  0  0  0  0  0  0
   36.7370   30.3990   38.5800 N   0  0  0  0  0  0  0  0  0  0  0  0
  1  2  1  0  0  0  0
  1 10  1  0  0  0  0
  2  6  1  0  0  0  0
  3  2  2  0  0  0  0
  4  5  1  0  0  0  0
  4  3  1  0  0  0  0
  5  1  2  0  0  0  0
  7  3  1  0  0  0  0
  8 14  1  0  0  0  0
  9 15  1  0  0  0  0
  9  8  2  0  0  0  0
 10  9  1  0  0  0  0
 11 10  2  0  0  0  0
 11 12  1  0  0  0  0
 12 13  2  0  0  0  0
 13  8  1  0  0  0  0
 16 12  1  0  0  0  0
 17  4  1  0  0  0  0
 17 19  1  0  0  0  0
 18 17  1  0  0  0  0
 20 22  1  0  0  0  0
 20 21  1  0  0  0  0
 20 17  1  0  0  0  0
 23 20  1  0  0  0  0
 24 23  2  0  0  0  0
 25 24  1  0  0  0  0
 26 25  2  0  0  0  0
 26 27  1  0  0  0  0
 27 29  2  0  0  0  0
 28 27  1  0  0  0  0
 29 23  1  0  0  0  0
M  END
>  <minimizedAffinity>
-4.54931974

>  <minimizedRMSD>
1.23356831

$$$$
