
 OpenBabel03242509303D

 22 23  0  0  0  0  0  0  0  0999 V2000
   37.8080   28.6720   43.4630 C   0  0  0  0  0  0  0  0  0  0  0  0
   38.3620   27.3740   43.6380 C   0  0  0  0  0  0  0  0  0  0  0  0
   38.3780   26.5320   42.5300 C   0  0  0  0  0  0  0  0  0  0  0  0
   37.8630   26.9830   41.3230 N   0  0  0  0  0  0  0  0  0  0  0  0
   37.3500   28.2270   41.2210 C   0  0  0  0  0  0  0  0  0  0  0  0
   37.3290   29.0440   42.2730 N   0  0  0  0  0  0  0  0  0  0  0  0
   37.7880   29.3380   44.3110 H   0  0  0  0  0  0  0  0  0  0  0  0
   38.7520   27.0670   44.5980 H   0  0  0  0  0  0  0  0  0  0  0  0
   36.8450   28.6030   39.9440 N   0  0  0  0  0  0  0  0  0  0  0  0
   36.0590   27.7340   39.2820 C   0  0  0  0  0  3  0  0  0  0  0  0
   35.4940   27.9610   38.0300 C   0  0  0  0  0  0  0  0  0  0  0  0
   34.6350   26.8980   37.4130 C   0  0  0  0  0  1  0  0  0  0  0  0
   35.7690   29.1710   37.4350 C   0  0  0  0  0  0  0  0  0  0  0  0
   35.2790   29.4000   36.3210 O   0  0  0  0  0  0  0  0  0  0  0  0
   36.5590   30.0360   38.1080 N   0  0  0  0  0  0  0  0  0  0  0  0
   37.0910   29.7730   39.3310 C   0  0  0  0  0  0  0  0  0  0  0  0
   37.8240   30.5980   39.9330 O   0  0  0  0  0  0  0  0  0  0  0  0
   36.7580   30.9550   37.6360 H   0  0  0  0  0  0  0  0  0  0  0  0
   38.9530   25.1570   42.6690 C   0  0  0  0  0  0  0  0  0  0  0  0
   39.7820   24.9820   41.5760 F   0  0  0  0  0  0  0  0  0  0  0  0
   39.7140   25.0290   43.8020 F   0  0  0  0  0  0  0  0  0  0  0  0
   37.9680   24.1820   42.6360 F   0  0  0  0  0  0  0  0  0  0  0  0
  1  2  1  0  0  0  0
  1  7  1  0  0  0  0
  2  8  1  0  0  0  0
  3 19  1  0  0  0  0
  3  2  2  0  0  0  0
  4  3  1  0  0  0  0
  5  4  2  0  0  0  0
  5  6  1  0  0  0  0
  6  1  2  0  0  0  0
  9  5  1  0  0  0  0
 10  9  1  0  0  0  0
 11 10  2  0  0  0  0
 12 11  1  0  0  0  0
 13 11  1  0  0  0  0
 13 15  1  0  0  0  0
 14 13  2  0  0  0  0
 15 16  1  0  0  0  0
 16 17  2  0  0  0  0
 16  9  1  0  0  0  0
 18 15  1  0  0  0  0
 19 21  1  0  0  0  0
 20 19  1  0  0  0  0
 22 19  1  0  0  0  0
M  END
>  <minimizedAffinity>
-4.91549921

>  <minimizedRMSD>
1.78771091

$$$$
