REMARK  Name = 
REMARK  2 active torsions:
REMARK  status: ('A' for Active; 'I' for Inactive)
REMARK    1  A    between atoms: C_3  and  C_7
REMARK    2  A    between atoms: C_15  and  C_16
REMARK                            x       y       z     vdW  Elec       q    Type
REMARK                         _______ _______ _______ _____ _____    ______ ____
ROOT
ATOM      1  C   UNL     1      37.968  28.885  43.377  0.00  0.00    +0.000 A 
ATOM      2  C   UNL     1      38.078  27.468  43.316  0.00  0.00    +0.000 A 
ATOM      3  C   UNL     1      37.437  26.824  42.262  0.00  0.00    +0.000 A 
ATOM      4  N   UNL     1      36.731  27.573  41.332  0.00  0.00    +0.000 NA
ATOM      5  C   UNL     1      36.664  28.916  41.446  0.00  0.00    +0.000 A 
ATOM      6  N   UNL     1      37.273  29.547  42.449  0.00  0.00    +0.000 NA
ATOM      7  H   UNL     1      38.459  29.401  44.187  0.00  0.00    +0.000 HD
ATOM      8  H   UNL     1      38.640  26.927  44.063  0.00  0.00    +0.000 HD
ATOM      9  N   UNL     1      35.918  29.602  40.445  0.00  0.00    +0.000 N 
ATOM     10  C   UNL     1      34.610  29.316  40.310  0.00  0.00    +0.000 A 
ATOM     11  C   UNL     1      33.756  29.903  39.380  0.00  0.00    +0.000 A 
ATOM     12  C   UNL     1      32.316  29.484  39.344  0.00  0.00    +0.000 C 
ATOM     13  C   UNL     1      34.305  30.846  38.541  0.00  0.00    +0.000 A 
ATOM     14  O   UNL     1      33.567  31.384  37.704  0.00  0.00    +0.000 OA
ATOM     15  N   UNL     1      35.619  31.125  38.685  0.00  0.00    +0.000 N 
ATOM     16  C   UNL     1      36.418  30.527  39.609  0.00  0.00    +0.000 A 
ATOM     17  O   UNL     1      37.638  30.808  39.720  0.00  0.00    +0.000 OA
ATOM     18  H   UNL     1      36.019  31.848  38.036  0.00  0.00    +0.000 HD
ENDROOT
BRANCH   3  19
ATOM     19  C   UNL     1      37.527  25.333  42.158  0.00  0.00    +0.000 C 
ATOM     20  F   UNL     1      37.642  25.055  40.808  0.00  0.00    +0.000 F 
ATOM     21  F   UNL     1      38.640  24.839  42.788  0.00  0.00    +0.000 F 
ATOM     22  F   UNL     1      36.384  24.714  42.639  0.00  0.00    +0.000 F 
ENDBRANCH   3  19
TORSDOF 1
