
 OpenBabel03242509263D

 49 53  0  0  0  0  0  0  0  0999 V2000
   38.5780   28.0780   42.6670 C   0  0  0  0  0  0  0  0  0  0  0  0
   37.4800   27.2510   42.7410 C   0  0  0  0  0  0  0  0  0  0  0  0
   36.4310   27.9400   42.1270 C   0  0  0  0  0  0  0  0  0  0  0  0
   36.9700   29.1030   41.7400 N   0  0  0  0  0  0  0  0  0  0  0  0
   38.2230   29.2160   42.0410 N   0  0  0  0  0  0  0  0  0  0  0  0
   37.4530   26.2660   43.1900 H   0  0  0  0  0  0  0  0  0  0  0  0
   35.4410   27.5110   42.0470 H   0  0  0  0  0  0  0  0  0  0  0  0
   41.5420   26.2640   44.0060 C   0  0  0  0  0  0  0  0  0  0  0  0
   40.2480   26.4580   43.5350 C   0  0  0  0  0  0  0  0  0  0  0  0
   39.9020   27.7880   43.1720 C   0  0  0  0  0  0  0  0  0  0  0  0
   40.8160   28.7950   43.2930 N   0  0  0  0  0  0  0  0  0  0  0  0
   42.0740   28.5080   43.7700 C   0  0  0  0  0  0  0  0  0  0  0  0
   42.4240   27.2600   44.1190 N   0  0  0  0  0  0  0  0  0  0  0  0
   41.8610   25.2650   44.2990 H   0  0  0  0  0  0  0  0  0  0  0  0
   39.5430   25.6520   43.4480 H   0  0  0  0  0  0  0  0  0  0  0  0
   42.9900   29.5910   43.8770 N   0  0  0  0  0  0  0  0  0  0  0  0
   42.6670   30.6290   43.0500 C   0  0  0  0  0  3  0  0  0  0  0  0
   43.4300   31.7600   43.0120 C   0  0  0  0  0  0  0  0  0  0  0  0
   43.0890   32.9060   42.1100 C   0  0  0  0  0  1  0  0  0  0  0  0
   44.5370   31.8320   43.8300 C   0  0  0  0  0  0  0  0  0  0  0  0
   45.2990   32.8510   43.8540 O   0  0  0  0  0  0  0  0  0  0  0  0
   44.8340   30.8020   44.6340 N   0  0  0  0  0  0  0  0  0  0  0  0
   44.0780   29.6890   44.6670 C   0  0  0  0  0  0  0  0  0  0  0  0
   44.2540   28.6620   45.3740 O   0  0  0  0  0  0  0  0  0  0  0  0
   45.6620   30.7990   45.2770 H   0  0  0  0  0  0  0  0  0  0  0  0
   36.1550   30.0590   41.0710 C   0  0  0  0  0  0  0  0  0  0  0  0
   35.5670   30.5830   41.8720 H   0  0  0  0  0  0  0  0  0  0  0  0
   36.7860   30.8470   40.6030 H   0  0  0  0  0  0  0  0  0  0  0  0
   35.2510   29.5080   40.0140 C   0  0  0  0  0  0  0  0  0  0  0  0
   34.5530   30.4060   39.8930 H   0  0  0  0  0  0  0  0  0  0  0  0
   34.7630   28.6150   40.3800 H   0  0  0  0  0  0  0  0  0  0  0  0
   35.8570   29.4140   38.6660 C   0  0  0  0  0  0  0  0  0  0  0  0
   37.1770   29.5460   38.3340 C   0  0  0  0  0  0  0  0  0  0  0  0
   37.6910   29.5300   37.0710 C   0  0  0  0  0  0  0  0  0  0  0  0
   36.8410   29.3730   36.0010 C   0  0  0  0  0  0  0  0  0  0  0  0
   35.4910   29.2320   36.2610 C   0  0  0  0  0  0  0  0  0  0  0  0
   34.6880   29.0840   35.1590 C   0  0  0  0  0  0  0  0  0  0  0  0
   33.3420   28.9410   35.3160 C   0  0  0  0  0  0  0  0  0  0  0  0
   32.8020   28.9440   36.5810 C   0  0  0  0  0  0  0  0  0  0  0  0
   33.6530   29.0930   37.6450 C   0  0  0  0  0  0  0  0  0  0  0  0
   34.9980   29.2480   37.5660 C   0  0  0  0  0  0  0  0  0  0  0  0
   37.8520   29.6720   39.1820 H   0  0  0  0  0  0  0  0  0  0  0  0
   38.7600   29.6450   36.9610 H   0  0  0  0  0  0  0  0  0  0  0  0
   37.2530   29.3620   35.0010 H   0  0  0  0  0  0  0  0  0  0  0  0
   35.0810   29.0760   34.1470 H   0  0  0  0  0  0  0  0  0  0  0  0
   32.6650   28.8240   34.4700 H   0  0  0  0  0  0  0  0  0  0  0  0
   31.7350   28.8280   36.7060 H   0  0  0  0  0  0  0  0  0  0  0  0
   33.0530   29.0680   38.8970 O   0  0  0  0  0  0  0  0  0  0  0  0
   32.3360   29.7180   39.1840 H   0  0  0  0  0  0  0  0  0  0  0  0
  1  2  1  0  0  0  0
  1 10  1  0  0  0  0
  2  6  1  0  0  0  0
  3  2  2  0  0  0  0
  4  5  1  0  0  0  0
  4  3  1  0  0  0  0
  5  1  2  0  0  0  0
  7  3  1  0  0  0  0
  8 13  1  0  0  0  0
  8 14  1  0  0  0  0
  9  8  2  0  0  0  0
 10 11  2  0  0  0  0
 10  9  1  0  0  0  0
 11 12  1  0  0  0  0
 12 16  1  0  0  0  0
 12 13  2  0  0  0  0
 15  9  1  0  0  0  0
 16 23  1  0  0  0  0
 17 16  1  0  0  0  0
 18 17  2  0  0  0  0
 18 20  1  0  0  0  0
 19 18  1  0  0  0  0
 20 21  2  0  0  0  0
 20 22  1  0  0  0  0
 22 23  1  0  0  0  0
 22 25  1  0  0  0  0
 23 24  2  0  0  0  0
 26  4  1  0  0  0  0
 26 27  1  0  0  0  0
 28 26  1  0  0  0  0
 29 31  1  0  0  0  0
 29 26  1  0  0  0  0
 30 29  1  0  0  0  0
 32 29  1  0  0  0  0
 33 32  1  0  0  0  0
 33 42  1  0  0  0  0
 34 33  2  0  0  0  0
 35 36  2  0  0  0  0
 35 34  1  0  0  0  0
 36 41  1  0  0  0  0
 37 38  2  0  0  0  0
 37 36  1  0  0  0  0
 38 39  1  0  0  0  0
 39 47  1  0  0  0  0
 39 40  2  0  0  0  0
 40 48  1  0  0  0  0
 41 40  1  0  0  0  0
 41 32  2  0  0  0  0
 43 34  1  0  0  0  0
 44 35  1  0  0  0  0
 45 37  1  0  0  0  0
 46 38  1  0  0  0  0
 48 49  1  0  0  0  0
M  END
>  <minimizedAffinity>
-6.67515373

>  <minimizedRMSD>
0.831556022

$$$$
