
     RDKit          3D

 26 27  0  0  0  0  0  0  0  0999 V2000
   37.9682   28.8851   43.3767 C   0  0  0  0  0  0  0  0  0  0  0  0
   38.0785   27.4683   43.3158 C   0  0  0  0  0  0  0  0  0  0  0  0
   37.4374   26.8241   42.2616 C   0  0  0  0  0  0  0  0  0  0  0  0
   36.7315   27.5729   41.3320 N   0  0  0  0  0  0  0  0  0  0  0  0
   36.6645   28.9164   41.4456 C   0  0  0  0  0  0  0  0  0  0  0  0
   37.2726   29.5467   42.4486 N   0  0  0  0  0  0  0  0  0  0  0  0
   37.5272   25.3333   42.1585 C   0  0  0  0  0  0  0  0  0  0  0  0
   37.6421   25.0551   40.8077 F   0  0  0  0  0  0  0  0  0  0  0  0
   38.6399   24.8388   42.7875 F   0  0  0  0  0  0  0  0  0  0  0  0
   36.3841   24.7143   42.6390 F   0  0  0  0  0  0  0  0  0  0  0  0
   38.4589   29.4007   44.1872 H   0  0  0  0  0  0  0  0  0  0  0  0
   38.6397   26.9273   44.0634 H   0  0  0  0  0  0  0  0  0  0  0  0
   35.9177   29.6015   40.4453 N   0  0  0  0  0  0  0  0  0  0  0  0
   36.5503   30.5066   39.6766 C   0  0  0  0  0  0  0  0  0  0  0  0
   35.9531   31.2510   38.6627 C   0  0  0  0  0  0  0  0  0  0  0  0
   36.7856   32.2264   37.8857 C   0  0  0  0  0  0  0  0  0  0  0  0
   34.6122   31.0344   38.4406 C   0  0  0  0  0  0  0  0  0  0  0  0
   34.0557   31.6834   37.5445 O   0  0  0  0  0  0  0  0  0  0  0  0
   33.9863   30.1234   39.2180 N   0  0  0  0  0  0  0  0  0  0  0  0
   34.6095   29.4170   40.1993 C   0  0  0  0  0  0  0  0  0  0  0  0
   34.0001   28.5755   40.9069 O   0  0  0  0  0  0  0  0  0  0  0  0
   37.6210   30.6830   39.8502 H   0  0  0  0  0  0  0  0  0  0  0  0
   36.7761   33.1623   38.4417 H   0  0  0  0  0  0  0  0  0  0  0  0
   36.4084   32.2834   36.8647 H   0  0  0  0  0  0  0  0  0  0  0  0
   37.8520   31.8654   37.8940 H   0  0  0  0  0  0  0  0  0  0  0  0
   32.9629   29.9724   39.0330 H   0  0  0  0  0  0  0  0  0  0  0  0
  2  1  2  0
  3  2  1  0
  4  5  1  0
  4  3  2  0
  5  6  2  0
  6  1  1  0
  7  3  1  0
  7 10  1  0
  7  9  1  0
  8  7  1  0
  1 11  1  0
  2 12  1  0
 13 14  1  0
 14 15  2  0
 15 16  1  0
 15 17  1  0
 17 18  2  0
 17 19  1  0
 19 20  1  0
 20 21  2  0
 20 13  1  0
 14 22  1  0
 16 23  1  0
 16 24  1  0
 16 25  1  0
 19 26  1  0
  5 13  1  0
M  ISO  2  11  14  12  14
M  END
>  <DihAtoms>  (1) 
3,4,12,13

>  <DihDeg>  (1) 
-149.3105242598518

$$$$
