
 OpenBabel03242508033D

 31 33  0  0  0  0  0  0  0  0999 V2000
   39.4350   28.4710   40.2090 C   0  0  0  0  0  0  0  0  0  0  0  0
   38.2470   29.0990   40.6030 C   0  0  0  0  0  0  0  0  0  0  0  0
   37.7350   30.0810   39.7310 C   0  0  0  0  0  0  0  0  0  0  0  0
   38.3860   30.3720   38.5860 N   0  0  0  0  0  0  0  0  0  0  0  0
   39.5390   29.7340   38.2470 C   0  0  0  0  0  0  0  0  0  0  0  0
   40.0590   28.7800   39.0680 N   0  0  0  0  0  0  0  0  0  0  0  0
   36.8110   30.6030   39.9870 H   0  0  0  0  0  0  0  0  0  0  0  0
   40.0210   30.0040   37.3180 H   0  0  0  0  0  0  0  0  0  0  0  0
   40.0270   27.4750   41.0320 N   0  0  0  0  0  0  0  0  0  0  0  0
   39.5240   26.4480   41.7160 C   0  0  0  0  0  0  0  0  0  0  0  0
   40.3440   25.6200   42.4420 C   0  0  0  0  0  0  0  0  0  0  0  0
   39.5930   24.5190   43.1440 C   0  0  0  0  0  0  0  0  0  0  0  0
   41.7040   25.8410   42.4740 C   0  0  0  0  0  0  0  0  0  0  0  0
   42.3430   25.0260   43.1640 O   0  0  0  0  0  0  0  0  0  0  0  0
   42.2070   26.8760   41.7840 N   0  0  0  0  0  0  0  0  0  0  0  0
   41.3760   27.6900   41.0670 C   0  0  0  0  0  0  0  0  0  0  0  0
   42.0410   28.6130   40.4840 O   0  0  0  0  0  0  0  0  0  0  0  0
   43.2300   26.9820   41.8530 H   0  0  0  0  0  0  0  0  0  0  0  0
   37.5480   28.8190   41.7740 N   0  0  0  0  0  0  0  0  0  0  0  0
   37.8830   29.2130   43.1270 C   0  0  0  0  0  0  0  0  0  0  0  0
   37.3810   28.0550   43.9840 C   0  0  0  0  0  0  0  0  0  0  0  0
   36.6180   27.1520   43.0500 C   0  0  0  0  0  0  0  0  0  0  0  0
   36.3150   28.0650   41.8940 C   0  0  0  0  0  0  0  0  0  0  0  0
   37.3850   30.1620   43.4030 H   0  0  0  0  0  0  0  0  0  0  0  0
   38.9790   29.2440   43.2360 H   0  0  0  0  0  0  0  0  0  0  0  0
   38.1870   27.5720   44.5420 H   0  0  0  0  0  0  0  0  0  0  0  0
   36.6590   28.4600   44.7210 H   0  0  0  0  0  0  0  0  0  0  0  0
   35.7010   26.7390   43.5180 H   0  0  0  0  0  0  0  0  0  0  0  0
   37.2350   26.3050   42.7580 H   0  0  0  0  0  0  0  0  0  0  0  0
   35.4840   28.7450   42.2290 H   0  0  0  0  0  0  0  0  0  0  0  0
   36.0100   27.5680   40.9710 H   0  0  0  0  0  0  0  0  0  0  0  0
  1  2  1  0  0  0  0
  1  9  1  0  0  0  0
  2 19  1  0  0  0  0
  3  7  1  0  0  0  0
  3  2  2  0  0  0  0
  4  3  1  0  0  0  0
  5  4  2  0  0  0  0
  5  6  1  0  0  0  0
  6  1  2  0  0  0  0
  8  5  1  0  0  0  0
  9 16  1  0  0  0  0
  9 10  1  0  0  0  0
 10 11  2  0  0  0  0
 11 13  1  0  0  0  0
 11 12  1  0  0  0  0
 13 14  2  0  0  0  0
 15 18  1  0  0  0  0
 15 13  1  0  0  0  0
 16 15  1  0  0  0  0
 17 16  2  0  0  0  0
 19 23  1  0  0  0  0
 19 20  1  0  0  0  0
 20 25  1  0  0  0  0
 20 24  1  0  0  0  0
 20 21  1  0  0  0  0
 21 26  1  0  0  0  0
 21 27  1  0  0  0  0
 22 28  1  0  0  0  0
 22 21  1  0  0  0  0
 23 30  1  0  0  0  0
 23 22  1  0  0  0  0
 29 22  1  0  0  0  0
 31 23  1  0  0  0  0
M  END
>  <minimizedAffinity>
-4.77249813

>  <minimizedRMSD>
4.93346643

$$$$
