
     RDKit          3D

 53 57  0  0  0  0  0  0  0  0999 V2000
   35.2838   29.4940   40.0745 C   0  0  0  0  0  0  0  0  0  0  0  0
   35.8909   29.4204   38.7260 C   0  0  0  0  0  0  0  0  0  0  0  0
   37.2073   29.5826   38.3941 C   0  0  0  0  0  0  0  0  0  0  0  0
   37.7201   29.5853   37.1302 C   0  0  0  0  0  0  0  0  0  0  0  0
   36.8735   29.4136   36.0602 C   0  0  0  0  0  0  0  0  0  0  0  0
   35.5263   29.2420   36.3212 C   0  0  0  0  0  0  0  0  0  0  0  0
   34.7261   29.0824   35.2190 C   0  0  0  0  0  0  0  0  0  0  0  0
   33.3825   28.9088   35.3761 C   0  0  0  0  0  0  0  0  0  0  0  0
   32.8453   28.8926   36.6418 C   0  0  0  0  0  0  0  0  0  0  0  0
   33.6934   29.0562   37.7063 C   0  0  0  0  0  0  0  0  0  0  0  0
   35.0336   29.2408   37.6257 C   0  0  0  0  0  0  0  0  0  0  0  0
   33.0952   29.0105   38.9578 O   0  0  0  0  0  0  0  0  0  0  0  0
   36.1676   30.0823   41.1293 C   0  0  0  0  0  0  0  0  0  0  0  0
   38.6519   28.1734   42.7211 C   0  0  0  0  0  0  0  0  0  0  0  0
   37.5573   27.3530   42.8773 C   0  0  0  0  0  0  0  0  0  0  0  0
   36.4850   28.0141   42.2725 C   0  0  0  0  0  0  0  0  0  0  0  0
   37.0091   29.1573   41.8097 N   0  0  0  0  0  0  0  0  0  0  0  0
   38.2726   29.2806   42.0555 N   0  0  0  0  0  0  0  0  0  0  0  0
   41.5823   26.5389   44.3364 C   0  0  0  0  0  0  0  0  0  0  0  0
   40.2650   26.7237   43.9314 C   0  0  0  0  0  0  0  0  0  0  0  0
   39.9950   27.9047   43.1870 C   0  0  0  0  0  0  0  0  0  0  0  0
   40.9979   28.7858   42.9048 N   0  0  0  0  0  0  0  0  0  0  0  0
   42.2725   28.5192   43.3479 C   0  0  0  0  0  0  0  0  0  0  0  0
   42.5528   27.4109   44.0520 N   0  0  0  0  0  0  0  0  0  0  0  0
   34.5522   30.3644   39.9543 H   0  0  0  0  0  0  0  0  0  0  0  0
   34.8323   28.5841   40.4445 H   0  0  0  0  0  0  0  0  0  0  0  0
   37.8797   29.7197   39.2421 H   0  0  0  0  0  0  0  0  0  0  0  0
   38.7865   29.7242   37.0198 H   0  0  0  0  0  0  0  0  0  0  0  0
   37.2842   29.4184   35.0601 H   0  0  0  0  0  0  0  0  0  0  0  0
   35.1177   29.0876   34.2055 H   0  0  0  0  0  0  0  0  0  0  0  0
   32.7084   28.7807   34.5301 H   0  0  0  0  0  0  0  0  0  0  0  0
   31.7812   28.7531   36.7668 H   0  0  0  0  0  0  0  0  0  0  0  0
   32.3639   29.6443   39.2491 H   0  0  0  0  0  0  0  0  0  0  0  0
   35.5627   30.5960   41.9228 H   0  0  0  0  0  0  0  0  0  0  0  0
   36.7780   30.8833   40.6549 H   0  0  0  0  0  0  0  0  0  0  0  0
   37.5481   26.3899   43.3732 H   0  0  0  0  0  0  0  0  0  0  0  0
   35.4926   27.5843   42.2515 H   0  0  0  0  0  0  0  0  0  0  0  0
   41.8455   25.6506   44.9093 H   0  0  0  0  0  0  0  0  0  0  0  0
   39.4885   26.0179   44.1641 H   0  0  0  0  0  0  0  0  0  0  0  0
   43.2829   29.4684   43.0282 N   0  0  0  0  0  0  0  0  0  0  0  0
   43.5159   30.3428   44.0506 C   0  0  0  0  0  0  0  0  0  0  0  0
   44.4531   31.3287   43.9305 C   0  0  0  0  0  0  0  0  0  0  0  0
   44.7206   32.2956   45.0425 C   0  0  0  0  0  0  0  0  0  0  0  0
   45.1600   31.4215   42.7514 C   0  0  0  0  0  0  0  0  0  0  0  0
   46.0490   32.3113   42.5612 O   0  0  0  0  0  0  0  0  0  0  0  0
   44.9141   30.5522   41.7616 N   0  0  0  0  0  0  0  0  0  0  0  0
   43.9894   29.5823   41.8848 C   0  0  0  0  0  0  0  0  0  0  0  0
   43.6707   28.7130   41.0328 O   0  0  0  0  0  0  0  0  0  0  0  0
   42.9889   30.3215   45.0097 H   0  0  0  0  0  0  0  0  0  0  0  0
   43.9110   33.0651   45.0409 H   0  0  0  0  0  0  0  0  0  0  0  0
   44.6935   31.7226   46.0138 H   0  0  0  0  0  0  0  0  0  0  0  0
   45.6802   32.8101   44.9048 H   0  0  0  0  0  0  0  0  0  0  0  0
   45.4195   30.5733   40.8427 H   0  0  0  0  0  0  0  0  0  0  0  0
  1 13  1  0
  2  1  1  0
  3  2  2  0
  4  3  1  0
  5  6  1  0
  5  4  2  0
  6 11  2  0
  7  8  2  0
  7  6  1  0
  8  9  1  0
  9 10  2  0
 10 12  1  0
 11 10  1  0
 11  2  1  0
 13 17  1  0
 14 15  1  0
 14 21  1  0
 16 15  2  0
 17 18  1  0
 17 16  1  0
 18 14  2  0
 20 19  2  0
 21 20  1  0
 22 21  2  0
 22 23  1  0
 23 24  2  0
 24 19  1  0
  1 25  1  0
  1 26  1  0
  3 27  1  0
  4 28  1  0
  5 29  1  0
  7 30  1  0
  8 31  1  0
  9 32  1  0
 12 33  1  0
 13 34  1  0
 13 35  1  0
 15 36  1  0
 16 37  1  0
 19 38  1  0
 20 39  1  0
 40 41  1  0
 41 42  2  0
 42 43  1  0
 42 44  1  0
 44 45  2  0
 44 46  1  0
 46 47  1  0
 47 48  2  0
 47 40  1  0
 41 49  1  0
 43 50  1  0
 43 51  1  0
 43 52  1  0
 46 53  1  0
 23 40  1  0
M  ISO  8  25   8  26   8  27  14  28  14  29  14  30  14  31  14  32  14
M  ISO  7  33   3  34   8  35   8  36  14  37  14  38  14  39  14
M  END
>  <DihAtoms>  (1) 
21,22,39,40

>  <DihDeg>  (1) 
112.10015432731261

$$$$
