
 OpenBabel03242508443D

 37 40  0  0  1  0  0  0  0  0999 V2000
   37.8960   27.3570   42.7340 C   0  0  2  0  0  0  0  0  0  0  0  0
   38.9450   27.6650   43.7110 C   0  0  0  0  0  0  0  0  0  0  0  0
   39.7200   26.3710   43.8790 C   0  0  0  0  0  0  0  0  0  0  0  0
   39.2790   25.4720   42.7670 C   0  0  0  0  0  0  0  0  0  0  0  0
   38.5370   26.3740   41.7810 C   0  0  1  0  0  0  0  0  0  0  0  0
   37.0830   26.7560   43.2360 H   0  0  0  0  0  0  0  0  0  0  0  0
   39.6820   28.4150   43.4260 H   0  0  0  0  0  0  0  0  0  0  0  0
   38.4590   27.8810   44.7020 H   0  0  0  0  0  0  0  0  0  0  0  0
   39.5750   25.9320   44.8960 H   0  0  0  0  0  0  0  0  0  0  0  0
   40.8180   26.5040   43.7870 H   0  0  0  0  0  0  0  0  0  0  0  0
   40.1150   24.9610   42.2480 H   0  0  0  0  0  0  0  0  0  0  0  0
   38.6120   24.7130   43.2270 H   0  0  0  0  0  0  0  0  0  0  0  0
   39.2290   26.8300   41.0830 H   0  0  0  0  0  0  0  0  0  0  0  0
   37.5740   25.4140   41.1720 C   0  0  0  0  0  0  0  0  0  0  0  0
   36.9050   24.5050   41.8780 N   0  0  0  0  0  0  0  0  0  0  0  0
   36.1520   23.8300   41.0350 O   0  0  0  0  0  0  0  0  0  0  0  0
   36.3430   24.3090   39.8210 C   0  0  0  0  0  0  0  0  0  0  0  0
   37.2290   25.3040   39.8570 N   0  0  0  0  0  0  0  0  0  0  0  0
   35.7640   23.9190   38.5720 N   0  0  0  0  0  0  0  0  0  0  0  0
   36.3220   24.2340   37.3950 C   0  0  0  0  0  0  0  0  0  0  0  0
   35.6850   23.8120   36.2480 C   0  0  0  0  0  0  0  0  0  0  0  0
   36.3230   24.1730   34.9350 C   0  0  0  0  0  0  0  0  0  0  0  0
   34.5160   23.0920   36.3110 C   0  0  0  0  0  0  0  0  0  0  0  0
   34.0060   22.7490   35.2130 O   0  0  0  0  0  0  0  0  0  0  0  0
   33.9840   22.7930   37.4980 N   0  0  0  0  0  0  0  0  0  0  0  0
   34.6160   23.2120   38.6260 C   0  0  0  0  0  0  0  0  0  0  0  0
   34.0170   22.8680   39.6830 O   0  0  0  0  0  0  0  0  0  0  0  0
   33.0960   22.2440   37.4990 H   0  0  0  0  0  0  0  0  0  0  0  0
   37.9240   29.7640   41.9070 C   0  0  0  0  0  0  0  0  0  0  0  0
   37.3110   28.4870   42.0440 C   0  0  0  0  0  0  0  0  0  0  0  0
   36.0580   28.3000   41.4630 C   0  0  0  0  0  0  0  0  0  0  0  0
   35.4770   29.3540   40.7880 N   0  0  0  0  0  0  0  0  0  0  0  0
   36.1060   30.5750   40.6800 C   0  0  0  0  0  0  0  0  0  0  0  0
   37.3440   30.7680   41.2510 N   0  0  0  0  0  0  0  0  0  0  0  0
   38.8800   29.9020   42.3530 H   0  0  0  0  0  0  0  0  0  0  0  0
   35.4830   27.3900   41.4870 H   0  0  0  0  0  0  0  0  0  0  0  0
   35.5140   31.2890   40.1220 H   0  0  0  0  0  0  0  0  0  0  0  0
  1  6  1  1  0  0  0
  1  2  1  0  0  0  0
  2  3  1  0  0  0  0
  2  8  1  0  0  0  0
  3  9  1  0  0  0  0
  4 12  1  0  0  0  0
  4  3  1  0  0  0  0
  5 13  1  6  0  0  0
  5  1  1  0  0  0  0
  5  4  1  0  0  0  0
  7  2  1  0  0  0  0
 10  3  1  0  0  0  0
 11  4  1  0  0  0  0
 14  5  1  0  0  0  0
 14 15  2  0  0  0  0
 16 15  1  0  0  0  0
 17 18  2  0  0  0  0
 17 16  1  0  0  0  0
 18 14  1  0  0  0  0
 19 26  1  0  0  0  0
 19 17  1  0  0  0  0
 20 19  1  0  0  0  0
 21 23  1  0  0  0  0
 21 20  2  0  0  0  0
 22 21  1  0  0  0  0
 23 25  1  0  0  0  0
 24 23  2  0  0  0  0
 25 28  1  0  0  0  0
 25 26  1  0  0  0  0
 26 27  2  0  0  0  0
 29 30  1  0  0  0  0
 29 35  1  0  0  0  0
 30  1  1  0  0  0  0
 31 36  1  0  0  0  0
 31 30  2  0  0  0  0
 32 31  1  0  0  0  0
 33 32  2  0  0  0  0
 33 34  1  0  0  0  0
 34 29  2  0  0  0  0
 37 33  1  0  0  0  0
M  END
>  <minimizedAffinity>
-5.37228012

>  <minimizedRMSD>
0.561733067

$$$$
