
 OpenBabel03242505183D

 42 45  0  0  1  0  0  0  0  0999 V2000
   38.4390   31.1650   40.9530 C   0  0  1  0  0  0  0  0  0  0  0  0
   39.4490   32.1670   41.2700 C   0  0  0  0  0  0  0  0  0  0  0  0
   39.4370   33.0510   40.0180 C   0  0  0  0  0  0  0  0  0  0  0  0
   38.7980   32.2190   38.9260 C   0  0  0  0  0  0  0  0  0  0  0  0
   38.7480   30.8170   39.4830 C   0  0  2  0  0  0  0  0  0  0  0  0
   37.4230   31.5480   40.9740 H   0  0  0  0  0  0  0  0  0  0  0  0
   39.0790   32.8050   42.1170 H   0  0  0  0  0  0  0  0  0  0  0  0
   40.4470   31.7830   41.5060 H   0  0  0  0  0  0  0  0  0  0  0  0
   38.8170   33.9730   40.2060 H   0  0  0  0  0  0  0  0  0  0  0  0
   40.4550   33.3860   39.7560 H   0  0  0  0  0  0  0  0  0  0  0  0
   37.7580   32.5980   38.7190 H   0  0  0  0  0  0  0  0  0  0  0  0
   39.4180   32.2760   38.0250 H   0  0  0  0  0  0  0  0  0  0  0  0
   39.7350   30.3800   39.4000 H   0  0  0  0  0  0  0  0  0  0  0  0
   39.8070   28.3190   42.8790 C   0  0  0  0  0  0  0  0  0  0  0  0
   38.6090   27.8180   43.5390 C   0  0  0  0  0  0  0  0  0  0  0  0
   37.3630   28.4760   43.2860 C   0  0  0  0  0  0  0  0  0  0  0  0
   37.3190   29.5480   42.4420 N   0  0  0  0  0  0  0  0  0  0  0  0
   38.4790   29.9660   41.8570 C   0  0  0  0  0  0  0  0  0  0  0  0
   39.7020   29.3810   42.0560 N   0  0  0  0  0  0  0  0  0  0  0  0
   40.7230   27.8050   43.0880 H   0  0  0  0  0  0  0  0  0  0  0  0
   38.6720   26.9730   44.1980 H   0  0  0  0  0  0  0  0  0  0  0  0
   36.5180   28.0750   43.7890 H   0  0  0  0  0  0  0  0  0  0  0  0
   37.7200   29.9960   38.8650 C   0  0  0  0  0  0  0  0  0  0  0  0
   36.4040   30.1250   38.4390 C   0  0  0  0  0  0  0  0  0  0  0  0
   35.7580   29.0800   37.8970 C   0  0  0  0  0  0  0  0  0  0  0  0
   36.4230   27.8780   37.7700 C   0  0  0  0  0  0  0  0  0  0  0  0
   38.1010   28.2570   38.4770 S   0  0  0  0  0  0  0  0  0  0  0  0
   36.0340   31.1280   38.6100 H   0  0  0  0  0  0  0  0  0  0  0  0
   34.4080   29.1760   37.4500 N   0  0  0  0  0  0  0  0  0  0  0  0
   33.9340   29.2600   36.1950 C   0  0  0  0  0  0  0  0  0  0  0  0
   32.5690   29.3460   36.0050 C   0  0  0  0  0  0  0  0  0  0  0  0
   32.1070   29.4370   34.5910 C   0  0  0  0  0  0  0  0  0  0  0  0
   31.6950   29.3450   37.0740 C   0  0  0  0  0  0  0  0  0  0  0  0
   30.4580   29.4250   36.8510 O   0  0  0  0  0  0  0  0  0  0  0  0
   32.2130   29.2600   38.3050 N   0  0  0  0  0  0  0  0  0  0  0  0
   33.5550   29.1750   38.5100 C   0  0  0  0  0  0  0  0  0  0  0  0
   33.8650   29.1020   39.7270 O   0  0  0  0  0  0  0  0  0  0  0  0
   31.5030   29.2640   39.0750 H   0  0  0  0  0  0  0  0  0  0  0  0
   36.0010   26.6130   37.2330 C   0  0  0  0  0  0  0  0  0  0  0  0
   35.7130   26.6190   35.8720 F   0  0  0  0  0  0  0  0  0  0  0  0
   37.0100   25.7370   37.4540 F   0  0  0  0  0  0  0  0  0  0  0  0
   34.8650   26.2050   37.9330 F   0  0  0  0  0  0  0  0  0  0  0  0
  1  6  1  1  0  0  0
  1  2  1  0  0  0  0
  1 18  1  0  0  0  0
  2  8  1  0  0  0  0
  2  7  1  0  0  0  0
  3  9  1  0  0  0  0
  3  2  1  0  0  0  0
  4  5  1  0  0  0  0
  4  3  1  0  0  0  0
  5 13  1  6  0  0  0
  5  1  1  0  0  0  0
 10  3  1  0  0  0  0
 11  4  1  0  0  0  0
 12  4  1  0  0  0  0
 14 20  1  0  0  0  0
 14 15  1  0  0  0  0
 15 21  1  0  0  0  0
 16 15  2  0  0  0  0
 16 22  1  0  0  0  0
 17 16  1  0  0  0  0
 18 19  1  0  0  0  0
 18 17  2  0  0  0  0
 19 14  2  0  0  0  0
 23  5  1  0  0  0  0
 24 28  1  0  0  0  0
 24 23  2  0  0  0  0
 25 24  1  0  0  0  0
 26 25  2  0  0  0  0
 26 27  1  0  0  0  0
 27 23  1  0  0  0  0
 29 25  1  0  0  0  0
 29 36  1  0  0  0  0
 30 29  1  0  0  0  0
 31 30  2  0  0  0  0
 31 33  1  0  0  0  0
 32 31  1  0  0  0  0
 33 35  1  0  0  0  0
 34 33  2  0  0  0  0
 35 36  1  0  0  0  0
 35 38  1  0  0  0  0
 36 37  2  0  0  0  0
 39 41  1  0  0  0  0
 39 26  1  0  0  0  0
 39 42  1  0  0  0  0
 40 39  1  0  0  0  0
M  END
>  <minimizedAffinity>
-5.43516159

>  <minimizedRMSD>
1.65320647

$$$$
