
 OpenBabel03242509313D

 22 23  0  0  0  0  0  0  0  0999 V2000
   37.5900   28.7950   43.6210 C   0  0  0  0  0  0  0  0  0  0  0  0
   37.6120   27.3740   43.5630 C   0  0  0  0  0  0  0  0  0  0  0  0
   37.5950   26.7870   42.3010 C   0  0  0  0  0  0  0  0  0  0  0  0
   37.5580   27.5940   41.1730 N   0  0  0  0  0  0  0  0  0  0  0  0
   37.5380   28.9380   41.2960 C   0  0  0  0  0  0  0  0  0  0  0  0
   37.5550   29.5140   42.4970 N   0  0  0  0  0  0  0  0  0  0  0  0
   37.6040   29.2670   44.5910 H   0  0  0  0  0  0  0  0  0  0  0  0
   37.6430   26.7870   44.4690 H   0  0  0  0  0  0  0  0  0  0  0  0
   37.5000   29.6860   40.0840 N   0  0  0  0  0  0  0  0  0  0  0  0
   38.6260   30.2900   39.6650 C   0  0  0  0  0  3  0  0  0  0  0  0
   38.7400   31.0510   38.5040 C   0  0  0  0  0  0  0  0  0  0  0  0
   40.0640   31.6670   38.1620 C   0  0  0  0  0  1  0  0  0  0  0  0
   37.6060   31.1860   37.7360 C   0  0  0  0  0  0  0  0  0  0  0  0
   37.6800   31.8580   36.6980 O   0  0  0  0  0  0  0  0  0  0  0  0
   36.4800   30.5750   38.1660 N   0  0  0  0  0  0  0  0  0  0  0  0
   36.4130   29.8390   39.3080 C   0  0  0  0  0  0  0  0  0  0  0  0
   35.3500   29.2820   39.6830 O   0  0  0  0  0  0  0  0  0  0  0  0
   35.6250   30.6900   37.5670 H   0  0  0  0  0  0  0  0  0  0  0  0
   37.6180   25.2940   42.1930 C   0  0  0  0  0  0  0  0  0  0  0  0
   37.7760   25.0160   40.8470 F   0  0  0  0  0  0  0  0  0  0  0  0
   38.6790   24.7450   42.8660 F   0  0  0  0  0  0  0  0  0  0  0  0
   36.4280   24.7290   42.6230 F   0  0  0  0  0  0  0  0  0  0  0  0
  1  7  1  0  0  0  0
  2  1  1  0  0  0  0
  2  8  1  0  0  0  0
  3  2  2  0  0  0  0
  4  5  2  0  0  0  0
  4  3  1  0  0  0  0
  5  6  1  0  0  0  0
  6  1  2  0  0  0  0
  9  5  1  0  0  0  0
 10  9  1  0  0  0  0
 11 10  2  0  0  0  0
 12 11  1  0  0  0  0
 13 15  1  0  0  0  0
 13 11  1  0  0  0  0
 14 13  2  0  0  0  0
 15 16  1  0  0  0  0
 16 17  2  0  0  0  0
 16  9  1  0  0  0  0
 18 15  1  0  0  0  0
 19  3  1  0  0  0  0
 19 22  1  0  0  0  0
 19 21  1  0  0  0  0
 20 19  1  0  0  0  0
M  END
>  <minimizedAffinity>
-5.15816545

>  <minimizedRMSD>
1.88466382

$$$$
