
 OpenBabel03242508323D

 35 38  0  0  0  0  0  0  0  0999 V2000
   38.4030   28.2980   43.2250 C   0  0  0  0  0  0  0  0  0  0  0  0
   38.1160   27.1240   42.4770 C   0  0  0  0  0  0  0  0  0  0  0  0
   37.2360   27.2420   41.4050 C   0  0  0  0  0  0  0  0  0  0  0  0
   36.7190   28.4630   41.1520 N   0  0  0  0  0  0  0  0  0  0  0  0
   36.9960   29.5450   41.8570 C   0  0  0  0  0  0  0  0  0  0  0  0
   37.8400   29.4700   42.8990 N   0  0  0  0  0  0  0  0  0  0  0  0
   39.0600   28.3500   44.0730 H   0  0  0  0  0  0  0  0  0  0  0  0
   38.6690   26.2990   42.9020 H   0  0  0  0  0  0  0  0  0  0  0  0
   36.9970   25.9960   40.6990 C   0  0  0  0  0  0  0  0  0  0  0  0
   37.6360   25.9390   39.8190 H   0  0  0  0  0  0  0  0  0  0  0  0
   35.9440   26.0580   40.2920 H   0  0  0  0  0  0  0  0  0  0  0  0
   37.0270   24.7750   41.5560 C   0  0  0  0  0  0  0  0  0  0  0  0
   37.9930   24.7270   42.1150 H   0  0  0  0  0  0  0  0  0  0  0  0
   36.2070   24.6930   42.2640 H   0  0  0  0  0  0  0  0  0  0  0  0
   36.9300   23.5640   40.6560 C   0  0  0  0  0  0  0  0  0  0  0  0
   35.8680   23.3740   39.7980 C   0  0  0  0  0  0  0  0  0  0  0  0
   35.8050   22.2530   38.9830 C   0  0  0  0  0  0  0  0  0  0  0  0
   36.8200   21.3650   39.0650 N   0  0  0  0  0  0  0  0  0  0  0  0
   37.8660   21.5580   39.9130 C   0  0  0  0  0  0  0  0  0  0  0  0
   38.5880   20.7550   39.8530 H   0  0  0  0  0  0  0  0  0  0  0  0
   37.9180   22.6410   40.6950 N   0  0  0  0  0  0  0  0  0  0  0  0
   36.3310   30.6400   41.3770 O   0  0  0  0  0  0  0  0  0  0  0  0
   36.9750   31.5160   40.5070 C   0  0  0  0  0  0  0  0  0  0  0  0
   36.8640   31.6630   39.1540 N   0  0  0  0  0  0  0  0  0  0  0  0
   37.6730   32.6240   38.7650 O   0  0  0  0  0  0  0  0  0  0  0  0
   38.2810   33.0760   39.8400 C   0  0  0  0  0  0  0  0  0  0  0  0
   37.8750   32.4200   40.9200 N   0  0  0  0  0  0  0  0  0  0  0  0
   39.2610   34.1550   39.8110 C   0  0  0  0  0  0  0  0  0  0  0  0
   39.0800   35.4710   40.2050 C   0  0  0  0  0  0  0  0  0  0  0  0
   40.2370   36.1660   40.0240 C   0  0  0  0  0  0  0  0  0  0  0  0
   41.1300   35.2520   39.5140 C   0  0  0  0  0  0  0  0  0  0  0  0
   40.5100   34.1070   39.4130 O   0  0  0  0  0  0  0  0  0  0  0  0
   38.1720   35.9210   40.6010 H   0  0  0  0  0  0  0  0  0  0  0  0
   40.5280   37.1980   40.1990 H   0  0  0  0  0  0  0  0  0  0  0  0
   42.1580   35.2780   39.2030 H   0  0  0  0  0  0  0  0  0  0  0  0
  1  7  1  0  0  0  0
  2  8  1  0  0  0  0
  2  1  2  0  0  0  0
  3  2  1  0  0  0  0
  4  3  2  0  0  0  0
  4  5  1  0  0  0  0
  5  6  2  0  0  0  0
  6  1  1  0  0  0  0
  9  3  1  0  0  0  0
  9 12  1  0  0  0  0
 10  9  1  0  0  0  0
 11  9  1  0  0  0  0
 12 13  1  0  0  0  0
 12 14  1  0  0  0  0
 15 21  1  0  0  0  0
 15 12  1  0  0  0  0
 16 15  2  0  0  0  0
 17 18  2  0  0  0  0
 17 16  1  0  0  0  0
 18 19  1  0  0  0  0
 19 21  2  0  0  0  0
 20 19  1  0  0  0  0
 22  5  1  0  0  0  0
 23 27  1  0  0  0  0
 23 22  1  0  0  0  0
 24 23  2  0  0  0  0
 25 24  1  0  0  0  0
 25 26  1  0  0  0  0
 26 27  2  0  0  0  0
 28 26  1  0  0  0  0
 28 29  2  0  0  0  0
 29 33  1  0  0  0  0
 30 34  1  0  0  0  0
 30 29  1  0  0  0  0
 31 30  2  0  0  0  0
 32 31  1  0  0  0  0
 32 28  1  0  0  0  0
 35 31  1  0  0  0  0
M  END
>  <minimizedAffinity>
-5.90720034

>  <minimizedRMSD>
0.523562551

$$$$
