
 OpenBabel03242508593D

 26 28  0  0  1  0  0  0  0  0999 V2000
   35.9380   29.8120   40.4590 C   0  0  1  0  0  0  0  0  0  0  0  0
   36.6350   31.0240   39.9300 C   0  0  0  0  0  0  0  0  0  0  0  0
   36.7370   29.8010   39.1340 C   0  0  2  0  0  0  0  0  0  0  0  0
   34.8520   29.6440   40.3330 H   0  0  0  0  0  0  0  0  0  0  0  0
   37.5380   31.3940   40.4560 H   0  0  0  0  0  0  0  0  0  0  0  0
   35.9470   31.8630   39.7130 H   0  0  0  0  0  0  0  0  0  0  0  0
   37.7120   29.2710   39.1790 H   0  0  0  0  0  0  0  0  0  0  0  0
   35.9790   29.4950   37.9800 N   0  0  0  0  0  0  0  0  0  0  0  0
   34.6250   29.3550   38.0350 C   0  0  0  0  0  0  0  0  0  0  0  0
   33.8610   29.0580   36.9310 C   0  0  0  0  0  0  0  0  0  0  0  0
   32.3870   28.9040   36.9840 C   0  0  0  0  0  0  0  0  0  0  0  0
   34.4950   28.8940   35.7100 C   0  0  0  0  0  0  0  0  0  0  0  0
   33.9130   28.6220   34.6310 O   0  0  0  0  0  0  0  0  0  0  0  0
   35.8310   29.0470   35.7340 N   0  0  0  0  0  0  0  0  0  0  0  0
   36.6130   29.3380   36.7920 C   0  0  0  0  0  0  0  0  0  0  0  0
   37.8510   29.4500   36.6650 O   0  0  0  0  0  0  0  0  0  0  0  0
   36.3310   28.9250   34.8080 H   0  0  0  0  0  0  0  0  0  0  0  0
   38.2270   29.1750   43.2950 C   0  0  0  0  0  0  0  0  0  0  0  0
   37.8050   27.9050   43.7250 C   0  0  0  0  0  0  0  0  0  0  0  0
   36.7440   27.2800   43.0300 C   0  0  0  0  0  0  0  0  0  0  0  0
   36.1760   27.9230   41.9840 N   0  0  0  0  0  0  0  0  0  0  0  0
   36.6230   29.1590   41.6020 C   0  0  0  0  0  0  0  0  0  0  0  0
   37.6360   29.7740   42.2530 N   0  0  0  0  0  0  0  0  0  0  0  0
   39.0270   29.7360   43.7550 H   0  0  0  0  0  0  0  0  0  0  0  0
   38.3110   27.4610   44.5690 H   0  0  0  0  0  0  0  0  0  0  0  0
   36.4420   26.3040   43.3840 H   0  0  0  0  0  0  0  0  0  0  0  0
  1  4  1  6  0  0  0
  1 22  1  0  0  0  0
  2  5  1  0  0  0  0
  2  1  1  0  0  0  0
  3  7  1  1  0  0  0
  3  2  1  0  0  0  0
  3  1  1  0  0  0  0
  6  2  1  0  0  0  0
  8  9  1  0  0  0  0
  8  3  1  0  0  0  0
 10 11  1  0  0  0  0
 10  9  2  0  0  0  0
 12 14  1  0  0  0  0
 12 10  1  0  0  0  0
 13 12  2  0  0  0  0
 14 15  1  0  0  0  0
 15  8  1  0  0  0  0
 16 15  2  0  0  0  0
 17 14  1  0  0  0  0
 18 19  1  0  0  0  0
 18 24  1  0  0  0  0
 19 25  1  0  0  0  0
 20 26  1  0  0  0  0
 20 19  2  0  0  0  0
 21 20  1  0  0  0  0
 22 21  2  0  0  0  0
 22 23  1  0  0  0  0
 23 18  2  0  0  0  0
M  END
>  <minimizedAffinity>
-4.49852133

>  <minimizedRMSD>
1.59180546

$$$$
