
 OpenBabel03242508323D

 30 32  0  0  0  0  0  0  0  0999 V2000
   38.5800   28.4020   43.2280 C   0  0  0  0  0  0  0  0  0  0  0  0
   38.3210   27.1900   42.5410 C   0  0  0  0  0  0  0  0  0  0  0  0
   37.3960   27.2440   41.4760 C   0  0  0  0  0  0  0  0  0  0  0  0
   36.8240   28.4300   41.1820 N   0  0  0  0  0  0  0  0  0  0  0  0
   37.0970   29.5490   41.8570 C   0  0  0  0  0  0  0  0  0  0  0  0
   37.9770   29.5460   42.8850 N   0  0  0  0  0  0  0  0  0  0  0  0
   39.2780   28.4300   44.0550 H   0  0  0  0  0  0  0  0  0  0  0  0
   38.8710   26.3500   42.9200 H   0  0  0  0  0  0  0  0  0  0  0  0
   37.1630   25.9790   40.8020 C   0  0  0  0  0  0  0  0  0  0  0  0
   37.7900   25.8870   39.8800 H   0  0  0  0  0  0  0  0  0  0  0  0
   36.1190   25.9160   40.4430 H   0  0  0  0  0  0  0  0  0  0  0  0
   37.4630   24.7710   41.6620 C   0  0  0  0  0  0  0  0  0  0  0  0
   38.3740   24.9020   42.2690 H   0  0  0  0  0  0  0  0  0  0  0  0
   37.6940   23.9290   40.9620 H   0  0  0  0  0  0  0  0  0  0  0  0
   36.3440   24.3940   42.4030 O   0  0  0  0  0  0  0  0  0  0  0  0
   35.5190   24.7440   41.9530 H   0  0  0  0  0  0  0  0  0  0  0  0
   36.3970   30.6110   41.3730 O   0  0  0  0  0  0  0  0  0  0  0  0
   36.9980   31.5160   40.4970 C   0  0  0  0  0  0  0  0  0  0  0  0
   36.8300   31.7150   39.1570 N   0  0  0  0  0  0  0  0  0  0  0  0
   37.6210   32.6880   38.7770 O   0  0  0  0  0  0  0  0  0  0  0  0
   38.2770   33.0950   39.8540 C   0  0  0  0  0  0  0  0  0  0  0  0
   37.9120   32.3950   40.9140 N   0  0  0  0  0  0  0  0  0  0  0  0
   39.2560   34.1730   39.8170 C   0  0  0  0  0  0  0  0  0  0  0  0
   39.0600   35.4860   40.2040 C   0  0  0  0  0  0  0  0  0  0  0  0
   40.2170   36.2010   40.0200 C   0  0  0  0  0  0  0  0  0  0  0  0
   41.1120   35.2760   39.5120 C   0  0  0  0  0  0  0  0  0  0  0  0
   40.4960   34.1400   39.4220 O   0  0  0  0  0  0  0  0  0  0  0  0
   38.1510   35.9180   40.5940 H   0  0  0  0  0  0  0  0  0  0  0  0
   40.4780   37.2420   40.1980 H   0  0  0  0  0  0  0  0  0  0  0  0
   42.1480   35.3930   39.2190 H   0  0  0  0  0  0  0  0  0  0  0  0
  1  7  1  0  0  0  0
  2  8  1  0  0  0  0
  2  1  2  0  0  0  0
  3  2  1  0  0  0  0
  4  3  2  0  0  0  0
  4  5  1  0  0  0  0
  5  6  2  0  0  0  0
  6  1  1  0  0  0  0
  9  3  1  0  0  0  0
  9 12  1  0  0  0  0
 10  9  1  0  0  0  0
 11  9  1  0  0  0  0
 12 13  1  0  0  0  0
 12 15  1  0  0  0  0
 14 12  1  0  0  0  0
 16 15  1  0  0  0  0
 17  5  1  0  0  0  0
 18 22  1  0  0  0  0
 18 17  1  0  0  0  0
 19 18  2  0  0  0  0
 20 19  1  0  0  0  0
 20 21  1  0  0  0  0
 21 22  2  0  0  0  0
 23 21  1  0  0  0  0
 23 24  2  0  0  0  0
 24 28  1  0  0  0  0
 25 29  1  0  0  0  0
 25 24  1  0  0  0  0
 26 25  2  0  0  0  0
 27 26  1  0  0  0  0
 27 23  1  0  0  0  0
 30 26  1  0  0  0  0
M  END
>  <minimizedAffinity>
-5.25021362

>  <minimizedRMSD>
0.360822171

$$$$
