
 OpenBabel03242506403D

 15 15  0  0  0  0  0  0  0  0999 V2000
   37.9480   28.7720   43.4220 C   0  0  0  0  0  0  0  0  0  0  0  0
   37.9660   27.3700   43.4400 C   0  0  0  0  0  0  0  0  0  0  0  0
   37.3170   26.6930   42.4140 C   0  0  0  0  0  0  0  0  0  0  0  0
   36.6940   27.4310   41.4380 N   0  0  0  0  0  0  0  0  0  0  0  0
   36.7010   28.7710   41.4590 C   0  0  0  0  0  0  0  0  0  0  0  0
   37.3190   29.4340   42.4370 N   0  0  0  0  0  0  0  0  0  0  0  0
   38.4630   29.2690   44.2370 H   0  0  0  0  0  0  0  0  0  0  0  0
   38.4640   26.8030   44.2220 H   0  0  0  0  0  0  0  0  0  0  0  0
   36.1980   29.3410   40.6720 H   0  0  0  0  0  0  0  0  0  0  0  0
   37.3470   25.3170   42.4510 O   0  0  0  0  0  0  0  0  0  0  0  0
   38.6060   24.7150   42.2600 C   0  0  0  0  0  0  0  0  0  0  0  0
   39.3990   23.9330   43.1510 N   0  0  0  0  0  0  0  0  0  0  0  0
   39.1070   24.8940   41.1190 O   0  0  0  0  0  0  0  0  0  0  0  0
   39.5570   24.6240   43.9200 H   0  0  0  0  0  0  0  0  0  0  0  0
   39.6490   22.9410   42.9050 H   0  0  0  0  0  0  0  0  0  0  0  0
  1  2  1  0  0  0  0
  1  7  1  0  0  0  0
  2  8  1  0  0  0  0
  3 10  1  0  0  0  0
  3  2  2  0  0  0  0
  4  5  2  0  0  0  0
  4  3  1  0  0  0  0
  5  6  1  0  0  0  0
  6  1  2  0  0  0  0
  9  5  1  0  0  0  0
 11 10  1  0  0  0  0
 11 12  1  0  0  0  0
 12 14  1  0  0  0  0
 13 11  2  0  0  0  0
 15 12  1  0  0  0  0
M  END
>  <minimizedAffinity>
-3.19590306

>  <minimizedRMSD>
1.01622963

$$$$
