
 OpenBabel03242503373D

 44 47  0  0  1  0  0  0  0  0999 V2000
   39.8920   32.3010   39.5620 N   0  0  0  0  0  0  0  0  0  0  0  0
   38.9340   33.2140   39.7630 C   0  0  0  0  0  0  0  0  0  0  0  0
   37.6900   32.8950   40.2650 C   0  0  0  0  0  0  0  0  0  0  0  0
   37.3850   31.5710   40.5890 C   0  0  0  0  0  0  0  0  0  0  0  0
   36.2690   31.2800   41.0390 O   0  0  0  0  0  0  0  0  0  0  0  0
   38.3900   30.6750   40.3680 N   0  0  0  0  0  0  0  0  0  0  0  0
   39.5720   31.0480   39.8790 C   0  0  0  0  0  0  0  0  0  0  0  0
   40.4440   30.1300   39.7100 O   0  0  0  0  0  0  0  0  0  0  0  0
   39.1170   34.2610   39.5290 H   0  0  0  0  0  0  0  0  0  0  0  0
   36.9440   33.6740   40.4110 H   0  0  0  0  0  0  0  0  0  0  0  0
   38.0910   29.3180   40.6940 C   0  0  2  0  0  0  0  0  0  0  0  0
   37.0390   28.6500   39.9720 C   0  0  0  0  0  0  0  0  0  0  0  0
   36.6680   27.4740   40.8860 C   0  0  0  0  0  0  0  0  0  0  0  0
   36.7000   28.0910   42.2320 C   0  0  0  0  0  0  0  0  0  0  0  0
   37.7710   29.1400   42.1900 C   0  0  1  0  0  0  0  0  0  0  0  0
   39.0390   28.7110   40.5770 H   0  0  0  0  0  0  0  0  0  0  0  0
   37.4040   28.2820   38.9880 H   0  0  0  0  0  0  0  0  0  0  0  0
   36.1250   29.2540   39.7620 H   0  0  0  0  0  0  0  0  0  0  0  0
   37.4510   26.7070   40.7460 H   0  0  0  0  0  0  0  0  0  0  0  0
   35.6620   27.0900   40.5910 H   0  0  0  0  0  0  0  0  0  0  0  0
   37.0120   27.3220   42.9760 H   0  0  0  0  0  0  0  0  0  0  0  0
   35.7090   28.4780   42.5380 H   0  0  0  0  0  0  0  0  0  0  0  0
   37.3460   30.0470   42.6420 H   0  0  0  0  0  0  0  0  0  0  0  0
   38.9880   28.8140   42.9930 C   0  0  0  0  0  0  0  0  0  0  0  0
   39.5320   29.7560   43.2270 H   0  0  0  0  0  0  0  0  0  0  0  0
   39.7080   28.1890   42.4050 H   0  0  0  0  0  0  0  0  0  0  0  0
   38.7230   28.2430   43.8950 H   0  0  0  0  0  0  0  0  0  0  0  0
   41.1640   32.6240   39.0510 C   0  0  0  0  0  0  0  0  0  0  0  0
   41.3780   33.3010   37.8130 C   0  0  0  0  0  0  0  0  0  0  0  0
   42.6930   33.5480   37.4300 C   0  0  0  0  0  0  0  0  0  0  0  0
   43.6740   33.1410   38.2400 N   0  0  0  0  0  0  0  0  0  0  0  0
   43.4670   32.5160   39.3840 C   0  0  0  0  0  0  0  0  0  0  0  0
   42.2160   32.2780   39.7530 N   0  0  0  0  0  0  0  0  0  0  0  0
   40.4970   33.5770   37.2500 H   0  0  0  0  0  0  0  0  0  0  0  0
   42.8540   34.0590   36.4960 H   0  0  0  0  0  0  0  0  0  0  0  0
   44.5190   32.0950   40.2170 O   0  0  0  0  0  0  0  0  0  0  0  0
   45.1360   33.0400   40.9960 C   0  0  0  0  0  0  0  0  0  0  0  0
   46.3500   33.1320   40.5330 O   0  0  0  0  0  0  0  0  0  0  0  0
   45.0520   33.9850   42.0960 N   0  0  0  0  0  0  0  0  0  0  0  0
   46.0470   34.7010   42.8730 C   0  0  0  0  0  0  0  0  0  0  0  0
   45.6780   36.1420   42.4910 C   0  0  0  0  0  0  0  0  0  0  0  0
   44.1650   36.0690   42.7490 C   0  0  0  0  0  0  0  0  0  0  0  0
   43.9430   34.5620   42.8100 C   0  0  0  0  0  0  0  0  0  0  0  0
   42.9610   34.3780   42.3470 H   0  0  0  0  0  0  0  0  0  0  0  0
  1  2  1  0  0  0  0
  1  7  1  0  0  0  0
  2  3  2  0  0  0  0
  3 10  1  0  0  0  0
  3  4  1  0  0  0  0
  4  5  2  0  0  0  0
  6  4  1  0  0  0  0
  6 11  1  0  0  0  0
  7  6  1  0  0  0  0
  8  7  2  0  0  0  0
  9  2  1  0  0  0  0
 11 16  1  6  0  0  0
 11 15  1  0  0  0  0
 12 11  1  0  0  0  0
 12 13  1  0  0  0  0
 13 14  1  0  0  0  0
 14 22  1  0  0  0  0
 14 21  1  0  0  0  0
 15 14  1  0  0  0  0
 15 23  1  1  0  0  0
 15 24  1  0  0  0  0
 17 12  1  0  0  0  0
 18 12  1  0  0  0  0
 19 13  1  0  0  0  0
 20 13  1  0  0  0  0
 24 25  1  0  0  0  0
 24 27  1  0  0  0  0
 26 24  1  0  0  0  0
 28  1  1  0  0  0  0
 28 33  1  0  0  0  0
 29 28  2  0  0  0  0
 30 29  1  0  0  0  0
 30 31  2  0  0  0  0
 31 32  1  0  0  0  0
 32 33  2  0  0  0  0
 32 36  1  0  0  0  0
 34 29  1  0  0  0  0
 35 30  1  0  0  0  0
 36 37  1  0  0  0  0
 37 39  1  0  0  0  0
 38 37  2  0  0  0  0
 39 43  1  0  0  0  0
 39 40  1  0  0  0  0
 41 42  1  0  0  0  0
 41 40  1  0  0  0  0
 42 43  1  0  0  0  0
 44 43  1  0  0  0  0
M  END
>  <minimizedAffinity>
-6.22021008

>  <minimizedRMSD>
5.78196478

$$$$
