
 OpenBabel03242501113D

 29 31  0  0  0  0  0  0  0  0999 V2000
   38.2850   26.5320   42.2190 C   0  0  0  0  0  0  0  0  0  0  0  0
   39.0660   26.5960   43.2910 N   0  0  0  0  0  0  0  0  0  0  0  0
   39.3080   27.8500   43.5710 O   0  0  0  0  0  0  0  0  0  0  0  0
   38.7060   28.6350   42.7110 C   0  0  0  0  0  0  0  0  0  0  0  0
   38.0660   27.8030   41.8660 N   0  0  0  0  0  0  0  0  0  0  0  0
   36.6320   24.0270   40.2250 C   0  0  0  0  0  0  0  0  0  0  0  0
   37.4440   23.2920   41.0270 N   0  0  0  0  0  0  0  0  0  0  0  0
   38.1120   24.0990   41.8160 O   0  0  0  0  0  0  0  0  0  0  0  0
   37.7670   25.3480   41.5580 C   0  0  0  0  0  0  0  0  0  0  0  0
   36.8530   25.3240   40.5780 N   0  0  0  0  0  0  0  0  0  0  0  0
   34.2940   24.0040   37.2650 C   0  0  0  0  0  0  0  0  0  0  0  0
   35.1990   24.5120   38.1880 C   0  0  0  0  0  0  0  0  0  0  0  0
   35.6790   23.6740   39.1720 C   0  0  0  0  0  0  0  0  0  0  0  0
   35.2510   22.3650   39.2150 N   0  0  0  0  0  0  0  0  0  0  0  0
   34.3590   21.9320   38.2770 C   0  0  0  0  0  0  0  0  0  0  0  0
   33.8890   22.7300   37.3230 N   0  0  0  0  0  0  0  0  0  0  0  0
   33.9310   24.6760   36.5020 H   0  0  0  0  0  0  0  0  0  0  0  0
   35.5740   25.5270   38.2070 H   0  0  0  0  0  0  0  0  0  0  0  0
   34.0650   20.8950   38.3690 H   0  0  0  0  0  0  0  0  0  0  0  0
   38.7140   30.1100   42.6600 C   0  0  0  0  0  0  0  0  0  0  0  0
   39.6870   30.5510   42.8530 H   0  0  0  0  0  0  0  0  0  0  0  0
   37.9860   30.4370   43.4600 H   0  0  0  0  0  0  0  0  0  0  0  0
   38.2280   30.5170   41.3490 N   0  0  0  0  0  0  0  0  0  0  0  0
   38.8710   30.3770   40.5110 H   0  0  0  0  0  0  0  0  0  0  0  0
   36.9900   31.0890   41.0080 C   0  0  0  0  0  0  0  0  0  0  0  0
   36.8730   32.3640   40.3900 N   0  0  0  0  0  0  0  0  0  0  0  0
   35.9330   30.4940   41.2370 O   0  0  0  0  0  0  0  0  0  0  0  0
   36.9120   32.0540   39.3770 H   0  0  0  0  0  0  0  0  0  0  0  0
   36.7720   33.3760   40.6650 H   0  0  0  0  0  0  0  0  0  0  0  0
  1  2  2  0  0  0  0
  2  3  1  0  0  0  0
  4  3  1  0  0  0  0
  5  1  1  0  0  0  0
  5  4  2  0  0  0  0
  6 10  1  0  0  0  0
  6  7  2  0  0  0  0
  7  8  1  0  0  0  0
  9  8  1  0  0  0  0
  9  1  1  0  0  0  0
 10  9  2  0  0  0  0
 11 16  2  0  0  0  0
 11 12  1  0  0  0  0
 12 18  1  0  0  0  0
 12 13  2  0  0  0  0
 13 14  1  0  0  0  0
 13  6  1  0  0  0  0
 15 19  1  0  0  0  0
 15 14  2  0  0  0  0
 16 15  1  0  0  0  0
 17 11  1  0  0  0  0
 20  4  1  0  0  0  0
 20 21  1  0  0  0  0
 20 22  1  0  0  0  0
 23 20  1  0  0  0  0
 24 23  1  0  0  0  0
 25 27  2  0  0  0  0
 25 23  1  0  0  0  0
 26 29  1  0  0  0  0
 26 25  1  0  0  0  0
 28 26  1  0  0  0  0
M  END
>  <minimizedAffinity>
-4.48617649

>  <minimizedRMSD>
4.30968904

$$$$
