
     RDKit          3D

 41 45  0  0  0  0  0  0  0  0999 V2000
   38.5760   29.9702   41.4715 C   0  0  1  0  0  0  0  0  0  0  0  0
   38.2086   29.7148   42.8830 C   0  0  0  0  0  0  0  0  0  0  0  0
   37.2247   29.2514   41.9027 C   0  0  2  0  0  0  0  0  0  0  0  0
   38.3839   31.3359   40.9014 C   0  0  0  0  0  0  0  0  0  0  0  0
   37.4744   31.4540   39.8695 C   0  0  0  0  0  0  0  0  0  0  0  0
   37.2441   32.7169   39.3020 C   0  0  0  0  0  0  0  0  0  0  0  0
   37.9458   33.7829   39.8114 N   0  0  0  0  0  0  0  0  0  0  0  0
   38.8195   33.6277   40.8135 C   0  0  0  0  0  0  0  0  0  0  0  0
   39.0088   32.3968   41.3273 N   0  0  0  0  0  0  0  0  0  0  0  0
   37.1902   27.8252   41.5748 C   0  0  0  0  0  0  0  0  0  0  0  0
   37.5460   26.8242   42.4624 C   0  0  0  0  0  0  0  0  0  0  0  0
   37.3949   25.4951   42.2254 C   0  0  0  0  0  0  0  0  0  0  0  0
   36.8517   25.1240   41.0157 C   0  0  0  0  0  0  0  0  0  0  0  0
   36.4911   26.0860   40.1157 C   0  0  0  0  0  0  0  0  0  0  0  0
   36.6673   27.4699   40.4108 C   0  0  0  0  0  0  0  0  0  0  0  0
   39.3519   29.3521   41.0485 H   0  0  0  0  0  0  0  0  0  0  0  0
   37.9673   30.6447   43.4781 H   0  0  0  0  0  0  0  0  0  0  0  0
   38.8449   29.0198   43.4595 H   0  0  0  0  0  0  0  0  0  0  0  0
   36.4119   29.8836   41.4405 H   0  0  0  0  0  0  0  0  0  0  0  0
   36.8529   30.7665   39.3578 H   0  0  0  0  0  0  0  0  0  0  0  0
   36.5731   32.9762   38.4974 H   0  0  0  0  0  0  0  0  0  0  0  0
   39.3884   34.4512   41.2368 H   0  0  0  0  0  0  0  0  0  0  0  0
   37.9789   27.1475   43.4196 H   0  0  0  0  0  0  0  0  0  0  0  0
   37.7082   24.7973   42.9972 H   0  0  0  0  0  0  0  0  0  0  0  0
   36.7640   24.0478   40.9019 H   0  0  0  0  0  0  0  0  0  0  0  0
   36.0847   25.6032   39.2178 H   0  0  0  0  0  0  0  0  0  0  0  0
   36.1627   28.1394   39.2657 N   0  0  0  0  0  0  0  0  0  0  0  0
   36.7675   28.2909   38.0449 C   0  0  0  0  0  0  0  0  0  0  0  0
   35.9369   28.9705   37.2273 N   0  0  0  0  0  0  0  0  0  0  0  0
   34.8462   29.2237   37.9493 C   0  0  0  0  0  0  0  0  0  0  0  0
   33.6703   29.8907   37.6208 C   0  0  0  0  0  0  0  0  0  0  0  0
   33.5147   30.3790   36.4537 O   0  0  0  0  0  0  0  0  0  0  0  0
   32.6714   30.0359   38.5259 N   0  0  0  0  0  0  0  0  0  0  0  0
   32.7772   29.5406   39.7782 C   0  0  0  0  0  0  0  0  0  0  0  0
   31.7346   29.6882   40.7338 N   0  0  0  0  0  0  0  0  0  0  0  0
   33.9188   28.8811   40.1306 N   0  0  0  0  0  0  0  0  0  0  0  0
   34.9247   28.7223   39.2552 C   0  0  0  0  0  0  0  0  0  0  0  0
   37.7649   27.8819   37.8829 H   0  0  0  0  0  0  0  0  0  0  0  0
   31.8079   30.5489   38.2193 H   0  0  0  0  0  0  0  0  0  0  0  0
   31.2147   28.7729   40.8475 H   0  0  0  0  0  0  0  0  0  0  0  0
   31.4264   30.4902   41.2944 H   0  0  0  0  0  0  0  0  0  0  0  0
  1  3  1  0
  1  2  1  0
  3  2  1  0
  4  9  1  0
  4  1  1  0
  5  4  2  0
  6  7  2  0
  6  5  1  0
  7  8  1  0
  8  9  2  0
 10  3  1  0
 10 11  2  0
 12 11  1  0
 13 12  2  0
 14 15  2  0
 14 13  1  0
 15 10  1  0
  1 16  1  6
  2 17  1  0
  2 18  1  0
  3 19  1  1
  5 20  1  0
  6 21  1  0
  8 22  1  0
 11 23  1  0
 12 24  1  0
 13 25  1  0
 14 26  1  0
 27 28  1  0
 28 29  2  0
 29 30  1  0
 30 31  1  0
 31 32  2  0
 31 33  1  0
 33 34  1  0
 34 35  1  0
 34 36  2  0
 36 37  1  0
 37 27  1  0
 37 30  2  0
 28 38  1  0
 33 39  1  0
 35 40  1  0
 35 41  1  0
 15 27  1  0
M  ISO  8  16  13  17  13  18  13  19  13  20  14  21  14  22  14  23  14
M  ISO  3  24  14  25  14  26  14
M  END
>  <DihAtoms>  (1) 
13,14,26,27

>  <DihDeg>  (1) 
-76.84864537254087

$$$$
