REMARK  Name = 
REMARK  3 active torsions:
REMARK  status: ('A' for Active; 'I' for Inactive)
REMARK    1  A    between atoms: C_1  and  C_4
REMARK    2  A    between atoms: C_3  and  C_10
REMARK    3  A    between atoms: C_15  and  N_27
REMARK                            x       y       z     vdW  Elec       q    Type
REMARK                         _______ _______ _______ _____ _____    ______ ____
ROOT
ATOM      1  C   UNL     1      37.190  27.825  41.575  0.00  0.00    +0.000 A 
ATOM      2  C   UNL     1      37.546  26.824  42.462  0.00  0.00    +0.000 A 
ATOM      3  C   UNL     1      37.395  25.495  42.225  0.00  0.00    +0.000 A 
ATOM      4  C   UNL     1      36.852  25.124  41.016  0.00  0.00    +0.000 A 
ATOM      5  C   UNL     1      36.491  26.086  40.116  0.00  0.00    +0.000 A 
ATOM      6  C   UNL     1      36.667  27.470  40.411  0.00  0.00    +0.000 A 
ATOM      7  H   UNL     1      37.979  27.148  43.420  0.00  0.00    +0.000 HD
ATOM      8  H   UNL     1      37.708  24.797  42.997  0.00  0.00    +0.000 HD
ATOM      9  H   UNL     1      36.764  24.048  40.902  0.00  0.00    +0.000 HD
ATOM     10  H   UNL     1      36.085  25.603  39.218  0.00  0.00    +0.000 HD
ENDROOT
BRANCH   6  11
ATOM     11  N   UNL     1      36.163  28.139  39.266  0.00  0.00    +0.000 N 
ATOM     12  C   UNL     1      36.767  28.291  38.045  0.00  0.00    +0.000 A 
ATOM     13  N   UNL     1      35.937  28.971  37.227  0.00  0.00    +0.000 NA
ATOM     14  C   UNL     1      34.846  29.224  37.949  0.00  0.00    +0.000 A 
ATOM     15  C   UNL     1      33.670  29.891  37.621  0.00  0.00    +0.000 A 
ATOM     16  O   UNL     1      33.515  30.379  36.454  0.00  0.00    +0.000 OA
ATOM     17  N   UNL     1      32.671  30.036  38.526  0.00  0.00    +0.000 N 
ATOM     18  C   UNL     1      32.777  29.541  39.778  0.00  0.00    +0.000 A 
ATOM     19  N   UNL     1      31.735  29.688  40.734  0.00  0.00    +0.000 N 
ATOM     20  N   UNL     1      33.919  28.881  40.131  0.00  0.00    +0.000 NA
ATOM     21  C   UNL     1      34.925  28.722  39.255  0.00  0.00    +0.000 A 
ATOM     22  H   UNL     1      31.808  30.549  38.219  0.00  0.00    +0.000 HD
ATOM     23  H   UNL     1      31.215  28.773  40.847  0.00  0.00    +0.000 HD
ATOM     24  H   UNL     1      31.426  30.490  41.294  0.00  0.00    +0.000 HD
ENDBRANCH   6  11
BRANCH   1  27
ATOM     25  C   UNL     1      38.576  29.970  41.471  0.00  0.00    +0.000 C 
ATOM     26  C   UNL     1      38.209  29.715  42.883  0.00  0.00    +0.000 C 
ATOM     27  C   UNL     1      37.225  29.251  41.903  0.00  0.00    +0.000 C 
ATOM     28  H   UNL     1      39.352  29.352  41.048  0.00  0.00    +0.000 HD
ATOM     29  H   UNL     1      37.967  30.645  43.478  0.00  0.00    +0.000 HD
ATOM     30  H   UNL     1      38.845  29.020  43.459  0.00  0.00    +0.000 HD
ATOM     31  H   UNL     1      36.412  29.884  41.441  0.00  0.00    +0.000 HD
BRANCH  25  32
ATOM     32  C   UNL     1      38.384  31.336  40.901  0.00  0.00    +0.000 A 
ATOM     33  C   UNL     1      37.474  31.454  39.870  0.00  0.00    +0.000 A 
ATOM     34  C   UNL     1      37.244  32.717  39.302  0.00  0.00    +0.000 A 
ATOM     35  N   UNL     1      37.946  33.783  39.811  0.00  0.00    +0.000 NA
ATOM     36  C   UNL     1      38.819  33.628  40.813  0.00  0.00    +0.000 A 
ATOM     37  N   UNL     1      39.009  32.397  41.327  0.00  0.00    +0.000 NA
ATOM     38  H   UNL     1      36.853  30.767  39.358  0.00  0.00    +0.000 HD
ATOM     39  H   UNL     1      36.573  32.976  38.497  0.00  0.00    +0.000 HD
ATOM     40  H   UNL     1      39.388  34.451  41.237  0.00  0.00    +0.000 HD
ENDBRANCH  25  32
ENDBRANCH   1  27
TORSDOF 3
