
 OpenBabel03242509303D

 26 28  0  0  0  0  0  0  0  0999 V2000
   38.0820   28.4500   43.5600 C   0  0  0  0  0  0  0  0  0  0  0  0
   38.6100   27.1280   43.5940 C   0  0  0  0  0  0  0  0  0  0  0  0
   38.2310   26.2810   42.5500 C   0  0  0  0  0  0  0  0  0  0  0  0
   37.3890   26.7500   41.5670 N   0  0  0  0  0  0  0  0  0  0  0  0
   36.9280   28.0100   41.5960 C   0  0  0  0  0  0  0  0  0  0  0  0
   37.2650   28.8530   42.5750 N   0  0  0  0  0  0  0  0  0  0  0  0
   38.3340   29.1600   44.3370 H   0  0  0  0  0  0  0  0  0  0  0  0
   39.2580   26.8390   44.3920 H   0  0  0  0  0  0  0  0  0  0  0  0
   36.0770   28.2650   40.4770 N   0  0  0  0  0  0  0  0  0  0  0  0
   35.0610   29.1640   40.3340 C   0  0  0  0  0  3  0  0  0  0  0  0
   34.5630   29.0160   39.0810 N   0  0  0  0  0  0  0  0  0  0  0  0
   35.2510   28.0430   38.4500 C   0  0  0  0  0  0  0  0  0  0  0  0
   35.0720   27.5690   37.1590 C   0  0  0  0  0  0  0  0  0  0  0  0
   34.1790   28.0420   36.3950 O   0  0  0  0  0  0  0  0  0  0  0  0
   35.8800   26.5840   36.7340 N   0  0  0  0  0  0  0  0  0  0  0  0
   36.8100   26.1140   37.5730 C   0  0  0  0  0  0  0  0  0  0  0  0
   37.7180   25.0740   37.2290 N   0  0  0  0  0  0  0  0  0  0  0  0
   36.9720   26.5800   38.8170 N   0  0  0  0  0  0  0  0  0  0  0  0
   36.2000   27.5740   39.3280 C   0  0  0  0  0  0  0  0  0  0  0  0
   35.7930   26.1900   35.7770 H   0  0  0  0  0  0  0  0  0  0  0  0
   37.2170   24.1860   37.4530 H   0  0  0  0  0  0  0  0  0  0  0  0
   38.6580   24.8250   36.8550 H   0  0  0  0  0  0  0  0  0  0  0  0
   38.7530   24.8850   42.5340 C   0  0  0  0  0  0  0  0  0  0  0  0
   39.4730   24.7500   41.3660 F   0  0  0  0  0  0  0  0  0  0  0  0
   39.5880   24.6310   43.5900 F   0  0  0  0  0  0  0  0  0  0  0  0
   37.7110   23.9480   42.5260 F   0  0  0  0  0  0  0  0  0  0  0  0
  1  2  1  0  0  0  0
  1  7  1  0  0  0  0
  2  8  1  0  0  0  0
  3  2  2  0  0  0  0
  4  5  2  0  0  0  0
  4  3  1  0  0  0  0
  5  6  1  0  0  0  0
  6  1  2  0  0  0  0
  9  5  1  0  0  0  0
 10  9  1  0  0  0  0
 11 10  2  0  0  0  0
 12 11  1  0  0  0  0
 12 19  2  0  0  0  0
 13 12  1  0  0  0  0
 14 13  2  0  0  0  0
 15 13  1  0  0  0  0
 15 16  1  0  0  0  0
 16 18  2  0  0  0  0
 17 21  1  0  0  0  0
 17 16  1  0  0  0  0
 18 19  1  0  0  0  0
 19  9  1  0  0  0  0
 20 15  1  0  0  0  0
 22 17  1  0  0  0  0
 23  3  1  0  0  0  0
 23 25  1  0  0  0  0
 24 23  1  0  0  0  0
 26 23  1  0  0  0  0
M  END
>  <minimizedAffinity>
-5.0753684

>  <minimizedRMSD>
1.42244077

$$$$
