
     RDKit          3D

 27 29  0  0  0  0  0  0  0  0999 V2000
   37.9686   28.8801   43.3685 C   0  0  0  0  0  0  0  0  0  0  0  0
   38.0896   27.4633   43.3138 C   0  0  0  0  0  0  0  0  0  0  0  0
   37.4401   26.8239   42.2564 C   0  0  0  0  0  0  0  0  0  0  0  0
   36.7333   27.5729   41.3423 N   0  0  0  0  0  0  0  0  0  0  0  0
   36.6595   28.9078   41.4529 C   0  0  0  0  0  0  0  0  0  0  0  0
   37.2660   29.5592   42.4492 N   0  0  0  0  0  0  0  0  0  0  0  0
   37.5322   25.3396   42.1484 C   0  0  0  0  0  0  0  0  0  0  0  0
   37.6498   25.0506   40.8046 F   0  0  0  0  0  0  0  0  0  0  0  0
   38.6304   24.8395   42.7985 F   0  0  0  0  0  0  0  0  0  0  0  0
   36.3763   24.7180   42.6384 F   0  0  0  0  0  0  0  0  0  0  0  0
   38.4467   29.4396   44.1614 H   0  0  0  0  0  0  0  0  0  0  0  0
   38.6565   26.9517   44.0615 H   0  0  0  0  0  0  0  0  0  0  0  0
   35.8765   29.4635   40.3953 N   0  0  0  0  0  0  0  0  0  0  0  0
   35.6138   30.7654   40.0878 C   0  0  0  0  0  0  0  0  0  0  0  0
   34.8179   30.7705   38.9893 N   0  0  0  0  0  0  0  0  0  0  0  0
   34.5854   29.4968   38.6140 C   0  0  0  0  0  0  0  0  0  0  0  0
   33.8254   29.0462   37.5457 C   0  0  0  0  0  0  0  0  0  0  0  0
   33.2343   29.8492   36.7635 O   0  0  0  0  0  0  0  0  0  0  0  0
   33.7294   27.7187   37.3569 N   0  0  0  0  0  0  0  0  0  0  0  0
   34.3690   26.9068   38.2055 C   0  0  0  0  0  0  0  0  0  0  0  0
   34.3378   25.4874   38.1023 N   0  0  0  0  0  0  0  0  0  0  0  0
   35.0997   27.3539   39.2335 N   0  0  0  0  0  0  0  0  0  0  0  0
   35.2501   28.6786   39.4971 C   0  0  0  0  0  0  0  0  0  0  0  0
   36.0205   31.5977   40.6845 H   0  0  0  0  0  0  0  0  0  0  0  0
   33.1745   27.3241   36.5740 H   0  0  0  0  0  0  0  0  0  0  0  0
   33.4847   25.1924   38.6265 H   0  0  0  0  0  0  0  0  0  0  0  0
   34.7978   24.6297   37.7313 H   0  0  0  0  0  0  0  0  0  0  0  0
  2  1  2  0
  3  2  1  0
  4  5  1  0
  4  3  2  0
  5  6  2  0
  6  1  1  0
  7  3  1  0
  7 10  1  0
  7  9  1  0
  8  7  1  0
  1 11  1  0
  2 12  1  0
 13 14  1  0
 14 15  2  0
 15 16  1  0
 16 17  1  0
 17 18  2  0
 17 19  1  0
 19 20  1  0
 20 21  1  0
 20 22  2  0
 22 23  1  0
 23 13  1  0
 23 16  2  0
 14 24  1  0
 19 25  1  0
 21 26  1  0
 21 27  1  0
  5 13  1  0
M  ISO  2  11  14  12  14
M  END
>  <DihAtoms>  (1) 
3,4,12,13

>  <DihDeg>  (1) 
49.180855720071584

$$$$
