
 OpenBabel03242508193D

 36 40  0  0  0  0  0  0  0  0999 V2000
   39.8280   26.4640   43.9500 C   0  0  0  0  0  0  0  0  0  0  0  0
   40.2560   25.5860   42.9590 C   0  0  0  0  0  0  0  0  0  0  0  0
   40.0170   25.9570   41.6220 C   0  0  0  0  0  0  0  0  0  0  0  0
   39.3880   27.1380   41.3840 N   0  0  0  0  0  0  0  0  0  0  0  0
   38.9880   27.9640   42.3920 C   0  0  0  0  0  0  0  0  0  0  0  0
   39.2090   27.6250   43.6780 N   0  0  0  0  0  0  0  0  0  0  0  0
   38.3540   29.1370   41.8790 N   0  0  0  0  0  0  0  0  0  0  0  0
   36.9940   29.1750   41.7070 C   0  0  0  0  0  0  0  0  0  0  0  0
   36.6380   30.3800   41.2150 N   0  0  0  0  0  0  0  0  0  0  0  0
   37.7610   31.1090   41.0720 C   0  0  0  0  0  0  0  0  0  0  0  0
   38.0460   32.3920   40.6250 C   0  0  0  0  0  0  0  0  0  0  0  0
   39.3310   32.8210   40.6130 N   0  0  0  0  0  0  0  0  0  0  0  0
   40.3460   32.0250   41.0280 C   0  0  0  0  0  0  0  0  0  0  0  0
   40.0820   30.7650   41.4690 N   0  0  0  0  0  0  0  0  0  0  0  0
   38.7990   30.3130   41.4900 C   0  0  0  0  0  0  0  0  0  0  0  0
   36.9130   33.1290   40.2190 N   0  0  0  0  0  0  0  0  0  0  0  0
   39.9940   26.2160   44.9810 H   0  0  0  0  0  0  0  0  0  0  0  0
   40.7500   24.6590   43.1500 H   0  0  0  0  0  0  0  0  0  0  0  0
   40.3190   25.3280   40.7920 H   0  0  0  0  0  0  0  0  0  0  0  0
   36.2880   28.3770   41.9250 H   0  0  0  0  0  0  0  0  0  0  0  0
   36.1440   32.7350   39.6360 H   0  0  0  0  0  0  0  0  0  0  0  0
   36.8760   34.1150   40.5320 H   0  0  0  0  0  0  0  0  0  0  0  0
   41.6670   32.5540   40.9840 N   0  0  0  0  0  0  0  0  0  0  0  0
   42.4720   32.4950   42.0840 C   0  0  0  0  0  0  0  0  0  0  0  0
   43.6700   33.0390   41.8510 N   0  0  0  0  0  0  0  0  0  0  0  0
   43.6640   33.4630   40.5910 C   0  0  0  0  0  0  0  0  0  0  0  0
   44.5590   34.0980   39.7400 C   0  0  0  0  0  0  0  0  0  0  0  0
   45.6930   34.3840   40.1960 O   0  0  0  0  0  0  0  0  0  0  0  0
   44.1660   34.3720   38.4770 N   0  0  0  0  0  0  0  0  0  0  0  0
   42.9520   34.0670   37.9850 C   0  0  0  0  0  0  0  0  0  0  0  0
   42.7790   34.4560   36.6370 N   0  0  0  0  0  0  0  0  0  0  0  0
   42.0460   33.4410   38.7950 N   0  0  0  0  0  0  0  0  0  0  0  0
   42.4300   33.1630   40.0590 C   0  0  0  0  0  0  0  0  0  0  0  0
   44.9320   34.8560   37.9240 H   0  0  0  0  0  0  0  0  0  0  0  0
   43.5190   34.2280   35.9090 H   0  0  0  0  0  0  0  0  0  0  0  0
   42.0030   34.9660   36.1770 H   0  0  0  0  0  0  0  0  0  0  0  0
  1 17  1  0  0  0  0
  2 18  1  0  0  0  0
  2  1  2  0  0  0  0
  3  2  1  0  0  0  0
  4  3  2  0  0  0  0
  4  5  1  0  0  0  0
  5  6  2  0  0  0  0
  6  1  1  0  0  0  0
  7  5  1  0  0  0  0
  8  7  1  0  0  0  0
  8 20  1  0  0  0  0
  9  8  2  0  0  0  0
 10  9  1  0  0  0  0
 10 15  1  0  0  0  0
 11 10  2  0  0  0  0
 12 11  1  0  0  0  0
 12 13  2  0  0  0  0
 13 14  1  0  0  0  0
 14 15  2  0  0  0  0
 15  7  1  0  0  0  0
 16 22  1  0  0  0  0
 16 11  1  0  0  0  0
 19  3  1  0  0  0  0
 21 16  1  0  0  0  0
 23 13  1  0  0  0  0
 23 24  1  0  0  0  0
 25 24  2  0  0  0  0
 26 25  1  0  0  0  0
 27 28  2  0  0  0  0
 27 26  1  0  0  0  0
 29 27  1  0  0  0  0
 30 29  1  0  0  0  0
 30 32  2  0  0  0  0
 31 30  1  0  0  0  0
 32 33  1  0  0  0  0
 33 26  2  0  0  0  0
 33 23  1  0  0  0  0
 34 29  1  0  0  0  0
 35 31  1  0  0  0  0
 36 31  1  0  0  0  0
M  END
>  <minimizedAffinity>
-8.33640766

>  <minimizedRMSD>
0.550764799

$$$$
