
 OpenBabel03242509093D

 44 49  0  0  1  0  0  0  0  0999 V2000
   36.1510   30.7970   41.0770 C   0  0  0  0  0  0  0  0  0  0  0  0
   36.7200   29.6580   41.6770 C   0  0  0  0  0  0  0  0  0  0  0  0
   38.1000   29.4910   41.6070 C   0  0  0  0  0  0  0  0  0  0  0  0
   38.8130   30.4480   40.9600 N   0  0  0  0  0  0  0  0  0  0  0  0
   38.2510   31.5350   40.3890 C   0  0  0  0  0  0  0  0  0  0  0  0
   36.9130   31.7150   40.4460 N   0  0  0  0  0  0  0  0  0  0  0  0
   35.0720   30.8810   41.1590 H   0  0  0  0  0  0  0  0  0  0  0  0
   36.1310   28.9080   42.1900 H   0  0  0  0  0  0  0  0  0  0  0  0
   38.6920   28.3150   42.2150 C   0  0  0  0  0  0  0  0  0  0  0  0
   39.7690   28.2490   43.0700 C   0  0  0  0  0  0  0  0  0  0  0  0
   39.9930   26.9520   43.3940 N   0  0  0  0  0  0  0  0  0  0  0  0
   39.1040   26.1620   42.7840 C   0  0  0  0  0  0  0  0  0  0  0  0
   38.8870   24.7920   42.7690 C   0  0  0  0  0  0  0  0  0  0  0  0
   37.8470   24.2280   42.0160 C   0  0  0  0  0  0  0  0  0  0  0  0
   37.0590   25.0930   41.2990 C   0  0  0  0  0  0  0  0  0  0  0  0
   37.2640   26.4450   41.3070 C   0  0  0  0  0  0  0  0  0  0  0  0
   38.2940   26.9990   42.0530 C   0  0  0  0  0  0  0  0  0  0  0  0
   40.3390   29.0880   43.4230 H   0  0  0  0  0  0  0  0  0  0  0  0
   40.7560   26.6200   44.0310 H   0  0  0  0  0  0  0  0  0  0  0  0
   39.5550   24.1760   43.3630 H   0  0  0  0  0  0  0  0  0  0  0  0
   37.6960   23.1680   42.0170 H   0  0  0  0  0  0  0  0  0  0  0  0
   36.2430   24.6680   40.7080 H   0  0  0  0  0  0  0  0  0  0  0  0
   36.6000   27.0620   40.7150 H   0  0  0  0  0  0  0  0  0  0  0  0
   39.1050   32.5460   39.6990 C   0  0  1  0  0  0  0  0  0  0  0  0
   39.2420   33.9220   40.3470 C   0  0  0  0  0  0  0  0  0  0  0  0
   40.3920   32.9610   40.3220 C   0  0  2  0  0  0  0  0  0  0  0  0
   39.0390   32.5600   38.5750 H   0  0  0  0  0  0  0  0  0  0  0  0
   38.6120   34.0440   41.2390 H   0  0  0  0  0  0  0  0  0  0  0  0
   39.2030   34.7650   39.6320 H   0  0  0  0  0  0  0  0  0  0  0  0
   40.5820   32.5070   41.3380 H   0  0  0  0  0  0  0  0  0  0  0  0
   41.5410   33.3050   39.5140 N   0  0  0  0  0  0  0  0  0  0  0  0
   41.9880   34.5340   39.1650 C   0  0  0  0  0  3  0  0  0  0  0  0
   43.0990   34.3430   38.3990 N   0  0  0  0  0  0  0  0  0  0  0  0
   43.3280   33.0030   38.2830 C   0  0  0  0  0  0  0  0  0  0  0  0
   44.3580   32.3600   37.5870 C   0  0  0  0  0  0  0  0  0  0  0  0
   45.2200   33.0320   36.9670 O   0  0  0  0  0  0  0  0  0  0  0  0
   44.3080   31.0180   37.6650 N   0  0  0  0  0  0  0  0  0  0  0  0
   43.3490   30.3740   38.3510 C   0  0  0  0  0  0  0  0  0  0  0  0
   43.3120   28.9540   38.4220 N   0  0  0  0  0  0  0  0  0  0  0  0
   42.3640   31.0190   39.0150 N   0  0  0  0  0  0  0  0  0  0  0  0
   42.3330   32.3560   38.9940 C   0  0  0  0  0  0  0  0  0  0  0  0
   45.0520   30.4860   37.1650 H   0  0  0  0  0  0  0  0  0  0  0  0
   42.8510   28.7590   37.5000 H   0  0  0  0  0  0  0  0  0  0  0  0
   43.5570   28.1150   39.0090 H   0  0  0  0  0  0  0  0  0  0  0  0
  1  7  1  0  0  0  0
  1  2  1  0  0  0  0
  2  8  1  0  0  0  0
  3  2  2  0  0  0  0
  3  9  1  0  0  0  0
  4  3  1  0  0  0  0
  5  6  1  0  0  0  0
  5  4  2  0  0  0  0
  6  1  2  0  0  0  0
  9 10  2  0  0  0  0
 10 11  1  0  0  0  0
 10 18  1  0  0  0  0
 11 19  1  0  0  0  0
 12 11  1  0  0  0  0
 13 12  1  0  0  0  0
 13 20  1  0  0  0  0
 14 21  1  0  0  0  0
 14 13  2  0  0  0  0
 15 16  2  0  0  0  0
 15 14  1  0  0  0  0
 16 17  1  0  0  0  0
 17  9  1  0  0  0  0
 17 12  2  0  0  0  0
 22 15  1  0  0  0  0
 23 16  1  0  0  0  0
 24 27  1  6  0  0  0
 24 26  1  0  0  0  0
 24 25  1  0  0  0  0
 24  5  1  0  0  0  0
 25 28  1  0  0  0  0
 26 25  1  0  0  0  0
 26 30  1  1  0  0  0
 29 25  1  0  0  0  0
 31 26  1  0  0  0  0
 32 31  1  0  0  0  0
 33 32  2  0  0  0  0
 34 33  1  0  0  0  0
 34 41  2  0  0  0  0
 35 37  1  0  0  0  0
 35 34  1  0  0  0  0
 36 35  2  0  0  0  0
 37 38  1  0  0  0  0
 38 39  1  0  0  0  0
 38 40  2  0  0  0  0
 39 44  1  0  0  0  0
 41 40  1  0  0  0  0
 41 31  1  0  0  0  0
 42 37  1  0  0  0  0
 43 39  1  0  0  0  0
M  END
>  <minimizedAffinity>
-6.40842867

>  <minimizedRMSD>
0.596464932

$$$$
