
 OpenBabel03242508033D

 35 38  0  0  0  0  0  0  0  0999 V2000
   38.8890   26.9820   41.4510 C   0  0  0  0  0  0  0  0  0  0  0  0
   38.6050   26.2210   40.3080 C   0  0  0  0  0  0  0  0  0  0  0  0
   38.4980   24.8170   40.4760 C   0  0  0  0  0  0  0  0  0  0  0  0
   38.6740   24.2900   41.7130 N   0  0  0  0  0  0  0  0  0  0  0  0
   38.9450   25.0590   42.7770 C   0  0  0  0  0  0  0  0  0  0  0  0
   39.0510   26.4090   42.6410 N   0  0  0  0  0  0  0  0  0  0  0  0
   38.2780   24.2110   39.5990 H   0  0  0  0  0  0  0  0  0  0  0  0
   39.0470   24.4420   43.6610 H   0  0  0  0  0  0  0  0  0  0  0  0
   39.0160   28.3960   41.3560 N   0  0  0  0  0  0  0  0  0  0  0  0
   39.9760   29.3350   41.4630 C   0  0  0  0  0  0  0  0  0  0  0  0
   39.4770   30.5470   41.2590 N   0  0  0  0  0  0  0  0  0  0  0  0
   38.1750   30.4050   41.0160 C   0  0  0  0  0  0  0  0  0  0  0  0
   37.2600   31.4020   40.7490 C   0  0  0  0  0  0  0  0  0  0  0  0
   37.5960   32.6140   40.7100 O   0  0  0  0  0  0  0  0  0  0  0  0
   35.9760   31.0740   40.5260 N   0  0  0  0  0  0  0  0  0  0  0  0
   35.6660   29.7660   40.5800 C   0  0  0  0  0  0  0  0  0  0  0  0
   34.3160   29.3470   40.3510 N   0  0  0  0  0  0  0  0  0  0  0  0
   36.5370   28.7730   40.8380 N   0  0  0  0  0  0  0  0  0  0  0  0
   37.8480   29.0440   41.0710 C   0  0  0  0  0  0  0  0  0  0  0  0
   35.2350   31.7790   40.3190 H   0  0  0  0  0  0  0  0  0  0  0  0
   33.7650   29.1940   39.4570 H   0  0  0  0  0  0  0  0  0  0  0  0
   33.9130   29.2010   41.3030 H   0  0  0  0  0  0  0  0  0  0  0  0
   38.4300   26.7490   39.0280 N   0  0  0  0  0  0  0  0  0  0  0  0
   39.3880   27.5040   38.2420 C   0  0  0  0  0  0  0  0  0  0  0  0
   38.5390   28.4940   37.4620 C   0  0  0  0  0  0  0  0  0  0  0  0
   37.1130   28.0910   37.7100 C   0  0  0  0  0  0  0  0  0  0  0  0
   37.2810   26.6750   38.1870 C   0  0  0  0  0  0  0  0  0  0  0  0
   39.7770   26.7600   37.4890 H   0  0  0  0  0  0  0  0  0  0  0  0
   40.1820   27.9680   38.8270 H   0  0  0  0  0  0  0  0  0  0  0  0
   38.7910   29.4990   37.8680 H   0  0  0  0  0  0  0  0  0  0  0  0
   38.7980   28.4730   36.3650 H   0  0  0  0  0  0  0  0  0  0  0  0
   36.6910   28.7740   38.4610 H   0  0  0  0  0  0  0  0  0  0  0  0
   36.5110   28.1280   36.7530 H   0  0  0  0  0  0  0  0  0  0  0  0
   37.5960   26.0830   37.2800 H   0  0  0  0  0  0  0  0  0  0  0  0
   36.3750   26.2420   38.6340 H   0  0  0  0  0  0  0  0  0  0  0  0
  1  6  1  0  0  0  0
  2  3  1  0  0  0  0
  2  1  2  0  0  0  0
  3  4  2  0  0  0  0
  4  5  1  0  0  0  0
  5  8  1  0  0  0  0
  6  5  2  0  0  0  0
  7  3  1  0  0  0  0
  9  1  1  0  0  0  0
  9 10  1  0  0  0  0
 11 10  2  0  0  0  0
 12 19  2  0  0  0  0
 12 11  1  0  0  0  0
 13 12  1  0  0  0  0
 14 13  2  0  0  0  0
 15 16  1  0  0  0  0
 15 13  1  0  0  0  0
 16 18  2  0  0  0  0
 17 16  1  0  0  0  0
 17 22  1  0  0  0  0
 18 19  1  0  0  0  0
 19  9  1  0  0  0  0
 20 15  1  0  0  0  0
 21 17  1  0  0  0  0
 23  2  1  0  0  0  0
 24 29  1  0  0  0  0
 24 23  1  0  0  0  0
 25 26  1  0  0  0  0
 25 30  1  0  0  0  0
 25 24  1  0  0  0  0
 26 27  1  0  0  0  0
 26 32  1  0  0  0  0
 27 35  1  0  0  0  0
 27 23  1  0  0  0  0
 28 24  1  0  0  0  0
 31 25  1  0  0  0  0
 33 26  1  0  0  0  0
 34 27  1  0  0  0  0
M  END
>  <minimizedAffinity>
-4.97897673

>  <minimizedRMSD>
4.92336369

$$$$
