
 OpenBabel03242509263D

 53 58  0  0  0  0  0  0  0  0999 V2000
   38.6340   28.1560   42.7150 C   0  0  0  0  0  0  0  0  0  0  0  0
   37.5490   27.3310   42.8650 C   0  0  0  0  0  0  0  0  0  0  0  0
   36.4710   27.9820   42.2620 C   0  0  0  0  0  0  0  0  0  0  0  0
   36.9910   29.1440   41.7980 N   0  0  0  0  0  0  0  0  0  0  0  0
   38.2550   29.2740   42.0470 N   0  0  0  0  0  0  0  0  0  0  0  0
   37.5780   26.3620   43.3680 H   0  0  0  0  0  0  0  0  0  0  0  0
   35.4820   27.5660   42.2270 H   0  0  0  0  0  0  0  0  0  0  0  0
   41.5810   26.5400   44.3290 C   0  0  0  0  0  0  0  0  0  0  0  0
   40.2650   26.7350   43.8940 C   0  0  0  0  0  0  0  0  0  0  0  0
   39.9820   27.9130   43.1800 C   0  0  0  0  0  0  0  0  0  0  0  0
   40.9700   28.8190   42.9300 N   0  0  0  0  0  0  0  0  0  0  0  0
   42.2420   28.5540   43.3930 C   0  0  0  0  0  0  0  0  0  0  0  0
   42.5270   27.4470   44.0690 N   0  0  0  0  0  0  0  0  0  0  0  0
   41.8260   25.6570   44.8720 H   0  0  0  0  0  0  0  0  0  0  0  0
   39.4720   26.0110   44.0920 H   0  0  0  0  0  0  0  0  0  0  0  0
   43.2160   29.5470   43.0920 N   0  0  0  0  0  0  0  0  0  0  0  0
   44.1010   30.2040   43.8860 C   0  0  0  0  0  3  0  0  0  0  0  0
   44.8270   31.0650   43.1470 N   0  0  0  0  0  0  0  0  0  0  0  0
   44.4380   30.9920   41.8640 C   0  0  0  0  0  0  0  0  0  0  0  0
   44.7960   31.6090   40.6730 C   0  0  0  0  0  0  0  0  0  0  0  0
   45.7070   32.4700   40.6840 O   0  0  0  0  0  0  0  0  0  0  0  0
   44.1850   31.3010   39.4930 N   0  0  0  0  0  0  0  0  0  0  0  0
   43.2240   30.3760   39.5470 C   0  0  0  0  0  0  0  0  0  0  0  0
   42.5220   29.9800   38.3830 N   0  0  0  0  0  0  0  0  0  0  0  0
   42.8460   29.7570   40.6720 N   0  0  0  0  0  0  0  0  0  0  0  0
   43.4470   30.0540   41.8580 C   0  0  0  0  0  0  0  0  0  0  0  0
   44.4350   31.7470   38.5930 H   0  0  0  0  0  0  0  0  0  0  0  0
   42.1030   29.0460   38.1910 H   0  0  0  0  0  0  0  0  0  0  0  0
   42.2580   30.4520   37.4960 H   0  0  0  0  0  0  0  0  0  0  0  0
   36.1330   30.0470   41.1270 C   0  0  0  0  0  0  0  0  0  0  0  0
   36.7360   30.8570   40.6240 H   0  0  0  0  0  0  0  0  0  0  0  0
   35.5460   30.5780   41.9100 H   0  0  0  0  0  0  0  0  0  0  0  0
   35.2590   29.4580   40.0660 C   0  0  0  0  0  0  0  0  0  0  0  0
   34.8060   28.5480   40.4290 H   0  0  0  0  0  0  0  0  0  0  0  0
   34.5320   30.3300   39.9390 H   0  0  0  0  0  0  0  0  0  0  0  0
   35.8790   29.3820   38.7180 C   0  0  0  0  0  0  0  0  0  0  0  0
   37.2010   29.5040   38.4070 C   0  0  0  0  0  0  0  0  0  0  0  0
   37.7290   29.5020   37.1490 C   0  0  0  0  0  0  0  0  0  0  0  0
   36.8880   29.3660   36.0670 C   0  0  0  0  0  0  0  0  0  0  0  0
   35.5370   29.2370   36.3160 C   0  0  0  0  0  0  0  0  0  0  0  0
   34.7440   29.1120   35.2000 C   0  0  0  0  0  0  0  0  0  0  0  0
   33.3900   28.9790   35.3410 C   0  0  0  0  0  0  0  0  0  0  0  0
   32.8390   28.9700   36.6010 C   0  0  0  0  0  0  0  0  0  0  0  0
   33.6810   29.0970   37.6760 C   0  0  0  0  0  0  0  0  0  0  0  0
   35.0280   29.2400   37.6150 C   0  0  0  0  0  0  0  0  0  0  0  0
   37.8720   29.6130   39.2640 H   0  0  0  0  0  0  0  0  0  0  0  0
   38.8000   29.6070   37.0500 H   0  0  0  0  0  0  0  0  0  0  0  0
   37.3000   29.3660   35.0800 H   0  0  0  0  0  0  0  0  0  0  0  0
   35.1120   29.1090   34.1970 H   0  0  0  0  0  0  0  0  0  0  0  0
   32.7250   28.8790   34.4870 H   0  0  0  0  0  0  0  0  0  0  0  0
   31.7680   28.8620   36.7160 H   0  0  0  0  0  0  0  0  0  0  0  0
   33.0680   29.0620   38.9200 O   0  0  0  0  0  0  0  0  0  0  0  0
   32.2490   29.6240   39.1600 H   0  0  0  0  0  0  0  0  0  0  0  0
  1  2  1  0  0  0  0
  1 10  1  0  0  0  0
  2  6  1  0  0  0  0
  3  2  2  0  0  0  0
  4  5  1  0  0  0  0
  4  3  1  0  0  0  0
  5  1  2  0  0  0  0
  7  3  1  0  0  0  0
  8 14  1  0  0  0  0
  9 15  1  0  0  0  0
  9  8  2  0  0  0  0
 10  9  1  0  0  0  0
 11 10  2  0  0  0  0
 11 12  1  0  0  0  0
 12 13  2  0  0  0  0
 13  8  1  0  0  0  0
 16 12  1  0  0  0  0
 16 17  1  0  0  0  0
 18 17  2  0  0  0  0
 19 18  1  0  0  0  0
 20 21  2  0  0  0  0
 20 19  1  0  0  0  0
 22 23  1  0  0  0  0
 22 20  1  0  0  0  0
 23 25  2  0  0  0  0
 24 23  1  0  0  0  0
 25 26  1  0  0  0  0
 26 19  2  0  0  0  0
 26 16  1  0  0  0  0
 27 22  1  0  0  0  0
 28 24  1  0  0  0  0
 29 24  1  0  0  0  0
 30  4  1  0  0  0  0
 30 32  1  0  0  0  0
 31 30  1  0  0  0  0
 33 34  1  0  0  0  0
 33 30  1  0  0  0  0
 35 33  1  0  0  0  0
 36 33  1  0  0  0  0
 37 36  1  0  0  0  0
 37 46  1  0  0  0  0
 38 37  2  0  0  0  0
 39 40  2  0  0  0  0
 39 38  1  0  0  0  0
 40 45  1  0  0  0  0
 41 42  2  0  0  0  0
 41 40  1  0  0  0  0
 42 43  1  0  0  0  0
 43 51  1  0  0  0  0
 43 44  2  0  0  0  0
 44 52  1  0  0  0  0
 45 44  1  0  0  0  0
 45 36  2  0  0  0  0
 47 38  1  0  0  0  0
 48 39  1  0  0  0  0
 49 41  1  0  0  0  0
 50 42  1  0  0  0  0
 52 53  1  0  0  0  0
M  END
>  <minimizedAffinity>
-6.54912043

>  <minimizedRMSD>
0.185323745

$$$$
