REMARK  Name = 
REMARK  1 active torsions:
REMARK  status: ('A' for Active; 'I' for Inactive)
REMARK    1  A    between atoms: C_3  and  C_7
REMARK                            x       y       z     vdW  Elec       q    Type
REMARK                         _______ _______ _______ _____ _____    ______ ____
ROOT
ATOM      1  C   UNL     1      37.969  28.880  43.368  0.00  0.00    +0.000 A 
ATOM      2  C   UNL     1      38.090  27.463  43.314  0.00  0.00    +0.000 A 
ATOM      3  C   UNL     1      37.440  26.824  42.256  0.00  0.00    +0.000 A 
ATOM      4  N   UNL     1      36.733  27.573  41.342  0.00  0.00    +0.000 NA
ATOM      5  C   UNL     1      36.660  28.908  41.453  0.00  0.00    +0.000 A 
ATOM      6  N   UNL     1      37.266  29.559  42.449  0.00  0.00    +0.000 NA
ATOM      7  H   UNL     1      38.447  29.440  44.161  0.00  0.00    +0.000 HD
ATOM      8  H   UNL     1      38.657  26.952  44.062  0.00  0.00    +0.000 HD
ATOM      9  N   UNL     1      35.877  29.463  40.395  0.00  0.00    +0.000 N 
ATOM     10  C   UNL     1      36.267  30.079  39.243  0.00  0.00    +0.000 A 
ATOM     11  N   UNL     1      35.144  30.428  38.568  0.00  0.00    +0.000 NA
ATOM     12  C   UNL     1      34.068  30.040  39.282  0.00  0.00    +0.000 A 
ATOM     13  C   UNL     1      32.728  30.199  38.964  0.00  0.00    +0.000 A 
ATOM     14  O   UNL     1      32.362  30.766  37.891  0.00  0.00    +0.000 OA
ATOM     15  N   UNL     1      31.815  29.731  39.832  0.00  0.00    +0.000 N 
ATOM     16  C   UNL     1      32.245  29.139  40.951  0.00  0.00    +0.000 A 
ATOM     17  N   UNL     1      31.369  28.608  41.940  0.00  0.00    +0.000 N 
ATOM     18  N   UNL     1      33.541  28.992  41.248  0.00  0.00    +0.000 NA
ATOM     19  C   UNL     1      34.530  29.436  40.428  0.00  0.00    +0.000 A 
ATOM     20  H   UNL     1      30.798  29.822  39.646  0.00  0.00    +0.000 HD
ATOM     21  H   UNL     1      31.149  29.409  42.571  0.00  0.00    +0.000 HD
ATOM     22  H   UNL     1      30.862  27.770  42.296  0.00  0.00    +0.000 HD
ENDROOT
BRANCH   3  23
ATOM     23  C   UNL     1      37.532  25.340  42.148  0.00  0.00    +0.000 C 
ATOM     24  F   UNL     1      37.650  25.051  40.805  0.00  0.00    +0.000 F 
ATOM     25  F   UNL     1      38.630  24.840  42.798  0.00  0.00    +0.000 F 
ATOM     26  F   UNL     1      36.376  24.718  42.638  0.00  0.00    +0.000 F 
ENDBRANCH   3  23
TORSDOF 1
