
 OpenBabel03242509313D

 26 28  0  0  0  0  0  0  0  0999 V2000
   37.0460   28.2080   43.5120 C   0  0  0  0  0  0  0  0  0  0  0  0
   38.1660   27.4790   43.9990 C   0  0  0  0  0  0  0  0  0  0  0  0
   38.9370   26.8130   43.0440 C   0  0  0  0  0  0  0  0  0  0  0  0
   38.5860   26.8900   41.7140 N   0  0  0  0  0  0  0  0  0  0  0  0
   37.5140   27.5960   41.3240 C   0  0  0  0  0  0  0  0  0  0  0  0
   36.7500   28.2480   42.2040 N   0  0  0  0  0  0  0  0  0  0  0  0
   36.4050   28.7480   44.1960 H   0  0  0  0  0  0  0  0  0  0  0  0
   38.3740   27.4670   45.0470 H   0  0  0  0  0  0  0  0  0  0  0  0
   37.3520   27.5290   39.9060 N   0  0  0  0  0  0  0  0  0  0  0  0
   37.6790   28.4340   38.9400 C   0  0  0  0  0  3  0  0  0  0  0  0
   37.3220   27.9010   37.7460 N   0  0  0  0  0  0  0  0  0  0  0  0
   36.7790   26.6850   37.9560 C   0  0  0  0  0  0  0  0  0  0  0  0
   36.2800   25.7970   37.0150 C   0  0  0  0  0  0  0  0  0  0  0  0
   36.2890   26.0660   35.7770 O   0  0  0  0  0  0  0  0  0  0  0  0
   35.7810   24.6290   37.4540 N   0  0  0  0  0  0  0  0  0  0  0  0
   35.7920   24.3860   38.7690 C   0  0  0  0  0  0  0  0  0  0  0  0
   35.2890   23.1850   39.3460 N   0  0  0  0  0  0  0  0  0  0  0  0
   36.2750   25.2510   39.6680 N   0  0  0  0  0  0  0  0  0  0  0  0
   36.7980   26.4540   39.3120 C   0  0  0  0  0  0  0  0  0  0  0  0
   35.3940   23.9270   36.7960 H   0  0  0  0  0  0  0  0  0  0  0  0
   34.2700   23.3550   39.4900 H   0  0  0  0  0  0  0  0  0  0  0  0
   35.5050   22.2220   39.6800 H   0  0  0  0  0  0  0  0  0  0  0  0
   40.1240   26.0330   43.4960 C   0  0  0  0  0  0  0  0  0  0  0  0
   41.0130   26.0250   42.4410 F   0  0  0  0  0  0  0  0  0  0  0  0
   40.7390   26.6050   44.5780 F   0  0  0  0  0  0  0  0  0  0  0  0
   39.7810   24.7080   43.8000 F   0  0  0  0  0  0  0  0  0  0  0  0
  1  2  1  0  0  0  0
  1  7  1  0  0  0  0
  2  8  1  0  0  0  0
  3 23  1  0  0  0  0
  3  2  2  0  0  0  0
  4  3  1  0  0  0  0
  5  4  2  0  0  0  0
  5  6  1  0  0  0  0
  6  1  2  0  0  0  0
  9  5  1  0  0  0  0
 10  9  1  0  0  0  0
 11 12  1  0  0  0  0
 11 10  2  0  0  0  0
 12 19  2  0  0  0  0
 13 15  1  0  0  0  0
 13 12  1  0  0  0  0
 14 13  2  0  0  0  0
 15 16  1  0  0  0  0
 16 17  1  0  0  0  0
 16 18  2  0  0  0  0
 17 21  1  0  0  0  0
 17 22  1  0  0  0  0
 19 18  1  0  0  0  0
 19  9  1  0  0  0  0
 20 15  1  0  0  0  0
 23 26  1  0  0  0  0
 23 25  1  0  0  0  0
 24 23  1  0  0  0  0
M  END
>  <minimizedAffinity>
-4.51695108

>  <minimizedRMSD>
4.13926506

$$$$
