
 OpenBabel03242509023D

 43 47  0  0  1  0  0  0  0  0999 V2000
   38.1100   30.3630   39.6400 N   0  0  1  0  0  0  0  0  0  0  0  0
   38.1620   29.8820   38.2340 C   0  0  0  0  0  0  0  0  0  0  0  0
   39.4480   29.1720   37.9400 C   0  0  0  0  0  0  0  0  0  0  0  0
   40.5350   29.8530   38.4780 O   0  0  0  0  0  0  0  0  0  0  0  0
   40.1810   31.1680   38.6400 C   0  0  0  0  0  0  0  0  0  0  0  0
   39.1290   31.3330   39.7630 C   0  0  1  0  0  0  0  0  0  0  0  0
   38.0710   30.7580   37.5560 H   0  0  0  0  0  0  0  0  0  0  0  0
   37.3070   29.2230   38.0260 H   0  0  0  0  0  0  0  0  0  0  0  0
   39.4120   28.1230   38.3200 H   0  0  0  0  0  0  0  0  0  0  0  0
   39.5370   29.0980   36.8430 H   0  0  0  0  0  0  0  0  0  0  0  0
   41.0960   31.6950   39.0230 H   0  0  0  0  0  0  0  0  0  0  0  0
   39.8920   31.7100   37.7330 H   0  0  0  0  0  0  0  0  0  0  0  0
   39.6920   31.1410   40.6990 H   0  0  0  0  0  0  0  0  0  0  0  0
   38.6890   32.7170   39.7330 N   0  0  0  0  0  0  0  0  0  0  0  0
   37.5090   33.2880   39.4890 C   0  0  0  0  0  0  0  0  0  0  0  0
   37.5710   34.6270   39.5670 N   0  0  0  0  0  0  0  0  0  0  0  0
   38.8360   34.9400   39.8730 C   0  0  0  0  0  0  0  0  0  0  0  0
   39.4930   36.1370   40.0820 C   0  0  0  0  0  0  0  0  0  0  0  0
   38.8850   37.2350   39.9930 O   0  0  0  0  0  0  0  0  0  0  0  0
   40.8120   36.1710   40.3870 N   0  0  0  0  0  0  0  0  0  0  0  0
   41.4640   34.9970   40.4810 C   0  0  0  0  0  0  0  0  0  0  0  0
   42.8400   34.8610   40.7920 N   0  0  0  0  0  0  0  0  0  0  0  0
   40.8320   33.8260   40.2800 N   0  0  0  0  0  0  0  0  0  0  0  0
   39.5220   33.7750   39.9750 C   0  0  0  0  0  0  0  0  0  0  0  0
   41.3700   37.0370   40.5560 H   0  0  0  0  0  0  0  0  0  0  0  0
   43.4780   35.2470   41.5200 H   0  0  0  0  0  0  0  0  0  0  0  0
   43.4340   34.2270   40.1790 H   0  0  0  0  0  0  0  0  0  0  0  0
   35.7940   29.6920   40.5770 C   0  0  1  0  0  0  0  0  0  0  0  0
   36.2610   30.8720   41.3410 C   0  0  0  0  0  0  0  0  0  0  0  0
   36.7990   30.7070   39.9880 C   0  0  1  0  0  0  0  0  0  0  0  0
   34.8380   29.5990   40.0660 H   0  0  0  0  0  0  0  0  0  0  0  0
   35.4590   31.6330   41.5640 H   0  0  0  0  0  0  0  0  0  0  0  0
   36.8370   30.6720   42.2790 H   0  0  0  0  0  0  0  0  0  0  0  0
   36.2760   31.3810   39.2410 H   0  0  0  0  0  0  0  0  0  0  0  0
   37.2400   27.0510   42.6920 C   0  0  0  0  0  0  0  0  0  0  0  0
   37.3100   25.9440   41.8020 C   0  0  0  0  0  0  0  0  0  0  0  0
   36.8620   26.1490   40.4790 C   0  0  0  0  0  0  0  0  0  0  0  0
   36.3800   27.3990   40.1070 N   0  0  0  0  0  0  0  0  0  0  0  0
   36.3480   28.3850   41.0060 C   0  0  0  0  0  0  0  0  0  0  0  0
   36.7660   28.2360   42.2840 N   0  0  0  0  0  0  0  0  0  0  0  0
   37.5770   26.9170   43.7100 H   0  0  0  0  0  0  0  0  0  0  0  0
   37.6810   24.9850   42.0960 H   0  0  0  0  0  0  0  0  0  0  0  0
   36.8810   25.3590   39.7370 H   0  0  0  0  0  0  0  0  0  0  0  0
  1  2  1  6  0  0  0
  1  6  1  0  0  0  0
  1 30  1  0  0  0  0
  3  2  1  0  0  0  0
  3  9  1  0  0  0  0
  3  4  1  0  0  0  0
  4  5  1  0  0  0  0
  5 11  1  0  0  0  0
  5  6  1  0  0  0  0
  6 13  1  1  0  0  0
  7  2  1  0  0  0  0
  8  2  1  0  0  0  0
 10  3  1  0  0  0  0
 12  5  1  0  0  0  0
 14  6  1  0  0  0  0
 14 24  1  0  0  0  0
 15 16  2  0  0  0  0
 15 14  1  0  0  0  0
 16 17  1  0  0  0  0
 17 24  2  0  0  0  0
 17 18  1  0  0  0  0
 18 20  1  0  0  0  0
 19 18  2  0  0  0  0
 20 21  1  0  0  0  0
 20 25  1  0  0  0  0
 21 22  1  0  0  0  0
 22 26  1  0  0  0  0
 23 21  2  0  0  0  0
 24 23  1  0  0  0  0
 27 22  1  0  0  0  0
 28 31  1  6  0  0  0
 28 39  1  0  0  0  0
 28 29  1  0  0  0  0
 29 32  1  0  0  0  0
 29 33  1  0  0  0  0
 30 34  1  6  0  0  0
 30 28  1  0  0  0  0
 30 29  1  0  0  0  0
 35 41  1  0  0  0  0
 36 42  1  0  0  0  0
 36 35  2  0  0  0  0
 37 36  1  0  0  0  0
 38 37  2  0  0  0  0
 38 39  1  0  0  0  0
 39 40  2  0  0  0  0
 40 35  1  0  0  0  0
 43 37  1  0  0  0  0
M  END
>  <minimizedAffinity>
-6.43898439

>  <minimizedRMSD>
2.12631679

$$$$
