
 OpenBabel03242507193D

 47 51  0  0  0  0  0  0  0  0999 V2000
   35.1850   29.0700   40.5280 C   0  0  0  0  0  0  0  0  0  0  0  0
   36.1850   28.2070   41.0110 C   0  0  0  0  0  0  0  0  0  0  0  0
   36.7330   27.2870   40.0740 C   0  0  0  0  0  0  0  0  0  0  0  0
   36.2710   27.2960   38.8070 N   0  0  0  0  0  0  0  0  0  0  0  0
   35.2890   28.1640   38.3890 C   0  0  0  0  0  0  0  0  0  0  0  0
   34.7420   29.0540   39.2470 N   0  0  0  0  0  0  0  0  0  0  0  0
   34.7660   29.7650   41.2220 H   0  0  0  0  0  0  0  0  0  0  0  0
   37.5020   26.5880   40.3490 H   0  0  0  0  0  0  0  0  0  0  0  0
   36.6410   28.2200   42.3210 N   0  0  0  0  0  0  0  0  0  0  0  0
   36.2270   27.4340   43.3220 C   0  0  0  0  0  0  0  0  0  0  0  0
   36.9650   27.8190   44.4120 C   0  0  0  0  0  0  0  0  0  0  0  0
   37.8170   28.8310   44.0690 N   0  0  0  0  0  0  0  0  0  0  0  0
   37.5990   29.0610   42.7750 C   0  0  0  0  0  0  0  0  0  0  0  0
   38.3930   30.0920   42.2060 N   0  0  0  0  0  0  0  0  0  0  0  0
   39.7020   30.3040   42.5730 C   0  0  0  0  0  0  0  0  0  0  0  0
   40.2320   31.3580   41.8730 N   0  0  0  0  0  0  0  0  0  0  0  0
   39.2770   31.8190   41.0660 C   0  0  0  0  0  0  0  0  0  0  0  0
   39.2520   32.8490   40.1530 C   0  0  0  0  0  0  0  0  0  0  0  0
   38.0820   33.0290   39.5020 N   0  0  0  0  0  0  0  0  0  0  0  0
   36.9970   32.2750   39.7050 C   0  0  0  0  0  0  0  0  0  0  0  0
   37.0050   31.2520   40.6040 N   0  0  0  0  0  0  0  0  0  0  0  0
   38.1470   31.0460   41.2660 C   0  0  0  0  0  0  0  0  0  0  0  0
   40.3790   33.6800   39.9020 N   0  0  0  0  0  0  0  0  0  0  0  0
   35.4620   26.6610   43.2490 H   0  0  0  0  0  0  0  0  0  0  0  0
   36.8450   27.3480   45.3910 H   0  0  0  0  0  0  0  0  0  0  0  0
   40.3450   29.8000   43.2860 H   0  0  0  0  0  0  0  0  0  0  0  0
   36.1140   32.5110   39.1250 H   0  0  0  0  0  0  0  0  0  0  0  0
   40.9500   33.9140   40.7490 H   0  0  0  0  0  0  0  0  0  0  0  0
   40.6430   34.0420   38.9590 H   0  0  0  0  0  0  0  0  0  0  0  0
   34.7730   28.1960   37.0220 C   0  0  0  0  0  0  0  0  0  0  0  0
   33.3810   28.8060   36.9490 C   0  0  0  0  0  0  0  0  0  0  0  0
   33.0090   28.5820   35.9220 H   0  0  0  0  0  0  0  0  0  0  0  0
   33.3970   29.8920   37.1270 H   0  0  0  0  0  0  0  0  0  0  0  0
   32.7340   28.2470   37.6540 H   0  0  0  0  0  0  0  0  0  0  0  0
   34.6370   26.7830   36.4840 C   0  0  0  0  0  0  0  0  0  0  0  0
   34.4540   26.7730   35.3950 H   0  0  0  0  0  0  0  0  0  0  0  0
   35.4460   26.1210   36.8270 H   0  0  0  0  0  0  0  0  0  0  0  0
   33.7030   26.3830   36.9480 H   0  0  0  0  0  0  0  0  0  0  0  0
   35.6910   28.9560   36.0870 C   0  0  0  0  0  0  0  0  0  0  0  0
   35.2990   30.0140   36.0200 H   0  0  0  0  0  0  0  0  0  0  0  0
   35.5210   28.5710   35.0450 H   0  0  0  0  0  0  0  0  0  0  0  0
   37.1050   28.9440   36.4710 C   0  0  0  0  0  0  0  0  0  0  0  0
   37.9740   27.9040   35.9830 C   0  0  0  0  0  0  0  0  0  0  0  0
   39.5700   28.3310   36.7400 S   0  0  0  0  0  0  0  0  0  0  0  0
   38.7970   29.8650   37.6040 C   0  0  0  0  0  0  0  0  0  0  0  0
   39.2070   30.7140   38.3220 H   0  0  0  0  0  0  0  0  0  0  0  0
   37.7310   29.8010   37.2560 N   0  0  0  0  0  0  0  0  0  0  0  0
  1  2  1  0  0  0  0
  1  7  1  0  0  0  0
  2  9  1  0  0  0  0
  3  8  1  0  0  0  0
  3  2  2  0  0  0  0
  4  3  1  0  0  0  0
  5  4  2  0  0  0  0
  5  6  1  0  0  0  0
  6  1  2  0  0  0  0
  9 13  1  0  0  0  0
  9 10  1  0  0  0  0
 10 11  2  0  0  0  0
 11 25  1  0  0  0  0
 12 11  1  0  0  0  0
 13 12  2  0  0  0  0
 14 15  1  0  0  0  0
 14 13  1  0  0  0  0
 15 26  1  0  0  0  0
 16 15  2  0  0  0  0
 17 22  1  0  0  0  0
 17 16  1  0  0  0  0
 18 17  2  0  0  0  0
 19 20  2  0  0  0  0
 19 18  1  0  0  0  0
 20 21  1  0  0  0  0
 21 22  2  0  0  0  0
 22 14  1  0  0  0  0
 23 18  1  0  0  0  0
 23 28  1  0  0  0  0
 24 10  1  0  0  0  0
 27 20  1  0  0  0  0
 29 23  1  0  0  0  0
 30  5  1  0  0  0  0
 31 30  1  0  0  0  0
 31 33  1  0  0  0  0
 31 34  1  0  0  0  0
 32 31  1  0  0  0  0
 35 37  1  0  0  0  0
 35 38  1  0  0  0  0
 35 30  1  0  0  0  0
 36 35  1  0  0  0  0
 39 42  1  0  0  0  0
 39 30  1  0  0  0  0
 40 39  1  0  0  0  0
 41 39  1  0  0  0  0
 42 47  1  0  0  0  0
 43 42  2  0  0  0  0
 43 44  1  0  0  0  0
 44 45  1  0  0  0  0
 45 46  1  0  0  0  0
 47 45  2  0  0  0  0
M  END
>  <minimizedAffinity>
-6.1870203

>  <minimizedRMSD>
0.66242975

$$$$
