
 OpenBabel03242508363D

 36 39  0  0  0  0  0  0  0  0999 V2000
   37.0420   31.3790   40.5650 C   0  0  0  0  0  0  0  0  0  0  0  0
   36.8280   31.7460   39.2500 N   0  0  0  0  0  0  0  0  0  0  0  0
   37.7860   32.5770   38.8930 O   0  0  0  0  0  0  0  0  0  0  0  0
   38.5690   32.7320   39.9230 C   0  0  0  0  0  0  0  0  0  0  0  0
   38.1410   32.0110   40.9680 N   0  0  0  0  0  0  0  0  0  0  0  0
   39.7520   33.5860   39.9180 C   0  0  0  0  0  0  0  0  0  0  0  0
   39.7890   34.9650   40.0110 C   0  0  0  0  0  0  0  0  0  0  0  0
   41.0980   35.4010   39.9710 C   0  0  0  0  0  0  0  0  0  0  0  0
   41.8350   34.2360   39.8520 C   0  0  0  0  0  0  0  0  0  0  0  0
   41.0190   33.2390   39.8270 O   0  0  0  0  0  0  0  0  0  0  0  0
   38.9040   35.5790   40.1010 H   0  0  0  0  0  0  0  0  0  0  0  0
   41.4040   36.4380   40.0260 H   0  0  0  0  0  0  0  0  0  0  0  0
   43.2570   34.2190   39.7750 N   0  0  0  0  0  0  0  0  0  0  0  0
   43.8760   34.1310   38.6010 N   0  0  0  0  0  0  0  0  0  0  0  0
   45.2230   34.1350   38.8160 C   0  0  0  0  0  0  0  0  0  0  0  0
   46.0130   34.0770   38.0980 H   0  0  0  0  0  0  0  0  0  0  0  0
   45.4200   34.2300   40.1940 C   0  0  0  0  0  0  0  0  0  0  0  0
   44.1630   34.2820   40.7860 C   0  0  0  0  0  0  0  0  0  0  0  0
   43.9050   34.3590   41.8520 H   0  0  0  0  0  0  0  0  0  0  0  0
   36.3010   30.5210   41.3850 O   0  0  0  0  0  0  0  0  0  0  0  0
   38.1940   28.1390   43.3870 C   0  0  0  0  0  0  0  0  0  0  0  0
   37.9330   26.9730   42.6030 C   0  0  0  0  0  0  0  0  0  0  0  0
   37.1430   27.1040   41.4780 C   0  0  0  0  0  0  0  0  0  0  0  0
   36.6670   28.3360   41.1880 N   0  0  0  0  0  0  0  0  0  0  0  0
   36.9050   29.4170   41.9090 C   0  0  0  0  0  0  0  0  0  0  0  0
   37.6740   29.3320   43.0220 N   0  0  0  0  0  0  0  0  0  0  0  0
   38.7750   28.2180   44.2780 H   0  0  0  0  0  0  0  0  0  0  0  0
   38.4600   26.1720   43.1030 H   0  0  0  0  0  0  0  0  0  0  0  0
   36.9580   25.8570   40.7780 C   0  0  0  0  0  0  0  0  0  0  0  0
   35.9770   25.9250   40.2200 H   0  0  0  0  0  0  0  0  0  0  0  0
   37.7060   25.7100   39.9470 H   0  0  0  0  0  0  0  0  0  0  0  0
   36.9630   24.6330   41.5960 C   0  0  0  0  0  0  0  0  0  0  0  0
   37.3550   24.6640   42.6020 H   0  0  0  0  0  0  0  0  0  0  0  0
   35.9020   24.2420   41.7050 H   0  0  0  0  0  0  0  0  0  0  0  0
   37.8350   23.2600   40.7550 S   0  0  0  0  0  0  0  0  0  0  0  0
   37.1680   22.0510   40.8570 H   0  0  0  0  0  0  0  0  0  0  0  0
  1  5  1  0  0  0  0
  1 20  1  0  0  0  0
  2  1  2  0  0  0  0
  3  2  1  0  0  0  0
  3  4  1  0  0  0  0
  4  5  2  0  0  0  0
  6  4  1  0  0  0  0
  6  7  2  0  0  0  0
  7 11  1  0  0  0  0
  8  7  1  0  0  0  0
  8 12  1  0  0  0  0
  9  8  2  0  0  0  0
 10  9  1  0  0  0  0
 10  6  1  0  0  0  0
 13  9  1  0  0  0  0
 13 18  1  0  0  0  0
 14 15  2  0  0  0  0
 14 13  1  0  0  0  0
 15 17  1  0  0  0  0
 16 15  1  0  0  0  0
 17 18  2  0  0  0  0
 18 19  1  0  0  0  0
 20 25  1  0  0  0  0
 21 27  1  0  0  0  0
 22 28  1  0  0  0  0
 22 21  2  0  0  0  0
 23 22  1  0  0  0  0
 24 23  2  0  0  0  0
 24 25  1  0  0  0  0
 25 26  2  0  0  0  0
 26 21  1  0  0  0  0
 29 23  1  0  0  0  0
 29 32  1  0  0  0  0
 30 29  1  0  0  0  0
 31 29  1  0  0  0  0
 32 34  1  0  0  0  0
 32 33  1  0  0  0  0
 35 36  1  0  0  0  0
 35 32  1  0  0  0  0
M  END
>  <minimizedAffinity>
-5.60048723

>  <minimizedRMSD>
0.994890571

$$$$
