
 OpenBabel03242509303D

 19 20  0  0  0  0  0  0  0  0999 V2000
   37.9270   28.7120   43.5110 C   0  0  0  0  0  0  0  0  0  0  0  0
   38.2790   27.3300   43.5350 C   0  0  0  0  0  0  0  0  0  0  0  0
   37.9310   26.5870   42.4030 C   0  0  0  0  0  0  0  0  0  0  0  0
   37.2860   27.2260   41.3670 N   0  0  0  0  0  0  0  0  0  0  0  0
   36.9790   28.5300   41.4030 C   0  0  0  0  0  0  0  0  0  0  0  0
   37.3040   29.2620   42.4780 N   0  0  0  0  0  0  0  0  0  0  0  0
   38.1630   29.3530   44.3510 H   0  0  0  0  0  0  0  0  0  0  0  0
   38.7860   26.9150   44.3940 H   0  0  0  0  0  0  0  0  0  0  0  0
   36.3190   28.9030   40.1940 N   0  0  0  0  0  0  0  0  0  0  0  0
   35.0240   28.8350   39.9010 N   0  0  0  0  0  0  0  0  0  0  0  0
   34.8100   29.2900   38.6410 C   0  0  0  0  0  0  0  0  0  0  0  0
   33.8820   29.3730   38.0860 H   0  0  0  0  0  0  0  0  0  0  0  0
   36.0280   29.6670   38.0990 C   0  0  0  0  0  3  0  0  0  0  0  0
   36.9530   29.4090   39.1040 C   0  0  0  0  0  0  0  0  0  0  0  0
   38.0370   29.5800   39.0510 H   0  0  0  0  0  0  0  0  0  0  0  0
   38.2750   25.1350   42.3710 C   0  0  0  0  0  0  0  0  0  0  0  0
   38.7780   24.9010   41.1010 F   0  0  0  0  0  0  0  0  0  0  0  0
   39.2230   24.8080   43.2860 F   0  0  0  0  0  0  0  0  0  0  0  0
   37.1460   24.3390   42.5360 F   0  0  0  0  0  0  0  0  0  0  0  0
  1  2  1  0  0  0  0
  1  7  1  0  0  0  0
  2  8  1  0  0  0  0
  3  2  2  0  0  0  0
  4  5  2  0  0  0  0
  4  3  1  0  0  0  0
  5  6  1  0  0  0  0
  6  1  2  0  0  0  0
  9  5  1  0  0  0  0
 10  9  1  0  0  0  0
 11 10  2  0  0  0  0
 12 11  1  0  0  0  0
 13 11  1  0  0  0  0
 13 14  2  0  0  0  0
 14  9  1  0  0  0  0
 15 14  1  0  0  0  0
 16  3  1  0  0  0  0
 16 19  1  0  0  0  0
 16 18  1  0  0  0  0
 17 16  1  0  0  0  0
M  END
>  <minimizedAffinity>
-4.20024443

>  <minimizedRMSD>
0.762637436

$$$$
