
 OpenBabel03242508333D

 34 37  0  0  0  0  0  0  0  0999 V2000
   38.3810   28.2790   43.2310 C   0  0  0  0  0  0  0  0  0  0  0  0
   38.0930   27.1040   42.4720 C   0  0  0  0  0  0  0  0  0  0  0  0
   37.2210   27.2390   41.3970 C   0  0  0  0  0  0  0  0  0  0  0  0
   36.7130   28.4570   41.1440 N   0  0  0  0  0  0  0  0  0  0  0  0
   36.9890   29.5350   41.8540 C   0  0  0  0  0  0  0  0  0  0  0  0
   37.8240   29.4510   42.9020 N   0  0  0  0  0  0  0  0  0  0  0  0
   39.0380   28.3140   44.0870 H   0  0  0  0  0  0  0  0  0  0  0  0
   38.6380   26.2760   42.8980 H   0  0  0  0  0  0  0  0  0  0  0  0
   36.9820   25.9940   40.6840 C   0  0  0  0  0  0  0  0  0  0  0  0
   37.6090   25.8790   39.7720 H   0  0  0  0  0  0  0  0  0  0  0  0
   35.9310   26.0670   40.2740 H   0  0  0  0  0  0  0  0  0  0  0  0
   36.9950   24.7660   41.5330 C   0  0  0  0  0  0  0  0  0  0  0  0
   37.9090   24.7500   42.1610 H   0  0  0  0  0  0  0  0  0  0  0  0
   36.1340   24.7310   42.2210 H   0  0  0  0  0  0  0  0  0  0  0  0
   36.9890   23.5420   40.6500 C   0  0  0  0  0  0  0  0  0  0  0  0
   35.8880   23.3130   39.6980 C   0  0  0  0  0  0  0  0  0  0  0  0
   36.4240   21.7070   38.9300 S   0  0  0  0  0  0  0  0  0  0  0  0
   37.9870   21.6500   40.0070 C   0  0  0  0  0  0  0  0  0  0  0  0
   38.6810   20.8390   39.9210 H   0  0  0  0  0  0  0  0  0  0  0  0
   37.9510   22.6180   40.6750 N   0  0  0  0  0  0  0  0  0  0  0  0
   36.3380   30.6390   41.3790 O   0  0  0  0  0  0  0  0  0  0  0  0
   36.9850   31.5110   40.5100 C   0  0  0  0  0  0  0  0  0  0  0  0
   36.8710   31.6540   39.1540 N   0  0  0  0  0  0  0  0  0  0  0  0
   37.6840   32.6120   38.7660 O   0  0  0  0  0  0  0  0  0  0  0  0
   38.2970   33.0640   39.8510 C   0  0  0  0  0  0  0  0  0  0  0  0
   37.8880   32.4100   40.9220 N   0  0  0  0  0  0  0  0  0  0  0  0
   39.2840   34.1420   39.8140 C   0  0  0  0  0  0  0  0  0  0  0  0
   39.0710   35.4600   40.2100 C   0  0  0  0  0  0  0  0  0  0  0  0
   40.2340   36.1670   40.0250 C   0  0  0  0  0  0  0  0  0  0  0  0
   41.1420   35.2420   39.5110 C   0  0  0  0  0  0  0  0  0  0  0  0
   40.5310   34.0950   39.4140 O   0  0  0  0  0  0  0  0  0  0  0  0
   38.1760   35.9130   40.6020 H   0  0  0  0  0  0  0  0  0  0  0  0
   40.5280   37.1750   40.1850 H   0  0  0  0  0  0  0  0  0  0  0  0
   42.1770   35.3170   39.2070 H   0  0  0  0  0  0  0  0  0  0  0  0
  1  7  1  0  0  0  0
  2  8  1  0  0  0  0
  2  1  2  0  0  0  0
  3  2  1  0  0  0  0
  4  3  2  0  0  0  0
  4  5  1  0  0  0  0
  5  6  2  0  0  0  0
  6  1  1  0  0  0  0
  9  3  1  0  0  0  0
  9 12  1  0  0  0  0
 10  9  1  0  0  0  0
 11  9  1  0  0  0  0
 12 13  1  0  0  0  0
 12 14  1  0  0  0  0
 15 20  1  0  0  0  0
 15 12  1  0  0  0  0
 16 15  2  0  0  0  0
 17 16  1  0  0  0  0
 17 18  1  0  0  0  0
 18 20  2  0  0  0  0
 19 18  1  0  0  0  0
 21  5  1  0  0  0  0
 22 26  1  0  0  0  0
 22 21  1  0  0  0  0
 23 22  2  0  0  0  0
 24 23  1  0  0  0  0
 24 25  1  0  0  0  0
 25 26  2  0  0  0  0
 27 25  1  0  0  0  0
 27 28  2  0  0  0  0
 28 32  1  0  0  0  0
 29 33  1  0  0  0  0
 29 28  1  0  0  0  0
 30 29  2  0  0  0  0
 31 30  1  0  0  0  0
 31 27  1  0  0  0  0
 34 30  1  0  0  0  0
M  END
>  <minimizedAffinity>
-5.72655725

>  <minimizedRMSD>
0.504224956

$$$$
