
 OpenBabel03242509313D

 19 20  0  0  0  0  0  0  0  0999 V2000
   38.0720   28.5120   43.5320 C   0  0  0  0  0  0  0  0  0  0  0  0
   38.5800   27.1780   43.5660 C   0  0  0  0  0  0  0  0  0  0  0  0
   38.1620   26.3350   42.5320 C   0  0  0  0  0  0  0  0  0  0  0  0
   37.3070   26.8370   41.5760 N   0  0  0  0  0  0  0  0  0  0  0  0
   36.8620   28.1010   41.5980 C   0  0  0  0  0  0  0  0  0  0  0  0
   37.2500   28.9280   42.5790 N   0  0  0  0  0  0  0  0  0  0  0  0
   38.3500   29.2230   44.2990 H   0  0  0  0  0  0  0  0  0  0  0  0
   39.2480   26.8740   44.3580 H   0  0  0  0  0  0  0  0  0  0  0  0
   35.9980   28.3270   40.4850 N   0  0  0  0  0  0  0  0  0  0  0  0
   34.9300   29.1130   40.4100 N   0  0  0  0  0  0  0  0  0  0  0  0
   34.3890   29.0420   39.1670 C   0  0  0  0  0  0  0  0  0  0  0  0
   33.5190   29.5480   38.7620 H   0  0  0  0  0  0  0  0  0  0  0  0
   35.1470   28.1650   38.4090 C   0  0  0  0  0  3  0  0  0  0  0  0
   36.1490   27.7350   39.2710 C   0  0  0  0  0  0  0  0  0  0  0  0
   36.9540   27.0270   39.0310 H   0  0  0  0  0  0  0  0  0  0  0  0
   38.6610   24.9290   42.5140 C   0  0  0  0  0  0  0  0  0  0  0  0
   39.3380   24.7910   41.3120 F   0  0  0  0  0  0  0  0  0  0  0  0
   39.5210   24.6740   43.5340 F   0  0  0  0  0  0  0  0  0  0  0  0
   37.6140   24.0140   42.5230 F   0  0  0  0  0  0  0  0  0  0  0  0
  1  2  1  0  0  0  0
  1  7  1  0  0  0  0
  2  8  1  0  0  0  0
  3  2  2  0  0  0  0
  4  5  2  0  0  0  0
  4  3  1  0  0  0  0
  5  6  1  0  0  0  0
  6  1  2  0  0  0  0
  9  5  1  0  0  0  0
 10  9  1  0  0  0  0
 11 10  2  0  0  0  0
 12 11  1  0  0  0  0
 13 11  1  0  0  0  0
 13 14  2  0  0  0  0
 14  9  1  0  0  0  0
 15 14  1  0  0  0  0
 16 19  1  0  0  0  0
 16  3  1  0  0  0  0
 16 18  1  0  0  0  0
 17 16  1  0  0  0  0
M  END
>  <minimizedAffinity>
-4.48640537

>  <minimizedRMSD>
1.17765534

$$$$
