
 OpenBabel03242508193D

 29 32  0  0  0  0  0  0  0  0999 V2000
   38.7130   27.0740   43.8320 C   0  0  0  0  0  0  0  0  0  0  0  0
   39.2120   26.1470   42.9190 C   0  0  0  0  0  0  0  0  0  0  0  0
   39.1860   26.4970   41.5570 C   0  0  0  0  0  0  0  0  0  0  0  0
   38.6790   27.7160   41.2140 N   0  0  0  0  0  0  0  0  0  0  0  0
   38.2030   28.5850   42.1430 C   0  0  0  0  0  0  0  0  0  0  0  0
   38.2200   28.2660   43.4560 N   0  0  0  0  0  0  0  0  0  0  0  0
   37.7300   29.7820   41.5330 N   0  0  0  0  0  0  0  0  0  0  0  0
   36.4210   29.9200   41.1700 C   0  0  0  0  0  0  0  0  0  0  0  0
   36.2150   31.1290   40.6180 N   0  0  0  0  0  0  0  0  0  0  0  0
   37.3950   31.7760   40.6250 C   0  0  0  0  0  0  0  0  0  0  0  0
   37.8370   33.0380   40.2030 C   0  0  0  0  0  0  0  0  0  0  0  0
   39.1340   33.3700   40.3680 N   0  0  0  0  0  0  0  0  0  0  0  0
   40.0150   32.5210   40.9280 C   0  0  0  0  0  0  0  0  0  0  0  0
   39.6150   31.2810   41.3500 N   0  0  0  0  0  0  0  0  0  0  0  0
   38.3130   30.9280   41.1930 C   0  0  0  0  0  0  0  0  0  0  0  0
   36.8310   33.8400   39.6320 N   0  0  0  0  0  0  0  0  0  0  0  0
   38.7230   26.8270   44.8780 H   0  0  0  0  0  0  0  0  0  0  0  0
   39.6140   25.1850   43.1940 H   0  0  0  0  0  0  0  0  0  0  0  0
   39.5690   25.7900   40.8460 H   0  0  0  0  0  0  0  0  0  0  0  0
   35.6230   29.1910   41.2870 H   0  0  0  0  0  0  0  0  0  0  0  0
   36.4810   33.7710   38.6510 H   0  0  0  0  0  0  0  0  0  0  0  0
   36.4200   34.5540   40.2680 H   0  0  0  0  0  0  0  0  0  0  0  0
   41.3800   32.8850   41.0950 N   0  0  0  0  0  0  0  0  0  0  0  0
   41.7670   34.0690   40.6090 N   0  0  0  0  0  0  0  0  0  0  0  0
   43.0960   34.2270   40.8700 C   0  0  0  0  0  0  0  0  0  0  0  0
   43.8230   35.0060   40.6710 H   0  0  0  0  0  0  0  0  0  0  0  0
   43.5330   33.0960   41.5410 C   0  0  0  0  0  0  0  0  0  0  0  0
   42.4280   32.2570   41.6740 C   0  0  0  0  0  0  0  0  0  0  0  0
   42.2150   31.2780   42.1040 H   0  0  0  0  0  0  0  0  0  0  0  0
  1 17  1  0  0  0  0
  2 18  1  0  0  0  0
  2  1  2  0  0  0  0
  3  2  1  0  0  0  0
  4  3  2  0  0  0  0
  4  5  1  0  0  0  0
  5  6  2  0  0  0  0
  6  1  1  0  0  0  0
  7  5  1  0  0  0  0
  8 20  1  0  0  0  0
  8  7  1  0  0  0  0
  9 10  1  0  0  0  0
  9  8  2  0  0  0  0
 10 15  1  0  0  0  0
 11 12  1  0  0  0  0
 11 10  2  0  0  0  0
 12 13  2  0  0  0  0
 13 23  1  0  0  0  0
 13 14  1  0  0  0  0
 15 14  2  0  0  0  0
 15  7  1  0  0  0  0
 16 11  1  0  0  0  0
 16 22  1  0  0  0  0
 19  3  1  0  0  0  0
 21 16  1  0  0  0  0
 23 28  1  0  0  0  0
 24 25  2  0  0  0  0
 24 23  1  0  0  0  0
 25 27  1  0  0  0  0
 26 25  1  0  0  0  0
 27 28  2  0  0  0  0
 28 29  1  0  0  0  0
M  END
>  <minimizedAffinity>
-6.15395737

>  <minimizedRMSD>
1.10422051

$$$$
