REMARK  Name = 
REMARK  1 active torsions:
REMARK  status: ('A' for Active; 'I' for Inactive)
REMARK    1  A    between atoms: C_3  and  C_7
REMARK                            x       y       z     vdW  Elec       q    Type
REMARK                         _______ _______ _______ _____ _____    ______ ____
ROOT
ATOM      1  C   UNL     1      37.963  28.881  43.359  0.00  0.00    +0.000 A 
ATOM      2  C   UNL     1      38.088  27.460  43.316  0.00  0.00    +0.000 A 
ATOM      3  C   UNL     1      37.439  26.818  42.257  0.00  0.00    +0.000 A 
ATOM      4  N   UNL     1      36.739  27.583  41.351  0.00  0.00    +0.000 NA
ATOM      5  C   UNL     1      36.656  28.917  41.445  0.00  0.00    +0.000 A 
ATOM      6  N   UNL     1      37.271  29.555  42.451  0.00  0.00    +0.000 NA
ATOM      7  H   UNL     1      38.437  29.449  44.149  0.00  0.00    +0.000 HD
ATOM      8  H   UNL     1      38.660  26.944  44.073  0.00  0.00    +0.000 HD
ATOM      9  N   UNL     1      35.869  29.428  40.369  0.00  0.00    +0.000 N 
ATOM     10  N   UNL     1      36.114  29.376  39.064  0.00  0.00    +0.000 NA
ATOM     11  C   UNL     1      35.110  29.982  38.381  0.00  0.00    +0.000 A 
ATOM     12  H   UNL     1      34.989  30.119  37.311  0.00  0.00    +0.000 HD
ATOM     13  C   UNL     1      34.177  30.444  39.292  0.00  0.00    +0.000 A 
ATOM     14  C   UNL     1      34.687  30.078  40.532  0.00  0.00    +0.000 A 
ATOM     15  H   UNL     1      34.224  30.273  41.510  0.00  0.00    +0.000 HD
ENDROOT
BRANCH   3  16
ATOM     16  C   UNL     1      37.535  25.332  42.160  0.00  0.00    +0.000 C 
ATOM     17  F   UNL     1      37.643  25.055  40.806  0.00  0.00    +0.000 F 
ATOM     18  F   UNL     1      38.630  24.842  42.797  0.00  0.00    +0.000 F 
ATOM     19  F   UNL     1      36.382  24.713  42.632  0.00  0.00    +0.000 F 
ENDBRANCH   3  16
TORSDOF 1
