
 OpenBabel03242509023D

 36 39  0  0  1  0  0  0  0  0999 V2000
   37.1640   29.5380   40.7460 N   0  0  1  0  0  0  0  0  0  0  0  0
   35.6850   29.6260   40.6280 C   0  0  0  0  0  0  0  0  0  0  0  0
   35.1840   28.8890   39.4230 C   0  0  0  0  0  0  0  0  0  0  0  0
   35.9800   29.1400   38.3110 O   0  0  0  0  0  0  0  0  0  0  0  0
   36.6240   30.3380   38.5080 C   0  0  0  0  0  0  0  0  0  0  0  0
   37.6880   30.2310   39.6260 C   0  0  1  0  0  0  0  0  0  0  0  0
   35.2230   29.1870   41.5540 H   0  0  0  0  0  0  0  0  0  0  0  0
   35.3450   30.6790   40.6270 H   0  0  0  0  0  0  0  0  0  0  0  0
   34.1500   29.2010   39.2380 H   0  0  0  0  0  0  0  0  0  0  0  0
   35.1320   27.8090   39.6840 H   0  0  0  0  0  0  0  0  0  0  0  0
   35.9670   31.2030   38.6960 H   0  0  0  0  0  0  0  0  0  0  0  0
   37.2180   30.5430   37.5760 H   0  0  0  0  0  0  0  0  0  0  0  0
   38.4930   29.6080   39.1840 H   0  0  0  0  0  0  0  0  0  0  0  0
   37.8960   28.9000   43.1450 C   0  0  1  0  0  0  0  0  0  0  0  0
   38.9190   29.8180   42.5960 C   0  0  0  0  0  0  0  0  0  0  0  0
   37.5720   29.9220   42.0300 C   0  0  1  0  0  0  0  0  0  0  0  0
   37.3750   29.0290   44.0940 H   0  0  0  0  0  0  0  0  0  0  0  0
   39.3030   30.5890   43.3270 H   0  0  0  0  0  0  0  0  0  0  0  0
   39.7880   29.3520   42.0720 H   0  0  0  0  0  0  0  0  0  0  0  0
   36.9930   30.7940   42.4660 H   0  0  0  0  0  0  0  0  0  0  0  0
   39.3420   25.7030   42.0410 C   0  0  0  0  0  0  0  0  0  0  0  0
   38.2120   24.8380   42.0270 C   0  0  0  0  0  0  0  0  0  0  0  0
   36.9550   25.4030   42.3970 C   0  0  0  0  0  0  0  0  0  0  0  0
   36.8960   26.7380   42.7450 N   0  0  0  0  0  0  0  0  0  0  0  0
   38.0060   27.4830   42.7330 C   0  0  0  0  0  0  0  0  0  0  0  0
   39.2180   26.9920   42.3900 N   0  0  0  0  0  0  0  0  0  0  0  0
   40.3080   25.3160   41.7690 H   0  0  0  0  0  0  0  0  0  0  0  0
   38.2930   23.8110   41.7530 H   0  0  0  0  0  0  0  0  0  0  0  0
   36.0630   24.7900   42.4030 H   0  0  0  0  0  0  0  0  0  0  0  0
   38.1990   31.5580   39.8880 N   0  0  0  0  0  0  0  0  0  0  0  0
   39.5040   31.8780   39.8970 N   0  0  0  0  0  0  0  0  0  0  0  0
   39.6490   33.1650   40.1620 C   0  0  0  0  0  0  0  0  0  0  0  0
   40.6660   33.5760   40.2030 H   0  0  0  0  0  0  0  0  0  0  0  0
   38.4270   33.7420   40.3350 C   0  0  0  0  0  0  0  0  0  0  0  0
   37.5320   32.7040   40.1570 C   0  0  0  0  0  0  0  0  0  0  0  0
   36.4560   32.7980   40.2240 H   0  0  0  0  0  0  0  0  0  0  0  0
  1  2  1  1  0  0  0
  1 16  1  0  0  0  0
  2  7  1  0  0  0  0
  3 10  1  0  0  0  0
  3  2  1  0  0  0  0
  4  5  1  0  0  0  0
  4  3  1  0  0  0  0
  5 11  1  0  0  0  0
  5  6  1  0  0  0  0
  6 13  1  6  0  0  0
  6 30  1  0  0  0  0
  6  1  1  0  0  0  0
  8  2  1  0  0  0  0
  9  3  1  0  0  0  0
 12  5  1  0  0  0  0
 14 17  1  1  0  0  0
 15 14  1  0  0  0  0
 15 18  1  0  0  0  0
 16 20  1  1  0  0  0
 16 15  1  0  0  0  0
 16 14  1  0  0  0  0
 19 15  1  0  0  0  0
 21 26  1  0  0  0  0
 22 21  2  0  0  0  0
 22 23  1  0  0  0  0
 23 29  1  0  0  0  0
 23 24  2  0  0  0  0
 25 24  1  0  0  0  0
 25 14  1  0  0  0  0
 26 25  2  0  0  0  0
 27 21  1  0  0  0  0
 28 22  1  0  0  0  0
 30 31  1  0  0  0  0
 30 35  1  0  0  0  0
 31 32  2  0  0  0  0
 32 33  1  0  0  0  0
 32 34  1  0  0  0  0
 35 36  1  0  0  0  0
 35 34  2  0  0  0  0
M  END
>  <minimizedAffinity>
-4.94092607

>  <minimizedRMSD>
2.7871995

$$$$
