
 OpenBabel03242509263D

 46 50  0  0  0  0  0  0  0  0999 V2000
   36.1160   30.0630   41.0820 C   0  0  0  0  0  0  0  0  0  0  0  0
   35.4980   30.5560   41.8900 H   0  0  0  0  0  0  0  0  0  0  0  0
   36.7170   30.8860   40.6400 H   0  0  0  0  0  0  0  0  0  0  0  0
   38.5880   28.1540   42.6870 C   0  0  0  0  0  0  0  0  0  0  0  0
   37.5060   27.3160   42.7880 C   0  0  0  0  0  0  0  0  0  0  0  0
   36.4370   27.9750   42.1720 C   0  0  0  0  0  0  0  0  0  0  0  0
   36.9590   29.1380   41.7590 N   0  0  0  0  0  0  0  0  0  0  0  0
   38.2140   29.2830   42.0380 N   0  0  0  0  0  0  0  0  0  0  0  0
   37.5360   26.3470   43.2640 H   0  0  0  0  0  0  0  0  0  0  0  0
   35.4590   27.5370   42.1100 H   0  0  0  0  0  0  0  0  0  0  0  0
   41.5150   26.4960   44.2940 C   0  0  0  0  0  0  0  0  0  0  0  0
   40.2090   26.6900   43.8270 C   0  0  0  0  0  0  0  0  0  0  0  0
   39.9230   27.9010   43.1840 C   0  0  0  0  0  0  0  0  0  0  0  0
   40.8990   28.8190   43.0380 N   0  0  0  0  0  0  0  0  0  0  0  0
   42.1570   28.5840   43.5090 C   0  0  0  0  0  0  0  0  0  0  0  0
   42.4520   27.4320   44.1280 N   0  0  0  0  0  0  0  0  0  0  0  0
   41.8090   25.5830   44.8010 H   0  0  0  0  0  0  0  0  0  0  0  0
   39.4650   25.9140   43.9740 H   0  0  0  0  0  0  0  0  0  0  0  0
   43.0430   29.6850   43.2530 N   0  0  0  0  0  0  0  0  0  0  0  0
   43.5240   30.5120   44.1710 N   0  0  0  0  0  0  0  0  0  0  0  0
   44.3240   31.4280   43.5920 C   0  0  0  0  0  0  0  0  0  0  0  0
   44.8520   32.2270   44.1040 H   0  0  0  0  0  0  0  0  0  0  0  0
   44.3550   31.1770   42.2350 C   0  0  0  0  0  3  0  0  0  0  0  0
   43.5400   30.0770   42.0660 C   0  0  0  0  0  0  0  0  0  0  0  0
   43.3030   29.5690   41.1390 H   0  0  0  0  0  0  0  0  0  0  0  0
   35.2320   29.4920   40.0230 C   0  0  0  0  0  0  0  0  0  0  0  0
   34.7640   28.5890   40.3900 H   0  0  0  0  0  0  0  0  0  0  0  0
   34.5150   30.3730   39.8960 H   0  0  0  0  0  0  0  0  0  0  0  0
   35.8520   29.4090   38.6820 C   0  0  0  0  0  0  0  0  0  0  0  0
   37.1730   29.5380   38.3610 C   0  0  0  0  0  0  0  0  0  0  0  0
   37.6990   29.5260   37.1050 C   0  0  0  0  0  0  0  0  0  0  0  0
   36.8530   29.3730   36.0210 C   0  0  0  0  0  0  0  0  0  0  0  0
   35.4990   29.2350   36.2780 C   0  0  0  0  0  0  0  0  0  0  0  0
   34.7190   29.0890   35.1600 C   0  0  0  0  0  0  0  0  0  0  0  0
   33.3640   28.9400   35.3000 C   0  0  0  0  0  0  0  0  0  0  0  0
   32.8170   28.9400   36.5680 C   0  0  0  0  0  0  0  0  0  0  0  0
   33.6540   29.0910   37.6340 C   0  0  0  0  0  0  0  0  0  0  0  0
   35.0030   29.2500   37.5770 C   0  0  0  0  0  0  0  0  0  0  0  0
   37.8500   29.6610   39.2080 H   0  0  0  0  0  0  0  0  0  0  0  0
   38.7690   29.6380   36.9910 H   0  0  0  0  0  0  0  0  0  0  0  0
   37.2960   29.3710   35.0530 H   0  0  0  0  0  0  0  0  0  0  0  0
   35.1210   29.0820   34.1550 H   0  0  0  0  0  0  0  0  0  0  0  0
   32.7420   28.8250   34.4220 H   0  0  0  0  0  0  0  0  0  0  0  0
   31.7510   28.8210   36.6740 H   0  0  0  0  0  0  0  0  0  0  0  0
   33.0410   29.0660   38.8800 O   0  0  0  0  0  0  0  0  0  0  0  0
   32.5780   28.2600   39.2470 H   0  0  0  0  0  0  0  0  0  0  0  0
  1  7  1  0  0  0  0
  1  2  1  0  0  0  0
  3  1  1  0  0  0  0
  4  5  1  0  0  0  0
  4 13  1  0  0  0  0
  5  9  1  0  0  0  0
  6  5  2  0  0  0  0
  7  8  1  0  0  0  0
  7  6  1  0  0  0  0
  8  4  2  0  0  0  0
 10  6  1  0  0  0  0
 11 17  1  0  0  0  0
 12 18  1  0  0  0  0
 12 11  2  0  0  0  0
 13 12  1  0  0  0  0
 14 13  2  0  0  0  0
 14 15  1  0  0  0  0
 15 16  2  0  0  0  0
 16 11  1  0  0  0  0
 19 15  1  0  0  0  0
 19 20  1  0  0  0  0
 21 22  1  0  0  0  0
 21 20  2  0  0  0  0
 23 21  1  0  0  0  0
 24 23  2  0  0  0  0
 24 19  1  0  0  0  0
 25 24  1  0  0  0  0
 26 27  1  0  0  0  0
 26  1  1  0  0  0  0
 28 26  1  0  0  0  0
 29 26  1  0  0  0  0
 30 29  1  0  0  0  0
 30 39  1  0  0  0  0
 31 30  2  0  0  0  0
 32 33  2  0  0  0  0
 32 31  1  0  0  0  0
 33 38  1  0  0  0  0
 34 35  2  0  0  0  0
 34 33  1  0  0  0  0
 35 36  1  0  0  0  0
 36 44  1  0  0  0  0
 36 37  2  0  0  0  0
 37 45  1  0  0  0  0
 38 37  1  0  0  0  0
 38 29  2  0  0  0  0
 40 31  1  0  0  0  0
 41 32  1  0  0  0  0
 42 34  1  0  0  0  0
 43 35  1  0  0  0  0
 45 46  1  0  0  0  0
M  END
>  <minimizedAffinity>
-6.16816807

>  <minimizedRMSD>
0.26085639

$$$$
