REMARK  Name = 
REMARK  5 active torsions:
REMARK  status: ('A' for Active; 'I' for Inactive)
REMARK    1  A    between atoms: C_1  and  C_2
REMARK    2  A    between atoms: C_1  and  C_13
REMARK    3  A    between atoms: C_10  and  O_12
REMARK    4  A    between atoms: C_13  and  N_17
REMARK    5  A    between atoms: C_14  and  C_21
REMARK                            x       y       z     vdW  Elec       q    Type
REMARK                         _______ _______ _______ _____ _____    ______ ____
ROOT
ATOM      1  C   UNL     1      36.169  30.073  41.130  0.00  0.00    +0.000 C 
ATOM      2  H   UNL     1      35.553  30.567  41.938  0.00  0.00    +0.000 HD
ATOM      3  H   UNL     1      36.768  30.895  40.683  0.00  0.00    +0.000 HD
ENDROOT
BRANCH   1   7
ATOM      4  C   UNL     1      38.654  28.164  42.715  0.00  0.00    +0.000 A 
ATOM      5  C   UNL     1      37.562  27.348  42.870  0.00  0.00    +0.000 A 
ATOM      6  C   UNL     1      36.487  28.009  42.267  0.00  0.00    +0.000 A 
ATOM      7  N   UNL     1      37.016  29.151  41.807  0.00  0.00    +0.000 N 
ATOM      8  N   UNL     1      38.281  29.282  42.047  0.00  0.00    +0.000 NA
ATOM      9  H   UNL     1      37.589  26.392  43.371  0.00  0.00    +0.000 HD
ATOM     10  H   UNL     1      35.500  27.587  42.245  0.00  0.00    +0.000 HD
BRANCH   4  13
ATOM     11  C   UNL     1      41.576  26.552  44.378  0.00  0.00    +0.000 A 
ATOM     12  C   UNL     1      40.259  26.759  43.948  0.00  0.00    +0.000 A 
ATOM     13  C   UNL     1      39.999  27.901  43.181  0.00  0.00    +0.000 A 
ATOM     14  N   UNL     1      41.008  28.745  42.887  0.00  0.00    +0.000 NA
ATOM     15  C   UNL     1      42.275  28.501  43.328  0.00  0.00    +0.000 A 
ATOM     16  N   UNL     1      42.546  27.414  44.064  0.00  0.00    +0.000 NA
ATOM     17  H   UNL     1      41.852  25.690  44.975  0.00  0.00    +0.000 HD
ATOM     18  H   UNL     1      39.488  26.044  44.217  0.00  0.00    +0.000 HD
ATOM     19  N   UNL     1      43.198  29.518  42.907  0.00  0.00    +0.000 N 
ATOM     20  N   UNL     1      43.761  30.418  43.700  0.00  0.00    +0.000 NA
ATOM     21  C   UNL     1      44.573  31.219  42.984  0.00  0.00    +0.000 A 
ATOM     22  H   UNL     1      45.162  32.044  43.376  0.00  0.00    +0.000 HD
ATOM     23  C   UNL     1      44.527  30.813  41.666  0.00  0.00    +0.000 A 
ATOM     24  C   UNL     1      43.654  29.745  41.662  0.00  0.00    +0.000 A 
ATOM     25  H   UNL     1      43.349  29.147  40.812  0.00  0.00    +0.000 HD
ENDBRANCH   4  13
ENDBRANCH   1   7
BRANCH   1  26
ATOM     26  C   UNL     1      35.283  29.496  40.075  0.00  0.00    +0.000 C 
ATOM     27  H   UNL     1      34.832  28.584  40.440  0.00  0.00    +0.000 HD
ATOM     28  H   UNL     1      34.552  30.368  39.962  0.00  0.00    +0.000 HD
BRANCH  26  29
ATOM     29  C   UNL     1      35.891  29.432  38.728  0.00  0.00    +0.000 A 
ATOM     30  C   UNL     1      37.204  29.599  38.393  0.00  0.00    +0.000 A 
ATOM     31  C   UNL     1      37.717  29.603  37.131  0.00  0.00    +0.000 A 
ATOM     32  C   UNL     1      36.864  29.427  36.056  0.00  0.00    +0.000 A 
ATOM     33  C   UNL     1      35.517  29.250  36.327  0.00  0.00    +0.000 A 
ATOM     34  C   UNL     1      34.730  29.082  35.218  0.00  0.00    +0.000 A 
ATOM     35  C   UNL     1      33.381  28.895  35.372  0.00  0.00    +0.000 A 
ATOM     36  C   UNL     1      32.848  28.878  36.646  0.00  0.00    +0.000 A 
ATOM     37  C   UNL     1      33.692  29.052  37.703  0.00  0.00    +0.000 A 
ATOM     38  C   UNL     1      35.035  29.250  37.632  0.00  0.00    +0.000 A 
ATOM     39  H   UNL     1      37.886  29.740  39.233  0.00  0.00    +0.000 HD
ATOM     40  H   UNL     1      38.782  29.745  37.006  0.00  0.00    +0.000 HD
ATOM     41  H   UNL     1      37.296  29.438  35.083  0.00  0.00    +0.000 HD
ATOM     42  H   UNL     1      35.121  29.088  34.208  0.00  0.00    +0.000 HD
ATOM     43  H   UNL     1      32.753  28.763  34.501  0.00  0.00    +0.000 HD
ATOM     44  H   UNL     1      31.787  28.729  36.763  0.00  0.00    +0.000 HD
BRANCH  37  45
ATOM     45  O   UNL     1      33.093  29.009  38.955  0.00  0.00    +0.000 OA
ATOM     46  H   UNL     1      32.657  28.190  39.327  0.00  0.00    +0.000 HD
ENDBRANCH  37  45
ENDBRANCH  26  29
ENDBRANCH   1  26
TORSDOF 5
