
 OpenBabel03242507203D

 18 19  0  0  0  0  0  0  0  0999 V2000
   38.1300   29.0030   43.3010 C   0  0  0  0  0  0  0  0  0  0  0  0
   37.9670   27.5960   43.3710 C   0  0  0  0  0  0  0  0  0  0  0  0
   37.1300   26.9800   42.4390 C   0  0  0  0  0  0  0  0  0  0  0  0
   36.5270   27.7680   41.5240 N   0  0  0  0  0  0  0  0  0  0  0  0
   36.6940   29.1020   41.4720 C   0  0  0  0  0  0  0  0  0  0  0  0
   37.4910   29.7050   42.3580 N   0  0  0  0  0  0  0  0  0  0  0  0
   38.7860   29.4500   44.0390 H   0  0  0  0  0  0  0  0  0  0  0  0
   38.4590   26.9990   44.1080 H   0  0  0  0  0  0  0  0  0  0  0  0
   36.1450   29.6180   40.6790 H   0  0  0  0  0  0  0  0  0  0  0  0
   36.9270   25.5010   42.4740 C   0  0  0  0  0  0  0  0  0  0  0  0
   35.8510   25.3670   42.1590 H   0  0  0  0  0  0  0  0  0  0  0  0
   37.0190   25.0650   43.4730 H   0  0  0  0  0  0  0  0  0  0  0  0
   37.7760   24.8030   41.4440 C   0  0  0  0  0  0  0  0  0  0  0  0
   38.7720   25.4660   40.6600 C   0  0  0  0  0  0  0  0  0  0  0  0
   39.4040   24.1030   39.6540 S   0  0  0  0  0  0  0  0  0  0  0  0
   38.2210   22.8500   40.4540 C   0  0  0  0  0  0  0  0  0  0  0  0
   38.2070   21.8060   40.1710 H   0  0  0  0  0  0  0  0  0  0  0  0
   37.5750   23.5090   41.2720 N   0  0  0  0  0  0  0  0  0  0  0  0
  1  2  1  0  0  0  0
  1  7  1  0  0  0  0
  2  8  1  0  0  0  0
  3 10  1  0  0  0  0
  3  2  2  0  0  0  0
  4  3  1  0  0  0  0
  5  4  2  0  0  0  0
  5  6  1  0  0  0  0
  6  1  2  0  0  0  0
  9  5  1  0  0  0  0
 10 12  1  0  0  0  0
 11 10  1  0  0  0  0
 13 10  1  0  0  0  0
 14 13  2  0  0  0  0
 15 16  1  0  0  0  0
 15 14  1  0  0  0  0
 16 18  2  0  0  0  0
 17 16  1  0  0  0  0
 18 13  1  0  0  0  0
M  END
>  <minimizedAffinity>
-3.38472533

>  <minimizedRMSD>
0.644321382

$$$$
