
     RDKit          3D

 47 51  0  0  0  0  0  0  0  0999 V2000
   35.2835   29.4964   40.0746 C   0  0  0  0  0  0  0  0  0  0  0  0
   35.8909   29.4323   38.7281 C   0  0  0  0  0  0  0  0  0  0  0  0
   37.2040   29.5988   38.3934 C   0  0  0  0  0  0  0  0  0  0  0  0
   37.7172   29.6033   37.1306 C   0  0  0  0  0  0  0  0  0  0  0  0
   36.8638   29.4269   36.0557 C   0  0  0  0  0  0  0  0  0  0  0  0
   35.5166   29.2504   36.3269 C   0  0  0  0  0  0  0  0  0  0  0  0
   34.7298   29.0816   35.2179 C   0  0  0  0  0  0  0  0  0  0  0  0
   33.3811   28.8945   35.3723 C   0  0  0  0  0  0  0  0  0  0  0  0
   32.8482   28.8780   36.6462 C   0  0  0  0  0  0  0  0  0  0  0  0
   33.6917   29.0524   37.7029 C   0  0  0  0  0  0  0  0  0  0  0  0
   35.0349   29.2495   37.6318 C   0  0  0  0  0  0  0  0  0  0  0  0
   33.0935   29.0088   38.9548 O   0  0  0  0  0  0  0  0  0  0  0  0
   36.1695   30.0731   41.1304 C   0  0  0  0  0  0  0  0  0  0  0  0
   38.6543   28.1638   42.7151 C   0  0  0  0  0  0  0  0  0  0  0  0
   37.5619   27.3481   42.8705 C   0  0  0  0  0  0  0  0  0  0  0  0
   36.4871   28.0095   42.2675 C   0  0  0  0  0  0  0  0  0  0  0  0
   37.0164   29.1510   41.8068 N   0  0  0  0  0  0  0  0  0  0  0  0
   38.2812   29.2821   42.0467 N   0  0  0  0  0  0  0  0  0  0  0  0
   41.5758   26.5520   44.3776 C   0  0  0  0  0  0  0  0  0  0  0  0
   40.2586   26.7592   43.9484 C   0  0  0  0  0  0  0  0  0  0  0  0
   39.9987   27.9014   43.1806 C   0  0  0  0  0  0  0  0  0  0  0  0
   41.0080   28.7453   42.8873 N   0  0  0  0  0  0  0  0  0  0  0  0
   42.2746   28.5009   43.3278 C   0  0  0  0  0  0  0  0  0  0  0  0
   42.5460   27.4138   44.0643 N   0  0  0  0  0  0  0  0  0  0  0  0
   34.8318   28.5842   40.4404 H   0  0  0  0  0  0  0  0  0  0  0  0
   34.5523   30.3679   39.9625 H   0  0  0  0  0  0  0  0  0  0  0  0
   37.8865   29.7397   39.2333 H   0  0  0  0  0  0  0  0  0  0  0  0
   38.7817   29.7454   37.0061 H   0  0  0  0  0  0  0  0  0  0  0  0
   37.2963   29.4376   35.0826 H   0  0  0  0  0  0  0  0  0  0  0  0
   35.1211   29.0879   34.2075 H   0  0  0  0  0  0  0  0  0  0  0  0
   32.7534   28.7626   34.5009 H   0  0  0  0  0  0  0  0  0  0  0  0
   31.7873   28.7285   36.7632 H   0  0  0  0  0  0  0  0  0  0  0  0
   32.6566   28.1897   39.3270 H   0  0  0  0  0  0  0  0  0  0  0  0
   35.5535   30.5670   41.9383 H   0  0  0  0  0  0  0  0  0  0  0  0
   36.7676   30.8949   40.6833 H   0  0  0  0  0  0  0  0  0  0  0  0
   37.5887   26.3917   43.3710 H   0  0  0  0  0  0  0  0  0  0  0  0
   35.5003   27.5871   42.2454 H   0  0  0  0  0  0  0  0  0  0  0  0
   41.8518   25.6902   44.9752 H   0  0  0  0  0  0  0  0  0  0  0  0
   39.4883   26.0435   44.2166 H   0  0  0  0  0  0  0  0  0  0  0  0
   43.1980   29.5182   42.9073 N   0  0  0  0  0  0  0  0  0  0  0  0
   43.9724   30.2308   43.7121 N   0  0  0  0  0  0  0  0  0  0  0  0
   44.7139   31.0941   42.9920 C   0  0  0  0  0  0  0  0  0  0  0  0
   45.4364   31.8017   43.3912 H   0  0  0  0  0  0  0  0  0  0  0  0
   44.3985   30.9261   41.6584 C   0  0  0  0  0  0  0  0  0  0  0  0
   43.4454   29.9297   41.6500 C   0  0  0  0  0  0  0  0  0  0  0  0
   42.9418   29.5073   40.7898 H   0  0  0  0  0  0  0  0  0  0  0  0
   44.7891   31.4409   40.7851 H   0  0  0  0  0  0  0  0  0  0  0  0
  1 13  1  0
  2  1  1  0
  3  2  2  0
  4  3  1  0
  5  6  1  0
  5  4  2  0
  6 11  2  0
  7  8  2  0
  7  6  1  0
  8  9  1  0
  9 10  2  0
 10 12  1  0
 11 10  1  0
 11  2  1  0
 13 17  1  0
 14 15  1  0
 14 21  1  0
 16 15  2  0
 17 18  1  0
 17 16  1  0
 18 14  2  0
 20 19  2  0
 21 20  1  0
 22 21  2  0
 22 23  1  0
 23 24  2  0
 24 19  1  0
  1 25  1  0
  1 26  1  0
  3 27  1  0
  4 28  1  0
  5 29  1  0
  7 30  1  0
  8 31  1  0
  9 32  1  0
 12 33  1  0
 13 34  1  0
 13 35  1  0
 15 36  1  0
 16 37  1  0
 19 38  1  0
 20 39  1  0
 40 41  1  0
 41 42  2  0
 42 43  1  0
 42 44  1  0
 44 45  2  0
 45 46  1  0
 45 40  1  0
 44 47  1  0
 23 40  1  0
M  ISO  8  25   8  26   8  27  14  28  14  29  14  30  14  31  14  32  14
M  ISO  8  33   3  34   8  35   8  36  14  37  14  38  14  39  14  43  14
M  ISO  1  46  14
M  END
>  <DihAtoms>  (1) 
21,22,39,40

>  <DihDeg>  (1) 
49.27299679918104

$$$$
