
 OpenBabel03242509253D

 44 48  0  0  0  0  0  0  0  0999 V2000
   36.1230   30.0720   41.0950 C   0  0  0  0  0  0  0  0  0  0  0  0
   36.7330   30.8630   40.5950 H   0  0  0  0  0  0  0  0  0  0  0  0
   35.5530   30.6190   41.8740 H   0  0  0  0  0  0  0  0  0  0  0  0
   38.6100   28.1680   42.6890 C   0  0  0  0  0  0  0  0  0  0  0  0
   37.5310   27.3240   42.7990 C   0  0  0  0  0  0  0  0  0  0  0  0
   36.4560   27.9790   42.1890 C   0  0  0  0  0  0  0  0  0  0  0  0
   36.9660   29.1450   41.7670 N   0  0  0  0  0  0  0  0  0  0  0  0
   38.2280   29.2980   42.0390 N   0  0  0  0  0  0  0  0  0  0  0  0
   37.5900   26.3590   43.2800 H   0  0  0  0  0  0  0  0  0  0  0  0
   35.5040   27.5070   42.1540 H   0  0  0  0  0  0  0  0  0  0  0  0
   41.5410   26.5530   44.3350 C   0  0  0  0  0  0  0  0  0  0  0  0
   40.2310   26.7420   43.8780 C   0  0  0  0  0  0  0  0  0  0  0  0
   39.9500   27.9230   43.1780 C   0  0  0  0  0  0  0  0  0  0  0  0
   40.9360   28.8410   42.9640 N   0  0  0  0  0  0  0  0  0  0  0  0
   42.1960   28.5950   43.4380 C   0  0  0  0  0  0  0  0  0  0  0  0
   42.4860   27.4690   44.1100 N   0  0  0  0  0  0  0  0  0  0  0  0
   41.8250   25.6580   44.8850 H   0  0  0  0  0  0  0  0  0  0  0  0
   39.4790   25.9890   44.0700 H   0  0  0  0  0  0  0  0  0  0  0  0
   43.0950   29.6570   43.1220 N   0  0  0  0  0  0  0  0  0  0  0  0
   42.9240   30.8910   43.6270 C   0  0  0  0  0  0  0  0  0  0  0  0
   43.9140   31.6710   43.1590 N   0  0  0  0  0  0  0  0  0  0  0  0
   44.7030   30.9090   42.3570 C   0  0  0  0  0  0  0  0  0  0  0  0
   44.1670   29.6690   42.3570 N   0  0  0  0  0  0  0  0  0  0  0  0
   35.2420   29.4920   40.0350 C   0  0  0  0  0  0  0  0  0  0  0  0
   34.5250   30.3690   39.9050 H   0  0  0  0  0  0  0  0  0  0  0  0
   34.7790   28.5850   40.3970 H   0  0  0  0  0  0  0  0  0  0  0  0
   35.8640   29.4100   38.6860 C   0  0  0  0  0  0  0  0  0  0  0  0
   37.1850   29.5420   38.3670 C   0  0  0  0  0  0  0  0  0  0  0  0
   37.7060   29.5320   37.1120 C   0  0  0  0  0  0  0  0  0  0  0  0
   36.8670   29.3780   36.0340 C   0  0  0  0  0  0  0  0  0  0  0  0
   35.5220   29.2370   36.2890 C   0  0  0  0  0  0  0  0  0  0  0  0
   34.7220   29.0920   35.1720 C   0  0  0  0  0  0  0  0  0  0  0  0
   33.3740   28.9470   35.3070 C   0  0  0  0  0  0  0  0  0  0  0  0
   32.8240   28.9440   36.5790 C   0  0  0  0  0  0  0  0  0  0  0  0
   33.6640   29.0920   37.6500 C   0  0  0  0  0  0  0  0  0  0  0  0
   35.0080   29.2470   37.5810 C   0  0  0  0  0  0  0  0  0  0  0  0
   37.8470   29.6650   39.2290 H   0  0  0  0  0  0  0  0  0  0  0  0
   38.7710   29.6480   37.0140 H   0  0  0  0  0  0  0  0  0  0  0  0
   37.2930   29.3740   35.0480 H   0  0  0  0  0  0  0  0  0  0  0  0
   35.1420   29.0900   34.1610 H   0  0  0  0  0  0  0  0  0  0  0  0
   32.7570   28.8360   34.4250 H   0  0  0  0  0  0  0  0  0  0  0  0
   31.7550   28.8260   36.6900 H   0  0  0  0  0  0  0  0  0  0  0  0
   33.0550   29.0640   38.8900 O   0  0  0  0  0  0  0  0  0  0  0  0
   32.5910   28.2150   39.1770 H   0  0  0  0  0  0  0  0  0  0  0  0
  1  7  1  0  0  0  0
  1  3  1  0  0  0  0
  2  1  1  0  0  0  0
  4  5  1  0  0  0  0
  4 13  1  0  0  0  0
  5  9  1  0  0  0  0
  6  5  2  0  0  0  0
  7  8  1  0  0  0  0
  7  6  1  0  0  0  0
  8  4  2  0  0  0  0
 10  6  1  0  0  0  0
 11 17  1  0  0  0  0
 12 18  1  0  0  0  0
 12 11  2  0  0  0  0
 13 12  1  0  0  0  0
 14 13  2  0  0  0  0
 14 15  1  0  0  0  0
 15 16  2  0  0  0  0
 16 11  1  0  0  0  0
 19 15  1  0  0  0  0
 19 20  1  0  0  0  0
 21 20  2  0  0  0  0
 22 23  2  0  0  0  0
 22 21  1  0  0  0  0
 23 19  1  0  0  0  0
 24 26  1  0  0  0  0
 24  1  1  0  0  0  0
 25 24  1  0  0  0  0
 27 24  1  0  0  0  0
 28 27  1  0  0  0  0
 28 37  1  0  0  0  0
 29 28  2  0  0  0  0
 30 31  2  0  0  0  0
 30 29  1  0  0  0  0
 31 36  1  0  0  0  0
 32 33  2  0  0  0  0
 32 31  1  0  0  0  0
 33 34  1  0  0  0  0
 34 42  1  0  0  0  0
 34 35  2  0  0  0  0
 35 43  1  0  0  0  0
 36 35  1  0  0  0  0
 36 27  2  0  0  0  0
 38 29  1  0  0  0  0
 39 30  1  0  0  0  0
 40 32  1  0  0  0  0
 41 33  1  0  0  0  0
 43 44  1  0  0  0  0
M  END
>  <minimizedAffinity>
-6.20551252

>  <minimizedRMSD>
0.145669416

$$$$
