REMARK  Name = 
REMARK  1 active torsions:
REMARK  status: ('A' for Active; 'I' for Inactive)
REMARK    1  A    between atoms: C_3  and  C_7
REMARK                            x       y       z     vdW  Elec       q    Type
REMARK                         _______ _______ _______ _____ _____    ______ ____
ROOT
ATOM      1  C   UNL     1      37.974  28.884  43.366  0.00  0.00    +0.000 A 
ATOM      2  C   UNL     1      38.092  27.465  43.309  0.00  0.00    +0.000 A 
ATOM      3  C   UNL     1      37.435  26.822  42.252  0.00  0.00    +0.000 A 
ATOM      4  N   UNL     1      36.731  27.573  41.349  0.00  0.00    +0.000 NA
ATOM      5  C   UNL     1      36.649  28.913  41.446  0.00  0.00    +0.000 A 
ATOM      6  N   UNL     1      37.273  29.552  42.454  0.00  0.00    +0.000 NA
ATOM      7  H   UNL     1      38.469  29.389  44.166  0.00  0.00    +0.000 HD
ATOM      8  H   UNL     1      38.654  26.890  44.032  0.00  0.00    +0.000 HD
ATOM      9  N   UNL     1      35.908  29.664  40.490  0.00  0.00    +0.000 N 
ATOM     10  C   UNL     1      34.617  30.053  40.609  0.00  0.00    +0.000 A 
ATOM     11  N   UNL     1      34.212  30.758  39.514  0.00  0.00    +0.000 NA
ATOM     12  C   UNL     1      35.303  30.801  38.694  0.00  0.00    +0.000 A 
ATOM     13  N   UNL     1      36.280  30.141  39.314  0.00  0.00    +0.000 NA
ENDROOT
BRANCH   3  14
ATOM     14  C   UNL     1      37.531  25.336  42.152  0.00  0.00    +0.000 C 
ATOM     15  F   UNL     1      37.658  25.058  40.810  0.00  0.00    +0.000 F 
ATOM     16  F   UNL     1      38.618  24.839  42.802  0.00  0.00    +0.000 F 
ATOM     17  F   UNL     1      36.384  24.714  42.633  0.00  0.00    +0.000 F 
ENDBRANCH   3  14
TORSDOF 1
