
 OpenBabel03242503213D

 28 31  0  0  0  0  0  0  0  0999 V2000
   38.2470   30.4860   41.2930 C   0  0  0  0  0  0  0  0  0  0  0  0
   36.8820   30.5310   41.5760 C   0  0  0  0  0  0  0  0  0  0  0  0
   36.6280   29.5860   42.4760 N   0  0  0  0  0  0  0  0  0  0  0  0
   37.7480   28.9090   42.8120 C   0  0  0  0  0  0  0  0  0  0  0  0
   37.9040   27.8660   43.7010 C   0  0  0  0  0  0  0  0  0  0  0  0
   39.1920   27.3550   43.8510 C   0  0  0  0  0  0  0  0  0  0  0  0
   40.2540   27.8820   43.1310 C   0  0  0  0  0  0  0  0  0  0  0  0
   40.0860   28.9280   42.2400 C   0  0  0  0  0  0  0  0  0  0  0  0
   38.8030   29.4570   42.0760 C   0  0  0  0  0  0  0  0  0  0  0  0
   36.2190   31.2420   41.1020 H   0  0  0  0  0  0  0  0  0  0  0  0
   35.6630   29.4050   42.8640 H   0  0  0  0  0  0  0  0  0  0  0  0
   37.0900   27.4490   44.2640 H   0  0  0  0  0  0  0  0  0  0  0  0
   39.4180   26.5310   44.5300 H   0  0  0  0  0  0  0  0  0  0  0  0
   41.2770   27.5320   43.2000 H   0  0  0  0  0  0  0  0  0  0  0  0
   40.8730   29.3720   41.6610 H   0  0  0  0  0  0  0  0  0  0  0  0
   40.2800   31.5070   38.4320 C   0  0  0  0  0  0  0  0  0  0  0  0
   40.4420   32.9110   38.6390 C   0  0  0  0  0  0  0  0  0  0  0  0
   39.8360   33.4570   39.7720 C   0  0  0  0  0  0  0  0  0  0  0  0
   39.1390   32.6440   40.6000 N   0  0  0  0  0  0  0  0  0  0  0  0
   39.0090   31.3220   40.3690 C   0  0  0  0  0  0  0  0  0  0  0  0
   39.5740   30.7490   39.2930 N   0  0  0  0  0  0  0  0  0  0  0  0
   40.7550   31.0940   37.5500 H   0  0  0  0  0  0  0  0  0  0  0  0
   41.0090   33.4580   37.9270 H   0  0  0  0  0  0  0  0  0  0  0  0
   39.9930   34.8520   39.9830 N   0  0  0  0  0  0  0  0  0  0  0  0
   41.1420   35.4660   40.3050 C   0  0  0  0  0  0  0  0  0  0  0  0
   40.8920   36.7860   40.4200 N   0  0  0  0  0  0  0  0  0  0  0  0
   39.5820   36.9620   40.1630 C   0  0  0  0  0  0  0  0  0  0  0  0
   39.0210   35.7600   39.8910 N   0  0  0  0  0  0  0  0  0  0  0  0
  1  2  2  0  0  0  0
  1  9  1  0  0  0  0
  2  3  1  0  0  0  0
  3  4  1  0  0  0  0
  3 11  1  0  0  0  0
  4  5  1  0  0  0  0
  5  6  2  0  0  0  0
  5 12  1  0  0  0  0
  6 13  1  0  0  0  0
  7 14  1  0  0  0  0
  7  6  1  0  0  0  0
  8  7  2  0  0  0  0
  9  8  1  0  0  0  0
  9  4  2  0  0  0  0
 10  2  1  0  0  0  0
 15  8  1  0  0  0  0
 16 17  2  0  0  0  0
 16 21  1  0  0  0  0
 17 18  1  0  0  0  0
 18 24  1  0  0  0  0
 18 19  2  0  0  0  0
 20 19  1  0  0  0  0
 20  1  1  0  0  0  0
 21 20  2  0  0  0  0
 22 16  1  0  0  0  0
 23 17  1  0  0  0  0
 24 25  1  0  0  0  0
 25 26  2  0  0  0  0
 27 26  1  0  0  0  0
 28 24  1  0  0  0  0
 28 27  2  0  0  0  0
M  END
>  <minimizedAffinity>
-6.35749197

>  <minimizedRMSD>
8.15526485

$$$$
