
 OpenBabel03242509323D

 17 18  0  0  0  0  0  0  0  0999 V2000
   37.8610   28.6670   43.5090 C   0  0  0  0  0  0  0  0  0  0  0  0
   38.2940   27.3120   43.5980 C   0  0  0  0  0  0  0  0  0  0  0  0
   38.1760   26.5370   42.4370 C   0  0  0  0  0  0  0  0  0  0  0  0
   37.6640   27.1090   41.3030 N   0  0  0  0  0  0  0  0  0  0  0  0
   37.2670   28.3950   41.2690 C   0  0  0  0  0  0  0  0  0  0  0  0
   37.3720   29.1580   42.3730 N   0  0  0  0  0  0  0  0  0  0  0  0
   37.9440   29.2700   44.3850 H   0  0  0  0  0  0  0  0  0  0  0  0
   38.6970   26.8790   44.5030 H   0  0  0  0  0  0  0  0  0  0  0  0
   36.7380   28.9580   40.0730 N   0  0  0  0  0  0  0  0  0  0  0  0
   35.5940   28.5830   39.4540 C   0  0  0  0  0  3  0  0  0  0  0  0
   35.3770   29.3260   38.3310 N   0  0  0  0  0  0  0  0  0  0  0  0
   36.4330   30.1880   38.2630 C   0  0  0  0  0  3  0  0  0  0  0  0
   37.2100   29.9330   39.3140 N   0  0  0  0  0  0  0  0  0  0  0  0
   38.6170   25.1120   42.4830 C   0  0  0  0  0  0  0  0  0  0  0  0
   39.2820   24.8870   41.2990 F   0  0  0  0  0  0  0  0  0  0  0  0
   39.4710   24.8640   43.5130 F   0  0  0  0  0  0  0  0  0  0  0  0
   37.5350   24.2420   42.5630 F   0  0  0  0  0  0  0  0  0  0  0  0
  1  2  1  0  0  0  0
  1  7  1  0  0  0  0
  2  8  1  0  0  0  0
  3 14  1  0  0  0  0
  3  2  2  0  0  0  0
  4  3  1  0  0  0  0
  5  4  2  0  0  0  0
  5  6  1  0  0  0  0
  6  1  2  0  0  0  0
  9  5  1  0  0  0  0
 10  9  1  0  0  0  0
 11 10  2  0  0  0  0
 12 11  1  0  0  0  0
 12 13  2  0  0  0  0
 13  9  1  0  0  0  0
 14 17  1  0  0  0  0
 14 16  1  0  0  0  0
 15 14  1  0  0  0  0
M  END
>  <minimizedAffinity>
-4.0955987

>  <minimizedRMSD>
1.18976426

$$$$
