
 OpenBabel03242509323D

 17 18  0  0  0  0  0  0  0  0999 V2000
   37.5140   28.5550   43.6780 C   0  0  0  0  0  0  0  0  0  0  0  0
   37.4340   27.1670   43.3670 C   0  0  0  0  0  0  0  0  0  0  0  0
   37.2530   26.8350   42.0180 C   0  0  0  0  0  0  0  0  0  0  0  0
   37.1650   27.8380   41.0900 N   0  0  0  0  0  0  0  0  0  0  0  0
   37.2460   29.1370   41.4340 C   0  0  0  0  0  0  0  0  0  0  0  0
   37.4210   29.4790   42.7250 N   0  0  0  0  0  0  0  0  0  0  0  0
   37.6520   28.8250   44.7020 H   0  0  0  0  0  0  0  0  0  0  0  0
   37.5070   26.3890   44.1150 H   0  0  0  0  0  0  0  0  0  0  0  0
   37.1500   30.1560   40.4440 N   0  0  0  0  0  0  0  0  0  0  0  0
   37.2960   31.4860   40.6530 C   0  0  0  0  0  3  0  0  0  0  0  0
   37.1430   32.1840   39.4910 N   0  0  0  0  0  0  0  0  0  0  0  0
   36.8940   31.2410   38.5360 C   0  0  0  0  0  3  0  0  0  0  0  0
   36.9080   30.0570   39.1470 N   0  0  0  0  0  0  0  0  0  0  0  0
   37.1640   25.3930   41.6450 C   0  0  0  0  0  0  0  0  0  0  0  0
   36.4990   25.3570   40.4400 F   0  0  0  0  0  0  0  0  0  0  0  0
   38.3870   24.8200   41.4820 F   0  0  0  0  0  0  0  0  0  0  0  0
   36.4370   24.6650   42.5810 F   0  0  0  0  0  0  0  0  0  0  0  0
  1  7  1  0  0  0  0
  2  1  1  0  0  0  0
  2  8  1  0  0  0  0
  3  2  2  0  0  0  0
  4  5  2  0  0  0  0
  4  3  1  0  0  0  0
  5  6  1  0  0  0  0
  6  1  2  0  0  0  0
  9 10  1  0  0  0  0
  9  5  1  0  0  0  0
 11 10  2  0  0  0  0
 12 13  2  0  0  0  0
 12 11  1  0  0  0  0
 13  9  1  0  0  0  0
 14  3  1  0  0  0  0
 14 17  1  0  0  0  0
 15 14  1  0  0  0  0
 16 14  1  0  0  0  0
M  END
>  <minimizedAffinity>
-4.52712822

>  <minimizedRMSD>
1.29005134

$$$$
