
 OpenBabel03242508523D

 28 31  0  0  0  0  0  0  0  0999 V2000
   38.9160   28.7520   37.8240 C   0  0  0  0  0  0  0  0  0  0  0  0
   38.6010   29.1070   39.1410 C   0  0  0  0  0  0  0  0  0  0  0  0
   37.3010   29.3560   39.1760 N   0  0  0  0  0  0  0  0  0  0  0  0
   36.7240   29.1900   37.9670 C   0  0  0  0  0  0  0  0  0  0  0  0
   35.4030   29.3460   37.5810 C   0  0  0  0  0  0  0  0  0  0  0  0
   35.0880   29.1040   36.2520 C   0  0  0  0  0  0  0  0  0  0  0  0
   36.0710   28.7240   35.3710 C   0  0  0  0  0  0  0  0  0  0  0  0
   37.3910   28.5660   35.7510 C   0  0  0  0  0  0  0  0  0  0  0  0
   37.7270   28.8050   37.0870 C   0  0  0  0  0  0  0  0  0  0  0  0
   39.3880   29.1290   39.8830 H   0  0  0  0  0  0  0  0  0  0  0  0
   34.6570   29.6460   38.2940 H   0  0  0  0  0  0  0  0  0  0  0  0
   34.0760   29.2110   35.8920 H   0  0  0  0  0  0  0  0  0  0  0  0
   35.8600   28.5280   34.3290 H   0  0  0  0  0  0  0  0  0  0  0  0
   38.1730   28.2670   35.0690 H   0  0  0  0  0  0  0  0  0  0  0  0
   42.3460   29.0580   36.6100 C   0  0  0  0  0  0  0  0  0  0  0  0
   42.6970   27.7210   36.2760 C   0  0  0  0  0  0  0  0  0  0  0  0
   41.7240   26.7390   36.4820 C   0  0  0  0  0  0  0  0  0  0  0  0
   40.5330   27.1240   36.9790 N   0  0  0  0  0  0  0  0  0  0  0  0
   40.2270   28.3880   37.2860 C   0  0  0  0  0  0  0  0  0  0  0  0
   41.1340   29.3590   37.1020 N   0  0  0  0  0  0  0  0  0  0  0  0
   43.1010   29.8330   36.4510 H   0  0  0  0  0  0  0  0  0  0  0  0
   43.6910   27.5450   35.8820 H   0  0  0  0  0  0  0  0  0  0  0  0
   41.9810   25.7250   36.2320 H   0  0  0  0  0  0  0  0  0  0  0  0
   36.5910   29.7580   40.3770 C   0  0  0  0  0  0  0  0  0  0  0  0
   37.4930   30.2330   41.4710 C   0  0  0  0  0  0  0  0  0  0  0  0
   37.4790   29.1880   42.5610 C   0  0  0  0  0  0  0  0  0  0  0  0
   36.6430   28.0460   42.0850 C   0  0  0  0  0  0  0  0  0  0  0  0
   35.8650   28.5390   40.9000 C   0  0  0  0  0  0  0  0  0  0  0  0
  1  2  2  0  0  0  0
  2  3  1  0  0  0  0
  2 10  1  0  0  0  0
  3 24  1  0  0  0  0
  4  3  1  0  0  0  0
  5  4  1  0  0  0  0
  5 11  1  0  0  0  0
  6  5  2  0  0  0  0
  7  8  2  0  0  0  0
  7  6  1  0  0  0  0
  8  9  1  0  0  0  0
  9  1  1  0  0  0  0
  9  4  2  0  0  0  0
 12  6  1  0  0  0  0
 13  7  1  0  0  0  0
 14  8  1  0  0  0  0
 15 20  1  0  0  0  0
 16 17  1  0  0  0  0
 16 15  2  0  0  0  0
 17 18  2  0  0  0  0
 18 19  1  0  0  0  0
 19  1  1  0  0  0  0
 20 19  2  0  0  0  0
 21 15  1  0  0  0  0
 22 16  1  0  0  0  0
 23 17  1  0  0  0  0
 24 28  1  0  0  0  0
 24 25  1  0  0  0  0
 25 26  1  0  0  0  0
 27 26  1  0  0  0  0
 28 27  1  0  0  0  0
M  END
>  <minimizedAffinity>
-4.26967669

>  <minimizedRMSD>
5.34485483

$$$$
