
 OpenBabel03242508353D

 34 37  0  0  0  0  0  0  0  0999 V2000
   36.2150   30.4340   41.4060 O   0  0  0  0  0  0  0  0  0  0  0  0
   38.1810   28.0900   43.3810 C   0  0  0  0  0  0  0  0  0  0  0  0
   37.9350   26.9210   42.5960 C   0  0  0  0  0  0  0  0  0  0  0  0
   37.1290   27.0410   41.4800 C   0  0  0  0  0  0  0  0  0  0  0  0
   36.6240   28.2590   41.1980 N   0  0  0  0  0  0  0  0  0  0  0  0
   36.8490   29.3410   41.9210 C   0  0  0  0  0  0  0  0  0  0  0  0
   37.6330   29.2720   43.0250 N   0  0  0  0  0  0  0  0  0  0  0  0
   38.7730   28.1790   44.2690 H   0  0  0  0  0  0  0  0  0  0  0  0
   38.4850   26.1310   43.0880 H   0  0  0  0  0  0  0  0  0  0  0  0
   36.9640   25.7850   40.7870 C   0  0  0  0  0  0  0  0  0  0  0  0
   35.9770   25.8400   40.2400 H   0  0  0  0  0  0  0  0  0  0  0  0
   37.7250   25.7620   39.9520 H   0  0  0  0  0  0  0  0  0  0  0  0
   36.9850   24.5670   41.6090 C   0  0  0  0  0  0  0  0  0  0  0  0
   37.4100   24.5970   42.6020 H   0  0  0  0  0  0  0  0  0  0  0  0
   35.9260   24.1840   41.7610 H   0  0  0  0  0  0  0  0  0  0  0  0
   37.8190   23.1850   40.7500 S   0  0  0  0  0  0  0  0  0  0  0  0
   39.1780   23.1010   41.1550 H   0  0  0  0  0  0  0  0  0  0  0  0
   36.9190   31.2960   40.5540 C   0  0  0  0  0  0  0  0  0  0  0  0
   36.7190   31.5700   39.2150 N   0  0  0  0  0  0  0  0  0  0  0  0
   37.6260   32.4440   38.8350 O   0  0  0  0  0  0  0  0  0  0  0  0
   38.3650   32.7170   39.8730 C   0  0  0  0  0  0  0  0  0  0  0  0
   37.9610   32.0280   40.9540 N   0  0  0  0  0  0  0  0  0  0  0  0
   39.4820   33.6490   39.8510 C   0  0  0  0  0  0  0  0  0  0  0  0
   39.4620   35.0040   40.1010 C   0  0  0  0  0  0  0  0  0  0  0  0
   40.7220   35.5370   39.9810 C   0  0  0  0  0  0  0  0  0  0  0  0
   41.5070   34.4360   39.6470 C   0  0  0  0  0  0  0  0  0  0  0  0
   40.7520   33.4030   39.5890 O   0  0  0  0  0  0  0  0  0  0  0  0
   38.5980   35.6140   40.3590 H   0  0  0  0  0  0  0  0  0  0  0  0
   41.1370   36.5230   40.0890 H   0  0  0  0  0  0  0  0  0  0  0  0
   42.8990   34.2990   39.3830 N   0  0  0  0  0  0  0  0  0  0  0  0
   43.6560   34.2060   38.2630 C   0  0  0  0  0  0  0  0  0  0  0  0
   44.9520   34.0900   38.6060 N   0  0  0  0  0  0  0  0  0  0  0  0
   45.0040   34.1100   39.9470 C   0  0  0  0  0  0  0  0  0  0  0  0
   43.7330   34.2400   40.4120 N   0  0  0  0  0  0  0  0  0  0  0  0
  1  6  1  0  0  0  0
  2  8  1  0  0  0  0
  3  9  1  0  0  0  0
  3  2  2  0  0  0  0
  4  3  1  0  0  0  0
  5  4  2  0  0  0  0
  5  6  1  0  0  0  0
  6  7  2  0  0  0  0
  7  2  1  0  0  0  0
 10  4  1  0  0  0  0
 10 13  1  0  0  0  0
 11 10  1  0  0  0  0
 12 10  1  0  0  0  0
 13 15  1  0  0  0  0
 13 14  1  0  0  0  0
 16 17  1  0  0  0  0
 16 13  1  0  0  0  0
 18 22  1  0  0  0  0
 18  1  1  0  0  0  0
 19 18  2  0  0  0  0
 20 19  1  0  0  0  0
 20 21  1  0  0  0  0
 21 22  2  0  0  0  0
 23 21  1  0  0  0  0
 23 24  2  0  0  0  0
 24 28  1  0  0  0  0
 25 29  1  0  0  0  0
 25 24  1  0  0  0  0
 26 25  2  0  0  0  0
 27 26  1  0  0  0  0
 27 23  1  0  0  0  0
 30 26  1  0  0  0  0
 30 34  1  0  0  0  0
 31 32  2  0  0  0  0
 31 30  1  0  0  0  0
 32 33  1  0  0  0  0
 33 34  2  0  0  0  0
M  END
>  <minimizedAffinity>
-5.65701389

>  <minimizedRMSD>
0.683596075

$$$$
