
 OpenBabel03242509313D

 17 18  0  0  0  0  0  0  0  0999 V2000
   37.7970   28.5750   43.5760 C   0  0  0  0  0  0  0  0  0  0  0  0
   38.3940   27.2870   43.7070 C   0  0  0  0  0  0  0  0  0  0  0  0
   38.3460   26.4550   42.5820 C   0  0  0  0  0  0  0  0  0  0  0  0
   37.7420   26.9110   41.4400 N   0  0  0  0  0  0  0  0  0  0  0  0
   37.1910   28.1370   41.3660 C   0  0  0  0  0  0  0  0  0  0  0  0
   37.2260   28.9540   42.4360 N   0  0  0  0  0  0  0  0  0  0  0  0
   37.8250   29.2210   44.4260 H   0  0  0  0  0  0  0  0  0  0  0  0
   38.8670   26.9460   44.6180 H   0  0  0  0  0  0  0  0  0  0  0  0
   36.5710   28.5800   40.1640 N   0  0  0  0  0  0  0  0  0  0  0  0
   37.2050   28.9010   39.0110 C   0  0  0  0  0  3  0  0  0  0  0  0
   36.3150   29.2880   38.0520 N   0  0  0  0  0  0  0  0  0  0  0  0
   35.0890   29.2000   38.6470 C   0  0  0  0  0  3  0  0  0  0  0  0
   35.2910   28.7780   39.8930 N   0  0  0  0  0  0  0  0  0  0  0  0
   38.9590   25.0970   42.6730 C   0  0  0  0  0  0  0  0  0  0  0  0
   39.7640   24.9750   41.5630 F   0  0  0  0  0  0  0  0  0  0  0  0
   39.7270   24.9460   43.7850 F   0  0  0  0  0  0  0  0  0  0  0  0
   37.9950   24.0960   42.6410 F   0  0  0  0  0  0  0  0  0  0  0  0
  1  2  1  0  0  0  0
  1  7  1  0  0  0  0
  2  8  1  0  0  0  0
  3 14  1  0  0  0  0
  3  2  2  0  0  0  0
  4  3  1  0  0  0  0
  5  4  2  0  0  0  0
  5  6  1  0  0  0  0
  6  1  2  0  0  0  0
  9  5  1  0  0  0  0
 10  9  1  0  0  0  0
 11 12  1  0  0  0  0
 11 10  2  0  0  0  0
 12 13  2  0  0  0  0
 13  9  1  0  0  0  0
 14 16  1  0  0  0  0
 15 14  1  0  0  0  0
 17 14  1  0  0  0  0
M  END
>  <minimizedAffinity>
-4.06497097

>  <minimizedRMSD>
1.43208182

$$$$
