
     RDKit          3D

 19 20  0  0  0  0  0  0  0  0999 V2000
   37.9745   28.8838   43.3662 C   0  0  0  0  0  0  0  0  0  0  0  0
   38.0920   27.4645   43.3089 C   0  0  0  0  0  0  0  0  0  0  0  0
   37.4354   26.8219   42.2518 C   0  0  0  0  0  0  0  0  0  0  0  0
   36.7311   27.5728   41.3494 N   0  0  0  0  0  0  0  0  0  0  0  0
   36.6493   28.9135   41.4460 C   0  0  0  0  0  0  0  0  0  0  0  0
   37.2728   29.5519   42.4543 N   0  0  0  0  0  0  0  0  0  0  0  0
   37.5311   25.3360   42.1520 C   0  0  0  0  0  0  0  0  0  0  0  0
   37.6577   25.0578   40.8098 F   0  0  0  0  0  0  0  0  0  0  0  0
   38.6185   24.8390   42.8016 F   0  0  0  0  0  0  0  0  0  0  0  0
   36.3837   24.7137   42.6332 F   0  0  0  0  0  0  0  0  0  0  0  0
   38.4692   29.3888   44.1660 H   0  0  0  0  0  0  0  0  0  0  0  0
   38.6537   26.8905   44.0325 H   0  0  0  0  0  0  0  0  0  0  0  0
   35.9083   29.6643   40.4902 N   0  0  0  0  0  0  0  0  0  0  0  0
   36.0907   29.6480   39.1486 C   0  0  0  0  0  0  0  0  0  0  0  0
   35.2129   30.4834   38.5230 N   0  0  0  0  0  0  0  0  0  0  0  0
   34.4651   31.0311   39.5252 C   0  0  0  0  0  0  0  0  0  0  0  0
   34.9127   30.5170   40.6689 N   0  0  0  0  0  0  0  0  0  0  0  0
   36.8440   29.0400   38.6648 H   0  0  0  0  0  0  0  0  0  0  0  0
   33.6441   31.7359   39.6555 H   0  0  0  0  0  0  0  0  0  0  0  0
  2  1  2  0
  3  2  1  0
  4  5  1  0
  4  3  2  0
  5  6  2  0
  6  1  1  0
  7  3  1  0
  7 10  1  0
  7  9  1  0
  8  7  1  0
  1 11  1  0
  2 12  1  0
 13 14  1  0
 14 15  2  0
 15 16  1  0
 16 17  2  0
 17 13  1  0
 14 18  1  0
 16 19  1  0
  5 13  1  0
M  ISO  2  11  14  12  14
M  END
>  <DihAtoms>  (1) 
3,4,12,13

>  <DihDeg>  (1) 
-100.84783386063108

$$$$
