
 OpenBabel03242505503D

 18 19  0  0  0  0  0  0  0  0999 V2000
   37.5050   29.7020   42.1080 C   0  0  0  0  0  0  0  0  0  0  0  0
   36.6350   28.6200   41.9870 C   0  0  0  0  0  0  0  0  0  0  0  0
   35.6390   28.7010   40.9790 C   0  0  0  0  0  0  0  0  0  0  0  0
   35.5930   29.8110   40.2040 N   0  0  0  0  0  0  0  0  0  0  0  0
   36.4600   30.8270   40.3650 C   0  0  0  0  0  0  0  0  0  0  0  0
   37.4080   30.7640   41.3150 N   0  0  0  0  0  0  0  0  0  0  0  0
   38.2570   29.6210   42.8820 H   0  0  0  0  0  0  0  0  0  0  0  0
   34.9050   27.9020   40.8040 H   0  0  0  0  0  0  0  0  0  0  0  0
   36.4360   31.7150   39.7560 H   0  0  0  0  0  0  0  0  0  0  0  0
   36.6510   27.3990   42.8080 C   0  0  0  0  0  0  0  0  0  0  0  0
   36.2420   27.5660   43.8340 H   0  0  0  0  0  0  0  0  0  0  0  0
   35.9840   26.6550   42.3370 H   0  0  0  0  0  0  0  0  0  0  0  0
   38.0420   26.9130   42.9480 C   0  0  0  0  0  0  0  0  0  0  0  0
   38.7650   26.1800   41.9990 C   0  0  0  0  0  0  0  0  0  0  0  0
   39.9970   25.9750   42.6030 C   0  0  0  0  0  0  0  0  0  0  0  0
   39.9630   26.5710   43.8460 C   0  0  0  0  0  0  0  0  0  0  0  0
   40.7320   26.6270   44.6180 H   0  0  0  0  0  0  0  0  0  0  0  0
   38.7860   27.1230   44.0280 O   0  0  0  0  0  0  0  0  0  0  0  0
  1  7  1  0  0  0  0
  2  1  1  0  0  0  0
  2 10  1  0  0  0  0
  3  2  2  0  0  0  0
  4  5  2  0  0  0  0
  4  3  1  0  0  0  0
  5  6  1  0  0  0  0
  6  1  2  0  0  0  0
  8  3  1  0  0  0  0
  9  5  1  0  0  0  0
 10 13  1  0  0  0  0
 10 11  1  0  0  0  0
 12 10  1  0  0  0  0
 13 18  1  0  0  0  0
 14 15  1  0  0  0  0
 14 13  2  0  0  0  0
 15 16  2  0  0  0  0
 16 18  1  0  0  0  0
 16 17  1  0  0  0  0
M  END
>  <minimizedAffinity>
-3.6610465

>  <minimizedRMSD>
1.5419426

$$$$
