
     RDKit          3D

 50 55  0  0  0  0  0  0  0  0999 V2000
   38.7168   28.1646   42.7428 C   0  0  0  0  0  0  0  0  0  0  0  0
   37.6284   27.3295   42.8751 C   0  0  0  0  0  0  0  0  0  0  0  0
   36.5617   28.0167   42.3071 C   0  0  0  0  0  0  0  0  0  0  0  0
   37.0628   29.2069   41.8723 N   0  0  0  0  0  0  0  0  0  0  0  0
   38.3117   29.2790   42.1307 N   0  0  0  0  0  0  0  0  0  0  0  0
   41.6383   26.5346   44.3906 C   0  0  0  0  0  0  0  0  0  0  0  0
   40.3258   26.7447   43.9648 C   0  0  0  0  0  0  0  0  0  0  0  0
   40.0584   27.8997   43.1949 C   0  0  0  0  0  0  0  0  0  0  0  0
   41.0621   28.7552   42.8960 N   0  0  0  0  0  0  0  0  0  0  0  0
   42.3320   28.4906   43.3457 C   0  0  0  0  0  0  0  0  0  0  0  0
   42.6108   27.4114   44.0719 N   0  0  0  0  0  0  0  0  0  0  0  0
   36.1844   30.1341   41.2451 C   0  0  0  0  0  0  0  0  0  0  0  0
   35.3151   29.5187   40.1673 C   0  0  0  0  0  0  0  0  0  0  0  0
   35.8694   29.6632   38.8174 C   0  0  0  0  0  0  0  0  0  0  0  0
   37.1032   30.1507   38.4444 C   0  0  0  0  0  0  0  0  0  0  0  0
   37.5830   30.2813   37.1687 C   0  0  0  0  0  0  0  0  0  0  0  0
   36.7807   29.8955   36.1101 C   0  0  0  0  0  0  0  0  0  0  0  0
   35.5336   29.3979   36.4082 C   0  0  0  0  0  0  0  0  0  0  0  0
   34.7852   29.0264   35.3150 C   0  0  0  0  0  0  0  0  0  0  0  0
   33.5400   28.5181   35.4903 C   0  0  0  0  0  0  0  0  0  0  0  0
   33.0602   28.3900   36.7719 C   0  0  0  0  0  0  0  0  0  0  0  0
   33.8419   28.7746   37.8408 C   0  0  0  0  0  0  0  0  0  0  0  0
   35.0975   29.2877   37.7109 C   0  0  0  0  0  0  0  0  0  0  0  0
   37.6618   26.3447   43.3393 H   0  0  0  0  0  0  0  0  0  0  0  0
   35.5977   27.5256   42.3099 H   0  0  0  0  0  0  0  0  0  0  0  0
   41.7660   25.6325   44.9738 H   0  0  0  0  0  0  0  0  0  0  0  0
   39.5132   26.0972   44.1788 H   0  0  0  0  0  0  0  0  0  0  0  0
   43.1056   29.2066   43.0808 H   0  0  0  0  0  0  0  0  0  0  0  0
   36.7274   31.0174   40.8829 H   0  0  0  0  0  0  0  0  0  0  0  0
   35.5519   30.5339   42.0927 H   0  0  0  0  0  0  0  0  0  0  0  0
   34.4450   30.1308   40.2548 H   0  0  0  0  0  0  0  0  0  0  0  0
   35.3358   28.4777   40.5295 H   0  0  0  0  0  0  0  0  0  0  0  0
   37.7527   30.4565   39.2524 H   0  0  0  0  0  0  0  0  0  0  0  0
   38.5828   30.6841   37.0044 H   0  0  0  0  0  0  0  0  0  0  0  0
   37.1887   30.0121   35.1334 H   0  0  0  0  0  0  0  0  0  0  0  0
   35.1647   29.1280   34.3065 H   0  0  0  0  0  0  0  0  0  0  0  0
   32.9695   28.2311   34.6015 H   0  0  0  0  0  0  0  0  0  0  0  0
   32.0443   27.9690   36.7994 H   0  0  0  0  0  0  0  0  0  0  0  0
   33.0907   28.5575   39.0296 N   0  0  0  0  0  0  0  0  0  0  0  0
   32.9188   27.6961   40.0616 C   0  0  0  0  0  0  0  0  0  0  0  0
   31.9153   28.0343   40.8831 N   0  0  0  0  0  0  0  0  0  0  0  0
   31.3477   29.1655   40.4363 C   0  0  0  0  0  0  0  0  0  0  0  0
   30.3051   29.8792   40.9389 C   0  0  0  0  0  0  0  0  0  0  0  0
   29.8110   29.5385   41.8354 H   0  0  0  0  0  0  0  0  0  0  0  0
   29.9645   30.9921   40.2498 N   0  0  0  0  0  0  0  0  0  0  0  0
   30.6283   31.3537   39.1386 C   0  0  0  0  0  0  0  0  0  0  0  0
   31.6407   30.6235   38.6870 N   0  0  0  0  0  0  0  0  0  0  0  0
   32.0772   29.4796   39.2960 C   0  0  0  0  0  0  0  0  0  0  0  0
   33.6484   26.8677   40.0246 H   0  0  0  0  0  0  0  0  0  0  0  0
   30.3712   32.2441   38.5699 H   0  0  0  0  0  0  0  0  0  0  0  0
  1  2  1  0
  1  8  1  0
  3  2  2  0
  4  5  1  0
  4  3  1  0
  5  1  2  0
  7  6  2  0
  8  7  1  0
  9  8  2  0
  9 10  1  0
 10 11  2  0
 11  6  1  0
 12  4  1  0
 13 12  1  0
 14 13  1  0
 15 14  2  0
 16 15  1  0
 17 18  1  0
 17 16  2  0
 18 23  2  0
 19 20  2  0
 19 18  1  0
 20 21  1  0
 21 22  2  0
 23 22  1  0
 23 14  1  0
  2 24  1  0
  3 25  1  0
  6 26  1  0
  7 27  1  0
 10 28  1  0
 12 29  1  0
 12 30  1  0
 13 31  1  0
 13 32  1  0
 15 33  1  0
 16 34  1  0
 17 35  1  0
 19 36  1  0
 20 37  1  0
 21 38  1  0
 39 40  1  0
 40 41  2  0
 41 42  1  0
 42 43  2  0
 43 44  1  0
 43 45  1  0
 45 46  2  0
 46 47  1  0
 47 48  2  0
 48 39  1  0
 48 42  1  0
 40 49  1  0
 46 50  1  0
 22 39  1  0
M  ISO  8  24  14  25  14  26  14  27  14  28  14  29   8  30   8  31   8
M  ISO  8  32   8  33  14  34  14  35  14  36  14  37  14  38  14  44  14
M  END
>  <DihAtoms>  (1) 
20,21,38,39

>  <DihDeg>  (1) 
99.71712049859421

$$$$
