REMARK  Name = 
REMARK  5 active torsions:
REMARK  status: ('A' for Active; 'I' for Inactive)
REMARK    1  A    between atoms: C_1  and  C_2
REMARK    2  A    between atoms: C_1  and  C_13
REMARK    3  A    between atoms: C_10  and  O_12
REMARK    4  A    between atoms: C_13  and  N_17
REMARK    5  A    between atoms: C_14  and  C_21
REMARK                            x       y       z     vdW  Elec       q    Type
REMARK                         _______ _______ _______ _____ _____    ______ ____
ROOT
ATOM      1  C   UNL     1      38.652  28.161  42.716  0.00  0.00    +0.000 A 
ATOM      2  C   UNL     1      37.559  27.348  42.872  0.00  0.00    +0.000 A 
ATOM      3  C   UNL     1      36.486  28.009  42.271  0.00  0.00    +0.000 A 
ATOM      4  N   UNL     1      37.011  29.149  41.809  0.00  0.00    +0.000 N 
ATOM      5  N   UNL     1      38.275  29.274  42.050  0.00  0.00    +0.000 NA
ATOM      6  H   UNL     1      37.605  26.391  43.377  0.00  0.00    +0.000 HD
ATOM      7  H   UNL     1      35.519  27.547  42.276  0.00  0.00    +0.000 HD
ENDROOT
BRANCH   1  10
ATOM      8  C   UNL     1      41.574  26.543  44.377  0.00  0.00    +0.000 A 
ATOM      9  C   UNL     1      40.259  26.758  43.944  0.00  0.00    +0.000 A 
ATOM     10  C   UNL     1      40.003  27.902  43.178  0.00  0.00    +0.000 A 
ATOM     11  N   UNL     1      41.010  28.750  42.884  0.00  0.00    +0.000 NA
ATOM     12  C   UNL     1      42.275  28.508  43.322  0.00  0.00    +0.000 A 
ATOM     13  N   UNL     1      42.548  27.413  44.062  0.00  0.00    +0.000 NA
ATOM     14  H   UNL     1      41.859  25.688  44.971  0.00  0.00    +0.000 HD
ATOM     15  H   UNL     1      39.484  26.036  44.212  0.00  0.00    +0.000 HD
ATOM     16  N   UNL     1      43.198  29.515  42.911  0.00  0.00    +0.000 N 
ATOM     17  C   UNL     1      42.846  30.500  42.045  0.00  0.00    +0.000 A 
ATOM     18  N   UNL     1      43.873  31.356  41.785  0.00  0.00    +0.000 NA
ATOM     19  C   UNL     1      44.913  30.884  42.521  0.00  0.00    +0.000 A 
ATOM     20  C   UNL     1      46.232  31.232  42.747  0.00  0.00    +0.000 A 
ATOM     21  H   UNL     1      46.611  32.114  42.228  0.00  0.00    +0.000 HD
ATOM     22  N   UNL     1      47.027  30.532  43.564  0.00  0.00    +0.000 NA
ATOM     23  C   UNL     1      46.576  29.435  44.217  0.00  0.00    +0.000 A 
ATOM     24  N   UNL     1      45.285  29.042  44.034  0.00  0.00    +0.000 NA
ATOM     25  C   UNL     1      44.489  29.762  43.203  0.00  0.00    +0.000 A 
ENDBRANCH   1  10
BRANCH   4  26
ATOM     26  C   UNL     1      36.170  30.077  41.132  0.00  0.00    +0.000 C 
ATOM     27  H   UNL     1      36.775  30.886  40.671  0.00  0.00    +0.000 HD
ATOM     28  H   UNL     1      35.565  30.583  41.939  0.00  0.00    +0.000 HD
BRANCH  26  29
ATOM     29  C   UNL     1      35.283  29.497  40.076  0.00  0.00    +0.000 C 
ATOM     30  H   UNL     1      34.553  30.371  39.971  0.00  0.00    +0.000 HD
ATOM     31  H   UNL     1      34.830  28.585  40.442  0.00  0.00    +0.000 HD
BRANCH  29  32
ATOM     32  C   UNL     1      35.886  29.437  38.730  0.00  0.00    +0.000 A 
ATOM     33  C   UNL     1      37.204  29.605  38.397  0.00  0.00    +0.000 A 
ATOM     34  C   UNL     1      37.716  29.606  37.130  0.00  0.00    +0.000 A 
ATOM     35  C   UNL     1      36.867  29.425  36.059  0.00  0.00    +0.000 A 
ATOM     36  C   UNL     1      35.517  29.247  36.328  0.00  0.00    +0.000 A 
ATOM     37  C   UNL     1      34.730  29.073  35.211  0.00  0.00    +0.000 A 
ATOM     38  C   UNL     1      33.397  28.889  35.380  0.00  0.00    +0.000 A 
ATOM     39  C   UNL     1      32.849  28.876  36.641  0.00  0.00    +0.000 A 
ATOM     40  C   UNL     1      33.695  29.055  37.708  0.00  0.00    +0.000 A 
ATOM     41  C   UNL     1      35.034  29.250  37.625  0.00  0.00    +0.000 A 
ATOM     42  H   UNL     1      37.883  29.749  39.230  0.00  0.00    +0.000 HD
ATOM     43  H   UNL     1      38.779  29.750  37.003  0.00  0.00    +0.000 HD
ATOM     44  H   UNL     1      37.285  29.429  35.061  0.00  0.00    +0.000 HD
ATOM     45  H   UNL     1      35.122  29.076  34.211  0.00  0.00    +0.000 HD
ATOM     46  H   UNL     1      32.749  28.750  34.508  0.00  0.00    +0.000 HD
ATOM     47  H   UNL     1      31.787  28.728  36.763  0.00  0.00    +0.000 HD
BRANCH  40  48
ATOM     48  O   UNL     1      33.089  29.019  38.957  0.00  0.00    +0.000 OA
ATOM     49  H   UNL     1      32.541  28.273  39.329  0.00  0.00    +0.000 HD
ENDBRANCH  40  48
ENDBRANCH  29  32
ENDBRANCH  26  29
ENDBRANCH   4  26
TORSDOF 5
