REMARK  Name = 
REMARK  1 active torsions:
REMARK  status: ('A' for Active; 'I' for Inactive)
REMARK    1  A    between atoms: C_3  and  C_7
REMARK                            x       y       z     vdW  Elec       q    Type
REMARK                         _______ _______ _______ _____ _____    ______ ____
ROOT
ATOM      1  C   UNL     1      37.968  28.882  43.362  0.00  0.00    +0.000 A 
ATOM      2  C   UNL     1      38.092  27.466  43.307  0.00  0.00    +0.000 A 
ATOM      3  C   UNL     1      37.445  26.816  42.258  0.00  0.00    +0.000 A 
ATOM      4  N   UNL     1      36.731  27.581  41.346  0.00  0.00    +0.000 NA
ATOM      5  C   UNL     1      36.652  28.918  41.452  0.00  0.00    +0.000 A 
ATOM      6  N   UNL     1      37.266  29.556  42.452  0.00  0.00    +0.000 NA
ATOM      7  H   UNL     1      38.449  29.443  44.154  0.00  0.00    +0.000 HD
ATOM      8  H   UNL     1      38.664  26.959  44.056  0.00  0.00    +0.000 HD
ATOM      9  N   UNL     1      35.859  29.428  40.383  0.00  0.00    +0.000 N 
ATOM     10  C   UNL     1      34.520  29.457  40.244  0.00  0.00    +0.000 A 
ATOM     11  N   UNL     1      34.256  30.043  39.056  0.00  0.00    +0.000 NA
ATOM     12  C   UNL     1      35.426  30.371  38.470  0.00  0.00    +0.000 A 
ATOM     13  C   UNL     1      35.661  30.993  37.241  0.00  0.00    +0.000 A 
ATOM     14  H   UNL     1      34.848  31.292  36.593  0.00  0.00    +0.000 HD
ATOM     15  N   UNL     1      36.950  31.198  36.907  0.00  0.00    +0.000 NA
ATOM     16  C   UNL     1      37.942  30.807  37.749  0.00  0.00    +0.000 A 
ATOM     17  N   UNL     1      37.742  30.208  38.936  0.00  0.00    +0.000 NA
ATOM     18  C   UNL     1      36.470  29.983  39.310  0.00  0.00    +0.000 A 
ENDROOT
BRANCH   3  19
ATOM     19  C   UNL     1      37.541  25.331  42.153  0.00  0.00    +0.000 C 
ATOM     20  F   UNL     1      37.649  25.052  40.808  0.00  0.00    +0.000 F 
ATOM     21  F   UNL     1      38.626  24.835  42.805  0.00  0.00    +0.000 F 
ATOM     22  F   UNL     1      36.375  24.719  42.630  0.00  0.00    +0.000 F 
ENDBRANCH   3  19
TORSDOF 1
