
 OpenBabel03242507593D

 44 48  0  0  1  0  0  0  0  0999 V2000
   33.9580   26.8320   36.5830 N   0  0  0  0  0  0  0  0  0  0  0  0
   35.3200   26.9510   36.1390 C   0  0  0  0  0  0  0  0  0  0  0  0
   36.3170   27.0730   37.2660 C   0  0  0  0  0  0  0  0  0  0  0  0
   35.7150   27.6980   38.4900 C   0  0  2  0  0  0  0  0  0  0  0  0
   34.5720   28.6350   38.1470 C   0  0  0  0  0  0  0  0  0  0  0  0
   33.5030   27.9700   37.3550 C   0  0  1  0  0  0  0  0  0  0  0  0
   33.3790   26.7150   35.7290 H   0  0  0  0  0  0  0  0  0  0  0  0
   35.5630   26.0300   35.5820 H   0  0  0  0  0  0  0  0  0  0  0  0
   35.4350   27.7820   35.4080 H   0  0  0  0  0  0  0  0  0  0  0  0
   36.7160   26.0590   37.5320 H   0  0  0  0  0  0  0  0  0  0  0  0
   37.1450   27.7140   36.9170 H   0  0  0  0  0  0  0  0  0  0  0  0
   35.3180   26.9580   39.2030 H   0  0  0  0  0  0  0  0  0  0  0  0
   34.1750   28.9660   39.1510 H   0  0  0  0  0  0  0  0  0  0  0  0
   34.9630   29.5620   37.6840 H   0  0  0  0  0  0  0  0  0  0  0  0
   32.7850   27.5300   38.1080 H   0  0  0  0  0  0  0  0  0  0  0  0
   32.8350   28.9670   36.5350 N   0  0  0  0  0  0  0  0  0  0  0  0
   33.1660   29.2300   35.2590 C   0  0  0  0  0  0  0  0  0  0  0  0
   32.3480   30.1990   34.8150 N   0  0  0  0  0  0  0  0  0  0  0  0
   31.5120   30.5470   35.7870 C   0  0  0  0  0  0  0  0  0  0  0  0
   30.4710   31.4690   35.9100 C   0  0  0  0  0  0  0  0  0  0  0  0
   30.2010   32.0970   35.0780 H   0  0  0  0  0  0  0  0  0  0  0  0
   29.8250   31.5440   37.0910 N   0  0  0  0  0  0  0  0  0  0  0  0
   30.1190   30.7850   38.1620 C   0  0  0  0  0  0  0  0  0  0  0  0
   31.1240   29.8970   38.0380 N   0  0  0  0  0  0  0  0  0  0  0  0
   31.8120   29.7690   36.8890 C   0  0  0  0  0  0  0  0  0  0  0  0
   36.9810   28.7210   39.2890 S   0  0  0  0  0  0  0  0  0  0  0  0
   38.7290   27.1740   42.5740 C   0  0  0  0  0  0  0  0  0  0  0  0
   37.7620   27.2350   43.5480 C   0  0  0  0  0  0  0  0  0  0  0  0
   36.5240   27.7650   43.2070 C   0  0  0  0  0  0  0  0  0  0  0  0
   36.3210   28.2080   41.9020 C   0  0  0  0  0  0  0  0  0  0  0  0
   37.3010   28.1380   40.9440 C   0  0  0  0  0  0  0  0  0  0  0  0
   38.4890   27.6180   41.3100 N   0  0  0  0  0  0  0  0  0  0  0  0
   37.9550   26.8840   44.5450 H   0  0  0  0  0  0  0  0  0  0  0  0
   35.7210   27.8360   43.9470 H   0  0  0  0  0  0  0  0  0  0  0  0
   35.3570   28.6210   41.6370 H   0  0  0  0  0  0  0  0  0  0  0  0
   41.8620   26.5460   44.3510 C   0  0  0  0  0  0  0  0  0  0  0  0
   42.5300   25.6330   43.5220 C   0  0  0  0  0  0  0  0  0  0  0  0
   41.8830   25.2330   42.3320 C   0  0  0  0  0  0  0  0  0  0  0  0
   40.6570   25.7630   42.0770 N   0  0  0  0  0  0  0  0  0  0  0  0
   40.0460   26.6270   42.8810 C   0  0  0  0  0  0  0  0  0  0  0  0
   40.6630   26.9960   43.9950 N   0  0  0  0  0  0  0  0  0  0  0  0
   42.3620   26.8570   45.2730 H   0  0  0  0  0  0  0  0  0  0  0  0
   43.5100   25.2210   43.7430 H   0  0  0  0  0  0  0  0  0  0  0  0
   42.3310   24.5300   41.6340 H   0  0  0  0  0  0  0  0  0  0  0  0
  1  6  1  0  0  0  0
  2  1  1  0  0  0  0
  2  3  1  0  0  0  0
  3 10  1  0  0  0  0
  3  4  1  0  0  0  0
  4 12  1  1  0  0  0
  4 26  1  0  0  0  0
  5  4  1  0  0  0  0
  5 13  1  0  0  0  0
  6 15  1  1  0  0  0
  6  5  1  0  0  0  0
  7  1  1  0  0  0  0
  8  2  1  0  0  0  0
  9  2  1  0  0  0  0
 11  3  1  0  0  0  0
 14  5  1  0  0  0  0
 16 25  1  0  0  0  0
 16  6  1  0  0  0  0
 17 16  1  0  0  0  0
 18 17  2  0  0  0  0
 18 19  1  0  0  0  0
 19 20  2  0  0  0  0
 19 25  1  0  0  0  0
 20 22  1  0  0  0  0
 21 20  1  0  0  0  0
 22 23  2  0  0  0  0
 24 23  1  0  0  0  0
 25 24  2  0  0  0  0
 26 31  1  0  0  0  0
 27 40  1  0  0  0  0
 27 28  1  0  0  0  0
 28 33  1  0  0  0  0
 29 28  2  0  0  0  0
 29 34  1  0  0  0  0
 30 29  1  0  0  0  0
 31 32  1  0  0  0  0
 31 30  2  0  0  0  0
 32 27  2  0  0  0  0
 35 30  1  0  0  0  0
 36 42  1  0  0  0  0
 37 43  1  0  0  0  0
 37 36  2  0  0  0  0
 38 37  1  0  0  0  0
 39 38  2  0  0  0  0
 39 40  1  0  0  0  0
 40 41  2  0  0  0  0
 41 36  1  0  0  0  0
 44 38  1  0  0  0  0
M  END
>  <minimizedAffinity>
-5.64827871

>  <minimizedRMSD>
5.56048059

$$$$
