
 OpenBabel03242509253D

 49 54  0  0  0  0  0  0  0  0999 V2000
   38.5850   28.1230   42.6850 C   0  0  0  0  0  0  0  0  0  0  0  0
   37.5040   27.2820   42.7540 C   0  0  0  0  0  0  0  0  0  0  0  0
   36.4430   27.9500   42.1400 C   0  0  0  0  0  0  0  0  0  0  0  0
   36.9630   29.1210   41.7560 N   0  0  0  0  0  0  0  0  0  0  0  0
   38.2120   29.2590   42.0580 N   0  0  0  0  0  0  0  0  0  0  0  0
   37.5500   26.3020   43.2140 H   0  0  0  0  0  0  0  0  0  0  0  0
   35.4870   27.4690   42.0800 H   0  0  0  0  0  0  0  0  0  0  0  0
   41.5290   26.3920   44.1850 C   0  0  0  0  0  0  0  0  0  0  0  0
   40.2320   26.6000   43.6990 C   0  0  0  0  0  0  0  0  0  0  0  0
   39.9200   27.8680   43.1930 C   0  0  0  0  0  0  0  0  0  0  0  0
   40.8590   28.8360   43.1870 N   0  0  0  0  0  0  0  0  0  0  0  0
   42.1090   28.5970   43.6680 C   0  0  0  0  0  0  0  0  0  0  0  0
   42.4350   27.3840   44.1610 N   0  0  0  0  0  0  0  0  0  0  0  0
   41.8540   25.4470   44.5930 H   0  0  0  0  0  0  0  0  0  0  0  0
   39.5130   25.7780   43.7280 H   0  0  0  0  0  0  0  0  0  0  0  0
   42.9580   29.7400   43.5770 N   0  0  0  0  0  0  0  0  0  0  0  0
   42.4850   30.9570   43.2040 C   0  0  0  0  0  3  0  0  0  0  0  0
   43.4580   31.9100   43.1820 N   0  0  0  0  0  0  0  0  0  0  0  0
   44.5900   31.2580   43.5580 C   0  0  0  0  0  0  0  0  0  0  0  0
   45.9210   31.5760   43.7530 C   0  0  0  0  0  0  0  0  0  0  0  0
   46.2190   32.6110   43.5760 H   0  0  0  0  0  0  0  0  0  0  0  0
   46.8240   30.6680   44.1410 N   0  0  0  0  0  0  0  0  0  0  0  0
   46.4750   29.3790   44.3660 C   0  0  0  0  0  3  0  0  0  0  0  0
   45.1770   29.0060   44.1910 N   0  0  0  0  0  0  0  0  0  0  0  0
   44.2730   29.9370   43.7960 C   0  0  0  0  0  0  0  0  0  0  0  0
   36.1310   30.0650   41.0890 C   0  0  0  0  0  0  0  0  0  0  0  0
   36.7440   30.8730   40.6380 H   0  0  0  0  0  0  0  0  0  0  0  0
   35.5290   30.5670   41.9010 H   0  0  0  0  0  0  0  0  0  0  0  0
   35.2400   29.5050   40.0250 C   0  0  0  0  0  0  0  0  0  0  0  0
   34.5340   30.3970   39.9110 H   0  0  0  0  0  0  0  0  0  0  0  0
   34.7610   28.6060   40.3890 H   0  0  0  0  0  0  0  0  0  0  0  0
   35.8550   29.4260   38.6860 C   0  0  0  0  0  0  0  0  0  0  0  0
   37.1800   29.5630   38.3650 C   0  0  0  0  0  0  0  0  0  0  0  0
   37.7050   29.5480   37.1040 C   0  0  0  0  0  0  0  0  0  0  0  0
   36.8630   29.3820   36.0250 C   0  0  0  0  0  0  0  0  0  0  0  0
   35.5060   29.2360   36.2810 C   0  0  0  0  0  0  0  0  0  0  0  0
   34.7270   29.0760   35.1560 C   0  0  0  0  0  0  0  0  0  0  0  0
   33.3880   28.9230   35.3130 C   0  0  0  0  0  0  0  0  0  0  0  0
   32.8270   28.9270   36.5680 C   0  0  0  0  0  0  0  0  0  0  0  0
   33.6670   29.0900   37.6430 C   0  0  0  0  0  0  0  0  0  0  0  0
   35.0100   29.2550   37.5730 C   0  0  0  0  0  0  0  0  0  0  0  0
   37.8540   29.6950   39.2050 H   0  0  0  0  0  0  0  0  0  0  0  0
   38.7720   29.6680   36.9870 H   0  0  0  0  0  0  0  0  0  0  0  0
   37.2900   29.3730   35.0310 H   0  0  0  0  0  0  0  0  0  0  0  0
   35.1290   29.0660   34.1600 H   0  0  0  0  0  0  0  0  0  0  0  0
   32.7460   28.7950   34.4350 H   0  0  0  0  0  0  0  0  0  0  0  0
   31.7610   28.8030   36.6800 H   0  0  0  0  0  0  0  0  0  0  0  0
   33.0470   29.0730   38.8860 O   0  0  0  0  0  0  0  0  0  0  0  0
   32.4790   28.3410   39.2550 H   0  0  0  0  0  0  0  0  0  0  0  0
  1  2  1  0  0  0  0
  1 10  1  0  0  0  0
  2  6  1  0  0  0  0
  3  2  2  0  0  0  0
  4  5  1  0  0  0  0
  4  3  1  0  0  0  0
  5  1  2  0  0  0  0
  7  3  1  0  0  0  0
  8 14  1  0  0  0  0
  9 15  1  0  0  0  0
  9  8  2  0  0  0  0
 10  9  1  0  0  0  0
 11 10  2  0  0  0  0
 11 12  1  0  0  0  0
 12 13  2  0  0  0  0
 13  8  1  0  0  0  0
 16 12  1  0  0  0  0
 16 25  1  0  0  0  0
 17 16  1  0  0  0  0
 18 17  2  0  0  0  0
 18 19  1  0  0  0  0
 19 20  2  0  0  0  0
 19 25  1  0  0  0  0
 20 22  1  0  0  0  0
 21 20  1  0  0  0  0
 22 23  2  0  0  0  0
 24 23  1  0  0  0  0
 25 24  2  0  0  0  0
 26  4  1  0  0  0  0
 26 28  1  0  0  0  0
 27 26  1  0  0  0  0
 29 31  1  0  0  0  0
 29 26  1  0  0  0  0
 30 29  1  0  0  0  0
 32 29  1  0  0  0  0
 33 32  1  0  0  0  0
 33 42  1  0  0  0  0
 34 33  2  0  0  0  0
 35 36  2  0  0  0  0
 35 34  1  0  0  0  0
 36 41  1  0  0  0  0
 37 38  2  0  0  0  0
 37 36  1  0  0  0  0
 38 39  1  0  0  0  0
 39 47  1  0  0  0  0
 39 40  2  0  0  0  0
 40 48  1  0  0  0  0
 41 40  1  0  0  0  0
 41 32  2  0  0  0  0
 43 34  1  0  0  0  0
 44 35  1  0  0  0  0
 45 37  1  0  0  0  0
 46 38  1  0  0  0  0
 48 49  1  0  0  0  0
M  END
>  <minimizedAffinity>
-6.53794432

>  <minimizedRMSD>
0.591582477

$$$$
