
 OpenBabel03242509313D

 22 24  0  0  0  0  0  0  0  0999 V2000
   38.0230   28.5310   43.6850 C   0  0  0  0  0  0  0  0  0  0  0  0
   38.4530   27.1760   43.6340 C   0  0  0  0  0  0  0  0  0  0  0  0
   38.1100   26.4480   42.4970 C   0  0  0  0  0  0  0  0  0  0  0  0
   37.3810   27.0820   41.5000 N   0  0  0  0  0  0  0  0  0  0  0  0
   37.0040   28.3670   41.6070 C   0  0  0  0  0  0  0  0  0  0  0  0
   37.3250   29.0790   42.6910 N   0  0  0  0  0  0  0  0  0  0  0  0
   38.2600   29.1490   44.5430 H   0  0  0  0  0  0  0  0  0  0  0  0
   39.0120   26.7710   44.4510 H   0  0  0  0  0  0  0  0  0  0  0  0
   36.2750   28.7420   40.4420 N   0  0  0  0  0  0  0  0  0  0  0  0
   34.9610   28.9990   40.2950 C   0  0  0  0  0  3  0  0  0  0  0  0
   34.7590   29.3120   38.9970 N   0  0  0  0  0  0  0  0  0  0  0  0
   35.9410   29.2480   38.3520 C   0  0  0  0  0  0  0  0  0  0  0  0
   36.2330   29.4860   37.0060 C   0  0  0  0  0  0  0  0  0  0  0  0
   35.4640   29.7700   36.3000 H   0  0  0  0  0  0  0  0  0  0  0  0
   37.5210   29.3450   36.6350 N   0  0  0  0  0  0  0  0  0  0  0  0
   38.4580   28.9870   37.5520 C   0  0  0  0  0  3  0  0  0  0  0  0
   38.2030   28.7520   38.8510 N   0  0  0  0  0  0  0  0  0  0  0  0
   36.9300   28.8820   39.2650 C   0  0  0  0  0  0  0  0  0  0  0  0
   38.5340   25.0220   42.3910 C   0  0  0  0  0  0  0  0  0  0  0  0
   39.1530   24.9000   41.1670 F   0  0  0  0  0  0  0  0  0  0  0  0
   39.4040   24.6660   43.3740 F   0  0  0  0  0  0  0  0  0  0  0  0
   37.4240   24.1670   42.4030 F   0  0  0  0  0  0  0  0  0  0  0  0
  1  7  1  0  0  0  0
  2  1  1  0  0  0  0
  2  8  1  0  0  0  0
  3  2  2  0  0  0  0
  4  5  2  0  0  0  0
  4  3  1  0  0  0  0
  5  6  1  0  0  0  0
  6  1  2  0  0  0  0
  9  5  1  0  0  0  0
 10  9  1  0  0  0  0
 11 10  2  0  0  0  0
 12 11  1  0  0  0  0
 12 18  1  0  0  0  0
 13 12  2  0  0  0  0
 14 13  1  0  0  0  0
 15 13  1  0  0  0  0
 15 16  2  0  0  0  0
 16 17  1  0  0  0  0
 17 18  2  0  0  0  0
 18  9  1  0  0  0  0
 19 22  1  0  0  0  0
 19  3  1  0  0  0  0
 19 21  1  0  0  0  0
 20 19  1  0  0  0  0
M  END
>  <minimizedAffinity>
-4.83227062

>  <minimizedRMSD>
0.929711044

$$$$
