
 OpenBabel03242507153D

 39 44  0  0  0  0  0  0  0  0999 V2000
   37.5650   28.4120   41.6860 N   0  0  0  0  0  0  0  0  0  0  0  0
   37.4900   27.4110   42.5790 C   0  0  0  0  0  0  0  0  0  0  0  0
   38.4710   27.6870   43.4990 C   0  0  0  0  0  0  0  0  0  0  0  0
   39.1260   28.8380   43.1650 N   0  0  0  0  0  0  0  0  0  0  0  0
   38.5420   29.2630   42.0380 C   0  0  0  0  0  0  0  0  0  0  0  0
   39.0720   30.4670   41.4990 N   0  0  0  0  0  0  0  0  0  0  0  0
   40.4080   30.7670   41.5530 C   0  0  0  0  0  0  0  0  0  0  0  0
   40.6620   31.9750   40.9690 N   0  0  0  0  0  0  0  0  0  0  0  0
   39.4900   32.4580   40.5360 C   0  0  0  0  0  0  0  0  0  0  0  0
   39.1250   33.6150   39.8800 C   0  0  0  0  0  0  0  0  0  0  0  0
   37.8270   33.7650   39.5980 N   0  0  0  0  0  0  0  0  0  0  0  0
   36.8850   32.8590   39.9180 C   0  0  0  0  0  0  0  0  0  0  0  0
   37.2140   31.7100   40.5640 N   0  0  0  0  0  0  0  0  0  0  0  0
   38.5130   31.5380   40.8570 C   0  0  0  0  0  0  0  0  0  0  0  0
   36.8230   26.5630   42.6000 H   0  0  0  0  0  0  0  0  0  0  0  0
   38.6750   27.0530   44.3700 H   0  0  0  0  0  0  0  0  0  0  0  0
   41.2590   30.2460   41.9570 H   0  0  0  0  0  0  0  0  0  0  0  0
   35.8330   32.9780   39.6920 H   0  0  0  0  0  0  0  0  0  0  0  0
   35.3870   28.8190   40.6110 C   0  0  0  0  0  0  0  0  0  0  0  0
   36.7540   28.5630   40.5510 C   0  0  0  0  0  0  0  0  0  0  0  0
   37.3380   28.4550   39.2610 C   0  0  0  0  0  0  0  0  0  0  0  0
   36.5430   28.6040   38.1680 N   0  0  0  0  0  0  0  0  0  0  0  0
   35.2010   28.8550   38.2780 C   0  0  0  0  0  0  0  0  0  0  0  0
   34.6220   28.9630   39.5040 N   0  0  0  0  0  0  0  0  0  0  0  0
   34.9110   28.9070   41.5840 H   0  0  0  0  0  0  0  0  0  0  0  0
   38.3980   28.2570   39.1250 H   0  0  0  0  0  0  0  0  0  0  0  0
   34.5170   28.9840   37.0400 N   0  0  0  0  0  0  0  0  0  0  0  0
   35.2170   28.7380   35.9170 C   0  0  0  0  0  0  0  0  0  0  0  0
   34.4180   28.9060   34.8280 N   0  0  0  0  0  0  0  0  0  0  0  0
   33.1930   29.2620   35.2630 C   0  0  0  0  0  0  0  0  0  0  0  0
   31.9610   29.5740   34.7360 C   0  0  0  0  0  0  0  0  0  0  0  0
   31.8650   29.5490   33.6610 H   0  0  0  0  0  0  0  0  0  0  0  0
   30.9420   29.8930   35.5610 N   0  0  0  0  0  0  0  0  0  0  0  0
   31.0600   29.9240   36.9090 C   0  0  0  0  0  0  0  0  0  0  0  0
   32.2620   29.6220   37.4650 N   0  0  0  0  0  0  0  0  0  0  0  0
   33.2940   29.2990   36.6370 C   0  0  0  0  0  0  0  0  0  0  0  0
   40.0960   34.6100   39.5180 N   0  0  0  0  0  0  0  0  0  0  0  0
   41.0200   34.5940   40.0310 H   0  0  0  0  0  0  0  0  0  0  0  0
   39.8550   35.3000   38.7740 H   0  0  0  0  0  0  0  0  0  0  0  0
  1  5  1  0  0  0  0
  1  2  1  0  0  0  0
  2 15  1  0  0  0  0
  2  3  2  0  0  0  0
  3 16  1  0  0  0  0
  4  3  1  0  0  0  0
  5  4  2  0  0  0  0
  6  7  1  0  0  0  0
  6  5  1  0  0  0  0
  7 17  1  0  0  0  0
  8  7  2  0  0  0  0
  9 14  1  0  0  0  0
  9  8  1  0  0  0  0
 10  9  2  0  0  0  0
 11 10  1  0  0  0  0
 11 12  2  0  0  0  0
 12 13  1  0  0  0  0
 13 14  2  0  0  0  0
 14  6  1  0  0  0  0
 18 12  1  0  0  0  0
 19 25  1  0  0  0  0
 20 19  1  0  0  0  0
 20  1  1  0  0  0  0
 21 20  2  0  0  0  0
 22 23  2  0  0  0  0
 22 21  1  0  0  0  0
 23 24  1  0  0  0  0
 24 19  2  0  0  0  0
 26 21  1  0  0  0  0
 27 23  1  0  0  0  0
 28 27  1  0  0  0  0
 29 30  1  0  0  0  0
 29 28  2  0  0  0  0
 30 36  1  0  0  0  0
 31 30  2  0  0  0  0
 31 33  1  0  0  0  0
 32 31  1  0  0  0  0
 33 34  2  0  0  0  0
 34 35  1  0  0  0  0
 36 27  1  0  0  0  0
 36 35  2  0  0  0  0
 37 10  1  0  0  0  0
 37 38  1  0  0  0  0
 39 37  1  0  0  0  0
M  END
>  <minimizedAffinity>
-6.59908152

>  <minimizedRMSD>
2.37899327

$$$$
