
     RDKit          3D

 14 14  0  0  0  0  0  0  0  0999 V2000
   37.9639   28.8860   43.3743 C   0  0  0  0  0  0  0  0  0  0  0  0
   38.0841   27.4703   43.3184 C   0  0  0  0  0  0  0  0  0  0  0  0
   37.4378   26.8181   42.2508 C   0  0  0  0  0  0  0  0  0  0  0  0
   36.7343   27.5705   41.3308 N   0  0  0  0  0  0  0  0  0  0  0  0
   36.6611   28.9157   41.4447 C   0  0  0  0  0  0  0  0  0  0  0  0
   37.2727   29.5484   42.4576 N   0  0  0  0  0  0  0  0  0  0  0  0
   37.5342   25.3351   42.1488 C   0  0  0  0  0  0  0  0  0  0  0  0
   37.6419   25.0549   40.8132 F   0  0  0  0  0  0  0  0  0  0  0  0
   38.6325   24.8367   42.7893 F   0  0  0  0  0  0  0  0  0  0  0  0
   36.3834   24.7192   42.6450 F   0  0  0  0  0  0  0  0  0  0  0  0
   38.4519   29.4087   44.1853 H   0  0  0  0  0  0  0  0  0  0  0  0
   38.6397   26.9037   44.0496 H   0  0  0  0  0  0  0  0  0  0  0  0
   35.6971   29.6815   40.1400 S   0  0  0  0  0  0  0  0  0  0  0  0
   34.3728   29.8655   40.5795 H   0  0  0  0  0  0  0  0  0  0  0  0
  2  1  2  0
  3  2  1  0
  4  5  1  0
  4  3  2  0
  5  6  2  0
  6  1  1  0
  7  3  1  0
  7 10  1  0
  7  9  1  0
  8  7  1  0
  1 11  1  0
  2 12  1  0
 13 14  1  0
  5 13  1  0
M  ISO  3  11  14  12  14  14  11
M  END
>  <DihAtoms>  (1) 
3,4,12,13

>  <DihDeg>  (1) 
-54.965042597381974

$$$$
