
 OpenBabel03242509063D

 25 27  0  0  0  0  0  0  0  0999 V2000
   38.0860   27.9620   41.8080 C   0  0  0  0  0  0  0  0  0  0  0  0
   38.8620   27.8480   42.9560 C   0  0  0  0  0  0  0  0  0  0  0  0
   38.9200   26.5320   43.2870 N   0  0  0  0  0  0  0  0  0  0  0  0
   38.2220   25.7930   42.4110 C   0  0  0  0  0  0  0  0  0  0  0  0
   37.9690   24.4310   42.2970 C   0  0  0  0  0  0  0  0  0  0  0  0
   37.1920   23.9320   41.2590 C   0  0  0  0  0  0  0  0  0  0  0  0
   36.6870   24.8480   40.3550 C   0  0  0  0  0  0  0  0  0  0  0  0
   36.9360   26.1840   40.4680 C   0  0  0  0  0  0  0  0  0  0  0  0
   37.6980   26.6850   41.4830 C   0  0  0  0  0  0  0  0  0  0  0  0
   39.3480   28.6390   43.5150 H   0  0  0  0  0  0  0  0  0  0  0  0
   39.4370   26.1360   44.1110 H   0  0  0  0  0  0  0  0  0  0  0  0
   38.4060   23.7840   43.0530 H   0  0  0  0  0  0  0  0  0  0  0  0
   37.0530   22.8550   41.2590 H   0  0  0  0  0  0  0  0  0  0  0  0
   36.0880   24.4350   39.5610 H   0  0  0  0  0  0  0  0  0  0  0  0
   36.4850   26.8130   39.6960 H   0  0  0  0  0  0  0  0  0  0  0  0
   36.3060   31.0960   40.8350 C   0  0  0  0  0  0  0  0  0  0  0  0
   36.6420   29.9080   41.5150 C   0  0  0  0  0  0  0  0  0  0  0  0
   37.7550   29.1740   41.1060 C   0  0  0  0  0  0  0  0  0  0  0  0
   38.4720   29.6670   40.0410 N   0  0  0  0  0  0  0  0  0  0  0  0
   38.1420   30.8030   39.3990 C   0  0  0  0  0  0  0  0  0  0  0  0
   37.0630   31.5170   39.7910 N   0  0  0  0  0  0  0  0  0  0  0  0
   35.4410   31.6600   41.1570 H   0  0  0  0  0  0  0  0  0  0  0  0
   36.0470   29.5590   42.3490 H   0  0  0  0  0  0  0  0  0  0  0  0
   39.0730   31.4280   38.0290 S   0  0  0  0  0  0  0  0  0  0  0  0
   38.4660   32.5390   37.4260 H   0  0  0  0  0  0  0  0  0  0  0  0
  1  2  2  0  0  0  0
  2  3  1  0  0  0  0
  2 10  1  0  0  0  0
  3 11  1  0  0  0  0
  4  3  1  0  0  0  0
  5  4  1  0  0  0  0
  5 12  1  0  0  0  0
  6  5  2  0  0  0  0
  7  8  2  0  0  0  0
  7  6  1  0  0  0  0
  8  9  1  0  0  0  0
  9  1  1  0  0  0  0
  9  4  2  0  0  0  0
 13  6  1  0  0  0  0
 14  7  1  0  0  0  0
 15  8  1  0  0  0  0
 16 22  1  0  0  0  0
 16 17  1  0  0  0  0
 17 23  1  0  0  0  0
 18 17  2  0  0  0  0
 18  1  1  0  0  0  0
 19 18  1  0  0  0  0
 20 21  1  0  0  0  0
 20 19  2  0  0  0  0
 21 16  2  0  0  0  0
 24 20  1  0  0  0  0
 25 24  1  0  0  0  0
M  END
>  <minimizedAffinity>
-4.60620499

>  <minimizedRMSD>
1.94412673

$$$$
