
 OpenBabel03242505033D

 27 29  0  0  0  0  0  0  0  0999 V2000
   38.5640   31.1220   39.1440 C   0  0  0  0  0  0  0  0  0  0  0  0
   37.7240   31.9960   39.8290 C   0  0  0  0  0  0  0  0  0  0  0  0
   36.6050   31.4730   40.4810 C   0  0  0  0  0  0  0  0  0  0  0  0
   36.4010   30.1170   40.4070 N   0  0  0  0  0  0  0  0  0  0  0  0
   37.2240   29.3120   39.7430 C   0  0  0  0  0  0  0  0  0  0  0  0
   38.3100   29.7780   39.1030 N   0  0  0  0  0  0  0  0  0  0  0  0
   39.7270   31.5120   38.4420 N   0  0  0  0  0  0  0  0  0  0  0  0
   40.0790   32.0120   37.2590 C   0  0  0  0  0  0  0  0  0  0  0  0
   41.4160   32.1630   37.2060 N   0  0  0  0  0  0  0  0  0  0  0  0
   41.9020   31.7330   38.4180 C   0  0  0  0  0  0  0  0  0  0  0  0
   40.8400   31.3440   39.1460 N   0  0  0  0  0  0  0  0  0  0  0  0
   35.9690   32.1740   41.0060 H   0  0  0  0  0  0  0  0  0  0  0  0
   36.9360   28.2670   39.7710 H   0  0  0  0  0  0  0  0  0  0  0  0
   39.2740   32.2080   36.5610 H   0  0  0  0  0  0  0  0  0  0  0  0
   42.9560   31.7400   38.6650 H   0  0  0  0  0  0  0  0  0  0  0  0
   38.0000   33.4190   39.8670 C   0  0  0  0  0  0  0  0  0  0  0  0
   38.4230   33.8210   38.9130 H   0  0  0  0  0  0  0  0  0  0  0  0
   37.0410   33.9640   40.0300 H   0  0  0  0  0  0  0  0  0  0  0  0
   38.8870   33.7290   41.0500 C   0  0  0  0  0  0  0  0  0  0  0  0
   38.2510   33.7650   41.9470 H   0  0  0  0  0  0  0  0  0  0  0  0
   39.7230   33.0050   41.1110 H   0  0  0  0  0  0  0  0  0  0  0  0
   39.5220   35.0570   40.8030 C   0  0  0  0  0  0  0  0  0  0  0  0
   38.9290   36.0100   39.9790 C   0  0  0  0  0  0  0  0  0  0  0  0
   39.7150   37.1010   39.9400 N   0  0  0  0  0  0  0  0  0  0  0  0
   40.7620   36.8060   40.7280 C   0  0  0  0  0  0  0  0  0  0  0  0
   40.6730   35.5760   41.2650 N   0  0  0  0  0  0  0  0  0  0  0  0
   41.3230   35.0810   41.9050 H   0  0  0  0  0  0  0  0  0  0  0  0
  1  2  1  0  0  0  0
  2 16  1  0  0  0  0
  2  3  2  0  0  0  0
  3 12  1  0  0  0  0
  4  3  1  0  0  0  0
  5 13  1  0  0  0  0
  5  4  2  0  0  0  0
  6  1  2  0  0  0  0
  6  5  1  0  0  0  0
  7  1  1  0  0  0  0
  7 11  1  0  0  0  0
  8  7  1  0  0  0  0
  9  8  2  0  0  0  0
  9 10  1  0  0  0  0
 10 15  1  0  0  0  0
 10 11  2  0  0  0  0
 14  8  1  0  0  0  0
 16 18  1  0  0  0  0
 16 19  1  0  0  0  0
 17 16  1  0  0  0  0
 19 21  1  0  0  0  0
 19 20  1  0  0  0  0
 22 19  1  0  0  0  0
 22 26  1  0  0  0  0
 23 22  2  0  0  0  0
 24 23  1  0  0  0  0
 24 25  2  0  0  0  0
 25 26  1  0  0  0  0
 26 27  1  0  0  0  0
M  END
>  <minimizedAffinity>
-4.63933849

>  <minimizedRMSD>
2.75589156

$$$$
