
 OpenBabel03242508103D

 39 42  0  0  1  0  0  0  0  0999 V2000
   38.9660   35.5470   40.2190 C   0  0  0  0  0  0  0  0  0  0  0  0
   40.2840   35.5990   39.7640 C   0  0  0  0  0  0  0  0  0  0  0  0
   40.8280   34.3890   39.3130 C   0  0  0  0  0  0  0  0  0  0  0  0
   40.0310   33.3280   39.3670 N   0  0  0  0  0  0  0  0  0  0  0  0
   38.7830   33.2490   39.7890 C   0  0  0  0  0  0  0  0  0  0  0  0
   38.2900   34.4050   40.2110 N   0  0  0  0  0  0  0  0  0  0  0  0
   38.5710   36.4990   40.5630 H   0  0  0  0  0  0  0  0  0  0  0  0
   40.9020   36.4790   39.7360 H   0  0  0  0  0  0  0  0  0  0  0  0
   37.8240   32.1610   39.8930 C   0  0  0  0  0  0  0  0  0  0  0  0
   37.2690   31.7600   41.0390 N   0  0  0  0  0  0  0  0  0  0  0  0
   36.3940   30.7750   41.1670 C   0  0  0  0  0  0  0  0  0  0  0  0
   35.9860   30.0810   40.1200 N   0  0  0  0  0  0  0  0  0  0  0  0
   36.4680   30.3800   38.8950 C   0  0  0  0  0  0  0  0  0  0  0  0
   36.0580   29.6690   37.7930 C   0  0  0  0  0  0  0  0  0  0  0  0
   36.5300   29.9510   36.5520 C   0  0  0  0  0  0  0  0  0  0  0  0
   37.4540   30.9920   36.4120 C   0  0  0  0  0  0  0  0  0  0  0  0
   37.8270   31.6690   37.5570 C   0  0  0  0  0  0  0  0  0  0  0  0
   37.3790   31.4180   38.8170 C   0  0  0  0  0  0  0  0  0  0  0  0
   36.0320   30.5660   42.1670 H   0  0  0  0  0  0  0  0  0  0  0  0
   35.3390   28.8710   37.9490 H   0  0  0  0  0  0  0  0  0  0  0  0
   36.2030   29.3890   35.6880 H   0  0  0  0  0  0  0  0  0  0  0  0
   37.8620   31.2580   35.4410 H   0  0  0  0  0  0  0  0  0  0  0  0
   38.5550   32.4840   37.4220 H   0  0  0  0  0  0  0  0  0  0  0  0
   42.0700   34.2570   38.8480 O   0  0  0  0  0  0  0  0  0  0  0  0
   42.9160   33.1460   39.1030 C   0  0  2  0  0  0  0  0  0  0  0  0
   42.3760   32.2260   39.3650 H   0  0  0  0  0  0  0  0  0  0  0  0
   43.7020   33.4700   40.4000 C   0  0  0  0  0  0  0  0  0  0  0  0
   44.1250   34.4960   40.3150 H   0  0  0  0  0  0  0  0  0  0  0  0
   44.5140   32.7610   40.5500 H   0  0  0  0  0  0  0  0  0  0  0  0
   42.9440   33.4690   41.2170 H   0  0  0  0  0  0  0  0  0  0  0  0
   43.8890   32.9750   37.9690 C   0  0  0  0  0  0  0  0  0  0  0  0
   43.8750   33.9430   37.3870 H   0  0  0  0  0  0  0  0  0  0  0  0
   44.9310   32.9220   38.3770 H   0  0  0  0  0  0  0  0  0  0  0  0
   43.5680   31.8300   37.1040 C   0  0  0  0  0  0  0  0  0  0  0  0
   42.4160   31.0760   37.2020 C   0  0  0  0  0  0  0  0  0  0  0  0
   42.4180   30.1050   36.2740 N   0  0  0  0  0  0  0  0  0  0  0  0
   43.5860   30.2530   35.5880 C   0  0  0  0  0  0  0  0  0  0  0  0
   44.2900   31.3080   36.0950 N   0  0  0  0  0  0  0  0  0  0  0  0
   45.2200   31.6630   35.7750 H   0  0  0  0  0  0  0  0  0  0  0  0
  1  7  1  0  0  0  0
  2  1  2  0  0  0  0
  3  4  2  0  0  0  0
  3  2  1  0  0  0  0
  4  5  1  0  0  0  0
  5  9  1  0  0  0  0
  5  6  2  0  0  0  0
  6  1  1  0  0  0  0
  8  2  1  0  0  0  0
  9 10  1  0  0  0  0
 10 11  2  0  0  0  0
 11 19  1  0  0  0  0
 12 11  1  0  0  0  0
 13 12  2  0  0  0  0
 14 20  1  0  0  0  0
 14 13  1  0  0  0  0
 15 14  2  0  0  0  0
 16 15  1  0  0  0  0
 16 17  2  0  0  0  0
 17 18  1  0  0  0  0
 18 13  1  0  0  0  0
 18  9  2  0  0  0  0
 21 15  1  0  0  0  0
 22 16  1  0  0  0  0
 23 17  1  0  0  0  0
 24 25  1  0  0  0  0
 24  3  1  0  0  0  0
 25 26  1  1  0  0  0
 25 27  1  0  0  0  0
 27 29  1  0  0  0  0
 27 30  1  0  0  0  0
 28 27  1  0  0  0  0
 31 33  1  0  0  0  0
 31 25  1  0  0  0  0
 32 31  1  0  0  0  0
 34 35  2  0  0  0  0
 34 31  1  0  0  0  0
 36 35  1  0  0  0  0
 37 38  1  0  0  0  0
 37 36  2  0  0  0  0
 38 34  1  0  0  0  0
 39 38  1  0  0  0  0
M  END
>  <minimizedAffinity>
-5.74953508

>  <minimizedRMSD>
1.73356164

$$$$
