REMARK  Name = 
REMARK  2 active torsions:
REMARK  status: ('A' for Active; 'I' for Inactive)
REMARK    1  A    between atoms: C_3  and  C_7
REMARK    2  A    between atoms: C_5  and  S_13
REMARK                            x       y       z     vdW  Elec       q    Type
REMARK                         _______ _______ _______ _____ _____    ______ ____
ROOT
ATOM      1  C   UNL     1      37.964  28.886  43.374  0.00  0.00    +0.000 A 
ATOM      2  C   UNL     1      38.084  27.470  43.318  0.00  0.00    +0.000 A 
ATOM      3  C   UNL     1      37.438  26.818  42.251  0.00  0.00    +0.000 A 
ATOM      4  N   UNL     1      36.734  27.570  41.331  0.00  0.00    +0.000 NA
ATOM      5  C   UNL     1      36.661  28.916  41.445  0.00  0.00    +0.000 A 
ATOM      6  N   UNL     1      37.273  29.548  42.458  0.00  0.00    +0.000 NA
ATOM      7  H   UNL     1      38.452  29.409  44.185  0.00  0.00    +0.000 HD
ATOM      8  H   UNL     1      38.640  26.904  44.050  0.00  0.00    +0.000 HD
ENDROOT
BRANCH   3   9
ATOM      9  C   UNL     1      37.534  25.335  42.149  0.00  0.00    +0.000 C 
ATOM     10  F   UNL     1      37.642  25.055  40.813  0.00  0.00    +0.000 F 
ATOM     11  F   UNL     1      38.633  24.837  42.789  0.00  0.00    +0.000 F 
ATOM     12  F   UNL     1      36.383  24.719  42.645  0.00  0.00    +0.000 F 
ENDBRANCH   3   9
BRANCH   5  13
ATOM     13  S   UNL     1      35.697  29.681  40.140  0.00  0.00    +0.000 S 
ATOM     14  H   UNL     1      36.516  29.899  39.016  0.00  0.00    +0.000 HD
ENDBRANCH   5  13
TORSDOF 2
