
 OpenBabel03242500273D

 20 21  0  0  0  0  0  0  0  0999 V2000
   37.3120   29.6790   39.4850 S   0  0  0  0  0  0  0  0  0  0  0  0
   37.5340   28.8770   43.3810 C   0  0  0  0  0  0  0  0  0  0  0  0
   37.2900   27.5010   43.4570 C   0  0  0  0  0  0  0  0  0  0  0  0
   37.0520   26.8130   42.2760 C   0  0  0  0  0  0  0  0  0  0  0  0
   37.0670   27.5060   41.0870 N   0  0  0  0  0  0  0  0  0  0  0  0
   37.3080   28.8420   41.0640 C   0  0  0  0  0  0  0  0  0  0  0  0
   37.5360   29.5020   42.1980 N   0  0  0  0  0  0  0  0  0  0  0  0
   37.7270   29.4860   44.2490 H   0  0  0  0  0  0  0  0  0  0  0  0
   37.2920   27.0180   44.4210 H   0  0  0  0  0  0  0  0  0  0  0  0
   36.8600   25.7520   42.2930 H   0  0  0  0  0  0  0  0  0  0  0  0
   39.1030   33.7770   40.0580 C   0  0  0  0  0  0  0  0  0  0  0  0
   39.9130   32.6420   40.0690 C   0  0  0  0  0  0  0  0  0  0  0  0
   39.3480   31.3900   39.8920 C   0  0  0  0  0  0  0  0  0  0  0  0
   37.9850   31.3120   39.7080 C   0  0  0  0  0  0  0  0  0  0  0  0
   37.1690   32.4240   39.6930 C   0  0  0  0  0  0  0  0  0  0  0  0
   37.7220   33.6880   39.8700 C   0  0  0  0  0  0  0  0  0  0  0  0
   40.1270   35.5280   41.5880 H   0  0  0  0  0  0  0  0  0  0  0  0
   39.7950   35.3780   40.2800 S   0  0  0  0  0  0  0  0  0  0  0  0
   40.9600   35.5440   39.3620 O   0  0  0  0  0  0  0  0  0  0  0  0
   38.7570   36.3980   39.8460 O   0  0  0  0  0  0  0  0  0  0  0  0
  1 14  1  0  0  0  0
  1  6  1  0  0  0  0
  2  3  1  0  0  0  0
  2  8  1  0  0  0  0
  3  9  1  0  0  0  0
  4 10  1  0  0  0  0
  4  3  2  0  0  0  0
  5  4  1  0  0  0  0
  6  5  2  0  0  0  0
  6  7  1  0  0  0  0
  7  2  2  0  0  0  0
 11 12  1  0  0  0  0
 11 18  1  0  0  0  0
 13 12  2  0  0  0  0
 14 13  1  0  0  0  0
 15 14  2  0  0  0  0
 15 16  1  0  0  0  0
 16 11  2  0  0  0  0
 18 17  1  0  0  0  0
 19 18  2  0  0  0  0
 20 18  2  0  0  0  0
M  END
>  <minimizedAffinity>
-4.71421051

>  <minimizedRMSD>
1.15644479

$$$$
