
 OpenBabel03242507443D

 40 43  0  0  0  0  0  0  0  0999 V2000
   39.5090   27.9010   43.3710 C   0  0  0  0  0  0  0  0  0  0  0  0
   38.7820   26.6750   43.4080 C   0  0  0  0  0  0  0  0  0  0  0  0
   37.8320   26.4940   42.4150 C   0  0  0  0  0  0  0  0  0  0  0  0
   37.6370   27.4420   41.4890 N   0  0  0  0  0  0  0  0  0  0  0  0
   38.3350   28.5900   41.4730 C   0  0  0  0  0  0  0  0  0  0  0  0
   39.2740   28.8240   42.4130 N   0  0  0  0  0  0  0  0  0  0  0  0
   37.0500   25.3480   42.3410 N   0  0  0  0  0  0  0  0  0  0  0  0
   38.1510   29.6280   40.5010 N   0  0  0  0  0  0  0  0  0  0  0  0
   37.3260   29.3220   39.4720 C   0  0  0  0  0  0  0  0  0  0  0  0
   37.0270   30.1820   38.4430 C   0  0  0  0  0  0  0  0  0  0  0  0
   37.6140   31.4270   38.4830 C   0  0  0  0  0  0  0  0  0  0  0  0
   37.3870   32.2690   37.5740 O   0  0  0  0  0  0  0  0  0  0  0  0
   38.4220   31.6990   39.5080 N   0  0  0  0  0  0  0  0  0  0  0  0
   38.7010   30.8380   40.5070 C   0  0  0  0  0  0  0  0  0  0  0  0
   39.4590   31.0880   41.4740 O   0  0  0  0  0  0  0  0  0  0  0  0
   40.2660   28.0760   44.1380 H   0  0  0  0  0  0  0  0  0  0  0  0
   38.9640   25.9420   44.1620 H   0  0  0  0  0  0  0  0  0  0  0  0
   36.1740   25.2790   41.7830 H   0  0  0  0  0  0  0  0  0  0  0  0
   37.3560   24.4850   42.8830 H   0  0  0  0  0  0  0  0  0  0  0  0
   36.8480   28.3460   39.4130 H   0  0  0  0  0  0  0  0  0  0  0  0
   39.0700   32.9700   39.6160 C   0  0  0  0  0  0  0  0  0  0  0  0
   38.3980   34.0030   40.2160 C   0  0  0  0  0  0  0  0  0  0  0  0
   39.0230   35.2270   40.3200 C   0  0  0  0  0  0  0  0  0  0  0  0
   40.2980   35.3580   39.8180 C   0  0  0  0  0  0  0  0  0  0  0  0
   40.9880   34.3290   39.2130 C   0  0  0  0  0  0  0  0  0  0  0  0
   40.3570   33.1020   39.1090 C   0  0  0  0  0  0  0  0  0  0  0  0
   37.3890   33.8520   40.5980 H   0  0  0  0  0  0  0  0  0  0  0  0
   38.4900   36.0620   40.7990 H   0  0  0  0  0  0  0  0  0  0  0  0
   40.7370   36.3400   39.9300 H   0  0  0  0  0  0  0  0  0  0  0  0
   41.9890   34.4560   38.8270 H   0  0  0  0  0  0  0  0  0  0  0  0
   40.9110   32.3000   38.6310 H   0  0  0  0  0  0  0  0  0  0  0  0
   36.1280   29.7750   37.3240 C   0  0  0  0  0  0  0  0  0  0  0  0
   36.1460   30.4800   36.4750 H   0  0  0  0  0  0  0  0  0  0  0  0
   35.1250   29.5640   37.6950 H   0  0  0  0  0  0  0  0  0  0  0  0
   36.7370   28.5040   36.7860 C   0  0  0  0  0  0  0  0  0  0  0  0
   37.9440   28.3630   36.1760 N   0  0  0  0  0  0  0  0  0  0  0  0
   38.1080   27.1110   35.8530 O   0  0  0  0  0  0  0  0  0  0  0  0
   37.0830   26.3900   36.2070 C   0  0  0  0  0  0  0  0  0  0  0  0
   36.6500   25.3990   36.2210 H   0  0  0  0  0  0  0  0  0  0  0  0
   36.2390   27.2570   36.7830 N   0  0  0  0  0  0  0  0  0  0  0  0
  1  2  1  0  0  0  0
  1 16  1  0  0  0  0
  2 17  1  0  0  0  0
  3  2  2  0  0  0  0
  4  3  1  0  0  0  0
  5  4  2  0  0  0  0
  5  6  1  0  0  0  0
  6  1  2  0  0  0  0
  7  3  1  0  0  0  0
  7 19  1  0  0  0  0
  8 14  1  0  0  0  0
  8  5  1  0  0  0  0
  9  8  1  0  0  0  0
 10 11  1  0  0  0  0
 10  9  2  0  0  0  0
 11 13  1  0  0  0  0
 12 11  2  0  0  0  0
 13 21  1  0  0  0  0
 13 14  1  0  0  0  0
 14 15  2  0  0  0  0
 18  7  1  0  0  0  0
 20  9  1  0  0  0  0
 21 22  1  0  0  0  0
 22 23  2  0  0  0  0
 22 27  1  0  0  0  0
 23 28  1  0  0  0  0
 24 29  1  0  0  0  0
 24 23  1  0  0  0  0
 25 24  2  0  0  0  0
 26 25  1  0  0  0  0
 26 21  2  0  0  0  0
 30 25  1  0  0  0  0
 31 26  1  0  0  0  0
 32 34  1  0  0  0  0
 32 10  1  0  0  0  0
 33 32  1  0  0  0  0
 35 32  1  0  0  0  0
 36 35  2  0  0  0  0
 37 36  1  0  0  0  0
 37 38  1  0  0  0  0
 38 39  1  0  0  0  0
 38 40  2  0  0  0  0
 40 35  1  0  0  0  0
M  END
>  <minimizedAffinity>
-6.15237761

>  <minimizedRMSD>
1.04793155

$$$$
