
 OpenBabel03242507103D

 21 23  0  0  0  0  0  0  0  0999 V2000
   38.5500   28.0280   42.5450 N   0  0  0  0  0  0  0  0  0  0  0  0
   38.4450   26.9160   43.3080 C   0  0  0  0  0  0  0  0  0  0  0  0
   39.6970   26.7620   43.8540 C   0  0  0  0  0  0  0  0  0  0  0  0
   40.5380   27.7560   43.4340 N   0  0  0  0  0  0  0  0  0  0  0  0
   39.7880   28.5150   42.6270 C   0  0  0  0  0  0  0  0  0  0  0  0
   37.5710   26.2950   43.4490 H   0  0  0  0  0  0  0  0  0  0  0  0
   39.9650   25.9520   44.5310 H   0  0  0  0  0  0  0  0  0  0  0  0
   37.1190   29.9170   41.8940 C   0  0  0  0  0  0  0  0  0  0  0  0
   37.5130   28.5780   41.7860 C   0  0  0  0  0  0  0  0  0  0  0  0
   36.8140   27.7580   40.8540 C   0  0  0  0  0  0  0  0  0  0  0  0
   35.8180   28.2980   40.1280 N   0  0  0  0  0  0  0  0  0  0  0  0
   35.4570   29.6180   40.2600 C   0  0  0  0  0  0  0  0  0  0  0  0
   36.1110   30.4290   41.1470 N   0  0  0  0  0  0  0  0  0  0  0  0
   37.5890   30.6040   42.5760 H   0  0  0  0  0  0  0  0  0  0  0  0
   37.0760   26.7140   40.7280 H   0  0  0  0  0  0  0  0  0  0  0  0
   34.6490   29.9570   39.6360 H   0  0  0  0  0  0  0  0  0  0  0  0
   40.4570   29.6800   42.0150 C   0  0  0  0  0  0  0  0  0  0  0  0
   41.0680   30.7590   42.6370 C   0  0  0  0  0  0  0  0  0  0  0  0
   41.6210   31.7200   41.8670 C   0  0  0  0  0  0  0  0  0  0  0  0
   41.5770   31.6260   40.4790 C   0  0  0  0  0  0  0  0  0  0  0  0
   40.6670   30.0280   40.1600 S   0  0  0  0  0  0  0  0  0  0  0  0
  1  5  1  0  0  0  0
  1  2  1  0  0  0  0
  2  6  1  0  0  0  0
  2  3  2  0  0  0  0
  3  7  1  0  0  0  0
  4  3  1  0  0  0  0
  5  4  2  0  0  0  0
  8 14  1  0  0  0  0
  9  8  1  0  0  0  0
  9  1  1  0  0  0  0
 10  9  2  0  0  0  0
 11 12  2  0  0  0  0
 11 10  1  0  0  0  0
 12 13  1  0  0  0  0
 13  8  2  0  0  0  0
 15 10  1  0  0  0  0
 16 12  1  0  0  0  0
 17  5  1  0  0  0  0
 17 18  2  0  0  0  0
 19 18  1  0  0  0  0
 20 19  2  0  0  0  0
 21 20  1  0  0  0  0
 21 17  1  0  0  0  0
M  END
>  <minimizedAffinity>
-3.80952334

>  <minimizedRMSD>
0.847861886

$$$$
