
 OpenBabel03242507393D

 34 36  0  0  1  0  0  0  0  0999 V2000
   36.9370   27.6040   39.8230 C   0  0  2  0  0  0  0  0  0  0  0  0
   36.5650   26.1420   39.7680 C   0  0  0  0  0  0  0  0  0  0  0  0
   36.0680   26.0270   38.3400 C   0  0  0  0  0  0  0  0  0  0  0  0
   36.8080   27.0600   37.5720 C   0  0  0  0  0  0  0  0  0  0  0  0
   37.7960   27.7160   38.5890 C   0  0  1  0  0  0  0  0  0  0  0  0
   36.1270   28.2950   39.5750 H   0  0  0  0  0  0  0  0  0  0  0  0
   37.4620   25.4980   39.9220 H   0  0  0  0  0  0  0  0  0  0  0  0
   35.7520   25.8930   40.4810 H   0  0  0  0  0  0  0  0  0  0  0  0
   34.9800   26.3240   38.3650 H   0  0  0  0  0  0  0  0  0  0  0  0
   36.1760   24.9990   37.9300 H   0  0  0  0  0  0  0  0  0  0  0  0
   37.5000   26.5190   36.8650 H   0  0  0  0  0  0  0  0  0  0  0  0
   36.1890   27.8000   37.0700 H   0  0  0  0  0  0  0  0  0  0  0  0
   38.7460   27.2070   38.6270 H   0  0  0  0  0  0  0  0  0  0  0  0
   38.3370   29.2360   42.8910 C   0  0  0  0  0  0  0  0  0  0  0  0
   37.8590   29.1700   41.5220 C   0  0  0  0  0  0  0  0  0  0  0  0
   37.5520   27.9260   41.0780 C   0  0  0  0  0  0  0  0  0  0  0  0
   37.7150   26.8520   41.9400 N   0  0  0  0  0  0  0  0  0  0  0  0
   38.1550   26.9610   43.1830 C   0  0  0  0  0  0  0  0  0  0  0  0
   38.4700   28.1750   43.6630 N   0  0  0  0  0  0  0  0  0  0  0  0
   38.5890   30.2270   43.2630 H   0  0  0  0  0  0  0  0  0  0  0  0
   38.2650   26.0950   43.8220 H   0  0  0  0  0  0  0  0  0  0  0  0
   37.8080   30.3500   40.7840 N   0  0  0  0  0  0  0  0  0  0  0  0
   36.7580   31.3190   40.8820 C   0  0  0  0  0  0  0  0  0  0  0  0
   35.5650   30.8610   41.1120 N   0  0  0  0  0  0  0  0  0  0  0  0
   37.1500   32.7090   40.7300 N   0  0  0  0  0  0  0  0  0  0  0  0
   34.7560   31.4870   41.2210 H   0  0  0  0  0  0  0  0  0  0  0  0
   38.5600   30.6590   40.1290 H   0  0  0  0  0  0  0  0  0  0  0  0
   37.4740   33.2220   39.8590 H   0  0  0  0  0  0  0  0  0  0  0  0
   37.0990   33.2530   41.6000 H   0  0  0  0  0  0  0  0  0  0  0  0
   37.9490   29.0490   38.0380 C   0  0  0  0  0  0  0  0  0  0  0  0
   36.9170   29.8950   37.4760 C   0  0  0  0  0  0  0  0  0  0  0  0
   37.3570   31.1080   37.0080 C   0  0  0  0  0  0  0  0  0  0  0  0
   38.7180   31.4150   37.1090 C   0  0  0  0  0  0  0  0  0  0  0  0
   39.4390   29.9250   37.9070 S   0  0  0  0  0  0  0  0  0  0  0  0
  1  6  1  6  0  0  0
  1 16  1  0  0  0  0
  2  1  1  0  0  0  0
  2  7  1  0  0  0  0
  2  8  1  0  0  0  0
  3  9  1  0  0  0  0
  3  2  1  0  0  0  0
  4  3  1  0  0  0  0
  4  5  1  0  0  0  0
  5 13  1  1  0  0  0
  5  1  1  0  0  0  0
 10  3  1  0  0  0  0
 11  4  1  0  0  0  0
 12  4  1  0  0  0  0
 14 20  1  0  0  0  0
 14 19  1  0  0  0  0
 15 14  2  0  0  0  0
 16 15  1  0  0  0  0
 16 17  2  0  0  0  0
 17 18  1  0  0  0  0
 18 19  2  0  0  0  0
 18 21  1  0  0  0  0
 22 23  1  0  0  0  0
 22 15  1  0  0  0  0
 23 24  2  0  0  0  0
 24 26  1  0  0  0  0
 25 23  1  0  0  0  0
 25 29  1  0  0  0  0
 27 22  1  0  0  0  0
 28 25  1  0  0  0  0
 30  5  1  0  0  0  0
 31 30  2  0  0  0  0
 32 33  2  0  0  0  0
 32 31  1  0  0  0  0
 33 34  1  0  0  0  0
 34 30  1  0  0  0  0
M  END
>  <minimizedAffinity>
-5.14942312

>  <minimizedRMSD>
0.405749887

$$$$
