
     RDKit          3D

 47 51  0  0  0  0  0  0  0  0999 V2000
   35.2856   29.4943   40.0735 C   0  0  0  0  0  0  0  0  0  0  0  0
   35.8897   29.4316   38.7270 C   0  0  0  0  0  0  0  0  0  0  0  0
   37.2048   29.5981   38.3899 C   0  0  0  0  0  0  0  0  0  0  0  0
   37.7152   29.6002   37.1241 C   0  0  0  0  0  0  0  0  0  0  0  0
   36.8658   29.4225   36.0551 C   0  0  0  0  0  0  0  0  0  0  0  0
   35.5241   29.2471   36.3261 C   0  0  0  0  0  0  0  0  0  0  0  0
   34.7281   29.0788   35.2188 C   0  0  0  0  0  0  0  0  0  0  0  0
   33.3781   28.8963   35.3772 C   0  0  0  0  0  0  0  0  0  0  0  0
   32.8437   28.8822   36.6473 C   0  0  0  0  0  0  0  0  0  0  0  0
   33.6906   29.0548   37.7047 C   0  0  0  0  0  0  0  0  0  0  0  0
   35.0298   29.2465   37.6293 C   0  0  0  0  0  0  0  0  0  0  0  0
   33.0936   29.0136   38.9575 O   0  0  0  0  0  0  0  0  0  0  0  0
   36.1748   30.0775   41.1261 C   0  0  0  0  0  0  0  0  0  0  0  0
   38.6539   28.1582   42.7162 C   0  0  0  0  0  0  0  0  0  0  0  0
   37.5619   27.3499   42.8724 C   0  0  0  0  0  0  0  0  0  0  0  0
   36.4876   28.0107   42.2702 C   0  0  0  0  0  0  0  0  0  0  0  0
   37.0148   29.1505   41.8057 N   0  0  0  0  0  0  0  0  0  0  0  0
   38.2823   29.2777   42.0452 N   0  0  0  0  0  0  0  0  0  0  0  0
   41.5794   26.5364   44.3710 C   0  0  0  0  0  0  0  0  0  0  0  0
   40.2681   26.7540   43.9315 C   0  0  0  0  0  0  0  0  0  0  0  0
   40.0017   27.9038   43.1776 C   0  0  0  0  0  0  0  0  0  0  0  0
   41.0063   28.7743   42.8904 N   0  0  0  0  0  0  0  0  0  0  0  0
   42.2627   28.5019   43.3498 C   0  0  0  0  0  0  0  0  0  0  0  0
   42.5443   27.4123   44.0713 N   0  0  0  0  0  0  0  0  0  0  0  0
   34.8351   28.5822   40.4399 H   0  0  0  0  0  0  0  0  0  0  0  0
   34.5537   30.3664   39.9641 H   0  0  0  0  0  0  0  0  0  0  0  0
   37.8729   29.7395   39.2470 H   0  0  0  0  0  0  0  0  0  0  0  0
   38.7801   29.7439   37.0248 H   0  0  0  0  0  0  0  0  0  0  0  0
   37.2823   29.4283   35.0668 H   0  0  0  0  0  0  0  0  0  0  0  0
   35.1210   29.0831   34.2053 H   0  0  0  0  0  0  0  0  0  0  0  0
   32.7582   28.7664   34.4958 H   0  0  0  0  0  0  0  0  0  0  0  0
   31.7795   28.7365   36.7709 H   0  0  0  0  0  0  0  0  0  0  0  0
   32.7320   28.1476   39.3401 H   0  0  0  0  0  0  0  0  0  0  0  0
   35.5767   30.5969   41.9264 H   0  0  0  0  0  0  0  0  0  0  0  0
   36.7826   30.8750   40.6497 H   0  0  0  0  0  0  0  0  0  0  0  0
   37.5628   26.3906   43.3707 H   0  0  0  0  0  0  0  0  0  0  0  0
   35.4931   27.5986   42.2442 H   0  0  0  0  0  0  0  0  0  0  0  0
   41.7220   25.6312   44.9489 H   0  0  0  0  0  0  0  0  0  0  0  0
   39.4854   26.0451   44.1733 H   0  0  0  0  0  0  0  0  0  0  0  0
   43.3757   29.3837   43.0811 C   0  0  0  0  0  0  0  0  0  0  0  0
   43.5135   30.7106   43.1058 C   0  0  0  0  0  0  0  0  0  0  0  0
   44.6890   31.3383   42.8075 C   0  0  0  0  0  0  0  0  0  0  0  0
   45.7746   30.3730   42.4583 C   0  0  0  0  0  0  0  0  0  0  0  0
   44.9221   28.7089   42.6171 S   0  0  0  0  0  0  0  0  0  0  0  0
   42.6398   31.2840   43.3771 H   0  0  0  0  0  0  0  0  0  0  0  0
   44.8623   32.3997   42.8097 H   0  0  0  0  0  0  0  0  0  0  0  0
   46.8167   30.8827   42.1917 H   0  0  0  0  0  0  0  0  0  0  0  0
  1 13  1  0
  2  1  1  0
  3  2  2  0
  4  3  1  0
  5  6  1  0
  5  4  2  0
  6 11  2  0
  7  8  2  0
  7  6  1  0
  8  9  1  0
  9 10  2  0
 10 12  1  0
 11 10  1  0
 11  2  1  0
 13 17  1  0
 14 15  1  0
 14 21  1  0
 16 15  2  0
 17 18  1  0
 17 16  1  0
 18 14  2  0
 20 19  2  0
 21 20  1  0
 22 21  2  0
 22 23  1  0
 23 24  2  0
 24 19  1  0
  1 25  1  0
  1 26  1  0
  3 27  1  0
  4 28  1  0
  5 29  1  0
  7 30  1  0
  8 31  1  0
  9 32  1  0
 12 33  1  0
 13 34  1  0
 13 35  1  0
 15 36  1  0
 16 37  1  0
 19 38  1  0
 20 39  1  0
 40 41  2  0
 41 42  1  0
 42 43  2  0
 43 44  1  0
 44 40  1  0
 41 45  1  0
 42 46  1  0
 43 47  1  0
 23 40  1  0
M  ISO  8  25   8  26   8  27  14  28  14  29  14  30  14  31  14  32  14
M  ISO  7  33   3  34   8  35   8  36  14  37  14  38  14  39  14
M  END
>  <DihAtoms>  (1) 
21,22,39,40

>  <DihDeg>  (1) 
-107.05347441843828

$$$$
