
 OpenBabel03242508523D

 33 37  0  0  0  0  0  0  0  0999 V2000
   40.4940   32.1920   41.0040 C   0  0  0  0  0  0  0  0  0  0  0  0
   39.5520   31.1670   40.9090 C   0  0  0  0  0  0  0  0  0  0  0  0
   38.4240   31.7180   40.4870 N   0  0  0  0  0  0  0  0  0  0  0  0
   38.5470   33.0420   40.2920 C   0  0  0  0  0  0  0  0  0  0  0  0
   37.6170   33.9730   39.8610 C   0  0  0  0  0  0  0  0  0  0  0  0
   38.0460   35.3030   39.7550 C   0  0  0  0  0  0  0  0  0  0  0  0
   39.3460   35.6490   40.0710 C   0  0  0  0  0  0  0  0  0  0  0  0
   40.2650   34.7110   40.5000 C   0  0  0  0  0  0  0  0  0  0  0  0
   39.8580   33.3780   40.6130 C   0  0  0  0  0  0  0  0  0  0  0  0
   39.8080   30.1590   41.1590 H   0  0  0  0  0  0  0  0  0  0  0  0
   36.5940   33.7090   39.6110 H   0  0  0  0  0  0  0  0  0  0  0  0
   37.3700   36.0880   39.4220 H   0  0  0  0  0  0  0  0  0  0  0  0
   39.7370   36.6510   40.0090 H   0  0  0  0  0  0  0  0  0  0  0  0
   41.2850   34.9690   40.7500 H   0  0  0  0  0  0  0  0  0  0  0  0
   37.2540   30.9230   40.2860 C   0  0  0  0  0  0  0  0  0  0  0  0
   36.4540   30.6070   41.3700 C   0  0  0  0  0  0  0  0  0  0  0  0
   35.4190   29.8590   40.9560 N   0  0  0  0  0  0  0  0  0  0  0  0
   35.5440   29.6890   39.6100 C   0  0  0  0  0  0  0  0  0  0  0  0
   34.8010   29.0250   38.6390 C   0  0  0  0  0  0  0  0  0  0  0  0
   35.2240   29.0530   37.3250 C   0  0  0  0  0  0  0  0  0  0  0  0
   36.3730   29.7240   36.9340 C   0  0  0  0  0  0  0  0  0  0  0  0
   37.1360   30.3970   37.8850 C   0  0  0  0  0  0  0  0  0  0  0  0
   36.6750   30.3390   39.1740 C   0  0  0  0  0  0  0  0  0  0  0  0
   34.6120   29.4300   41.4580 H   0  0  0  0  0  0  0  0  0  0  0  0
   43.4020   31.6430   43.1400 C   0  0  0  0  0  0  0  0  0  0  0  0
   44.5000   31.8680   42.2490 C   0  0  0  0  0  0  0  0  0  0  0  0
   44.2030   32.2070   40.9120 C   0  0  0  0  0  0  0  0  0  0  0  0
   42.9040   32.2960   40.5750 N   0  0  0  0  0  0  0  0  0  0  0  0
   41.8850   32.0820   41.4260 C   0  0  0  0  0  0  0  0  0  0  0  0
   42.1440   31.7600   42.6940 N   0  0  0  0  0  0  0  0  0  0  0  0
   43.6610   31.3850   44.1590 H   0  0  0  0  0  0  0  0  0  0  0  0
   45.5230   31.7730   42.6150 H   0  0  0  0  0  0  0  0  0  0  0  0
   45.0140   32.3800   40.2240 H   0  0  0  0  0  0  0  0  0  0  0  0
  1 29  1  0  0  0  0
  2  1  2  0  0  0  0
  2 10  1  0  0  0  0
  3  2  1  0  0  0  0
  4  3  1  0  0  0  0
  4  9  1  0  0  0  0
  5  4  2  0  0  0  0
  6  5  1  0  0  0  0
  6  7  2  0  0  0  0
  7  8  1  0  0  0  0
  8  9  2  0  0  0  0
  8 14  1  0  0  0  0
  9  1  1  0  0  0  0
 11  5  1  0  0  0  0
 12  6  1  0  0  0  0
 13  7  1  0  0  0  0
 15  3  1  0  0  0  0
 15 16  2  0  0  0  0
 17 16  1  0  0  0  0
 17 24  1  0  0  0  0
 18 17  1  0  0  0  0
 19 18  2  0  0  0  0
 20 19  1  0  0  0  0
 21 20  2  0  0  0  0
 21 22  1  0  0  0  0
 22 23  2  0  0  0  0
 23 18  1  0  0  0  0
 23 15  1  0  0  0  0
 25 31  1  0  0  0  0
 26 32  1  0  0  0  0
 26 25  2  0  0  0  0
 27 26  1  0  0  0  0
 28 27  2  0  0  0  0
 28 29  1  0  0  0  0
 29 30  2  0  0  0  0
 30 25  1  0  0  0  0
 33 27  1  0  0  0  0
M  END
>  <minimizedAffinity>
-6.10777664

>  <minimizedRMSD>
5.38022614

$$$$
