REMARK  Name = 
REMARK  6 active torsions:
REMARK  status: ('A' for Active; 'I' for Inactive)
REMARK    1  A    between atoms: C_1  and  C_2
REMARK    2  A    between atoms: C_1  and  C_13
REMARK    3  A    between atoms: C_10  and  O_12
REMARK    4  A    between atoms: C_13  and  N_17
REMARK    5  A    between atoms: C_14  and  C_21
REMARK    6  A    between atoms: C_23  and  C_40
REMARK                            x       y       z     vdW  Elec       q    Type
REMARK                         _______ _______ _______ _____ _____    ______ ____
ROOT
ATOM      1  C   UNL     1      36.175  30.078  41.126  0.00  0.00    +0.000 C 
ATOM      2  H   UNL     1      35.577  30.597  41.926  0.00  0.00    +0.000 HD
ATOM      3  H   UNL     1      36.783  30.875  40.650  0.00  0.00    +0.000 HD
ENDROOT
BRANCH   1   7
ATOM      4  C   UNL     1      38.654  28.158  42.716  0.00  0.00    +0.000 A 
ATOM      5  C   UNL     1      37.562  27.350  42.872  0.00  0.00    +0.000 A 
ATOM      6  C   UNL     1      36.488  28.011  42.270  0.00  0.00    +0.000 A 
ATOM      7  N   UNL     1      37.015  29.151  41.806  0.00  0.00    +0.000 N 
ATOM      8  N   UNL     1      38.282  29.278  42.045  0.00  0.00    +0.000 NA
ATOM      9  H   UNL     1      37.563  26.391  43.371  0.00  0.00    +0.000 HD
ATOM     10  H   UNL     1      35.493  27.599  42.244  0.00  0.00    +0.000 HD
BRANCH   4  13
ATOM     11  C   UNL     1      41.579  26.536  44.371  0.00  0.00    +0.000 A 
ATOM     12  C   UNL     1      40.268  26.754  43.931  0.00  0.00    +0.000 A 
ATOM     13  C   UNL     1      40.002  27.904  43.178  0.00  0.00    +0.000 A 
ATOM     14  N   UNL     1      41.006  28.774  42.890  0.00  0.00    +0.000 NA
ATOM     15  C   UNL     1      42.263  28.502  43.350  0.00  0.00    +0.000 A 
ATOM     16  N   UNL     1      42.544  27.412  44.071  0.00  0.00    +0.000 NA
ATOM     17  H   UNL     1      41.722  25.631  44.949  0.00  0.00    +0.000 HD
ATOM     18  H   UNL     1      39.485  26.045  44.173  0.00  0.00    +0.000 HD
BRANCH  15  19
ATOM     19  C   UNL     1      43.376  29.384  43.081  0.00  0.00    +0.000 A 
ATOM     20  C   UNL     1      44.339  29.895  43.850  0.00  0.00    +0.000 A 
ATOM     21  C   UNL     1      45.309  30.726  43.366  0.00  0.00    +0.000 A 
ATOM     22  C   UNL     1      45.157  30.984  41.902  0.00  0.00    +0.000 A 
ATOM     23  S   UNL     1      43.634  29.982  41.457  0.00  0.00    +0.000 S 
ENDBRANCH  15  19
ENDBRANCH   4  13
ENDBRANCH   1   7
BRANCH   1  24
ATOM     24  C   UNL     1      35.286  29.494  40.074  0.00  0.00    +0.000 C 
ATOM     25  H   UNL     1      34.835  28.582  40.440  0.00  0.00    +0.000 HD
ATOM     26  H   UNL     1      34.554  30.366  39.964  0.00  0.00    +0.000 HD
BRANCH  24  27
ATOM     27  C   UNL     1      35.890  29.432  38.727  0.00  0.00    +0.000 A 
ATOM     28  C   UNL     1      37.205  29.598  38.390  0.00  0.00    +0.000 A 
ATOM     29  C   UNL     1      37.715  29.600  37.124  0.00  0.00    +0.000 A 
ATOM     30  C   UNL     1      36.866  29.422  36.055  0.00  0.00    +0.000 A 
ATOM     31  C   UNL     1      35.524  29.247  36.326  0.00  0.00    +0.000 A 
ATOM     32  C   UNL     1      34.728  29.079  35.219  0.00  0.00    +0.000 A 
ATOM     33  C   UNL     1      33.378  28.896  35.377  0.00  0.00    +0.000 A 
ATOM     34  C   UNL     1      32.844  28.882  36.647  0.00  0.00    +0.000 A 
ATOM     35  C   UNL     1      33.691  29.055  37.705  0.00  0.00    +0.000 A 
ATOM     36  C   UNL     1      35.030  29.247  37.629  0.00  0.00    +0.000 A 
ATOM     37  H   UNL     1      37.873  29.739  39.247  0.00  0.00    +0.000 HD
ATOM     38  H   UNL     1      38.780  29.744  37.025  0.00  0.00    +0.000 HD
ATOM     39  H   UNL     1      37.282  29.428  35.067  0.00  0.00    +0.000 HD
ATOM     40  H   UNL     1      35.121  29.083  34.205  0.00  0.00    +0.000 HD
ATOM     41  H   UNL     1      32.758  28.766  34.496  0.00  0.00    +0.000 HD
ATOM     42  H   UNL     1      31.779  28.736  36.771  0.00  0.00    +0.000 HD
BRANCH  35  43
ATOM     43  O   UNL     1      33.094  29.014  38.958  0.00  0.00    +0.000 OA
ATOM     44  H   UNL     1      32.732  28.148  39.340  0.00  0.00    +0.000 HD
ENDBRANCH  35  43
ENDBRANCH  24  27
ENDBRANCH   1  24
TORSDOF 6
