REMARK  Name = 
REMARK  2 active torsions:
REMARK  status: ('A' for Active; 'I' for Inactive)
REMARK    1  A    between atoms: C_3  and  C_7
REMARK    2  A    between atoms: C_5  and  C_13
REMARK                            x       y       z     vdW  Elec       q    Type
REMARK                         _______ _______ _______ _____ _____    ______ ____
ROOT
ATOM      1  C   UNL     1      37.972  28.878  43.374  0.00  0.00    +0.000 A 
ATOM      2  C   UNL     1      38.082  27.474  43.306  0.00  0.00    +0.000 A 
ATOM      3  C   UNL     1      37.438  26.822  42.254  0.00  0.00    +0.000 A 
ATOM      4  N   UNL     1      36.735  27.571  41.343  0.00  0.00    +0.000 NA
ATOM      5  C   UNL     1      36.660  28.916  41.452  0.00  0.00    +0.000 A 
ATOM      6  N   UNL     1      37.268  29.552  42.450  0.00  0.00    +0.000 NA
ATOM      7  H   UNL     1      38.473  29.382  44.193  0.00  0.00    +0.000 HD
ATOM      8  H   UNL     1      38.654  26.950  44.062  0.00  0.00    +0.000 HD
ENDROOT
BRANCH   5   9
ATOM      9  C   UNL     1      35.933  29.749  40.520  0.00  0.00    +0.000 A 
ATOM     10  C   UNL     1      35.008  30.751  40.779  0.00  0.00    +0.000 A 
ATOM     11  C   UNL     1      34.454  31.400  39.719  0.00  0.00    +0.000 A 
ATOM     12  C   UNL     1      34.852  31.016  38.461  0.00  0.00    +0.000 A 
ATOM     13  S   UNL     1      36.079  29.661  38.779  0.00  0.00    +0.000 S 
ENDBRANCH   5   9
BRANCH   3  14
ATOM     14  C   UNL     1      37.527  25.345  42.143  0.00  0.00    +0.000 C 
ATOM     15  F   UNL     1      37.653  25.049  40.807  0.00  0.00    +0.000 F 
ATOM     16  F   UNL     1      38.625  24.836  42.798  0.00  0.00    +0.000 F 
ATOM     17  F   UNL     1      36.385  24.713  42.645  0.00  0.00    +0.000 F 
ENDBRANCH   3  14
TORSDOF 2
