
 OpenBabel03242509043D

 34 37  0  0  1  0  0  0  0  0999 V2000
   39.3720   31.8070   39.8840 N   0  0  1  0  0  0  0  0  0  0  0  0
   40.4970   31.0600   39.2710 C   0  0  0  0  0  0  0  0  0  0  0  0
   41.2280   30.2250   40.2730 C   0  0  0  0  0  0  0  0  0  0  0  0
   41.4200   30.9090   41.4670 O   0  0  0  0  0  0  0  0  0  0  0  0
   41.3870   32.2730   41.1830 C   0  0  0  0  0  0  0  0  0  0  0  0
   39.9540   32.7090   40.8160 C   0  0  1  0  0  0  0  0  0  0  0  0
   41.1280   31.7330   38.6690 H   0  0  0  0  0  0  0  0  0  0  0  0
   40.0170   30.3680   38.5540 H   0  0  0  0  0  0  0  0  0  0  0  0
   42.2000   29.9450   39.8670 H   0  0  0  0  0  0  0  0  0  0  0  0
   40.6670   29.2760   40.4590 H   0  0  0  0  0  0  0  0  0  0  0  0
   41.7310   32.9050   42.0070 H   0  0  0  0  0  0  0  0  0  0  0  0
   42.0820   32.4450   40.3340 H   0  0  0  0  0  0  0  0  0  0  0  0
   39.3810   32.5450   41.7680 H   0  0  0  0  0  0  0  0  0  0  0  0
   37.3020   31.5290   38.3580 C   0  0  1  0  0  0  0  0  0  0  0  0
   37.1500   32.8080   39.0830 C   0  0  0  0  0  0  0  0  0  0  0  0
   38.5160   32.3140   38.9000 C   0  0  1  0  0  0  0  0  0  0  0  0
   37.2350   31.4130   37.2760 H   0  0  0  0  0  0  0  0  0  0  0  0
   36.5940   32.7780   40.0430 H   0  0  0  0  0  0  0  0  0  0  0  0
   36.7530   33.6620   38.4580 H   0  0  0  0  0  0  0  0  0  0  0  0
   39.0490   32.8390   38.0490 H   0  0  0  0  0  0  0  0  0  0  0  0
   35.6670   29.3130   40.7980 C   0  0  0  0  0  0  0  0  0  0  0  0
   36.1630   28.0310   40.4350 C   0  0  0  0  0  0  0  0  0  0  0  0
   37.0700   27.9680   39.3500 C   0  0  0  0  0  0  0  0  0  0  0  0
   37.4300   29.1390   38.6990 N   0  0  0  0  0  0  0  0  0  0  0  0
   36.9180   30.3050   39.1010 C   0  0  0  0  0  0  0  0  0  0  0  0
   36.0500   30.4140   40.1320 N   0  0  0  0  0  0  0  0  0  0  0  0
   34.9800   29.4070   41.6100 H   0  0  0  0  0  0  0  0  0  0  0  0
   35.8690   27.1500   40.9520 H   0  0  0  0  0  0  0  0  0  0  0  0
   37.4810   27.0290   39.0270 H   0  0  0  0  0  0  0  0  0  0  0  0
   39.9920   34.0830   40.4790 C   0  0  0  0  0  0  0  0  0  0  0  0
   39.2150   35.2130   40.6650 C   0  0  0  0  0  0  0  0  0  0  0  0
   39.5630   36.4400   40.1810 C   0  0  0  0  0  0  0  0  0  0  0  0
   40.8560   36.4660   39.4290 C   0  0  0  0  0  0  0  0  0  0  0  0
   41.4420   34.7860   39.4810 S   0  0  0  0  0  0  0  0  0  0  0  0
  1  2  1  6  0  0  0
  1  6  1  0  0  0  0
  2  3  1  0  0  0  0
  3 10  1  0  0  0  0
  3  4  1  0  0  0  0
  5  4  1  0  0  0  0
  5 11  1  0  0  0  0
  6  5  1  0  0  0  0
  6 13  1  1  0  0  0
  7  2  1  0  0  0  0
  8  2  1  0  0  0  0
  9  3  1  0  0  0  0
 12  5  1  0  0  0  0
 14 17  1  6  0  0  0
 14 16  1  0  0  0  0
 14 15  1  0  0  0  0
 14 25  1  0  0  0  0
 15 18  1  0  0  0  0
 16 20  1  6  0  0  0
 16 15  1  0  0  0  0
 16  1  1  0  0  0  0
 19 15  1  0  0  0  0
 21 27  1  0  0  0  0
 22 21  1  0  0  0  0
 22 28  1  0  0  0  0
 23 22  2  0  0  0  0
 24 25  2  0  0  0  0
 24 23  1  0  0  0  0
 25 26  1  0  0  0  0
 26 21  2  0  0  0  0
 29 23  1  0  0  0  0
 30 31  2  0  0  0  0
 30  6  1  0  0  0  0
 32 31  1  0  0  0  0
 33 34  1  0  0  0  0
 33 32  2  0  0  0  0
 34 30  1  0  0  0  0
M  END
>  <minimizedAffinity>
-4.9367528

>  <minimizedRMSD>
3.15687108

$$$$
