
 OpenBabel03242506353D

 22 24  0  0  0  0  0  0  0  0999 V2000
   37.1490   30.2420   40.3630 C   0  0  0  0  0  0  0  0  0  0  0  0
   37.3500   31.5920   40.4700 C   0  0  0  0  0  0  0  0  0  0  0  0
   37.3100   32.3680   39.3310 C   0  0  0  0  0  0  0  0  0  0  0  0
   37.0740   31.8120   38.1170 N   0  0  0  0  0  0  0  0  0  0  0  0
   36.8770   30.4700   38.0370 C   0  0  0  0  0  0  0  0  0  0  0  0
   36.9170   29.6990   39.1600 N   0  0  0  0  0  0  0  0  0  0  0  0
   37.5410   32.0800   41.4170 H   0  0  0  0  0  0  0  0  0  0  0  0
   37.4550   33.4410   39.3040 H   0  0  0  0  0  0  0  0  0  0  0  0
   38.0820   28.8860   43.6360 C   0  0  0  0  0  0  0  0  0  0  0  0
   37.2160   27.7550   43.7530 C   0  0  0  0  0  0  0  0  0  0  0  0
   36.3460   27.5010   42.7060 C   0  0  0  0  0  0  0  0  0  0  0  0
   36.3600   28.3360   41.6260 N   0  0  0  0  0  0  0  0  0  0  0  0
   37.1840   29.3920   41.5400 C   0  0  0  0  0  0  0  0  0  0  0  0
   38.0430   29.6680   42.5440 N   0  0  0  0  0  0  0  0  0  0  0  0
   38.8100   29.2000   44.3800 H   0  0  0  0  0  0  0  0  0  0  0  0
   37.3360   27.2110   44.6620 H   0  0  0  0  0  0  0  0  0  0  0  0
   35.7140   26.6570   42.8140 H   0  0  0  0  0  0  0  0  0  0  0  0
   36.6140   29.7190   36.8080 C   0  0  0  0  0  0  0  0  0  0  0  0
   36.6320   30.1560   35.5260 C   0  0  0  0  0  0  0  0  0  0  0  0
   36.3600   29.3220   34.4900 C   0  0  0  0  0  0  0  0  0  0  0  0
   36.0510   27.9330   34.8850 C   0  0  0  0  0  0  0  0  0  0  0  0
   36.1940   27.9990   36.7700 S   0  0  0  0  0  0  0  0  0  0  0  0
  1  2  1  0  0  0  0
  1 13  1  0  0  0  0
  2  7  1  0  0  0  0
  3  2  2  0  0  0  0
  4  3  1  0  0  0  0
  5  4  2  0  0  0  0
  5  6  1  0  0  0  0
  6  1  2  0  0  0  0
  8  3  1  0  0  0  0
  9 10  1  0  0  0  0
  9 15  1  0  0  0  0
 10 16  1  0  0  0  0
 11 17  1  0  0  0  0
 11 10  2  0  0  0  0
 12 11  1  0  0  0  0
 13 12  2  0  0  0  0
 13 14  1  0  0  0  0
 14  9  2  0  0  0  0
 18  5  1  0  0  0  0
 19 18  2  0  0  0  0
 20 21  2  0  0  0  0
 20 19  1  0  0  0  0
 21 22  1  0  0  0  0
 22 18  1  0  0  0  0
M  END
>  <minimizedAffinity>
-4.27447462

>  <minimizedRMSD>
0.928572714

$$$$
