
 OpenBabel03242508243D

 19 20  0  0  0  0  0  0  0  0999 V2000
   38.9250   29.9400   41.2490 O   0  0  0  0  0  0  0  0  0  0  0  0
   37.0960   32.4360   39.3010 C   0  0  0  0  0  0  0  0  0  0  0  0
   37.7160   33.6020   39.7960 C   0  0  0  0  0  0  0  0  0  0  0  0
   38.7280   33.4320   40.7760 C   0  0  0  0  0  0  0  0  0  0  0  0
   39.0390   32.1650   41.1750 N   0  0  0  0  0  0  0  0  0  0  0  0
   38.4100   31.0820   40.6660 C   0  0  0  0  0  0  0  0  0  0  0  0
   37.4410   31.2190   39.7300 N   0  0  0  0  0  0  0  0  0  0  0  0
   36.3230   32.4210   38.5640 H   0  0  0  0  0  0  0  0  0  0  0  0
   37.3830   34.5300   39.4040 H   0  0  0  0  0  0  0  0  0  0  0  0
   39.1900   34.3220   41.1440 H   0  0  0  0  0  0  0  0  0  0  0  0
   38.1700   29.0610   41.9790 C   0  0  0  0  0  0  0  0  0  0  0  0
   37.5470   28.0100   41.2980 C   0  0  0  0  0  0  0  0  0  0  0  0
   37.6850   27.9300   40.2120 H   0  0  0  0  0  0  0  0  0  0  0  0
   36.7580   27.0680   41.9680 C   0  0  0  0  0  0  0  0  0  0  0  0
   36.6460   27.2550   43.3300 C   0  0  0  0  0  0  0  0  0  0  0  0
   36.0320   26.5290   43.8850 H   0  0  0  0  0  0  0  0  0  0  0  0
   37.2260   28.2610   44.0770 C   0  0  0  0  0  0  0  0  0  0  0  0
   37.0800   28.3240   45.1390 H   0  0  0  0  0  0  0  0  0  0  0  0
   37.9910   29.1550   43.3520 C   0  0  0  0  0  0  0  0  0  0  0  0
  1 11  1  0  0  0  0
  2  7  2  0  0  0  0
  2  3  1  0  0  0  0
  3  4  2  0  0  0  0
  4 10  1  0  0  0  0
  4  5  1  0  0  0  0
  6  5  2  0  0  0  0
  6  1  1  0  0  0  0
  7  6  1  0  0  0  0
  8  2  1  0  0  0  0
  9  3  1  0  0  0  0
 11 19  1  0  0  0  0
 12 14  1  0  0  0  0
 12 11  2  0  0  0  0
 13 12  1  0  0  0  0
 14 15  2  0  0  0  0
 15 16  1  0  0  0  0
 15 17  1  0  0  0  0
 17 18  1  0  0  0  0
 19 17  2  0  0  0  0
M  END
>  <minimizedAffinity>
-4.34624815

>  <minimizedRMSD>
5.32783556

$$$$
