
 OpenBabel03242508553D

 36 39  0  0  0  0  0  0  0  0999 V2000
   37.6180   28.2210   41.4030 C   0  0  0  0  0  0  0  0  0  0  0  0
   36.3730   27.9570   40.8270 C   0  0  0  0  0  0  0  0  0  0  0  0
   35.9390   29.1170   40.3210 N   0  0  0  0  0  0  0  0  0  0  0  0
   36.8010   30.1200   40.5200 C   0  0  0  0  0  0  0  0  0  0  0  0
   36.7250   31.4440   40.1590 C   0  0  0  0  0  0  0  0  0  0  0  0
   37.7920   32.2710   40.5060 C   0  0  0  0  0  0  0  0  0  0  0  0
   38.8820   31.7520   41.1920 C   0  0  0  0  0  0  0  0  0  0  0  0
   38.9530   30.4250   41.5520 C   0  0  0  0  0  0  0  0  0  0  0  0
   37.8900   29.5830   41.2110 C   0  0  0  0  0  0  0  0  0  0  0  0
   35.9480   26.9800   40.8470 H   0  0  0  0  0  0  0  0  0  0  0  0
   35.8840   31.8660   39.6250 H   0  0  0  0  0  0  0  0  0  0  0  0
   37.7830   33.3160   40.2460 H   0  0  0  0  0  0  0  0  0  0  0  0
   39.7240   32.3690   41.4750 H   0  0  0  0  0  0  0  0  0  0  0  0
   39.7980   30.0000   42.0900 H   0  0  0  0  0  0  0  0  0  0  0  0
   39.5880   26.6550   44.0600 C   0  0  0  0  0  0  0  0  0  0  0  0
   40.1340   25.5100   43.4090 C   0  0  0  0  0  0  0  0  0  0  0  0
   39.8070   25.2990   42.0460 C   0  0  0  0  0  0  0  0  0  0  0  0
   38.9960   26.2020   41.4570 N   0  0  0  0  0  0  0  0  0  0  0  0
   38.4940   27.2690   42.0850 C   0  0  0  0  0  0  0  0  0  0  0  0
   38.7880   27.4980   43.3840 N   0  0  0  0  0  0  0  0  0  0  0  0
   39.8180   26.8470   45.1050 H   0  0  0  0  0  0  0  0  0  0  0  0
   40.7760   24.8410   43.9620 H   0  0  0  0  0  0  0  0  0  0  0  0
   40.2140   24.4350   41.5400 H   0  0  0  0  0  0  0  0  0  0  0  0
   34.6500   29.1730   39.6460 C   0  0  0  0  0  0  0  0  0  0  0  0
   34.4630   30.2480   39.4560 H   0  0  0  0  0  0  0  0  0  0  0  0
   33.8190   28.7970   40.2770 H   0  0  0  0  0  0  0  0  0  0  0  0
   34.6480   28.3910   38.3510 C   0  0  0  0  0  0  0  0  0  0  0  0
   35.6930   28.5010   37.9360 H   0  0  0  0  0  0  0  0  0  0  0  0
   34.5470   27.3060   38.5540 H   0  0  0  0  0  0  0  0  0  0  0  0
   33.7300   28.9020   37.3340 C   0  0  0  0  0  0  0  0  0  0  0  0
   32.4600   29.3710   37.5880 C   0  0  0  0  0  0  0  0  0  0  0  0
   31.7400   29.8140   36.4890 C   0  0  0  0  0  0  0  0  0  0  0  0
   30.7350   30.1910   36.6470 H   0  0  0  0  0  0  0  0  0  0  0  0
   32.2810   29.7760   35.2490 N   0  0  0  0  0  0  0  0  0  0  0  0
   33.5260   29.3130   35.0220 C   0  0  0  0  0  0  0  0  0  0  0  0
   34.2390   28.8760   36.0970 N   0  0  0  0  0  0  0  0  0  0  0  0
  1 19  1  0  0  0  0
  2 10  1  0  0  0  0
  2  1  2  0  0  0  0
  3  4  1  0  0  0  0
  3  2  1  0  0  0  0
  4  9  1  0  0  0  0
  5  6  1  0  0  0  0
  5  4  2  0  0  0  0
  6  7  2  0  0  0  0
  7 13  1  0  0  0  0
  7  8  1  0  0  0  0
  8 14  1  0  0  0  0
  9  1  1  0  0  0  0
  9  8  2  0  0  0  0
 11  5  1  0  0  0  0
 12  6  1  0  0  0  0
 15 21  1  0  0  0  0
 16 22  1  0  0  0  0
 16 15  1  0  0  0  0
 17 16  2  0  0  0  0
 18 17  1  0  0  0  0
 18 19  2  0  0  0  0
 19 20  1  0  0  0  0
 20 15  2  0  0  0  0
 23 17  1  0  0  0  0
 24 26  1  0  0  0  0
 24  3  1  0  0  0  0
 25 24  1  0  0  0  0
 27 29  1  0  0  0  0
 27 24  1  0  0  0  0
 28 27  1  0  0  0  0
 30 31  1  0  0  0  0
 30 27  1  0  0  0  0
 32 33  1  0  0  0  0
 32 31  2  0  0  0  0
 34 32  1  0  0  0  0
 35 34  2  0  0  0  0
 35 36  1  0  0  0  0
 36 30  2  0  0  0  0
M  END
>  <minimizedAffinity>
-5.01281548

>  <minimizedRMSD>
0.900302231

$$$$
