
 OpenBabel03242509313D

 19 20  0  0  0  0  0  0  0  0999 V2000
   37.5310   28.5790   43.6690 C   0  0  0  0  0  0  0  0  0  0  0  0
   37.4190   27.1940   43.3650 C   0  0  0  0  0  0  0  0  0  0  0  0
   37.2770   26.8470   42.0060 C   0  0  0  0  0  0  0  0  0  0  0  0
   37.2550   27.8590   41.0710 N   0  0  0  0  0  0  0  0  0  0  0  0
   37.3650   29.1500   41.4150 C   0  0  0  0  0  0  0  0  0  0  0  0
   37.5010   29.5010   42.6910 N   0  0  0  0  0  0  0  0  0  0  0  0
   37.6420   28.8680   44.7090 H   0  0  0  0  0  0  0  0  0  0  0  0
   37.4410   26.4480   44.1280 H   0  0  0  0  0  0  0  0  0  0  0  0
   37.3300   30.1350   40.3390 C   0  0  0  0  0  0  0  0  0  0  0  0
   37.1290   31.4920   40.6150 C   0  0  0  0  0  3  0  0  0  0  0  0
   37.1100   32.3550   39.5270 C   0  0  0  0  0  3  0  0  0  0  0  0
   37.2820   31.8680   38.2670 N   0  0  0  0  0  0  0  0  0  0  0  0
   37.4740   30.5570   38.0180 C   0  0  0  0  0  0  0  0  0  0  0  0
   37.6100   30.1690   37.0220 H   0  0  0  0  0  0  0  0  0  0  0  0
   37.4980   29.6790   39.0630 N   0  0  0  0  0  0  0  0  0  0  0  0
   37.1560   25.4170   41.6400 C   0  0  0  0  0  0  0  0  0  0  0  0
   36.4870   25.3720   40.4460 F   0  0  0  0  0  0  0  0  0  0  0  0
   38.3670   24.8100   41.4590 F   0  0  0  0  0  0  0  0  0  0  0  0
   36.4230   24.6970   42.5900 F   0  0  0  0  0  0  0  0  0  0  0  0
  1  7  1  0  0  0  0
  2  1  1  0  0  0  0
  2  8  1  0  0  0  0
  3  2  2  0  0  0  0
  4  5  2  0  0  0  0
  4  3  1  0  0  0  0
  5  6  1  0  0  0  0
  6  1  2  0  0  0  0
  9 10  1  0  0  0  0
  9  5  1  0  0  0  0
 11 10  2  0  0  0  0
 12 11  1  0  0  0  0
 13 12  2  0  0  0  0
 13 15  1  0  0  0  0
 14 13  1  0  0  0  0
 15  9  2  0  0  0  0
 16  3  1  0  0  0  0
 16 19  1  0  0  0  0
 17 16  1  0  0  0  0
 18 16  1  0  0  0  0
M  END
>  <minimizedAffinity>
-4.62136889

>  <minimizedRMSD>
1.54313409

$$$$
