
 OpenBabel03242508203D

 29 32  0  0  0  0  0  0  0  0999 V2000
   38.6210   27.3120   43.8360 C   0  0  0  0  0  0  0  0  0  0  0  0
   39.0920   26.3480   42.9470 C   0  0  0  0  0  0  0  0  0  0  0  0
   39.0820   26.6710   41.5960 C   0  0  0  0  0  0  0  0  0  0  0  0
   38.6230   27.8940   41.2040 N   0  0  0  0  0  0  0  0  0  0  0  0
   38.1720   28.8090   42.1010 C   0  0  0  0  0  0  0  0  0  0  0  0
   38.1760   28.5050   43.4220 N   0  0  0  0  0  0  0  0  0  0  0  0
   37.7450   30.0030   41.4740 N   0  0  0  0  0  0  0  0  0  0  0  0
   36.4330   30.1730   41.1170 C   0  0  0  0  0  0  0  0  0  0  0  0
   36.2760   31.3790   40.5410 N   0  0  0  0  0  0  0  0  0  0  0  0
   37.4640   31.9880   40.5240 C   0  0  0  0  0  0  0  0  0  0  0  0
   37.9560   33.2170   40.0770 C   0  0  0  0  0  0  0  0  0  0  0  0
   39.2690   33.5040   40.2300 N   0  0  0  0  0  0  0  0  0  0  0  0
   40.1190   32.6400   40.8010 C   0  0  0  0  0  0  0  0  0  0  0  0
   39.6780   31.4290   41.2490 N   0  0  0  0  0  0  0  0  0  0  0  0
   38.3610   31.1150   41.1070 C   0  0  0  0  0  0  0  0  0  0  0  0
   36.9800   34.0470   39.4970 N   0  0  0  0  0  0  0  0  0  0  0  0
   38.5680   27.2050   44.9110 H   0  0  0  0  0  0  0  0  0  0  0  0
   39.4340   25.4110   43.3660 H   0  0  0  0  0  0  0  0  0  0  0  0
   39.4440   25.9330   40.9010 H   0  0  0  0  0  0  0  0  0  0  0  0
   35.5960   29.5000   41.2390 H   0  0  0  0  0  0  0  0  0  0  0  0
   36.6840   34.9990   39.8020 H   0  0  0  0  0  0  0  0  0  0  0  0
   36.4900   33.6610   38.6510 H   0  0  0  0  0  0  0  0  0  0  0  0
   41.5250   32.9380   40.9680 C   0  0  0  0  0  0  0  0  0  0  0  0
   42.1560   33.8160   40.0900 C   0  0  0  0  0  0  0  0  0  0  0  0
   43.4990   34.0660   40.2960 C   0  0  0  0  0  0  0  0  0  0  0  0
   44.2340   33.5090   41.2970 N   0  0  0  0  0  0  0  0  0  0  0  0
   43.5590   32.6610   42.1190 C   0  0  0  0  0  0  0  0  0  0  0  0
   43.9900   32.1360   42.9600 H   0  0  0  0  0  0  0  0  0  0  0  0
   42.2720   32.3990   41.9500 N   0  0  0  0  0  0  0  0  0  0  0  0
  1 17  1  0  0  0  0
  2 18  1  0  0  0  0
  2  1  2  0  0  0  0
  3  2  1  0  0  0  0
  4  3  2  0  0  0  0
  4  5  1  0  0  0  0
  5  6  2  0  0  0  0
  6  1  1  0  0  0  0
  7  5  1  0  0  0  0
  8 20  1  0  0  0  0
  8  7  1  0  0  0  0
  9  8  2  0  0  0  0
 10  9  1  0  0  0  0
 10 15  1  0  0  0  0
 11 12  1  0  0  0  0
 11 10  2  0  0  0  0
 12 13  2  0  0  0  0
 13 23  1  0  0  0  0
 13 14  1  0  0  0  0
 15 14  2  0  0  0  0
 15  7  1  0  0  0  0
 16 21  1  0  0  0  0
 16 11  1  0  0  0  0
 19  3  1  0  0  0  0
 22 16  1  0  0  0  0
 23 29  1  0  0  0  0
 24 25  1  0  0  0  0
 24 23  2  0  0  0  0
 25 26  2  0  0  0  0
 26 27  1  0  0  0  0
 27 28  1  0  0  0  0
 29 27  2  0  0  0  0
M  END
>  <minimizedAffinity>
-6.00975943

>  <minimizedRMSD>
1.24437582

$$$$
