
 OpenBabel03242506113D

 22 24  0  0  0  0  0  0  0  0999 V2000
   36.8500   29.9110   41.7410 C   0  0  0  0  0  0  0  0  0  0  0  0
   38.0840   29.4000   41.2790 C   0  0  0  0  0  0  0  0  0  0  0  0
   38.6260   30.0100   40.1730 C   0  0  0  0  0  0  0  0  0  0  0  0
   37.9980   31.0430   39.5700 N   0  0  0  0  0  0  0  0  0  0  0  0
   36.7980   31.5000   40.0630 C   0  0  0  0  0  0  0  0  0  0  0  0
   36.2290   30.9290   41.1500 N   0  0  0  0  0  0  0  0  0  0  0  0
   36.4140   29.4350   42.6130 H   0  0  0  0  0  0  0  0  0  0  0  0
   36.3300   32.3370   39.5430 H   0  0  0  0  0  0  0  0  0  0  0  0
   38.6800   28.2950   41.9850 C   0  0  0  0  0  0  0  0  0  0  0  0
   38.2210   26.9740   41.7250 C   0  0  0  0  0  0  0  0  0  0  0  0
   39.2380   25.8930   42.8310 S   0  0  0  0  0  0  0  0  0  0  0  0
   40.1260   27.4340   43.4690 C   0  0  0  0  0  0  0  0  0  0  0  0
   39.6240   28.2620   42.8840 N   0  0  0  0  0  0  0  0  0  0  0  0
   37.4420   26.4640   41.0600 H   0  0  0  0  0  0  0  0  0  0  0  0
   41.0120   27.7500   44.2670 H   0  0  0  0  0  0  0  0  0  0  0  0
   39.8910   29.5990   39.5930 C   0  0  0  0  0  0  0  0  0  0  0  0
   41.0520   30.2790   39.9820 C   0  0  0  0  0  0  0  0  0  0  0  0
   42.2200   29.8190   39.3640 C   0  0  0  0  0  0  0  0  0  0  0  0
   42.2500   28.8180   38.4740 N   0  0  0  0  0  0  0  0  0  0  0  0
   41.0930   28.1950   38.1330 C   0  0  0  0  0  0  0  0  0  0  0  0
   41.2310   27.4060   37.4100 H   0  0  0  0  0  0  0  0  0  0  0  0
   39.9260   28.5780   38.6840 N   0  0  0  0  0  0  0  0  0  0  0  0
  1  7  1  0  0  0  0
  2  1  1  0  0  0  0
  2  9  1  0  0  0  0
  3  2  2  0  0  0  0
  4  5  2  0  0  0  0
  4  3  1  0  0  0  0
  5  6  1  0  0  0  0
  6  1  2  0  0  0  0
  8  5  1  0  0  0  0
  9 13  1  0  0  0  0
 10  9  2  0  0  0  0
 10 11  1  0  0  0  0
 11 12  1  0  0  0  0
 12 15  1  0  0  0  0
 13 12  2  0  0  0  0
 14 10  1  0  0  0  0
 16 17  1  0  0  0  0
 16  3  1  0  0  0  0
 18 17  2  0  0  0  0
 19 18  1  0  0  0  0
 20 19  2  0  0  0  0
 20 22  1  0  0  0  0
 21 20  1  0  0  0  0
 22 16  2  0  0  0  0
M  END
>  <minimizedAffinity>
-3.40003633

>  <minimizedRMSD>
1.93513536

$$$$
