
 OpenBabel03242508363D

 36 39  0  0  0  0  0  0  0  0999 V2000
   36.7750   31.3000   40.2170 C   0  0  0  0  0  0  0  0  0  0  0  0
   36.8800   31.6150   38.8750 N   0  0  0  0  0  0  0  0  0  0  0  0
   37.7530   32.5840   38.7480 O   0  0  0  0  0  0  0  0  0  0  0  0
   38.1890   32.8790   39.9390 C   0  0  0  0  0  0  0  0  0  0  0  0
   37.6110   32.1100   40.8650 N   0  0  0  0  0  0  0  0  0  0  0  0
   39.1790   33.9140   40.2100 C   0  0  0  0  0  0  0  0  0  0  0  0
   39.0420   35.2750   40.0990 C   0  0  0  0  0  0  0  0  0  0  0  0
   40.1940   35.9180   40.4420 C   0  0  0  0  0  0  0  0  0  0  0  0
   41.0500   34.8790   40.7720 C   0  0  0  0  0  0  0  0  0  0  0  0
   40.4240   33.7730   40.6230 O   0  0  0  0  0  0  0  0  0  0  0  0
   38.1040   35.7470   39.7710 H   0  0  0  0  0  0  0  0  0  0  0  0
   40.4010   36.9670   40.4590 H   0  0  0  0  0  0  0  0  0  0  0  0
   42.4420   35.0460   41.2180 C   0  0  0  0  0  0  0  0  0  0  0  0
   42.7430   35.9110   42.2530 C   0  0  0  0  0  0  0  0  0  0  0  0
   44.0600   36.0410   42.6430 C   0  0  0  0  0  0  0  0  0  0  0  0
   45.0340   35.3280   42.0130 N   0  0  0  0  0  0  0  0  0  0  0  0
   44.7190   34.4880   41.0030 C   0  0  0  0  0  0  0  0  0  0  0  0
   45.5420   33.9390   40.5310 H   0  0  0  0  0  0  0  0  0  0  0  0
   43.4200   34.3580   40.6170 N   0  0  0  0  0  0  0  0  0  0  0  0
   35.9800   30.3380   40.8620 O   0  0  0  0  0  0  0  0  0  0  0  0
   37.7830   28.1790   43.1760 C   0  0  0  0  0  0  0  0  0  0  0  0
   37.6630   26.9640   42.4400 C   0  0  0  0  0  0  0  0  0  0  0  0
   36.9840   26.9930   41.2390 C   0  0  0  0  0  0  0  0  0  0  0  0
   36.4770   28.1730   40.8320 N   0  0  0  0  0  0  0  0  0  0  0  0
   36.5900   29.2990   41.5150 C   0  0  0  0  0  0  0  0  0  0  0  0
   37.2470   29.3150   42.7010 N   0  0  0  0  0  0  0  0  0  0  0  0
   38.2750   28.3340   44.1220 H   0  0  0  0  0  0  0  0  0  0  0  0
   38.1790   26.2210   43.0340 H   0  0  0  0  0  0  0  0  0  0  0  0
   36.9280   25.6970   40.6000 C   0  0  0  0  0  0  0  0  0  0  0  0
   35.9710   25.6720   39.9970 H   0  0  0  0  0  0  0  0  0  0  0  0
   37.7160   25.6570   39.7900 H   0  0  0  0  0  0  0  0  0  0  0  0
   36.9530   24.5220   41.4820 C   0  0  0  0  0  0  0  0  0  0  0  0
   37.3510   24.6100   42.4870 H   0  0  0  0  0  0  0  0  0  0  0  0
   35.8990   24.1210   41.6330 H   0  0  0  0  0  0  0  0  0  0  0  0
   37.8360   23.1150   40.7180 S   0  0  0  0  0  0  0  0  0  0  0  0
   38.8060   22.5720   41.5530 H   0  0  0  0  0  0  0  0  0  0  0  0
  1 20  1  0  0  0  0
  1  5  1  0  0  0  0
  2  1  2  0  0  0  0
  3  2  1  0  0  0  0
  3  4  1  0  0  0  0
  4  6  1  0  0  0  0
  4  5  2  0  0  0  0
  6 10  1  0  0  0  0
  7  6  2  0  0  0  0
  7  8  1  0  0  0  0
  8 12  1  0  0  0  0
  8  9  2  0  0  0  0
  9 13  1  0  0  0  0
 10  9  1  0  0  0  0
 11  7  1  0  0  0  0
 13 14  1  0  0  0  0
 14 15  2  0  0  0  0
 16 15  1  0  0  0  0
 17 16  2  0  0  0  0
 18 17  1  0  0  0  0
 19 17  1  0  0  0  0
 19 13  2  0  0  0  0
 20 25  1  0  0  0  0
 21 27  1  0  0  0  0
 22 28  1  0  0  0  0
 22 21  2  0  0  0  0
 23 22  1  0  0  0  0
 24 23  2  0  0  0  0
 24 25  1  0  0  0  0
 25 26  2  0  0  0  0
 26 21  1  0  0  0  0
 29 23  1  0  0  0  0
 29 32  1  0  0  0  0
 30 29  1  0  0  0  0
 31 29  1  0  0  0  0
 32 34  1  0  0  0  0
 32 33  1  0  0  0  0
 35 32  1  0  0  0  0
 35 36  1  0  0  0  0
M  END
>  <minimizedAffinity>
-6.21941042

>  <minimizedRMSD>
1.40751672

$$$$
