
 OpenBabel03242508523D

 31 34  0  0  0  0  0  0  0  0999 V2000
   38.5970   30.4460   41.0410 C   0  0  0  0  0  0  0  0  0  0  0  0
   39.2000   31.7050   41.1760 C   0  0  0  0  0  0  0  0  0  0  0  0
   39.0250   32.3550   40.0220 N   0  0  0  0  0  0  0  0  0  0  0  0
   38.3440   31.6050   39.1320 C   0  0  0  0  0  0  0  0  0  0  0  0
   37.9630   31.9070   37.8440 C   0  0  0  0  0  0  0  0  0  0  0  0
   37.2550   30.9180   37.1490 C   0  0  0  0  0  0  0  0  0  0  0  0
   36.9660   29.7100   37.7470 C   0  0  0  0  0  0  0  0  0  0  0  0
   37.3470   29.4040   39.0420 C   0  0  0  0  0  0  0  0  0  0  0  0
   38.0490   30.3710   39.7470 C   0  0  0  0  0  0  0  0  0  0  0  0
   39.6860   31.9720   42.1040 H   0  0  0  0  0  0  0  0  0  0  0  0
   38.1940   32.8460   37.3970 H   0  0  0  0  0  0  0  0  0  0  0  0
   36.9260   31.0730   36.1520 H   0  0  0  0  0  0  0  0  0  0  0  0
   36.4200   28.9450   37.2130 H   0  0  0  0  0  0  0  0  0  0  0  0
   37.1380   28.4730   39.5370 H   0  0  0  0  0  0  0  0  0  0  0  0
   39.5820   27.5970   43.1070 C   0  0  0  0  0  0  0  0  0  0  0  0
   38.4230   27.3820   43.9200 C   0  0  0  0  0  0  0  0  0  0  0  0
   37.3190   28.2400   43.7280 C   0  0  0  0  0  0  0  0  0  0  0  0
   37.4220   29.2130   42.7890 N   0  0  0  0  0  0  0  0  0  0  0  0
   38.5310   29.3870   42.0390 C   0  0  0  0  0  0  0  0  0  0  0  0
   39.6020   28.5830   42.2000 N   0  0  0  0  0  0  0  0  0  0  0  0
   40.4100   26.9300   43.2720 H   0  0  0  0  0  0  0  0  0  0  0  0
   38.3590   26.6020   44.6630 H   0  0  0  0  0  0  0  0  0  0  0  0
   36.4160   28.1620   44.2810 H   0  0  0  0  0  0  0  0  0  0  0  0
   39.5580   33.6710   39.9170 C   0  0  0  0  0  0  0  0  0  0  0  0
   38.6520   34.6870   40.2260 C   0  0  0  0  0  0  0  0  0  0  0  0
   39.0660   36.0120   40.1570 C   0  0  0  0  0  0  0  0  0  0  0  0
   38.3940   36.8310   40.3890 H   0  0  0  0  0  0  0  0  0  0  0  0
   40.3720   36.2400   39.7790 C   0  0  0  0  0  0  0  0  0  0  0  0
   41.3060   35.2740   39.4630 C   0  0  0  0  0  0  0  0  0  0  0  0
   42.3130   35.5170   39.1740 H   0  0  0  0  0  0  0  0  0  0  0  0
   40.8690   33.9680   39.5410 C   0  0  0  0  0  0  0  0  0  0  0  0
  1  2  2  0  0  0  0
  1 19  1  0  0  0  0
  2 10  1  0  0  0  0
  3  2  1  0  0  0  0
  4  9  1  0  0  0  0
  4  3  1  0  0  0  0
  5  4  2  0  0  0  0
  6  7  2  0  0  0  0
  6  5  1  0  0  0  0
  7  8  1  0  0  0  0
  8 14  1  0  0  0  0
  8  9  2  0  0  0  0
  9  1  1  0  0  0  0
 11  5  1  0  0  0  0
 12  6  1  0  0  0  0
 13  7  1  0  0  0  0
 15 21  1  0  0  0  0
 15 16  1  0  0  0  0
 16 22  1  0  0  0  0
 17 16  2  0  0  0  0
 17 23  1  0  0  0  0
 18 17  1  0  0  0  0
 19 20  1  0  0  0  0
 19 18  2  0  0  0  0
 20 15  2  0  0  0  0
 24  3  1  0  0  0  0
 24 25  1  0  0  0  0
 26 25  2  0  0  0  0
 26 27  1  0  0  0  0
 28 26  1  0  0  0  0
 29 31  1  0  0  0  0
 29 28  2  0  0  0  0
 30 29  1  0  0  0  0
 31 24  2  0  0  0  0
M  END
>  <minimizedAffinity>
-6.21461964

>  <minimizedRMSD>
5.96255827

$$$$
