
 OpenBabel03242509313D

 19 20  0  0  0  0  0  0  0  0999 V2000
   37.5070   28.4480   43.7700 C   0  0  0  0  0  0  0  0  0  0  0  0
   37.4080   27.0810   43.3780 C   0  0  0  0  0  0  0  0  0  0  0  0
   37.2660   26.7940   42.0190 C   0  0  0  0  0  0  0  0  0  0  0  0
   37.2300   27.8550   41.1250 N   0  0  0  0  0  0  0  0  0  0  0  0
   37.3280   29.1260   41.5520 C   0  0  0  0  0  0  0  0  0  0  0  0
   37.4640   29.4210   42.8420 N   0  0  0  0  0  0  0  0  0  0  0  0
   37.6150   28.6370   44.8270 H   0  0  0  0  0  0  0  0  0  0  0  0
   37.4330   26.2490   44.0520 H   0  0  0  0  0  0  0  0  0  0  0  0
   37.2770   30.1550   40.5200 C   0  0  0  0  0  0  0  0  0  0  0  0
   37.0840   29.7850   39.1860 C   0  0  0  0  0  3  0  0  0  0  0  0
   37.0390   30.7660   38.2220 C   0  0  0  0  0  3  0  0  0  0  0  0
   37.1870   32.1000   38.6090 C   0  0  0  0  0  0  0  0  0  0  0  0
   37.1600   32.9130   37.9000 H   0  0  0  0  0  0  0  0  0  0  0  0
   37.3790   32.4450   39.9450 C   0  0  0  0  0  3  0  0  0  0  0  0
   37.4200   31.4490   40.8770 N   0  0  0  0  0  0  0  0  0  0  0  0
   37.1600   25.3800   41.5780 C   0  0  0  0  0  0  0  0  0  0  0  0
   36.4680   25.4110   40.3820 F   0  0  0  0  0  0  0  0  0  0  0  0
   38.3720   24.8110   41.3530 F   0  0  0  0  0  0  0  0  0  0  0  0
   36.4360   24.6200   42.5040 F   0  0  0  0  0  0  0  0  0  0  0  0
  1  7  1  0  0  0  0
  2  1  1  0  0  0  0
  2  8  1  0  0  0  0
  3  2  2  0  0  0  0
  4  5  2  0  0  0  0
  4  3  1  0  0  0  0
  5  6  1  0  0  0  0
  6  1  2  0  0  0  0
  9 15  1  0  0  0  0
  9  5  1  0  0  0  0
 10  9  2  0  0  0  0
 11 12  2  0  0  0  0
 11 10  1  0  0  0  0
 12 14  1  0  0  0  0
 13 12  1  0  0  0  0
 14 15  2  0  0  0  0
 16  3  1  0  0  0  0
 16 19  1  0  0  0  0
 17 16  1  0  0  0  0
 18 16  1  0  0  0  0
M  END
>  <minimizedAffinity>
-4.76581669

>  <minimizedRMSD>
1.57576621

$$$$
