
 OpenBabel03242508453D

 34 37  0  0  1  0  0  0  0  0999 V2000
   37.9760   27.3800   42.7530 C   0  0  2  0  0  0  0  0  0  0  0  0
   39.0770   27.6660   43.6820 C   0  0  0  0  0  0  0  0  0  0  0  0
   39.7970   26.3440   43.8590 C   0  0  0  0  0  0  0  0  0  0  0  0
   39.3310   25.4660   42.7410 C   0  0  0  0  0  0  0  0  0  0  0  0
   38.5670   26.3790   41.7780 C   0  0  1  0  0  0  0  0  0  0  0  0
   37.1700   26.7900   43.2840 H   0  0  0  0  0  0  0  0  0  0  0  0
   39.8430   28.3510   43.2690 H   0  0  0  0  0  0  0  0  0  0  0  0
   38.7500   28.0640   44.6720 H   0  0  0  0  0  0  0  0  0  0  0  0
   40.9010   26.4350   43.8020 H   0  0  0  0  0  0  0  0  0  0  0  0
   39.5860   25.9080   44.8730 H   0  0  0  0  0  0  0  0  0  0  0  0
   38.6620   24.7070   43.1970 H   0  0  0  0  0  0  0  0  0  0  0  0
   40.1640   24.9380   42.2260 H   0  0  0  0  0  0  0  0  0  0  0  0
   39.2070   26.8390   41.0320 H   0  0  0  0  0  0  0  0  0  0  0  0
   38.0320   29.7830   41.9230 C   0  0  0  0  0  0  0  0  0  0  0  0
   37.3890   28.5230   42.0720 C   0  0  0  0  0  0  0  0  0  0  0  0
   36.1260   28.3550   41.5330 C   0  0  0  0  0  0  0  0  0  0  0  0
   35.5520   29.4190   40.8780 N   0  0  0  0  0  0  0  0  0  0  0  0
   36.1960   30.6310   40.7480 C   0  0  0  0  0  0  0  0  0  0  0  0
   37.4560   30.7970   41.2850 N   0  0  0  0  0  0  0  0  0  0  0  0
   39.0160   29.9160   42.3410 H   0  0  0  0  0  0  0  0  0  0  0  0
   35.5260   27.4700   41.5660 H   0  0  0  0  0  0  0  0  0  0  0  0
   35.7050   31.4260   40.2290 H   0  0  0  0  0  0  0  0  0  0  0  0
   37.5600   25.4410   41.2040 C   0  0  0  0  0  0  0  0  0  0  0  0
   36.9000   24.5360   41.9470 N   0  0  0  0  0  0  0  0  0  0  0  0
   36.1020   23.8780   41.1350 O   0  0  0  0  0  0  0  0  0  0  0  0
   36.2530   24.3530   39.9150 C   0  0  0  0  0  0  0  0  0  0  0  0
   37.1560   25.3320   39.9170 N   0  0  0  0  0  0  0  0  0  0  0  0
   35.5170   23.8500   38.7580 C   0  0  0  0  0  0  0  0  0  0  0  0
   34.4470   22.9810   38.9690 C   0  0  0  0  0  0  0  0  0  0  0  0
   33.7220   22.4810   37.8870 C   0  0  0  0  0  0  0  0  0  0  0  0
   34.1820   22.9360   36.6680 C   0  0  0  0  0  0  0  0  0  0  0  0
   33.6380   22.5660   35.7860 H   0  0  0  0  0  0  0  0  0  0  0  0
   35.2200   23.7820   36.4140 C   0  0  0  0  0  0  0  0  0  0  0  0
   35.8870   24.2360   37.5130 N   0  0  0  0  0  0  0  0  0  0  0  0
  1  6  1  1  0  0  0
  1  2  1  0  0  0  0
  2  3  1  0  0  0  0
  2  8  1  0  0  0  0
  3 10  1  0  0  0  0
  4 11  1  0  0  0  0
  4  3  1  0  0  0  0
  5 13  1  6  0  0  0
  5  4  1  0  0  0  0
  5  1  1  0  0  0  0
  7  2  1  0  0  0  0
  9  3  1  0  0  0  0
 12  4  1  0  0  0  0
 14 15  1  0  0  0  0
 14 20  1  0  0  0  0
 15  1  1  0  0  0  0
 16 21  1  0  0  0  0
 16 15  2  0  0  0  0
 17 16  1  0  0  0  0
 18 17  2  0  0  0  0
 18 19  1  0  0  0  0
 19 14  2  0  0  0  0
 22 18  1  0  0  0  0
 23  5  1  0  0  0  0
 23 24  2  0  0  0  0
 25 24  1  0  0  0  0
 26 27  2  0  0  0  0
 26 25  1  0  0  0  0
 27 23  1  0  0  0  0
 28 29  1  0  0  0  0
 28 26  1  0  0  0  0
 30 29  2  0  0  0  0
 31 30  1  0  0  0  0
 32 31  1  0  0  0  0
 33 31  2  0  0  0  0
 33 34  1  0  0  0  0
 34 28  2  0  0  0  0
M  END
>  <minimizedAffinity>
-4.98772478

>  <minimizedRMSD>
0.592993021

$$$$
