REMARK  Name = 
REMARK  2 active torsions:
REMARK  status: ('A' for Active; 'I' for Inactive)
REMARK    1  A    between atoms: C_3  and  C_7
REMARK    2  A    between atoms: C_5  and  C_13
REMARK                            x       y       z     vdW  Elec       q    Type
REMARK                         _______ _______ _______ _____ _____    ______ ____
ROOT
ATOM      1  C   UNL     1      37.977  28.890  43.373  0.00  0.00    +0.000 A 
ATOM      2  C   UNL     1      38.087  27.470  43.303  0.00  0.00    +0.000 A 
ATOM      3  C   UNL     1      37.440  26.810  42.256  0.00  0.00    +0.000 A 
ATOM      4  N   UNL     1      36.726  27.573  41.342  0.00  0.00    +0.000 NA
ATOM      5  C   UNL     1      36.657  28.910  41.458  0.00  0.00    +0.000 A 
ATOM      6  N   UNL     1      37.266  29.558  42.447  0.00  0.00    +0.000 NA
ATOM      7  H   UNL     1      38.488  29.370  44.194  0.00  0.00    +0.000 HD
ATOM      8  H   UNL     1      38.632  26.865  43.998  0.00  0.00    +0.000 HD
ENDROOT
BRANCH   5   9
ATOM      9  C   UNL     1      35.878  29.603  40.438  0.00  0.00    +0.000 A 
ATOM     10  C   UNL     1      35.013  28.874  39.619  0.00  0.00    +0.000 A 
ATOM     11  C   UNL     1      34.283  29.541  38.660  0.00  0.00    +0.000 A 
ATOM     12  C   UNL     1      34.434  30.924  38.538  0.00  0.00    +0.000 A 
ATOM     13  H   UNL     1      33.890  31.501  37.806  0.00  0.00    +0.000 HD
ATOM     14  C   UNL     1      35.303  31.629  39.366  0.00  0.00    +0.000 A 
ATOM     15  N   UNL     1      36.012  30.940  40.307  0.00  0.00    +0.000 NA
ENDBRANCH   5   9
BRANCH   3  16
ATOM     16  C   UNL     1      37.535  25.332  42.155  0.00  0.00    +0.000 C 
ATOM     17  F   UNL     1      37.663  25.056  40.806  0.00  0.00    +0.000 F 
ATOM     18  F   UNL     1      38.624  24.834  42.795  0.00  0.00    +0.000 F 
ATOM     19  F   UNL     1      36.372  24.721  42.637  0.00  0.00    +0.000 F 
ENDBRANCH   3  16
TORSDOF 2
