
 OpenBabel03242508153D

 46 50  0  0  1  0  0  0  0  0999 V2000
   38.8710   35.5850   40.1180 C   0  0  0  0  0  0  0  0  0  0  0  0
   40.1970   35.9890   40.3130 C   0  0  0  0  0  0  0  0  0  0  0  0
   41.1270   34.9690   40.6200 C   0  0  0  0  0  0  0  0  0  0  0  0
   40.6450   33.7440   40.6890 N   0  0  0  0  0  0  0  0  0  0  0  0
   39.4120   33.3210   40.5130 C   0  0  0  0  0  0  0  0  0  0  0  0
   38.5500   34.3020   40.2250 N   0  0  0  0  0  0  0  0  0  0  0  0
   38.1860   36.3830   39.8860 H   0  0  0  0  0  0  0  0  0  0  0  0
   40.5960   36.9930   40.2560 H   0  0  0  0  0  0  0  0  0  0  0  0
   38.7750   32.0190   40.5670 C   0  0  0  0  0  0  0  0  0  0  0  0
   38.6900   31.2760   41.6920 N   0  0  0  0  0  0  0  0  0  0  0  0
   38.1170   30.0860   41.7800 C   0  0  0  0  0  0  0  0  0  0  0  0
   37.5670   29.5210   40.7250 N   0  0  0  0  0  0  0  0  0  0  0  0
   37.5840   30.1630   39.5310 C   0  0  0  0  0  0  0  0  0  0  0  0
   37.0080   29.5790   38.4160 C   0  0  0  0  0  0  0  0  0  0  0  0
   37.0100   30.1950   37.2130 C   0  0  0  0  0  0  0  0  0  0  0  0
   37.6220   31.4710   37.1170 C   0  0  0  0  0  0  0  0  0  0  0  0
   38.1750   31.9910   38.2650 C   0  0  0  0  0  0  0  0  0  0  0  0
   38.1910   31.4000   39.4850 C   0  0  0  0  0  0  0  0  0  0  0  0
   38.1260   29.6090   42.7510 H   0  0  0  0  0  0  0  0  0  0  0  0
   36.5540   28.6010   38.5510 H   0  0  0  0  0  0  0  0  0  0  0  0
   36.5610   29.7500   36.3300 H   0  0  0  0  0  0  0  0  0  0  0  0
   37.6570   32.0150   36.1870 H   0  0  0  0  0  0  0  0  0  0  0  0
   38.6440   32.9810   38.1600 H   0  0  0  0  0  0  0  0  0  0  0  0
   42.4010   35.2430   40.8250 O   0  0  0  0  0  0  0  0  0  0  0  0
   43.0740   35.1130   42.0650 C   0  0  2  0  0  0  0  0  0  0  0  0
   42.5750   34.4070   42.7480 H   0  0  0  0  0  0  0  0  0  0  0  0
   42.8280   36.4990   42.7790 C   0  0  0  0  0  0  0  0  0  0  0  0
   43.6500   37.1450   42.3840 H   0  0  0  0  0  0  0  0  0  0  0  0
   41.8240   36.8540   42.5130 H   0  0  0  0  0  0  0  0  0  0  0  0
   43.0260   36.3390   43.8390 H   0  0  0  0  0  0  0  0  0  0  0  0
   44.5360   34.9250   41.8940 C   0  0  0  0  0  0  0  0  0  0  0  0
   44.9940   35.9270   41.8070 H   0  0  0  0  0  0  0  0  0  0  0  0
   44.7240   34.2980   40.9960 H   0  0  0  0  0  0  0  0  0  0  0  0
   45.0330   34.2550   43.0870 N   0  0  0  0  0  0  0  0  0  0  0  0
   46.1360   34.6540   43.7790 C   0  0  0  0  0  0  0  0  0  0  0  0
   46.3200   33.8150   44.8310 N   0  0  0  0  0  0  0  0  0  0  0  0
   45.3220   32.9030   44.7770 C   0  0  0  0  0  0  0  0  0  0  0  0
   44.5420   33.1950   43.6950 N   0  0  0  0  0  0  0  0  0  0  0  0
   46.8010   35.4890   43.5800 H   0  0  0  0  0  0  0  0  0  0  0  0
   44.8450   31.7260   45.5180 C   0  0  0  0  0  0  0  0  0  0  0  0
   44.4460   30.5730   44.8310 C   0  0  0  0  0  0  0  0  0  0  0  0
   44.0050   29.4980   45.6050 C   0  0  0  0  0  0  0  0  0  0  0  0
   43.9880   29.6320   46.9900 C   0  0  0  0  0  0  0  0  0  0  0  0
   43.6380   28.7760   47.5750 H   0  0  0  0  0  0  0  0  0  0  0  0
   44.3880   30.7850   47.6360 C   0  0  0  0  0  0  0  0  0  0  0  0
   44.8090   31.8100   46.8780 N   0  0  0  0  0  0  0  0  0  0  0  0
  1  6  2  0  0  0  0
  1  2  1  0  0  0  0
  2  3  2  0  0  0  0
  3  4  1  0  0  0  0
  3 24  1  0  0  0  0
  5  9  1  0  0  0  0
  5  4  2  0  0  0  0
  6  5  1  0  0  0  0
  7  1  1  0  0  0  0
  8  2  1  0  0  0  0
  9 10  1  0  0  0  0
 10 11  2  0  0  0  0
 11 19  1  0  0  0  0
 12 11  1  0  0  0  0
 13 12  2  0  0  0  0
 14 20  1  0  0  0  0
 14 13  1  0  0  0  0
 15 14  2  0  0  0  0
 16 15  1  0  0  0  0
 16 17  2  0  0  0  0
 17 18  1  0  0  0  0
 18 13  1  0  0  0  0
 18  9  2  0  0  0  0
 21 15  1  0  0  0  0
 22 16  1  0  0  0  0
 23 17  1  0  0  0  0
 24 25  1  0  0  0  0
 25 26  1  1  0  0  0
 25 27  1  0  0  0  0
 27 30  1  0  0  0  0
 28 27  1  0  0  0  0
 29 27  1  0  0  0  0
 31 25  1  0  0  0  0
 31 34  1  0  0  0  0
 32 31  1  0  0  0  0
 33 31  1  0  0  0  0
 34 38  1  0  0  0  0
 34 35  1  0  0  0  0
 35 36  2  0  0  0  0
 37 36  1  0  0  0  0
 37 40  1  0  0  0  0
 38 37  2  0  0  0  0
 39 35  1  0  0  0  0
 40 46  1  0  0  0  0
 41 40  2  0  0  0  0
 41 42  1  0  0  0  0
 42 43  2  0  0  0  0
 43 44  1  0  0  0  0
 43 45  1  0  0  0  0
 46 45  2  0  0  0  0
M  END
>  <minimizedAffinity>
-6.89507103

>  <minimizedRMSD>
0.36817807

$$$$
