
 OpenBabel03242507503D

 38 42  0  0  1  0  0  0  0  0999 V2000
   39.7920   26.2570   43.8330 C   0  0  2  0  0  0  0  0  0  0  0  0
   40.8880   25.7850   42.8690 C   0  0  0  0  0  0  0  0  0  0  0  0
   39.6450   24.9840   43.0490 C   0  0  2  0  0  0  0  0  0  0  0  0
   40.0950   26.2330   44.8930 H   0  0  0  0  0  0  0  0  0  0  0  0
   41.8000   25.3410   43.3210 H   0  0  0  0  0  0  0  0  0  0  0  0
   41.0490   26.3640   41.9560 H   0  0  0  0  0  0  0  0  0  0  0  0
   39.6270   24.0990   43.7340 H   0  0  0  0  0  0  0  0  0  0  0  0
   38.6200   24.9000   41.9850 C   0  0  0  0  0  0  0  0  0  0  0  0
   37.5170   24.0810   42.1610 C   0  0  0  0  0  0  0  0  0  0  0  0
   36.6550   24.0750   41.0960 C   0  0  0  0  0  0  0  0  0  0  0  0
   36.7840   24.7610   39.9550 N   0  0  0  0  0  0  0  0  0  0  0  0
   37.8750   25.5450   39.8310 C   0  0  0  0  0  0  0  0  0  0  0  0
   38.7640   25.6030   40.8330 N   0  0  0  0  0  0  0  0  0  0  0  0
   37.3450   23.4970   43.0530 H   0  0  0  0  0  0  0  0  0  0  0  0
   35.7440   23.4550   41.1300 H   0  0  0  0  0  0  0  0  0  0  0  0
   38.1120   26.3380   38.6230 C   0  0  0  0  0  0  0  0  0  0  0  0
   38.5200   25.6750   37.4750 C   0  0  0  0  0  0  0  0  0  0  0  0
   38.7640   26.3300   36.3040 C   0  0  0  0  0  0  0  0  0  0  0  0
   38.5970   27.6960   36.2690 C   0  0  0  0  0  0  0  0  0  0  0  0
   38.7660   28.2880   35.3930 H   0  0  0  0  0  0  0  0  0  0  0  0
   38.1860   28.3380   37.4370 C   0  0  0  0  0  0  0  0  0  0  0  0
   37.9550   27.6650   38.5710 N   0  0  0  0  0  0  0  0  0  0  0  0
   38.4660   29.3230   42.5340 C   0  0  0  0  0  0  0  0  0  0  0  0
   37.4140   28.9170   43.3680 C   0  0  0  0  0  0  0  0  0  0  0  0
   37.8230   27.7200   43.9320 C   0  0  0  0  0  0  0  0  0  0  0  0
   39.0470   27.4430   43.4540 N   0  0  0  0  0  0  0  0  0  0  0  0
   39.4380   28.4000   42.6160 N   0  0  0  0  0  0  0  0  0  0  0  0
   36.4770   29.3990   43.5570 H   0  0  0  0  0  0  0  0  0  0  0  0
   37.2530   27.1260   44.6290 H   0  0  0  0  0  0  0  0  0  0  0  0
   37.1470   31.9660   40.3630 C   0  0  0  0  0  0  0  0  0  0  0  0
   38.1950   32.8930   40.3200 C   0  0  0  0  0  0  0  0  0  0  0  0
   39.3610   32.6000   41.0470 C   0  0  0  0  0  0  0  0  0  0  0  0
   39.4240   31.4430   41.7520 N   0  0  0  0  0  0  0  0  0  0  0  0
   38.3790   30.5620   41.7700 C   0  0  0  0  0  0  0  0  0  0  0  0
   37.2290   30.8250   41.0680 N   0  0  0  0  0  0  0  0  0  0  0  0
   36.2800   32.2520   39.7830 H   0  0  0  0  0  0  0  0  0  0  0  0
   38.1710   33.8180   39.7680 H   0  0  0  0  0  0  0  0  0  0  0  0
   40.2270   33.2190   41.0970 H   0  0  0  0  0  0  0  0  0  0  0  0
  1  4  1  1  0  0  0
  2  3  1  0  0  0  0
  2  5  1  0  0  0  0
  2  1  1  0  0  0  0
  3  7  1  1  0  0  0
  3  1  1  0  0  0  0
  6  2  1  0  0  0  0
  8  9  1  0  0  0  0
  8  3  1  0  0  0  0
  9 14  1  0  0  0  0
 10 15  1  0  0  0  0
 10  9  2  0  0  0  0
 11 10  1  0  0  0  0
 12 11  2  0  0  0  0
 12 13  1  0  0  0  0
 13  8  2  0  0  0  0
 16 12  1  0  0  0  0
 17 16  2  0  0  0  0
 18 17  1  0  0  0  0
 19 18  2  0  0  0  0
 19 21  1  0  0  0  0
 20 19  1  0  0  0  0
 21 22  2  0  0  0  0
 22 16  1  0  0  0  0
 23 27  2  0  0  0  0
 23 24  1  0  0  0  0
 24 28  1  0  0  0  0
 24 25  2  0  0  0  0
 25 29  1  0  0  0  0
 26  1  1  0  0  0  0
 26 25  1  0  0  0  0
 27 26  1  0  0  0  0
 30 35  1  0  0  0  0
 31 30  2  0  0  0  0
 31 32  1  0  0  0  0
 32 38  1  0  0  0  0
 32 33  2  0  0  0  0
 33 34  1  0  0  0  0
 34 23  1  0  0  0  0
 35 34  2  0  0  0  0
 36 30  1  0  0  0  0
 37 31  1  0  0  0  0
M  END
>  <minimizedAffinity>
-5.63920689

>  <minimizedRMSD>
0.745147526

$$$$
