
 OpenBabel03242509193D

 24 26  0  0  0  0  0  0  0  0999 V2000
   41.5600   27.1830   43.6310 C   0  0  0  0  0  0  0  0  0  0  0  0
   42.3810   28.1240   43.0940 C   0  0  0  0  0  0  0  0  0  0  0  0
   43.2290   28.5690   44.1060 C   0  0  0  0  0  0  0  0  0  0  0  0
   42.8550   27.8580   45.1950 N   0  0  0  0  0  0  0  0  0  0  0  0
   41.8830   27.0440   44.9370 N   0  0  0  0  0  0  0  0  0  0  0  0
   42.3870   28.4770   42.0580 H   0  0  0  0  0  0  0  0  0  0  0  0
   44.0030   29.3210   44.0030 H   0  0  0  0  0  0  0  0  0  0  0  0
   38.2420   25.9010   42.5110 C   0  0  0  0  0  0  0  0  0  0  0  0
   39.1890   26.6440   43.2370 C   0  0  0  0  0  0  0  0  0  0  0  0
   40.5270   26.4610   42.9330 C   0  0  0  0  0  0  0  0  0  0  0  0
   40.8810   25.5740   41.9480 N   0  0  0  0  0  0  0  0  0  0  0  0
   39.9370   24.8800   41.2760 C   0  0  0  0  0  0  0  0  0  0  0  0
   38.6140   25.0420   41.5560 N   0  0  0  0  0  0  0  0  0  0  0  0
   37.1950   26.0290   42.7310 H   0  0  0  0  0  0  0  0  0  0  0  0
   38.8950   27.3440   44.0140 H   0  0  0  0  0  0  0  0  0  0  0  0
   40.3710   24.2130   40.5230 H   0  0  0  0  0  0  0  0  0  0  0  0
   43.5110   28.0380   46.4680 C   0  0  0  0  0  0  0  0  0  0  0  0
   43.6980   27.1180   47.4570 C   0  0  0  0  0  0  0  0  0  0  0  0
   44.3600   27.5120   48.6040 C   0  0  0  0  0  0  0  0  0  0  0  0
   44.4820   26.7340   49.3660 H   0  0  0  0  0  0  0  0  0  0  0  0
   44.8270   28.8000   48.7620 C   0  0  0  0  0  0  0  0  0  0  0  0
   44.6330   29.7330   47.7510 C   0  0  0  0  0  0  0  0  0  0  0  0
   45.0160   30.7500   47.9060 H   0  0  0  0  0  0  0  0  0  0  0  0
   43.9770   29.3450   46.6120 C   0  0  0  0  0  0  0  0  0  0  0  0
  1  5  2  0  0  0  0
  2  1  1  0  0  0  0
  2  3  2  0  0  0  0
  3  4  1  0  0  0  0
  4 17  1  0  0  0  0
  5  4  1  0  0  0  0
  6  2  1  0  0  0  0
  7  3  1  0  0  0  0
  8 14  1  0  0  0  0
  8  9  1  0  0  0  0
  9 15  1  0  0  0  0
 10  9  2  0  0  0  0
 10  1  1  0  0  0  0
 11 10  1  0  0  0  0
 12 13  1  0  0  0  0
 12 11  2  0  0  0  0
 13  8  2  0  0  0  0
 16 12  1  0  0  0  0
 17 24  2  0  0  0  0
 17 18  1  0  0  0  0
 18 19  2  0  0  0  0
 19 21  1  0  0  0  0
 19 20  1  0  0  0  0
 22 23  1  0  0  0  0
 22 21  2  0  0  0  0
 24 22  1  0  0  0  0
M  END
>  <minimizedAffinity>
-4.09979725

>  <minimizedRMSD>
5.10564232

$$$$
