
 OpenBabel03242508273D

 22 24  0  0  0  0  0  0  0  0999 V2000
   36.8180   31.3050   40.3650 C   0  0  0  0  0  0  0  0  0  0  0  0
   36.8120   31.3950   39.0130 N   0  0  0  0  0  0  0  0  0  0  0  0
   37.6250   32.3710   38.6530 O   0  0  0  0  0  0  0  0  0  0  0  0
   38.1350   32.8880   39.7480 C   0  0  0  0  0  0  0  0  0  0  0  0
   37.6560   32.2510   40.8220 N   0  0  0  0  0  0  0  0  0  0  0  0
   39.0960   34.0100   39.7630 C   0  0  0  0  0  0  0  0  0  0  0  0
   40.4160   33.7260   39.3970 C   0  0  0  0  0  0  0  0  0  0  0  0
   41.2530   34.8240   39.4370 C   0  0  0  0  0  0  0  0  0  0  0  0
   40.8390   36.0900   39.8010 C   0  0  0  0  0  0  0  0  0  0  0  0
   41.6320   36.8360   39.7760 H   0  0  0  0  0  0  0  0  0  0  0  0
   39.5170   36.2750   40.1470 C   0  0  0  0  0  0  0  0  0  0  0  0
   38.6730   35.2360   40.1210 N   0  0  0  0  0  0  0  0  0  0  0  0
   36.1420   30.4530   41.2190 O   0  0  0  0  0  0  0  0  0  0  0  0
   38.1570   28.2070   43.2430 C   0  0  0  0  0  0  0  0  0  0  0  0
   37.8820   26.9900   42.6010 C   0  0  0  0  0  0  0  0  0  0  0  0
   36.9970   27.0330   41.4850 C   0  0  0  0  0  0  0  0  0  0  0  0
   36.4910   28.2430   41.1330 N   0  0  0  0  0  0  0  0  0  0  0  0
   36.7800   29.3720   41.7720 C   0  0  0  0  0  0  0  0  0  0  0  0
   37.6180   29.3690   42.8380 N   0  0  0  0  0  0  0  0  0  0  0  0
   38.8300   28.1680   44.0900 H   0  0  0  0  0  0  0  0  0  0  0  0
   38.3110   26.0670   42.9260 H   0  0  0  0  0  0  0  0  0  0  0  0
   36.7700   26.1140   40.9740 H   0  0  0  0  0  0  0  0  0  0  0  0
  1  5  1  0  0  0  0
  1 13  1  0  0  0  0
  2  1  2  0  0  0  0
  3  2  1  0  0  0  0
  3  4  1  0  0  0  0
  4  6  1  0  0  0  0
  4  5  2  0  0  0  0
  6 12  1  0  0  0  0
  7  8  1  0  0  0  0
  7  6  2  0  0  0  0
  8  9  2  0  0  0  0
  9 11  1  0  0  0  0
 10  9  1  0  0  0  0
 12 11  2  0  0  0  0
 13 18  1  0  0  0  0
 14 20  1  0  0  0  0
 15 21  1  0  0  0  0
 15 14  2  0  0  0  0
 16 15  1  0  0  0  0
 17 16  2  0  0  0  0
 17 18  1  0  0  0  0
 18 19  2  0  0  0  0
 19 14  1  0  0  0  0
 22 16  1  0  0  0  0
M  END
>  <minimizedAffinity>
-5.22528505

>  <minimizedRMSD>
1.36578953

$$$$
