
 OpenBabel03242509323D

 19 20  0  0  0  0  0  0  0  0999 V2000
   37.9760   28.5370   43.4750 C   0  0  0  0  0  0  0  0  0  0  0  0
   38.6110   27.2670   43.6040 C   0  0  0  0  0  0  0  0  0  0  0  0
   38.3640   26.3050   42.6220 C   0  0  0  0  0  0  0  0  0  0  0  0
   37.5150   26.6380   41.5760 N   0  0  0  0  0  0  0  0  0  0  0  0
   36.9430   27.8530   41.5070 C   0  0  0  0  0  0  0  0  0  0  0  0
   37.1650   28.7830   42.4300 N   0  0  0  0  0  0  0  0  0  0  0  0
   38.1870   29.2590   44.2500 H   0  0  0  0  0  0  0  0  0  0  0  0
   39.2690   26.9920   44.4020 H   0  0  0  0  0  0  0  0  0  0  0  0
   36.0700   28.0860   40.3620 C   0  0  0  0  0  0  0  0  0  0  0  0
   35.0770   29.0650   40.4410 C   0  0  0  0  0  3  0  0  0  0  0  0
   34.2590   29.2740   39.3530 C   0  0  0  0  0  3  0  0  0  0  0  0
   34.4510   28.5010   38.2050 C   0  0  0  0  0  0  0  0  0  0  0  0
   33.8440   28.6190   37.3210 H   0  0  0  0  0  0  0  0  0  0  0  0
   35.4490   27.5310   38.1500 C   0  0  0  0  0  3  0  0  0  0  0  0
   36.2430   27.3470   39.2440 N   0  0  0  0  0  0  0  0  0  0  0  0
   39.0110   24.9720   42.7270 C   0  0  0  0  0  0  0  0  0  0  0  0
   39.8440   24.8720   41.6280 F   0  0  0  0  0  0  0  0  0  0  0  0
   39.7690   24.8470   43.8470 F   0  0  0  0  0  0  0  0  0  0  0  0
   38.0590   23.9480   42.6730 F   0  0  0  0  0  0  0  0  0  0  0  0
  1  2  1  0  0  0  0
  1  7  1  0  0  0  0
  2  8  1  0  0  0  0
  3 16  1  0  0  0  0
  3  2  2  0  0  0  0
  4  3  1  0  0  0  0
  5  4  2  0  0  0  0
  5  6  1  0  0  0  0
  6  1  2  0  0  0  0
  9 10  1  0  0  0  0
  9  5  1  0  0  0  0
 11 10  2  0  0  0  0
 12 11  1  0  0  0  0
 13 12  1  0  0  0  0
 14 12  2  0  0  0  0
 14 15  1  0  0  0  0
 15  9  2  0  0  0  0
 16 18  1  0  0  0  0
 17 16  1  0  0  0  0
 19 16  1  0  0  0  0
M  END
>  <minimizedAffinity>
-4.66408443

>  <minimizedRMSD>
1.64190924

$$$$
