
 OpenBabel03242508363D

 36 39  0  0  0  0  0  0  0  0999 V2000
   36.8120   31.3190   40.2300 C   0  0  0  0  0  0  0  0  0  0  0  0
   36.9170   31.6430   38.9010 N   0  0  0  0  0  0  0  0  0  0  0  0
   37.7990   32.6120   38.7760 O   0  0  0  0  0  0  0  0  0  0  0  0
   38.2370   32.8930   39.9940 C   0  0  0  0  0  0  0  0  0  0  0  0
   37.6520   32.1180   40.8950 N   0  0  0  0  0  0  0  0  0  0  0  0
   39.2320   33.9210   40.2590 C   0  0  0  0  0  0  0  0  0  0  0  0
   39.0730   35.2860   40.1280 C   0  0  0  0  0  0  0  0  0  0  0  0
   40.2480   35.9140   40.4750 C   0  0  0  0  0  0  0  0  0  0  0  0
   41.1060   34.8960   40.8160 C   0  0  0  0  0  0  0  0  0  0  0  0
   40.4750   33.7740   40.6740 O   0  0  0  0  0  0  0  0  0  0  0  0
   38.1590   35.7980   39.7990 H   0  0  0  0  0  0  0  0  0  0  0  0
   40.4380   36.9880   40.4750 H   0  0  0  0  0  0  0  0  0  0  0  0
   42.4900   35.0680   41.2580 C   0  0  0  0  0  0  0  0  0  0  0  0
   42.7940   35.9330   42.2870 C   0  0  0  0  0  0  0  0  0  0  0  0
   44.1040   36.1120   42.7250 C   0  0  0  0  0  0  0  0  0  0  0  0
   45.0280   35.3630   42.0490 C   0  0  0  0  0  0  0  0  0  0  0  0
   46.0790   35.4650   42.3530 H   0  0  0  0  0  0  0  0  0  0  0  0
   44.7710   34.4860   41.0160 C   0  0  0  0  0  0  0  0  0  0  0  0
   43.4770   34.3650   40.6460 N   0  0  0  0  0  0  0  0  0  0  0  0
   36.0100   30.3560   40.8620 O   0  0  0  0  0  0  0  0  0  0  0  0
   37.7830   28.1790   43.1790 C   0  0  0  0  0  0  0  0  0  0  0  0
   37.6570   26.9560   42.4430 C   0  0  0  0  0  0  0  0  0  0  0  0
   36.9840   26.9930   41.2380 C   0  0  0  0  0  0  0  0  0  0  0  0
   36.4860   28.1810   40.8270 N   0  0  0  0  0  0  0  0  0  0  0  0
   36.6070   29.3050   41.5110 C   0  0  0  0  0  0  0  0  0  0  0  0
   37.2550   29.3250   42.6960 N   0  0  0  0  0  0  0  0  0  0  0  0
   38.2760   28.3100   44.1290 H   0  0  0  0  0  0  0  0  0  0  0  0
   38.1580   26.2000   43.0290 H   0  0  0  0  0  0  0  0  0  0  0  0
   36.9270   25.7010   40.5970 C   0  0  0  0  0  0  0  0  0  0  0  0
   37.8220   25.6230   39.9120 H   0  0  0  0  0  0  0  0  0  0  0  0
   36.0570   25.6980   39.8870 H   0  0  0  0  0  0  0  0  0  0  0  0
   36.9520   24.5260   41.4860 C   0  0  0  0  0  0  0  0  0  0  0  0
   37.2610   24.6560   42.5170 H   0  0  0  0  0  0  0  0  0  0  0  0
   35.8810   24.1510   41.5530 H   0  0  0  0  0  0  0  0  0  0  0  0
   37.8360   23.1190   40.7190 S   0  0  0  0  0  0  0  0  0  0  0  0
   39.2190   23.4150   40.8870 H   0  0  0  0  0  0  0  0  0  0  0  0
  1 20  1  0  0  0  0
  1  5  1  0  0  0  0
  2  1  2  0  0  0  0
  3  2  1  0  0  0  0
  3  4  1  0  0  0  0
  4  6  1  0  0  0  0
  4  5  2  0  0  0  0
  6 10  1  0  0  0  0
  7  6  2  0  0  0  0
  7  8  1  0  0  0  0
  8 12  1  0  0  0  0
  8  9  2  0  0  0  0
  9 13  1  0  0  0  0
 10  9  1  0  0  0  0
 11  7  1  0  0  0  0
 13 14  1  0  0  0  0
 14 15  2  0  0  0  0
 16 17  1  0  0  0  0
 16 15  1  0  0  0  0
 18 16  2  0  0  0  0
 19 18  1  0  0  0  0
 19 13  2  0  0  0  0
 20 25  1  0  0  0  0
 21 27  1  0  0  0  0
 22 28  1  0  0  0  0
 22 21  2  0  0  0  0
 23 22  1  0  0  0  0
 24 23  2  0  0  0  0
 24 25  1  0  0  0  0
 25 26  2  0  0  0  0
 26 21  1  0  0  0  0
 29 23  1  0  0  0  0
 29 32  1  0  0  0  0
 30 29  1  0  0  0  0
 31 29  1  0  0  0  0
 32 34  1  0  0  0  0
 32 33  1  0  0  0  0
 35 36  1  0  0  0  0
 35 32  1  0  0  0  0
M  END
>  <minimizedAffinity>
-6.32511806

>  <minimizedRMSD>
1.49410439

$$$$
