
 OpenBabel03242507293D

 32 35  0  0  0  0  0  0  0  0999 V2000
   38.2390   27.9220   43.5910 C   0  0  0  0  0  0  0  0  0  0  0  0
   37.1720   28.2120   43.4630 H   0  0  0  0  0  0  0  0  0  0  0  0
   38.4850   27.8410   44.6490 H   0  0  0  0  0  0  0  0  0  0  0  0
   41.2270   29.7720   42.1390 C   0  0  0  0  0  0  0  0  0  0  0  0
   40.4630   28.8120   42.8430 C   0  0  0  0  0  0  0  0  0  0  0  0
   39.0780   28.9070   42.8650 C   0  0  0  0  0  0  0  0  0  0  0  0
   38.5060   29.9400   42.1930 N   0  0  0  0  0  0  0  0  0  0  0  0
   39.2580   30.8570   41.5190 C   0  0  0  0  0  0  0  0  0  0  0  0
   40.5780   30.7640   41.5010 N   0  0  0  0  0  0  0  0  0  0  0  0
   42.2860   29.7140   42.1130 H   0  0  0  0  0  0  0  0  0  0  0  0
   40.9440   27.9980   43.3710 H   0  0  0  0  0  0  0  0  0  0  0  0
   38.6030   31.9710   40.7980 C   0  0  0  0  0  0  0  0  0  0  0  0
   37.3230   31.8680   40.0310 C   0  0  0  0  0  0  0  0  0  0  0  0
   37.2250   33.6270   39.4740 S   0  0  0  0  0  0  0  0  0  0  0  0
   38.8390   34.1420   40.3320 C   0  0  0  0  0  0  0  0  0  0  0  0
   39.0820   35.1570   40.1960 H   0  0  0  0  0  0  0  0  0  0  0  0
   39.3000   33.1110   40.9090 N   0  0  0  0  0  0  0  0  0  0  0  0
   38.3900   26.5880   42.9860 C   0  0  0  0  0  0  0  0  0  0  0  0
   39.2590   25.5710   43.0950 C   0  0  0  0  0  0  0  0  0  0  0  0
   39.1290   24.4320   42.3860 C   0  0  0  0  0  0  0  0  0  0  0  0
   37.9730   24.4460   41.5240 C   0  0  0  0  0  0  0  0  0  0  0  0
   37.2130   25.9900   41.7820 S   0  0  0  0  0  0  0  0  0  0  0  0
   40.0640   25.7520   43.7980 H   0  0  0  0  0  0  0  0  0  0  0  0
   39.7940   23.5820   42.4300 H   0  0  0  0  0  0  0  0  0  0  0  0
   37.5420   23.3790   40.6270 C   0  0  0  0  0  0  0  0  0  0  0  0
   38.2730   22.3000   40.2970 C   0  0  0  0  0  0  0  0  0  0  0  0
   37.4360   21.5960   39.4320 C   0  0  0  0  0  0  0  0  0  0  0  0
   36.2590   22.2580   39.2740 N   0  0  0  0  0  0  0  0  0  0  0  0
   36.3450   23.3540   40.0190 N   0  0  0  0  0  0  0  0  0  0  0  0
   39.2750   22.0130   40.6100 H   0  0  0  0  0  0  0  0  0  0  0  0
   37.6930   20.6390   38.9460 H   0  0  0  0  0  0  0  0  0  0  0  0
   35.4880   21.9110   38.6700 H   0  0  0  0  0  0  0  0  0  0  0  0
  1  3  1  0  0  0  0
  2  1  1  0  0  0  0
  4  5  1  0  0  0  0
  5  6  2  0  0  0  0
  5 11  1  0  0  0  0
  6  1  1  0  0  0  0
  7  6  1  0  0  0  0
  8  7  2  0  0  0  0
  9  8  1  0  0  0  0
  9  4  2  0  0  0  0
 10  4  1  0  0  0  0
 12 17  1  0  0  0  0
 12  8  1  0  0  0  0
 13 12  2  0  0  0  0
 14 13  1  0  0  0  0
 14 15  1  0  0  0  0
 15 17  2  0  0  0  0
 16 15  1  0  0  0  0
 18 19  2  0  0  0  0
 18  1  1  0  0  0  0
 19 23  1  0  0  0  0
 20 24  1  0  0  0  0
 20 19  1  0  0  0  0
 21 22  1  0  0  0  0
 21 20  2  0  0  0  0
 22 18  1  0  0  0  0
 25 21  1  0  0  0  0
 26 30  1  0  0  0  0
 26 25  1  0  0  0  0
 27 26  2  0  0  0  0
 28 27  1  0  0  0  0
 28 29  1  0  0  0  0
 29 25  2  0  0  0  0
 31 27  1  0  0  0  0
 32 28  1  0  0  0  0
M  END
>  <minimizedAffinity>
-4.87915421

>  <minimizedRMSD>
2.00966334

$$$$
