REMARK  Name = 
REMARK  2 active torsions:
REMARK  status: ('A' for Active; 'I' for Inactive)
REMARK    1  A    between atoms: C_3  and  C_7
REMARK    2  A    between atoms: C_5  and  C_13
REMARK                            x       y       z     vdW  Elec       q    Type
REMARK                         _______ _______ _______ _____ _____    ______ ____
ROOT
ATOM      1  C   UNL     1      37.969  28.888  43.372  0.00  0.00    +0.000 A 
ATOM      2  C   UNL     1      38.084  27.468  43.311  0.00  0.00    +0.000 A 
ATOM      3  C   UNL     1      37.437  26.813  42.252  0.00  0.00    +0.000 A 
ATOM      4  N   UNL     1      36.732  27.574  41.339  0.00  0.00    +0.000 NA
ATOM      5  C   UNL     1      36.661  28.911  41.453  0.00  0.00    +0.000 A 
ATOM      6  N   UNL     1      37.270  29.553  42.453  0.00  0.00    +0.000 NA
ATOM      7  H   UNL     1      38.455  29.424  44.174  0.00  0.00    +0.000 HD
ATOM      8  H   UNL     1      38.639  26.915  44.036  0.00  0.00    +0.000 HD
ENDROOT
BRANCH   5   9
ATOM      9  C   UNL     1      35.857  29.521  40.370  0.00  0.00    +0.000 A 
ATOM     10  C   UNL     1      34.669  29.016  39.883  0.00  0.00    +0.000 A 
ATOM     11  S   UNL     1      34.223  30.218  38.600  0.00  0.00    +0.000 S 
ATOM     12  C   UNL     1      35.801  31.250  38.961  0.00  0.00    +0.000 A 
ATOM     13  H   UNL     1      36.021  32.162  38.403  0.00  0.00    +0.000 HD
ATOM     14  N   UNL     1      36.420  30.623  39.918  0.00  0.00    +0.000 NA
ENDBRANCH   5   9
BRANCH   3  15
ATOM     15  C   UNL     1      37.531  25.336  42.149  0.00  0.00    +0.000 C 
ATOM     16  F   UNL     1      37.654  25.052  40.811  0.00  0.00    +0.000 F 
ATOM     17  F   UNL     1      38.631  24.839  42.791  0.00  0.00    +0.000 F 
ATOM     18  F   UNL     1      36.377  24.721  42.642  0.00  0.00    +0.000 F 
ENDBRANCH   3  15
TORSDOF 2
