
 OpenBabel03242509323D

 18 19  0  0  0  0  0  0  0  0999 V2000
   37.8510   28.7030   43.5240 C   0  0  0  0  0  0  0  0  0  0  0  0
   38.2470   27.3350   43.5840 C   0  0  0  0  0  0  0  0  0  0  0  0
   38.0730   26.5610   42.4260 C   0  0  0  0  0  0  0  0  0  0  0  0
   37.5330   27.1640   41.3060 N   0  0  0  0  0  0  0  0  0  0  0  0
   37.1780   28.4600   41.3140 C   0  0  0  0  0  0  0  0  0  0  0  0
   37.3360   29.2130   42.4060 N   0  0  0  0  0  0  0  0  0  0  0  0
   37.9710   29.3280   44.3970 H   0  0  0  0  0  0  0  0  0  0  0  0
   38.6620   26.9060   44.4690 H   0  0  0  0  0  0  0  0  0  0  0  0
   36.6230   28.8940   40.0120 C   0  0  0  0  0  0  0  0  0  0  0  0
   35.7330   28.1680   39.2470 C   0  0  0  0  0  3  0  0  0  0  0  0
   35.4670   29.2490   37.8150 S   0  0  0  0  0  0  0  0  0  0  0  0
   36.6660   30.5650   38.5340 C   0  0  0  0  0  0  0  0  0  0  0  0
   36.8690   31.4950   38.0020 H   0  0  0  0  0  0  0  0  0  0  0  0
   37.0870   30.0780   39.6650 N   0  0  0  0  0  0  0  0  0  0  0  0
   38.4730   25.1330   42.4430 C   0  0  0  0  0  0  0  0  0  0  0  0
   39.0760   24.8890   41.2340 F   0  0  0  0  0  0  0  0  0  0  0  0
   39.3780   24.8580   43.4310 F   0  0  0  0  0  0  0  0  0  0  0  0
   37.3600   24.2980   42.5750 F   0  0  0  0  0  0  0  0  0  0  0  0
  1  2  1  0  0  0  0
  1  7  1  0  0  0  0
  2  8  1  0  0  0  0
  3 15  1  0  0  0  0
  3  2  2  0  0  0  0
  4  5  2  0  0  0  0
  4  3  1  0  0  0  0
  5  6  1  0  0  0  0
  6  1  2  0  0  0  0
  9  5  1  0  0  0  0
 10  9  2  0  0  0  0
 11 12  1  0  0  0  0
 11 10  1  0  0  0  0
 12 14  2  0  0  0  0
 13 12  1  0  0  0  0
 14  9  1  0  0  0  0
 15 18  1  0  0  0  0
 15 17  1  0  0  0  0
 16 15  1  0  0  0  0
M  END
>  <minimizedAffinity>
-3.92333722

>  <minimizedRMSD>
1.07401657

$$$$
