
 OpenBabel03242508043D

 27 29  0  0  0  0  0  0  0  0999 V2000
   37.8200   30.4710   40.9930 C   0  0  0  0  0  0  0  0  0  0  0  0
   38.4740   29.8600   42.0610 C   0  0  0  0  0  0  0  0  0  0  0  0
   39.5980   30.5430   42.6090 C   0  0  0  0  0  0  0  0  0  0  0  0
   39.9820   31.7340   42.0810 N   0  0  0  0  0  0  0  0  0  0  0  0
   39.3210   32.2820   41.0520 C   0  0  0  0  0  0  0  0  0  0  0  0
   38.2410   31.6480   40.5100 N   0  0  0  0  0  0  0  0  0  0  0  0
   40.0960   30.0800   43.4220 H   0  0  0  0  0  0  0  0  0  0  0  0
   39.7370   33.2180   40.7450 H   0  0  0  0  0  0  0  0  0  0  0  0
   38.1250   28.6340   42.6190 N   0  0  0  0  0  0  0  0  0  0  0  0
   38.3850   27.3060   42.0760 C   0  0  0  0  0  0  0  0  0  0  0  0
   37.1950   26.4760   42.5000 C   0  0  0  0  0  0  0  0  0  0  0  0
   36.4140   27.3650   43.4390 C   0  0  0  0  0  0  0  0  0  0  0  0
   37.4540   28.3700   43.8430 C   0  0  0  0  0  0  0  0  0  0  0  0
   38.4570   27.3330   40.9560 H   0  0  0  0  0  0  0  0  0  0  0  0
   39.3450   26.9800   42.4770 H   0  0  0  0  0  0  0  0  0  0  0  0
   36.5770   26.1270   41.6430 H   0  0  0  0  0  0  0  0  0  0  0  0
   37.5780   25.6280   43.1050 H   0  0  0  0  0  0  0  0  0  0  0  0
   36.0440   26.7670   44.3100 H   0  0  0  0  0  0  0  0  0  0  0  0
   35.5950   27.8920   42.9270 H   0  0  0  0  0  0  0  0  0  0  0  0
   37.1200   29.2040   44.4400 H   0  0  0  0  0  0  0  0  0  0  0  0
   38.1870   27.8210   44.5360 H   0  0  0  0  0  0  0  0  0  0  0  0
   36.6700   29.9310   40.2910 C   0  0  0  0  0  0  0  0  0  0  0  0
   36.9250   29.8410   38.7420 C   0  0  0  0  0  0  0  0  0  0  0  0
   35.2820   29.1590   38.1700 S   0  0  0  0  0  0  0  0  0  0  0  0
   34.6020   29.1170   39.9420 C   0  0  0  0  0  0  0  0  0  0  0  0
   33.6070   28.7710   40.1460 H   0  0  0  0  0  0  0  0  0  0  0  0
   35.4550   29.5170   40.6190 N   0  0  0  0  0  0  0  0  0  0  0  0
  1  2  1  0  0  0  0
  2  3  2  0  0  0  0
  2  9  1  0  0  0  0
  3  7  1  0  0  0  0
  4  3  1  0  0  0  0
  5  4  2  0  0  0  0
  6  1  2  0  0  0  0
  6  5  1  0  0  0  0
  8  5  1  0  0  0  0
  9 13  1  0  0  0  0
 10 15  1  0  0  0  0
 10 11  1  0  0  0  0
 10  9  1  0  0  0  0
 11 17  1  0  0  0  0
 11 12  1  0  0  0  0
 12 13  1  0  0  0  0
 12 18  1  0  0  0  0
 13 20  1  0  0  0  0
 13 21  1  0  0  0  0
 14 10  1  0  0  0  0
 16 11  1  0  0  0  0
 19 12  1  0  0  0  0
 22 27  1  0  0  0  0
 22  1  1  0  0  0  0
 23 22  2  0  0  0  0
 24 23  1  0  0  0  0
 24 25  1  0  0  0  0
 25 26  1  0  0  0  0
 25 27  2  0  0  0  0
M  END
>  <minimizedAffinity>
-4.39996862

>  <minimizedRMSD>
4.17394543

$$$$
