
 OpenBabel03242508503D

 38 41  0  0  1  0  0  0  0  0999 V2000
   39.4960   27.8150   42.4740 C   0  0  2  0  0  0  0  0  0  0  0  0
   40.7620   28.0750   43.1080 C   0  0  0  0  0  0  0  0  0  0  0  0
   41.5190   26.7370   43.0780 C   0  0  0  0  0  0  0  0  0  0  0  0
   40.8440   25.9250   41.9830 C   0  0  0  0  0  0  0  0  0  0  0  0
   39.8990   26.8440   41.2910 C   0  0  1  0  0  0  0  0  0  0  0  0
   38.8490   27.1900   43.0680 H   0  0  0  0  0  0  0  0  0  0  0  0
   41.3500   28.8560   42.5620 H   0  0  0  0  0  0  0  0  0  0  0  0
   40.6700   28.4470   44.1550 H   0  0  0  0  0  0  0  0  0  0  0  0
   42.5530   26.9290   42.7490 H   0  0  0  0  0  0  0  0  0  0  0  0
   41.4720   26.2560   44.0710 H   0  0  0  0  0  0  0  0  0  0  0  0
   41.5930   25.4580   41.3040 H   0  0  0  0  0  0  0  0  0  0  0  0
   40.3490   25.0980   42.4970 H   0  0  0  0  0  0  0  0  0  0  0  0
   40.2760   27.4390   40.4760 H   0  0  0  0  0  0  0  0  0  0  0  0
   39.4430   30.1080   41.3860 C   0  0  0  0  0  0  0  0  0  0  0  0
   38.7560   28.9560   41.9550 C   0  0  0  0  0  0  0  0  0  0  0  0
   37.3970   28.9420   42.0150 C   0  0  0  0  0  0  0  0  0  0  0  0
   36.7390   30.0460   41.5210 N   0  0  0  0  0  0  0  0  0  0  0  0
   37.3890   31.1380   40.9820 C   0  0  0  0  0  0  0  0  0  0  0  0
   38.7770   31.1630   40.9150 N   0  0  0  0  0  0  0  0  0  0  0  0
   36.6040   32.2310   40.5010 N   0  0  0  0  0  0  0  0  0  0  0  0
   40.5230   30.0540   41.3670 H   0  0  0  0  0  0  0  0  0  0  0  0
   35.8290   32.6970   40.9840 H   0  0  0  0  0  0  0  0  0  0  0  0
   36.8160   32.6230   39.5580 H   0  0  0  0  0  0  0  0  0  0  0  0
   36.5380   27.9240   42.5370 C   0  0  0  0  0  0  0  0  0  0  0  0
   36.6290   27.0010   41.8910 H   0  0  0  0  0  0  0  0  0  0  0  0
   35.4630   28.1580   42.4900 H   0  0  0  0  0  0  0  0  0  0  0  0
   36.8270   27.4790   43.9610 C   0  0  0  0  0  0  0  0  0  0  0  0
   37.0480   28.4510   45.0500 C   0  0  0  0  0  0  0  0  0  0  0  0
   35.7510   27.7370   45.0190 C   0  0  0  0  0  0  0  0  0  0  0  0
   38.7790   25.9380   40.8990 C   0  0  0  0  0  0  0  0  0  0  0  0
   38.3850   24.9010   41.7090 N   0  0  0  0  0  0  0  0  0  0  0  0
   37.3830   24.2980   41.1050 O   0  0  0  0  0  0  0  0  0  0  0  0
   37.1560   24.9180   39.9740 C   0  0  0  0  0  0  0  0  0  0  0  0
   38.0060   25.9440   39.8160 N   0  0  0  0  0  0  0  0  0  0  0  0
   36.0630   24.4640   39.0470 C   0  0  0  0  0  0  0  0  0  0  0  0
   35.1550   23.7160   39.7510 F   0  0  0  0  0  0  0  0  0  0  0  0
   35.4200   25.5540   38.4870 F   0  0  0  0  0  0  0  0  0  0  0  0
   36.5870   23.6640   38.0450 F   0  0  0  0  0  0  0  0  0  0  0  0
  1  6  1  1  0  0  0
  1  2  1  0  0  0  0
  2  8  1  0  0  0  0
  3  2  1  0  0  0  0
  3 10  1  0  0  0  0
  4 12  1  0  0  0  0
  4  3  1  0  0  0  0
  5 13  1  6  0  0  0
  5  4  1  0  0  0  0
  5  1  1  0  0  0  0
  7  2  1  0  0  0  0
  9  3  1  0  0  0  0
 11  4  1  0  0  0  0
 14 15  1  0  0  0  0
 15 16  2  0  0  0  0
 15  1  1  0  0  0  0
 16 24  1  0  0  0  0
 17 16  1  0  0  0  0
 18 17  2  0  0  0  0
 19 18  1  0  0  0  0
 19 14  2  0  0  0  0
 20 18  1  0  0  0  0
 20 22  1  0  0  0  0
 21 14  1  0  0  0  0
 23 20  1  0  0  0  0
 24 27  1  0  0  0  0
 25 24  1  0  0  0  0
 26 24  1  0  0  0  0
 27 29  1  0  0  0  0
 27 28  1  0  0  0  0
 29 28  1  0  0  0  0
 30  5  1  0  0  0  0
 30 31  2  0  0  0  0
 32 31  1  0  0  0  0
 33 32  1  0  0  0  0
 34 33  2  0  0  0  0
 34 30  1  0  0  0  0
 35 36  1  0  0  0  0
 35 33  1  0  0  0  0
 37 35  1  0  0  0  0
 38 35  1  0  0  0  0
M  END
>  <minimizedAffinity>
-5.37398005

>  <minimizedRMSD>
1.02000332

$$$$
