
 OpenBabel03242506543D

 31 34  0  0  0  0  0  0  0  0999 V2000
   37.0160   31.2850   39.7020 C   0  0  0  0  0  0  0  0  0  0  0  0
   36.3630   30.7600   40.8380 C   0  0  0  0  0  0  0  0  0  0  0  0
   35.4890   29.6840   40.7920 C   0  0  0  0  0  0  0  0  0  0  0  0
   35.2420   29.0930   39.5720 C   0  0  0  0  0  0  0  0  0  0  0  0
   35.8410   29.5560   38.4360 C   0  0  0  0  0  0  0  0  0  0  0  0
   35.6010   28.9320   37.2510 C   0  0  0  0  0  0  0  0  0  0  0  0
   36.2370   29.3530   36.0630 C   0  0  0  0  0  0  0  0  0  0  0  0
   37.0990   30.4290   36.2000 C   0  0  0  0  0  0  0  0  0  0  0  0
   37.3040   31.0240   37.4100 C   0  0  0  0  0  0  0  0  0  0  0  0
   36.6840   30.6120   38.5710 C   0  0  0  0  0  0  0  0  0  0  0  0
   36.5430   31.2130   41.8190 H   0  0  0  0  0  0  0  0  0  0  0  0
   35.0340   29.3540   41.7310 H   0  0  0  0  0  0  0  0  0  0  0  0
   34.5870   28.2540   39.6500 H   0  0  0  0  0  0  0  0  0  0  0  0
   36.0970   28.9080   35.1020 H   0  0  0  0  0  0  0  0  0  0  0  0
   37.6250   30.8090   35.3270 H   0  0  0  0  0  0  0  0  0  0  0  0
   37.9920   31.8660   37.4560 H   0  0  0  0  0  0  0  0  0  0  0  0
   37.8820   32.4020   39.9450 C   0  0  0  0  0  0  0  0  0  0  0  0
   37.6160   33.7750   39.8410 C   0  0  0  0  0  0  0  0  0  0  0  0
   38.5620   34.7520   40.1540 C   0  0  0  0  0  0  0  0  0  0  0  0
   39.7670   34.2850   40.5690 N   0  0  0  0  0  0  0  0  0  0  0  0
   40.0420   32.9890   40.6730 C   0  0  0  0  0  0  0  0  0  0  0  0
   39.1150   32.0750   40.3660 N   0  0  0  0  0  0  0  0  0  0  0  0
   36.5990   33.9760   39.4930 H   0  0  0  0  0  0  0  0  0  0  0  0
   38.2530   35.7790   40.0400 H   0  0  0  0  0  0  0  0  0  0  0  0
   41.0390   32.7320   41.0130 H   0  0  0  0  0  0  0  0  0  0  0  0
   34.7020   27.7770   37.0300 C   0  0  0  0  0  0  0  0  0  0  0  0
   33.4970   27.8880   36.3920 C   0  0  0  0  0  0  0  0  0  0  0  0
   32.8560   26.2050   36.2520 S   0  0  0  0  0  0  0  0  0  0  0  0
   34.4070   25.5390   37.1290 C   0  0  0  0  0  0  0  0  0  0  0  0
   34.9950   24.5040   37.5510 H   0  0  0  0  0  0  0  0  0  0  0  0
   34.9250   26.5150   37.2860 N   0  0  0  0  0  0  0  0  0  0  0  0
  1 17  1  0  0  0  0
  1  2  1  0  0  0  0
  2 11  1  0  0  0  0
  3  2  2  0  0  0  0
  3 12  1  0  0  0  0
  4 13  1  0  0  0  0
  4  3  1  0  0  0  0
  5 10  1  0  0  0  0
  5  4  2  0  0  0  0
  6  5  1  0  0  0  0
  7  8  1  0  0  0  0
  7  6  2  0  0  0  0
  8  9  2  0  0  0  0
  9 16  1  0  0  0  0
  9 10  1  0  0  0  0
 10  1  2  0  0  0  0
 14  7  1  0  0  0  0
 15  8  1  0  0  0  0
 17 22  1  0  0  0  0
 18 17  2  0  0  0  0
 18 19  1  0  0  0  0
 19 20  2  0  0  0  0
 20 21  1  0  0  0  0
 21 25  1  0  0  0  0
 22 21  2  0  0  0  0
 23 18  1  0  0  0  0
 24 19  1  0  0  0  0
 26  6  1  0  0  0  0
 26 31  1  0  0  0  0
 27 26  2  0  0  0  0
 28 27  1  0  0  0  0
 28 29  1  0  0  0  0
 29 31  2  0  0  0  0
 29 30  1  0  0  0  0
M  END
>  <minimizedAffinity>
-5.42807627

>  <minimizedRMSD>
5.90554094

$$$$
