
 OpenBabel03242509323D

 18 19  0  0  0  0  0  0  0  0999 V2000
   37.5670   28.7160   43.5910 C   0  0  0  0  0  0  0  0  0  0  0  0
   38.1380   27.4200   43.7640 C   0  0  0  0  0  0  0  0  0  0  0  0
   38.4800   26.7060   42.6050 C   0  0  0  0  0  0  0  0  0  0  0  0
   38.2450   27.2930   41.3760 N   0  0  0  0  0  0  0  0  0  0  0  0
   37.7030   28.5190   41.2810 C   0  0  0  0  0  0  0  0  0  0  0  0
   37.3710   29.2140   42.3720 N   0  0  0  0  0  0  0  0  0  0  0  0
   37.2930   29.2930   44.4620 H   0  0  0  0  0  0  0  0  0  0  0  0
   38.3050   27.0010   44.7310 H   0  0  0  0  0  0  0  0  0  0  0  0
   37.5410   28.9490   39.8740 C   0  0  0  0  0  0  0  0  0  0  0  0
   37.9920   28.2500   38.7740 C   0  0  0  0  0  3  0  0  0  0  0  0
   37.4780   29.3090   37.3930 S   0  0  0  0  0  0  0  0  0  0  0  0
   36.7020   30.5810   38.6030 C   0  0  0  0  0  0  0  0  0  0  0  0
   36.2170   31.4870   38.2380 H   0  0  0  0  0  0  0  0  0  0  0  0
   36.9040   30.1000   39.7960 N   0  0  0  0  0  0  0  0  0  0  0  0
   39.0780   25.3550   42.7380 C   0  0  0  0  0  0  0  0  0  0  0  0
   39.9530   25.2180   41.6880 F   0  0  0  0  0  0  0  0  0  0  0  0
   39.7830   25.2100   43.9000 F   0  0  0  0  0  0  0  0  0  0  0  0
   38.1010   24.3600   42.6500 F   0  0  0  0  0  0  0  0  0  0  0  0
  1  2  1  0  0  0  0
  1  7  1  0  0  0  0
  2  8  1  0  0  0  0
  3 15  1  0  0  0  0
  3  2  2  0  0  0  0
  4  3  1  0  0  0  0
  5  4  2  0  0  0  0
  5  6  1  0  0  0  0
  6  1  2  0  0  0  0
  9  5  1  0  0  0  0
 10  9  2  0  0  0  0
 11 12  1  0  0  0  0
 11 10  1  0  0  0  0
 12 14  2  0  0  0  0
 13 12  1  0  0  0  0
 14  9  1  0  0  0  0
 15 17  1  0  0  0  0
 16 15  1  0  0  0  0
 18 15  1  0  0  0  0
M  END
>  <minimizedAffinity>
-3.81274629

>  <minimizedRMSD>
1.82540166

$$$$
