
 OpenBabel03242509033D

 35 38  0  0  1  0  0  0  0  0999 V2000
   38.2530   30.7750   40.6020 N   0  0  1  0  0  0  0  0  0  0  0  0
   36.8280   31.0560   40.9260 C   0  0  0  0  0  0  0  0  0  0  0  0
   35.9050   30.4780   39.8960 C   0  0  0  0  0  0  0  0  0  0  0  0
   36.3800   30.7070   38.6050 O   0  0  0  0  0  0  0  0  0  0  0  0
   37.2150   31.7980   38.6480 C   0  0  0  0  0  0  0  0  0  0  0  0
   38.5210   31.4980   39.4130 C   0  0  1  0  0  0  0  0  0  0  0  0
   36.6650   32.1310   41.0810 H   0  0  0  0  0  0  0  0  0  0  0  0
   36.6480   30.4750   41.8730 H   0  0  0  0  0  0  0  0  0  0  0  0
   35.8720   29.3700   40.0160 H   0  0  0  0  0  0  0  0  0  0  0  0
   34.9110   30.8970   40.0570 H   0  0  0  0  0  0  0  0  0  0  0  0
   37.4850   32.1330   37.6150 H   0  0  0  0  0  0  0  0  0  0  0  0
   36.7220   32.6900   39.1170 H   0  0  0  0  0  0  0  0  0  0  0  0
   39.1310   30.8800   38.7570 H   0  0  0  0  0  0  0  0  0  0  0  0
   39.1230   30.0490   42.9260 C   0  0  1  0  0  0  0  0  0  0  0  0
   40.3020   30.3250   42.0740 C   0  0  0  0  0  0  0  0  0  0  0  0
   39.0600   31.0140   41.7220 C   0  0  1  0  0  0  0  0  0  0  0  0
   38.9390   30.4750   43.9090 H   0  0  0  0  0  0  0  0  0  0  0  0
   40.7320   29.4640   41.5020 H   0  0  0  0  0  0  0  0  0  0  0  0
   41.1440   30.8730   42.5910 H   0  0  0  0  0  0  0  0  0  0  0  0
   39.0510   32.0880   42.0870 H   0  0  0  0  0  0  0  0  0  0  0  0
   38.6010   26.5470   41.9210 C   0  0  0  0  0  0  0  0  0  0  0  0
   37.3360   26.2520   42.4710 C   0  0  0  0  0  0  0  0  0  0  0  0
   36.6770   27.2840   43.1760 C   0  0  0  0  0  0  0  0  0  0  0  0
   37.2930   28.5220   43.2940 N   0  0  0  0  0  0  0  0  0  0  0  0
   38.4940   28.7190   42.7430 C   0  0  0  0  0  0  0  0  0  0  0  0
   39.1570   27.7590   42.0600 N   0  0  0  0  0  0  0  0  0  0  0  0
   39.1320   25.7930   41.3810 H   0  0  0  0  0  0  0  0  0  0  0  0
   36.8710   25.2800   42.3690 H   0  0  0  0  0  0  0  0  0  0  0  0
   35.7130   27.1050   43.6120 H   0  0  0  0  0  0  0  0  0  0  0  0
   39.1730   32.8290   39.6080 C   0  0  0  0  0  0  0  0  0  0  0  0
   40.5490   33.1180   39.3470 C   0  0  0  0  0  0  0  0  0  0  0  0
   40.6420   34.9310   39.8080 S   0  0  0  0  0  0  0  0  0  0  0  0
   38.7980   34.9010   40.2530 C   0  0  0  0  0  0  0  0  0  0  0  0
   38.6530   36.0550   40.5970 H   0  0  0  0  0  0  0  0  0  0  0  0
   38.4740   33.8490   40.0520 N   0  0  0  0  0  0  0  0  0  0  0  0
  1  2  1  1  0  0  0
  1 16  1  0  0  0  0
  2  7  1  0  0  0  0
  2  8  1  0  0  0  0
  3  9  1  0  0  0  0
  3 10  1  0  0  0  0
  3  2  1  0  0  0  0
  4  5  1  0  0  0  0
  4  3  1  0  0  0  0
  5 12  1  0  0  0  0
  5  6  1  0  0  0  0
  6 13  1  6  0  0  0
  6 30  1  0  0  0  0
  6  1  1  0  0  0  0
 11  5  1  0  0  0  0
 14 17  1  1  0  0  0
 15 19  1  0  0  0  0
 15 14  1  0  0  0  0
 16 15  1  0  0  0  0
 16 20  1  1  0  0  0
 16 14  1  0  0  0  0
 18 15  1  0  0  0  0
 21 26  2  0  0  0  0
 21 22  1  0  0  0  0
 22 23  2  0  0  0  0
 23 24  1  0  0  0  0
 23 29  1  0  0  0  0
 25 14  1  0  0  0  0
 25 24  2  0  0  0  0
 26 25  1  0  0  0  0
 27 21  1  0  0  0  0
 28 22  1  0  0  0  0
 30 35  1  0  0  0  0
 31 30  2  0  0  0  0
 31 32  1  0  0  0  0
 32 33  1  0  0  0  0
 33 34  1  0  0  0  0
 35 33  2  0  0  0  0
M  END
>  <minimizedAffinity>
-5.30758333

>  <minimizedRMSD>
2.64484596

$$$$
