
 OpenBabel03242507263D

 25 27  0  0  0  0  0  0  0  0999 V2000
   37.0750   25.8280   42.1620 C   0  0  0  0  0  0  0  0  0  0  0  0
   37.4850   24.5550   42.3380 C   0  0  0  0  0  0  0  0  0  0  0  0
   37.7610   23.7130   41.3270 C   0  0  0  0  0  0  0  0  0  0  0  0
   37.5680   24.3320   40.0260 C   0  0  0  0  0  0  0  0  0  0  0  0
   37.0400   25.9600   40.3860 S   0  0  0  0  0  0  0  0  0  0  0  0
   37.5760   24.2550   43.3810 H   0  0  0  0  0  0  0  0  0  0  0  0
   38.0840   22.7110   41.3790 H   0  0  0  0  0  0  0  0  0  0  0  0
   37.7650   23.7380   38.7140 C   0  0  0  0  0  0  0  0  0  0  0  0
   38.6690   24.3140   37.8560 C   0  0  0  0  0  0  0  0  0  0  0  0
   38.5310   23.1920   36.3680 S   0  0  0  0  0  0  0  0  0  0  0  0
   37.2380   22.1540   37.2590 C   0  0  0  0  0  0  0  0  0  0  0  0
   36.6130   21.1830   36.9570 H   0  0  0  0  0  0  0  0  0  0  0  0
   37.1370   22.6730   38.2680 N   0  0  0  0  0  0  0  0  0  0  0  0
   36.7110   26.9420   43.0230 C   0  0  0  0  0  0  0  0  0  0  0  0
   36.8990   26.6590   44.0620 H   0  0  0  0  0  0  0  0  0  0  0  0
   35.6460   27.2090   42.9060 H   0  0  0  0  0  0  0  0  0  0  0  0
   39.5420   29.4410   42.6210 C   0  0  0  0  0  0  0  0  0  0  0  0
   38.8360   28.2660   42.9960 C   0  0  0  0  0  0  0  0  0  0  0  0
   37.5020   28.1500   42.6580 C   0  0  0  0  0  0  0  0  0  0  0  0
   36.9360   29.1860   41.9760 N   0  0  0  0  0  0  0  0  0  0  0  0
   37.6080   30.2940   41.6260 C   0  0  0  0  0  0  0  0  0  0  0  0
   38.8980   30.4170   41.9470 N   0  0  0  0  0  0  0  0  0  0  0  0
   40.5780   29.4890   42.9050 H   0  0  0  0  0  0  0  0  0  0  0  0
   39.2870   27.4480   43.5350 H   0  0  0  0  0  0  0  0  0  0  0  0
   37.0590   31.0540   41.0860 H   0  0  0  0  0  0  0  0  0  0  0  0
  1  2  2  0  0  0  0
  1 14  1  0  0  0  0
  2  6  1  0  0  0  0
  3  7  1  0  0  0  0
  3  2  1  0  0  0  0
  4  5  1  0  0  0  0
  4  3  2  0  0  0  0
  5  1  1  0  0  0  0
  8  4  1  0  0  0  0
  9  8  2  0  0  0  0
 10 11  1  0  0  0  0
 10  9  1  0  0  0  0
 11 13  2  0  0  0  0
 12 11  1  0  0  0  0
 13  8  1  0  0  0  0
 14 15  1  0  0  0  0
 16 14  1  0  0  0  0
 17 23  1  0  0  0  0
 17 18  1  0  0  0  0
 18 24  1  0  0  0  0
 19 18  2  0  0  0  0
 19 14  1  0  0  0  0
 20 19  1  0  0  0  0
 21 22  1  0  0  0  0
 21 20  2  0  0  0  0
 22 17  2  0  0  0  0
 25 21  1  0  0  0  0
M  END
>  <minimizedAffinity>
-3.75121045

>  <minimizedRMSD>
0.186266229

$$$$
