
 OpenBabel03242508103D

 39 42  0  0  1  0  0  0  0  0999 V2000
   38.9100   35.5720   40.1630 C   0  0  0  0  0  0  0  0  0  0  0  0
   40.2530   35.6130   39.7790 C   0  0  0  0  0  0  0  0  0  0  0  0
   40.8260   34.3920   39.3980 C   0  0  0  0  0  0  0  0  0  0  0  0
   40.0200   33.3390   39.4460 N   0  0  0  0  0  0  0  0  0  0  0  0
   38.7570   33.2550   39.7980 C   0  0  0  0  0  0  0  0  0  0  0  0
   38.2440   34.4230   40.1540 N   0  0  0  0  0  0  0  0  0  0  0  0
   38.4740   36.5340   40.4590 H   0  0  0  0  0  0  0  0  0  0  0  0
   40.8430   36.5090   39.7660 H   0  0  0  0  0  0  0  0  0  0  0  0
   37.8010   32.1700   39.8850 C   0  0  0  0  0  0  0  0  0  0  0  0
   37.2220   31.7740   41.0300 N   0  0  0  0  0  0  0  0  0  0  0  0
   36.3440   30.7860   41.1460 C   0  0  0  0  0  0  0  0  0  0  0  0
   35.9640   30.0940   40.0910 N   0  0  0  0  0  0  0  0  0  0  0  0
   36.4680   30.3870   38.8770 C   0  0  0  0  0  0  0  0  0  0  0  0
   36.0720   29.6660   37.7700 C   0  0  0  0  0  0  0  0  0  0  0  0
   36.5650   29.9430   36.5370 C   0  0  0  0  0  0  0  0  0  0  0  0
   37.5000   30.9940   36.4090 C   0  0  0  0  0  0  0  0  0  0  0  0
   37.8490   31.6720   37.5630 C   0  0  0  0  0  0  0  0  0  0  0  0
   37.3750   31.4210   38.8120 C   0  0  0  0  0  0  0  0  0  0  0  0
   35.8840   30.4730   42.0740 H   0  0  0  0  0  0  0  0  0  0  0  0
   35.3550   28.8540   37.8420 H   0  0  0  0  0  0  0  0  0  0  0  0
   36.3170   29.4360   35.6200 H   0  0  0  0  0  0  0  0  0  0  0  0
   37.9270   31.2580   35.4460 H   0  0  0  0  0  0  0  0  0  0  0  0
   38.5760   32.4820   37.4280 H   0  0  0  0  0  0  0  0  0  0  0  0
   42.0890   34.2530   39.0050 O   0  0  0  0  0  0  0  0  0  0  0  0
   42.9790   33.2420   39.4550 C   0  0  2  0  0  0  0  0  0  0  0  0
   42.4810   32.3980   39.9550 H   0  0  0  0  0  0  0  0  0  0  0  0
   43.8000   33.8720   40.6180 C   0  0  0  0  0  0  0  0  0  0  0  0
   43.1510   33.9170   41.4930 H   0  0  0  0  0  0  0  0  0  0  0  0
   43.9770   34.9190   40.2970 H   0  0  0  0  0  0  0  0  0  0  0  0
   44.7470   33.3290   40.7400 H   0  0  0  0  0  0  0  0  0  0  0  0
   43.9190   32.8600   38.3630 C   0  0  0  0  0  0  0  0  0  0  0  0
   44.9560   32.8960   38.8200 H   0  0  0  0  0  0  0  0  0  0  0  0
   43.9150   33.6390   37.5590 H   0  0  0  0  0  0  0  0  0  0  0  0
   43.7780   31.4950   37.7930 C   0  0  0  0  0  0  0  0  0  0  0  0
   44.7790   31.4810   36.6220 C   0  0  0  0  0  0  0  0  0  0  0  0
   44.8120   30.1740   35.9110 C   0  0  0  0  0  0  0  0  0  0  0  0
   43.4560   29.9840   35.2480 C   0  0  0  0  0  0  0  0  0  0  0  0
   42.4540   29.9380   36.3760 C   0  0  0  0  0  0  0  0  0  0  0  0
   42.4270   31.2280   37.1780 C   0  0  0  0  0  0  0  0  0  0  0  0
  1  7  1  0  0  0  0
  2  1  2  0  0  0  0
  3  4  2  0  0  0  0
  3  2  1  0  0  0  0
  4  5  1  0  0  0  0
  5  9  1  0  0  0  0
  5  6  2  0  0  0  0
  6  1  1  0  0  0  0
  8  2  1  0  0  0  0
  9 10  1  0  0  0  0
 10 11  2  0  0  0  0
 11 19  1  0  0  0  0
 12 11  1  0  0  0  0
 13 12  2  0  0  0  0
 14 20  1  0  0  0  0
 14 13  1  0  0  0  0
 15 14  2  0  0  0  0
 16 15  1  0  0  0  0
 16 17  2  0  0  0  0
 17 18  1  0  0  0  0
 18 13  1  0  0  0  0
 18  9  2  0  0  0  0
 21 15  1  0  0  0  0
 22 16  1  0  0  0  0
 23 17  1  0  0  0  0
 24  3  1  0  0  0  0
 24 25  1  0  0  0  0
 25 26  1  1  0  0  0
 25 27  1  0  0  0  0
 27 30  1  0  0  0  0
 27 28  1  0  0  0  0
 29 27  1  0  0  0  0
 31 32  1  0  0  0  0
 31 25  1  0  0  0  0
 33 31  1  0  0  0  0
 34 31  1  0  0  0  0
 35 34  1  0  0  0  0
 36 35  1  0  0  0  0
 37 36  1  0  0  0  0
 37 38  1  0  0  0  0
 38 39  1  0  0  0  0
 39 34  1  0  0  0  0
M  END
>  <minimizedAffinity>
-5.81085968

>  <minimizedRMSD>
1.5134151

$$$$
