REMARK  Name = 
REMARK  2 active torsions:
REMARK  status: ('A' for Active; 'I' for Inactive)
REMARK    1  A    between atoms: C_3  and  C_7
REMARK    2  A    between atoms: C_5  and  C_13
REMARK                            x       y       z     vdW  Elec       q    Type
REMARK                         _______ _______ _______ _____ _____    ______ ____
ROOT
ATOM      1  C   UNL     1      37.968  28.884  43.365  0.00  0.00    +0.000 A 
ATOM      2  C   UNL     1      38.081  27.465  43.304  0.00  0.00    +0.000 A 
ATOM      3  C   UNL     1      37.438  26.815  42.256  0.00  0.00    +0.000 A 
ATOM      4  N   UNL     1      36.735  27.576  41.347  0.00  0.00    +0.000 NA
ATOM      5  C   UNL     1      36.658  28.909  41.448  0.00  0.00    +0.000 A 
ATOM      6  N   UNL     1      37.275  29.554  42.455  0.00  0.00    +0.000 NA
ATOM      7  H   UNL     1      38.456  29.437  44.168  0.00  0.00    +0.000 HD
ATOM      8  H   UNL     1      38.645  26.948  44.048  0.00  0.00    +0.000 HD
ENDROOT
BRANCH   5   9
ATOM      9  C   UNL     1      35.888  29.615  40.431  0.00  0.00    +0.000 A 
ATOM     10  C   UNL     1      35.357  28.859  39.380  0.00  0.00    +0.000 A 
ATOM     11  C   UNL     1      34.677  29.712  38.547  0.00  0.00    +0.000 A 
ATOM     12  C   UNL     1      34.822  30.955  39.127  0.00  0.00    +0.000 A 
ATOM     13  H   UNL     1      34.500  31.961  38.902  0.00  0.00    +0.000 HD
ATOM     14  O   UNL     1      35.544  30.865  40.240  0.00  0.00    +0.000 OA
ENDBRANCH   5   9
BRANCH   3  15
ATOM     15  C   UNL     1      37.531  25.337  42.156  0.00  0.00    +0.000 C 
ATOM     16  F   UNL     1      37.650  25.064  40.803  0.00  0.00    +0.000 F 
ATOM     17  F   UNL     1      38.622  24.840  42.800  0.00  0.00    +0.000 F 
ATOM     18  F   UNL     1      36.387  24.711  42.640  0.00  0.00    +0.000 F 
ENDBRANCH   3  15
TORSDOF 2
