
 OpenBabel03242507343D

 22 23  0  0  0  0  0  0  0  0999 V2000
   38.6440   29.2800   42.5160 C   0  0  0  0  0  0  0  0  0  0  0  0
   37.8650   29.1620   41.3360 C   0  0  0  0  0  0  0  0  0  0  0  0
   37.3530   27.8870   41.1150 C   0  0  0  0  0  0  0  0  0  0  0  0
   37.5980   26.8690   41.9740 N   0  0  0  0  0  0  0  0  0  0  0  0
   38.3520   27.0550   43.0840 C   0  0  0  0  0  0  0  0  0  0  0  0
   38.8740   28.2660   43.3500 N   0  0  0  0  0  0  0  0  0  0  0  0
   39.0710   30.2620   42.7330 H   0  0  0  0  0  0  0  0  0  0  0  0
   38.4940   26.1870   43.7120 H   0  0  0  0  0  0  0  0  0  0  0  0
   37.6700   30.2900   40.5010 N   0  0  0  0  0  0  0  0  0  0  0  0
   36.7640   31.3510   40.7910 C   0  0  0  0  0  0  0  0  0  0  0  0
   35.6130   30.9810   41.3100 N   0  0  0  0  0  0  0  0  0  0  0  0
   37.2340   32.6660   40.4790 N   0  0  0  0  0  0  0  0  0  0  0  0
   34.8980   31.6800   41.5660 H   0  0  0  0  0  0  0  0  0  0  0  0
   38.2650   30.2820   39.6200 H   0  0  0  0  0  0  0  0  0  0  0  0
   37.2760   33.4700   41.1660 H   0  0  0  0  0  0  0  0  0  0  0  0
   37.5430   32.7860   39.4930 H   0  0  0  0  0  0  0  0  0  0  0  0
   36.5420   27.7040   39.9160 C   0  0  0  0  0  0  0  0  0  0  0  0
   36.6780   26.7410   38.9360 C   0  0  0  0  0  0  0  0  0  0  0  0
   35.6720   26.9680   37.9870 C   0  0  0  0  0  0  0  0  0  0  0  0
   34.9890   28.0650   38.4660 C   0  0  0  0  0  0  0  0  0  0  0  0
   34.1490   28.4310   37.8840 H   0  0  0  0  0  0  0  0  0  0  0  0
   35.5350   28.4590   39.5930 O   0  0  0  0  0  0  0  0  0  0  0  0
  1  7  1  0  0  0  0
  1  6  1  0  0  0  0
  2  1  2  0  0  0  0
  3  2  1  0  0  0  0
  3  4  2  0  0  0  0
  4  5  1  0  0  0  0
  5  6  2  0  0  0  0
  5  8  1  0  0  0  0
  9 10  1  0  0  0  0
  9  2  1  0  0  0  0
 10 11  2  0  0  0  0
 11 13  1  0  0  0  0
 12 10  1  0  0  0  0
 12 15  1  0  0  0  0
 14  9  1  0  0  0  0
 16 12  1  0  0  0  0
 17  3  1  0  0  0  0
 18 17  2  0  0  0  0
 19 20  2  0  0  0  0
 19 18  1  0  0  0  0
 20 22  1  0  0  0  0
 21 20  1  0  0  0  0
 22 17  1  0  0  0  0
M  END
>  <minimizedAffinity>
-4.65861988

>  <minimizedRMSD>
0.863229692

$$$$
