
     RDKit          3D

 47 51  0  0  0  0  0  0  0  0999 V2000
   35.2828   29.4980   40.0759 C   0  0  0  0  0  0  0  0  0  0  0  0
   35.8893   29.4391   38.7271 C   0  0  0  0  0  0  0  0  0  0  0  0
   37.2038   29.6080   38.3954 C   0  0  0  0  0  0  0  0  0  0  0  0
   37.7170   29.6095   37.1312 C   0  0  0  0  0  0  0  0  0  0  0  0
   36.8697   29.4286   36.0587 C   0  0  0  0  0  0  0  0  0  0  0  0
   35.5182   29.2492   36.3244 C   0  0  0  0  0  0  0  0  0  0  0  0
   34.7293   29.0747   35.2209 C   0  0  0  0  0  0  0  0  0  0  0  0
   33.3870   28.8868   35.3819 C   0  0  0  0  0  0  0  0  0  0  0  0
   32.8478   28.8729   36.6451 C   0  0  0  0  0  0  0  0  0  0  0  0
   33.6921   29.0526   37.7014 C   0  0  0  0  0  0  0  0  0  0  0  0
   35.0352   29.2513   37.6244 C   0  0  0  0  0  0  0  0  0  0  0  0
   33.0932   29.0118   38.9590 O   0  0  0  0  0  0  0  0  0  0  0  0
   36.1690   30.0752   41.1338 C   0  0  0  0  0  0  0  0  0  0  0  0
   38.6499   28.1539   42.7158 C   0  0  0  0  0  0  0  0  0  0  0  0
   37.5600   27.3459   42.8696 C   0  0  0  0  0  0  0  0  0  0  0  0
   36.4849   28.0080   42.2691 C   0  0  0  0  0  0  0  0  0  0  0  0
   37.0124   29.1493   41.8081 N   0  0  0  0  0  0  0  0  0  0  0  0
   38.2825   29.2824   42.0455 N   0  0  0  0  0  0  0  0  0  0  0  0
   41.5722   26.5480   44.3829 C   0  0  0  0  0  0  0  0  0  0  0  0
   40.2590   26.7587   43.9497 C   0  0  0  0  0  0  0  0  0  0  0  0
   40.0016   27.9034   43.1749 C   0  0  0  0  0  0  0  0  0  0  0  0
   41.0108   28.7672   42.8660 N   0  0  0  0  0  0  0  0  0  0  0  0
   42.2769   28.4873   43.3317 C   0  0  0  0  0  0  0  0  0  0  0  0
   42.5425   27.4116   44.0655 N   0  0  0  0  0  0  0  0  0  0  0  0
   34.5504   30.3689   39.9712 H   0  0  0  0  0  0  0  0  0  0  0  0
   34.8341   28.5831   40.4374 H   0  0  0  0  0  0  0  0  0  0  0  0
   37.8833   29.7524   39.2311 H   0  0  0  0  0  0  0  0  0  0  0  0
   38.7811   29.7536   37.0049 H   0  0  0  0  0  0  0  0  0  0  0  0
   37.2847   29.4330   35.0600 H   0  0  0  0  0  0  0  0  0  0  0  0
   35.1296   29.0789   34.2050 H   0  0  0  0  0  0  0  0  0  0  0  0
   32.7616   28.7502   34.5049 H   0  0  0  0  0  0  0  0  0  0  0  0
   31.7844   28.7224   36.7701 H   0  0  0  0  0  0  0  0  0  0  0  0
   32.6379   28.1822   39.3189 H   0  0  0  0  0  0  0  0  0  0  0  0
   36.7737   30.8652   40.6356 H   0  0  0  0  0  0  0  0  0  0  0  0
   35.5840   30.6059   41.9281 H   0  0  0  0  0  0  0  0  0  0  0  0
   37.5317   26.3648   43.3685 H   0  0  0  0  0  0  0  0  0  0  0  0
   35.5039   27.5873   42.2494 H   0  0  0  0  0  0  0  0  0  0  0  0
   41.7121   25.6571   44.9722 H   0  0  0  0  0  0  0  0  0  0  0  0
   39.4773   26.0823   44.1932 H   0  0  0  0  0  0  0  0  0  0  0  0
   43.3800   29.3910   43.0195 C   0  0  0  0  0  0  0  0  0  0  0  0
   44.4767   29.3769   43.8898 C   0  0  0  0  0  0  0  0  0  0  0  0
   45.3708   30.3109   43.3760 C   0  0  0  0  0  0  0  0  0  0  0  0
   44.7696   30.8361   42.2294 C   0  0  0  0  0  0  0  0  0  0  0  0
   45.1964   31.5996   41.5732 H   0  0  0  0  0  0  0  0  0  0  0  0
   43.6160   30.2562   42.0835 O   0  0  0  0  0  0  0  0  0  0  0  0
   44.7264   28.8424   44.7753 H   0  0  0  0  0  0  0  0  0  0  0  0
   46.3432   30.6025   43.7544 H   0  0  0  0  0  0  0  0  0  0  0  0
  1 13  1  0
  2  1  1  0
  3  2  2  0
  4  3  1  0
  5  6  1  0
  5  4  2  0
  6 11  2  0
  7  8  2  0
  7  6  1  0
  8  9  1  0
  9 10  2  0
 10 12  1  0
 11 10  1  0
 11  2  1  0
 13 17  1  0
 14 15  1  0
 14 21  1  0
 16 15  2  0
 17 18  1  0
 17 16  1  0
 18 14  2  0
 20 19  2  0
 21 20  1  0
 22 21  2  0
 22 23  1  0
 23 24  2  0
 24 19  1  0
  1 25  1  0
  1 26  1  0
  3 27  1  0
  4 28  1  0
  5 29  1  0
  7 30  1  0
  8 31  1  0
  9 32  1  0
 12 33  1  0
 13 34  1  0
 13 35  1  0
 15 36  1  0
 16 37  1  0
 19 38  1  0
 20 39  1  0
 40 41  2  0
 41 42  1  0
 42 43  2  0
 43 44  1  0
 43 45  1  0
 45 40  1  0
 41 46  1  0
 42 47  1  0
 23 40  1  0
M  ISO  8  25   8  26   8  27  14  28  14  29  14  30  14  31  14  32  14
M  ISO  8  33   3  34   8  35   8  36  14  37  14  38  14  39  14  44  14
M  END
>  <DihAtoms>  (1) 
21,22,39,40

>  <DihDeg>  (1) 
51.01630567992342

$$$$
