
 OpenBabel03242508403D

 28 30  0  0  1  0  0  0  0  0999 V2000
   37.0750   30.1480   39.3930 C   0  0  2  0  0  0  0  0  0  0  0  0
   36.2070   30.1570   38.1670 C   0  0  0  0  0  0  0  0  0  0  0  0
   35.2270   29.0320   38.4140 C   0  0  0  0  0  0  0  0  0  0  0  0
   35.2810   28.7410   39.8710 C   0  0  0  0  0  0  0  0  0  0  0  0
   36.1140   29.8740   40.4920 C   0  0  1  0  0  0  0  0  0  0  0  0
   37.7350   29.2430   39.3210 H   0  0  0  0  0  0  0  0  0  0  0  0
   36.8070   29.9680   37.2480 H   0  0  0  0  0  0  0  0  0  0  0  0
   35.6140   31.0910   38.0870 H   0  0  0  0  0  0  0  0  0  0  0  0
   34.1840   29.2970   38.0850 H   0  0  0  0  0  0  0  0  0  0  0  0
   35.5380   28.1610   37.7830 H   0  0  0  0  0  0  0  0  0  0  0  0
   34.2920   28.6740   40.3460 H   0  0  0  0  0  0  0  0  0  0  0  0
   35.7670   27.7720   40.0100 H   0  0  0  0  0  0  0  0  0  0  0  0
   35.4590   30.7130   40.7910 H   0  0  0  0  0  0  0  0  0  0  0  0
   37.3910   32.5810   40.0620 C   0  0  0  0  0  0  0  0  0  0  0  0
   37.8550   31.3520   39.5790 C   0  0  0  0  0  0  0  0  0  0  0  0
   39.1990   31.2520   39.2260 C   0  0  0  0  0  0  0  0  0  0  0  0
   40.0060   32.3540   39.3640 N   0  0  0  0  0  0  0  0  0  0  0  0
   39.5210   33.5430   39.8380 C   0  0  0  0  0  0  0  0  0  0  0  0
   38.2000   33.6370   40.1850 N   0  0  0  0  0  0  0  0  0  0  0  0
   36.3380   32.5350   40.3020 H   0  0  0  0  0  0  0  0  0  0  0  0
   39.8010   30.4560   38.8360 H   0  0  0  0  0  0  0  0  0  0  0  0
   40.1630   34.4060   39.9430 H   0  0  0  0  0  0  0  0  0  0  0  0
   36.7220   29.1830   41.6700 C   0  0  0  0  0  0  0  0  0  0  0  0
   36.4910   27.8900   42.1050 C   0  0  0  0  0  0  0  0  0  0  0  0
   37.3120   27.7810   43.2260 C   0  0  0  0  0  0  0  0  0  0  0  0
   37.9590   28.9720   43.3890 C   0  0  0  0  0  0  0  0  0  0  0  0
   38.6620   29.2180   44.1570 H   0  0  0  0  0  0  0  0  0  0  0  0
   37.5990   29.8270   42.4380 O   0  0  0  0  0  0  0  0  0  0  0  0
  1  6  1  6  0  0  0
  1 15  1  0  0  0  0
  1  5  1  0  0  0  0
  2  3  1  0  0  0  0
  2  1  1  0  0  0  0
  3  4  1  0  0  0  0
  4 12  1  0  0  0  0
  4 11  1  0  0  0  0
  4  5  1  0  0  0  0
  5 13  1  1  0  0  0
  5 23  1  0  0  0  0
  7  2  1  0  0  0  0
  8  2  1  0  0  0  0
  9  3  1  0  0  0  0
 10  3  1  0  0  0  0
 14 19  1  0  0  0  0
 14 20  1  0  0  0  0
 15 14  2  0  0  0  0
 16 17  2  0  0  0  0
 16 15  1  0  0  0  0
 17 18  1  0  0  0  0
 18 22  1  0  0  0  0
 18 19  2  0  0  0  0
 21 16  1  0  0  0  0
 23 24  2  0  0  0  0
 23 28  1  0  0  0  0
 24 25  1  0  0  0  0
 25 26  2  0  0  0  0
 26 27  1  0  0  0  0
 28 26  1  0  0  0  0
M  END
>  <minimizedAffinity>
-4.85384226

>  <minimizedRMSD>
5.40918255

$$$$
