
 OpenBabel03242507153D

 35 39  0  0  0  0  0  0  0  0999 V2000
   36.8760   28.4550   41.9780 N   0  0  0  0  0  0  0  0  0  0  0  0
   36.5420   27.5340   42.9020 C   0  0  0  0  0  0  0  0  0  0  0  0
   37.3610   27.7940   43.9700 C   0  0  0  0  0  0  0  0  0  0  0  0
   38.1810   28.8530   43.7020 N   0  0  0  0  0  0  0  0  0  0  0  0
   37.8550   29.2440   42.4540 C   0  0  0  0  0  0  0  0  0  0  0  0
   38.5980   30.3560   41.9570 N   0  0  0  0  0  0  0  0  0  0  0  0
   39.9210   30.5380   42.2450 C   0  0  0  0  0  0  0  0  0  0  0  0
   40.3990   31.6660   41.6560 N   0  0  0  0  0  0  0  0  0  0  0  0
   39.3750   32.2180   40.9840 C   0  0  0  0  0  0  0  0  0  0  0  0
   39.2620   33.3560   40.2070 C   0  0  0  0  0  0  0  0  0  0  0  0
   38.0470   33.5900   39.6830 N   0  0  0  0  0  0  0  0  0  0  0  0
   36.9890   32.8000   39.8730 C   0  0  0  0  0  0  0  0  0  0  0  0
   37.0790   31.6790   40.6310 N   0  0  0  0  0  0  0  0  0  0  0  0
   38.2730   31.4140   41.1690 C   0  0  0  0  0  0  0  0  0  0  0  0
   35.7980   26.7620   42.8320 H   0  0  0  0  0  0  0  0  0  0  0  0
   37.3500   27.2210   44.9080 H   0  0  0  0  0  0  0  0  0  0  0  0
   40.6110   29.9650   42.8290 H   0  0  0  0  0  0  0  0  0  0  0  0
   36.0160   33.0020   39.4440 H   0  0  0  0  0  0  0  0  0  0  0  0
   35.0190   29.0450   40.4840 C   0  0  0  0  0  0  0  0  0  0  0  0
   36.3070   28.5930   40.7070 C   0  0  0  0  0  0  0  0  0  0  0  0
   37.0810   28.2550   39.5710 C   0  0  0  0  0  0  0  0  0  0  0  0
   36.5120   28.3950   38.3420 N   0  0  0  0  0  0  0  0  0  0  0  0
   35.2360   28.8460   38.1740 C   0  0  0  0  0  0  0  0  0  0  0  0
   34.4740   29.1770   39.2620 N   0  0  0  0  0  0  0  0  0  0  0  0
   34.4130   29.3090   41.3630 H   0  0  0  0  0  0  0  0  0  0  0  0
   38.0940   27.8950   39.6470 H   0  0  0  0  0  0  0  0  0  0  0  0
   34.6790   28.9770   36.8340 C   0  0  0  0  0  0  0  0  0  0  0  0
   33.2890   29.0870   36.7560 C   0  0  0  0  0  0  0  0  0  0  0  0
   32.9540   29.2010   35.4100 C   0  0  0  0  0  0  0  0  0  0  0  0
   34.1780   29.1510   34.7470 C   0  0  0  0  0  0  0  0  0  0  0  0
   34.3690   29.2060   33.6790 H   0  0  0  0  0  0  0  0  0  0  0  0
   35.1530   29.0200   35.6100 O   0  0  0  0  0  0  0  0  0  0  0  0
   40.3690   34.2230   39.9810 N   0  0  0  0  0  0  0  0  0  0  0  0
   40.1650   35.1480   39.5660 H   0  0  0  0  0  0  0  0  0  0  0  0
   41.3090   33.8780   40.2460 H   0  0  0  0  0  0  0  0  0  0  0  0
  1  5  1  0  0  0  0
  1  2  1  0  0  0  0
  2  3  2  0  0  0  0
  3 16  1  0  0  0  0
  4  3  1  0  0  0  0
  5  4  2  0  0  0  0
  6  7  1  0  0  0  0
  6  5  1  0  0  0  0
  7 17  1  0  0  0  0
  8  7  2  0  0  0  0
  9 14  1  0  0  0  0
  9  8  1  0  0  0  0
 10  9  2  0  0  0  0
 11 12  2  0  0  0  0
 11 10  1  0  0  0  0
 12 13  1  0  0  0  0
 13 14  2  0  0  0  0
 14  6  1  0  0  0  0
 15  2  1  0  0  0  0
 18 12  1  0  0  0  0
 19 20  1  0  0  0  0
 19 25  1  0  0  0  0
 20  1  1  0  0  0  0
 21 26  1  0  0  0  0
 21 20  2  0  0  0  0
 22 21  1  0  0  0  0
 23 22  2  0  0  0  0
 23 24  1  0  0  0  0
 24 19  2  0  0  0  0
 27 23  1  0  0  0  0
 28 27  2  0  0  0  0
 29 28  1  0  0  0  0
 30 29  2  0  0  0  0
 30 32  1  0  0  0  0
 31 30  1  0  0  0  0
 32 27  1  0  0  0  0
 33 10  1  0  0  0  0
 33 35  1  0  0  0  0
 34 33  1  0  0  0  0
M  END
>  <minimizedAffinity>
-6.14883327

>  <minimizedRMSD>
1.75947618

$$$$
