
 OpenBabel03242509323D

 18 19  0  0  0  0  0  0  0  0999 V2000
   37.8370   28.6620   43.5500 C   0  0  0  0  0  0  0  0  0  0  0  0
   38.3900   27.3530   43.6540 C   0  0  0  0  0  0  0  0  0  0  0  0
   38.2730   26.5170   42.5480 C   0  0  0  0  0  0  0  0  0  0  0  0
   37.6340   27.0010   41.4270 N   0  0  0  0  0  0  0  0  0  0  0  0
   37.1300   28.2410   41.3780 C   0  0  0  0  0  0  0  0  0  0  0  0
   37.2350   29.0630   42.4390 N   0  0  0  0  0  0  0  0  0  0  0  0
   37.9060   29.3530   44.3900 H   0  0  0  0  0  0  0  0  0  0  0  0
   38.8710   27.0530   44.5590 H   0  0  0  0  0  0  0  0  0  0  0  0
   36.4740   28.6500   40.1420 C   0  0  0  0  0  0  0  0  0  0  0  0
   36.9400   29.8110   39.5160 C   0  0  0  0  0  3  0  0  0  0  0  0
   36.1910   30.0090   38.3820 C   0  0  0  0  0  3  0  0  0  0  0  0
   35.2980   28.9580   38.3650 C   0  0  0  0  0  0  0  0  0  0  0  0
   34.4990   28.6260   37.7190 H   0  0  0  0  0  0  0  0  0  0  0  0
   35.4910   28.1710   39.4200 O   0  0  0  0  0  0  0  0  0  0  0  0
   38.8360   25.1450   42.6160 C   0  0  0  0  0  0  0  0  0  0  0  0
   39.6110   25.0060   41.4760 F   0  0  0  0  0  0  0  0  0  0  0  0
   39.6270   24.9610   43.7080 F   0  0  0  0  0  0  0  0  0  0  0  0
   37.8400   24.1740   42.6010 F   0  0  0  0  0  0  0  0  0  0  0  0
  1  2  1  0  0  0  0
  1  7  1  0  0  0  0
  2  8  1  0  0  0  0
  3 15  1  0  0  0  0
  3  2  2  0  0  0  0
  4  3  1  0  0  0  0
  5  4  2  0  0  0  0
  5  6  1  0  0  0  0
  6  1  2  0  0  0  0
  9  5  1  0  0  0  0
 10  9  2  0  0  0  0
 11 10  1  0  0  0  0
 12 11  2  0  0  0  0
 12 14  1  0  0  0  0
 13 12  1  0  0  0  0
 14  9  1  0  0  0  0
 15 17  1  0  0  0  0
 16 15  1  0  0  0  0
 18 15  1  0  0  0  0
M  END
>  <minimizedAffinity>
-4.03271389

>  <minimizedRMSD>
1.26814842

$$$$
