
 OpenBabel03242508273D

 21 23  0  0  0  0  0  0  0  0999 V2000
   36.9970   31.5110   40.4890 C   0  0  0  0  0  0  0  0  0  0  0  0
   36.9240   31.6250   39.1340 N   0  0  0  0  0  0  0  0  0  0  0  0
   37.7330   32.5790   38.7470 O   0  0  0  0  0  0  0  0  0  0  0  0
   38.3110   33.0670   39.8240 C   0  0  0  0  0  0  0  0  0  0  0  0
   37.8810   32.4310   40.9170 N   0  0  0  0  0  0  0  0  0  0  0  0
   39.2840   34.1520   39.7920 C   0  0  0  0  0  0  0  0  0  0  0  0
   39.0610   35.4640   40.2060 C   0  0  0  0  0  0  0  0  0  0  0  0
   40.2140   36.1980   40.0250 C   0  0  0  0  0  0  0  0  0  0  0  0
   41.1180   35.2820   39.4960 C   0  0  0  0  0  0  0  0  0  0  0  0
   42.1450   35.4870   39.2170 H   0  0  0  0  0  0  0  0  0  0  0  0
   40.5180   34.1370   39.3910 O   0  0  0  0  0  0  0  0  0  0  0  0
   36.3390   30.6540   41.3620 O   0  0  0  0  0  0  0  0  0  0  0  0
   38.6440   28.5130   43.1780 C   0  0  0  0  0  0  0  0  0  0  0  0
   38.0620   27.2550   42.8840 C   0  0  0  0  0  0  0  0  0  0  0  0
   36.9030   27.2470   42.0710 C   0  0  0  0  0  0  0  0  0  0  0  0
   36.4270   28.4460   41.6270 N   0  0  0  0  0  0  0  0  0  0  0  0
   37.0160   29.6020   41.9350 C   0  0  0  0  0  0  0  0  0  0  0  0
   38.1140   29.6440   42.7020 N   0  0  0  0  0  0  0  0  0  0  0  0
   39.5270   28.5160   43.7990 H   0  0  0  0  0  0  0  0  0  0  0  0
   38.4430   26.3170   43.2390 H   0  0  0  0  0  0  0  0  0  0  0  0
   36.4420   26.2900   41.8350 H   0  0  0  0  0  0  0  0  0  0  0  0
  1  5  1  0  0  0  0
  1 12  1  0  0  0  0
  2  1  2  0  0  0  0
  3  2  1  0  0  0  0
  3  4  1  0  0  0  0
  4  5  2  0  0  0  0
  6  4  1  0  0  0  0
  6  7  2  0  0  0  0
  8  7  1  0  0  0  0
  9  8  2  0  0  0  0
 10  9  1  0  0  0  0
 11  9  1  0  0  0  0
 11  6  1  0  0  0  0
 12 17  1  0  0  0  0
 13 19  1  0  0  0  0
 14 13  1  0  0  0  0
 14 20  1  0  0  0  0
 15 14  2  0  0  0  0
 16 17  2  0  0  0  0
 16 15  1  0  0  0  0
 17 18  1  0  0  0  0
 18 13  2  0  0  0  0
 21 15  1  0  0  0  0
M  END
>  <minimizedAffinity>
-5.08032799

>  <minimizedRMSD>
1.28577876

$$$$
