
 OpenBabel03242509143D

 22 24  0  0  1  0  0  0  0  0999 V2000
   38.3190   31.4580   39.9640 C   0  0  1  0  0  0  0  0  0  0  0  0
   37.3430   32.0330   39.0660 C   0  0  0  0  0  0  0  0  0  0  0  0
   37.6770   32.8600   40.2580 C   0  0  2  0  0  0  0  0  0  0  0  0
   39.4050   31.5160   39.7020 H   0  0  0  0  0  0  0  0  0  0  0  0
   36.3210   31.5670   39.0770 H   0  0  0  0  0  0  0  0  0  0  0  0
   37.6260   32.3970   38.0780 H   0  0  0  0  0  0  0  0  0  0  0  0
   36.9930   32.9110   41.1120 H   0  0  0  0  0  0  0  0  0  0  0  0
   37.9470   30.4070   40.9840 C   0  0  0  0  0  0  0  0  0  0  0  0
   38.7940   30.3000   42.1050 C   0  0  0  0  0  0  0  0  0  0  0  0
   38.4590   29.3210   43.0280 C   0  0  0  0  0  0  0  0  0  0  0  0
   37.3590   28.5260   42.8230 N   0  0  0  0  0  0  0  0  0  0  0  0
   36.5750   28.6690   41.7270 C   0  0  0  0  0  0  0  0  0  0  0  0
   36.8850   29.6220   40.8070 N   0  0  0  0  0  0  0  0  0  0  0  0
   39.6350   30.9580   42.1940 H   0  0  0  0  0  0  0  0  0  0  0  0
   39.0910   29.2160   43.9000 H   0  0  0  0  0  0  0  0  0  0  0  0
   35.7260   28.0070   41.6320 H   0  0  0  0  0  0  0  0  0  0  0  0
   38.6180   33.9930   40.1460 C   0  0  0  0  0  0  0  0  0  0  0  0
   39.9870   33.8710   40.0460 C   0  0  0  0  0  0  0  0  0  0  0  0
   40.5320   35.1500   39.9590 C   0  0  0  0  0  0  0  0  0  0  0  0
   39.4410   35.9690   40.0130 C   0  0  0  0  0  0  0  0  0  0  0  0
   39.5060   37.0590   39.9710 H   0  0  0  0  0  0  0  0  0  0  0  0
   38.3400   35.2720   40.1230 O   0  0  0  0  0  0  0  0  0  0  0  0
  1  4  1  6  0  0  0
  1  3  1  0  0  0  0
  1  8  1  0  0  0  0
  2  5  1  0  0  0  0
  2  1  1  0  0  0  0
  2  3  1  0  0  0  0
  3  7  1  1  0  0  0
  6  2  1  0  0  0  0
  8  9  1  0  0  0  0
  9 14  1  0  0  0  0
  9 10  2  0  0  0  0
 10 15  1  0  0  0  0
 11 10  1  0  0  0  0
 12 11  2  0  0  0  0
 13  8  2  0  0  0  0
 13 12  1  0  0  0  0
 16 12  1  0  0  0  0
 17  3  1  0  0  0  0
 18 17  2  0  0  0  0
 19 20  2  0  0  0  0
 19 18  1  0  0  0  0
 20 22  1  0  0  0  0
 21 20  1  0  0  0  0
 22 17  1  0  0  0  0
M  END
>  <minimizedAffinity>
-4.35451317

>  <minimizedRMSD>
7.76383352

$$$$
