
 OpenBabel03242506433D

 27 30  0  0  0  0  0  0  0  0999 V2000
   36.8070   27.0410   42.6490 C   0  0  0  0  0  0  0  0  0  0  0  0
   36.4440   28.2480   42.0050 C   0  0  0  0  0  0  0  0  0  0  0  0
   37.4270   29.2360   41.8390 C   0  0  0  0  0  0  0  0  0  0  0  0
   38.6840   29.0060   42.2990 N   0  0  0  0  0  0  0  0  0  0  0  0
   38.9960   27.8360   42.9120 C   0  0  0  0  0  0  0  0  0  0  0  0
   38.0750   26.8700   43.0850 N   0  0  0  0  0  0  0  0  0  0  0  0
   36.0050   26.3260   42.7440 H   0  0  0  0  0  0  0  0  0  0  0  0
   35.4180   28.4070   41.6430 H   0  0  0  0  0  0  0  0  0  0  0  0
   40.3710   27.6720   43.3760 C   0  0  0  0  0  0  0  0  0  0  0  0
   40.6890   26.5220   44.1020 C   0  0  0  0  0  0  0  0  0  0  0  0
   42.0490   26.6090   44.4220 C   0  0  0  0  0  0  0  0  0  0  0  0
   42.4660   27.8230   43.8620 C   0  0  0  0  0  0  0  0  0  0  0  0
   43.4620   28.2610   43.8890 H   0  0  0  0  0  0  0  0  0  0  0  0
   41.4520   28.4190   43.2550 O   0  0  0  0  0  0  0  0  0  0  0  0
   37.0160   30.3790   41.2090 O   0  0  0  0  0  0  0  0  0  0  0  0
   39.6040   33.5250   39.1700 N   0  0  0  0  0  0  0  0  0  0  0  0
   39.3590   33.8220   40.4670 C   0  0  0  0  0  0  0  0  0  0  0  0
   38.5900   32.8380   40.9800 N   0  0  0  0  0  0  0  0  0  0  0  0
   38.3300   31.9010   40.0340 C   0  0  0  0  0  0  0  0  0  0  0  0
   37.6210   30.7170   39.9950 C   0  0  0  0  0  0  0  0  0  0  0  0
   37.5760   30.0140   38.8260 N   0  0  0  0  0  0  0  0  0  0  0  0
   38.2110   30.4710   37.7430 C   0  0  0  0  0  0  0  0  0  0  0  0
   38.9150   31.6320   37.7540 N   0  0  0  0  0  0  0  0  0  0  0  0
   38.9880   32.3680   38.8990 C   0  0  0  0  0  0  0  0  0  0  0  0
   40.1810   34.1360   38.5490 H   0  0  0  0  0  0  0  0  0  0  0  0
   39.6590   34.6520   41.0950 H   0  0  0  0  0  0  0  0  0  0  0  0
   38.1260   29.8510   36.8530 H   0  0  0  0  0  0  0  0  0  0  0  0
  1  7  1  0  0  0  0
  1  6  1  0  0  0  0
  2  1  2  0  0  0  0
  3  2  1  0  0  0  0
  3  4  2  0  0  0  0
  4  5  1  0  0  0  0
  5  6  2  0  0  0  0
  5  9  1  0  0  0  0
  8  2  1  0  0  0  0
  9 10  2  0  0  0  0
 10 11  1  0  0  0  0
 12 13  1  0  0  0  0
 12 11  2  0  0  0  0
 14  9  1  0  0  0  0
 14 12  1  0  0  0  0
 15  3  1  0  0  0  0
 16 17  1  0  0  0  0
 17 18  2  0  0  0  0
 17 26  1  0  0  0  0
 19 18  1  0  0  0  0
 20 19  1  0  0  0  0
 20 15  1  0  0  0  0
 21 20  2  0  0  0  0
 22 23  2  0  0  0  0
 22 21  1  0  0  0  0
 23 24  1  0  0  0  0
 24 16  1  0  0  0  0
 24 19  2  0  0  0  0
 25 16  1  0  0  0  0
 27 22  1  0  0  0  0
M  END
>  <minimizedAffinity>
-5.27274752

>  <minimizedRMSD>
3.49651241

$$$$
