
 OpenBabel03242509233D

 44 48  0  0  0  0  0  0  0  0999 V2000
   37.8720   31.9330   38.7300 C   0  0  0  0  0  0  0  0  0  0  0  0
   37.5790   32.9700   38.4150 H   0  0  0  0  0  0  0  0  0  0  0  0
   37.3080   31.0850   38.4380 H   0  0  0  0  0  0  0  0  0  0  0  0
   39.3280   31.9210   38.5520 C   0  0  0  0  0  0  0  0  0  0  0  0
   40.2150   32.9110   38.8690 C   0  0  0  0  0  0  0  0  0  0  0  0
   41.5650   32.8980   38.6440 C   0  0  0  0  0  0  0  0  0  0  0  0
   42.1280   31.7970   38.0430 C   0  0  0  0  0  0  0  0  0  0  0  0
   41.2860   30.7490   37.6950 C   0  0  0  0  0  0  0  0  0  0  0  0
   41.9230   29.6650   37.1220 C   0  0  0  0  0  0  0  0  0  0  0  0
   41.1890   28.5770   36.7740 C   0  0  0  0  0  0  0  0  0  0  0  0
   39.8380   28.5940   37.0050 C   0  0  0  0  0  0  0  0  0  0  0  0
   39.2450   29.6990   37.5770 C   0  0  0  0  0  0  0  0  0  0  0  0
   39.9320   30.8160   37.9450 C   0  0  0  0  0  0  0  0  0  0  0  0
   39.8420   33.8020   39.3490 H   0  0  0  0  0  0  0  0  0  0  0  0
   42.2060   33.7270   38.9250 H   0  0  0  0  0  0  0  0  0  0  0  0
   43.1940   31.7900   37.8660 H   0  0  0  0  0  0  0  0  0  0  0  0
   42.9860   29.6600   36.9420 H   0  0  0  0  0  0  0  0  0  0  0  0
   41.7060   27.7290   36.3240 H   0  0  0  0  0  0  0  0  0  0  0  0
   39.3340   27.6710   36.6920 H   0  0  0  0  0  0  0  0  0  0  0  0
   37.8050   29.4520   37.7380 C   0  0  0  0  0  0  0  0  0  0  0  0
   36.5630   29.8650   37.2740 C   0  0  0  0  0  0  0  0  0  0  0  0
   35.5590   29.1520   37.8860 C   0  0  0  0  0  0  0  0  0  0  0  0
   36.2740   28.3200   38.7130 C   0  0  0  0  0  0  0  0  0  0  0  0
   35.7520   27.6100   39.3520 H   0  0  0  0  0  0  0  0  0  0  0  0
   37.5680   28.4820   38.6380 O   0  0  0  0  0  0  0  0  0  0  0  0
   37.4290   32.0920   40.1650 C   0  0  0  0  0  0  0  0  0  0  0  0
   37.9240   32.9800   40.5880 H   0  0  0  0  0  0  0  0  0  0  0  0
   36.3220   32.3530   40.2520 H   0  0  0  0  0  0  0  0  0  0  0  0
   38.2970   29.3280   42.1670 C   0  0  0  0  0  0  0  0  0  0  0  0
   36.9370   29.2940   42.2620 C   0  0  0  0  0  0  0  0  0  0  0  0
   36.4690   30.3550   41.4910 C   0  0  0  0  0  0  0  0  0  0  0  0
   37.5760   30.9510   40.9880 N   0  0  0  0  0  0  0  0  0  0  0  0
   38.6370   30.3520   41.3820 N   0  0  0  0  0  0  0  0  0  0  0  0
   36.3770   28.5690   42.8350 H   0  0  0  0  0  0  0  0  0  0  0  0
   35.4150   30.5510   41.3980 H   0  0  0  0  0  0  0  0  0  0  0  0
   39.7080   26.4300   44.0450 C   0  0  0  0  0  0  0  0  0  0  0  0
   38.7550   27.2580   43.4280 C   0  0  0  0  0  0  0  0  0  0  0  0
   39.2340   28.4310   42.8080 C   0  0  0  0  0  0  0  0  0  0  0  0
   40.5590   28.7270   42.8190 N   0  0  0  0  0  0  0  0  0  0  0  0
   41.4350   27.8750   43.4390 C   0  0  0  0  0  0  0  0  0  0  0  0
   41.0190   26.7550   44.0360 N   0  0  0  0  0  0  0  0  0  0  0  0
   39.3290   25.5290   44.5190 H   0  0  0  0  0  0  0  0  0  0  0  0
   37.6970   27.0520   43.4010 H   0  0  0  0  0  0  0  0  0  0  0  0
   42.4600   28.2120   43.3850 H   0  0  0  0  0  0  0  0  0  0  0  0
  1 26  1  0  0  0  0
  2  1  1  0  0  0  0
  3  1  1  0  0  0  0
  4  1  1  0  0  0  0
  4  5  1  0  0  0  0
  5 14  1  0  0  0  0
  6  5  2  0  0  0  0
  6 15  1  0  0  0  0
  7  6  1  0  0  0  0
  8 13  1  0  0  0  0
  8  7  2  0  0  0  0
  9  8  1  0  0  0  0
 10 11  1  0  0  0  0
 10  9  2  0  0  0  0
 11 12  2  0  0  0  0
 12 20  1  0  0  0  0
 12 13  1  0  0  0  0
 13  4  2  0  0  0  0
 16  7  1  0  0  0  0
 17  9  1  0  0  0  0
 18 10  1  0  0  0  0
 19 11  1  0  0  0  0
 20 25  1  0  0  0  0
 21 20  2  0  0  0  0
 21 22  1  0  0  0  0
 22 23  2  0  0  0  0
 23 24  1  0  0  0  0
 25 23  1  0  0  0  0
 26 28  1  0  0  0  0
 26 27  1  0  0  0  0
 26 32  1  0  0  0  0
 29 30  1  0  0  0  0
 29 38  1  0  0  0  0
 30 34  1  0  0  0  0
 31 30  2  0  0  0  0
 32 33  1  0  0  0  0
 32 31  1  0  0  0  0
 33 29  2  0  0  0  0
 35 31  1  0  0  0  0
 36 42  1  0  0  0  0
 37 36  2  0  0  0  0
 38 39  2  0  0  0  0
 38 37  1  0  0  0  0
 39 40  1  0  0  0  0
 40 41  2  0  0  0  0
 41 36  1  0  0  0  0
 43 37  1  0  0  0  0
 44 40  1  0  0  0  0
M  END
>  <minimizedAffinity>
-5.47114849

>  <minimizedRMSD>
4.26447773

$$$$
