
 OpenBabel03242509253D

 42 45  0  0  0  0  0  0  0  0999 V2000
   35.2660   29.4960   40.0660 C   0  0  0  0  0  0  0  0  0  0  0  0
   34.7890   28.5970   40.4360 H   0  0  0  0  0  0  0  0  0  0  0  0
   34.5540   30.3810   39.9380 H   0  0  0  0  0  0  0  0  0  0  0  0
   35.8860   29.4100   38.7310 C   0  0  0  0  0  0  0  0  0  0  0  0
   37.2040   29.5380   38.4070 C   0  0  0  0  0  0  0  0  0  0  0  0
   37.7310   29.5270   37.1480 C   0  0  0  0  0  0  0  0  0  0  0  0
   36.8830   29.3740   36.0650 C   0  0  0  0  0  0  0  0  0  0  0  0
   35.5350   29.2360   36.3210 C   0  0  0  0  0  0  0  0  0  0  0  0
   34.7500   29.0900   35.2050 C   0  0  0  0  0  0  0  0  0  0  0  0
   33.3980   28.9440   35.3470 C   0  0  0  0  0  0  0  0  0  0  0  0
   32.8530   28.9450   36.6120 C   0  0  0  0  0  0  0  0  0  0  0  0
   33.6860   29.0950   37.6800 C   0  0  0  0  0  0  0  0  0  0  0  0
   35.0350   29.2510   37.6240 C   0  0  0  0  0  0  0  0  0  0  0  0
   37.8840   29.6600   39.2540 H   0  0  0  0  0  0  0  0  0  0  0  0
   38.7990   29.6380   37.0350 H   0  0  0  0  0  0  0  0  0  0  0  0
   37.3190   29.3690   35.0800 H   0  0  0  0  0  0  0  0  0  0  0  0
   35.1430   29.0830   34.2050 H   0  0  0  0  0  0  0  0  0  0  0  0
   32.7430   28.8280   34.4930 H   0  0  0  0  0  0  0  0  0  0  0  0
   31.7840   28.8280   36.7190 H   0  0  0  0  0  0  0  0  0  0  0  0
   33.0710   29.0710   38.9260 O   0  0  0  0  0  0  0  0  0  0  0  0
   32.5890   28.2320   39.2340 H   0  0  0  0  0  0  0  0  0  0  0  0
   36.1510   30.0650   41.1260 C   0  0  0  0  0  0  0  0  0  0  0  0
   35.5340   30.5580   41.9330 H   0  0  0  0  0  0  0  0  0  0  0  0
   36.7490   30.8840   40.6760 H   0  0  0  0  0  0  0  0  0  0  0  0
   38.6290   28.1450   42.7120 C   0  0  0  0  0  0  0  0  0  0  0  0
   37.5440   27.3320   42.8480 C   0  0  0  0  0  0  0  0  0  0  0  0
   36.4700   27.9930   42.2440 C   0  0  0  0  0  0  0  0  0  0  0  0
   36.9940   29.1370   41.8020 N   0  0  0  0  0  0  0  0  0  0  0  0
   38.2550   29.2710   42.0510 N   0  0  0  0  0  0  0  0  0  0  0  0
   37.5820   26.3620   43.3460 H   0  0  0  0  0  0  0  0  0  0  0  0
   35.4870   27.5590   42.2150 H   0  0  0  0  0  0  0  0  0  0  0  0
   41.5550   26.5330   44.3650 C   0  0  0  0  0  0  0  0  0  0  0  0
   40.2390   26.7360   43.9310 C   0  0  0  0  0  0  0  0  0  0  0  0
   39.9750   27.8920   43.1810 C   0  0  0  0  0  0  0  0  0  0  0  0
   40.9800   28.7640   42.9020 N   0  0  0  0  0  0  0  0  0  0  0  0
   42.2480   28.5090   43.3560 C   0  0  0  0  0  0  0  0  0  0  0  0
   42.5190   27.4090   44.0750 N   0  0  0  0  0  0  0  0  0  0  0  0
   41.7850   25.6430   44.9490 H   0  0  0  0  0  0  0  0  0  0  0  0
   39.4480   26.0500   44.1500 H   0  0  0  0  0  0  0  0  0  0  0  0
   43.2710   29.4450   43.0440 N   0  0  0  0  0  0  0  0  0  0  0  0
   43.0570   30.3480   42.5930 H   0  0  0  0  0  0  0  0  0  0  0  0
   44.2610   29.2110   43.2770 H   0  0  0  0  0  0  0  0  0  0  0  0
  1  2  1  0  0  0  0
  1 22  1  0  0  0  0
  3  1  1  0  0  0  0
  4  1  1  0  0  0  0
  5  4  1  0  0  0  0
  5 14  1  0  0  0  0
  6  5  2  0  0  0  0
  7  8  2  0  0  0  0
  7  6  1  0  0  0  0
  8 13  1  0  0  0  0
  9 10  2  0  0  0  0
  9  8  1  0  0  0  0
 10 11  1  0  0  0  0
 11 19  1  0  0  0  0
 11 12  2  0  0  0  0
 12 20  1  0  0  0  0
 13 12  1  0  0  0  0
 13  4  2  0  0  0  0
 15  6  1  0  0  0  0
 16  7  1  0  0  0  0
 17  9  1  0  0  0  0
 18 10  1  0  0  0  0
 20 21  1  0  0  0  0
 22 28  1  0  0  0  0
 22 23  1  0  0  0  0
 24 22  1  0  0  0  0
 25 26  1  0  0  0  0
 25 34  1  0  0  0  0
 26 30  1  0  0  0  0
 27 26  2  0  0  0  0
 28 29  1  0  0  0  0
 28 27  1  0  0  0  0
 29 25  2  0  0  0  0
 31 27  1  0  0  0  0
 32 38  1  0  0  0  0
 33 39  1  0  0  0  0
 33 32  2  0  0  0  0
 34 33  1  0  0  0  0
 35 34  2  0  0  0  0
 35 36  1  0  0  0  0
 36 37  2  0  0  0  0
 37 32  1  0  0  0  0
 40 42  1  0  0  0  0
 40 36  1  0  0  0  0
 41 40  1  0  0  0  0
M  END
>  <minimizedAffinity>
-5.85162878

>  <minimizedRMSD>
0.0386699848

$$$$
