REMARK  Name = 
REMARK  1 active torsions:
REMARK  status: ('A' for Active; 'I' for Inactive)
REMARK    1  A    between atoms: C_3  and  C_7
REMARK                            x       y       z     vdW  Elec       q    Type
REMARK                         _______ _______ _______ _____ _____    ______ ____
ROOT
ATOM      1  C   UNL     1      37.970  28.885  43.367  0.00  0.00    +0.000 A 
ATOM      2  C   UNL     1      38.093  27.465  43.312  0.00  0.00    +0.000 A 
ATOM      3  C   UNL     1      37.440  26.819  42.252  0.00  0.00    +0.000 A 
ATOM      4  N   UNL     1      36.724  27.575  41.332  0.00  0.00    +0.000 NA
ATOM      5  C   UNL     1      36.656  28.911  41.455  0.00  0.00    +0.000 A 
ATOM      6  N   UNL     1      37.271  29.548  42.457  0.00  0.00    +0.000 NA
ATOM      7  H   UNL     1      38.464  29.386  44.169  0.00  0.00    +0.000 HD
ATOM      8  H   UNL     1      38.652  26.911  44.036  0.00  0.00    +0.000 HD
ATOM      9  N   UNL     1      35.911  29.647  40.490  0.00  0.00    +0.000 N 
ATOM     10  H   UNL     1      35.251  30.402  40.722  0.00  0.00    +0.000 HD
ATOM     11  H   UNL     1      35.994  29.457  39.476  0.00  0.00    +0.000 HD
ENDROOT
BRANCH   3  12
ATOM     12  C   UNL     1      37.537  25.337  42.151  0.00  0.00    +0.000 C 
ATOM     13  F   UNL     1      37.656  25.053  40.820  0.00  0.00    +0.000 F 
ATOM     14  F   UNL     1      38.624  24.841  42.794  0.00  0.00    +0.000 F 
ATOM     15  F   UNL     1      36.376  24.721  42.634  0.00  0.00    +0.000 F 
ENDBRANCH   3  12
TORSDOF 1
