
 OpenBabel03242508223D

 14 14  0  0  0  0  0  0  0  0999 V2000
   38.7880   28.6720   43.0960 C   0  0  0  0  0  0  0  0  0  0  0  0
   38.1540   27.4050   43.0110 C   0  0  0  0  0  0  0  0  0  0  0  0
   36.9200   27.3650   42.3520 C   0  0  0  0  0  0  0  0  0  0  0  0
   36.4150   28.5200   41.8460 N   0  0  0  0  0  0  0  0  0  0  0  0
   37.0480   29.6920   41.9500 C   0  0  0  0  0  0  0  0  0  0  0  0
   38.2340   29.7690   42.5750 N   0  0  0  0  0  0  0  0  0  0  0  0
   39.7590   28.8230   43.5900 H   0  0  0  0  0  0  0  0  0  0  0  0
   38.6620   26.5600   43.4560 H   0  0  0  0  0  0  0  0  0  0  0  0
   36.4350   26.4020   42.2850 H   0  0  0  0  0  0  0  0  0  0  0  0
   36.3080   30.6890   41.3490 O   0  0  0  0  0  0  0  0  0  0  0  0
   36.6960   31.4200   40.2400 C   0  0  0  0  0  0  0  0  0  0  0  0
   36.9850   31.0680   39.0670 O   0  0  0  0  0  0  0  0  0  0  0  0
   36.7900   32.8090   40.4500 O   0  0  0  0  0  0  0  0  0  0  0  0
   37.4670   33.3820   39.9230 H   0  0  0  0  0  0  0  0  0  0  0  0
  1  7  1  0  0  0  0
  2  1  1  0  0  0  0
  2  8  1  0  0  0  0
  3  2  2  0  0  0  0
  4  5  2  0  0  0  0
  4  3  1  0  0  0  0
  5  6  1  0  0  0  0
  6  1  2  0  0  0  0
  9  3  1  0  0  0  0
 10  5  1  0  0  0  0
 11 13  1  0  0  0  0
 11 10  1  0  0  0  0
 12 11  2  0  0  0  0
 14 13  1  0  0  0  0
M  END
>  <minimizedAffinity>
-3.59602928

>  <minimizedRMSD>
1.62482655

$$$$
