
 OpenBabel03242508553D

 34 37  0  0  0  0  0  0  0  0999 V2000
   37.6290   28.2010   41.4000 C   0  0  0  0  0  0  0  0  0  0  0  0
   36.3890   27.9360   40.8120 C   0  0  0  0  0  0  0  0  0  0  0  0
   35.9480   29.0910   40.3010 N   0  0  0  0  0  0  0  0  0  0  0  0
   36.8160   30.0950   40.5150 C   0  0  0  0  0  0  0  0  0  0  0  0
   36.7080   31.4090   40.1400 C   0  0  0  0  0  0  0  0  0  0  0  0
   37.7740   32.2440   40.5000 C   0  0  0  0  0  0  0  0  0  0  0  0
   38.8710   31.7390   41.1990 C   0  0  0  0  0  0  0  0  0  0  0  0
   38.9520   30.4140   41.5620 C   0  0  0  0  0  0  0  0  0  0  0  0
   37.9020   29.5680   41.2140 C   0  0  0  0  0  0  0  0  0  0  0  0
   35.9280   26.9520   40.8060 H   0  0  0  0  0  0  0  0  0  0  0  0
   35.8410   31.7660   39.5980 H   0  0  0  0  0  0  0  0  0  0  0  0
   37.7160   33.2880   40.2170 H   0  0  0  0  0  0  0  0  0  0  0  0
   39.6720   32.4210   41.4560 H   0  0  0  0  0  0  0  0  0  0  0  0
   39.7890   29.9940   42.1040 H   0  0  0  0  0  0  0  0  0  0  0  0
   39.5920   26.6430   44.0600 C   0  0  0  0  0  0  0  0  0  0  0  0
   40.1500   25.5060   43.4130 C   0  0  0  0  0  0  0  0  0  0  0  0
   39.8390   25.2950   42.0600 C   0  0  0  0  0  0  0  0  0  0  0  0
   39.0240   26.1860   41.4530 N   0  0  0  0  0  0  0  0  0  0  0  0
   38.5030   27.2600   42.0870 C   0  0  0  0  0  0  0  0  0  0  0  0
   38.7900   27.4780   43.3790 N   0  0  0  0  0  0  0  0  0  0  0  0
   39.8230   26.8210   45.1060 H   0  0  0  0  0  0  0  0  0  0  0  0
   40.7900   24.8320   43.9410 H   0  0  0  0  0  0  0  0  0  0  0  0
   40.2430   24.4370   41.5220 H   0  0  0  0  0  0  0  0  0  0  0  0
   34.6680   29.1390   39.6150 C   0  0  0  0  0  0  0  0  0  0  0  0
   33.8490   28.8170   40.2940 H   0  0  0  0  0  0  0  0  0  0  0  0
   34.5010   30.2160   39.4080 H   0  0  0  0  0  0  0  0  0  0  0  0
   34.6750   28.3540   38.3200 C   0  0  0  0  0  0  0  0  0  0  0  0
   35.7280   28.2670   37.9880 H   0  0  0  0  0  0  0  0  0  0  0  0
   34.2590   27.3530   38.4480 H   0  0  0  0  0  0  0  0  0  0  0  0
   33.9450   29.1780   37.2900 C   0  0  0  0  0  0  0  0  0  0  0  0
   34.1460   28.6830   35.8940 C   0  0  0  0  0  0  0  0  0  0  0  0
   33.0090   29.3420   35.1370 C   0  0  0  0  0  0  0  0  0  0  0  0
   32.0680   29.9220   36.1770 C   0  0  0  0  0  0  0  0  0  0  0  0
   32.4440   29.0840   37.4070 C   0  0  0  0  0  0  0  0  0  0  0  0
  1 19  1  0  0  0  0
  2  1  2  0  0  0  0
  3  4  1  0  0  0  0
  3  2  1  0  0  0  0
  4  9  1  0  0  0  0
  5  6  1  0  0  0  0
  5  4  2  0  0  0  0
  6  7  2  0  0  0  0
  7 13  1  0  0  0  0
  7  8  1  0  0  0  0
  8 14  1  0  0  0  0
  9  1  1  0  0  0  0
  9  8  2  0  0  0  0
 10  2  1  0  0  0  0
 11  5  1  0  0  0  0
 12  6  1  0  0  0  0
 15 21  1  0  0  0  0
 16 22  1  0  0  0  0
 16 15  1  0  0  0  0
 17 16  2  0  0  0  0
 18 17  1  0  0  0  0
 18 19  2  0  0  0  0
 19 20  1  0  0  0  0
 20 15  2  0  0  0  0
 23 17  1  0  0  0  0
 24 25  1  0  0  0  0
 24  3  1  0  0  0  0
 26 24  1  0  0  0  0
 27 29  1  0  0  0  0
 27 24  1  0  0  0  0
 28 27  1  0  0  0  0
 30 34  1  0  0  0  0
 30 27  1  0  0  0  0
 31 30  1  0  0  0  0
 32 31  1  0  0  0  0
 32 33  1  0  0  0  0
 33 34  1  0  0  0  0
M  END
>  <minimizedAffinity>
-5.05857801

>  <minimizedRMSD>
1.01471996

$$$$
