
 OpenBabel03242507333D

 28 30  0  0  0  0  0  0  0  0999 V2000
   38.7920   29.6360   42.4620 C   0  0  0  0  0  0  0  0  0  0  0  0
   38.0820   29.3270   41.2710 C   0  0  0  0  0  0  0  0  0  0  0  0
   37.8380   27.9780   41.0180 C   0  0  0  0  0  0  0  0  0  0  0  0
   38.3060   27.0900   41.9400 N   0  0  0  0  0  0  0  0  0  0  0  0
   38.9660   27.4080   43.0430 C   0  0  0  0  0  0  0  0  0  0  0  0
   39.2080   28.6860   43.3010 N   0  0  0  0  0  0  0  0  0  0  0  0
   39.0300   30.6460   42.7490 H   0  0  0  0  0  0  0  0  0  0  0  0
   39.2510   26.5540   43.6430 H   0  0  0  0  0  0  0  0  0  0  0  0
   37.1210   27.7740   39.7870 C   0  0  0  0  0  0  0  0  0  0  0  0
   36.9310   28.7720   38.9150 N   0  0  0  0  0  0  0  0  0  0  0  0
   36.2790   28.6510   37.7610 C   0  0  0  0  0  0  0  0  0  0  0  0
   35.7340   27.4660   37.3620 N   0  0  0  0  0  0  0  0  0  0  0  0
   35.8760   26.3850   38.1880 C   0  0  0  0  0  0  0  0  0  0  0  0
   35.3380   25.1850   37.8090 C   0  0  0  0  0  0  0  0  0  0  0  0
   35.4640   24.0760   38.6200 C   0  0  0  0  0  0  0  0  0  0  0  0
   35.0080   23.1840   38.2340 H   0  0  0  0  0  0  0  0  0  0  0  0
   36.1550   24.2370   39.8250 C   0  0  0  0  0  0  0  0  0  0  0  0
   36.2300   23.3590   40.4220 H   0  0  0  0  0  0  0  0  0  0  0  0
   36.6660   25.4780   40.1330 C   0  0  0  0  0  0  0  0  0  0  0  0
   36.5620   26.5910   39.3600 C   0  0  0  0  0  0  0  0  0  0  0  0
   37.6900   30.4180   40.4320 N   0  0  0  0  0  0  0  0  0  0  0  0
   36.6830   31.3510   40.7250 C   0  0  0  0  0  0  0  0  0  0  0  0
   35.6320   30.8610   41.3440 N   0  0  0  0  0  0  0  0  0  0  0  0
   36.9280   32.7120   40.3150 N   0  0  0  0  0  0  0  0  0  0  0  0
   34.8420   31.4650   41.6110 H   0  0  0  0  0  0  0  0  0  0  0  0
   38.2590   30.4530   39.5330 H   0  0  0  0  0  0  0  0  0  0  0  0
   36.8800   33.2550   41.2270 H   0  0  0  0  0  0  0  0  0  0  0  0
   37.1020   33.0250   39.3580 H   0  0  0  0  0  0  0  0  0  0  0  0
  1  7  1  0  0  0  0
  1  6  1  0  0  0  0
  2  1  2  0  0  0  0
  3  2  1  0  0  0  0
  3  4  2  0  0  0  0
  4  5  1  0  0  0  0
  5  6  2  0  0  0  0
  5  8  1  0  0  0  0
  9  3  1  0  0  0  0
 10  9  2  0  0  0  0
 11 10  1  0  0  0  0
 12 11  2  0  0  0  0
 12 13  1  0  0  0  0
 13 20  1  0  0  0  0
 14 13  2  0  0  0  0
 14 15  1  0  0  0  0
 15 17  2  0  0  0  0
 16 15  1  0  0  0  0
 17 19  1  0  0  0  0
 17 18  1  0  0  0  0
 20  9  1  0  0  0  0
 20 19  2  0  0  0  0
 21 22  1  0  0  0  0
 21  2  1  0  0  0  0
 22 23  2  0  0  0  0
 23 25  1  0  0  0  0
 24 22  1  0  0  0  0
 24 27  1  0  0  0  0
 26 21  1  0  0  0  0
 28 24  1  0  0  0  0
M  END
>  <minimizedAffinity>
-5.63437557

>  <minimizedRMSD>
0.67530936

$$$$
