
 OpenBabel03242505393D

 31 34  0  0  0  0  0  0  0  0999 V2000
   36.6910   28.9360   39.6330 C   0  0  0  0  0  0  0  0  0  0  0  0
   35.4290   28.3530   39.4630 C   0  0  0  0  0  0  0  0  0  0  0  0
   34.7290   28.5930   38.3100 C   0  0  0  0  0  0  0  0  0  0  0  0
   35.3030   29.4090   37.3510 C   0  0  0  0  0  0  0  0  0  0  0  0
   36.5510   29.9780   37.5360 C   0  0  0  0  0  0  0  0  0  0  0  0
   37.2680   29.7540   38.6740 C   0  0  0  0  0  0  0  0  0  0  0  0
   35.0210   27.7170   40.2480 H   0  0  0  0  0  0  0  0  0  0  0  0
   33.7600   28.1470   38.1750 H   0  0  0  0  0  0  0  0  0  0  0  0
   34.7720   29.6070   36.4480 H   0  0  0  0  0  0  0  0  0  0  0  0
   36.9450   30.6060   36.7500 H   0  0  0  0  0  0  0  0  0  0  0  0
   38.5610   30.3660   38.8080 C   0  0  0  0  0  0  0  0  0  0  0  0
   39.7560   29.7500   38.5610 N   0  0  0  0  0  0  0  0  0  0  0  0
   40.9230   30.4010   38.7070 C   0  0  0  0  0  0  0  0  0  0  0  0
   41.0000   31.7000   39.1040 N   0  0  0  0  0  0  0  0  0  0  0  0
   39.8590   32.3630   39.3630 C   0  0  0  0  0  0  0  0  0  0  0  0
   39.9310   33.6810   39.7660 C   0  0  0  0  0  0  0  0  0  0  0  0
   38.7800   34.3880   40.0390 C   0  0  0  0  0  0  0  0  0  0  0  0
   38.7900   35.4220   40.3570 H   0  0  0  0  0  0  0  0  0  0  0  0
   37.5380   33.7610   39.9040 C   0  0  0  0  0  0  0  0  0  0  0  0
   36.6440   34.3260   40.1210 H   0  0  0  0  0  0  0  0  0  0  0  0
   37.5300   32.4510   39.5010 C   0  0  0  0  0  0  0  0  0  0  0  0
   38.6560   31.7000   39.2160 C   0  0  0  0  0  0  0  0  0  0  0  0
   37.9050   29.2980   43.0870 C   0  0  0  0  0  0  0  0  0  0  0  0
   38.7480   28.1950   43.2260 C   0  0  0  0  0  0  0  0  0  0  0  0
   38.9140   27.3030   42.1270 C   0  0  0  0  0  0  0  0  0  0  0  0
   38.2370   27.5740   40.9920 N   0  0  0  0  0  0  0  0  0  0  0  0
   37.4230   28.6610   40.8920 C   0  0  0  0  0  0  0  0  0  0  0  0
   37.2820   29.4840   41.9330 N   0  0  0  0  0  0  0  0  0  0  0  0
   37.8380   29.9150   43.9550 H   0  0  0  0  0  0  0  0  0  0  0  0
   39.3290   27.8820   44.0670 H   0  0  0  0  0  0  0  0  0  0  0  0
   39.5510   26.4300   42.1710 H   0  0  0  0  0  0  0  0  0  0  0  0
  1 27  1  0  0  0  0
  2  1  1  0  0  0  0
  2  7  1  0  0  0  0
  3  2  2  0  0  0  0
  4  5  2  0  0  0  0
  4  3  1  0  0  0  0
  5  6  1  0  0  0  0
  6 11  1  0  0  0  0
  6  1  2  0  0  0  0
  8  3  1  0  0  0  0
  9  4  1  0  0  0  0
 10  5  1  0  0  0  0
 11 22  1  0  0  0  0
 12 13  1  0  0  0  0
 12 11  2  0  0  0  0
 13 14  2  0  0  0  0
 14 15  1  0  0  0  0
 15 16  1  0  0  0  0
 16 17  2  0  0  0  0
 17 18  1  0  0  0  0
 19 17  1  0  0  0  0
 19 20  1  0  0  0  0
 21 19  2  0  0  0  0
 22 15  2  0  0  0  0
 22 21  1  0  0  0  0
 23 24  1  0  0  0  0
 23 29  1  0  0  0  0
 24 30  1  0  0  0  0
 25 31  1  0  0  0  0
 25 24  2  0  0  0  0
 26 25  1  0  0  0  0
 27 26  2  0  0  0  0
 27 28  1  0  0  0  0
 28 23  2  0  0  0  0
M  END
>  <minimizedAffinity>
-5.62088966

>  <minimizedRMSD>
4.55580902

$$$$
