
 OpenBabel03242507543D

 30 33  0  0  0  0  0  0  0  0999 V2000
   37.5030   30.5020   38.7570 C   0  0  0  0  0  0  0  0  0  0  0  0
   36.4690   30.5020   39.6610 C   0  0  0  0  0  0  0  0  0  0  0  0
   36.6630   31.2800   40.8070 C   0  0  0  0  0  0  0  0  0  0  0  0
   37.8600   31.9870   40.9560 C   0  0  0  0  0  0  0  0  0  0  0  0
   38.8760   31.9690   40.0360 C   0  0  0  0  0  0  0  0  0  0  0  0
   38.6000   31.2090   38.9920 N   0  0  0  0  0  0  0  0  0  0  0  0
   35.5990   29.9330   39.4570 H   0  0  0  0  0  0  0  0  0  0  0  0
   35.8830   31.3140   41.5480 H   0  0  0  0  0  0  0  0  0  0  0  0
   37.9050   32.5560   41.8780 H   0  0  0  0  0  0  0  0  0  0  0  0
   40.0220   32.7640   40.3810 C   0  0  0  0  0  0  0  0  0  0  0  0
   41.1880   32.2090   40.7560 N   0  0  0  0  0  0  0  0  0  0  0  0
   42.2920   32.8730   41.0890 C   0  0  0  0  0  0  0  0  0  0  0  0
   42.3310   34.2130   41.0780 N   0  0  0  0  0  0  0  0  0  0  0  0
   41.2120   34.8760   40.7150 C   0  0  0  0  0  0  0  0  0  0  0  0
   41.2200   36.2530   40.6920 C   0  0  0  0  0  0  0  0  0  0  0  0
   40.0970   36.9670   40.3270 C   0  0  0  0  0  0  0  0  0  0  0  0
   40.1460   38.0460   40.3220 H   0  0  0  0  0  0  0  0  0  0  0  0
   38.9590   36.2350   39.9830 C   0  0  0  0  0  0  0  0  0  0  0  0
   38.1090   36.8450   39.7060 H   0  0  0  0  0  0  0  0  0  0  0  0
   39.0100   34.8660   40.0250 C   0  0  0  0  0  0  0  0  0  0  0  0
   40.1000   34.1370   40.3790 C   0  0  0  0  0  0  0  0  0  0  0  0
   38.2570   28.0560   36.1200 C   0  0  0  0  0  0  0  0  0  0  0  0
   37.1740   28.1750   35.2530 C   0  0  0  0  0  0  0  0  0  0  0  0
   36.1750   29.1030   35.5700 C   0  0  0  0  0  0  0  0  0  0  0  0
   36.3070   29.8420   36.7050 N   0  0  0  0  0  0  0  0  0  0  0  0
   37.3710   29.7030   37.5260 C   0  0  0  0  0  0  0  0  0  0  0  0
   38.3360   28.8080   37.2230 N   0  0  0  0  0  0  0  0  0  0  0  0
   38.9910   27.3250   35.8190 H   0  0  0  0  0  0  0  0  0  0  0  0
   36.9930   27.6290   34.3340 H   0  0  0  0  0  0  0  0  0  0  0  0
   35.2720   29.3240   35.0140 H   0  0  0  0  0  0  0  0  0  0  0  0
  1  6  2  0  0  0  0
  1  2  1  0  0  0  0
  2  3  2  0  0  0  0
  3  4  1  0  0  0  0
  3  8  1  0  0  0  0
  4  9  1  0  0  0  0
  5 10  1  0  0  0  0
  5  4  2  0  0  0  0
  6  5  1  0  0  0  0
  7  2  1  0  0  0  0
 10 11  1  0  0  0  0
 11 12  2  0  0  0  0
 13 12  1  0  0  0  0
 14 13  2  0  0  0  0
 15 14  1  0  0  0  0
 16 15  2  0  0  0  0
 17 16  1  0  0  0  0
 18 20  2  0  0  0  0
 18 16  1  0  0  0  0
 19 18  1  0  0  0  0
 20 21  1  0  0  0  0
 21 10  2  0  0  0  0
 21 14  1  0  0  0  0
 22 27  1  0  0  0  0
 23 24  1  0  0  0  0
 23 22  2  0  0  0  0
 24 25  2  0  0  0  0
 25 26  1  0  0  0  0
 26  1  1  0  0  0  0
 27 26  2  0  0  0  0
 28 22  1  0  0  0  0
 29 23  1  0  0  0  0
 30 24  1  0  0  0  0
M  END
>  <minimizedAffinity>
-5.58225012

>  <minimizedRMSD>
6.19267321

$$$$
