
 OpenBabel03242509273D

 51 56  0  0  0  0  0  0  0  0999 V2000
   38.5750   28.1480   42.6740 C   0  0  0  0  0  0  0  0  0  0  0  0
   37.4800   27.3080   42.8080 C   0  0  0  0  0  0  0  0  0  0  0  0
   36.4170   27.9810   42.1940 C   0  0  0  0  0  0  0  0  0  0  0  0
   36.9370   29.1400   41.7490 N   0  0  0  0  0  0  0  0  0  0  0  0
   38.1850   29.2530   42.0180 N   0  0  0  0  0  0  0  0  0  0  0  0
   37.4800   26.3320   43.2970 H   0  0  0  0  0  0  0  0  0  0  0  0
   35.4520   27.5370   42.1630 H   0  0  0  0  0  0  0  0  0  0  0  0
   41.4980   26.5070   44.2910 C   0  0  0  0  0  0  0  0  0  0  0  0
   40.1890   26.6760   43.8160 C   0  0  0  0  0  0  0  0  0  0  0  0
   39.9040   27.8780   43.1670 C   0  0  0  0  0  0  0  0  0  0  0  0
   40.8660   28.7860   43.0310 N   0  0  0  0  0  0  0  0  0  0  0  0
   42.1370   28.6090   43.4980 C   0  0  0  0  0  0  0  0  0  0  0  0
   42.4270   27.4590   44.1250 N   0  0  0  0  0  0  0  0  0  0  0  0
   41.7330   25.5700   44.8020 H   0  0  0  0  0  0  0  0  0  0  0  0
   39.4320   25.9350   43.9350 H   0  0  0  0  0  0  0  0  0  0  0  0
   43.2470   29.5320   43.4030 C   0  0  0  0  0  0  0  0  0  0  0  0
   43.6290   30.2680   44.4580 N   0  0  0  0  0  0  0  0  0  0  0  0
   44.6360   31.1440   44.4740 C   0  0  0  0  0  3  0  0  0  0  0  0
   45.3820   31.3560   43.3500 N   0  0  0  0  0  0  0  0  0  0  0  0
   45.0780   30.6580   42.2170 C   0  0  0  0  0  0  0  0  0  0  0  0
   45.8180   30.8570   41.0730 C   0  0  0  0  0  3  0  0  0  0  0  0
   45.5310   30.1640   39.9180 C   0  0  0  0  0  0  0  0  0  0  0  0
   46.1800   30.4060   39.0880 H   0  0  0  0  0  0  0  0  0  0  0  0
   44.4630   29.2620   39.9710 C   0  0  0  0  0  0  0  0  0  0  0  0
   44.2810   28.7490   39.0440 H   0  0  0  0  0  0  0  0  0  0  0  0
   43.7700   29.1170   41.1490 C   0  0  0  0  0  3  0  0  0  0  0  0
   44.0340   29.7890   42.3060 C   0  0  0  0  0  0  0  0  0  0  0  0
   36.0840   30.0490   41.0740 C   0  0  0  0  0  0  0  0  0  0  0  0
   35.4630   30.5460   41.8750 H   0  0  0  0  0  0  0  0  0  0  0  0
   36.6760   30.8720   40.6200 H   0  0  0  0  0  0  0  0  0  0  0  0
   35.2120   29.4630   40.0100 C   0  0  0  0  0  0  0  0  0  0  0  0
   34.7490   28.5560   40.3730 H   0  0  0  0  0  0  0  0  0  0  0  0
   34.4870   30.3380   39.8820 H   0  0  0  0  0  0  0  0  0  0  0  0
   35.8400   29.3910   38.6730 C   0  0  0  0  0  0  0  0  0  0  0  0
   37.1640   29.5160   38.3630 C   0  0  0  0  0  0  0  0  0  0  0  0
   37.6940   29.5130   37.1020 C   0  0  0  0  0  0  0  0  0  0  0  0
   36.8580   29.3720   36.0170 C   0  0  0  0  0  0  0  0  0  0  0  0
   35.4970   29.2370   36.2640 C   0  0  0  0  0  0  0  0  0  0  0  0
   34.7200   29.1030   35.1370 C   0  0  0  0  0  0  0  0  0  0  0  0
   33.3690   28.9610   35.2760 C   0  0  0  0  0  0  0  0  0  0  0  0
   32.8140   28.9550   36.5350 C   0  0  0  0  0  0  0  0  0  0  0  0
   33.6490   29.0940   37.6100 C   0  0  0  0  0  0  0  0  0  0  0  0
   35.0010   29.2440   37.5500 C   0  0  0  0  0  0  0  0  0  0  0  0
   37.8350   29.6280   39.2090 H   0  0  0  0  0  0  0  0  0  0  0  0
   38.7550   29.6170   36.9460 H   0  0  0  0  0  0  0  0  0  0  0  0
   37.2960   29.3730   35.0420 H   0  0  0  0  0  0  0  0  0  0  0  0
   35.1360   29.1030   34.1350 H   0  0  0  0  0  0  0  0  0  0  0  0
   32.7180   28.8550   34.4170 H   0  0  0  0  0  0  0  0  0  0  0  0
   31.7500   28.8420   36.6330 H   0  0  0  0  0  0  0  0  0  0  0  0
   33.0220   29.0620   38.8540 O   0  0  0  0  0  0  0  0  0  0  0  0
   32.3020   29.7370   39.1040 H   0  0  0  0  0  0  0  0  0  0  0  0
  1  2  1  0  0  0  0
  1 10  1  0  0  0  0
  2  6  1  0  0  0  0
  3  2  2  0  0  0  0
  4  5  1  0  0  0  0
  4  3  1  0  0  0  0
  5  1  2  0  0  0  0
  7  3  1  0  0  0  0
  8 14  1  0  0  0  0
  9 15  1  0  0  0  0
  9  8  2  0  0  0  0
 10  9  1  0  0  0  0
 11 10  2  0  0  0  0
 11 12  1  0  0  0  0
 12 13  2  0  0  0  0
 13  8  1  0  0  0  0
 16 12  1  0  0  0  0
 16 17  1  0  0  0  0
 17 18  2  0  0  0  0
 19 18  1  0  0  0  0
 20 27  1  0  0  0  0
 20 19  2  0  0  0  0
 21 20  1  0  0  0  0
 22 24  1  0  0  0  0
 22 21  2  0  0  0  0
 23 22  1  0  0  0  0
 24 26  2  0  0  0  0
 25 24  1  0  0  0  0
 26 27  1  0  0  0  0
 27 16  2  0  0  0  0
 28  4  1  0  0  0  0
 28 29  1  0  0  0  0
 30 28  1  0  0  0  0
 31 32  1  0  0  0  0
 31 28  1  0  0  0  0
 33 31  1  0  0  0  0
 34 31  1  0  0  0  0
 35 34  1  0  0  0  0
 35 44  1  0  0  0  0
 36 35  2  0  0  0  0
 37 38  2  0  0  0  0
 37 36  1  0  0  0  0
 38 43  1  0  0  0  0
 39 40  2  0  0  0  0
 39 38  1  0  0  0  0
 40 41  1  0  0  0  0
 41 49  1  0  0  0  0
 41 42  2  0  0  0  0
 42 50  1  0  0  0  0
 43 42  1  0  0  0  0
 43 34  2  0  0  0  0
 45 36  1  0  0  0  0
 46 37  1  0  0  0  0
 47 39  1  0  0  0  0
 48 40  1  0  0  0  0
 50 51  1  0  0  0  0
M  END
>  <minimizedAffinity>
-6.13869619

>  <minimizedRMSD>
0.354511261

$$$$
