
 OpenBabel03242508363D

 41 45  0  0  0  0  0  0  0  0999 V2000
   37.0220   31.4870   40.5710 C   0  0  0  0  0  0  0  0  0  0  0  0
   36.8930   31.9270   39.2660 N   0  0  0  0  0  0  0  0  0  0  0  0
   37.8340   32.8060   39.0440 O   0  0  0  0  0  0  0  0  0  0  0  0
   38.5420   32.9290   40.1580 C   0  0  0  0  0  0  0  0  0  0  0  0
   38.0700   32.1350   41.1090 N   0  0  0  0  0  0  0  0  0  0  0  0
   39.6800   33.8310   40.2700 C   0  0  0  0  0  0  0  0  0  0  0  0
   39.7260   35.1610   39.9480 C   0  0  0  0  0  0  0  0  0  0  0  0
   40.9810   35.6520   40.1980 C   0  0  0  0  0  0  0  0  0  0  0  0
   41.6970   34.5690   40.6840 C   0  0  0  0  0  0  0  0  0  0  0  0
   40.8750   33.5790   40.6910 O   0  0  0  0  0  0  0  0  0  0  0  0
   38.8930   35.7610   39.5500 H   0  0  0  0  0  0  0  0  0  0  0  0
   41.2970   36.6700   40.0350 H   0  0  0  0  0  0  0  0  0  0  0  0
   43.0950   34.7610   41.0510 C   0  0  0  0  0  0  0  0  0  0  0  0
   44.1110   34.1360   40.4330 N   0  0  0  0  0  0  0  0  0  0  0  0
   45.4060   34.2890   40.7430 C   0  0  0  0  0  0  0  0  0  0  0  0
   45.7990   35.1110   41.7310 N   0  0  0  0  0  0  0  0  0  0  0  0
   44.8500   35.7710   42.3960 C   0  0  0  0  0  0  0  0  0  0  0  0
   45.2480   36.6110   43.4060 C   0  0  0  0  0  0  0  0  0  0  0  0
   44.3110   37.3360   44.1480 C   0  0  0  0  0  0  0  0  0  0  0  0
   44.5860   38.0020   44.9450 H   0  0  0  0  0  0  0  0  0  0  0  0
   42.9690   37.1580   43.8040 C   0  0  0  0  0  0  0  0  0  0  0  0
   42.2680   37.7230   44.3850 H   0  0  0  0  0  0  0  0  0  0  0  0
   42.6320   36.3110   42.7920 C   0  0  0  0  0  0  0  0  0  0  0  0
   43.5250   35.5920   42.0540 C   0  0  0  0  0  0  0  0  0  0  0  0
   36.2650   30.5500   41.2990 O   0  0  0  0  0  0  0  0  0  0  0  0
   38.1780   28.2350   43.3240 C   0  0  0  0  0  0  0  0  0  0  0  0
   37.9390   27.0440   42.5700 C   0  0  0  0  0  0  0  0  0  0  0  0
   37.1460   27.1470   41.4430 C   0  0  0  0  0  0  0  0  0  0  0  0
   36.6520   28.3660   41.1290 N   0  0  0  0  0  0  0  0  0  0  0  0
   36.8760   29.4630   41.8300 C   0  0  0  0  0  0  0  0  0  0  0  0
   37.6450   29.4120   42.9400 N   0  0  0  0  0  0  0  0  0  0  0  0
   38.7650   28.3290   44.2160 H   0  0  0  0  0  0  0  0  0  0  0  0
   38.4750   26.2580   43.0790 H   0  0  0  0  0  0  0  0  0  0  0  0
   36.9730   25.8850   40.7610 C   0  0  0  0  0  0  0  0  0  0  0  0
   37.7330   25.8220   39.9270 H   0  0  0  0  0  0  0  0  0  0  0  0
   35.9980   25.9500   40.1920 H   0  0  0  0  0  0  0  0  0  0  0  0
   36.9790   24.6790   41.5970 C   0  0  0  0  0  0  0  0  0  0  0  0
   37.3690   24.7220   42.6050 H   0  0  0  0  0  0  0  0  0  0  0  0
   35.9150   24.2990   41.7170 H   0  0  0  0  0  0  0  0  0  0  0  0
   37.8330   23.2810   40.7780 S   0  0  0  0  0  0  0  0  0  0  0  0
   37.2000   22.0630   41.0010 H   0  0  0  0  0  0  0  0  0  0  0  0
  1  5  1  0  0  0  0
  1 25  1  0  0  0  0
  2  1  2  0  0  0  0
  3  2  1  0  0  0  0
  3  4  1  0  0  0  0
  4  6  1  0  0  0  0
  4  5  2  0  0  0  0
  6 10  1  0  0  0  0
  7  8  1  0  0  0  0
  7  6  2  0  0  0  0
  8  9  2  0  0  0  0
  9 10  1  0  0  0  0
  9 13  1  0  0  0  0
 11  7  1  0  0  0  0
 12  8  1  0  0  0  0
 13 24  1  0  0  0  0
 14 15  1  0  0  0  0
 14 13  2  0  0  0  0
 15 16  2  0  0  0  0
 16 17  1  0  0  0  0
 17 18  1  0  0  0  0
 18 19  2  0  0  0  0
 19 20  1  0  0  0  0
 21 19  1  0  0  0  0
 21 22  1  0  0  0  0
 23 21  2  0  0  0  0
 24 17  2  0  0  0  0
 24 23  1  0  0  0  0
 25 30  1  0  0  0  0
 26 32  1  0  0  0  0
 27 33  1  0  0  0  0
 27 26  2  0  0  0  0
 28 27  1  0  0  0  0
 29 28  2  0  0  0  0
 29 30  1  0  0  0  0
 30 31  2  0  0  0  0
 31 26  1  0  0  0  0
 34 28  1  0  0  0  0
 34 37  1  0  0  0  0
 35 34  1  0  0  0  0
 36 34  1  0  0  0  0
 37 39  1  0  0  0  0
 37 38  1  0  0  0  0
 40 41  1  0  0  0  0
 40 37  1  0  0  0  0
M  END
>  <minimizedAffinity>
-7.40647888

>  <minimizedRMSD>
1.68171906

$$$$
