
 OpenBabel03242509273D

 51 56  0  0  0  0  0  0  0  0999 V2000
   38.5360   28.2170   42.5760 C   0  0  0  0  0  0  0  0  0  0  0  0
   37.4810   27.3250   42.6950 C   0  0  0  0  0  0  0  0  0  0  0  0
   36.3940   27.9470   42.0710 C   0  0  0  0  0  0  0  0  0  0  0  0
   36.8620   29.1320   41.6340 N   0  0  0  0  0  0  0  0  0  0  0  0
   38.1000   29.3050   41.9190 N   0  0  0  0  0  0  0  0  0  0  0  0
   37.5230   26.3490   43.1810 H   0  0  0  0  0  0  0  0  0  0  0  0
   35.4520   27.4580   42.0270 H   0  0  0  0  0  0  0  0  0  0  0  0
   41.5480   26.6710   44.1210 C   0  0  0  0  0  0  0  0  0  0  0  0
   40.2410   26.7780   43.6220 C   0  0  0  0  0  0  0  0  0  0  0  0
   39.8700   28.0100   43.0840 C   0  0  0  0  0  0  0  0  0  0  0  0
   40.7550   29.0040   43.0680 N   0  0  0  0  0  0  0  0  0  0  0  0
   42.0240   28.8870   43.5570 C   0  0  0  0  0  0  0  0  0  0  0  0
   42.3960   27.7080   44.0790 N   0  0  0  0  0  0  0  0  0  0  0  0
   41.8500   25.7110   44.5470 H   0  0  0  0  0  0  0  0  0  0  0  0
   39.5470   25.9680   43.6440 H   0  0  0  0  0  0  0  0  0  0  0  0
   43.0530   29.9040   43.5880 C   0  0  0  0  0  0  0  0  0  0  0  0
   44.1600   29.7450   44.3300 N   0  0  0  0  0  0  0  0  0  0  0  0
   45.1650   30.6190   44.4260 C   0  0  0  0  0  3  0  0  0  0  0  0
   45.1230   31.7960   43.7340 N   0  0  0  0  0  0  0  0  0  0  0  0
   44.0410   32.0580   42.9470 C   0  0  0  0  0  0  0  0  0  0  0  0
   43.9790   33.2390   42.2410 C   0  0  0  0  0  3  0  0  0  0  0  0
   42.8960   33.5260   41.4400 C   0  0  0  0  0  0  0  0  0  0  0  0
   42.9630   34.4810   40.9380 H   0  0  0  0  0  0  0  0  0  0  0  0
   41.8790   32.5670   41.3850 C   0  0  0  0  0  0  0  0  0  0  0  0
   41.0580   32.8400   40.7460 H   0  0  0  0  0  0  0  0  0  0  0  0
   42.0090   31.4120   42.1170 C   0  0  0  0  0  3  0  0  0  0  0  0
   43.0710   31.1030   42.9180 C   0  0  0  0  0  0  0  0  0  0  0  0
   35.9740   30.0000   40.9520 C   0  0  0  0  0  0  0  0  0  0  0  0
   35.3190   30.4630   41.7470 H   0  0  0  0  0  0  0  0  0  0  0  0
   36.5300   30.8540   40.5090 H   0  0  0  0  0  0  0  0  0  0  0  0
   35.1450   29.3770   39.8750 C   0  0  0  0  0  0  0  0  0  0  0  0
   34.7310   28.4420   40.2250 H   0  0  0  0  0  0  0  0  0  0  0  0
   34.3740   30.2110   39.7490 H   0  0  0  0  0  0  0  0  0  0  0  0
   35.7880   29.3530   38.5430 C   0  0  0  0  0  0  0  0  0  0  0  0
   37.1150   29.4910   38.2530 C   0  0  0  0  0  0  0  0  0  0  0  0
   37.6590   29.5330   36.9980 C   0  0  0  0  0  0  0  0  0  0  0  0
   36.8350   29.4290   35.9000 C   0  0  0  0  0  0  0  0  0  0  0  0
   35.4720   29.2830   36.1270 C   0  0  0  0  0  0  0  0  0  0  0  0
   34.7080   29.1870   34.9870 C   0  0  0  0  0  0  0  0  0  0  0  0
   33.3560   29.0380   35.1070 C   0  0  0  0  0  0  0  0  0  0  0  0
   32.7870   28.9870   36.3580 C   0  0  0  0  0  0  0  0  0  0  0  0
   33.6100   29.0890   37.4460 C   0  0  0  0  0  0  0  0  0  0  0  0
   34.9620   29.2440   37.4070 C   0  0  0  0  0  0  0  0  0  0  0  0
   37.7760   29.5750   39.1090 H   0  0  0  0  0  0  0  0  0  0  0  0
   38.7220   29.6440   36.8580 H   0  0  0  0  0  0  0  0  0  0  0  0
   37.2840   29.4650   34.9300 H   0  0  0  0  0  0  0  0  0  0  0  0
   35.1350   29.2230   33.9900 H   0  0  0  0  0  0  0  0  0  0  0  0
   32.7140   28.9600   34.2370 H   0  0  0  0  0  0  0  0  0  0  0  0
   31.7220   28.8690   36.4400 H   0  0  0  0  0  0  0  0  0  0  0  0
   32.9690   29.0130   38.6820 O   0  0  0  0  0  0  0  0  0  0  0  0
   32.2450   29.6780   38.9470 H   0  0  0  0  0  0  0  0  0  0  0  0
  1  2  1  0  0  0  0
  1 10  1  0  0  0  0
  2  6  1  0  0  0  0
  3  2  2  0  0  0  0
  4  5  1  0  0  0  0
  4  3  1  0  0  0  0
  5  1  2  0  0  0  0
  7  3  1  0  0  0  0
  8 14  1  0  0  0  0
  9 15  1  0  0  0  0
  9  8  2  0  0  0  0
 10  9  1  0  0  0  0
 11 10  2  0  0  0  0
 11 12  1  0  0  0  0
 12 16  1  0  0  0  0
 12 13  2  0  0  0  0
 13  8  1  0  0  0  0
 16 17  1  0  0  0  0
 17 18  2  0  0  0  0
 19 18  1  0  0  0  0
 20 19  2  0  0  0  0
 21 20  1  0  0  0  0
 22 21  2  0  0  0  0
 23 22  1  0  0  0  0
 24 22  1  0  0  0  0
 24 26  2  0  0  0  0
 25 24  1  0  0  0  0
 26 27  1  0  0  0  0
 27 20  1  0  0  0  0
 27 16  2  0  0  0  0
 28  4  1  0  0  0  0
 28 29  1  0  0  0  0
 30 28  1  0  0  0  0
 31 32  1  0  0  0  0
 31 28  1  0  0  0  0
 33 31  1  0  0  0  0
 34 31  1  0  0  0  0
 35 34  1  0  0  0  0
 35 44  1  0  0  0  0
 36 35  2  0  0  0  0
 37 38  2  0  0  0  0
 37 36  1  0  0  0  0
 38 43  1  0  0  0  0
 39 40  2  0  0  0  0
 39 38  1  0  0  0  0
 40 41  1  0  0  0  0
 41 49  1  0  0  0  0
 41 42  2  0  0  0  0
 42 50  1  0  0  0  0
 43 42  1  0  0  0  0
 43 34  2  0  0  0  0
 45 36  1  0  0  0  0
 46 37  1  0  0  0  0
 47 39  1  0  0  0  0
 48 40  1  0  0  0  0
 50 51  1  0  0  0  0
M  END
>  <minimizedAffinity>
-6.54965496

>  <minimizedRMSD>
0.78068924

$$$$
