
 OpenBabel03242508303D

 34 38  0  0  0  0  0  0  0  0999 V2000
   39.0450   28.5490   43.1510 C   0  0  0  0  0  0  0  0  0  0  0  0
   38.6770   27.3220   42.5720 C   0  0  0  0  0  0  0  0  0  0  0  0
   37.6040   27.2900   41.6470 C   0  0  0  0  0  0  0  0  0  0  0  0
   37.0480   28.4800   41.4290 N   0  0  0  0  0  0  0  0  0  0  0  0
   37.3870   29.6330   41.9670 C   0  0  0  0  0  0  0  0  0  0  0  0
   38.3930   29.6670   42.8350 N   0  0  0  0  0  0  0  0  0  0  0  0
   39.8530   28.5840   43.8500 H   0  0  0  0  0  0  0  0  0  0  0  0
   39.2190   26.4510   42.8480 H   0  0  0  0  0  0  0  0  0  0  0  0
   37.3230   25.9840   41.1260 C   0  0  0  0  0  0  0  0  0  0  0  0
   37.6940   24.8630   41.7720 N   0  0  0  0  0  0  0  0  0  0  0  0
   37.4750   23.6200   41.3590 C   0  0  0  0  0  0  0  0  0  0  0  0
   36.8240   23.3750   40.1950 N   0  0  0  0  0  0  0  0  0  0  0  0
   36.3990   24.4300   39.4530 C   0  0  0  0  0  0  0  0  0  0  0  0
   35.7410   24.2090   38.2760 C   0  0  0  0  0  0  0  0  0  0  0  0
   35.3030   25.2650   37.5080 C   0  0  0  0  0  0  0  0  0  0  0  0
   34.7970   24.9690   36.6000 H   0  0  0  0  0  0  0  0  0  0  0  0
   35.5580   26.5400   37.9830 C   0  0  0  0  0  0  0  0  0  0  0  0
   35.1980   27.3400   37.3550 H   0  0  0  0  0  0  0  0  0  0  0  0
   36.2210   26.7010   39.1690 C   0  0  0  0  0  0  0  0  0  0  0  0
   36.6730   25.6690   39.9610 C   0  0  0  0  0  0  0  0  0  0  0  0
   36.5780   30.6520   41.4910 O   0  0  0  0  0  0  0  0  0  0  0  0
   37.1200   31.6050   40.6300 C   0  0  0  0  0  0  0  0  0  0  0  0
   36.8240   31.8430   39.3340 N   0  0  0  0  0  0  0  0  0  0  0  0
   37.5740   32.8320   38.9040 O   0  0  0  0  0  0  0  0  0  0  0  0
   38.3250   33.2120   39.9020 C   0  0  0  0  0  0  0  0  0  0  0  0
   38.0710   32.4770   40.9790 N   0  0  0  0  0  0  0  0  0  0  0  0
   39.3010   34.2940   39.8240 C   0  0  0  0  0  0  0  0  0  0  0  0
   39.0760   35.6230   40.1920 C   0  0  0  0  0  0  0  0  0  0  0  0
   40.2350   36.3550   39.9770 C   0  0  0  0  0  0  0  0  0  0  0  0
   41.1370   35.4060   39.4740 C   0  0  0  0  0  0  0  0  0  0  0  0
   40.5380   34.2580   39.4140 O   0  0  0  0  0  0  0  0  0  0  0  0
   38.1330   35.9710   40.5760 H   0  0  0  0  0  0  0  0  0  0  0  0
   40.2850   37.4200   40.1960 H   0  0  0  0  0  0  0  0  0  0  0  0
   42.1400   35.7070   39.2150 H   0  0  0  0  0  0  0  0  0  0  0  0
  1  7  1  0  0  0  0
  2  8  1  0  0  0  0
  2  1  2  0  0  0  0
  3  2  1  0  0  0  0
  4  3  2  0  0  0  0
  4  5  1  0  0  0  0
  5  6  2  0  0  0  0
  6  1  1  0  0  0  0
  9  3  1  0  0  0  0
  9 10  1  0  0  0  0
 11 10  2  0  0  0  0
 12 11  1  0  0  0  0
 13 20  1  0  0  0  0
 13 12  2  0  0  0  0
 14 13  1  0  0  0  0
 15 17  1  0  0  0  0
 15 14  2  0  0  0  0
 16 15  1  0  0  0  0
 17 19  2  0  0  0  0
 18 17  1  0  0  0  0
 19 20  1  0  0  0  0
 20  9  2  0  0  0  0
 21  5  1  0  0  0  0
 22 26  1  0  0  0  0
 22 21  1  0  0  0  0
 23 22  2  0  0  0  0
 24 23  1  0  0  0  0
 24 25  1  0  0  0  0
 25 26  2  0  0  0  0
 27 25  1  0  0  0  0
 27 28  2  0  0  0  0
 28 32  1  0  0  0  0
 29 28  1  0  0  0  0
 29 33  1  0  0  0  0
 30 29  2  0  0  0  0
 31 30  1  0  0  0  0
 31 27  1  0  0  0  0
 34 30  1  0  0  0  0
M  END
>  <minimizedAffinity>
-6.53693724

>  <minimizedRMSD>
0.906172991

$$$$
