REMARK  Name = 
REMARK  2 active torsions:
REMARK  status: ('A' for Active; 'I' for Inactive)
REMARK    1  A    between atoms: C_3  and  C_7
REMARK    2  A    between atoms: C_5  and  C_13
REMARK                            x       y       z     vdW  Elec       q    Type
REMARK                         _______ _______ _______ _____ _____    ______ ____
ROOT
ATOM      1  C   UNL     1      37.957  28.882  43.359  0.00  0.00    +0.000 A 
ATOM      2  C   UNL     1      38.090  27.465  43.312  0.00  0.00    +0.000 A 
ATOM      3  C   UNL     1      37.454  26.819  42.265  0.00  0.00    +0.000 A 
ATOM      4  N   UNL     1      36.775  27.599  41.397  0.00  0.00    +0.000 NA
ATOM      5  C   UNL     1      36.640  28.908  41.423  0.00  0.00    +0.000 A 
ATOM      6  N   UNL     1      37.260  29.539  42.444  0.00  0.00    +0.000 NA
ATOM      7  H   UNL     1      38.464  29.370  44.189  0.00  0.00    +0.000 HD
ATOM      8  H   UNL     1      38.651  26.949  44.050  0.00  0.00    +0.000 HD
ENDROOT
BRANCH   5   9
ATOM      9  C   UNL     1      35.933  29.816  40.536  0.00  0.00    +0.000 A 
ATOM     10  N   UNL     1      36.551  30.802  39.863  0.00  0.00    +0.000 NA
ATOM     11  C   UNL     1      35.940  31.656  39.040  0.00  0.00    +0.000 A 
ATOM     12  N   UNL     1      34.617  31.596  38.812  0.00  0.00    +0.000 NA
ATOM     13  C   UNL     1      33.895  30.635  39.444  0.00  0.00    +0.000 A 
ATOM     14  C   UNL     1      32.539  30.567  39.217  0.00  0.00    +0.000 A 
ATOM     15  C   UNL     1      31.777  29.603  39.842  0.00  0.00    +0.000 A 
ATOM     16  H   UNL     1      30.730  29.651  39.584  0.00  0.00    +0.000 HD
ATOM     17  C   UNL     1      32.447  28.724  40.697  0.00  0.00    +0.000 A 
ATOM     18  H   UNL     1      31.793  27.991  41.157  0.00  0.00    +0.000 HD
ATOM     19  C   UNL     1      33.795  28.843  40.882  0.00  0.00    +0.000 A 
ATOM     20  C   UNL     1      34.581  29.784  40.280  0.00  0.00    +0.000 A 
ENDBRANCH   5   9
BRANCH   3  21
ATOM     21  C   UNL     1      37.529  25.348  42.132  0.00  0.00    +0.000 C 
ATOM     22  F   UNL     1      37.638  25.050  40.805  0.00  0.00    +0.000 F 
ATOM     23  F   UNL     1      38.619  24.830  42.798  0.00  0.00    +0.000 F 
ATOM     24  F   UNL     1      36.385  24.716  42.637  0.00  0.00    +0.000 F 
ENDBRANCH   3  21
TORSDOF 2
