
 OpenBabel03242503503D

 50 55  0  0  1  0  0  0  0  0999 V2000
   37.2820   26.0750   41.2850 C   0  0  0  0  0  0  0  0  0  0  0  0
   37.8460   24.9270   40.7740 C   0  0  0  0  0  0  0  0  0  0  0  0
   37.5750   24.6820   39.4360 C   0  0  0  0  0  0  0  0  0  0  0  0
   36.7930   25.5520   38.7120 C   0  0  0  0  0  0  0  0  0  0  0  0
   36.2410   26.6960   39.2550 C   0  0  0  0  0  0  0  0  0  0  0  0
   36.5140   26.9210   40.5570 N   0  0  0  0  0  0  0  0  0  0  0  0
   38.4500   24.3080   41.4330 H   0  0  0  0  0  0  0  0  0  0  0  0
   38.0150   23.7750   39.0170 H   0  0  0  0  0  0  0  0  0  0  0  0
   36.5950   25.3370   37.6680 H   0  0  0  0  0  0  0  0  0  0  0  0
   35.4200   27.6130   38.4900 C   0  0  0  0  0  0  0  0  0  0  0  0
   35.8460   28.8970   38.4150 N   0  0  0  0  0  0  0  0  0  0  0  0
   35.0380   29.5920   37.7150 O   0  0  0  0  0  0  0  0  0  0  0  0
   34.0620   28.7760   37.3160 C   0  0  0  0  0  0  0  0  0  0  0  0
   34.2990   27.5380   37.8000 N   0  0  0  0  0  0  0  0  0  0  0  0
   33.0220   29.3770   36.4950 C   0  0  0  0  0  0  0  0  0  0  0  0
   33.1300   29.5870   35.1570 N   0  0  0  0  0  0  0  0  0  0  0  0
   32.1940   30.1330   34.3950 C   0  0  0  0  0  0  0  0  0  0  0  0
   31.0230   30.5410   34.8810 N   0  0  0  0  0  0  0  0  0  0  0  0
   30.8030   30.3800   36.2170 C   0  0  0  0  0  0  0  0  0  0  0  0
   29.6010   30.7950   36.7470 C   0  0  0  0  0  0  0  0  0  0  0  0
   29.3360   30.6550   38.0860 C   0  0  0  0  0  0  0  0  0  0  0  0
   28.3640   31.0140   38.3860 H   0  0  0  0  0  0  0  0  0  0  0  0
   30.3260   30.0780   38.8840 C   0  0  0  0  0  0  0  0  0  0  0  0
   30.0750   29.9890   39.9240 H   0  0  0  0  0  0  0  0  0  0  0  0
   31.5050   29.6850   38.2900 C   0  0  0  0  0  0  0  0  0  0  0  0
   31.8040   29.8070   36.9710 C   0  0  0  0  0  0  0  0  0  0  0  0
   37.4690   26.4830   42.6820 C   0  0  0  0  0  0  0  0  0  0  0  0
   37.0020   25.7070   43.3230 H   0  0  0  0  0  0  0  0  0  0  0  0
   38.5710   26.4340   42.9190 H   0  0  0  0  0  0  0  0  0  0  0  0
   36.8870   27.7960   43.0110 C   0  0  2  0  0  0  0  0  0  0  0  0
   35.8570   27.9450   42.6250 H   0  0  0  0  0  0  0  0  0  0  0  0
   38.3960   30.8490   41.7030 N   0  0  0  0  0  0  0  0  0  0  0  0
   39.3860   30.3000   42.3930 C   0  0  0  0  0  0  0  0  0  0  0  0
   39.0030   29.1490   42.9530 N   0  0  0  0  0  0  0  0  0  0  0  0
   37.6990   28.9600   42.5970 C   0  0  0  0  0  0  0  0  0  0  0  0
   37.3680   30.0150   41.8380 N   0  0  0  0  0  0  0  0  0  0  0  0
   40.3370   30.8580   42.3980 H   0  0  0  0  0  0  0  0  0  0  0  0
   37.1400   32.1470   39.9480 C   0  0  0  0  0  0  0  0  0  0  0  0
   38.1490   32.0170   40.9040 C   0  0  0  0  0  0  0  0  0  0  0  0
   39.0220   33.1320   41.1230 C   0  0  0  0  0  0  0  0  0  0  0  0
   38.8050   34.2340   40.3840 N   0  0  0  0  0  0  0  0  0  0  0  0
   37.8220   34.3060   39.4790 C   0  0  0  0  0  0  0  0  0  0  0  0
   37.0150   33.2730   39.2770 N   0  0  0  0  0  0  0  0  0  0  0  0
   36.5140   31.2900   39.8200 H   0  0  0  0  0  0  0  0  0  0  0  0
   39.8210   33.0820   41.8550 H   0  0  0  0  0  0  0  0  0  0  0  0
   37.6420   35.1900   38.8800 H   0  0  0  0  0  0  0  0  0  0  0  0
   36.7610   27.9150   44.5470 C   0  0  0  0  0  0  0  0  0  0  0  0
   36.3170   28.8900   44.8250 H   0  0  0  0  0  0  0  0  0  0  0  0
   36.2110   27.0650   44.9710 H   0  0  0  0  0  0  0  0  0  0  0  0
   37.8120   27.9500   44.9030 H   0  0  0  0  0  0  0  0  0  0  0  0
  1 27  1  0  0  0  0
  2  1  1  0  0  0  0
  2  7  1  0  0  0  0
  3  2  2  0  0  0  0
  4  5  2  0  0  0  0
  4  3  1  0  0  0  0
  5  6  1  0  0  0  0
  6  1  2  0  0  0  0
  8  3  1  0  0  0  0
  9  4  1  0  0  0  0
 10  5  1  0  0  0  0
 11 10  2  0  0  0  0
 12 11  1  0  0  0  0
 13 12  1  0  0  0  0
 13 14  2  0  0  0  0
 14 10  1  0  0  0  0
 15 26  1  0  0  0  0
 15 13  1  0  0  0  0
 16 15  2  0  0  0  0
 17 18  2  0  0  0  0
 17 16  1  0  0  0  0
 18 19  1  0  0  0  0
 19 20  2  0  0  0  0
 19 26  1  0  0  0  0
 20 21  1  0  0  0  0
 21 22  1  0  0  0  0
 21 23  2  0  0  0  0
 23 24  1  0  0  0  0
 25 23  1  0  0  0  0
 26 25  2  0  0  0  0
 27 29  1  0  0  0  0
 27 30  1  0  0  0  0
 27 28  1  0  0  0  0
 30 31  1  6  0  0  0
 30 47  1  0  0  0  0
 32 36  1  0  0  0  0
 32 33  1  0  0  0  0
 33 37  1  0  0  0  0
 33 34  2  0  0  0  0
 35 34  1  0  0  0  0
 35 30  1  0  0  0  0
 36 35  2  0  0  0  0
 38 39  1  0  0  0  0
 39 40  2  0  0  0  0
 39 32  1  0  0  0  0
 40 45  1  0  0  0  0
 41 40  1  0  0  0  0
 42 41  2  0  0  0  0
 43 42  1  0  0  0  0
 43 38  2  0  0  0  0
 44 38  1  0  0  0  0
 46 42  1  0  0  0  0
 47 48  1  0  0  0  0
 47 50  1  0  0  0  0
 47 49  1  0  0  0  0
M  END
>  <minimizedAffinity>
-6.82048798

>  <minimizedRMSD>
1.94830287

$$$$
