
 OpenBabel03242509283D

 45 49  0  0  0  0  0  0  0  0999 V2000
   36.1620   30.1010   41.1020 C   0  0  0  0  0  0  0  0  0  0  0  0
   36.8000   30.8660   40.5940 H   0  0  0  0  0  0  0  0  0  0  0  0
   35.6120   30.6620   41.8870 H   0  0  0  0  0  0  0  0  0  0  0  0
   38.5940   28.1270   42.6980 C   0  0  0  0  0  0  0  0  0  0  0  0
   37.4950   27.3210   42.8120 C   0  0  0  0  0  0  0  0  0  0  0  0
   36.4390   28.0040   42.2020 C   0  0  0  0  0  0  0  0  0  0  0  0
   36.9860   29.1570   41.7760 N   0  0  0  0  0  0  0  0  0  0  0  0
   38.2480   29.2670   42.0460 N   0  0  0  0  0  0  0  0  0  0  0  0
   37.4620   26.3320   43.2910 H   0  0  0  0  0  0  0  0  0  0  0  0
   35.4670   27.5740   42.1640 H   0  0  0  0  0  0  0  0  0  0  0  0
   41.4780   26.4610   44.3630 C   0  0  0  0  0  0  0  0  0  0  0  0
   40.1670   26.6750   43.9230 C   0  0  0  0  0  0  0  0  0  0  0  0
   39.9300   27.8510   43.1790 C   0  0  0  0  0  0  0  0  0  0  0  0
   40.9430   28.6970   42.9290 N   0  0  0  0  0  0  0  0  0  0  0  0
   42.2050   28.4320   43.3870 C   0  0  0  0  0  0  0  0  0  0  0  0
   42.4610   27.3240   44.0970 N   0  0  0  0  0  0  0  0  0  0  0  0
   41.6920   25.5700   44.9350 H   0  0  0  0  0  0  0  0  0  0  0  0
   39.3620   25.9810   44.1350 H   0  0  0  0  0  0  0  0  0  0  0  0
   43.2690   29.3830   43.0890 C   0  0  0  0  0  0  0  0  0  0  0  0
   44.5090   29.4490   43.6820 C   0  0  0  0  0  3  0  0  0  0  0  0
   45.1880   30.4710   43.1170 N   0  0  0  0  0  0  0  0  0  0  0  0
   44.3820   31.0260   42.1930 C   0  0  0  0  0  3  0  0  0  0  0  0
   43.2020   30.3660   42.1680 N   0  0  0  0  0  0  0  0  0  0  0  0
   42.3900   30.5710   41.5570 H   0  0  0  0  0  0  0  0  0  0  0  0
   35.2620   29.5430   40.0460 C   0  0  0  0  0  0  0  0  0  0  0  0
   34.7830   28.6440   40.4090 H   0  0  0  0  0  0  0  0  0  0  0  0
   34.5600   30.4350   39.9300 H   0  0  0  0  0  0  0  0  0  0  0  0
   35.8780   29.4480   38.6980 C   0  0  0  0  0  0  0  0  0  0  0  0
   37.1940   29.5880   38.3690 C   0  0  0  0  0  0  0  0  0  0  0  0
   37.7120   29.5650   37.1120 C   0  0  0  0  0  0  0  0  0  0  0  0
   36.8650   29.3880   36.0390 C   0  0  0  0  0  0  0  0  0  0  0  0
   35.5120   29.2380   36.3030 C   0  0  0  0  0  0  0  0  0  0  0  0
   34.7200   29.0680   35.1950 C   0  0  0  0  0  0  0  0  0  0  0  0
   33.3760   28.9070   35.3390 C   0  0  0  0  0  0  0  0  0  0  0  0
   32.8330   28.9180   36.6180 C   0  0  0  0  0  0  0  0  0  0  0  0
   33.6750   29.0920   37.6720 C   0  0  0  0  0  0  0  0  0  0  0  0
   35.0190   29.2620   37.5980 C   0  0  0  0  0  0  0  0  0  0  0  0
   37.8630   29.7290   39.2230 H   0  0  0  0  0  0  0  0  0  0  0  0
   38.7800   29.6880   37.0060 H   0  0  0  0  0  0  0  0  0  0  0  0
   37.2940   29.3760   35.0640 H   0  0  0  0  0  0  0  0  0  0  0  0
   35.0970   29.0500   34.1810 H   0  0  0  0  0  0  0  0  0  0  0  0
   32.7130   28.7730   34.4930 H   0  0  0  0  0  0  0  0  0  0  0  0
   31.7720   28.7890   36.7250 H   0  0  0  0  0  0  0  0  0  0  0  0
   33.0740   29.0750   38.9190 O   0  0  0  0  0  0  0  0  0  0  0  0
   32.1640   29.4640   39.1310 H   0  0  0  0  0  0  0  0  0  0  0  0
  1  7  1  0  0  0  0
  1  3  1  0  0  0  0
  2  1  1  0  0  0  0
  4  5  1  0  0  0  0
  4 13  1  0  0  0  0
  5  9  1  0  0  0  0
  6  5  2  0  0  0  0
  7  8  1  0  0  0  0
  7  6  1  0  0  0  0
  8  4  2  0  0  0  0
 10  6  1  0  0  0  0
 11 17  1  0  0  0  0
 12 18  1  0  0  0  0
 12 11  2  0  0  0  0
 13 12  1  0  0  0  0
 14 13  2  0  0  0  0
 14 15  1  0  0  0  0
 15 16  2  0  0  0  0
 16 11  1  0  0  0  0
 19 15  1  0  0  0  0
 19 20  2  0  0  0  0
 21 20  1  0  0  0  0
 22 21  2  0  0  0  0
 23 22  1  0  0  0  0
 23 19  1  0  0  0  0
 24 23  1  0  0  0  0
 25 26  1  0  0  0  0
 25  1  1  0  0  0  0
 27 25  1  0  0  0  0
 28 25  1  0  0  0  0
 29 28  1  0  0  0  0
 29 38  1  0  0  0  0
 30 29  2  0  0  0  0
 31 32  2  0  0  0  0
 31 30  1  0  0  0  0
 32 37  1  0  0  0  0
 33 34  2  0  0  0  0
 33 32  1  0  0  0  0
 34 35  1  0  0  0  0
 35 43  1  0  0  0  0
 35 36  2  0  0  0  0
 36 44  1  0  0  0  0
 37 36  1  0  0  0  0
 37 28  2  0  0  0  0
 39 30  1  0  0  0  0
 40 31  1  0  0  0  0
 41 33  1  0  0  0  0
 42 34  1  0  0  0  0
 44 45  1  0  0  0  0
M  END
>  <minimizedAffinity>
-5.81025219

>  <minimizedRMSD>
0.0950513631

$$$$
