
 OpenBabel03242509283D

 45 49  0  0  0  0  0  0  0  0999 V2000
   35.9980   30.0060   40.9410 C   0  0  0  0  0  0  0  0  0  0  0  0
   36.6160   30.7920   40.4410 H   0  0  0  0  0  0  0  0  0  0  0  0
   35.4070   30.5500   41.7080 H   0  0  0  0  0  0  0  0  0  0  0  0
   38.4710   28.1500   42.6140 C   0  0  0  0  0  0  0  0  0  0  0  0
   37.4050   27.2960   42.7040 C   0  0  0  0  0  0  0  0  0  0  0  0
   36.3370   27.9290   42.0620 C   0  0  0  0  0  0  0  0  0  0  0  0
   36.8440   29.1030   41.6420 N   0  0  0  0  0  0  0  0  0  0  0  0
   38.0920   29.2700   41.9450 N   0  0  0  0  0  0  0  0  0  0  0  0
   37.4030   26.3090   43.1880 H   0  0  0  0  0  0  0  0  0  0  0  0
   35.3870   27.4570   42.0010 H   0  0  0  0  0  0  0  0  0  0  0  0
   41.4020   26.5800   44.2890 C   0  0  0  0  0  0  0  0  0  0  0  0
   40.0970   26.7310   43.8090 C   0  0  0  0  0  0  0  0  0  0  0  0
   39.8040   27.9360   43.1320 C   0  0  0  0  0  0  0  0  0  0  0  0
   40.7630   28.8640   42.9790 N   0  0  0  0  0  0  0  0  0  0  0  0
   42.0220   28.6570   43.4720 C   0  0  0  0  0  0  0  0  0  0  0  0
   42.3310   27.5240   44.1200 N   0  0  0  0  0  0  0  0  0  0  0  0
   41.6590   25.6700   44.8110 H   0  0  0  0  0  0  0  0  0  0  0  0
   39.3370   25.9710   43.9420 H   0  0  0  0  0  0  0  0  0  0  0  0
   43.0260   29.6970   43.2800 C   0  0  0  0  0  0  0  0  0  0  0  0
   44.2390   29.5670   42.6430 C   0  0  0  0  0  3  0  0  0  0  0  0
   44.8620   30.7640   42.6850 N   0  0  0  0  0  0  0  0  0  0  0  0
   44.0500   31.6190   43.3330 C   0  0  0  0  0  3  0  0  0  0  0  0
   42.9190   30.9730   43.7040 N   0  0  0  0  0  0  0  0  0  0  0  0
   42.1150   31.3760   44.2180 H   0  0  0  0  0  0  0  0  0  0  0  0
   35.1470   29.4020   39.8700 C   0  0  0  0  0  0  0  0  0  0  0  0
   34.7250   28.4700   40.2180 H   0  0  0  0  0  0  0  0  0  0  0  0
   34.3890   30.2470   39.7560 H   0  0  0  0  0  0  0  0  0  0  0  0
   35.7810   29.3630   38.5270 C   0  0  0  0  0  0  0  0  0  0  0  0
   37.1040   29.5000   38.2230 C   0  0  0  0  0  0  0  0  0  0  0  0
   37.6390   29.5300   36.9740 C   0  0  0  0  0  0  0  0  0  0  0  0
   36.8050   29.4170   35.8830 C   0  0  0  0  0  0  0  0  0  0  0  0
   35.4470   29.2750   36.1200 C   0  0  0  0  0  0  0  0  0  0  0  0
   34.6690   29.1690   34.9940 C   0  0  0  0  0  0  0  0  0  0  0  0
   33.3210   29.0220   35.1120 C   0  0  0  0  0  0  0  0  0  0  0  0
   32.7590   28.9780   36.3820 C   0  0  0  0  0  0  0  0  0  0  0  0
   33.5880   29.0890   37.4550 C   0  0  0  0  0  0  0  0  0  0  0  0
   34.9360   29.2430   37.4070 C   0  0  0  0  0  0  0  0  0  0  0  0
   37.7620   29.5900   39.0930 H   0  0  0  0  0  0  0  0  0  0  0  0
   38.7110   29.6420   36.8890 H   0  0  0  0  0  0  0  0  0  0  0  0
   37.2480   29.4460   34.9130 H   0  0  0  0  0  0  0  0  0  0  0  0
   35.0600   29.1950   33.9860 H   0  0  0  0  0  0  0  0  0  0  0  0
   32.6690   28.9380   34.2510 H   0  0  0  0  0  0  0  0  0  0  0  0
   31.6960   28.8600   36.4680 H   0  0  0  0  0  0  0  0  0  0  0  0
   32.9690   29.0210   38.6910 O   0  0  0  0  0  0  0  0  0  0  0  0
   32.0620   29.4120   38.9090 H   0  0  0  0  0  0  0  0  0  0  0  0
  1  7  1  0  0  0  0
  1  3  1  0  0  0  0
  2  1  1  0  0  0  0
  4  5  1  0  0  0  0
  4 13  1  0  0  0  0
  5  9  1  0  0  0  0
  6  5  2  0  0  0  0
  7  8  1  0  0  0  0
  7  6  1  0  0  0  0
  8  4  2  0  0  0  0
 10  6  1  0  0  0  0
 11 17  1  0  0  0  0
 12 18  1  0  0  0  0
 12 11  2  0  0  0  0
 13 12  1  0  0  0  0
 14 13  2  0  0  0  0
 14 15  1  0  0  0  0
 15 16  2  0  0  0  0
 16 11  1  0  0  0  0
 19 15  1  0  0  0  0
 19 23  1  0  0  0  0
 20 21  1  0  0  0  0
 20 19  2  0  0  0  0
 21 22  2  0  0  0  0
 22 23  1  0  0  0  0
 23 24  1  0  0  0  0
 25 26  1  0  0  0  0
 25  1  1  0  0  0  0
 27 25  1  0  0  0  0
 28 25  1  0  0  0  0
 29 28  1  0  0  0  0
 29 38  1  0  0  0  0
 30 29  2  0  0  0  0
 31 32  2  0  0  0  0
 31 30  1  0  0  0  0
 32 37  1  0  0  0  0
 33 34  2  0  0  0  0
 33 32  1  0  0  0  0
 34 35  1  0  0  0  0
 35 43  1  0  0  0  0
 35 36  2  0  0  0  0
 36 44  1  0  0  0  0
 37 36  1  0  0  0  0
 37 28  2  0  0  0  0
 39 30  1  0  0  0  0
 40 31  1  0  0  0  0
 41 33  1  0  0  0  0
 42 34  1  0  0  0  0
 44 45  1  0  0  0  0
M  END
>  <minimizedAffinity>
-5.91291571

>  <minimizedRMSD>
0.435348123

$$$$
