
 OpenBabel03242509323D

 18 19  0  0  0  0  0  0  0  0999 V2000
   37.6010   28.7780   43.6210 C   0  0  0  0  0  0  0  0  0  0  0  0
   37.6350   27.3520   43.5440 C   0  0  0  0  0  0  0  0  0  0  0  0
   37.4740   26.8010   42.2580 C   0  0  0  0  0  0  0  0  0  0  0  0
   37.2970   27.6450   41.1770 N   0  0  0  0  0  0  0  0  0  0  0  0
   37.2770   28.9720   41.3310 C   0  0  0  0  0  0  0  0  0  0  0  0
   37.4250   29.5320   42.5280 N   0  0  0  0  0  0  0  0  0  0  0  0
   37.7250   29.2220   44.6130 H   0  0  0  0  0  0  0  0  0  0  0  0
   37.7760   26.7290   44.4130 H   0  0  0  0  0  0  0  0  0  0  0  0
   37.0870   29.8230   40.1620 C   0  0  0  0  0  0  0  0  0  0  0  0
   36.5790   29.4580   38.9270 C   0  0  0  0  0  3  0  0  0  0  0  0
   36.5600   30.5090   38.1150 N   0  0  0  0  0  0  0  0  0  0  0  0
   37.0490   31.5640   38.7970 C   0  0  0  0  0  3  0  0  0  0  0  0
   37.3570   31.1330   40.0140 N   0  0  0  0  0  0  0  0  0  0  0  0
   37.7610   31.7580   40.7530 H   0  0  0  0  0  0  0  0  0  0  0  0
   37.5010   25.3180   42.1130 C   0  0  0  0  0  0  0  0  0  0  0  0
   37.5580   25.0680   40.7620 F   0  0  0  0  0  0  0  0  0  0  0  0
   38.5990   24.7580   42.7020 F   0  0  0  0  0  0  0  0  0  0  0  0
   36.3370   24.7330   42.6280 F   0  0  0  0  0  0  0  0  0  0  0  0
  1  7  1  0  0  0  0
  2  1  1  0  0  0  0
  2  8  1  0  0  0  0
  3  2  2  0  0  0  0
  4  5  2  0  0  0  0
  4  3  1  0  0  0  0
  5  6  1  0  0  0  0
  6  1  2  0  0  0  0
  9  5  1  0  0  0  0
 10  9  2  0  0  0  0
 11 12  2  0  0  0  0
 11 10  1  0  0  0  0
 12 13  1  0  0  0  0
 13  9  1  0  0  0  0
 13 14  1  0  0  0  0
 15  3  1  0  0  0  0
 15 18  1  0  0  0  0
 15 17  1  0  0  0  0
 16 15  1  0  0  0  0
M  END
>  <minimizedAffinity>
-4.15567875

>  <minimizedRMSD>
1.11356509

$$$$
