
 OpenBabel03242507053D

 22 23  0  0  0  0  0  0  0  0999 V2000
   36.1090   30.6400   41.0040 C   0  0  0  0  0  0  0  0  0  0  0  0
   36.1590   31.6220   41.4940 H   0  0  0  0  0  0  0  0  0  0  0  0
   35.0570   30.2850   41.0460 H   0  0  0  0  0  0  0  0  0  0  0  0
   36.5620   30.7540   39.5770 C   0  0  0  0  0  0  0  0  0  0  0  0
   36.1160   29.7710   38.7140 C   0  0  0  0  0  0  0  0  0  0  0  0
   35.4770   28.9690   39.0600 H   0  0  0  0  0  0  0  0  0  0  0  0
   36.4630   29.7700   37.3860 C   0  0  0  0  0  0  0  0  0  0  0  0
   37.2760   30.7870   36.9320 C   0  0  0  0  0  0  0  0  0  0  0  0
   37.5530   30.7900   35.8850 H   0  0  0  0  0  0  0  0  0  0  0  0
   37.7290   31.7820   37.8020 C   0  0  0  0  0  0  0  0  0  0  0  0
   38.3670   32.5680   37.4150 H   0  0  0  0  0  0  0  0  0  0  0  0
   37.3760   31.7820   39.1460 C   0  0  0  0  0  0  0  0  0  0  0  0
   38.8370   29.1200   42.9350 C   0  0  0  0  0  0  0  0  0  0  0  0
   38.4090   27.8030   43.0990 C   0  0  0  0  0  0  0  0  0  0  0  0
   37.1840   27.4180   42.5510 C   0  0  0  0  0  0  0  0  0  0  0  0
   36.4560   28.3660   41.8730 N   0  0  0  0  0  0  0  0  0  0  0  0
   36.9120   29.6320   41.7410 C   0  0  0  0  0  0  0  0  0  0  0  0
   38.0790   29.9880   42.2650 N   0  0  0  0  0  0  0  0  0  0  0  0
   39.7820   29.4570   43.3460 H   0  0  0  0  0  0  0  0  0  0  0  0
   39.0400   27.1150   43.6460 H   0  0  0  0  0  0  0  0  0  0  0  0
   36.7870   26.1120   42.7280 O   0  0  0  0  0  0  0  0  0  0  0  0
   36.7940   25.4910   41.9280 H   0  0  0  0  0  0  0  0  0  0  0  0
  1  3  1  0  0  0  0
  1  2  1  0  0  0  0
  1 17  1  0  0  0  0
  4  1  1  0  0  0  0
  5  6  1  0  0  0  0
  5  4  2  0  0  0  0
  7  5  1  0  0  0  0
  8  7  2  0  0  0  0
  8 10  1  0  0  0  0
  9  8  1  0  0  0  0
 10 12  2  0  0  0  0
 11 10  1  0  0  0  0
 12  4  1  0  0  0  0
 13 14  1  0  0  0  0
 13 19  1  0  0  0  0
 14 20  1  0  0  0  0
 15 21  1  0  0  0  0
 15 14  2  0  0  0  0
 16 15  1  0  0  0  0
 17 16  2  0  0  0  0
 17 18  1  0  0  0  0
 18 13  2  0  0  0  0
 22 21  1  0  0  0  0
M  END
>  <minimizedAffinity>
-4.53853607

>  <minimizedRMSD>
0.678342521

$$$$
