
 OpenBabel03242508303D

 28 31  0  0  0  0  0  0  0  0999 V2000
   36.4080   30.5700   41.3680 O   0  0  0  0  0  0  0  0  0  0  0  0
   38.6600   28.4550   43.2580 C   0  0  0  0  0  0  0  0  0  0  0  0
   38.3370   27.2120   42.6860 C   0  0  0  0  0  0  0  0  0  0  0  0
   37.3470   27.1850   41.6700 C   0  0  0  0  0  0  0  0  0  0  0  0
   36.7870   28.3690   41.3280 N   0  0  0  0  0  0  0  0  0  0  0  0
   37.1190   29.5280   41.8920 C   0  0  0  0  0  0  0  0  0  0  0  0
   38.0460   29.5690   42.8460 N   0  0  0  0  0  0  0  0  0  0  0  0
   39.4130   28.5080   44.0370 H   0  0  0  0  0  0  0  0  0  0  0  0
   38.8120   26.2970   42.9940 H   0  0  0  0  0  0  0  0  0  0  0  0
   36.9620   25.9090   41.0290 C   0  0  0  0  0  0  0  0  0  0  0  0
   36.9710   24.7170   41.6570 C   0  0  0  0  0  0  0  0  0  0  0  0
   36.5480   23.8650   40.6790 N   0  0  0  0  0  0  0  0  0  0  0  0
   36.3120   24.5610   39.5460 C   0  0  0  0  0  0  0  0  0  0  0  0
   36.5750   25.8730   39.7640 N   0  0  0  0  0  0  0  0  0  0  0  0
   36.4740   26.6300   39.0500 H   0  0  0  0  0  0  0  0  0  0  0  0
   36.9950   31.4630   40.4950 C   0  0  0  0  0  0  0  0  0  0  0  0
   36.8310   31.6620   39.1690 N   0  0  0  0  0  0  0  0  0  0  0  0
   37.6200   32.6360   38.7840 O   0  0  0  0  0  0  0  0  0  0  0  0
   38.2800   33.0560   39.8460 C   0  0  0  0  0  0  0  0  0  0  0  0
   37.9140   32.3510   40.9120 N   0  0  0  0  0  0  0  0  0  0  0  0
   39.2580   34.1360   39.8150 C   0  0  0  0  0  0  0  0  0  0  0  0
   39.0340   35.4540   40.2070 C   0  0  0  0  0  0  0  0  0  0  0  0
   40.1960   36.1790   40.0340 C   0  0  0  0  0  0  0  0  0  0  0  0
   41.1050   35.2530   39.5310 C   0  0  0  0  0  0  0  0  0  0  0  0
   40.5000   34.1060   39.4320 O   0  0  0  0  0  0  0  0  0  0  0  0
   38.1040   35.8590   40.5880 H   0  0  0  0  0  0  0  0  0  0  0  0
   40.3280   37.2380   40.2540 H   0  0  0  0  0  0  0  0  0  0  0  0
   42.1250   35.5230   39.2890 H   0  0  0  0  0  0  0  0  0  0  0  0
  1  6  1  0  0  0  0
  2  8  1  0  0  0  0
  3  9  1  0  0  0  0
  3  2  2  0  0  0  0
  4  3  1  0  0  0  0
  5  4  2  0  0  0  0
  5  6  1  0  0  0  0
  6  7  2  0  0  0  0
  7  2  1  0  0  0  0
 10 11  2  0  0  0  0
 10  4  1  0  0  0  0
 12 11  1  0  0  0  0
 13 14  1  0  0  0  0
 13 12  2  0  0  0  0
 14 10  1  0  0  0  0
 15 14  1  0  0  0  0
 16 20  1  0  0  0  0
 16  1  1  0  0  0  0
 17 16  2  0  0  0  0
 18 17  1  0  0  0  0
 18 19  1  0  0  0  0
 19 20  2  0  0  0  0
 21 19  1  0  0  0  0
 21 22  2  0  0  0  0
 22 26  1  0  0  0  0
 23 22  1  0  0  0  0
 23 27  1  0  0  0  0
 24 23  2  0  0  0  0
 25 24  1  0  0  0  0
 25 21  1  0  0  0  0
 28 24  1  0  0  0  0
M  END
>  <minimizedAffinity>
-5.74706173

>  <minimizedRMSD>
0.74761641

$$$$
