
 OpenBabel03242509323D

 18 19  0  0  0  0  0  0  0  0999 V2000
   37.8160   28.6750   43.5380 C   0  0  0  0  0  0  0  0  0  0  0  0
   38.3250   27.3520   43.7070 C   0  0  0  0  0  0  0  0  0  0  0  0
   38.4130   26.5710   42.5380 C   0  0  0  0  0  0  0  0  0  0  0  0
   38.0140   27.1130   41.3300 N   0  0  0  0  0  0  0  0  0  0  0  0
   37.5480   28.3640   41.2530 C   0  0  0  0  0  0  0  0  0  0  0  0
   37.4490   29.1330   42.3340 N   0  0  0  0  0  0  0  0  0  0  0  0
   37.7420   29.2950   44.4360 H   0  0  0  0  0  0  0  0  0  0  0  0
   38.6260   26.9660   44.6680 H   0  0  0  0  0  0  0  0  0  0  0  0
   37.1380   28.8940   39.9580 C   0  0  0  0  0  0  0  0  0  0  0  0
   36.3590   30.0110   39.7140 C   0  0  0  0  0  3  0  0  0  0  0  0
   36.2010   30.1770   38.4050 N   0  0  0  0  0  0  0  0  0  0  0  0
   36.8670   29.1850   37.7820 C   0  0  0  0  0  3  0  0  0  0  0  0
   37.4180   28.4320   38.7250 N   0  0  0  0  0  0  0  0  0  0  0  0
   37.9980   27.5850   38.5110 H   0  0  0  0  0  0  0  0  0  0  0  0
   38.9360   25.1810   42.6500 C   0  0  0  0  0  0  0  0  0  0  0  0
   39.7450   24.9870   41.5560 F   0  0  0  0  0  0  0  0  0  0  0  0
   39.6850   24.9970   43.7780 F   0  0  0  0  0  0  0  0  0  0  0  0
   37.8990   24.2400   42.6120 F   0  0  0  0  0  0  0  0  0  0  0  0
  1  2  1  0  0  0  0
  1  7  1  0  0  0  0
  2  8  1  0  0  0  0
  3 15  1  0  0  0  0
  3  2  2  0  0  0  0
  4  3  1  0  0  0  0
  5  4  2  0  0  0  0
  5  6  1  0  0  0  0
  6  1  2  0  0  0  0
  9  5  1  0  0  0  0
 10  9  2  0  0  0  0
 11 10  1  0  0  0  0
 12 11  2  0  0  0  0
 12 13  1  0  0  0  0
 13  9  1  0  0  0  0
 14 13  1  0  0  0  0
 15 17  1  0  0  0  0
 16 15  1  0  0  0  0
 18 15  1  0  0  0  0
M  END
>  <minimizedAffinity>
-3.84348154

>  <minimizedRMSD>
1.5584538

$$$$
