
 OpenBabel03242509313D

 18 19  0  0  0  0  0  0  0  0999 V2000
   37.8040   28.6820   43.5830 C   0  0  0  0  0  0  0  0  0  0  0  0
   38.1850   27.3070   43.6430 C   0  0  0  0  0  0  0  0  0  0  0  0
   38.0770   26.5850   42.4380 C   0  0  0  0  0  0  0  0  0  0  0  0
   37.6210   27.2280   41.3020 N   0  0  0  0  0  0  0  0  0  0  0  0
   37.2830   28.5210   41.3260 C   0  0  0  0  0  0  0  0  0  0  0  0
   37.3710   29.2380   42.4440 N   0  0  0  0  0  0  0  0  0  0  0  0
   37.8830   29.2570   44.5100 H   0  0  0  0  0  0  0  0  0  0  0  0
   38.5360   26.8430   44.5500 H   0  0  0  0  0  0  0  0  0  0  0  0
   36.8070   29.1580   40.1050 C   0  0  0  0  0  0  0  0  0  0  0  0
   37.2090   30.3750   39.5790 C   0  0  0  0  0  3  0  0  0  0  0  0
   36.5510   30.6200   38.4510 N   0  0  0  0  0  0  0  0  0  0  0  0
   35.7200   29.5820   38.2260 C   0  0  0  0  0  3  0  0  0  0  0  0
   35.8900   28.7230   39.2220 N   0  0  0  0  0  0  0  0  0  0  0  0
   35.3610   27.8200   39.2920 H   0  0  0  0  0  0  0  0  0  0  0  0
   38.4600   25.1450   42.4360 C   0  0  0  0  0  0  0  0  0  0  0  0
   39.0400   24.9060   41.2120 F   0  0  0  0  0  0  0  0  0  0  0  0
   39.3700   24.8490   43.4100 F   0  0  0  0  0  0  0  0  0  0  0  0
   37.3380   24.3170   42.5680 F   0  0  0  0  0  0  0  0  0  0  0  0
  1  2  1  0  0  0  0
  1  7  1  0  0  0  0
  2  8  1  0  0  0  0
  3  2  2  0  0  0  0
  4  5  2  0  0  0  0
  4  3  1  0  0  0  0
  5  6  1  0  0  0  0
  6  1  2  0  0  0  0
  9  5  1  0  0  0  0
 10  9  2  0  0  0  0
 11 10  1  0  0  0  0
 12 11  2  0  0  0  0
 12 13  1  0  0  0  0
 13 14  1  0  0  0  0
 13  9  1  0  0  0  0
 15  3  1  0  0  0  0
 15 18  1  0  0  0  0
 15 17  1  0  0  0  0
 16 15  1  0  0  0  0
M  END
>  <minimizedAffinity>
-3.8880744

>  <minimizedRMSD>
1.08855021

$$$$
