
     RDKit          3D

 20 21  0  0  0  0  0  0  0  0999 V2000
   37.9708   28.8836   43.3669 C   0  0  0  0  0  0  0  0  0  0  0  0
   38.0968   27.4621   43.3197 C   0  0  0  0  0  0  0  0  0  0  0  0
   37.4379   26.8202   42.2534 C   0  0  0  0  0  0  0  0  0  0  0  0
   36.7284   27.5795   41.3412 N   0  0  0  0  0  0  0  0  0  0  0  0
   36.6573   28.9092   41.4535 C   0  0  0  0  0  0  0  0  0  0  0  0
   37.2653   29.5531   42.4459 N   0  0  0  0  0  0  0  0  0  0  0  0
   37.5325   25.3375   42.1503 C   0  0  0  0  0  0  0  0  0  0  0  0
   37.6545   25.0537   40.8097 F   0  0  0  0  0  0  0  0  0  0  0  0
   38.6281   24.8397   42.7974 F   0  0  0  0  0  0  0  0  0  0  0  0
   36.3744   24.7163   42.6350 F   0  0  0  0  0  0  0  0  0  0  0  0
   38.4767   29.3980   44.1892 H   0  0  0  0  0  0  0  0  0  0  0  0
   38.6606   26.9069   44.0524 H   0  0  0  0  0  0  0  0  0  0  0  0
   35.8973   29.6691   40.4675 C   0  0  0  0  0  0  0  0  0  0  0  0
   36.3683   30.6611   39.6242 C   0  0  0  0  0  0  0  0  0  0  0  0
   35.3774   31.1199   38.8673 N   0  0  0  0  0  0  0  0  0  0  0  0
   34.2590   30.4442   39.1996 C   0  0  0  0  0  0  0  0  0  0  0  0
   34.5914   29.5852   40.1546 N   0  0  0  0  0  0  0  0  0  0  0  0
   37.4105   30.9771   39.6263 H   0  0  0  0  0  0  0  0  0  0  0  0
   33.3230   30.6566   38.7043 H   0  0  0  0  0  0  0  0  0  0  0  0
   33.9019   28.9305   40.5962 H   0  0  0  0  0  0  0  0  0  0  0  0
  2  1  2  0
  3  2  1  0
  4  5  1  0
  4  3  2  0
  5  6  2  0
  6  1  1  0
  7  3  1  0
  7 10  1  0
  7  9  1  0
  8  7  1  0
  1 11  1  0
  2 12  1  0
 13 14  2  0
 14 15  1  0
 15 16  2  0
 16 17  1  0
 17 13  1  0
 14 18  1  0
 16 19  1  0
 17 20  1  0
  5 13  1  0
M  ISO  2  11  14  12  14
M  END
>  <DihAtoms>  (1) 
3,4,12,13

>  <DihDeg>  (1) 
-179.9939352877311

$$$$
