
 OpenBabel03242509313D

 18 19  0  0  0  0  0  0  0  0999 V2000
   37.8530   28.7240   43.5580 C   0  0  0  0  0  0  0  0  0  0  0  0
   38.3730   27.3980   43.6720 C   0  0  0  0  0  0  0  0  0  0  0  0
   38.2590   26.5900   42.5230 C   0  0  0  0  0  0  0  0  0  0  0  0
   37.6680   27.1100   41.3860 N   0  0  0  0  0  0  0  0  0  0  0  0
   37.2050   28.3630   41.3580 C   0  0  0  0  0  0  0  0  0  0  0  0
   37.2940   29.1580   42.4210 N   0  0  0  0  0  0  0  0  0  0  0  0
   37.9340   29.3640   44.4400 H   0  0  0  0  0  0  0  0  0  0  0  0
   38.8270   27.0310   44.5780 H   0  0  0  0  0  0  0  0  0  0  0  0
   36.5900   28.8690   40.1370 C   0  0  0  0  0  0  0  0  0  0  0  0
   37.0170   29.9310   39.3560 C   0  0  0  0  0  3  0  0  0  0  0  0
   36.1980   30.0910   38.3220 N   0  0  0  0  0  0  0  0  0  0  0  0
   35.2370   29.1490   38.4090 C   0  0  0  0  0  3  0  0  0  0  0  0
   35.4900   28.4320   39.4970 N   0  0  0  0  0  0  0  0  0  0  0  0
   34.8910   27.6270   39.8000 H   0  0  0  0  0  0  0  0  0  0  0  0
   38.7830   25.1970   42.5810 C   0  0  0  0  0  0  0  0  0  0  0  0
   39.5280   25.0220   41.4390 F   0  0  0  0  0  0  0  0  0  0  0  0
   39.5940   24.9910   43.6610 F   0  0  0  0  0  0  0  0  0  0  0  0
   37.7420   24.2590   42.5850 F   0  0  0  0  0  0  0  0  0  0  0  0
  1  2  1  0  0  0  0
  1  7  1  0  0  0  0
  2  8  1  0  0  0  0
  3 15  1  0  0  0  0
  3  2  2  0  0  0  0
  4  3  1  0  0  0  0
  5  4  2  0  0  0  0
  5  6  1  0  0  0  0
  6  1  2  0  0  0  0
  9  5  1  0  0  0  0
 10  9  2  0  0  0  0
 11 12  2  0  0  0  0
 11 10  1  0  0  0  0
 12 13  1  0  0  0  0
 13 14  1  0  0  0  0
 13  9  1  0  0  0  0
 15 18  1  0  0  0  0
 15 17  1  0  0  0  0
 16 15  1  0  0  0  0
M  END
>  <minimizedAffinity>
-3.89171815

>  <minimizedRMSD>
1.22552705

$$$$
