
 OpenBabel03242506463D

 30 33  0  0  0  0  0  0  0  0999 V2000
   44.6350   26.4000   44.1790 C   0  0  0  0  0  0  0  0  0  0  0  0
   43.4230   26.4470   43.4610 C   0  0  0  0  0  0  0  0  0  0  0  0
   42.2670   26.8280   44.1270 C   0  0  0  0  0  0  0  0  0  0  0  0
   42.3630   27.1430   45.4690 N   0  0  0  0  0  0  0  0  0  0  0  0
   43.5330   27.0850   46.1140 C   0  0  0  0  0  0  0  0  0  0  0  0
   44.6580   26.7200   45.4860 N   0  0  0  0  0  0  0  0  0  0  0  0
   45.5680   26.1120   43.7180 H   0  0  0  0  0  0  0  0  0  0  0  0
   43.4810   26.0870   42.0520 C   0  0  0  0  0  0  0  0  0  0  0  0
   44.2560   26.5580   41.0270 C   0  0  0  0  0  0  0  0  0  0  0  0
   43.9400   25.9030   39.8850 N   0  0  0  0  0  0  0  0  0  0  0  0
   42.9690   25.0220   40.1900 C   0  0  0  0  0  0  0  0  0  0  0  0
   42.7090   25.1460   41.4820 N   0  0  0  0  0  0  0  0  0  0  0  0
   41.9650   24.5180   41.8710 H   0  0  0  0  0  0  0  0  0  0  0  0
   43.5750   27.4380   47.5650 C   0  0  0  0  0  0  0  0  0  0  0  0
   44.4010   28.5210   47.7870 F   0  0  0  0  0  0  0  0  0  0  0  0
   42.3130   27.8740   47.9890 F   0  0  0  0  0  0  0  0  0  0  0  0
   44.0490   26.4020   48.3480 F   0  0  0  0  0  0  0  0  0  0  0  0
   41.1010   26.8710   43.4310 O   0  0  0  0  0  0  0  0  0  0  0  0
   37.1580   29.1030   43.3380 N   0  0  0  0  0  0  0  0  0  0  0  0
   37.0040   27.8520   43.7680 C   0  0  0  0  0  0  0  0  0  0  0  0
   38.2280   27.2760   43.7600 N   0  0  0  0  0  0  0  0  0  0  0  0
   39.1630   28.1460   43.3270 C   0  0  0  0  0  0  0  0  0  0  0  0
   40.5330   28.0860   43.1290 C   0  0  0  0  0  0  0  0  0  0  0  0
   41.1680   29.1890   42.6700 N   0  0  0  0  0  0  0  0  0  0  0  0
   40.4720   30.3210   42.4140 C   0  0  0  0  0  0  0  0  0  0  0  0
   39.1290   30.4090   42.6010 N   0  0  0  0  0  0  0  0  0  0  0  0
   38.4520   29.3170   43.0620 C   0  0  0  0  0  0  0  0  0  0  0  0
   36.4410   29.8590   43.2090 H   0  0  0  0  0  0  0  0  0  0  0  0
   36.0610   27.4230   44.0580 H   0  0  0  0  0  0  0  0  0  0  0  0
   41.0790   31.1420   42.0520 H   0  0  0  0  0  0  0  0  0  0  0  0
  1  6  1  0  0  0  0
  2  3  1  0  0  0  0
  2  1  2  0  0  0  0
  3  4  2  0  0  0  0
  4  5  1  0  0  0  0
  5 14  1  0  0  0  0
  6  5  2  0  0  0  0
  7  1  1  0  0  0  0
  8  2  1  0  0  0  0
  9  8  2  0  0  0  0
 10 11  2  0  0  0  0
 10  9  1  0  0  0  0
 11 12  1  0  0  0  0
 12 13  1  0  0  0  0
 12  8  1  0  0  0  0
 14 15  1  0  0  0  0
 14 16  1  0  0  0  0
 14 17  1  0  0  0  0
 18  3  1  0  0  0  0
 19 20  1  0  0  0  0
 20 29  1  0  0  0  0
 21 20  2  0  0  0  0
 22 21  1  0  0  0  0
 23 22  1  0  0  0  0
 23 18  1  0  0  0  0
 24 23  2  0  0  0  0
 25 26  2  0  0  0  0
 25 24  1  0  0  0  0
 26 27  1  0  0  0  0
 27 22  2  0  0  0  0
 27 19  1  0  0  0  0
 28 19  1  0  0  0  0
 30 25  1  0  0  0  0
M  END
>  <minimizedAffinity>
-5.59678173

>  <minimizedRMSD>
0.580895901

$$$$
