
 OpenBabel03242508213D

 28 31  0  0  0  0  0  0  0  0999 V2000
   38.8850   27.1880   43.8130 C   0  0  0  0  0  0  0  0  0  0  0  0
   39.3410   26.2480   42.8850 C   0  0  0  0  0  0  0  0  0  0  0  0
   39.2490   26.5800   41.5190 C   0  0  0  0  0  0  0  0  0  0  0  0
   38.7250   27.7910   41.1970 N   0  0  0  0  0  0  0  0  0  0  0  0
   38.2950   28.6720   42.1270 C   0  0  0  0  0  0  0  0  0  0  0  0
   38.3740   28.3720   43.4500 N   0  0  0  0  0  0  0  0  0  0  0  0
   37.7890   29.8680   41.5220 N   0  0  0  0  0  0  0  0  0  0  0  0
   36.4670   29.9910   41.2200 C   0  0  0  0  0  0  0  0  0  0  0  0
   36.2350   31.1960   40.6610 N   0  0  0  0  0  0  0  0  0  0  0  0
   37.4060   31.8420   40.6070 C   0  0  0  0  0  0  0  0  0  0  0  0
   37.8290   33.0960   40.1530 C   0  0  0  0  0  0  0  0  0  0  0  0
   39.1290   33.4350   40.2540 N   0  0  0  0  0  0  0  0  0  0  0  0
   40.0350   32.5940   40.7840 C   0  0  0  0  0  0  0  0  0  0  0  0
   39.6650   31.3590   41.2400 N   0  0  0  0  0  0  0  0  0  0  0  0
   38.3590   31.0000   41.1470 C   0  0  0  0  0  0  0  0  0  0  0  0
   36.7980   33.8850   39.6130 N   0  0  0  0  0  0  0  0  0  0  0  0
   38.9170   27.0160   44.8900 H   0  0  0  0  0  0  0  0  0  0  0  0
   39.7450   25.3080   43.2320 H   0  0  0  0  0  0  0  0  0  0  0  0
   39.5870   25.8870   40.7890 H   0  0  0  0  0  0  0  0  0  0  0  0
   35.6690   29.2790   41.3720 H   0  0  0  0  0  0  0  0  0  0  0  0
   36.9740   34.1810   38.6260 H   0  0  0  0  0  0  0  0  0  0  0  0
   35.8990   34.2260   40.0130 H   0  0  0  0  0  0  0  0  0  0  0  0
   41.4410   32.9700   40.8890 C   0  0  0  0  0  0  0  0  0  0  0  0
   42.4720   32.6400   41.6910 N   0  0  0  0  0  0  0  0  0  0  0  0
   43.5350   33.2950   41.3270 O   0  0  0  0  0  0  0  0  0  0  0  0
   43.2810   34.0720   40.2980 C   0  0  0  0  0  0  0  0  0  0  0  0
   43.8780   34.7560   39.7150 H   0  0  0  0  0  0  0  0  0  0  0  0
   41.9800   33.8740   40.0210 N   0  0  0  0  0  0  0  0  0  0  0  0
  1 17  1  0  0  0  0
  2 18  1  0  0  0  0
  2  1  2  0  0  0  0
  3  2  1  0  0  0  0
  4  3  2  0  0  0  0
  4  5  1  0  0  0  0
  5  6  2  0  0  0  0
  6  1  1  0  0  0  0
  7  5  1  0  0  0  0
  8 20  1  0  0  0  0
  8  7  1  0  0  0  0
  9  8  2  0  0  0  0
 10  9  1  0  0  0  0
 10 15  1  0  0  0  0
 11 12  1  0  0  0  0
 11 10  2  0  0  0  0
 12 13  2  0  0  0  0
 13 23  1  0  0  0  0
 13 14  1  0  0  0  0
 15 14  2  0  0  0  0
 15  7  1  0  0  0  0
 16 22  1  0  0  0  0
 16 11  1  0  0  0  0
 19  3  1  0  0  0  0
 21 16  1  0  0  0  0
 23 24  2  0  0  0  0
 25 24  1  0  0  0  0
 26 25  1  0  0  0  0
 27 26  1  0  0  0  0
 28 26  2  0  0  0  0
 28 23  1  0  0  0  0
M  END
>  <minimizedAffinity>
-5.81213474

>  <minimizedRMSD>
1.12496471

$$$$
