
 OpenBabel03242508303D

 28 31  0  0  0  0  0  0  0  0999 V2000
   38.4190   31.4130   38.1420 O   0  0  0  0  0  0  0  0  0  0  0  0
   41.8930   32.3380   37.6030 C   0  0  0  0  0  0  0  0  0  0  0  0
   41.9410   33.4760   38.4380 C   0  0  0  0  0  0  0  0  0  0  0  0
   40.7730   33.8470   39.1290 C   0  0  0  0  0  0  0  0  0  0  0  0
   39.6610   33.0900   38.9560 N   0  0  0  0  0  0  0  0  0  0  0  0
   39.6540   32.0180   38.1560 C   0  0  0  0  0  0  0  0  0  0  0  0
   40.7600   31.6440   37.4850 N   0  0  0  0  0  0  0  0  0  0  0  0
   42.7720   32.0230   37.0560 H   0  0  0  0  0  0  0  0  0  0  0  0
   42.8530   34.0370   38.5340 H   0  0  0  0  0  0  0  0  0  0  0  0
   40.8190   35.0230   39.9930 C   0  0  0  0  0  0  0  0  0  0  0  0
   39.9450   36.0210   39.9840 N   0  0  0  0  0  0  0  0  0  0  0  0
   40.2700   36.9270   40.8840 O   0  0  0  0  0  0  0  0  0  0  0  0
   41.3770   36.5140   41.4940 C   0  0  0  0  0  0  0  0  0  0  0  0
   42.0440   36.8530   42.2770 H   0  0  0  0  0  0  0  0  0  0  0  0
   41.7310   35.3160   40.9420 N   0  0  0  0  0  0  0  0  0  0  0  0
   37.7580   31.1430   39.3260 C   0  0  0  0  0  0  0  0  0  0  0  0
   36.7860   31.8400   39.9750 N   0  0  0  0  0  0  0  0  0  0  0  0
   36.4640   31.1970   41.0660 O   0  0  0  0  0  0  0  0  0  0  0  0
   37.2120   30.1090   41.1210 C   0  0  0  0  0  0  0  0  0  0  0  0
   38.0170   30.0550   40.0580 N   0  0  0  0  0  0  0  0  0  0  0  0
   37.1320   29.1400   42.2020 C   0  0  0  0  0  0  0  0  0  0  0  0
   36.4490   27.9230   42.1510 C   0  0  0  0  0  0  0  0  0  0  0  0
   36.6060   27.2830   43.3710 C   0  0  0  0  0  0  0  0  0  0  0  0
   37.3860   28.1520   44.1170 C   0  0  0  0  0  0  0  0  0  0  0  0
   37.6480   29.1850   43.3910 O   0  0  0  0  0  0  0  0  0  0  0  0
   35.8940   27.5610   41.2840 H   0  0  0  0  0  0  0  0  0  0  0  0
   36.1690   26.3060   43.5990 H   0  0  0  0  0  0  0  0  0  0  0  0
   37.6870   27.9380   45.1240 H   0  0  0  0  0  0  0  0  0  0  0  0
  1  6  1  0  0  0  0
  1 16  1  0  0  0  0
  2  3  1  0  0  0  0
  3  9  1  0  0  0  0
  3  4  2  0  0  0  0
  4 10  1  0  0  0  0
  5  4  1  0  0  0  0
  6  5  2  0  0  0  0
  7  2  2  0  0  0  0
  7  6  1  0  0  0  0
  8  2  1  0  0  0  0
 10 15  1  0  0  0  0
 11 10  2  0  0  0  0
 11 12  1  0  0  0  0
 12 13  1  0  0  0  0
 13 14  1  0  0  0  0
 15 13  2  0  0  0  0
 16 17  2  0  0  0  0
 16 20  1  0  0  0  0
 17 18  1  0  0  0  0
 18 19  1  0  0  0  0
 19 21  1  0  0  0  0
 20 19  2  0  0  0  0
 21 25  1  0  0  0  0
 22 21  2  0  0  0  0
 22 23  1  0  0  0  0
 23 27  1  0  0  0  0
 23 24  2  0  0  0  0
 24 28  1  0  0  0  0
 25 24  1  0  0  0  0
 26 22  1  0  0  0  0
M  END
>  <minimizedAffinity>
-5.79861975

>  <minimizedRMSD>
8.11640739

$$$$
