
 OpenBabel03242509273D

 45 49  0  0  0  0  0  0  0  0999 V2000
   36.1180   30.0690   41.0720 C   0  0  0  0  0  0  0  0  0  0  0  0
   35.5050   30.5670   41.8680 H   0  0  0  0  0  0  0  0  0  0  0  0
   36.7200   30.8770   40.5970 H   0  0  0  0  0  0  0  0  0  0  0  0
   38.5930   28.1730   42.6890 C   0  0  0  0  0  0  0  0  0  0  0  0
   37.5170   27.3330   42.7950 C   0  0  0  0  0  0  0  0  0  0  0  0
   36.4440   27.9790   42.1770 C   0  0  0  0  0  0  0  0  0  0  0  0
   36.9600   29.1490   41.7520 N   0  0  0  0  0  0  0  0  0  0  0  0
   38.2090   29.2890   42.0370 N   0  0  0  0  0  0  0  0  0  0  0  0
   37.5150   26.3550   43.2710 H   0  0  0  0  0  0  0  0  0  0  0  0
   35.4590   27.5470   42.1100 H   0  0  0  0  0  0  0  0  0  0  0  0
   41.5360   26.5510   44.2960 C   0  0  0  0  0  0  0  0  0  0  0  0
   40.2260   26.7290   43.8390 C   0  0  0  0  0  0  0  0  0  0  0  0
   39.9330   27.9340   43.1860 C   0  0  0  0  0  0  0  0  0  0  0  0
   40.9040   28.8740   43.0190 N   0  0  0  0  0  0  0  0  0  0  0  0
   42.1650   28.6400   43.4900 C   0  0  0  0  0  0  0  0  0  0  0  0
   42.4710   27.4890   44.1210 N   0  0  0  0  0  0  0  0  0  0  0  0
   41.7510   25.6320   44.7920 H   0  0  0  0  0  0  0  0  0  0  0  0
   39.4750   25.9560   43.9900 H   0  0  0  0  0  0  0  0  0  0  0  0
   43.0990   29.7320   43.2400 C   0  0  0  0  0  0  0  0  0  0  0  0
   42.6880   30.9500   43.6370 N   0  0  0  0  0  0  0  0  0  0  0  0
   43.5930   31.8360   43.3660 O   0  0  0  0  0  0  0  0  0  0  0  0
   44.6020   31.2350   42.7970 C   0  0  0  0  0  0  0  0  0  0  0  0
   45.4960   31.7470   42.4690 H   0  0  0  0  0  0  0  0  0  0  0  0
   44.3200   29.9190   42.7060 N   0  0  0  0  0  0  0  0  0  0  0  0
   35.2360   29.4840   40.0160 C   0  0  0  0  0  0  0  0  0  0  0  0
   34.7740   28.5820   40.3860 H   0  0  0  0  0  0  0  0  0  0  0  0
   34.5210   30.3620   39.8790 H   0  0  0  0  0  0  0  0  0  0  0  0
   35.8550   29.3950   38.6690 C   0  0  0  0  0  0  0  0  0  0  0  0
   37.1730   29.5200   38.3440 C   0  0  0  0  0  0  0  0  0  0  0  0
   37.6930   29.5120   37.0880 C   0  0  0  0  0  0  0  0  0  0  0  0
   36.8480   29.3660   36.0120 C   0  0  0  0  0  0  0  0  0  0  0  0
   35.5040   29.2340   36.2700 C   0  0  0  0  0  0  0  0  0  0  0  0
   34.7150   29.0980   35.1540 C   0  0  0  0  0  0  0  0  0  0  0  0
   33.3560   28.9570   35.2940 C   0  0  0  0  0  0  0  0  0  0  0  0
   32.8060   28.9530   36.5710 C   0  0  0  0  0  0  0  0  0  0  0  0
   33.6500   29.0920   37.6370 C   0  0  0  0  0  0  0  0  0  0  0  0
   34.9950   29.2420   37.5660 C   0  0  0  0  0  0  0  0  0  0  0  0
   37.8320   29.6360   39.2200 H   0  0  0  0  0  0  0  0  0  0  0  0
   38.7660   29.6220   37.0090 H   0  0  0  0  0  0  0  0  0  0  0  0
   37.2610   29.3620   35.0350 H   0  0  0  0  0  0  0  0  0  0  0  0
   35.1050   29.0940   34.1460 H   0  0  0  0  0  0  0  0  0  0  0  0
   32.7220   28.8520   34.4220 H   0  0  0  0  0  0  0  0  0  0  0  0
   31.7370   28.8390   36.6800 H   0  0  0  0  0  0  0  0  0  0  0  0
   33.0430   29.0620   38.8770 O   0  0  0  0  0  0  0  0  0  0  0  0
   32.1040   29.4050   39.0380 H   0  0  0  0  0  0  0  0  0  0  0  0
  1  7  1  0  0  0  0
  1  2  1  0  0  0  0
  3  1  1  0  0  0  0
  4  5  1  0  0  0  0
  4 13  1  0  0  0  0
  5  9  1  0  0  0  0
  6  5  2  0  0  0  0
  7  8  1  0  0  0  0
  7  6  1  0  0  0  0
  8  4  2  0  0  0  0
 10  6  1  0  0  0  0
 11 17  1  0  0  0  0
 12 18  1  0  0  0  0
 12 11  2  0  0  0  0
 13 12  1  0  0  0  0
 14 13  2  0  0  0  0
 14 15  1  0  0  0  0
 15 16  2  0  0  0  0
 16 11  1  0  0  0  0
 19 15  1  0  0  0  0
 19 20  2  0  0  0  0
 21 20  1  0  0  0  0
 22 21  1  0  0  0  0
 23 22  1  0  0  0  0
 24 22  2  0  0  0  0
 24 19  1  0  0  0  0
 25 26  1  0  0  0  0
 25  1  1  0  0  0  0
 27 25  1  0  0  0  0
 28 25  1  0  0  0  0
 29 28  1  0  0  0  0
 29 38  1  0  0  0  0
 30 29  2  0  0  0  0
 31 32  2  0  0  0  0
 31 30  1  0  0  0  0
 32 37  1  0  0  0  0
 33 34  2  0  0  0  0
 33 32  1  0  0  0  0
 34 35  1  0  0  0  0
 35 43  1  0  0  0  0
 35 36  2  0  0  0  0
 36 44  1  0  0  0  0
 37 36  1  0  0  0  0
 37 28  2  0  0  0  0
 39 30  1  0  0  0  0
 40 31  1  0  0  0  0
 41 33  1  0  0  0  0
 42 34  1  0  0  0  0
 44 45  1  0  0  0  0
M  END
>  <minimizedAffinity>
-5.94393921

>  <minimizedRMSD>
0.243626922

$$$$
