
 OpenBabel03242509233D

 44 48  0  0  0  0  0  0  0  0999 V2000
   35.9390   28.3970   40.5000 C   0  0  0  0  0  0  0  0  0  0  0  0
   36.3530   27.5440   40.0170 H   0  0  0  0  0  0  0  0  0  0  0  0
   34.8230   28.5410   40.5350 H   0  0  0  0  0  0  0  0  0  0  0  0
   36.4590   29.7300   40.1180 C   0  0  0  0  0  0  0  0  0  0  0  0
   36.6990   30.7930   40.9420 C   0  0  0  0  0  0  0  0  0  0  0  0
   37.1310   32.0330   40.5600 C   0  0  0  0  0  0  0  0  0  0  0  0
   37.3570   32.2670   39.2290 C   0  0  0  0  0  0  0  0  0  0  0  0
   37.1360   31.2290   38.3350 C   0  0  0  0  0  0  0  0  0  0  0  0
   37.3940   31.5220   37.0230 C   0  0  0  0  0  0  0  0  0  0  0  0
   37.2280   30.5780   36.0650 C   0  0  0  0  0  0  0  0  0  0  0  0
   36.8000   29.3420   36.4510 C   0  0  0  0  0  0  0  0  0  0  0  0
   36.5430   29.0680   37.7880 C   0  0  0  0  0  0  0  0  0  0  0  0
   36.7010   29.9990   38.7730 C   0  0  0  0  0  0  0  0  0  0  0  0
   36.5370   30.6510   42.0010 H   0  0  0  0  0  0  0  0  0  0  0  0
   37.2950   32.8210   41.2830 H   0  0  0  0  0  0  0  0  0  0  0  0
   37.6990   33.2480   38.9230 H   0  0  0  0  0  0  0  0  0  0  0  0
   37.7290   32.4930   36.7170 H   0  0  0  0  0  0  0  0  0  0  0  0
   37.4340   30.8180   35.0250 H   0  0  0  0  0  0  0  0  0  0  0  0
   36.6820   28.6140   35.6310 H   0  0  0  0  0  0  0  0  0  0  0  0
   36.1380   27.6510   37.9590 C   0  0  0  0  0  0  0  0  0  0  0  0
   36.4900   26.4600   38.4560 N   0  0  0  0  0  0  0  0  0  0  0  0
   35.5700   25.6150   38.1770 O   0  0  0  0  0  0  0  0  0  0  0  0
   34.5880   26.1450   37.5100 C   0  0  0  0  0  0  0  0  0  0  0  0
   33.7590   25.5110   37.2260 H   0  0  0  0  0  0  0  0  0  0  0  0
   34.9170   27.4300   37.3570 N   0  0  0  0  0  0  0  0  0  0  0  0
   36.1510   28.0450   41.9410 C   0  0  0  0  0  0  0  0  0  0  0  0
   35.2630   27.4800   42.3790 H   0  0  0  0  0  0  0  0  0  0  0  0
   36.1470   28.9850   42.5230 H   0  0  0  0  0  0  0  0  0  0  0  0
   39.1270   26.3210   42.7470 C   0  0  0  0  0  0  0  0  0  0  0  0
   38.3410   25.3010   42.3040 C   0  0  0  0  0  0  0  0  0  0  0  0
   37.1160   25.8690   41.9470 C   0  0  0  0  0  0  0  0  0  0  0  0
   37.2660   27.1980   42.2060 N   0  0  0  0  0  0  0  0  0  0  0  0
   38.4260   27.4770   42.6710 N   0  0  0  0  0  0  0  0  0  0  0  0
   38.6820   24.2690   42.2670 H   0  0  0  0  0  0  0  0  0  0  0  0
   36.3180   25.2590   41.5620 H   0  0  0  0  0  0  0  0  0  0  0  0
   42.6740   25.2490   43.1800 C   0  0  0  0  0  0  0  0  0  0  0  0
   41.3700   25.2970   42.6480 C   0  0  0  0  0  0  0  0  0  0  0  0
   40.4890   26.2230   43.2380 C   0  0  0  0  0  0  0  0  0  0  0  0
   40.9040   27.0120   44.2610 N   0  0  0  0  0  0  0  0  0  0  0  0
   42.1880   26.9060   44.7220 C   0  0  0  0  0  0  0  0  0  0  0  0
   43.0570   26.0340   44.1850 N   0  0  0  0  0  0  0  0  0  0  0  0
   43.3090   24.5100   42.6790 H   0  0  0  0  0  0  0  0  0  0  0  0
   41.0600   24.6620   41.8350 H   0  0  0  0  0  0  0  0  0  0  0  0
   42.4760   27.5560   45.5410 H   0  0  0  0  0  0  0  0  0  0  0  0
  1  3  1  0  0  0  0
  1 26  1  0  0  0  0
  2  1  1  0  0  0  0
  4  1  1  0  0  0  0
  4  5  1  0  0  0  0
  5 14  1  0  0  0  0
  6  5  2  0  0  0  0
  6 15  1  0  0  0  0
  7  6  1  0  0  0  0
  8 13  1  0  0  0  0
  8  7  2  0  0  0  0
  9  8  1  0  0  0  0
 10 11  1  0  0  0  0
 10  9  2  0  0  0  0
 11 12  2  0  0  0  0
 12 20  1  0  0  0  0
 12 13  1  0  0  0  0
 13  4  2  0  0  0  0
 16  7  1  0  0  0  0
 17  9  1  0  0  0  0
 18 10  1  0  0  0  0
 19 11  1  0  0  0  0
 20 21  2  0  0  0  0
 22 21  1  0  0  0  0
 23 22  1  0  0  0  0
 24 23  1  0  0  0  0
 25 23  2  0  0  0  0
 25 20  1  0  0  0  0
 26 32  1  0  0  0  0
 26 27  1  0  0  0  0
 26 28  1  0  0  0  0
 29 38  1  0  0  0  0
 30 29  1  0  0  0  0
 31 32  1  0  0  0  0
 31 30  2  0  0  0  0
 32 33  1  0  0  0  0
 33 29  2  0  0  0  0
 34 30  1  0  0  0  0
 35 31  1  0  0  0  0
 36 41  1  0  0  0  0
 37 36  2  0  0  0  0
 37 38  1  0  0  0  0
 38 39  2  0  0  0  0
 39 40  1  0  0  0  0
 40 44  1  0  0  0  0
 41 40  2  0  0  0  0
 42 36  1  0  0  0  0
 43 37  1  0  0  0  0
M  END
>  <minimizedAffinity>
-5.67459583

>  <minimizedRMSD>
3.03622413

$$$$
