REMARK  Name = 
REMARK  6 active torsions:
REMARK  status: ('A' for Active; 'I' for Inactive)
REMARK    1  A    between atoms: C_1  and  C_2
REMARK    2  A    between atoms: C_1  and  C_13
REMARK    3  A    between atoms: C_10  and  O_12
REMARK    4  A    between atoms: C_13  and  N_17
REMARK    5  A    between atoms: C_14  and  C_21
REMARK    6  A    between atoms: C_23  and  C_40
REMARK                            x       y       z     vdW  Elec       q    Type
REMARK                         _______ _______ _______ _____ _____    ______ ____
ROOT
ATOM      1  C   UNL     1      36.173  30.074  41.130  0.00  0.00    +0.000 C 
ATOM      2  H   UNL     1      35.563  30.572  41.929  0.00  0.00    +0.000 HD
ATOM      3  H   UNL     1      36.776  30.881  40.655  0.00  0.00    +0.000 HD
ENDROOT
BRANCH   1   7
ATOM      4  C   UNL     1      38.651  28.158  42.719  0.00  0.00    +0.000 A 
ATOM      5  C   UNL     1      37.561  27.342  42.868  0.00  0.00    +0.000 A 
ATOM      6  C   UNL     1      36.486  27.998  42.265  0.00  0.00    +0.000 A 
ATOM      7  N   UNL     1      37.014  29.150  41.806  0.00  0.00    +0.000 N 
ATOM      8  N   UNL     1      38.272  29.270  42.056  0.00  0.00    +0.000 NA
ATOM      9  H   UNL     1      37.552  26.373  43.362  0.00  0.00    +0.000 HD
ATOM     10  H   UNL     1      35.491  27.585  42.231  0.00  0.00    +0.000 HD
BRANCH   4  13
ATOM     11  C   UNL     1      41.580  26.556  44.370  0.00  0.00    +0.000 A 
ATOM     12  C   UNL     1      40.261  26.754  43.947  0.00  0.00    +0.000 A 
ATOM     13  C   UNL     1      39.998  27.901  43.186  0.00  0.00    +0.000 A 
ATOM     14  N   UNL     1      41.004  28.768  42.887  0.00  0.00    +0.000 NA
ATOM     15  C   UNL     1      42.272  28.518  43.331  0.00  0.00    +0.000 A 
ATOM     16  N   UNL     1      42.550  27.422  44.064  0.00  0.00    +0.000 NA
ATOM     17  H   UNL     1      41.772  25.681  44.949  0.00  0.00    +0.000 HD
ATOM     18  H   UNL     1      39.482  26.040  44.205  0.00  0.00    +0.000 HD
BRANCH  15  19
ATOM     19  C   UNL     1      43.245  29.530  42.935  0.00  0.00    +0.000 A 
ATOM     20  N   UNL     1      44.131  29.887  43.884  0.00  0.00    +0.000 NA
ATOM     21  O   UNL     1      44.940  30.786  43.422  0.00  0.00    +0.000 OA
ATOM     22  C   UNL     1      44.614  31.038  42.183  0.00  0.00    +0.000 A 
ATOM     23  H   UNL     1      45.134  31.754  41.562  0.00  0.00    +0.000 HD
ATOM     24  N   UNL     1      43.558  30.267  41.853  0.00  0.00    +0.000 NA
ENDBRANCH  15  19
ENDBRANCH   4  13
ENDBRANCH   1   7
BRANCH   1  25
ATOM     25  C   UNL     1      35.286  29.494  40.075  0.00  0.00    +0.000 C 
ATOM     26  H   UNL     1      34.830  28.587  40.441  0.00  0.00    +0.000 HD
ATOM     27  H   UNL     1      34.565  30.370  39.952  0.00  0.00    +0.000 HD
BRANCH  25  28
ATOM     28  C   UNL     1      35.895  29.420  38.723  0.00  0.00    +0.000 A 
ATOM     29  C   UNL     1      37.207  29.579  38.387  0.00  0.00    +0.000 A 
ATOM     30  C   UNL     1      37.716  29.583  37.126  0.00  0.00    +0.000 A 
ATOM     31  C   UNL     1      36.866  29.415  36.058  0.00  0.00    +0.000 A 
ATOM     32  C   UNL     1      35.528  29.248  36.327  0.00  0.00    +0.000 A 
ATOM     33  C   UNL     1      34.733  29.091  35.218  0.00  0.00    +0.000 A 
ATOM     34  C   UNL     1      33.379  28.915  35.370  0.00  0.00    +0.000 A 
ATOM     35  C   UNL     1      32.841  28.898  36.652  0.00  0.00    +0.000 A 
ATOM     36  C   UNL     1      33.690  29.060  37.710  0.00  0.00    +0.000 A 
ATOM     37  C   UNL     1      35.030  29.244  37.628  0.00  0.00    +0.000 A 
ATOM     38  H   UNL     1      37.870  29.713  39.257  0.00  0.00    +0.000 HD
ATOM     39  H   UNL     1      38.785  29.721  37.038  0.00  0.00    +0.000 HD
ATOM     40  H   UNL     1      37.270  29.421  35.077  0.00  0.00    +0.000 HD
ATOM     41  H   UNL     1      35.114  29.096  34.207  0.00  0.00    +0.000 HD
ATOM     42  H   UNL     1      32.741  28.793  34.504  0.00  0.00    +0.000 HD
ATOM     43  H   UNL     1      31.776  28.757  36.770  0.00  0.00    +0.000 HD
BRANCH  36  44
ATOM     44  O   UNL     1      33.094  29.015  38.956  0.00  0.00    +0.000 OA
ATOM     45  H   UNL     1      32.148  29.334  39.124  0.00  0.00    +0.000 HD
ENDBRANCH  36  44
ENDBRANCH  25  28
ENDBRANCH   1  25
TORSDOF 6
