
 OpenBabel03242508043D

 27 29  0  0  0  0  0  0  0  0999 V2000
   36.1650   28.0690   40.9190 C   0  0  0  0  0  0  0  0  0  0  0  0
   36.5510   26.9790   40.1260 C   0  0  0  0  0  0  0  0  0  0  0  0
   36.1180   26.9780   38.7760 C   0  0  0  0  0  0  0  0  0  0  0  0
   35.3650   28.0110   38.3290 N   0  0  0  0  0  0  0  0  0  0  0  0
   35.0160   29.0340   39.1210 C   0  0  0  0  0  0  0  0  0  0  0  0
   35.4180   29.0640   40.4230 N   0  0  0  0  0  0  0  0  0  0  0  0
   36.3850   26.1590   38.1080 H   0  0  0  0  0  0  0  0  0  0  0  0
   34.4160   29.8740   38.7940 H   0  0  0  0  0  0  0  0  0  0  0  0
   37.3260   25.9030   40.5770 N   0  0  0  0  0  0  0  0  0  0  0  0
   36.8510   24.6320   41.0850 C   0  0  0  0  0  0  0  0  0  0  0  0
   37.8990   24.2310   42.1080 C   0  0  0  0  0  0  0  0  0  0  0  0
   38.9870   25.2650   42.0130 C   0  0  0  0  0  0  0  0  0  0  0  0
   38.7540   25.8200   40.6340 C   0  0  0  0  0  0  0  0  0  0  0  0
   36.8160   23.8680   40.2660 H   0  0  0  0  0  0  0  0  0  0  0  0
   35.8510   24.7740   41.5330 H   0  0  0  0  0  0  0  0  0  0  0  0
   37.4600   24.1770   43.1250 H   0  0  0  0  0  0  0  0  0  0  0  0
   38.3590   23.2590   41.8340 H   0  0  0  0  0  0  0  0  0  0  0  0
   38.8520   26.0160   42.7970 H   0  0  0  0  0  0  0  0  0  0  0  0
   39.9940   24.8040   42.0060 H   0  0  0  0  0  0  0  0  0  0  0  0
   39.1140   25.0170   39.9240 H   0  0  0  0  0  0  0  0  0  0  0  0
   39.2900   26.7650   40.4400 H   0  0  0  0  0  0  0  0  0  0  0  0
   36.5940   28.0980   42.3130 C   0  0  0  0  0  0  0  0  0  0  0  0
   37.5390   29.0450   42.5820 N   0  0  0  0  0  0  0  0  0  0  0  0
   37.8360   28.9680   43.8490 O   0  0  0  0  0  0  0  0  0  0  0  0
   37.1260   28.0140   44.4050 C   0  0  0  0  0  0  0  0  0  0  0  0
   37.0690   27.6290   45.4170 H   0  0  0  0  0  0  0  0  0  0  0  0
   36.3270   27.4400   43.4590 N   0  0  0  0  0  0  0  0  0  0  0  0
  1 22  1  0  0  0  0
  2  9  1  0  0  0  0
  2  1  2  0  0  0  0
  3  2  1  0  0  0  0
  4  3  2  0  0  0  0
  4  5  1  0  0  0  0
  5  6  2  0  0  0  0
  6  1  1  0  0  0  0
  7  3  1  0  0  0  0
  8  5  1  0  0  0  0
  9 13  1  0  0  0  0
  9 10  1  0  0  0  0
 10 15  1  0  0  0  0
 10 11  1  0  0  0  0
 11 16  1  0  0  0  0
 12 11  1  0  0  0  0
 12 18  1  0  0  0  0
 13 12  1  0  0  0  0
 14 10  1  0  0  0  0
 17 11  1  0  0  0  0
 19 12  1  0  0  0  0
 20 13  1  0  0  0  0
 21 13  1  0  0  0  0
 22 23  2  0  0  0  0
 22 27  1  0  0  0  0
 23 24  1  0  0  0  0
 24 25  1  0  0  0  0
 25 26  1  0  0  0  0
 27 25  2  0  0  0  0
M  END
>  <minimizedAffinity>
-4.27845621

>  <minimizedRMSD>
3.02095366

$$$$
