
 OpenBabel03242507393D

 35 37  0  0  1  0  0  0  0  0999 V2000
   36.7860   27.6130   39.9180 C   0  0  2  0  0  0  0  0  0  0  0  0
   36.7880   26.1320   39.7820 C   0  0  0  0  0  0  0  0  0  0  0  0
   35.9210   25.9400   38.5380 C   0  0  0  0  0  0  0  0  0  0  0  0
   36.0720   27.2060   37.7290 C   0  0  0  0  0  0  0  0  0  0  0  0
   37.1130   28.0350   38.4880 C   0  0  2  0  0  0  0  0  0  0  0  0
   35.7950   28.0720   40.0270 H   0  0  0  0  0  0  0  0  0  0  0  0
   37.7870   25.6920   39.6480 H   0  0  0  0  0  0  0  0  0  0  0  0
   36.2450   25.6600   40.6500 H   0  0  0  0  0  0  0  0  0  0  0  0
   36.3070   25.0410   38.0140 H   0  0  0  0  0  0  0  0  0  0  0  0
   34.8710   25.7370   38.8330 H   0  0  0  0  0  0  0  0  0  0  0  0
   35.0920   27.7170   37.7160 H   0  0  0  0  0  0  0  0  0  0  0  0
   36.3780   27.0340   36.6870 H   0  0  0  0  0  0  0  0  0  0  0  0
   36.8050   29.0860   38.3810 H   0  0  0  0  0  0  0  0  0  0  0  0
   38.8550   29.5500   42.3800 C   0  0  0  0  0  0  0  0  0  0  0  0
   38.0490   29.3580   41.2100 C   0  0  0  0  0  0  0  0  0  0  0  0
   37.6930   28.0710   40.9250 C   0  0  0  0  0  0  0  0  0  0  0  0
   38.1330   27.0670   41.7770 N   0  0  0  0  0  0  0  0  0  0  0  0
   38.8800   27.3030   42.8530 C   0  0  0  0  0  0  0  0  0  0  0  0
   39.2400   28.5560   43.1510 N   0  0  0  0  0  0  0  0  0  0  0  0
   39.1060   30.5950   42.5540 H   0  0  0  0  0  0  0  0  0  0  0  0
   39.2140   26.5090   43.5080 H   0  0  0  0  0  0  0  0  0  0  0  0
   37.6800   30.4600   40.3980 N   0  0  0  0  0  0  0  0  0  0  0  0
   36.7110   31.4210   40.7290 C   0  0  0  0  0  0  0  0  0  0  0  0
   35.6430   30.9360   41.3200 N   0  0  0  0  0  0  0  0  0  0  0  0
   37.0030   32.7970   40.3890 N   0  0  0  0  0  0  0  0  0  0  0  0
   34.8550   31.5400   41.6000 H   0  0  0  0  0  0  0  0  0  0  0  0
   38.2160   30.5120   39.4780 H   0  0  0  0  0  0  0  0  0  0  0  0
   36.7440   33.1840   39.4380 H   0  0  0  0  0  0  0  0  0  0  0  0
   37.4760   33.4200   41.0910 H   0  0  0  0  0  0  0  0  0  0  0  0
   38.4850   27.7980   38.0860 C   0  0  0  0  0  0  0  0  0  0  0  0
   39.6360   28.2920   38.5090 N   0  0  0  0  0  0  0  0  0  0  0  0
   40.6310   27.7820   37.8470 O   0  0  0  0  0  0  0  0  0  0  0  0
   40.1650   26.9360   36.9680 C   0  0  0  0  0  0  0  0  0  0  0  0
   40.6670   26.3060   36.2240 H   0  0  0  0  0  0  0  0  0  0  0  0
   38.8440   26.9280   37.0950 N   0  0  0  0  0  0  0  0  0  0  0  0
  1  6  1  1  0  0  0
  1 16  1  0  0  0  0
  2  1  1  0  0  0  0
  2  8  1  0  0  0  0
  3 10  1  0  0  0  0
  3  2  1  0  0  0  0
  4  5  1  0  0  0  0
  4  3  1  0  0  0  0
  5 13  1  6  0  0  0
  5  1  1  0  0  0  0
  7  2  1  0  0  0  0
  9  3  1  0  0  0  0
 11  4  1  0  0  0  0
 12  4  1  0  0  0  0
 14 20  1  0  0  0  0
 14 19  1  0  0  0  0
 15 14  2  0  0  0  0
 16 15  1  0  0  0  0
 16 17  2  0  0  0  0
 17 18  1  0  0  0  0
 18 19  2  0  0  0  0
 18 21  1  0  0  0  0
 22 23  1  0  0  0  0
 22 15  1  0  0  0  0
 23 24  2  0  0  0  0
 24 26  1  0  0  0  0
 25 23  1  0  0  0  0
 25 29  1  0  0  0  0
 27 22  1  0  0  0  0
 28 25  1  0  0  0  0
 30  5  1  0  0  0  0
 30 31  2  0  0  0  0
 32 31  1  0  0  0  0
 33 35  2  0  0  0  0
 33 32  1  0  0  0  0
 34 33  1  0  0  0  0
 35 30  1  0  0  0  0
M  END
>  <minimizedAffinity>
-4.93929338

>  <minimizedRMSD>
0.993440449

$$$$
