
 OpenBabel03242509283D

 45 49  0  0  0  0  0  0  0  0999 V2000
   36.1320   30.0730   41.0910 C   0  0  0  0  0  0  0  0  0  0  0  0
   35.5260   30.5740   41.8910 H   0  0  0  0  0  0  0  0  0  0  0  0
   36.7480   30.8750   40.6230 H   0  0  0  0  0  0  0  0  0  0  0  0
   38.5750   28.1190   42.6890 C   0  0  0  0  0  0  0  0  0  0  0  0
   37.4810   27.3010   42.7960 C   0  0  0  0  0  0  0  0  0  0  0  0
   36.4200   27.9720   42.1850 C   0  0  0  0  0  0  0  0  0  0  0  0
   36.9580   29.1330   41.7640 N   0  0  0  0  0  0  0  0  0  0  0  0
   38.2100   29.2470   42.0430 N   0  0  0  0  0  0  0  0  0  0  0  0
   37.4610   26.3210   43.2670 H   0  0  0  0  0  0  0  0  0  0  0  0
   35.4260   27.5600   42.1200 H   0  0  0  0  0  0  0  0  0  0  0  0
   41.5020   26.4120   44.2330 C   0  0  0  0  0  0  0  0  0  0  0  0
   40.1940   26.6170   43.7800 C   0  0  0  0  0  0  0  0  0  0  0  0
   39.9110   27.8510   43.1790 C   0  0  0  0  0  0  0  0  0  0  0  0
   40.8880   28.7910   43.0550 N   0  0  0  0  0  0  0  0  0  0  0  0
   42.1460   28.5290   43.5200 C   0  0  0  0  0  0  0  0  0  0  0  0
   42.4430   27.3510   44.1010 N   0  0  0  0  0  0  0  0  0  0  0  0
   41.7090   25.4710   44.6900 H   0  0  0  0  0  0  0  0  0  0  0  0
   39.4390   25.8430   43.8950 H   0  0  0  0  0  0  0  0  0  0  0  0
   43.0880   29.6250   43.3200 C   0  0  0  0  0  0  0  0  0  0  0  0
   44.2050   29.3150   42.6360 N   0  0  0  0  0  0  0  0  0  0  0  0
   44.9610   30.3600   42.5220 O   0  0  0  0  0  0  0  0  0  0  0  0
   44.3730   31.3640   43.1160 C   0  0  0  0  0  0  0  0  0  0  0  0
   44.7940   32.3570   43.1680 H   0  0  0  0  0  0  0  0  0  0  0  0
   43.2010   30.9320   43.6240 N   0  0  0  0  0  0  0  0  0  0  0  0
   35.2410   29.5120   40.0290 C   0  0  0  0  0  0  0  0  0  0  0  0
   34.7570   28.6190   40.3930 H   0  0  0  0  0  0  0  0  0  0  0  0
   34.5450   30.4070   39.8940 H   0  0  0  0  0  0  0  0  0  0  0  0
   35.8630   29.4160   38.6840 C   0  0  0  0  0  0  0  0  0  0  0  0
   37.1810   29.5470   38.3600 C   0  0  0  0  0  0  0  0  0  0  0  0
   37.7030   29.5320   37.1050 C   0  0  0  0  0  0  0  0  0  0  0  0
   36.8610   29.3720   36.0290 C   0  0  0  0  0  0  0  0  0  0  0  0
   35.5170   29.2340   36.2850 C   0  0  0  0  0  0  0  0  0  0  0  0
   34.7310   29.0840   35.1690 C   0  0  0  0  0  0  0  0  0  0  0  0
   33.3720   28.9360   35.3080 C   0  0  0  0  0  0  0  0  0  0  0  0
   32.8200   28.9390   36.5850 C   0  0  0  0  0  0  0  0  0  0  0  0
   33.6620   29.0920   37.6500 C   0  0  0  0  0  0  0  0  0  0  0  0
   35.0060   29.2490   37.5810 C   0  0  0  0  0  0  0  0  0  0  0  0
   37.8370   29.6740   39.2360 H   0  0  0  0  0  0  0  0  0  0  0  0
   38.7750   29.6480   37.0270 H   0  0  0  0  0  0  0  0  0  0  0  0
   37.2750   29.3630   35.0520 H   0  0  0  0  0  0  0  0  0  0  0  0
   35.1220   29.0740   34.1620 H   0  0  0  0  0  0  0  0  0  0  0  0
   32.7410   28.8200   34.4360 H   0  0  0  0  0  0  0  0  0  0  0  0
   31.7520   28.8200   36.6920 H   0  0  0  0  0  0  0  0  0  0  0  0
   33.0520   29.0680   38.8900 O   0  0  0  0  0  0  0  0  0  0  0  0
   32.1110   29.4070   39.0460 H   0  0  0  0  0  0  0  0  0  0  0  0
  1  7  1  0  0  0  0
  1  2  1  0  0  0  0
  3  1  1  0  0  0  0
  4  5  1  0  0  0  0
  4 13  1  0  0  0  0
  5  9  1  0  0  0  0
  6  5  2  0  0  0  0
  7  8  1  0  0  0  0
  7  6  1  0  0  0  0
  8  4  2  0  0  0  0
 10  6  1  0  0  0  0
 11 17  1  0  0  0  0
 12 18  1  0  0  0  0
 12 11  2  0  0  0  0
 13 12  1  0  0  0  0
 14 13  2  0  0  0  0
 14 15  1  0  0  0  0
 15 16  2  0  0  0  0
 16 11  1  0  0  0  0
 19 15  1  0  0  0  0
 19 24  1  0  0  0  0
 20 19  2  0  0  0  0
 21 20  1  0  0  0  0
 21 22  1  0  0  0  0
 22 23  1  0  0  0  0
 22 24  2  0  0  0  0
 25 26  1  0  0  0  0
 25  1  1  0  0  0  0
 27 25  1  0  0  0  0
 28 25  1  0  0  0  0
 29 28  1  0  0  0  0
 29 38  1  0  0  0  0
 30 29  2  0  0  0  0
 31 32  2  0  0  0  0
 31 30  1  0  0  0  0
 32 37  1  0  0  0  0
 33 34  2  0  0  0  0
 33 32  1  0  0  0  0
 34 35  1  0  0  0  0
 35 43  1  0  0  0  0
 35 36  2  0  0  0  0
 36 44  1  0  0  0  0
 37 36  1  0  0  0  0
 37 28  2  0  0  0  0
 39 30  1  0  0  0  0
 40 31  1  0  0  0  0
 41 33  1  0  0  0  0
 42 34  1  0  0  0  0
 44 45  1  0  0  0  0
M  END
>  <minimizedAffinity>
-5.84765053

>  <minimizedRMSD>
0.275875658

$$$$
