
 OpenBabel03242505193D

 38 41  0  0  1  0  0  0  0  0999 V2000
   36.9790   31.0440   40.4720 C   0  0  1  0  0  0  0  0  0  0  0  0
   37.7800   32.2320   40.7400 C   0  0  0  0  0  0  0  0  0  0  0  0
   37.6080   33.0290   39.4520 C   0  0  0  0  0  0  0  0  0  0  0  0
   37.2180   32.0200   38.3890 C   0  0  0  0  0  0  0  0  0  0  0  0
   37.4090   30.6650   39.0400 C   0  0  2  0  0  0  0  0  0  0  0  0
   35.9080   31.2320   40.4410 H   0  0  0  0  0  0  0  0  0  0  0  0
   38.8610   31.9390   40.7590 H   0  0  0  0  0  0  0  0  0  0  0  0
   37.4860   32.8260   41.6290 H   0  0  0  0  0  0  0  0  0  0  0  0
   36.8600   33.8310   39.5830 H   0  0  0  0  0  0  0  0  0  0  0  0
   38.5710   33.5010   39.1480 H   0  0  0  0  0  0  0  0  0  0  0  0
   36.1640   32.1820   38.1590 H   0  0  0  0  0  0  0  0  0  0  0  0
   37.8550   32.1240   37.4780 H   0  0  0  0  0  0  0  0  0  0  0  0
   38.4530   30.4160   39.0180 H   0  0  0  0  0  0  0  0  0  0  0  0
   38.6020   29.0460   43.1270 C   0  0  0  0  0  0  0  0  0  0  0  0
   37.6340   27.9720   43.3010 C   0  0  0  0  0  0  0  0  0  0  0  0
   36.4560   27.9630   42.4910 C   0  0  0  0  0  0  0  0  0  0  0  0
   36.2610   28.9530   41.5750 N   0  0  0  0  0  0  0  0  0  0  0  0
   37.2040   29.9320   41.4600 C   0  0  0  0  0  0  0  0  0  0  0  0
   38.3490   29.9940   42.2050 N   0  0  0  0  0  0  0  0  0  0  0  0
   39.4720   29.0180   43.7530 H   0  0  0  0  0  0  0  0  0  0  0  0
   37.7820   27.1840   44.0240 H   0  0  0  0  0  0  0  0  0  0  0  0
   35.7720   27.1530   42.6530 H   0  0  0  0  0  0  0  0  0  0  0  0
   36.5640   29.6350   38.4450 C   0  0  0  0  0  0  0  0  0  0  0  0
   35.2930   29.4870   37.9490 C   0  0  0  0  0  0  0  0  0  0  0  0
   34.8590   28.3040   37.4790 C   0  0  0  0  0  0  0  0  0  0  0  0
   35.7190   27.2380   37.5010 C   0  0  0  0  0  0  0  0  0  0  0  0
   37.2640   27.9660   38.2500 S   0  0  0  0  0  0  0  0  0  0  0  0
   34.8510   30.4830   38.0560 H   0  0  0  0  0  0  0  0  0  0  0  0
   33.4560   28.3530   36.9790 C   0  0  0  0  0  0  0  0  0  0  0  0
   32.7920   27.4830   36.2280 N   0  0  0  0  0  0  0  0  0  0  0  0
   31.5800   27.8480   35.9840 O   0  0  0  0  0  0  0  0  0  0  0  0
   31.3390   28.9940   36.5560 C   0  0  0  0  0  0  0  0  0  0  0  0
   30.4670   29.6320   36.5980 H   0  0  0  0  0  0  0  0  0  0  0  0
   32.4960   29.2600   37.1430 N   0  0  0  0  0  0  0  0  0  0  0  0
   35.5720   25.8890   37.0700 C   0  0  0  0  0  0  0  0  0  0  0  0
   35.3720   25.7000   35.7020 F   0  0  0  0  0  0  0  0  0  0  0  0
   36.7280   25.2310   37.3960 F   0  0  0  0  0  0  0  0  0  0  0  0
   34.5370   25.2960   37.7580 F   0  0  0  0  0  0  0  0  0  0  0  0
  1  6  1  6  0  0  0
  1  2  1  0  0  0  0
  1 18  1  0  0  0  0
  2  7  1  0  0  0  0
  2  8  1  0  0  0  0
  3  9  1  0  0  0  0
  3  2  1  0  0  0  0
  4  5  1  0  0  0  0
  4  3  1  0  0  0  0
  5 13  1  6  0  0  0
  5  1  1  0  0  0  0
 10  3  1  0  0  0  0
 11  4  1  0  0  0  0
 12  4  1  0  0  0  0
 14 15  1  0  0  0  0
 14 20  1  0  0  0  0
 15 21  1  0  0  0  0
 16 22  1  0  0  0  0
 16 15  2  0  0  0  0
 17 16  1  0  0  0  0
 18 17  2  0  0  0  0
 18 19  1  0  0  0  0
 19 14  2  0  0  0  0
 23  5  1  0  0  0  0
 24 28  1  0  0  0  0
 24 23  2  0  0  0  0
 25 26  2  0  0  0  0
 25 24  1  0  0  0  0
 26 27  1  0  0  0  0
 27 23  1  0  0  0  0
 29 34  1  0  0  0  0
 29 25  1  0  0  0  0
 30 29  2  0  0  0  0
 31 30  1  0  0  0  0
 31 32  1  0  0  0  0
 32 33  1  0  0  0  0
 32 34  2  0  0  0  0
 35 37  1  0  0  0  0
 35 26  1  0  0  0  0
 35 38  1  0  0  0  0
 36 35  1  0  0  0  0
M  END
>  <minimizedAffinity>
-5.08713055

>  <minimizedRMSD>
0.673758507

$$$$
