
     RDKit          3D

 21 22  0  0  0  0  0  0  0  0999 V2000
   37.9736   28.8789   43.3684 C   0  0  0  0  0  0  0  0  0  0  0  0
   38.0797   27.4690   43.3018 C   0  0  0  0  0  0  0  0  0  0  0  0
   37.4335   26.8202   42.2552 C   0  0  0  0  0  0  0  0  0  0  0  0
   36.7367   27.5826   41.3563 N   0  0  0  0  0  0  0  0  0  0  0  0
   36.6535   28.9156   41.4441 C   0  0  0  0  0  0  0  0  0  0  0  0
   37.2747   29.5513   42.4523 N   0  0  0  0  0  0  0  0  0  0  0  0
   37.5222   25.3329   42.1510 C   0  0  0  0  0  0  0  0  0  0  0  0
   37.6575   25.0525   40.8058 F   0  0  0  0  0  0  0  0  0  0  0  0
   38.6285   24.8419   42.8000 F   0  0  0  0  0  0  0  0  0  0  0  0
   36.3860   24.7102   42.6382 F   0  0  0  0  0  0  0  0  0  0  0  0
   38.4821   29.3792   44.1904 H   0  0  0  0  0  0  0  0  0  0  0  0
   38.6462   26.9526   44.0490 H   0  0  0  0  0  0  0  0  0  0  0  0
   35.8969   29.6895   40.4596 C   0  0  0  0  0  0  0  0  0  0  0  0
   35.8428   31.0736   40.5980 C   0  0  0  0  0  0  0  0  0  0  0  0
   35.1365   31.8263   39.6838 C   0  0  0  0  0  0  0  0  0  0  0  0
   35.0914   32.8855   39.7843 H   0  0  0  0  0  0  0  0  0  0  0  0
   34.5302   31.1492   38.6911 N   0  0  0  0  0  0  0  0  0  0  0  0
   34.5793   29.8091   38.5521 C   0  0  0  0  0  0  0  0  0  0  0  0
   35.2685   29.0596   39.4420 N   0  0  0  0  0  0  0  0  0  0  0  0
   36.3772   31.5231   41.4500 H   0  0  0  0  0  0  0  0  0  0  0  0
   34.0627   29.3543   37.7256 H   0  0  0  0  0  0  0  0  0  0  0  0
  2  1  2  0
  3  2  1  0
  4  5  1  0
  4  3  2  0
  5  6  2  0
  6  1  1  0
  7  3  1  0
  7 10  1  0
  7  9  1  0
  8  7  1  0
  1 11  1  0
  2 12  1  0
 13 14  2  0
 14 15  1  0
 15 16  1  0
 15 17  2  0
 17 18  1  0
 18 19  2  0
 19 13  1  0
 14 20  1  0
 18 21  1  0
  5 13  1  0
M  ISO  3  11  14  12  14  16  14
M  END
>  <DihAtoms>  (1) 
3,4,12,13

>  <DihDeg>  (1) 
-0.002957749002335764

$$$$
