
 OpenBabel03242509283D

 46 50  0  0  0  0  0  0  0  0999 V2000
   36.1270   30.0700   41.0940 C   0  0  0  0  0  0  0  0  0  0  0  0
   35.5410   30.5960   41.8910 H   0  0  0  0  0  0  0  0  0  0  0  0
   36.7290   30.8680   40.6160 H   0  0  0  0  0  0  0  0  0  0  0  0
   38.5920   28.1430   42.6890 C   0  0  0  0  0  0  0  0  0  0  0  0
   37.5030   27.3180   42.8000 C   0  0  0  0  0  0  0  0  0  0  0  0
   36.4360   27.9840   42.1890 C   0  0  0  0  0  0  0  0  0  0  0  0
   36.9680   29.1450   41.7640 N   0  0  0  0  0  0  0  0  0  0  0  0
   38.2240   29.2670   42.0400 N   0  0  0  0  0  0  0  0  0  0  0  0
   37.5440   26.3490   43.2850 H   0  0  0  0  0  0  0  0  0  0  0  0
   35.4380   27.5720   42.1230 H   0  0  0  0  0  0  0  0  0  0  0  0
   41.4980   26.4960   44.3450 C   0  0  0  0  0  0  0  0  0  0  0  0
   40.1900   26.7010   43.8910 C   0  0  0  0  0  0  0  0  0  0  0  0
   39.9290   27.8810   43.1770 C   0  0  0  0  0  0  0  0  0  0  0  0
   40.9310   28.7690   42.9530 N   0  0  0  0  0  0  0  0  0  0  0  0
   42.1900   28.5070   43.4250 C   0  0  0  0  0  0  0  0  0  0  0  0
   42.4610   27.3900   44.1070 N   0  0  0  0  0  0  0  0  0  0  0  0
   41.6590   25.5780   44.8890 H   0  0  0  0  0  0  0  0  0  0  0  0
   39.3910   25.9800   44.0770 H   0  0  0  0  0  0  0  0  0  0  0  0
   43.2260   29.4970   43.1540 C   0  0  0  0  0  0  0  0  0  0  0  0
   43.2670   30.1010   41.9150 C   0  0  0  0  0  3  0  0  0  0  0  0
   44.2360   31.0550   41.5950 C   0  0  0  0  0  0  0  0  0  0  0  0
   44.2120   31.4880   40.6100 H   0  0  0  0  0  0  0  0  0  0  0  0
   45.1310   31.3560   42.5680 N   0  0  0  0  0  0  0  0  0  0  0  0
   45.0740   30.7520   43.7800 C   0  0  0  0  0  3  0  0  0  0  0  0
   44.1310   29.8360   44.0610 N   0  0  0  0  0  0  0  0  0  0  0  0
   35.2400   29.5050   40.0330 C   0  0  0  0  0  0  0  0  0  0  0  0
   34.5250   30.3880   39.9160 H   0  0  0  0  0  0  0  0  0  0  0  0
   34.7700   28.5990   40.3900 H   0  0  0  0  0  0  0  0  0  0  0  0
   35.8540   29.4310   38.6860 C   0  0  0  0  0  0  0  0  0  0  0  0
   37.1750   29.5750   38.3640 C   0  0  0  0  0  0  0  0  0  0  0  0
   37.6960   29.5600   37.1010 C   0  0  0  0  0  0  0  0  0  0  0  0
   36.8600   29.3900   36.0320 C   0  0  0  0  0  0  0  0  0  0  0  0
   35.5130   29.2380   36.2840 C   0  0  0  0  0  0  0  0  0  0  0  0
   34.7250   29.0810   35.1720 C   0  0  0  0  0  0  0  0  0  0  0  0
   33.3670   28.9260   35.3160 C   0  0  0  0  0  0  0  0  0  0  0  0
   32.8180   28.9300   36.5800 C   0  0  0  0  0  0  0  0  0  0  0  0
   33.6590   29.0900   37.6520 C   0  0  0  0  0  0  0  0  0  0  0  0
   35.0020   29.2530   37.5800 C   0  0  0  0  0  0  0  0  0  0  0  0
   37.8310   29.7100   39.2340 H   0  0  0  0  0  0  0  0  0  0  0  0
   38.7670   29.6870   37.0250 H   0  0  0  0  0  0  0  0  0  0  0  0
   37.2770   29.3800   35.0330 H   0  0  0  0  0  0  0  0  0  0  0  0
   35.1210   29.0700   34.1620 H   0  0  0  0  0  0  0  0  0  0  0  0
   32.7150   28.8020   34.4590 H   0  0  0  0  0  0  0  0  0  0  0  0
   31.7500   28.8070   36.6960 H   0  0  0  0  0  0  0  0  0  0  0  0
   33.0490   29.0680   38.8950 O   0  0  0  0  0  0  0  0  0  0  0  0
   32.2260   29.6500   39.0110 H   0  0  0  0  0  0  0  0  0  0  0  0
  1  7  1  0  0  0  0
  1  2  1  0  0  0  0
  3  1  1  0  0  0  0
  4  5  1  0  0  0  0
  4 13  1  0  0  0  0
  5  9  1  0  0  0  0
  6  5  2  0  0  0  0
  7  8  1  0  0  0  0
  7  6  1  0  0  0  0
  8  4  2  0  0  0  0
 10  6  1  0  0  0  0
 11 17  1  0  0  0  0
 12 18  1  0  0  0  0
 12 11  2  0  0  0  0
 13 12  1  0  0  0  0
 14 13  2  0  0  0  0
 14 15  1  0  0  0  0
 15 16  2  0  0  0  0
 16 11  1  0  0  0  0
 19 15  1  0  0  0  0
 19 25  1  0  0  0  0
 20 19  2  0  0  0  0
 21 20  1  0  0  0  0
 21 23  2  0  0  0  0
 22 21  1  0  0  0  0
 23 24  1  0  0  0  0
 24 25  2  0  0  0  0
 26 28  1  0  0  0  0
 26  1  1  0  0  0  0
 27 26  1  0  0  0  0
 29 26  1  0  0  0  0
 30 29  1  0  0  0  0
 30 39  1  0  0  0  0
 31 30  2  0  0  0  0
 32 33  2  0  0  0  0
 32 31  1  0  0  0  0
 33 38  1  0  0  0  0
 34 35  2  0  0  0  0
 34 33  1  0  0  0  0
 35 36  1  0  0  0  0
 36 44  1  0  0  0  0
 36 37  2  0  0  0  0
 37 45  1  0  0  0  0
 38 37  1  0  0  0  0
 38 29  2  0  0  0  0
 40 31  1  0  0  0  0
 41 32  1  0  0  0  0
 42 34  1  0  0  0  0
 43 35  1  0  0  0  0
 45 46  1  0  0  0  0
M  END
>  <minimizedAffinity>
-5.90650749

>  <minimizedRMSD>
0.150858074

$$$$
