
 OpenBabel03242508163D

 46 50  0  0  1  0  0  0  0  0999 V2000
   38.8980   35.4610   40.2220 C   0  0  0  0  0  0  0  0  0  0  0  0
   40.2500   35.7940   40.3520 C   0  0  0  0  0  0  0  0  0  0  0  0
   41.1460   34.7210   40.5630 C   0  0  0  0  0  0  0  0  0  0  0  0
   40.6090   33.5180   40.6130 N   0  0  0  0  0  0  0  0  0  0  0  0
   39.3480   33.1630   40.4970 C   0  0  0  0  0  0  0  0  0  0  0  0
   38.5230   34.1890   40.2980 N   0  0  0  0  0  0  0  0  0  0  0  0
   38.2410   36.3040   40.0620 H   0  0  0  0  0  0  0  0  0  0  0  0
   40.6910   36.7830   40.3090 H   0  0  0  0  0  0  0  0  0  0  0  0
   38.6540   31.8890   40.5380 C   0  0  0  0  0  0  0  0  0  0  0  0
   38.5030   31.1540   41.6610 N   0  0  0  0  0  0  0  0  0  0  0  0
   37.8760   29.9920   41.7310 C   0  0  0  0  0  0  0  0  0  0  0  0
   37.3350   29.4440   40.6640 N   0  0  0  0  0  0  0  0  0  0  0  0
   37.4150   30.0790   39.4700 C   0  0  0  0  0  0  0  0  0  0  0  0
   36.8480   29.5140   38.3390 C   0  0  0  0  0  0  0  0  0  0  0  0
   36.9160   30.1300   37.1370 C   0  0  0  0  0  0  0  0  0  0  0  0
   37.5840   31.3770   37.0540 C   0  0  0  0  0  0  0  0  0  0  0  0
   38.1230   31.8750   38.2180 C   0  0  0  0  0  0  0  0  0  0  0  0
   38.0760   31.2870   39.4430 C   0  0  0  0  0  0  0  0  0  0  0  0
   37.7810   29.4370   42.6600 H   0  0  0  0  0  0  0  0  0  0  0  0
   36.3390   28.5560   38.4230 H   0  0  0  0  0  0  0  0  0  0  0  0
   36.4990   29.7510   36.2190 H   0  0  0  0  0  0  0  0  0  0  0  0
   37.6690   31.9120   36.1260 H   0  0  0  0  0  0  0  0  0  0  0  0
   38.6350   32.8410   38.1230 H   0  0  0  0  0  0  0  0  0  0  0  0
   42.4420   34.9250   40.7010 O   0  0  0  0  0  0  0  0  0  0  0  0
   43.1700   34.7660   41.9080 C   0  0  2  0  0  0  0  0  0  0  0  0
   42.6520   34.0980   42.6260 H   0  0  0  0  0  0  0  0  0  0  0  0
   43.0330   36.1640   42.6230 C   0  0  0  0  0  0  0  0  0  0  0  0
   41.9640   36.3810   42.5770 H   0  0  0  0  0  0  0  0  0  0  0  0
   43.5660   36.9070   41.9910 H   0  0  0  0  0  0  0  0  0  0  0  0
   43.4870   36.1000   43.6130 H   0  0  0  0  0  0  0  0  0  0  0  0
   44.6110   34.5080   41.6670 C   0  0  0  0  0  0  0  0  0  0  0  0
   45.0780   35.4680   41.3720 H   0  0  0  0  0  0  0  0  0  0  0  0
   44.7530   33.7580   40.8580 H   0  0  0  0  0  0  0  0  0  0  0  0
   45.1870   34.0410   42.9190 N   0  0  0  0  0  0  0  0  0  0  0  0
   46.2740   34.6030   43.5110 C   0  0  0  0  0  0  0  0  0  0  0  0
   46.5440   33.9180   44.6610 N   0  0  0  0  0  0  0  0  0  0  0  0
   45.6130   32.9340   44.7610 C   0  0  0  0  0  0  0  0  0  0  0  0
   44.7900   33.0360   43.6720 N   0  0  0  0  0  0  0  0  0  0  0  0
   46.8090   35.4680   43.0900 H   0  0  0  0  0  0  0  0  0  0  0  0
   45.5080   31.9470   45.8340 C   0  0  0  0  0  0  0  0  0  0  0  0
   44.3210   31.8590   46.5340 C   0  0  0  0  0  0  0  0  0  0  0  0
   44.2860   30.8970   47.5460 C   0  0  0  0  0  0  0  0  0  0  0  0
   43.3960   30.7500   48.1530 H   0  0  0  0  0  0  0  0  0  0  0  0
   45.3470   30.1270   47.8000 N   0  0  0  0  0  0  0  0  0  0  0  0
   46.4950   30.2270   47.1070 C   0  0  0  0  0  0  0  0  0  0  0  0
   46.5630   31.1590   46.1100 N   0  0  0  0  0  0  0  0  0  0  0  0
  1  6  2  0  0  0  0
  1  2  1  0  0  0  0
  2  3  2  0  0  0  0
  3  4  1  0  0  0  0
  3 24  1  0  0  0  0
  5  9  1  0  0  0  0
  5  4  2  0  0  0  0
  6  5  1  0  0  0  0
  7  1  1  0  0  0  0
  8  2  1  0  0  0  0
  9 10  1  0  0  0  0
 10 11  2  0  0  0  0
 11 19  1  0  0  0  0
 12 11  1  0  0  0  0
 13 12  2  0  0  0  0
 14 20  1  0  0  0  0
 14 13  1  0  0  0  0
 15 14  2  0  0  0  0
 16 15  1  0  0  0  0
 16 17  2  0  0  0  0
 17 18  1  0  0  0  0
 18 13  1  0  0  0  0
 18  9  2  0  0  0  0
 21 15  1  0  0  0  0
 22 16  1  0  0  0  0
 23 17  1  0  0  0  0
 24 25  1  0  0  0  0
 25 27  1  0  0  0  0
 25 26  1  1  0  0  0
 27 30  1  0  0  0  0
 28 27  1  0  0  0  0
 29 27  1  0  0  0  0
 31 25  1  0  0  0  0
 31 34  1  0  0  0  0
 32 31  1  0  0  0  0
 33 31  1  0  0  0  0
 34 35  1  0  0  0  0
 34 38  1  0  0  0  0
 35 36  2  0  0  0  0
 36 37  1  0  0  0  0
 37 40  1  0  0  0  0
 38 37  2  0  0  0  0
 39 35  1  0  0  0  0
 40 46  2  0  0  0  0
 40 41  1  0  0  0  0
 41 42  2  0  0  0  0
 42 44  1  0  0  0  0
 42 43  1  0  0  0  0
 45 44  2  0  0  0  0
 46 45  1  0  0  0  0
M  END
>  <minimizedAffinity>
-6.80968618

>  <minimizedRMSD>
0.182256356

$$$$
