
 OpenBabel03242506583D

 41 45  0  0  0  0  0  0  0  0999 V2000
   39.7140   32.4240   40.9610 C   0  0  0  0  0  0  0  0  0  0  0  0
   40.8180   31.8720   41.6390 C   0  0  0  0  0  0  0  0  0  0  0  0
   40.8330   30.5910   42.1800 C   0  0  0  0  0  0  0  0  0  0  0  0
   39.6910   29.8110   42.0430 C   0  0  0  0  0  0  0  0  0  0  0  0
   38.6020   30.3000   41.3980 C   0  0  0  0  0  0  0  0  0  0  0  0
   37.5160   29.5050   41.2830 C   0  0  0  0  0  0  0  0  0  0  0  0
   36.3490   29.9580   40.6130 C   0  0  0  0  0  0  0  0  0  0  0  0
   36.4200   31.2640   40.0970 C   0  0  0  0  0  0  0  0  0  0  0  0
   37.5540   32.0100   40.2510 C   0  0  0  0  0  0  0  0  0  0  0  0
   38.6700   31.5620   40.8980 C   0  0  0  0  0  0  0  0  0  0  0  0
   41.7450   32.4390   41.7770 H   0  0  0  0  0  0  0  0  0  0  0  0
   41.6930   30.2160   42.6830 H   0  0  0  0  0  0  0  0  0  0  0  0
   39.6510   28.7860   42.4540 H   0  0  0  0  0  0  0  0  0  0  0  0
   35.4350   29.4040   40.4690 H   0  0  0  0  0  0  0  0  0  0  0  0
   35.5620   31.6920   39.5650 H   0  0  0  0  0  0  0  0  0  0  0  0
   37.5500   33.0270   39.8250 H   0  0  0  0  0  0  0  0  0  0  0  0
   39.8950   33.7560   40.4930 C   0  0  0  0  0  0  0  0  0  0  0  0
   39.0900   34.8980   40.6860 C   0  0  0  0  0  0  0  0  0  0  0  0
   39.4430   36.1460   40.1640 C   0  0  0  0  0  0  0  0  0  0  0  0
   40.5980   36.1980   39.4630 N   0  0  0  0  0  0  0  0  0  0  0  0
   41.3670   35.1420   39.2700 C   0  0  0  0  0  0  0  0  0  0  0  0
   41.0210   33.9540   39.7720 N   0  0  0  0  0  0  0  0  0  0  0  0
   38.1990   34.6740   41.2710 H   0  0  0  0  0  0  0  0  0  0  0  0
   38.7530   36.9240   40.3810 H   0  0  0  0  0  0  0  0  0  0  0  0
   42.2620   35.2960   38.6980 H   0  0  0  0  0  0  0  0  0  0  0  0
   37.3030   28.1600   41.7630 C   0  0  0  0  0  0  0  0  0  0  0  0
   36.7490   27.7450   42.9560 C   0  0  0  0  0  0  0  0  0  0  0  0
   36.5560   26.4310   43.3100 C   0  0  0  0  0  0  0  0  0  0  0  0
   36.9200   25.4120   42.4650 C   0  0  0  0  0  0  0  0  0  0  0  0
   37.4670   25.8460   41.2920 C   0  0  0  0  0  0  0  0  0  0  0  0
   37.6540   27.1230   40.9510 N   0  0  0  0  0  0  0  0  0  0  0  0
   36.4620   28.5630   43.6240 H   0  0  0  0  0  0  0  0  0  0  0  0
   36.1060   26.2800   44.2860 H   0  0  0  0  0  0  0  0  0  0  0  0
   36.7620   24.4030   42.7570 H   0  0  0  0  0  0  0  0  0  0  0  0
   37.8950   24.8380   40.3120 C   0  0  0  0  0  0  0  0  0  0  0  0
   38.1260   23.5190   40.6420 C   0  0  0  0  0  0  0  0  0  0  0  0
   38.5300   22.5810   39.7020 C   0  0  0  0  0  0  0  0  0  0  0  0
   38.7000   21.5540   40.0090 H   0  0  0  0  0  0  0  0  0  0  0  0
   38.7070   22.9520   38.4210 N   0  0  0  0  0  0  0  0  0  0  0  0
   38.4780   24.2430   38.1130 C   0  0  0  0  0  0  0  0  0  0  0  0
   38.0800   25.1970   39.0070 N   0  0  0  0  0  0  0  0  0  0  0  0
  1  2  1  0  0  0  0
  2 11  1  0  0  0  0
  2  3  2  0  0  0  0
  3 12  1  0  0  0  0
  4  3  1  0  0  0  0
  4 13  1  0  0  0  0
  5  4  2  0  0  0  0
  6  5  1  0  0  0  0
  6 26  1  0  0  0  0
  7  6  2  0  0  0  0
  8  9  2  0  0  0  0
  8  7  1  0  0  0  0
  9 10  1  0  0  0  0
 10  1  2  0  0  0  0
 10  5  1  0  0  0  0
 14  7  1  0  0  0  0
 15  8  1  0  0  0  0
 16  9  1  0  0  0  0
 17 18  1  0  0  0  0
 17  1  1  0  0  0  0
 18 23  1  0  0  0  0
 19 24  1  0  0  0  0
 19 18  2  0  0  0  0
 20 19  1  0  0  0  0
 21 20  2  0  0  0  0
 21 22  1  0  0  0  0
 22 17  2  0  0  0  0
 25 21  1  0  0  0  0
 26 27  1  0  0  0  0
 27 28  2  0  0  0  0
 27 32  1  0  0  0  0
 28 33  1  0  0  0  0
 29 34  1  0  0  0  0
 29 28  1  0  0  0  0
 30 29  2  0  0  0  0
 31 30  1  0  0  0  0
 31 26  2  0  0  0  0
 35 36  1  0  0  0  0
 35 30  1  0  0  0  0
 37 38  1  0  0  0  0
 37 36  2  0  0  0  0
 39 37  1  0  0  0  0
 40 39  2  0  0  0  0
 40 41  1  0  0  0  0
 41 35  2  0  0  0  0
M  END
>  <minimizedAffinity>
-6.68498421

>  <minimizedRMSD>
1.5432421

$$$$
