
 OpenBabel03242508273D

 22 24  0  0  0  0  0  0  0  0999 V2000
   37.4300   32.4810   40.0390 C   0  0  0  0  0  0  0  0  0  0  0  0
   37.5350   31.3640   40.7970 N   0  0  0  0  0  0  0  0  0  0  0  0
   37.1640   30.3270   40.0760 O   0  0  0  0  0  0  0  0  0  0  0  0
   36.8300   30.7690   38.8860 C   0  0  0  0  0  0  0  0  0  0  0  0
   36.9820   32.0980   38.8250 N   0  0  0  0  0  0  0  0  0  0  0  0
   36.3540   29.9700   37.7520 C   0  0  0  0  0  0  0  0  0  0  0  0
   35.2270   29.1560   37.8330 C   0  0  0  0  0  0  0  0  0  0  0  0
   34.8830   28.4470   36.6780 C   0  0  0  0  0  0  0  0  0  0  0  0
   33.9930   27.8300   36.8070 H   0  0  0  0  0  0  0  0  0  0  0  0
   35.5760   28.5180   35.5290 N   0  0  0  0  0  0  0  0  0  0  0  0
   36.6550   29.3140   35.4930 C   0  0  0  0  0  0  0  0  0  0  0  0
   37.0320   30.0260   36.5920 N   0  0  0  0  0  0  0  0  0  0  0  0
   37.7080   33.8030   40.3640 O   0  0  0  0  0  0  0  0  0  0  0  0
   41.1440   34.4280   39.3700 C   0  0  0  0  0  0  0  0  0  0  0  0
   41.1740   35.8370   39.5240 C   0  0  0  0  0  0  0  0  0  0  0  0
   39.9780   36.4590   39.9670 C   0  0  0  0  0  0  0  0  0  0  0  0
   38.8960   35.6640   40.2110 N   0  0  0  0  0  0  0  0  0  0  0  0
   38.9250   34.3450   40.0500 C   0  0  0  0  0  0  0  0  0  0  0  0
   40.0380   33.7210   39.6320 N   0  0  0  0  0  0  0  0  0  0  0  0
   42.0300   33.8860   39.0330 H   0  0  0  0  0  0  0  0  0  0  0  0
   42.0810   36.3810   39.3050 H   0  0  0  0  0  0  0  0  0  0  0  0
   39.9940   37.5420   40.0870 H   0  0  0  0  0  0  0  0  0  0  0  0
  1 13  1  0  0  0  0
  1  2  2  0  0  0  0
  3  2  1  0  0  0  0
  4  3  1  0  0  0  0
  5  4  2  0  0  0  0
  5  1  1  0  0  0  0
  6  7  1  0  0  0  0
  6  4  1  0  0  0  0
  8  9  1  0  0  0  0
  8  7  2  0  0  0  0
 10  8  1  0  0  0  0
 11 10  2  0  0  0  0
 11 12  1  0  0  0  0
 12  6  2  0  0  0  0
 14 15  2  0  0  0  0
 14 19  1  0  0  0  0
 15 16  1  0  0  0  0
 16 22  1  0  0  0  0
 16 17  2  0  0  0  0
 18 17  1  0  0  0  0
 18 13  1  0  0  0  0
 19 18  2  0  0  0  0
 20 14  1  0  0  0  0
 21 15  1  0  0  0  0
M  END
>  <minimizedAffinity>
-4.5477519

>  <minimizedRMSD>
6.2977128

$$$$
