
 OpenBabel03242509273D

 46 50  0  0  0  0  0  0  0  0999 V2000
   36.1430   30.0790   41.0980 C   0  0  0  0  0  0  0  0  0  0  0  0
   35.5660   30.6120   41.8970 H   0  0  0  0  0  0  0  0  0  0  0  0
   36.7570   30.8690   40.6210 H   0  0  0  0  0  0  0  0  0  0  0  0
   38.5800   28.1130   42.6880 C   0  0  0  0  0  0  0  0  0  0  0  0
   37.4800   27.3020   42.7940 C   0  0  0  0  0  0  0  0  0  0  0  0
   36.4230   27.9850   42.1840 C   0  0  0  0  0  0  0  0  0  0  0  0
   36.9710   29.1400   41.7650 N   0  0  0  0  0  0  0  0  0  0  0  0
   38.2280   29.2450   42.0440 N   0  0  0  0  0  0  0  0  0  0  0  0
   37.5080   26.3300   43.2740 H   0  0  0  0  0  0  0  0  0  0  0  0
   35.4200   27.5860   42.1150 H   0  0  0  0  0  0  0  0  0  0  0  0
   41.4870   26.3720   44.2440 C   0  0  0  0  0  0  0  0  0  0  0  0
   40.1840   26.5940   43.7840 C   0  0  0  0  0  0  0  0  0  0  0  0
   39.9130   27.8310   43.1760 C   0  0  0  0  0  0  0  0  0  0  0  0
   40.9010   28.7540   43.0560 N   0  0  0  0  0  0  0  0  0  0  0  0
   42.1550   28.4720   43.5280 C   0  0  0  0  0  0  0  0  0  0  0  0
   42.4360   27.3010   44.1090 N   0  0  0  0  0  0  0  0  0  0  0  0
   41.6560   25.4100   44.7040 H   0  0  0  0  0  0  0  0  0  0  0  0
   39.3960   25.8450   43.8860 H   0  0  0  0  0  0  0  0  0  0  0  0
   43.1770   29.5010   43.3710 C   0  0  0  0  0  0  0  0  0  0  0  0
   43.9310   29.8670   44.4660 C   0  0  0  0  0  3  0  0  0  0  0  0
   44.9240   30.8470   44.3780 C   0  0  0  0  0  0  0  0  0  0  0  0
   45.4770   31.0860   45.2710 H   0  0  0  0  0  0  0  0  0  0  0  0
   45.1050   31.4160   43.1610 N   0  0  0  0  0  0  0  0  0  0  0  0
   44.3540   31.0430   42.0970 C   0  0  0  0  0  3  0  0  0  0  0  0
   43.4050   30.0970   42.2100 N   0  0  0  0  0  0  0  0  0  0  0  0
   35.2480   29.5300   40.0360 C   0  0  0  0  0  0  0  0  0  0  0  0
   34.5480   30.4260   39.9200 H   0  0  0  0  0  0  0  0  0  0  0  0
   34.7620   28.6320   40.3920 H   0  0  0  0  0  0  0  0  0  0  0  0
   35.8600   29.4460   38.6890 C   0  0  0  0  0  0  0  0  0  0  0  0
   37.1810   29.5900   38.3650 C   0  0  0  0  0  0  0  0  0  0  0  0
   37.7010   29.5660   37.1020 C   0  0  0  0  0  0  0  0  0  0  0  0
   36.8640   29.3850   36.0350 C   0  0  0  0  0  0  0  0  0  0  0  0
   35.5180   29.2320   36.2900 C   0  0  0  0  0  0  0  0  0  0  0  0
   34.7290   29.0630   35.1800 C   0  0  0  0  0  0  0  0  0  0  0  0
   33.3710   28.9070   35.3260 C   0  0  0  0  0  0  0  0  0  0  0  0
   32.8240   28.9190   36.5910 C   0  0  0  0  0  0  0  0  0  0  0  0
   33.6660   29.0910   37.6600 C   0  0  0  0  0  0  0  0  0  0  0  0
   35.0080   29.2560   37.5860 C   0  0  0  0  0  0  0  0  0  0  0  0
   37.8370   29.7350   39.2330 H   0  0  0  0  0  0  0  0  0  0  0  0
   38.7710   29.6950   37.0230 H   0  0  0  0  0  0  0  0  0  0  0  0
   37.2800   29.3670   35.0360 H   0  0  0  0  0  0  0  0  0  0  0  0
   35.1240   29.0450   34.1700 H   0  0  0  0  0  0  0  0  0  0  0  0
   32.7190   28.7730   34.4700 H   0  0  0  0  0  0  0  0  0  0  0  0
   31.7560   28.7950   36.7080 H   0  0  0  0  0  0  0  0  0  0  0  0
   33.0560   29.0780   38.9040 O   0  0  0  0  0  0  0  0  0  0  0  0
   32.2320   29.6590   39.0160 H   0  0  0  0  0  0  0  0  0  0  0  0
  1  7  1  0  0  0  0
  1  2  1  0  0  0  0
  3  1  1  0  0  0  0
  4  5  1  0  0  0  0
  4 13  1  0  0  0  0
  5  9  1  0  0  0  0
  6  5  2  0  0  0  0
  7  8  1  0  0  0  0
  7  6  1  0  0  0  0
  8  4  2  0  0  0  0
 10  6  1  0  0  0  0
 11 17  1  0  0  0  0
 12 18  1  0  0  0  0
 12 11  2  0  0  0  0
 13 12  1  0  0  0  0
 14 13  2  0  0  0  0
 14 15  1  0  0  0  0
 15 16  2  0  0  0  0
 16 11  1  0  0  0  0
 19 15  1  0  0  0  0
 19 20  1  0  0  0  0
 21 20  2  0  0  0  0
 21 22  1  0  0  0  0
 23 21  1  0  0  0  0
 24 25  1  0  0  0  0
 24 23  2  0  0  0  0
 25 19  2  0  0  0  0
 26 28  1  0  0  0  0
 26  1  1  0  0  0  0
 27 26  1  0  0  0  0
 29 26  1  0  0  0  0
 30 29  1  0  0  0  0
 30 39  1  0  0  0  0
 31 30  2  0  0  0  0
 32 33  2  0  0  0  0
 32 31  1  0  0  0  0
 33 38  1  0  0  0  0
 34 35  2  0  0  0  0
 34 33  1  0  0  0  0
 35 36  1  0  0  0  0
 36 44  1  0  0  0  0
 36 37  2  0  0  0  0
 37 45  1  0  0  0  0
 38 37  1  0  0  0  0
 38 29  2  0  0  0  0
 40 31  1  0  0  0  0
 41 32  1  0  0  0  0
 42 34  1  0  0  0  0
 43 35  1  0  0  0  0
 45 46  1  0  0  0  0
M  END
>  <minimizedAffinity>
-5.98772001

>  <minimizedRMSD>
0.300918192

$$$$
