
 OpenBabel03242509273D

 46 50  0  0  0  0  0  0  0  0999 V2000
   36.1320   30.0660   41.1010 C   0  0  0  0  0  0  0  0  0  0  0  0
   35.5500   30.5950   41.9000 H   0  0  0  0  0  0  0  0  0  0  0  0
   36.7410   30.8610   40.6260 H   0  0  0  0  0  0  0  0  0  0  0  0
   38.5810   28.1170   42.6930 C   0  0  0  0  0  0  0  0  0  0  0  0
   37.4870   27.2960   42.7950 C   0  0  0  0  0  0  0  0  0  0  0  0
   36.4270   27.9720   42.1840 C   0  0  0  0  0  0  0  0  0  0  0  0
   36.9660   29.1330   41.7690 N   0  0  0  0  0  0  0  0  0  0  0  0
   38.2210   29.2470   42.0500 N   0  0  0  0  0  0  0  0  0  0  0  0
   37.5220   26.3240   43.2730 H   0  0  0  0  0  0  0  0  0  0  0  0
   35.4260   27.5660   42.1110 H   0  0  0  0  0  0  0  0  0  0  0  0
   41.5060   26.3860   44.2260 C   0  0  0  0  0  0  0  0  0  0  0  0
   40.2020   26.5980   43.7620 C   0  0  0  0  0  0  0  0  0  0  0  0
   39.9150   27.8450   43.1840 C   0  0  0  0  0  0  0  0  0  0  0  0
   40.8890   28.7870   43.0940 N   0  0  0  0  0  0  0  0  0  0  0  0
   42.1440   28.5140   43.5680 C   0  0  0  0  0  0  0  0  0  0  0  0
   42.4410   27.3340   44.1220 N   0  0  0  0  0  0  0  0  0  0  0  0
   41.6880   25.4160   44.6630 H   0  0  0  0  0  0  0  0  0  0  0  0
   39.4270   25.8330   43.8400 H   0  0  0  0  0  0  0  0  0  0  0  0
   43.1490   29.5640   43.4440 C   0  0  0  0  0  0  0  0  0  0  0  0
   44.4770   29.2080   43.3300 C   0  0  0  0  0  3  0  0  0  0  0  0
   45.4860   30.1680   43.2090 C   0  0  0  0  0  0  0  0  0  0  0  0
   46.5020   29.8240   43.1240 H   0  0  0  0  0  0  0  0  0  0  0  0
   45.0890   31.4640   43.2090 N   0  0  0  0  0  0  0  0  0  0  0  0
   43.7800   31.7930   43.3210 C   0  0  0  0  0  3  0  0  0  0  0  0
   42.8290   30.8490   43.4380 N   0  0  0  0  0  0  0  0  0  0  0  0
   35.2420   29.5110   40.0370 C   0  0  0  0  0  0  0  0  0  0  0  0
   34.5360   30.4020   39.9210 H   0  0  0  0  0  0  0  0  0  0  0  0
   34.7620   28.6100   40.3930 H   0  0  0  0  0  0  0  0  0  0  0  0
   35.8570   29.4320   38.6920 C   0  0  0  0  0  0  0  0  0  0  0  0
   37.1790   29.5740   38.3710 C   0  0  0  0  0  0  0  0  0  0  0  0
   37.7020   29.5540   37.1090 C   0  0  0  0  0  0  0  0  0  0  0  0
   36.8670   29.3820   36.0390 C   0  0  0  0  0  0  0  0  0  0  0  0
   35.5190   29.2330   36.2900 C   0  0  0  0  0  0  0  0  0  0  0  0
   34.7320   29.0730   35.1780 C   0  0  0  0  0  0  0  0  0  0  0  0
   33.3740   28.9200   35.3200 C   0  0  0  0  0  0  0  0  0  0  0  0
   32.8240   28.9280   36.5840 C   0  0  0  0  0  0  0  0  0  0  0  0
   33.6640   29.0910   37.6560 C   0  0  0  0  0  0  0  0  0  0  0  0
   35.0060   29.2520   37.5860 C   0  0  0  0  0  0  0  0  0  0  0  0
   37.8340   29.7110   39.2420 H   0  0  0  0  0  0  0  0  0  0  0  0
   38.7720   29.6800   37.0340 H   0  0  0  0  0  0  0  0  0  0  0  0
   37.2850   29.3680   35.0410 H   0  0  0  0  0  0  0  0  0  0  0  0
   35.1290   29.0580   34.1680 H   0  0  0  0  0  0  0  0  0  0  0  0
   32.7230   28.7930   34.4620 H   0  0  0  0  0  0  0  0  0  0  0  0
   31.7550   28.8070   36.6980 H   0  0  0  0  0  0  0  0  0  0  0  0
   33.0510   29.0740   38.8980 O   0  0  0  0  0  0  0  0  0  0  0  0
   32.2290   29.6570   39.0110 H   0  0  0  0  0  0  0  0  0  0  0  0
  1  7  1  0  0  0  0
  1  2  1  0  0  0  0
  3  1  1  0  0  0  0
  4  5  1  0  0  0  0
  4 13  1  0  0  0  0
  5  9  1  0  0  0  0
  6  5  2  0  0  0  0
  7  8  1  0  0  0  0
  7  6  1  0  0  0  0
  8  4  2  0  0  0  0
 10  6  1  0  0  0  0
 11 17  1  0  0  0  0
 12 18  1  0  0  0  0
 12 11  2  0  0  0  0
 13 12  1  0  0  0  0
 14 13  2  0  0  0  0
 14 15  1  0  0  0  0
 15 16  2  0  0  0  0
 16 11  1  0  0  0  0
 19 15  1  0  0  0  0
 20 19  2  0  0  0  0
 21 20  1  0  0  0  0
 22 21  1  0  0  0  0
 23 21  2  0  0  0  0
 23 24  1  0  0  0  0
 24 25  2  0  0  0  0
 25 19  1  0  0  0  0
 26 28  1  0  0  0  0
 26  1  1  0  0  0  0
 27 26  1  0  0  0  0
 29 26  1  0  0  0  0
 30 29  1  0  0  0  0
 30 39  1  0  0  0  0
 31 30  2  0  0  0  0
 32 33  2  0  0  0  0
 32 31  1  0  0  0  0
 33 38  1  0  0  0  0
 34 35  2  0  0  0  0
 34 33  1  0  0  0  0
 35 36  1  0  0  0  0
 36 44  1  0  0  0  0
 36 37  2  0  0  0  0
 37 45  1  0  0  0  0
 38 37  1  0  0  0  0
 38 29  2  0  0  0  0
 40 31  1  0  0  0  0
 41 32  1  0  0  0  0
 42 34  1  0  0  0  0
 43 35  1  0  0  0  0
 45 46  1  0  0  0  0
M  END
>  <minimizedAffinity>
-5.96526146

>  <minimizedRMSD>
0.352832943

$$$$
