
 OpenBabel03242509323D

 19 20  0  0  0  0  0  0  0  0999 V2000
   37.6310   28.7360   43.6320 C   0  0  0  0  0  0  0  0  0  0  0  0
   38.0770   27.3960   43.7270 C   0  0  0  0  0  0  0  0  0  0  0  0
   38.4070   26.7390   42.5460 C   0  0  0  0  0  0  0  0  0  0  0  0
   38.2790   27.4270   41.3690 N   0  0  0  0  0  0  0  0  0  0  0  0
   37.8530   28.6950   41.3100 C   0  0  0  0  0  0  0  0  0  0  0  0
   37.5330   29.3370   42.4450 N   0  0  0  0  0  0  0  0  0  0  0  0
   37.3750   29.2430   44.5600 H   0  0  0  0  0  0  0  0  0  0  0  0
   38.1470   26.9370   44.6910 H   0  0  0  0  0  0  0  0  0  0  0  0
   37.7320   29.3890   40.0280 C   0  0  0  0  0  0  0  0  0  0  0  0
   38.4010   28.8700   38.9230 C   0  0  0  0  0  3  0  0  0  0  0  0
   38.3030   29.5060   37.7030 C   0  0  0  0  0  0  0  0  0  0  0  0
   38.8120   29.1140   36.8530 H   0  0  0  0  0  0  0  0  0  0  0  0
   37.5450   30.6170   37.6650 N   0  0  0  0  0  0  0  0  0  0  0  0
   36.8960   31.1240   38.7320 C   0  0  0  0  0  3  0  0  0  0  0  0
   36.9820   30.5100   39.9340 N   0  0  0  0  0  0  0  0  0  0  0  0
   38.8820   25.3250   42.6040 C   0  0  0  0  0  0  0  0  0  0  0  0
   39.6700   25.1410   41.4860 F   0  0  0  0  0  0  0  0  0  0  0  0
   39.6590   25.0940   43.7140 F   0  0  0  0  0  0  0  0  0  0  0  0
   37.8320   24.4230   42.5790 F   0  0  0  0  0  0  0  0  0  0  0  0
  1  2  1  0  0  0  0
  1  7  1  0  0  0  0
  2  8  1  0  0  0  0
  3 16  1  0  0  0  0
  3  2  2  0  0  0  0
  4  3  1  0  0  0  0
  5  4  2  0  0  0  0
  5  6  1  0  0  0  0
  6  1  2  0  0  0  0
  9  5  1  0  0  0  0
 10  9  2  0  0  0  0
 11 10  1  0  0  0  0
 12 11  1  0  0  0  0
 13 11  2  0  0  0  0
 13 14  1  0  0  0  0
 14 15  2  0  0  0  0
 15  9  1  0  0  0  0
 16 18  1  0  0  0  0
 17 16  1  0  0  0  0
 19 16  1  0  0  0  0
M  END
>  <minimizedAffinity>
-4.07485056

>  <minimizedRMSD>
1.90472519

$$$$
