
 OpenBabel03242508553D

 39 43  0  0  0  0  0  0  0  0999 V2000
   37.8870   27.9200   41.3090 C   0  0  0  0  0  0  0  0  0  0  0  0
   37.0060   28.9290   40.9070 C   0  0  0  0  0  0  0  0  0  0  0  0
   37.5980   30.0950   41.1800 N   0  0  0  0  0  0  0  0  0  0  0  0
   38.8180   29.9220   41.7380 C   0  0  0  0  0  0  0  0  0  0  0  0
   39.7070   30.8800   42.1460 C   0  0  0  0  0  0  0  0  0  0  0  0
   40.9110   30.4120   42.6970 C   0  0  0  0  0  0  0  0  0  0  0  0
   41.1630   29.0390   42.8100 C   0  0  0  0  0  0  0  0  0  0  0  0
   40.2390   28.1020   42.3850 C   0  0  0  0  0  0  0  0  0  0  0  0
   39.0310   28.5520   41.8340 C   0  0  0  0  0  0  0  0  0  0  0  0
   36.0450   28.7130   40.4660 H   0  0  0  0  0  0  0  0  0  0  0  0
   39.4860   31.9240   42.0450 H   0  0  0  0  0  0  0  0  0  0  0  0
   41.6500   31.1300   43.0360 H   0  0  0  0  0  0  0  0  0  0  0  0
   42.0970   28.6760   43.2370 H   0  0  0  0  0  0  0  0  0  0  0  0
   40.3940   27.0320   42.4570 H   0  0  0  0  0  0  0  0  0  0  0  0
   36.9430   24.5060   42.2060 C   0  0  0  0  0  0  0  0  0  0  0  0
   37.3480   23.7650   41.0610 C   0  0  0  0  0  0  0  0  0  0  0  0
   37.9460   24.4670   39.9850 C   0  0  0  0  0  0  0  0  0  0  0  0
   38.0920   25.8010   40.1240 N   0  0  0  0  0  0  0  0  0  0  0  0
   37.6990   26.4810   41.2210 C   0  0  0  0  0  0  0  0  0  0  0  0
   37.1260   25.8440   42.2640 N   0  0  0  0  0  0  0  0  0  0  0  0
   36.4870   23.9720   43.0250 H   0  0  0  0  0  0  0  0  0  0  0  0
   37.1910   22.6800   41.0280 H   0  0  0  0  0  0  0  0  0  0  0  0
   38.2590   23.9150   39.1120 H   0  0  0  0  0  0  0  0  0  0  0  0
   36.9220   31.3380   40.8720 C   0  0  0  0  0  0  0  0  0  0  0  0
   37.6260   32.1490   41.2120 H   0  0  0  0  0  0  0  0  0  0  0  0
   35.9710   31.4350   41.4200 H   0  0  0  0  0  0  0  0  0  0  0  0
   36.6920   31.5390   39.3990 C   0  0  0  0  0  0  0  0  0  0  0  0
   36.0870   30.7150   38.9750 H   0  0  0  0  0  0  0  0  0  0  0  0
   36.2160   32.5320   39.2660 H   0  0  0  0  0  0  0  0  0  0  0  0
   38.0380   31.6100   38.7680 C   0  0  0  0  0  0  0  0  0  0  0  0
   38.6780   30.8140   37.8580 C   0  0  0  0  0  0  0  0  0  0  0  0
   39.8920   31.3370   37.6240 N   0  0  0  0  0  0  0  0  0  0  0  0
   40.1000   32.4540   38.3370 C   0  0  0  0  0  0  0  0  0  0  0  0
   41.1110   33.3810   38.5020 C   0  0  0  0  0  0  0  0  0  0  0  0
   41.0320   34.4630   39.3370 C   0  0  0  0  0  0  0  0  0  0  0  0
   39.8610   34.6550   40.0760 C   0  0  0  0  0  0  0  0  0  0  0  0
   38.8550   33.7320   39.9120 C   0  0  0  0  0  0  0  0  0  0  0  0
   38.9380   32.6300   39.0600 C   0  0  0  0  0  0  0  0  0  0  0  0
   40.5990   30.9350   36.9650 H   0  0  0  0  0  0  0  0  0  0  0  0
  1  9  1  0  0  0  0
  2  3  1  0  0  0  0
  2  1  2  0  0  0  0
  3  4  1  0  0  0  0
  4  9  2  0  0  0  0
  4  5  1  0  0  0  0
  5  6  2  0  0  0  0
  6  7  1  0  0  0  0
  6 12  1  0  0  0  0
  7 13  1  0  0  0  0
  8 14  1  0  0  0  0
  8  7  2  0  0  0  0
  9  8  1  0  0  0  0
 10  2  1  0  0  0  0
 11  5  1  0  0  0  0
 15 20  1  0  0  0  0
 15 21  1  0  0  0  0
 16 15  2  0  0  0  0
 17 18  2  0  0  0  0
 17 16  1  0  0  0  0
 18 19  1  0  0  0  0
 19  1  1  0  0  0  0
 19 20  2  0  0  0  0
 22 16  1  0  0  0  0
 23 17  1  0  0  0  0
 24  3  1  0  0  0  0
 24 25  1  0  0  0  0
 24 26  1  0  0  0  0
 27 24  1  0  0  0  0
 28 27  1  0  0  0  0
 29 27  1  0  0  0  0
 30 38  1  0  0  0  0
 30 27  1  0  0  0  0
 31 30  2  0  0  0  0
 32 31  1  0  0  0  0
 32 33  1  0  0  0  0
 33 34  2  0  0  0  0
 33 38  1  0  0  0  0
 34 35  1  0  0  0  0
 35 36  2  0  0  0  0
 37 36  1  0  0  0  0
 38 37  2  0  0  0  0
 39 32  1  0  0  0  0
M  END
>  <minimizedAffinity>
-5.8990097

>  <minimizedRMSD>
6.13331747

$$$$
