
 OpenBabel03242508003D

 41 44  0  0  1  0  0  0  0  0999 V2000
   34.0890   26.7850   37.1450 N   0  0  0  0  0  0  0  0  0  0  0  0
   33.8390   28.1150   37.6710 C   0  0  0  0  0  0  0  0  0  0  0  0
   34.5790   29.1970   36.9300 C   0  0  0  0  0  0  0  0  0  0  0  0
   35.8580   28.6890   36.3090 C   0  0  2  0  0  0  0  0  0  0  0  0
   36.4300   27.5310   37.0840 C   0  0  0  0  0  0  0  0  0  0  0  0
   35.4670   26.3940   37.2060 C   0  0  1  0  0  0  0  0  0  0  0  0
   33.5490   26.1420   37.7720 H   0  0  0  0  0  0  0  0  0  0  0  0
   32.7460   28.2580   37.6510 H   0  0  0  0  0  0  0  0  0  0  0  0
   34.1820   28.1180   38.7250 H   0  0  0  0  0  0  0  0  0  0  0  0
   34.7270   30.0770   37.5900 H   0  0  0  0  0  0  0  0  0  0  0  0
   33.9520   29.5620   36.0830 H   0  0  0  0  0  0  0  0  0  0  0  0
   35.7490   28.4290   35.2350 H   0  0  0  0  0  0  0  0  0  0  0  0
   37.3870   27.2430   36.5950 H   0  0  0  0  0  0  0  0  0  0  0  0
   36.6000   27.9210   38.1100 H   0  0  0  0  0  0  0  0  0  0  0  0
   35.6230   25.7820   36.2670 H   0  0  0  0  0  0  0  0  0  0  0  0
   35.7490   25.4840   38.3180 C   0  0  0  0  0  0  0  0  0  0  0  0
   36.5820   25.7000   39.3970 C   0  0  0  0  0  0  0  0  0  0  0  0
   36.7140   24.7100   40.3460 C   0  0  0  0  0  0  0  0  0  0  0  0
   37.3860   24.9570   41.1590 H   0  0  0  0  0  0  0  0  0  0  0  0
   36.0630   23.5190   40.2820 N   0  0  0  0  0  0  0  0  0  0  0  0
   35.2540   23.3460   39.2080 C   0  0  0  0  0  0  0  0  0  0  0  0
   35.0940   24.2990   38.2440 N   0  0  0  0  0  0  0  0  0  0  0  0
   37.0920   30.0120   36.4070 S   0  0  0  0  0  0  0  0  0  0  0  0
   37.2150   30.4450   40.4070 C   0  0  0  0  0  0  0  0  0  0  0  0
   37.2650   31.8050   40.6080 C   0  0  0  0  0  0  0  0  0  0  0  0
   37.2620   32.6360   39.4950 C   0  0  0  0  0  0  0  0  0  0  0  0
   37.2090   32.0620   38.2380 C   0  0  0  0  0  0  0  0  0  0  0  0
   37.1590   30.6960   38.0510 C   0  0  0  0  0  0  0  0  0  0  0  0
   37.1630   29.9100   39.1480 N   0  0  0  0  0  0  0  0  0  0  0  0
   37.3050   32.2330   41.5810 H   0  0  0  0  0  0  0  0  0  0  0  0
   37.2990   33.7130   39.5550 H   0  0  0  0  0  0  0  0  0  0  0  0
   37.2050   32.6750   37.3460 H   0  0  0  0  0  0  0  0  0  0  0  0
   38.1610   28.9190   43.5890 C   0  0  0  0  0  0  0  0  0  0  0  0
   37.2770   27.8390   43.7050 C   0  0  0  0  0  0  0  0  0  0  0  0
   36.3390   27.6340   42.6670 C   0  0  0  0  0  0  0  0  0  0  0  0
   36.3650   28.4970   41.6390 N   0  0  0  0  0  0  0  0  0  0  0  0
   37.2160   29.5240   41.5440 C   0  0  0  0  0  0  0  0  0  0  0  0
   38.0940   29.7140   42.5190 N   0  0  0  0  0  0  0  0  0  0  0  0
   38.8970   29.1330   44.3400 H   0  0  0  0  0  0  0  0  0  0  0  0
   37.3230   27.1900   44.5690 H   0  0  0  0  0  0  0  0  0  0  0  0
   35.6650   26.8150   42.7470 H   0  0  0  0  0  0  0  0  0  0  0  0
  1  6  1  0  0  0  0
  1  2  1  0  0  0  0
  1  7  1  0  0  0  0
  2  9  1  0  0  0  0
  3 10  1  0  0  0  0
  3  2  1  0  0  0  0
  4 12  1  6  0  0  0
  4 23  1  0  0  0  0
  4  3  1  0  0  0  0
  4  5  1  0  0  0  0
  5  6  1  0  0  0  0
  5 14  1  0  0  0  0
  6 15  1  6  0  0  0
  6 16  1  0  0  0  0
  8  2  1  0  0  0  0
 11  3  1  0  0  0  0
 13  5  1  0  0  0  0
 16 17  1  0  0  0  0
 17 18  2  0  0  0  0
 18 19  1  0  0  0  0
 20 18  1  0  0  0  0
 21 20  2  0  0  0  0
 22 16  2  0  0  0  0
 22 21  1  0  0  0  0
 23 28  1  0  0  0  0
 24 25  1  0  0  0  0
 24 37  1  0  0  0  0
 25 30  1  0  0  0  0
 26 31  1  0  0  0  0
 26 25  2  0  0  0  0
 27 26  1  0  0  0  0
 28 27  2  0  0  0  0
 28 29  1  0  0  0  0
 29 24  2  0  0  0  0
 32 27  1  0  0  0  0
 33 34  1  0  0  0  0
 33 39  1  0  0  0  0
 34 40  1  0  0  0  0
 35 41  1  0  0  0  0
 35 34  2  0  0  0  0
 36 35  1  0  0  0  0
 37 36  2  0  0  0  0
 37 38  1  0  0  0  0
 38 33  2  0  0  0  0
M  END
>  <minimizedAffinity>
-5.27292919

>  <minimizedRMSD>
1.1482507

$$$$
