
 OpenBabel03242509273D

 46 50  0  0  0  0  0  0  0  0999 V2000
   36.1230   30.0680   41.0870 C   0  0  0  0  0  0  0  0  0  0  0  0
   35.5360   30.5950   41.8840 H   0  0  0  0  0  0  0  0  0  0  0  0
   36.7220   30.8670   40.6070 H   0  0  0  0  0  0  0  0  0  0  0  0
   38.5950   28.1560   42.6890 C   0  0  0  0  0  0  0  0  0  0  0  0
   37.5120   27.3210   42.7900 C   0  0  0  0  0  0  0  0  0  0  0  0
   36.4430   27.9810   42.1750 C   0  0  0  0  0  0  0  0  0  0  0  0
   36.9680   29.1480   41.7590 N   0  0  0  0  0  0  0  0  0  0  0  0
   38.2210   29.2800   42.0430 N   0  0  0  0  0  0  0  0  0  0  0  0
   37.5590   26.3500   43.2710 H   0  0  0  0  0  0  0  0  0  0  0  0
   35.4490   27.5610   42.1010 H   0  0  0  0  0  0  0  0  0  0  0  0
   41.5210   26.4960   44.2950 C   0  0  0  0  0  0  0  0  0  0  0  0
   40.2150   26.6900   43.8310 C   0  0  0  0  0  0  0  0  0  0  0  0
   39.9310   27.9040   43.1840 C   0  0  0  0  0  0  0  0  0  0  0  0
   40.9100   28.8320   43.0310 N   0  0  0  0  0  0  0  0  0  0  0  0
   42.1680   28.5780   43.5100 C   0  0  0  0  0  0  0  0  0  0  0  0
   42.4610   27.4300   44.1280 N   0  0  0  0  0  0  0  0  0  0  0  0
   41.7010   25.5510   44.7860 H   0  0  0  0  0  0  0  0  0  0  0  0
   39.4350   25.9370   43.9590 H   0  0  0  0  0  0  0  0  0  0  0  0
   43.1790   29.6120   43.3170 C   0  0  0  0  0  0  0  0  0  0  0  0
   44.3420   29.2930   42.6490 C   0  0  0  0  0  3  0  0  0  0  0  0
   45.3480   30.2400   42.4340 C   0  0  0  0  0  0  0  0  0  0  0  0
   46.2320   29.9260   41.9040 H   0  0  0  0  0  0  0  0  0  0  0  0
   45.1170   31.4840   42.9160 N   0  0  0  0  0  0  0  0  0  0  0  0
   43.9670   31.7790   43.5700 C   0  0  0  0  0  3  0  0  0  0  0  0
   43.0160   30.8480   43.7630 N   0  0  0  0  0  0  0  0  0  0  0  0
   35.2370   29.4980   40.0280 C   0  0  0  0  0  0  0  0  0  0  0  0
   34.5190   30.3790   39.9100 H   0  0  0  0  0  0  0  0  0  0  0  0
   34.7700   28.5910   40.3880 H   0  0  0  0  0  0  0  0  0  0  0  0
   35.8500   29.4230   38.6810 C   0  0  0  0  0  0  0  0  0  0  0  0
   37.1710   29.5620   38.3580 C   0  0  0  0  0  0  0  0  0  0  0  0
   37.6910   29.5470   37.0950 C   0  0  0  0  0  0  0  0  0  0  0  0
   36.8530   29.3800   36.0260 C   0  0  0  0  0  0  0  0  0  0  0  0
   35.5060   29.2330   36.2790 C   0  0  0  0  0  0  0  0  0  0  0  0
   34.7170   29.0800   35.1680 C   0  0  0  0  0  0  0  0  0  0  0  0
   33.3580   28.9300   35.3120 C   0  0  0  0  0  0  0  0  0  0  0  0
   32.8110   28.9340   36.5770 C   0  0  0  0  0  0  0  0  0  0  0  0
   33.6530   29.0900   37.6480 C   0  0  0  0  0  0  0  0  0  0  0  0
   34.9960   29.2490   37.5750 C   0  0  0  0  0  0  0  0  0  0  0  0
   37.8280   29.6950   39.2280 H   0  0  0  0  0  0  0  0  0  0  0  0
   38.7620   29.6700   37.0180 H   0  0  0  0  0  0  0  0  0  0  0  0
   37.2700   29.3700   35.0270 H   0  0  0  0  0  0  0  0  0  0  0  0
   35.1120   29.0680   34.1570 H   0  0  0  0  0  0  0  0  0  0  0  0
   32.7050   28.8080   34.4550 H   0  0  0  0  0  0  0  0  0  0  0  0
   31.7420   28.8150   36.6930 H   0  0  0  0  0  0  0  0  0  0  0  0
   33.0430   29.0700   38.8910 O   0  0  0  0  0  0  0  0  0  0  0  0
   32.2230   29.6550   39.0090 H   0  0  0  0  0  0  0  0  0  0  0  0
  1  7  1  0  0  0  0
  1  2  1  0  0  0  0
  3  1  1  0  0  0  0
  4  5  1  0  0  0  0
  4 13  1  0  0  0  0
  5  9  1  0  0  0  0
  6  5  2  0  0  0  0
  7  8  1  0  0  0  0
  7  6  1  0  0  0  0
  8  4  2  0  0  0  0
 10  6  1  0  0  0  0
 11 17  1  0  0  0  0
 12 18  1  0  0  0  0
 12 11  2  0  0  0  0
 13 12  1  0  0  0  0
 14 13  2  0  0  0  0
 14 15  1  0  0  0  0
 15 16  2  0  0  0  0
 16 11  1  0  0  0  0
 19 15  1  0  0  0  0
 19 25  1  0  0  0  0
 20 19  2  0  0  0  0
 21 20  1  0  0  0  0
 21 23  2  0  0  0  0
 22 21  1  0  0  0  0
 23 24  1  0  0  0  0
 24 25  2  0  0  0  0
 26 28  1  0  0  0  0
 26  1  1  0  0  0  0
 27 26  1  0  0  0  0
 29 26  1  0  0  0  0
 30 29  1  0  0  0  0
 30 39  1  0  0  0  0
 31 30  2  0  0  0  0
 32 33  2  0  0  0  0
 32 31  1  0  0  0  0
 33 38  1  0  0  0  0
 34 35  2  0  0  0  0
 34 33  1  0  0  0  0
 35 36  1  0  0  0  0
 36 44  1  0  0  0  0
 36 37  2  0  0  0  0
 37 45  1  0  0  0  0
 38 37  1  0  0  0  0
 38 29  2  0  0  0  0
 40 31  1  0  0  0  0
 41 32  1  0  0  0  0
 42 34  1  0  0  0  0
 43 35  1  0  0  0  0
 45 46  1  0  0  0  0
M  END
>  <minimizedAffinity>
-6.00381136

>  <minimizedRMSD>
0.27458626

$$$$
