
 OpenBabel03242509273D

 46 50  0  0  0  0  0  0  0  0999 V2000
   36.1870   30.0780   41.1340 C   0  0  0  0  0  0  0  0  0  0  0  0
   35.6130   30.6080   41.9370 H   0  0  0  0  0  0  0  0  0  0  0  0
   36.7940   30.8710   40.6530 H   0  0  0  0  0  0  0  0  0  0  0  0
   38.6440   28.1230   42.7060 C   0  0  0  0  0  0  0  0  0  0  0  0
   37.5500   27.3040   42.8140 C   0  0  0  0  0  0  0  0  0  0  0  0
   36.4860   27.9820   42.2110 C   0  0  0  0  0  0  0  0  0  0  0  0
   37.0240   29.1430   41.7940 N   0  0  0  0  0  0  0  0  0  0  0  0
   38.2820   29.2550   42.0680 N   0  0  0  0  0  0  0  0  0  0  0  0
   37.5870   26.3310   43.2910 H   0  0  0  0  0  0  0  0  0  0  0  0
   35.4850   27.5770   42.1450 H   0  0  0  0  0  0  0  0  0  0  0  0
   41.5670   26.4030   44.2550 C   0  0  0  0  0  0  0  0  0  0  0  0
   40.2600   26.6180   43.8030 C   0  0  0  0  0  0  0  0  0  0  0  0
   39.9810   27.8490   43.1890 C   0  0  0  0  0  0  0  0  0  0  0  0
   40.9650   28.7740   43.0560 N   0  0  0  0  0  0  0  0  0  0  0  0
   42.2240   28.5000   43.5220 C   0  0  0  0  0  0  0  0  0  0  0  0
   42.5120   27.3340   44.1090 N   0  0  0  0  0  0  0  0  0  0  0  0
   41.7420   25.4450   44.7210 H   0  0  0  0  0  0  0  0  0  0  0  0
   39.4760   25.8660   43.9150 H   0  0  0  0  0  0  0  0  0  0  0  0
   43.2410   29.5320   43.3510 C   0  0  0  0  0  0  0  0  0  0  0  0
   44.2640   29.3200   42.4500 C   0  0  0  0  0  3  0  0  0  0  0  0
   45.2670   30.2700   42.2430 C   0  0  0  0  0  0  0  0  0  0  0  0
   46.0370   30.0430   41.5260 H   0  0  0  0  0  0  0  0  0  0  0  0
   45.1800   31.4080   42.9730 N   0  0  0  0  0  0  0  0  0  0  0  0
   44.1670   31.5990   43.8540 C   0  0  0  0  0  3  0  0  0  0  0  0
   43.2150   30.6670   44.0330 N   0  0  0  0  0  0  0  0  0  0  0  0
   35.2870   29.5250   40.0780 C   0  0  0  0  0  0  0  0  0  0  0  0
   34.5830   30.4190   39.9650 H   0  0  0  0  0  0  0  0  0  0  0  0
   34.8060   28.6260   40.4380 H   0  0  0  0  0  0  0  0  0  0  0  0
   35.8910   29.4420   38.7270 C   0  0  0  0  0  0  0  0  0  0  0  0
   37.2100   29.5840   38.3960 C   0  0  0  0  0  0  0  0  0  0  0  0
   37.7230   29.5610   37.1300 C   0  0  0  0  0  0  0  0  0  0  0  0
   36.8800   29.3840   36.0670 C   0  0  0  0  0  0  0  0  0  0  0  0
   35.5350   29.2340   36.3290 C   0  0  0  0  0  0  0  0  0  0  0  0
   34.7390   29.0690   35.2240 C   0  0  0  0  0  0  0  0  0  0  0  0
   33.3820   28.9160   35.3770 C   0  0  0  0  0  0  0  0  0  0  0  0
   32.8420   28.9280   36.6450 C   0  0  0  0  0  0  0  0  0  0  0  0
   33.6900   29.0950   37.7100 C   0  0  0  0  0  0  0  0  0  0  0  0
   35.0320   29.2570   37.6280 C   0  0  0  0  0  0  0  0  0  0  0  0
   37.8720   29.7250   39.2600 H   0  0  0  0  0  0  0  0  0  0  0  0
   38.7930   29.6870   37.0450 H   0  0  0  0  0  0  0  0  0  0  0  0
   37.2900   29.3670   35.0660 H   0  0  0  0  0  0  0  0  0  0  0  0
   35.1280   29.0520   34.2110 H   0  0  0  0  0  0  0  0  0  0  0  0
   32.7240   28.7860   34.5250 H   0  0  0  0  0  0  0  0  0  0  0  0
   31.7740   28.8060   36.7690 H   0  0  0  0  0  0  0  0  0  0  0  0
   33.0880   29.0810   38.9570 O   0  0  0  0  0  0  0  0  0  0  0  0
   32.2660   29.6640   39.0750 H   0  0  0  0  0  0  0  0  0  0  0  0
  1  7  1  0  0  0  0
  1  2  1  0  0  0  0
  3  1  1  0  0  0  0
  4  5  1  0  0  0  0
  4 13  1  0  0  0  0
  5  9  1  0  0  0  0
  6  5  2  0  0  0  0
  7  8  1  0  0  0  0
  7  6  1  0  0  0  0
  8  4  2  0  0  0  0
 10  6  1  0  0  0  0
 11 17  1  0  0  0  0
 12 18  1  0  0  0  0
 12 11  2  0  0  0  0
 13 12  1  0  0  0  0
 14 13  2  0  0  0  0
 14 15  1  0  0  0  0
 15 16  2  0  0  0  0
 16 11  1  0  0  0  0
 19 15  1  0  0  0  0
 19 25  1  0  0  0  0
 20 19  2  0  0  0  0
 21 20  1  0  0  0  0
 21 23  2  0  0  0  0
 22 21  1  0  0  0  0
 23 24  1  0  0  0  0
 24 25  2  0  0  0  0
 26 28  1  0  0  0  0
 26  1  1  0  0  0  0
 27 26  1  0  0  0  0
 29 26  1  0  0  0  0
 30 29  1  0  0  0  0
 30 39  1  0  0  0  0
 31 30  2  0  0  0  0
 32 33  2  0  0  0  0
 32 31  1  0  0  0  0
 33 38  1  0  0  0  0
 34 35  2  0  0  0  0
 34 33  1  0  0  0  0
 35 36  1  0  0  0  0
 36 44  1  0  0  0  0
 36 37  2  0  0  0  0
 37 45  1  0  0  0  0
 38 37  1  0  0  0  0
 38 29  2  0  0  0  0
 40 31  1  0  0  0  0
 41 32  1  0  0  0  0
 42 34  1  0  0  0  0
 43 35  1  0  0  0  0
 45 46  1  0  0  0  0
M  END
>  <minimizedAffinity>
-5.98421717

>  <minimizedRMSD>
0.276320517

$$$$
