
 OpenBabel03242506393D

 40 43  0  0  1  0  0  0  0  0999 V2000
   37.5640   30.3120   40.6160 C   0  0  0  0  0  0  0  0  0  0  0  0
   37.6510   31.5070   41.0560 O   0  0  0  0  0  0  0  0  0  0  0  0
   38.6010   29.3410   40.7400 N   0  0  0  0  0  0  0  0  0  0  0  0
   40.0170   29.5460   40.4900 C   0  0  0  0  0  0  0  0  0  0  0  0
   40.3970   28.4070   39.5530 C   0  0  0  0  0  0  0  0  0  0  0  0
   40.3620   27.1790   40.2830 N   0  0  0  0  0  0  0  0  0  0  0  0
   39.2530   26.9950   41.1270 C   0  0  0  0  0  0  0  0  0  0  0  0
   38.1920   28.0410   41.1520 C   0  0  1  0  0  0  0  0  0  0  0  0
   40.6210   29.4950   41.4300 H   0  0  0  0  0  0  0  0  0  0  0  0
   40.1590   30.5310   39.9740 H   0  0  0  0  0  0  0  0  0  0  0  0
   39.6500   28.4050   38.7310 H   0  0  0  0  0  0  0  0  0  0  0  0
   41.4120   28.5730   39.1450 H   0  0  0  0  0  0  0  0  0  0  0  0
   40.5060   26.3950   39.6120 H   0  0  0  0  0  0  0  0  0  0  0  0
   38.8000   26.0040   40.9130 H   0  0  0  0  0  0  0  0  0  0  0  0
   39.6500   26.8940   42.1780 H   0  0  0  0  0  0  0  0  0  0  0  0
   37.3890   27.7050   40.4620 H   0  0  0  0  0  0  0  0  0  0  0  0
   35.5180   29.1720   37.8150 C   0  0  0  0  0  0  0  0  0  0  0  0
   34.3190   28.8700   38.3840 C   0  0  0  0  0  0  0  0  0  0  0  0
   34.1770   29.0470   39.7400 C   0  0  0  0  0  0  0  0  0  0  0  0
   35.1820   29.5080   40.5170 N   0  0  0  0  0  0  0  0  0  0  0  0
   36.3640   29.8000   39.9240 C   0  0  0  0  0  0  0  0  0  0  0  0
   36.5090   29.6280   38.5950 N   0  0  0  0  0  0  0  0  0  0  0  0
   33.4840   28.4940   37.7780 H   0  0  0  0  0  0  0  0  0  0  0  0
   33.2470   28.8250   40.2510 H   0  0  0  0  0  0  0  0  0  0  0  0
   35.5530   27.6920   34.4550 C   0  0  0  0  0  0  0  0  0  0  0  0
   36.1540   28.7380   33.6850 C   0  0  0  0  0  0  0  0  0  0  0  0
   36.5230   29.8990   34.3340 C   0  0  0  0  0  0  0  0  0  0  0  0
   36.3000   30.0020   35.6750 N   0  0  0  0  0  0  0  0  0  0  0  0
   35.7300   29.0070   36.3980 C   0  0  0  0  0  0  0  0  0  0  0  0
   35.3700   27.8810   35.7790 N   0  0  0  0  0  0  0  0  0  0  0  0
   35.2920   26.8260   33.9000 H   0  0  0  0  0  0  0  0  0  0  0  0
   36.3530   28.7120   32.6350 H   0  0  0  0  0  0  0  0  0  0  0  0
   36.9770   30.7630   33.9130 H   0  0  0  0  0  0  0  0  0  0  0  0
   37.5600   28.1170   42.5090 C   0  0  0  0  0  0  0  0  0  0  0  0
   36.6080   27.2370   42.9790 C   0  0  0  0  0  0  0  0  0  0  0  0
   36.2830   27.6530   44.2710 C   0  0  0  0  0  0  0  0  0  0  0  0
   35.6070   27.2760   44.9980 H   0  0  0  0  0  0  0  0  0  0  0  0
   37.0330   28.7440   44.5280 N   0  0  0  0  0  0  0  0  0  0  0  0
   37.7940   29.0230   43.4810 N   0  0  0  0  0  0  0  0  0  0  0  0
   37.1370   29.3990   45.3580 H   0  0  0  0  0  0  0  0  0  0  0  0
  1  3  1  0  0  0  0
  1  2  2  0  0  0  0
  3  8  1  0  0  0  0
  4  3  1  0  0  0  0
  4  9  1  0  0  0  0
  5  6  1  0  0  0  0
  5  4  1  0  0  0  0
  6  7  1  0  0  0  0
  7  8  1  0  0  0  0
  7 15  1  0  0  0  0
  8 16  1  6  0  0  0
  8 34  1  0  0  0  0
 10  4  1  0  0  0  0
 11  5  1  0  0  0  0
 12  5  1  0  0  0  0
 13  6  1  0  0  0  0
 14  7  1  0  0  0  0
 17 18  2  0  0  0  0
 17 22  1  0  0  0  0
 18 19  1  0  0  0  0
 19 24  1  0  0  0  0
 19 20  2  0  0  0  0
 21 20  1  0  0  0  0
 21  1  1  0  0  0  0
 22 21  2  0  0  0  0
 23 18  1  0  0  0  0
 25 30  1  0  0  0  0
 26 27  1  0  0  0  0
 26 25  2  0  0  0  0
 27 28  2  0  0  0  0
 28 29  1  0  0  0  0
 29 17  1  0  0  0  0
 30 29  2  0  0  0  0
 31 25  1  0  0  0  0
 32 26  1  0  0  0  0
 33 27  1  0  0  0  0
 34 35  1  0  0  0  0
 34 39  2  0  0  0  0
 35 36  2  0  0  0  0
 36 38  1  0  0  0  0
 36 37  1  0  0  0  0
 38 40  1  0  0  0  0
 39 38  1  0  0  0  0
M  END
>  <minimizedAffinity>
-5.40235662

>  <minimizedRMSD>
6.43479347

$$$$
