REMARK  Name = 
REMARK  2 active torsions:
REMARK  status: ('A' for Active; 'I' for Inactive)
REMARK    1  A    between atoms: C_3  and  C_7
REMARK    2  A    between atoms: C_5  and  C_13
REMARK                            x       y       z     vdW  Elec       q    Type
REMARK                         _______ _______ _______ _____ _____    ______ ____
ROOT
ATOM      1  C   UNL     1      37.968  28.884  43.369  0.00  0.00    +0.000 A 
ATOM      2  C   UNL     1      38.079  27.472  43.307  0.00  0.00    +0.000 A 
ATOM      3  C   UNL     1      37.436  26.824  42.255  0.00  0.00    +0.000 A 
ATOM      4  N   UNL     1      36.740  27.582  41.351  0.00  0.00    +0.000 NA
ATOM      5  C   UNL     1      36.661  28.913  41.449  0.00  0.00    +0.000 A 
ATOM      6  N   UNL     1      37.272  29.549  42.451  0.00  0.00    +0.000 NA
ATOM      7  H   UNL     1      38.459  29.408  44.177  0.00  0.00    +0.000 HD
ATOM      8  H   UNL     1      38.640  26.950  44.049  0.00  0.00    +0.000 HD
ENDROOT
BRANCH   5   9
ATOM      9  C   UNL     1      35.915  29.701  40.476  0.00  0.00    +0.000 A 
ATOM     10  C   UNL     1      35.210  29.295  39.385  0.00  0.00    +0.000 A 
ATOM     11  C   UNL     1      34.684  30.430  38.785  0.00  0.00    +0.000 A 
ATOM     12  H   UNL     1      34.076  30.463  37.903  0.00  0.00    +0.000 HD
ATOM     13  N   UNL     1      35.082  31.491  39.524  0.00  0.00    +0.000 N 
ATOM     14  N   UNL     1      35.810  31.058  40.523  0.00  0.00    +0.000 NA
ATOM     15  H   UNL     1      34.881  32.499  39.381  0.00  0.00    +0.000 HD
ENDBRANCH   5   9
BRANCH   3  16
ATOM     16  C   UNL     1      37.526  25.331  42.148  0.00  0.00    +0.000 C 
ATOM     17  F   UNL     1      37.648  25.050  40.811  0.00  0.00    +0.000 F 
ATOM     18  F   UNL     1      38.627  24.842  42.794  0.00  0.00    +0.000 F 
ATOM     19  F   UNL     1      36.389  24.708  42.639  0.00  0.00    +0.000 F 
ENDBRANCH   3  16
TORSDOF 2
