
 OpenBabel03242507513D

 38 42  0  0  1  0  0  0  0  0999 V2000
   39.8840   26.0910   43.8490 C   0  0  2  0  0  0  0  0  0  0  0  0
   41.0130   25.6840   42.8920 C   0  0  0  0  0  0  0  0  0  0  0  0
   39.8010   24.8330   43.0330 C   0  0  2  0  0  0  0  0  0  0  0  0
   40.1190   25.9820   44.9300 H   0  0  0  0  0  0  0  0  0  0  0  0
   41.0900   26.2980   41.9480 H   0  0  0  0  0  0  0  0  0  0  0  0
   41.9690   25.3930   43.3530 H   0  0  0  0  0  0  0  0  0  0  0  0
   39.8630   23.9000   43.6480 H   0  0  0  0  0  0  0  0  0  0  0  0
   38.7930   24.7340   41.9560 C   0  0  0  0  0  0  0  0  0  0  0  0
   37.5430   24.2050   42.2310 C   0  0  0  0  0  0  0  0  0  0  0  0
   36.7100   24.1480   41.1470 C   0  0  0  0  0  0  0  0  0  0  0  0
   36.9860   24.5430   39.8980 N   0  0  0  0  0  0  0  0  0  0  0  0
   38.2220   25.0540   39.6800 C   0  0  0  0  0  0  0  0  0  0  0  0
   39.0910   25.1400   40.6960 N   0  0  0  0  0  0  0  0  0  0  0  0
   37.3020   23.8850   43.2140 H   0  0  0  0  0  0  0  0  0  0  0  0
   35.7040   23.7350   41.3080 H   0  0  0  0  0  0  0  0  0  0  0  0
   38.5700   25.4970   38.3360 C   0  0  0  0  0  0  0  0  0  0  0  0
   39.2100   26.6570   37.9620 C   0  0  0  0  0  0  0  0  0  0  0  0
   39.2910   26.5780   36.5690 C   0  0  0  0  0  0  0  0  0  0  0  0
   39.7410   27.3310   35.9290 H   0  0  0  0  0  0  0  0  0  0  0  0
   38.7200   25.4220   36.1580 N   0  0  0  0  0  0  0  0  0  0  0  0
   38.2820   24.7640   37.2280 N   0  0  0  0  0  0  0  0  0  0  0  0
   38.6230   25.0720   35.1650 H   0  0  0  0  0  0  0  0  0  0  0  0
   38.4550   29.1260   42.5870 C   0  0  0  0  0  0  0  0  0  0  0  0
   37.4260   28.6830   43.4280 C   0  0  0  0  0  0  0  0  0  0  0  0
   37.8770   27.4950   43.9790 C   0  0  0  0  0  0  0  0  0  0  0  0
   39.1040   27.2580   43.4850 N   0  0  0  0  0  0  0  0  0  0  0  0
   39.4560   28.2330   42.6480 N   0  0  0  0  0  0  0  0  0  0  0  0
   36.4730   29.1570   43.6200 H   0  0  0  0  0  0  0  0  0  0  0  0
   37.2900   26.9000   44.6870 H   0  0  0  0  0  0  0  0  0  0  0  0
   37.0040   31.7560   40.4960 C   0  0  0  0  0  0  0  0  0  0  0  0
   38.0470   32.6990   40.3950 C   0  0  0  0  0  0  0  0  0  0  0  0
   39.2510   32.4110   41.0580 C   0  0  0  0  0  0  0  0  0  0  0  0
   39.3600   31.2490   41.7610 N   0  0  0  0  0  0  0  0  0  0  0  0
   38.3250   30.3670   41.8310 C   0  0  0  0  0  0  0  0  0  0  0  0
   37.1370   30.6260   41.1910 N   0  0  0  0  0  0  0  0  0  0  0  0
   36.0830   32.0020   39.9730 H   0  0  0  0  0  0  0  0  0  0  0  0
   37.9520   33.6160   39.8370 H   0  0  0  0  0  0  0  0  0  0  0  0
   40.1010   33.0870   41.0290 H   0  0  0  0  0  0  0  0  0  0  0  0
  1  4  1  1  0  0  0
  2  3  1  0  0  0  0
  2  6  1  0  0  0  0
  2  1  1  0  0  0  0
  3  7  1  1  0  0  0
  3  1  1  0  0  0  0
  5  2  1  0  0  0  0
  8  9  1  0  0  0  0
  8  3  1  0  0  0  0
  9 14  1  0  0  0  0
 10 15  1  0  0  0  0
 10  9  2  0  0  0  0
 11 10  1  0  0  0  0
 12 11  2  0  0  0  0
 12 13  1  0  0  0  0
 13  8  2  0  0  0  0
 16 12  1  0  0  0  0
 17 16  1  0  0  0  0
 18 17  2  0  0  0  0
 19 18  1  0  0  0  0
 20 18  1  0  0  0  0
 20 21  1  0  0  0  0
 21 16  2  0  0  0  0
 22 20  1  0  0  0  0
 23 27  2  0  0  0  0
 23 24  1  0  0  0  0
 24 28  1  0  0  0  0
 24 25  2  0  0  0  0
 25 29  1  0  0  0  0
 26  1  1  0  0  0  0
 26 25  1  0  0  0  0
 27 26  1  0  0  0  0
 30 35  1  0  0  0  0
 31 30  2  0  0  0  0
 31 32  1  0  0  0  0
 32 33  2  0  0  0  0
 33 34  1  0  0  0  0
 34 23  1  0  0  0  0
 35 34  2  0  0  0  0
 36 30  1  0  0  0  0
 37 31  1  0  0  0  0
 38 32  1  0  0  0  0
M  END
>  <minimizedAffinity>
-5.44066238

>  <minimizedRMSD>
0.211804017

$$$$
