
 OpenBabel03242505413D

 40 43  0  0  1  0  0  0  0  0999 V2000
   39.4410   27.8710   40.4200 N   0  0  0  0  0  0  0  0  0  0  0  0
   39.6240   28.4790   39.1240 C   0  0  0  0  0  0  0  0  0  0  0  0
   41.0170   28.8220   38.7340 C   0  0  0  0  0  0  0  0  0  0  0  0
   42.0030   28.0010   39.3980 N   0  0  0  0  0  0  0  0  0  0  0  0
   41.4290   26.7060   39.7220 C   0  0  0  0  0  0  0  0  0  0  0  0
   40.4660   26.9500   40.8420 C   0  0  2  0  0  0  0  0  0  0  0  0
   39.1710   27.8240   38.3280 H   0  0  0  0  0  0  0  0  0  0  0  0
   39.0130   29.4070   39.1210 H   0  0  0  0  0  0  0  0  0  0  0  0
   41.2420   29.8760   38.9880 H   0  0  0  0  0  0  0  0  0  0  0  0
   41.1530   28.6590   37.6440 H   0  0  0  0  0  0  0  0  0  0  0  0
   42.9080   27.9400   38.9260 H   0  0  0  0  0  0  0  0  0  0  0  0
   40.9150   26.2270   38.8870 H   0  0  0  0  0  0  0  0  0  0  0  0
   42.2600   26.0940   40.1450 H   0  0  0  0  0  0  0  0  0  0  0  0
   41.0740   27.5680   41.5790 H   0  0  0  0  0  0  0  0  0  0  0  0
   37.2410   27.3670   41.5510 C   0  0  0  0  0  0  0  0  0  0  0  0
   36.4460   27.5130   42.6620 C   0  0  0  0  0  0  0  0  0  0  0  0
   36.9250   28.2440   43.7380 C   0  0  0  0  0  0  0  0  0  0  0  0
   38.1820   28.8040   43.6630 C   0  0  0  0  0  0  0  0  0  0  0  0
   38.9860   28.6520   42.5280 C   0  0  0  0  0  0  0  0  0  0  0  0
   38.4980   27.9250   41.4700 C   0  0  0  0  0  0  0  0  0  0  0  0
   35.4680   27.0540   42.6700 H   0  0  0  0  0  0  0  0  0  0  0  0
   36.2830   28.3470   44.6030 H   0  0  0  0  0  0  0  0  0  0  0  0
   38.5060   29.3690   44.5390 H   0  0  0  0  0  0  0  0  0  0  0  0
   39.9450   29.1440   42.6120 H   0  0  0  0  0  0  0  0  0  0  0  0
   36.2310   24.5430   39.4470 C   0  0  0  0  0  0  0  0  0  0  0  0
   35.7490   25.1510   38.2780 C   0  0  0  0  0  0  0  0  0  0  0  0
   35.7780   26.5430   38.2330 C   0  0  0  0  0  0  0  0  0  0  0  0
   36.2630   27.1820   39.3050 N   0  0  0  0  0  0  0  0  0  0  0  0
   36.7270   26.6040   40.4250 C   0  0  0  0  0  0  0  0  0  0  0  0
   36.6780   25.2990   40.4200 N   0  0  0  0  0  0  0  0  0  0  0  0
   36.2200   23.4590   39.5090 H   0  0  0  0  0  0  0  0  0  0  0  0
   35.3790   24.5480   37.4750 H   0  0  0  0  0  0  0  0  0  0  0  0
   35.4170   27.0650   37.3550 H   0  0  0  0  0  0  0  0  0  0  0  0
   40.0760   25.7710   41.5770 C   0  0  0  0  0  0  0  0  0  0  0  0
   40.1940   25.5930   42.9440 C   0  0  0  0  0  0  0  0  0  0  0  0
   39.7060   24.3320   43.2440 C   0  0  0  0  0  0  0  0  0  0  0  0
   39.6900   23.9550   44.2600 H   0  0  0  0  0  0  0  0  0  0  0  0
   39.3050   23.7770   42.0650 N   0  0  0  0  0  0  0  0  0  0  0  0
   39.5320   24.6470   41.0810 N   0  0  0  0  0  0  0  0  0  0  0  0
   38.9050   22.8100   42.1140 H   0  0  0  0  0  0  0  0  0  0  0  0
  1  6  1  0  0  0  0
  1 20  1  0  0  0  0
  2  1  1  0  0  0  0
  3  9  1  0  0  0  0
  3  2  1  0  0  0  0
  3  4  1  0  0  0  0
  4  5  1  0  0  0  0
  5 13  1  0  0  0  0
  5  6  1  0  0  0  0
  6 34  1  0  0  0  0
  6 14  1  1  0  0  0
  7  2  1  0  0  0  0
  8  2  1  0  0  0  0
 10  3  1  0  0  0  0
 11  4  1  0  0  0  0
 12  5  1  0  0  0  0
 15 16  1  0  0  0  0
 16 21  1  0  0  0  0
 16 17  2  0  0  0  0
 17 22  1  0  0  0  0
 18 17  1  0  0  0  0
 18 23  1  0  0  0  0
 19 24  1  0  0  0  0
 19 18  2  0  0  0  0
 20 15  2  0  0  0  0
 20 19  1  0  0  0  0
 25 31  1  0  0  0  0
 25 30  1  0  0  0  0
 26 25  2  0  0  0  0
 27 26  1  0  0  0  0
 27 28  2  0  0  0  0
 28 29  1  0  0  0  0
 29 15  1  0  0  0  0
 30 29  2  0  0  0  0
 32 26  1  0  0  0  0
 33 27  1  0  0  0  0
 34 35  1  0  0  0  0
 35 36  2  0  0  0  0
 36 37  1  0  0  0  0
 38 40  1  0  0  0  0
 38 36  1  0  0  0  0
 39 34  2  0  0  0  0
 39 38  1  0  0  0  0
M  END
>  <minimizedAffinity>
-4.78280497

>  <minimizedRMSD>
5.14779615

$$$$
