
 OpenBabel03242508043D

 28 30  0  0  0  0  0  0  0  0999 V2000
   38.2130   28.1360   42.3160 C   0  0  0  0  0  0  0  0  0  0  0  0
   37.4290   27.3600   41.4550 C   0  0  0  0  0  0  0  0  0  0  0  0
   36.3990   28.0370   40.7560 C   0  0  0  0  0  0  0  0  0  0  0  0
   36.2370   29.3750   40.9600 N   0  0  0  0  0  0  0  0  0  0  0  0
   37.0340   30.0770   41.8110 C   0  0  0  0  0  0  0  0  0  0  0  0
   38.0290   29.4360   42.4900 N   0  0  0  0  0  0  0  0  0  0  0  0
   35.7640   27.4850   40.0790 H   0  0  0  0  0  0  0  0  0  0  0  0
   36.7500   31.1190   41.8370 H   0  0  0  0  0  0  0  0  0  0  0  0
   37.6060   25.9990   41.2270 N   0  0  0  0  0  0  0  0  0  0  0  0
   36.9860   24.8900   41.9240 C   0  0  0  0  0  0  0  0  0  0  0  0
   38.0400   23.8030   41.8670 C   0  0  0  0  0  0  0  0  0  0  0  0
   39.1090   24.3010   40.9330 C   0  0  0  0  0  0  0  0  0  0  0  0
   38.4610   25.4210   40.2020 C   0  0  0  0  0  0  0  0  0  0  0  0
   36.7030   25.1670   42.9520 H   0  0  0  0  0  0  0  0  0  0  0  0
   36.1000   24.5140   41.3820 H   0  0  0  0  0  0  0  0  0  0  0  0
   37.6290   22.8260   41.5940 H   0  0  0  0  0  0  0  0  0  0  0  0
   38.4980   23.6830   42.8900 H   0  0  0  0  0  0  0  0  0  0  0  0
   40.0810   24.4870   41.3810 H   0  0  0  0  0  0  0  0  0  0  0  0
   39.2990   23.4200   40.2280 H   0  0  0  0  0  0  0  0  0  0  0  0
   37.7960   25.0440   39.4020 H   0  0  0  0  0  0  0  0  0  0  0  0
   39.1810   26.1880   39.8290 H   0  0  0  0  0  0  0  0  0  0  0  0
   39.3000   27.5820   43.1070 C   0  0  0  0  0  0  0  0  0  0  0  0
   40.6090   28.0630   42.9630 C   0  0  0  0  0  0  0  0  0  0  0  0
   41.5030   27.4190   43.8190 C   0  0  0  0  0  0  0  0  0  0  0  0
   42.5620   27.6250   43.8810 H   0  0  0  0  0  0  0  0  0  0  0  0
   40.7050   26.5540   44.4670 N   0  0  0  0  0  0  0  0  0  0  0  0
   39.4760   26.6560   44.0600 N   0  0  0  0  0  0  0  0  0  0  0  0
   41.0420   25.8910   45.2020 H   0  0  0  0  0  0  0  0  0  0  0  0
  1  6  1  0  0  0  0
  1 22  1  0  0  0  0
  2  1  2  0  0  0  0
  3  4  2  0  0  0  0
  3  2  1  0  0  0  0
  4  5  1  0  0  0  0
  5  8  1  0  0  0  0
  5  6  2  0  0  0  0
  7  3  1  0  0  0  0
  9  2  1  0  0  0  0
  9 10  1  0  0  0  0
 10 14  1  0  0  0  0
 11 10  1  0  0  0  0
 11 17  1  0  0  0  0
 12 18  1  0  0  0  0
 12 11  1  0  0  0  0
 13 12  1  0  0  0  0
 13  9  1  0  0  0  0
 15 10  1  0  0  0  0
 16 11  1  0  0  0  0
 19 12  1  0  0  0  0
 20 13  1  0  0  0  0
 21 13  1  0  0  0  0
 22 27  2  0  0  0  0
 23 22  1  0  0  0  0
 23 24  2  0  0  0  0
 24 25  1  0  0  0  0
 24 26  1  0  0  0  0
 26 28  1  0  0  0  0
 27 26  1  0  0  0  0
M  END
>  <minimizedAffinity>
-4.40838194

>  <minimizedRMSD>
3.18394375

$$$$
