
 OpenBabel03242506363D

 24 26  0  0  0  0  0  0  0  0999 V2000
   37.2000   30.2580   40.3680 C   0  0  0  0  0  0  0  0  0  0  0  0
   37.1470   31.6250   40.5110 C   0  0  0  0  0  0  0  0  0  0  0  0
   37.1410   32.3550   39.3320 C   0  0  0  0  0  0  0  0  0  0  0  0
   37.1830   31.7860   38.1140 N   0  0  0  0  0  0  0  0  0  0  0  0
   37.2340   30.4290   38.0100 C   0  0  0  0  0  0  0  0  0  0  0  0
   37.2420   29.6700   39.1460 N   0  0  0  0  0  0  0  0  0  0  0  0
   37.1120   32.1120   41.4770 H   0  0  0  0  0  0  0  0  0  0  0  0
   37.1000   33.4460   39.3490 H   0  0  0  0  0  0  0  0  0  0  0  0
   38.0800   28.8840   43.6560 C   0  0  0  0  0  0  0  0  0  0  0  0
   37.2000   27.7590   43.7520 C   0  0  0  0  0  0  0  0  0  0  0  0
   36.3400   27.5080   42.6970 C   0  0  0  0  0  0  0  0  0  0  0  0
   36.3860   28.3520   41.6320 N   0  0  0  0  0  0  0  0  0  0  0  0
   37.2100   29.3950   41.5520 C   0  0  0  0  0  0  0  0  0  0  0  0
   38.0480   29.6570   42.5570 N   0  0  0  0  0  0  0  0  0  0  0  0
   38.7290   29.0360   44.5010 H   0  0  0  0  0  0  0  0  0  0  0  0
   37.1500   27.0840   44.5850 H   0  0  0  0  0  0  0  0  0  0  0  0
   35.6330   26.7130   42.6280 H   0  0  0  0  0  0  0  0  0  0  0  0
   37.2840   29.6460   36.7790 C   0  0  0  0  0  0  0  0  0  0  0  0
   36.4120   29.9740   35.7340 C   0  0  0  0  0  0  0  0  0  0  0  0
   36.6440   29.0990   34.6810 C   0  0  0  0  0  0  0  0  0  0  0  0
   36.1230   29.1040   33.7320 H   0  0  0  0  0  0  0  0  0  0  0  0
   37.6250   28.2870   35.1110 N   0  0  0  0  0  0  0  0  0  0  0  0
   38.0120   28.5980   36.3440 N   0  0  0  0  0  0  0  0  0  0  0  0
   38.0330   27.5010   34.5300 H   0  0  0  0  0  0  0  0  0  0  0  0
  1  2  1  0  0  0  0
  1 13  1  0  0  0  0
  2  7  1  0  0  0  0
  3  8  1  0  0  0  0
  3  2  2  0  0  0  0
  4  3  1  0  0  0  0
  5  4  2  0  0  0  0
  5  6  1  0  0  0  0
  6  1  2  0  0  0  0
  9 10  1  0  0  0  0
  9 15  1  0  0  0  0
 10 16  1  0  0  0  0
 11 10  2  0  0  0  0
 12 11  1  0  0  0  0
 13 12  2  0  0  0  0
 13 14  1  0  0  0  0
 14  9  2  0  0  0  0
 17 11  1  0  0  0  0
 18  5  1  0  0  0  0
 19 18  1  0  0  0  0
 20 22  1  0  0  0  0
 20 19  2  0  0  0  0
 21 20  1  0  0  0  0
 22 23  1  0  0  0  0
 23 18  2  0  0  0  0
 24 22  1  0  0  0  0
M  END
>  <minimizedAffinity>
-4.76127529

>  <minimizedRMSD>
0.632576466

$$$$
