
     RDKit          3D

 20 21  0  0  0  0  0  0  0  0999 V2000
   37.9681   28.8838   43.3694 C   0  0  0  0  0  0  0  0  0  0  0  0
   38.0794   27.4724   43.3071 C   0  0  0  0  0  0  0  0  0  0  0  0
   37.4358   26.8236   42.2548 C   0  0  0  0  0  0  0  0  0  0  0  0
   36.7399   27.5819   41.3511 N   0  0  0  0  0  0  0  0  0  0  0  0
   36.6613   28.9129   41.4487 C   0  0  0  0  0  0  0  0  0  0  0  0
   37.2722   29.5492   42.4509 N   0  0  0  0  0  0  0  0  0  0  0  0
   37.5257   25.3311   42.1478 C   0  0  0  0  0  0  0  0  0  0  0  0
   37.6480   25.0500   40.8106 F   0  0  0  0  0  0  0  0  0  0  0  0
   38.6267   24.8419   42.7940 F   0  0  0  0  0  0  0  0  0  0  0  0
   36.3889   24.7082   42.6387 F   0  0  0  0  0  0  0  0  0  0  0  0
   38.4589   29.4083   44.1766 H   0  0  0  0  0  0  0  0  0  0  0  0
   38.6396   26.9495   44.0486 H   0  0  0  0  0  0  0  0  0  0  0  0
   35.9150   29.7013   40.4756 C   0  0  0  0  0  0  0  0  0  0  0  0
   34.6772   29.4895   39.9516 C   0  0  0  0  0  0  0  0  0  0  0  0
   34.4191   30.5265   39.0668 C   0  0  0  0  0  0  0  0  0  0  0  0
   33.5299   30.6625   38.4837 H   0  0  0  0  0  0  0  0  0  0  0  0
   35.5021   31.3369   39.0766 N   0  0  0  0  0  0  0  0  0  0  0  0
   36.3862   30.8472   39.9107 N   0  0  0  0  0  0  0  0  0  0  0  0
   34.0108   28.6575   40.1849 H   0  0  0  0  0  0  0  0  0  0  0  0
   35.6703   32.2107   38.5416 H   0  0  0  0  0  0  0  0  0  0  0  0
  2  1  2  0
  3  2  1  0
  4  5  1  0
  4  3  2  0
  5  6  2  0
  6  1  1  0
  7  3  1  0
  7 10  1  0
  7  9  1  0
  8  7  1  0
  1 11  1  0
  2 12  1  0
 13 14  1  0
 14 15  2  0
 15 16  1  0
 15 17  1  0
 17 18  1  0
 18 13  2  0
 14 19  1  0
 17 20  1  0
  5 13  1  0
M  ISO  3  11  14  12  14  16  14
M  END
>  <DihAtoms>  (1) 
3,4,12,13

>  <DihDeg>  (1) 
165.42514647303707

$$$$
