
 OpenBabel03242509043D

 36 39  0  0  1  0  0  0  0  0999 V2000
   37.6860   29.9160   39.2830 N   0  0  1  0  0  0  0  0  0  0  0  0
   37.4950   29.4810   37.8750 C   0  0  0  0  0  0  0  0  0  0  0  0
   38.7300   28.8280   37.3290 C   0  0  0  0  0  0  0  0  0  0  0  0
   39.8710   29.5260   37.6790 O   0  0  0  0  0  0  0  0  0  0  0  0
   39.5120   30.8340   37.9500 C   0  0  0  0  0  0  0  0  0  0  0  0
   38.6700   30.9360   39.2380 C   0  0  1  0  0  0  0  0  0  0  0  0
   36.6550   28.7340   37.8240 H   0  0  0  0  0  0  0  0  0  0  0  0
   37.1770   30.3330   37.2410 H   0  0  0  0  0  0  0  0  0  0  0  0
   38.5940   28.7030   36.2570 H   0  0  0  0  0  0  0  0  0  0  0  0
   38.8080   27.8350   37.8600 H   0  0  0  0  0  0  0  0  0  0  0  0
   38.9990   31.3200   37.0970 H   0  0  0  0  0  0  0  0  0  0  0  0
   40.4540   31.3820   38.1570 H   0  0  0  0  0  0  0  0  0  0  0  0
   39.4140   30.6940   40.0460 H   0  0  0  0  0  0  0  0  0  0  0  0
   35.8190   29.3050   40.9640 C   0  0  1  0  0  0  0  0  0  0  0  0
   36.2190   30.7030   41.2360 C   0  0  0  0  0  0  0  0  0  0  0  0
   36.4520   30.2020   39.8790 C   0  0  1  0  0  0  0  0  0  0  0  0
   34.7970   28.9710   40.7920 H   0  0  0  0  0  0  0  0  0  0  0  0
   35.3530   31.3930   41.4590 H   0  0  0  0  0  0  0  0  0  0  0  0
   37.0100   30.8570   42.0000 H   0  0  0  0  0  0  0  0  0  0  0  0
   35.6540   30.5540   39.1530 H   0  0  0  0  0  0  0  0  0  0  0  0
   38.1430   27.5670   43.2250 C   0  0  0  0  0  0  0  0  0  0  0  0
   38.2320   26.2810   42.6410 C   0  0  0  0  0  0  0  0  0  0  0  0
   37.4850   26.0380   41.4510 C   0  0  0  0  0  0  0  0  0  0  0  0
   36.7150   27.0660   40.9290 N   0  0  0  0  0  0  0  0  0  0  0  0
   36.6860   28.2510   41.5430 C   0  0  0  0  0  0  0  0  0  0  0  0
   37.3790   28.5220   42.6710 N   0  0  0  0  0  0  0  0  0  0  0  0
   38.6910   27.7950   44.1270 H   0  0  0  0  0  0  0  0  0  0  0  0
   38.8380   25.5090   43.0760 H   0  0  0  0  0  0  0  0  0  0  0  0
   37.5250   25.0760   40.9750 H   0  0  0  0  0  0  0  0  0  0  0  0
   38.2170   32.3150   39.3860 C   0  0  0  0  0  0  0  0  0  0  0  0
   38.8020   33.2190   40.2290 C   0  0  0  0  0  0  0  0  0  0  0  0
   38.0990   34.4020   40.0980 C   0  0  0  0  0  0  0  0  0  0  0  0
   38.1190   35.4110   40.5070 H   0  0  0  0  0  0  0  0  0  0  0  0
   37.1270   34.1790   39.1930 N   0  0  0  0  0  0  0  0  0  0  0  0
   37.1770   32.9330   38.7500 N   0  0  0  0  0  0  0  0  0  0  0  0
   36.3560   34.7580   38.7700 H   0  0  0  0  0  0  0  0  0  0  0  0
  1  2  1  6  0  0  0
  1 16  1  0  0  0  0
  3  4  1  0  0  0  0
  3 10  1  0  0  0  0
  3  2  1  0  0  0  0
  4  5  1  0  0  0  0
  5 12  1  0  0  0  0
  5  6  1  0  0  0  0
  6  1  1  0  0  0  0
  6 30  1  0  0  0  0
  6 13  1  1  0  0  0
  7  2  1  0  0  0  0
  8  2  1  0  0  0  0
  9  3  1  0  0  0  0
 11  5  1  0  0  0  0
 14 17  1  6  0  0  0
 14 15  1  0  0  0  0
 14 25  1  0  0  0  0
 15 18  1  0  0  0  0
 15 19  1  0  0  0  0
 16 20  1  6  0  0  0
 16 14  1  0  0  0  0
 16 15  1  0  0  0  0
 21 27  1  0  0  0  0
 22 28  1  0  0  0  0
 22 21  2  0  0  0  0
 23 22  1  0  0  0  0
 24 23  2  0  0  0  0
 24 25  1  0  0  0  0
 25 26  2  0  0  0  0
 26 21  1  0  0  0  0
 29 23  1  0  0  0  0
 30 31  1  0  0  0  0
 32 31  2  0  0  0  0
 32 33  1  0  0  0  0
 34 32  1  0  0  0  0
 35 34  1  0  0  0  0
 35 30  2  0  0  0  0
 36 34  1  0  0  0  0
M  END
>  <minimizedAffinity>
-5.09158516

>  <minimizedRMSD>
1.4547379

$$$$
