
 OpenBabel03242508413D

 29 31  0  0  1  0  0  0  0  0999 V2000
   38.7550   27.3390   43.2300 C   0  0  2  0  0  0  0  0  0  0  0  0
   40.1670   27.6740   43.4470 C   0  0  0  0  0  0  0  0  0  0  0  0
   40.7490   26.3570   43.9510 C   0  0  0  0  0  0  0  0  0  0  0  0
   39.7790   25.2860   43.5520 C   0  0  0  0  0  0  0  0  0  0  0  0
   38.8070   25.9530   42.6090 C   0  0  2  0  0  0  0  0  0  0  0  0
   38.2430   27.1770   44.2210 H   0  0  0  0  0  0  0  0  0  0  0  0
   40.6850   28.0990   42.5940 H   0  0  0  0  0  0  0  0  0  0  0  0
   40.2310   28.4070   44.3080 H   0  0  0  0  0  0  0  0  0  0  0  0
   40.8580   26.3950   45.0590 H   0  0  0  0  0  0  0  0  0  0  0  0
   41.7400   26.1310   43.4830 H   0  0  0  0  0  0  0  0  0  0  0  0
   40.2580   24.4560   42.9920 H   0  0  0  0  0  0  0  0  0  0  0  0
   39.1760   24.9130   44.4080 H   0  0  0  0  0  0  0  0  0  0  0  0
   37.8000   25.4640   42.7080 H   0  0  0  0  0  0  0  0  0  0  0  0
   38.3570   29.5250   42.0810 C   0  0  0  0  0  0  0  0  0  0  0  0
   37.9220   28.2330   42.4680 C   0  0  0  0  0  0  0  0  0  0  0  0
   36.6330   27.8320   42.1150 C   0  0  0  0  0  0  0  0  0  0  0  0
   35.8690   28.7170   41.4140 N   0  0  0  0  0  0  0  0  0  0  0  0
   36.3100   29.9580   41.0530 C   0  0  0  0  0  0  0  0  0  0  0  0
   37.5760   30.3540   41.3990 N   0  0  0  0  0  0  0  0  0  0  0  0
   39.3590   29.8500   42.3490 H   0  0  0  0  0  0  0  0  0  0  0  0
   36.2350   26.8800   42.3660 H   0  0  0  0  0  0  0  0  0  0  0  0
   35.6780   30.6280   40.5010 H   0  0  0  0  0  0  0  0  0  0  0  0
   39.3350   25.8960   41.2530 C   0  0  0  0  0  0  0  0  0  0  0  0
   39.2910   26.6610   40.1020 C   0  0  0  0  0  0  0  0  0  0  0  0
   40.0000   26.0850   39.0730 C   0  0  0  0  0  0  0  0  0  0  0  0
   40.1270   26.4680   38.0820 H   0  0  0  0  0  0  0  0  0  0  0  0
   40.4690   24.9580   39.6380 N   0  0  0  0  0  0  0  0  0  0  0  0
   40.1050   24.8280   40.8750 N   0  0  0  0  0  0  0  0  0  0  0  0
   41.0740   24.2460   39.1330 H   0  0  0  0  0  0  0  0  0  0  0  0
  1  2  1  0  0  0  0
  1  6  1  1  0  0  0
  2  3  1  0  0  0  0
  2  8  1  0  0  0  0
  3  9  1  0  0  0  0
  4  3  1  0  0  0  0
  4 12  1  0  0  0  0
  5 13  1  1  0  0  0
  5  1  1  0  0  0  0
  5  4  1  0  0  0  0
  7  2  1  0  0  0  0
 10  3  1  0  0  0  0
 11  4  1  0  0  0  0
 14 20  1  0  0  0  0
 14 15  1  0  0  0  0
 15  1  1  0  0  0  0
 16 21  1  0  0  0  0
 16 15  2  0  0  0  0
 17 16  1  0  0  0  0
 18 19  1  0  0  0  0
 18 17  2  0  0  0  0
 19 14  2  0  0  0  0
 22 18  1  0  0  0  0
 23  5  1  0  0  0  0
 24 23  1  0  0  0  0
 25 27  1  0  0  0  0
 25 24  2  0  0  0  0
 26 25  1  0  0  0  0
 27 28  1  0  0  0  0
 28 23  2  0  0  0  0
 29 27  1  0  0  0  0
M  END
>  <minimizedAffinity>
-4.1714797

>  <minimizedRMSD>
0.440053135

$$$$
