
 OpenBabel03242509283D

 46 50  0  0  0  0  0  0  0  0999 V2000
   36.1510   30.0850   41.0970 C   0  0  0  0  0  0  0  0  0  0  0  0
   35.6000   30.6510   41.8710 H   0  0  0  0  0  0  0  0  0  0  0  0
   36.7760   30.8470   40.5800 H   0  0  0  0  0  0  0  0  0  0  0  0
   38.6030   28.1330   42.6910 C   0  0  0  0  0  0  0  0  0  0  0  0
   37.5150   27.3130   42.7900 C   0  0  0  0  0  0  0  0  0  0  0  0
   36.4490   27.9760   42.1840 C   0  0  0  0  0  0  0  0  0  0  0  0
   36.9770   29.1410   41.7690 N   0  0  0  0  0  0  0  0  0  0  0  0
   38.2390   29.2730   42.0460 N   0  0  0  0  0  0  0  0  0  0  0  0
   37.5380   26.3330   43.2660 H   0  0  0  0  0  0  0  0  0  0  0  0
   35.4850   27.5310   42.1380 H   0  0  0  0  0  0  0  0  0  0  0  0
   41.5370   26.4280   44.2280 C   0  0  0  0  0  0  0  0  0  0  0  0
   40.2320   26.6370   43.7660 C   0  0  0  0  0  0  0  0  0  0  0  0
   39.9400   27.8750   43.1780 C   0  0  0  0  0  0  0  0  0  0  0  0
   40.9090   28.8150   43.0750 N   0  0  0  0  0  0  0  0  0  0  0  0
   42.1680   28.5530   43.5440 C   0  0  0  0  0  0  0  0  0  0  0  0
   42.4690   27.3780   44.1090 N   0  0  0  0  0  0  0  0  0  0  0  0
   41.7250   25.4530   44.6780 H   0  0  0  0  0  0  0  0  0  0  0  0
   39.4960   25.8640   43.8690 H   0  0  0  0  0  0  0  0  0  0  0  0
   43.1800   29.5930   43.4120 C   0  0  0  0  0  0  0  0  0  0  0  0
   42.7620   30.9120   43.4810 C   0  0  0  0  0  3  0  0  0  0  0  0
   43.8990   31.6950   43.3300 C   0  0  0  0  0  0  0  0  0  0  0  0
   43.9370   32.7910   43.3340 H   0  0  0  0  0  0  0  0  0  0  0  0
   44.9490   30.8610   43.1770 N   0  0  0  0  0  0  0  0  0  0  0  0
   44.5300   29.6050   43.2250 N   0  0  0  0  0  0  0  0  0  0  0  0
   45.9310   31.1820   43.0440 H   0  0  0  0  0  0  0  0  0  0  0  0
   35.2540   29.5110   40.0400 C   0  0  0  0  0  0  0  0  0  0  0  0
   34.7790   28.6160   40.4110 H   0  0  0  0  0  0  0  0  0  0  0  0
   34.5540   30.4020   39.9070 H   0  0  0  0  0  0  0  0  0  0  0  0
   35.8740   29.4040   38.6910 C   0  0  0  0  0  0  0  0  0  0  0  0
   37.1940   29.5290   38.3700 C   0  0  0  0  0  0  0  0  0  0  0  0
   37.7150   29.5170   37.1160 C   0  0  0  0  0  0  0  0  0  0  0  0
   36.8700   29.3670   36.0400 C   0  0  0  0  0  0  0  0  0  0  0  0
   35.5160   29.2340   36.2960 C   0  0  0  0  0  0  0  0  0  0  0  0
   34.7260   29.0950   35.1790 C   0  0  0  0  0  0  0  0  0  0  0  0
   33.3740   28.9560   35.3250 C   0  0  0  0  0  0  0  0  0  0  0  0
   32.8260   28.9530   36.6040 C   0  0  0  0  0  0  0  0  0  0  0  0
   33.6750   29.0960   37.6660 C   0  0  0  0  0  0  0  0  0  0  0  0
   35.0200   29.2480   37.6000 C   0  0  0  0  0  0  0  0  0  0  0  0
   37.8730   29.6500   39.2230 H   0  0  0  0  0  0  0  0  0  0  0  0
   38.7850   29.6240   37.0030 H   0  0  0  0  0  0  0  0  0  0  0  0
   37.2940   29.3620   35.0550 H   0  0  0  0  0  0  0  0  0  0  0  0
   35.1310   29.0920   34.1760 H   0  0  0  0  0  0  0  0  0  0  0  0
   32.7050   28.8460   34.4810 H   0  0  0  0  0  0  0  0  0  0  0  0
   31.7590   28.8400   36.7130 H   0  0  0  0  0  0  0  0  0  0  0  0
   33.0660   29.0650   38.9110 O   0  0  0  0  0  0  0  0  0  0  0  0
   32.5920   28.1980   39.2030 H   0  0  0  0  0  0  0  0  0  0  0  0
  1  7  1  0  0  0  0
  1  2  1  0  0  0  0
  3  1  1  0  0  0  0
  4  5  1  0  0  0  0
  4 13  1  0  0  0  0
  5  9  1  0  0  0  0
  6  5  2  0  0  0  0
  7  8  1  0  0  0  0
  7  6  1  0  0  0  0
  8  4  2  0  0  0  0
 10  6  1  0  0  0  0
 11 17  1  0  0  0  0
 12 18  1  0  0  0  0
 12 11  2  0  0  0  0
 13 12  1  0  0  0  0
 14 13  2  0  0  0  0
 14 15  1  0  0  0  0
 15 16  2  0  0  0  0
 16 11  1  0  0  0  0
 19 20  1  0  0  0  0
 19 15  1  0  0  0  0
 21 22  1  0  0  0  0
 21 20  2  0  0  0  0
 23 24  1  0  0  0  0
 23 21  1  0  0  0  0
 24 19  2  0  0  0  0
 25 23  1  0  0  0  0
 26 27  1  0  0  0  0
 26  1  1  0  0  0  0
 28 26  1  0  0  0  0
 29 26  1  0  0  0  0
 30 29  1  0  0  0  0
 30 39  1  0  0  0  0
 31 30  2  0  0  0  0
 32 33  2  0  0  0  0
 32 31  1  0  0  0  0
 33 38  1  0  0  0  0
 34 35  2  0  0  0  0
 34 33  1  0  0  0  0
 35 36  1  0  0  0  0
 36 44  1  0  0  0  0
 36 37  2  0  0  0  0
 37 45  1  0  0  0  0
 38 37  1  0  0  0  0
 38 29  2  0  0  0  0
 40 31  1  0  0  0  0
 41 32  1  0  0  0  0
 42 34  1  0  0  0  0
 43 35  1  0  0  0  0
 45 46  1  0  0  0  0
M  END
>  <minimizedAffinity>
-5.98633051

>  <minimizedRMSD>
0.406309068

$$$$
