
 OpenBabel03242509283D

 46 50  0  0  0  0  0  0  0  0999 V2000
   36.1500   30.0850   41.0950 C   0  0  0  0  0  0  0  0  0  0  0  0
   35.5990   30.6510   41.8690 H   0  0  0  0  0  0  0  0  0  0  0  0
   36.7760   30.8460   40.5770 H   0  0  0  0  0  0  0  0  0  0  0  0
   38.6010   28.1330   42.6900 C   0  0  0  0  0  0  0  0  0  0  0  0
   37.5130   27.3140   42.7900 C   0  0  0  0  0  0  0  0  0  0  0  0
   36.4480   27.9770   42.1830 C   0  0  0  0  0  0  0  0  0  0  0  0
   36.9760   29.1410   41.7670 N   0  0  0  0  0  0  0  0  0  0  0  0
   38.2380   29.2720   42.0450 N   0  0  0  0  0  0  0  0  0  0  0  0
   37.5360   26.3340   43.2660 H   0  0  0  0  0  0  0  0  0  0  0  0
   35.4840   27.5310   42.1380 H   0  0  0  0  0  0  0  0  0  0  0  0
   41.5350   26.4270   44.2280 C   0  0  0  0  0  0  0  0  0  0  0  0
   40.2300   26.6370   43.7660 C   0  0  0  0  0  0  0  0  0  0  0  0
   39.9380   27.8750   43.1770 C   0  0  0  0  0  0  0  0  0  0  0  0
   40.9070   28.8140   43.0740 N   0  0  0  0  0  0  0  0  0  0  0  0
   42.1660   28.5530   43.5440 C   0  0  0  0  0  0  0  0  0  0  0  0
   42.4680   27.3780   44.1090 N   0  0  0  0  0  0  0  0  0  0  0  0
   41.7230   25.4530   44.6780 H   0  0  0  0  0  0  0  0  0  0  0  0
   39.4940   25.8640   43.8680 H   0  0  0  0  0  0  0  0  0  0  0  0
   43.1790   29.5920   43.4120 C   0  0  0  0  0  0  0  0  0  0  0  0
   42.7600   30.9110   43.4800 C   0  0  0  0  0  3  0  0  0  0  0  0
   43.8980   31.6960   43.3290 C   0  0  0  0  0  0  0  0  0  0  0  0
   43.9350   32.7910   43.3320 H   0  0  0  0  0  0  0  0  0  0  0  0
   44.9480   30.8600   43.1770 N   0  0  0  0  0  0  0  0  0  0  0  0
   44.5280   29.6050   43.2250 N   0  0  0  0  0  0  0  0  0  0  0  0
   45.9300   31.1830   43.0450 H   0  0  0  0  0  0  0  0  0  0  0  0
   35.2530   29.5100   40.0380 C   0  0  0  0  0  0  0  0  0  0  0  0
   34.7790   28.6160   40.4090 H   0  0  0  0  0  0  0  0  0  0  0  0
   34.5530   30.4010   39.9050 H   0  0  0  0  0  0  0  0  0  0  0  0
   35.8730   29.4030   38.6880 C   0  0  0  0  0  0  0  0  0  0  0  0
   37.1930   29.5290   38.3670 C   0  0  0  0  0  0  0  0  0  0  0  0
   37.7130   29.5160   37.1140 C   0  0  0  0  0  0  0  0  0  0  0  0
   36.8690   29.3670   36.0380 C   0  0  0  0  0  0  0  0  0  0  0  0
   35.5150   29.2340   36.2940 C   0  0  0  0  0  0  0  0  0  0  0  0
   34.7250   29.0950   35.1770 C   0  0  0  0  0  0  0  0  0  0  0  0
   33.3730   28.9560   35.3230 C   0  0  0  0  0  0  0  0  0  0  0  0
   32.8240   28.9530   36.6020 C   0  0  0  0  0  0  0  0  0  0  0  0
   33.6740   29.0960   37.6640 C   0  0  0  0  0  0  0  0  0  0  0  0
   35.0190   29.2470   37.5980 C   0  0  0  0  0  0  0  0  0  0  0  0
   37.8720   29.6490   39.2210 H   0  0  0  0  0  0  0  0  0  0  0  0
   38.7830   29.6230   37.0010 H   0  0  0  0  0  0  0  0  0  0  0  0
   37.2920   29.3610   35.0520 H   0  0  0  0  0  0  0  0  0  0  0  0
   35.1290   29.0920   34.1740 H   0  0  0  0  0  0  0  0  0  0  0  0
   32.7030   28.8470   34.4790 H   0  0  0  0  0  0  0  0  0  0  0  0
   31.7570   28.8400   36.7110 H   0  0  0  0  0  0  0  0  0  0  0  0
   33.0650   29.0650   38.9090 O   0  0  0  0  0  0  0  0  0  0  0  0
   32.5910   28.1980   39.2010 H   0  0  0  0  0  0  0  0  0  0  0  0
  1  7  1  0  0  0  0
  1  2  1  0  0  0  0
  3  1  1  0  0  0  0
  4  5  1  0  0  0  0
  4 13  1  0  0  0  0
  5  9  1  0  0  0  0
  6  5  2  0  0  0  0
  7  8  1  0  0  0  0
  7  6  1  0  0  0  0
  8  4  2  0  0  0  0
 10  6  1  0  0  0  0
 11 17  1  0  0  0  0
 12 18  1  0  0  0  0
 12 11  2  0  0  0  0
 13 12  1  0  0  0  0
 14 13  2  0  0  0  0
 14 15  1  0  0  0  0
 15 16  2  0  0  0  0
 16 11  1  0  0  0  0
 19 20  1  0  0  0  0
 19 15  1  0  0  0  0
 21 22  1  0  0  0  0
 21 20  2  0  0  0  0
 23 24  1  0  0  0  0
 23 21  1  0  0  0  0
 24 19  2  0  0  0  0
 25 23  1  0  0  0  0
 26 27  1  0  0  0  0
 26  1  1  0  0  0  0
 28 26  1  0  0  0  0
 29 26  1  0  0  0  0
 30 29  1  0  0  0  0
 30 39  1  0  0  0  0
 31 30  2  0  0  0  0
 32 33  2  0  0  0  0
 32 31  1  0  0  0  0
 33 38  1  0  0  0  0
 34 35  2  0  0  0  0
 34 33  1  0  0  0  0
 35 36  1  0  0  0  0
 36 44  1  0  0  0  0
 36 37  2  0  0  0  0
 37 45  1  0  0  0  0
 38 37  1  0  0  0  0
 38 29  2  0  0  0  0
 40 31  1  0  0  0  0
 41 32  1  0  0  0  0
 42 34  1  0  0  0  0
 43 35  1  0  0  0  0
 45 46  1  0  0  0  0
M  END
>  <minimizedAffinity>
-5.98160601

>  <minimizedRMSD>
0.308424801

$$$$
