
 OpenBabel03242509103D

 37 41  0  0  1  0  0  0  0  0999 V2000
   36.2160   30.8920   41.0750 C   0  0  0  0  0  0  0  0  0  0  0  0
   36.9950   29.8870   41.6820 C   0  0  0  0  0  0  0  0  0  0  0  0
   38.3820   29.9870   41.6100 C   0  0  0  0  0  0  0  0  0  0  0  0
   38.8950   31.0560   40.9520 N   0  0  0  0  0  0  0  0  0  0  0  0
   38.1310   32.0110   40.3740 C   0  0  0  0  0  0  0  0  0  0  0  0
   36.7840   31.9160   40.4420 N   0  0  0  0  0  0  0  0  0  0  0  0
   35.1470   30.7420   41.1740 H   0  0  0  0  0  0  0  0  0  0  0  0
   36.5230   29.0470   42.2010 H   0  0  0  0  0  0  0  0  0  0  0  0
   39.1930   28.9520   42.2250 C   0  0  0  0  0  0  0  0  0  0  0  0
   40.4110   29.0880   42.8520 C   0  0  0  0  0  0  0  0  0  0  0  0
   40.8340   27.8830   43.2880 N   0  0  0  0  0  0  0  0  0  0  0  0
   39.9170   26.9360   42.9650 C   0  0  0  0  0  0  0  0  0  0  0  0
   39.8420   25.5660   43.1660 C   0  0  0  0  0  0  0  0  0  0  0  0
   38.7460   24.8340   42.7110 C   0  0  0  0  0  0  0  0  0  0  0  0
   37.7420   25.5240   42.0540 C   0  0  0  0  0  0  0  0  0  0  0  0
   37.8260   26.8790   41.8610 C   0  0  0  0  0  0  0  0  0  0  0  0
   38.9000   27.6090   42.3040 C   0  0  0  0  0  0  0  0  0  0  0  0
   40.9300   30.0320   42.9630 H   0  0  0  0  0  0  0  0  0  0  0  0
   41.7460   27.7170   43.8040 H   0  0  0  0  0  0  0  0  0  0  0  0
   40.7050   25.1540   43.6990 H   0  0  0  0  0  0  0  0  0  0  0  0
   38.8370   23.7860   42.9440 H   0  0  0  0  0  0  0  0  0  0  0  0
   36.9340   24.8850   41.7370 H   0  0  0  0  0  0  0  0  0  0  0  0
   37.0080   27.3600   41.3390 H   0  0  0  0  0  0  0  0  0  0  0  0
   38.7750   33.1700   39.6710 C   0  0  1  0  0  0  0  0  0  0  0  0
   39.0070   34.4350   40.4950 C   0  0  0  0  0  0  0  0  0  0  0  0
   40.1530   33.5650   40.0820 C   0  0  2  0  0  0  0  0  0  0  0  0
   38.4900   33.3450   38.6210 H   0  0  0  0  0  0  0  0  0  0  0  0
   38.6190   34.3790   41.5210 H   0  0  0  0  0  0  0  0  0  0  0  0
   38.8290   35.3790   39.9540 H   0  0  0  0  0  0  0  0  0  0  0  0
   40.5710   32.9560   40.9300 H   0  0  0  0  0  0  0  0  0  0  0  0
   41.1260   34.0380   39.0680 C   0  0  0  0  0  0  0  0  0  0  0  0
   41.6910   33.2790   38.0650 C   0  0  0  0  0  0  0  0  0  0  0  0
   42.5390   34.1340   37.3590 C   0  0  0  0  0  0  0  0  0  0  0  0
   43.1200   33.8170   36.5140 H   0  0  0  0  0  0  0  0  0  0  0  0
   42.4620   35.3620   37.9460 N   0  0  0  0  0  0  0  0  0  0  0  0
   41.6080   35.2980   38.9760 N   0  0  0  0  0  0  0  0  0  0  0  0
   42.9990   36.2140   37.6220 H   0  0  0  0  0  0  0  0  0  0  0  0
  1  7  1  0  0  0  0
  1  2  1  0  0  0  0
  2  8  1  0  0  0  0
  3  2  2  0  0  0  0
  3  9  1  0  0  0  0
  4  3  1  0  0  0  0
  5  6  1  0  0  0  0
  5  4  2  0  0  0  0
  6  1  2  0  0  0  0
  9 17  1  0  0  0  0
  9 10  2  0  0  0  0
 10 18  1  0  0  0  0
 10 11  1  0  0  0  0
 11 19  1  0  0  0  0
 12 13  1  0  0  0  0
 12 11  1  0  0  0  0
 13 20  1  0  0  0  0
 14 21  1  0  0  0  0
 14 13  2  0  0  0  0
 15 14  1  0  0  0  0
 16 15  2  0  0  0  0
 16 17  1  0  0  0  0
 17 12  2  0  0  0  0
 22 15  1  0  0  0  0
 23 16  1  0  0  0  0
 24 27  1  6  0  0  0
 24 26  1  0  0  0  0
 24  5  1  0  0  0  0
 24 25  1  0  0  0  0
 25 28  1  0  0  0  0
 26 25  1  0  0  0  0
 26 30  1  1  0  0  0
 29 25  1  0  0  0  0
 31 26  1  0  0  0  0
 32 31  1  0  0  0  0
 33 35  1  0  0  0  0
 33 32  2  0  0  0  0
 34 33  1  0  0  0  0
 35 36  1  0  0  0  0
 36 31  2  0  0  0  0
 37 35  1  0  0  0  0
M  END
>  <minimizedAffinity>
-6.40070391

>  <minimizedRMSD>
1.48748112

$$$$
