
 OpenBabel03242509273D

 46 50  0  0  0  0  0  0  0  0999 V2000
   36.1420   30.0950   41.0780 C   0  0  0  0  0  0  0  0  0  0  0  0
   35.5910   30.6660   41.8490 H   0  0  0  0  0  0  0  0  0  0  0  0
   36.7700   30.8540   40.5580 H   0  0  0  0  0  0  0  0  0  0  0  0
   38.5900   28.1480   42.6840 C   0  0  0  0  0  0  0  0  0  0  0  0
   37.5000   27.3320   42.7890 C   0  0  0  0  0  0  0  0  0  0  0  0
   36.4360   27.9930   42.1790 C   0  0  0  0  0  0  0  0  0  0  0  0
   36.9670   29.1540   41.7560 N   0  0  0  0  0  0  0  0  0  0  0  0
   38.2290   29.2850   42.0330 N   0  0  0  0  0  0  0  0  0  0  0  0
   37.5220   26.3550   43.2710 H   0  0  0  0  0  0  0  0  0  0  0  0
   35.4720   27.5490   42.1360 H   0  0  0  0  0  0  0  0  0  0  0  0
   41.4940   26.4920   44.3280 C   0  0  0  0  0  0  0  0  0  0  0  0
   40.1890   26.7020   43.8680 C   0  0  0  0  0  0  0  0  0  0  0  0
   39.9270   27.8910   43.1740 C   0  0  0  0  0  0  0  0  0  0  0  0
   40.9230   28.7840   42.9710 N   0  0  0  0  0  0  0  0  0  0  0  0
   42.1820   28.5240   43.4430 C   0  0  0  0  0  0  0  0  0  0  0  0
   42.4550   27.3960   44.1090 N   0  0  0  0  0  0  0  0  0  0  0  0
   41.6600   25.5560   44.8620 H   0  0  0  0  0  0  0  0  0  0  0  0
   39.4300   25.9670   44.0520 H   0  0  0  0  0  0  0  0  0  0  0  0
   43.2240   29.5120   43.2020 C   0  0  0  0  0  0  0  0  0  0  0  0
   43.5380   30.3830   44.2340 C   0  0  0  0  0  3  0  0  0  0  0  0
   44.5450   31.2120   43.7580 C   0  0  0  0  0  0  0  0  0  0  0  0
   45.0340   32.0220   44.3110 H   0  0  0  0  0  0  0  0  0  0  0  0
   44.8130   30.8390   42.4880 N   0  0  0  0  0  0  0  0  0  0  0  0
   44.0290   29.8260   42.1490 N   0  0  0  0  0  0  0  0  0  0  0  0
   45.5320   31.2960   41.8880 H   0  0  0  0  0  0  0  0  0  0  0  0
   35.2460   29.5170   40.0240 C   0  0  0  0  0  0  0  0  0  0  0  0
   34.7740   28.6210   40.3970 H   0  0  0  0  0  0  0  0  0  0  0  0
   34.5440   30.4050   39.8900 H   0  0  0  0  0  0  0  0  0  0  0  0
   35.8650   29.4080   38.6730 C   0  0  0  0  0  0  0  0  0  0  0  0
   37.1840   29.5360   38.3510 C   0  0  0  0  0  0  0  0  0  0  0  0
   37.7040   29.5220   37.0970 C   0  0  0  0  0  0  0  0  0  0  0  0
   36.8580   29.3690   36.0220 C   0  0  0  0  0  0  0  0  0  0  0  0
   35.5050   29.2340   36.2800 C   0  0  0  0  0  0  0  0  0  0  0  0
   34.7140   29.0910   35.1640 C   0  0  0  0  0  0  0  0  0  0  0  0
   33.3620   28.9500   35.3120 C   0  0  0  0  0  0  0  0  0  0  0  0
   32.8150   28.9490   36.5910 C   0  0  0  0  0  0  0  0  0  0  0  0
   33.6660   29.0950   37.6510 C   0  0  0  0  0  0  0  0  0  0  0  0
   35.0100   29.2490   37.5840 C   0  0  0  0  0  0  0  0  0  0  0  0
   37.8640   29.6590   39.2040 H   0  0  0  0  0  0  0  0  0  0  0  0
   38.7730   29.6310   36.9830 H   0  0  0  0  0  0  0  0  0  0  0  0
   37.2810   29.3620   35.0360 H   0  0  0  0  0  0  0  0  0  0  0  0
   35.1180   29.0870   34.1600 H   0  0  0  0  0  0  0  0  0  0  0  0
   32.6920   28.8370   34.4680 H   0  0  0  0  0  0  0  0  0  0  0  0
   31.7480   28.8330   36.7010 H   0  0  0  0  0  0  0  0  0  0  0  0
   33.0580   29.0650   38.8970 O   0  0  0  0  0  0  0  0  0  0  0  0
   32.5860   28.1980   39.1920 H   0  0  0  0  0  0  0  0  0  0  0  0
  1  7  1  0  0  0  0
  1  2  1  0  0  0  0
  3  1  1  0  0  0  0
  4  5  1  0  0  0  0
  4 13  1  0  0  0  0
  5  9  1  0  0  0  0
  6  5  2  0  0  0  0
  7  8  1  0  0  0  0
  7  6  1  0  0  0  0
  8  4  2  0  0  0  0
 10  6  1  0  0  0  0
 11 17  1  0  0  0  0
 12 18  1  0  0  0  0
 12 11  2  0  0  0  0
 13 12  1  0  0  0  0
 14 13  2  0  0  0  0
 14 15  1  0  0  0  0
 15 16  2  0  0  0  0
 16 11  1  0  0  0  0
 19 15  1  0  0  0  0
 19 20  1  0  0  0  0
 21 20  2  0  0  0  0
 21 22  1  0  0  0  0
 23 21  1  0  0  0  0
 24 23  1  0  0  0  0
 24 19  2  0  0  0  0
 25 23  1  0  0  0  0
 26 27  1  0  0  0  0
 26  1  1  0  0  0  0
 28 26  1  0  0  0  0
 29 26  1  0  0  0  0
 30 29  1  0  0  0  0
 30 39  1  0  0  0  0
 31 30  2  0  0  0  0
 32 33  2  0  0  0  0
 32 31  1  0  0  0  0
 33 38  1  0  0  0  0
 34 35  2  0  0  0  0
 34 33  1  0  0  0  0
 35 36  1  0  0  0  0
 36 44  1  0  0  0  0
 36 37  2  0  0  0  0
 37 45  1  0  0  0  0
 38 37  1  0  0  0  0
 38 29  2  0  0  0  0
 40 31  1  0  0  0  0
 41 32  1  0  0  0  0
 42 34  1  0  0  0  0
 43 35  1  0  0  0  0
 45 46  1  0  0  0  0
M  END
>  <minimizedAffinity>
-5.97103643

>  <minimizedRMSD>
0.189843282

$$$$
