
 OpenBabel03242508493D

 35 38  0  0  1  0  0  0  0  0999 V2000
   40.0740   28.0600   42.5250 C   0  0  2  0  0  0  0  0  0  0  0  0
   41.3500   28.5090   43.0020 C   0  0  0  0  0  0  0  0  0  0  0  0
   42.2490   27.2650   42.9810 C   0  0  0  0  0  0  0  0  0  0  0  0
   41.5640   26.2930   42.0470 C   0  0  0  0  0  0  0  0  0  0  0  0
   40.4500   27.0530   41.3740 C   0  0  1  0  0  0  0  0  0  0  0  0
   39.5470   27.3570   43.1900 H   0  0  0  0  0  0  0  0  0  0  0  0
   41.3940   29.0080   43.9850 H   0  0  0  0  0  0  0  0  0  0  0  0
   41.8560   29.2020   42.3000 H   0  0  0  0  0  0  0  0  0  0  0  0
   43.2730   27.4960   42.6840 H   0  0  0  0  0  0  0  0  0  0  0  0
   42.2810   26.9250   44.0240 H   0  0  0  0  0  0  0  0  0  0  0  0
   41.2100   25.4610   42.6880 H   0  0  0  0  0  0  0  0  0  0  0  0
   42.2560   25.8260   41.3170 H   0  0  0  0  0  0  0  0  0  0  0  0
   40.7280   27.5900   40.4910 H   0  0  0  0  0  0  0  0  0  0  0  0
   39.5850   30.1930   41.1960 C   0  0  0  0  0  0  0  0  0  0  0  0
   39.1570   29.0670   41.9970 C   0  0  0  0  0  0  0  0  0  0  0  0
   37.8280   28.9340   42.3180 C   0  0  0  0  0  0  0  0  0  0  0  0
   36.9450   29.8770   41.8650 N   0  0  0  0  0  0  0  0  0  0  0  0
   37.3720   30.9580   41.0920 C   0  0  0  0  0  0  0  0  0  0  0  0
   38.7180   31.1020   40.7620 N   0  0  0  0  0  0  0  0  0  0  0  0
   36.4110   31.9140   40.6410 N   0  0  0  0  0  0  0  0  0  0  0  0
   40.6140   30.2650   40.9660 H   0  0  0  0  0  0  0  0  0  0  0  0
   35.6640   32.1520   41.3380 H   0  0  0  0  0  0  0  0  0  0  0  0
   36.4020   32.3660   39.7180 H   0  0  0  0  0  0  0  0  0  0  0  0
   37.1010   27.9550   43.1520 C   0  0  0  0  0  0  0  0  0  0  0  0
   36.8450   28.2420   44.6310 C   0  0  0  0  0  0  0  0  0  0  0  0
   37.8190   27.2230   44.2290 C   0  0  0  0  0  0  0  0  0  0  0  0
   39.4160   25.9900   41.1960 C   0  0  0  0  0  0  0  0  0  0  0  0
   39.4150   24.8370   41.9290 N   0  0  0  0  0  0  0  0  0  0  0  0
   38.3870   24.1250   41.5340 O   0  0  0  0  0  0  0  0  0  0  0  0
   37.7590   24.7760   40.6020 C   0  0  0  0  0  0  0  0  0  0  0  0
   38.3710   25.9330   40.3720 N   0  0  0  0  0  0  0  0  0  0  0  0
   36.5300   24.2090   39.9500 C   0  0  0  0  0  0  0  0  0  0  0  0
   35.6720   23.7530   40.9080 F   0  0  0  0  0  0  0  0  0  0  0  0
   35.9050   25.1740   39.1800 F   0  0  0  0  0  0  0  0  0  0  0  0
   36.8890   23.1360   39.1280 F   0  0  0  0  0  0  0  0  0  0  0  0
  1  2  1  0  0  0  0
  1  6  1  1  0  0  0
  2  7  1  0  0  0  0
  3  2  1  0  0  0  0
  3 10  1  0  0  0  0
  4 11  1  0  0  0  0
  4  3  1  0  0  0  0
  5 13  1  6  0  0  0
  5  4  1  0  0  0  0
  5  1  1  0  0  0  0
  8  2  1  0  0  0  0
  9  3  1  0  0  0  0
 12  4  1  0  0  0  0
 14 15  1  0  0  0  0
 15 16  2  0  0  0  0
 15  1  1  0  0  0  0
 16 24  1  0  0  0  0
 17 16  1  0  0  0  0
 18 17  2  0  0  0  0
 19 18  1  0  0  0  0
 19 14  2  0  0  0  0
 20 18  1  0  0  0  0
 20 22  1  0  0  0  0
 21 14  1  0  0  0  0
 23 20  1  0  0  0  0
 24 26  1  0  0  0  0
 24 25  1  0  0  0  0
 26 25  1  0  0  0  0
 27  5  1  0  0  0  0
 27 28  2  0  0  0  0
 29 28  1  0  0  0  0
 30 29  1  0  0  0  0
 31 30  2  0  0  0  0
 31 27  1  0  0  0  0
 32 30  1  0  0  0  0
 32 33  1  0  0  0  0
 34 32  1  0  0  0  0
 35 32  1  0  0  0  0
M  END
>  <minimizedAffinity>
-5.4422946

>  <minimizedRMSD>
2.02182865

$$$$
