REMARK  Name = 
REMARK  2 active torsions:
REMARK  status: ('A' for Active; 'I' for Inactive)
REMARK    1  A    between atoms: C_3  and  C_7
REMARK    2  A    between atoms: C_5  and  C_13
REMARK                            x       y       z     vdW  Elec       q    Type
REMARK                         _______ _______ _______ _____ _____    ______ ____
ROOT
ATOM      1  C   UNL     1      37.974  28.888  43.365  0.00  0.00    +0.000 A 
ATOM      2  C   UNL     1      38.092  27.468  43.311  0.00  0.00    +0.000 A 
ATOM      3  C   UNL     1      37.439  26.820  42.261  0.00  0.00    +0.000 A 
ATOM      4  N   UNL     1      36.723  27.571  41.339  0.00  0.00    +0.000 NA
ATOM      5  C   UNL     1      36.655  28.912  41.453  0.00  0.00    +0.000 A 
ATOM      6  N   UNL     1      37.275  29.549  42.454  0.00  0.00    +0.000 NA
ATOM      7  H   UNL     1      38.479  29.394  44.179  0.00  0.00    +0.000 HD
ATOM      8  H   UNL     1      38.662  26.940  44.056  0.00  0.00    +0.000 HD
ENDROOT
BRANCH   3   9
ATOM      9  C   UNL     1      37.525  25.338  42.151  0.00  0.00    +0.000 C 
ATOM     10  F   UNL     1      37.659  25.055  40.802  0.00  0.00    +0.000 F 
ATOM     11  F   UNL     1      38.626  24.842  42.803  0.00  0.00    +0.000 F 
ATOM     12  F   UNL     1      36.378  24.712  42.633  0.00  0.00    +0.000 F 
ENDBRANCH   3   9
BRANCH   5  13
ATOM     13  C   UNL     1      35.884  29.689  40.456  0.00  0.00    +0.000 C 
ATOM     14  C   UNL     1      35.911  29.131  39.066  0.00  0.00    +0.000 C 
ATOM     15  C   UNL     1      36.585  30.458  39.392  0.00  0.00    +0.000 C 
ENDBRANCH   5  13
TORSDOF 2
