
 OpenBabel03242509323D

 15 16  0  0  0  0  0  0  0  0999 V2000
   37.9860   28.9100   43.3260 C   0  0  0  0  0  0  0  0  0  0  0  0
   38.1130   27.4910   43.2670 C   0  0  0  0  0  0  0  0  0  0  0  0
   37.4190   26.8370   42.2480 C   0  0  0  0  0  0  0  0  0  0  0  0
   36.6560   27.5810   41.3590 N   0  0  0  0  0  0  0  0  0  0  0  0
   36.5820   28.9220   41.4750 C   0  0  0  0  0  0  0  0  0  0  0  0
   37.2410   29.5650   42.4470 N   0  0  0  0  0  0  0  0  0  0  0  0
   38.5230   29.4210   44.1160 H   0  0  0  0  0  0  0  0  0  0  0  0
   38.7200   26.9680   43.9860 H   0  0  0  0  0  0  0  0  0  0  0  0
   37.5120   25.3560   42.1350 C   0  0  0  0  0  0  0  0  0  0  0  0
   37.6280   25.0750   40.7830 F   0  0  0  0  0  0  0  0  0  0  0  0
   38.6250   24.8650   42.7700 F   0  0  0  0  0  0  0  0  0  0  0  0
   36.3750   24.7220   42.6320 F   0  0  0  0  0  0  0  0  0  0  0  0
   35.7600   29.6920   40.5140 C   0  0  0  0  0  3  0  0  0  0  0  0
   35.6470   29.0790   39.1510 C   0  0  0  0  0  2  0  0  0  0  0  0
   36.3990   30.3880   39.3630 C   0  0  0  0  0  2  0  0  0  0  0  0
  1  7  1  0  0  0  0
  2  1  1  0  0  0  0
  2  8  1  0  0  0  0
  3  2  2  0  0  0  0
  4  5  2  0  0  0  0
  4  3  1  0  0  0  0
  5  6  1  0  0  0  0
  6  1  2  0  0  0  0
  9  3  1  0  0  0  0
  9 12  1  0  0  0  0
  9 11  1  0  0  0  0
 10  9  1  0  0  0  0
 13  5  1  0  0  0  0
 14 15  1  0  0  0  0
 14 13  1  0  0  0  0
 15 13  1  0  0  0  0
M  END
>  <minimizedAffinity>
-4.1540637

>  <minimizedRMSD>
0.111358374

$$$$
