
 OpenBabel03242509173D

 29 32  0  0  1  0  0  0  0  0999 V2000
   40.0080   30.7240   41.0890 C   0  0  1  0  0  0  0  0  0  0  0  0
   40.8240   31.1230   42.2490 C   0  0  0  0  0  0  0  0  0  0  0  0
   39.6200   30.3700   42.6090 C   0  0  2  0  0  0  0  0  0  0  0  0
   40.1760   29.8270   40.5000 H   0  0  0  0  0  0  0  0  0  0  0  0
   40.8470   32.2380   42.4440 H   0  0  0  0  0  0  0  0  0  0  0  0
   41.8370   30.6960   42.3610 H   0  0  0  0  0  0  0  0  0  0  0  0
   38.5970   30.7640   42.7320 H   0  0  0  0  0  0  0  0  0  0  0  0
   39.8080   28.9370   42.9290 C   0  0  0  0  0  0  0  0  0  0  0  0
   41.1010   28.3960   42.9240 C   0  0  0  0  0  0  0  0  0  0  0  0
   41.3600   27.1410   43.3720 C   0  0  0  0  0  0  0  0  0  0  0  0
   40.3020   26.4020   43.8400 C   0  0  0  0  0  0  0  0  0  0  0  0
   39.0400   26.9240   43.8450 C   0  0  0  0  0  0  0  0  0  0  0  0
   38.7870   28.2160   43.3800 C   0  0  0  0  0  0  0  0  0  0  0  0
   41.9320   28.9950   42.5500 H   0  0  0  0  0  0  0  0  0  0  0  0
   42.3770   26.7740   43.3460 H   0  0  0  0  0  0  0  0  0  0  0  0
   40.5790   25.4010   44.1860 H   0  0  0  0  0  0  0  0  0  0  0  0
   38.3270   26.1960   44.2500 H   0  0  0  0  0  0  0  0  0  0  0  0
   37.3470   28.4570   43.4080 C   0  0  0  0  0  0  0  0  0  0  0  0
   36.3690   27.2890   43.2450 C   0  0  0  0  0  0  0  0  0  0  0  0
   36.6890   28.1270   42.1040 C   0  0  0  0  0  0  0  0  0  0  0  0
   39.0410   31.7520   40.5260 C   0  0  0  0  0  0  0  0  0  0  0  0
   37.9010   31.2690   39.8350 C   0  0  0  0  0  0  0  0  0  0  0  0
   37.0290   32.1850   39.3550 C   0  0  0  0  0  0  0  0  0  0  0  0
   37.2910   33.5270   39.5630 N   0  0  0  0  0  0  0  0  0  0  0  0
   38.3770   33.9520   40.2200 C   0  0  0  0  0  0  0  0  0  0  0  0
   39.2510   33.0370   40.6990 N   0  0  0  0  0  0  0  0  0  0  0  0
   37.5200   30.3100   39.6040 H   0  0  0  0  0  0  0  0  0  0  0  0
   36.1260   32.0720   38.8170 H   0  0  0  0  0  0  0  0  0  0  0  0
   38.5670   35.0060   40.3740 H   0  0  0  0  0  0  0  0  0  0  0  0
  1  4  1  6  0  0  0
  1  2  1  0  0  0  0
  1  3  1  0  0  0  0
  2  6  1  0  0  0  0
  2  5  1  0  0  0  0
  2  3  1  0  0  0  0
  3  7  1  1  0  0  0
  3  8  1  0  0  0  0
  8 13  1  0  0  0  0
  9  8  2  0  0  0  0
  9 10  1  0  0  0  0
 10 11  2  0  0  0  0
 11 12  1  0  0  0  0
 11 16  1  0  0  0  0
 12 17  1  0  0  0  0
 13 18  1  0  0  0  0
 13 12  2  0  0  0  0
 14  9  1  0  0  0  0
 15 10  1  0  0  0  0
 19 18  1  0  0  0  0
 20 19  1  0  0  0  0
 20 18  1  0  0  0  0
 21 26  1  0  0  0  0
 21  1  1  0  0  0  0
 22 21  2  0  0  0  0
 23 24  2  0  0  0  0
 23 22  1  0  0  0  0
 24 25  1  0  0  0  0
 25 29  1  0  0  0  0
 25 26  2  0  0  0  0
 27 22  1  0  0  0  0
 28 23  1  0  0  0  0
M  END
>  <minimizedAffinity>
-5.49943638

>  <minimizedRMSD>
3.17039847

$$$$
