
 OpenBabel03242509233D

 41 45  0  0  0  0  0  0  0  0999 V2000
   35.6480   29.0190   39.6580 C   0  0  0  0  0  0  0  0  0  0  0  0
   35.8990   28.0190   39.8270 H   0  0  0  0  0  0  0  0  0  0  0  0
   34.5860   29.3500   39.5070 H   0  0  0  0  0  0  0  0  0  0  0  0
   36.3870   29.8860   38.7350 C   0  0  0  0  0  0  0  0  0  0  0  0
   37.1460   31.0020   38.9870 C   0  0  0  0  0  0  0  0  0  0  0  0
   37.7260   31.8310   38.0950 C   0  0  0  0  0  0  0  0  0  0  0  0
   37.5710   31.5730   36.7610 C   0  0  0  0  0  0  0  0  0  0  0  0
   36.8210   30.4650   36.3920 C   0  0  0  0  0  0  0  0  0  0  0  0
   36.6980   30.2780   35.0520 C   0  0  0  0  0  0  0  0  0  0  0  0
   35.9610   29.2140   34.6000 C   0  0  0  0  0  0  0  0  0  0  0  0
   35.3760   28.3720   35.5000 C   0  0  0  0  0  0  0  0  0  0  0  0
   35.5260   28.5940   36.8660 C   0  0  0  0  0  0  0  0  0  0  0  0
   36.2470   29.6440   37.3590 C   0  0  0  0  0  0  0  0  0  0  0  0
   37.2770   31.2150   40.0620 H   0  0  0  0  0  0  0  0  0  0  0  0
   38.2980   32.6740   38.4540 H   0  0  0  0  0  0  0  0  0  0  0  0
   38.0290   32.2280   36.0530 H   0  0  0  0  0  0  0  0  0  0  0  0
   37.1750   30.9620   34.3300 H   0  0  0  0  0  0  0  0  0  0  0  0
   35.9020   29.1250   33.5080 H   0  0  0  0  0  0  0  0  0  0  0  0
   34.8540   27.6010   34.9570 H   0  0  0  0  0  0  0  0  0  0  0  0
   34.8890   27.5670   37.7260 C   0  0  0  0  0  0  0  0  0  0  0  0
   35.5120   26.1430   37.7280 C   0  0  0  0  0  0  0  0  0  0  0  0
   34.1800   26.3730   37.2810 C   0  0  0  0  0  0  0  0  0  0  0  0
   35.7880   29.4660   41.1040 C   0  0  0  0  0  0  0  0  0  0  0  0
   34.8240   29.2600   41.6650 H   0  0  0  0  0  0  0  0  0  0  0  0
   35.8850   30.5500   41.1320 H   0  0  0  0  0  0  0  0  0  0  0  0
   38.5110   27.9480   42.7770 C   0  0  0  0  0  0  0  0  0  0  0  0
   37.4780   27.1200   43.1380 C   0  0  0  0  0  0  0  0  0  0  0  0
   36.3340   27.6260   42.5290 C   0  0  0  0  0  0  0  0  0  0  0  0
   36.7680   28.7230   41.8460 N   0  0  0  0  0  0  0  0  0  0  0  0
   38.0230   28.9130   41.9860 N   0  0  0  0  0  0  0  0  0  0  0  0
   37.6200   26.2470   43.7880 H   0  0  0  0  0  0  0  0  0  0  0  0
   35.4150   27.0860   42.7110 H   0  0  0  0  0  0  0  0  0  0  0  0
   41.6400   26.6670   44.3510 C   0  0  0  0  0  0  0  0  0  0  0  0
   40.2880   26.7290   43.9730 C   0  0  0  0  0  0  0  0  0  0  0  0
   39.8920   27.8180   43.1840 C   0  0  0  0  0  0  0  0  0  0  0  0
   40.7960   28.7680   42.8070 N   0  0  0  0  0  0  0  0  0  0  0  0
   42.0950   28.6440   43.2110 C   0  0  0  0  0  0  0  0  0  0  0  0
   42.5110   27.6080   43.9720 N   0  0  0  0  0  0  0  0  0  0  0  0
   41.9540   25.8290   44.9620 H   0  0  0  0  0  0  0  0  0  0  0  0
   39.6010   25.9560   44.2910 H   0  0  0  0  0  0  0  0  0  0  0  0
   42.8350   29.3870   42.9230 H   0  0  0  0  0  0  0  0  0  0  0  0
  1  2  1  0  0  0  0
  1 23  1  0  0  0  0
  3  1  1  0  0  0  0
  4  5  1  0  0  0  0
  4  1  1  0  0  0  0
  5 14  1  0  0  0  0
  6 15  1  0  0  0  0
  6  5  2  0  0  0  0
  7  6  1  0  0  0  0
  8  7  2  0  0  0  0
  8 13  1  0  0  0  0
  9  8  1  0  0  0  0
 10  9  2  0  0  0  0
 10 11  1  0  0  0  0
 11 12  2  0  0  0  0
 12 13  1  0  0  0  0
 12 20  1  0  0  0  0
 13  4  2  0  0  0  0
 16  7  1  0  0  0  0
 17  9  1  0  0  0  0
 18 10  1  0  0  0  0
 19 11  1  0  0  0  0
 20 21  1  0  0  0  0
 22 20  1  0  0  0  0
 22 21  1  0  0  0  0
 23 25  1  0  0  0  0
 23 24  1  0  0  0  0
 23 29  1  0  0  0  0
 26 27  1  0  0  0  0
 26 35  1  0  0  0  0
 27 31  1  0  0  0  0
 28 32  1  0  0  0  0
 28 27  2  0  0  0  0
 29 30  1  0  0  0  0
 29 28  1  0  0  0  0
 30 26  2  0  0  0  0
 33 39  1  0  0  0  0
 34 40  1  0  0  0  0
 34 33  1  0  0  0  0
 35 34  2  0  0  0  0
 36 35  1  0  0  0  0
 36 37  2  0  0  0  0
 37 38  1  0  0  0  0
 38 33  2  0  0  0  0
 41 37  1  0  0  0  0
M  END
>  <minimizedAffinity>
-5.51507187

>  <minimizedRMSD>
1.84362888

$$$$
