
 OpenBabel03242509283D

 42 46  0  0  0  0  0  0  0  0999 V2000
   35.2380   29.4860   40.0220 C   0  0  0  0  0  0  0  0  0  0  0  0
   34.7800   28.5780   40.3900 H   0  0  0  0  0  0  0  0  0  0  0  0
   34.5140   30.3600   39.9000 H   0  0  0  0  0  0  0  0  0  0  0  0
   35.8520   29.4010   38.6750 C   0  0  0  0  0  0  0  0  0  0  0  0
   37.1740   29.5290   38.3580 C   0  0  0  0  0  0  0  0  0  0  0  0
   37.7000   29.5190   37.1000 C   0  0  0  0  0  0  0  0  0  0  0  0
   36.8540   29.3700   36.0170 C   0  0  0  0  0  0  0  0  0  0  0  0
   35.5070   29.2340   36.2760 C   0  0  0  0  0  0  0  0  0  0  0  0
   34.7110   29.0930   35.1620 C   0  0  0  0  0  0  0  0  0  0  0  0
   33.3620   28.9520   35.3120 C   0  0  0  0  0  0  0  0  0  0  0  0
   32.8100   28.9500   36.5690 C   0  0  0  0  0  0  0  0  0  0  0  0
   33.6580   29.0940   37.6420 C   0  0  0  0  0  0  0  0  0  0  0  0
   35.0020   29.2450   37.5750 C   0  0  0  0  0  0  0  0  0  0  0  0
   37.8490   29.6490   39.2090 H   0  0  0  0  0  0  0  0  0  0  0  0
   38.7700   29.6310   36.9920 H   0  0  0  0  0  0  0  0  0  0  0  0
   37.2690   29.3640   35.0200 H   0  0  0  0  0  0  0  0  0  0  0  0
   35.1000   29.0860   34.1510 H   0  0  0  0  0  0  0  0  0  0  0  0
   32.6980   28.8400   34.4550 H   0  0  0  0  0  0  0  0  0  0  0  0
   31.7410   28.8360   36.6890 H   0  0  0  0  0  0  0  0  0  0  0  0
   33.0450   29.0640   38.8890 O   0  0  0  0  0  0  0  0  0  0  0  0
   32.4410   28.2490   39.0780 H   0  0  0  0  0  0  0  0  0  0  0  0
   36.1220   30.0740   41.0790 C   0  0  0  0  0  0  0  0  0  0  0  0
   35.5500   30.6240   41.8580 H   0  0  0  0  0  0  0  0  0  0  0  0
   36.7390   30.8490   40.5660 H   0  0  0  0  0  0  0  0  0  0  0  0
   38.6010   28.1750   42.6900 C   0  0  0  0  0  0  0  0  0  0  0  0
   37.5200   27.3370   42.7990 C   0  0  0  0  0  0  0  0  0  0  0  0
   36.4500   27.9910   42.1820 C   0  0  0  0  0  0  0  0  0  0  0  0
   36.9640   29.1510   41.7570 N   0  0  0  0  0  0  0  0  0  0  0  0
   38.2230   29.2940   42.0370 N   0  0  0  0  0  0  0  0  0  0  0  0
   37.5690   26.3710   43.2840 H   0  0  0  0  0  0  0  0  0  0  0  0
   35.4630   27.5560   42.1200 H   0  0  0  0  0  0  0  0  0  0  0  0
   41.5300   26.5370   44.3170 C   0  0  0  0  0  0  0  0  0  0  0  0
   40.2210   26.7290   43.8550 C   0  0  0  0  0  0  0  0  0  0  0  0
   39.9390   27.9260   43.1850 C   0  0  0  0  0  0  0  0  0  0  0  0
   40.9180   28.8550   43.0040 N   0  0  0  0  0  0  0  0  0  0  0  0
   42.1780   28.6140   43.4790 C   0  0  0  0  0  0  0  0  0  0  0  0
   42.4700   27.4660   44.1260 N   0  0  0  0  0  0  0  0  0  0  0  0
   41.7590   25.6300   44.8290 H   0  0  0  0  0  0  0  0  0  0  0  0
   39.4540   26.0030   43.9940 H   0  0  0  0  0  0  0  0  0  0  0  0
   43.2060   29.6670   43.2520 C   0  0  0  0  0  3  0  0  0  0  0  0
   43.5810   30.5360   44.4540 C   0  0  0  0  0  2  0  0  0  0  0  0
   42.8220   31.1190   43.2720 C   0  0  0  0  0  2  0  0  0  0  0  0
  1  2  1  0  0  0  0
  1 22  1  0  0  0  0
  3  1  1  0  0  0  0
  4  1  1  0  0  0  0
  5  4  1  0  0  0  0
  5 14  1  0  0  0  0
  6  5  2  0  0  0  0
  7  8  2  0  0  0  0
  7  6  1  0  0  0  0
  8 13  1  0  0  0  0
  9 10  2  0  0  0  0
  9  8  1  0  0  0  0
 10 11  1  0  0  0  0
 11 19  1  0  0  0  0
 11 12  2  0  0  0  0
 12 20  1  0  0  0  0
 13 12  1  0  0  0  0
 13  4  2  0  0  0  0
 15  6  1  0  0  0  0
 16  7  1  0  0  0  0
 17  9  1  0  0  0  0
 18 10  1  0  0  0  0
 20 21  1  0  0  0  0
 22 28  1  0  0  0  0
 22 23  1  0  0  0  0
 24 22  1  0  0  0  0
 25 26  1  0  0  0  0
 25 34  1  0  0  0  0
 26 30  1  0  0  0  0
 27 26  2  0  0  0  0
 28 29  1  0  0  0  0
 28 27  1  0  0  0  0
 29 25  2  0  0  0  0
 31 27  1  0  0  0  0
 32 38  1  0  0  0  0
 33 39  1  0  0  0  0
 33 32  2  0  0  0  0
 34 33  1  0  0  0  0
 35 34  2  0  0  0  0
 35 36  1  0  0  0  0
 36 37  2  0  0  0  0
 37 32  1  0  0  0  0
 40 42  1  0  0  0  0
 40 36  1  0  0  0  0
 40 41  1  0  0  0  0
 42 41  1  0  0  0  0
M  END
>  <minimizedAffinity>
-6.03338766

>  <minimizedRMSD>
0.167836562

$$$$
