REMARK  Name = 
REMARK  6 active torsions:
REMARK  status: ('A' for Active; 'I' for Inactive)
REMARK    1  A    between atoms: C_1  and  C_2
REMARK    2  A    between atoms: C_1  and  C_13
REMARK    3  A    between atoms: C_10  and  O_12
REMARK    4  A    between atoms: C_13  and  N_17
REMARK    5  A    between atoms: C_14  and  C_21
REMARK    6  A    between atoms: C_23  and  C_40
REMARK                            x       y       z     vdW  Elec       q    Type
REMARK                         _______ _______ _______ _____ _____    ______ ____
ROOT
ATOM      1  C   UNL     1      36.167  30.073  41.134  0.00  0.00    +0.000 C 
ATOM      2  H   UNL     1      36.777  30.865  40.631  0.00  0.00    +0.000 HD
ATOM      3  H   UNL     1      35.591  30.610  41.918  0.00  0.00    +0.000 HD
ENDROOT
BRANCH   1   7
ATOM      4  C   UNL     1      38.653  28.152  42.713  0.00  0.00    +0.000 A 
ATOM      5  C   UNL     1      37.559  27.334  42.867  0.00  0.00    +0.000 A 
ATOM      6  C   UNL     1      36.488  28.000  42.267  0.00  0.00    +0.000 A 
ATOM      7  N   UNL     1      37.016  29.151  41.805  0.00  0.00    +0.000 N 
ATOM      8  N   UNL     1      38.284  29.282  42.045  0.00  0.00    +0.000 NA
ATOM      9  H   UNL     1      37.572  26.372  43.363  0.00  0.00    +0.000 HD
ATOM     10  H   UNL     1      35.505  27.588  42.240  0.00  0.00    +0.000 HD
BRANCH   4  13
ATOM     11  C   UNL     1      41.575  26.555  44.382  0.00  0.00    +0.000 A 
ATOM     12  C   UNL     1      40.263  26.755  43.949  0.00  0.00    +0.000 A 
ATOM     13  C   UNL     1      40.004  27.912  43.170  0.00  0.00    +0.000 A 
ATOM     14  N   UNL     1      41.007  28.764  42.877  0.00  0.00    +0.000 NA
ATOM     15  C   UNL     1      42.278  28.501  43.340  0.00  0.00    +0.000 A 
ATOM     16  N   UNL     1      42.542  27.423  44.072  0.00  0.00    +0.000 NA
ATOM     17  H   UNL     1      41.816  25.683  44.981  0.00  0.00    +0.000 HD
ATOM     18  H   UNL     1      39.471  26.055  44.197  0.00  0.00    +0.000 HD
BRANCH  15  19
ATOM     19  C   UNL     1      43.271  29.539  42.930  0.00  0.00    +0.000 C 
ATOM     20  C   UNL     1      44.620  28.900  42.985  0.00  0.00    +0.000 C 
ATOM     21  C   UNL     1      45.744  29.870  43.233  0.00  0.00    +0.000 C 
ATOM     22  C   UNL     1      45.444  30.448  44.621  0.00  0.00    +0.000 C 
ATOM     23  C   UNL     1      44.253  31.328  44.442  0.00  0.00    +0.000 C 
ATOM     24  C   UNL     1      43.077  30.731  43.776  0.00  0.00    +0.000 C 
ENDBRANCH  15  19
ENDBRANCH   4  13
ENDBRANCH   1   7
BRANCH   1  25
ATOM     25  C   UNL     1      35.283  29.494  40.077  0.00  0.00    +0.000 C 
ATOM     26  H   UNL     1      34.831  28.581  40.436  0.00  0.00    +0.000 HD
ATOM     27  H   UNL     1      34.556  30.367  39.959  0.00  0.00    +0.000 HD
BRANCH  25  28
ATOM     28  C   UNL     1      35.893  29.427  38.723  0.00  0.00    +0.000 A 
ATOM     29  C   UNL     1      37.205  29.588  38.393  0.00  0.00    +0.000 A 
ATOM     30  C   UNL     1      37.717  29.591  37.131  0.00  0.00    +0.000 A 
ATOM     31  C   UNL     1      36.869  29.419  36.060  0.00  0.00    +0.000 A 
ATOM     32  C   UNL     1      35.517  29.248  36.328  0.00  0.00    +0.000 A 
ATOM     33  C   UNL     1      34.726  29.085  35.216  0.00  0.00    +0.000 A 
ATOM     34  C   UNL     1      33.380  28.906  35.374  0.00  0.00    +0.000 A 
ATOM     35  C   UNL     1      32.845  28.891  36.649  0.00  0.00    +0.000 A 
ATOM     36  C   UNL     1      33.691  29.059  37.705  0.00  0.00    +0.000 A 
ATOM     37  C   UNL     1      35.031  29.248  37.625  0.00  0.00    +0.000 A 
ATOM     38  H   UNL     1      37.877  29.725  39.242  0.00  0.00    +0.000 HD
ATOM     39  H   UNL     1      38.784  29.730  37.020  0.00  0.00    +0.000 HD
ATOM     40  H   UNL     1      37.262  29.421  35.052  0.00  0.00    +0.000 HD
ATOM     41  H   UNL     1      35.125  29.091  34.201  0.00  0.00    +0.000 HD
ATOM     42  H   UNL     1      32.745  28.779  34.507  0.00  0.00    +0.000 HD
ATOM     43  H   UNL     1      31.783  28.747  36.765  0.00  0.00    +0.000 HD
BRANCH  36  44
ATOM     44  O   UNL     1      33.095  29.015  38.955  0.00  0.00    +0.000 OA
ATOM     45  H   UNL     1      32.232  29.528  39.101  0.00  0.00    +0.000 HD
ENDBRANCH  36  44
ENDBRANCH  25  28
ENDBRANCH   1  25
TORSDOF 6
