
 OpenBabel03242508463D

 33 36  0  0  1  0  0  0  0  0999 V2000
   37.9590   27.3400   42.7490 C   0  0  2  0  0  0  0  0  0  0  0  0
   39.0310   27.6070   43.7120 C   0  0  0  0  0  0  0  0  0  0  0  0
   39.7660   26.2870   43.8600 C   0  0  0  0  0  0  0  0  0  0  0  0
   39.3000   25.4210   42.7350 C   0  0  0  0  0  0  0  0  0  0  0  0
   38.5650   26.3540   41.7700 C   0  0  1  0  0  0  0  0  0  0  0  0
   37.1380   26.7470   43.2510 H   0  0  0  0  0  0  0  0  0  0  0  0
   39.7830   28.3470   43.4490 H   0  0  0  0  0  0  0  0  0  0  0  0
   38.5540   27.8100   44.7110 H   0  0  0  0  0  0  0  0  0  0  0  0
   40.8730   26.3950   43.7400 H   0  0  0  0  0  0  0  0  0  0  0  0
   39.6320   25.8340   44.8600 H   0  0  0  0  0  0  0  0  0  0  0  0
   38.6160   24.6700   43.1780 H   0  0  0  0  0  0  0  0  0  0  0  0
   40.1040   24.8620   42.2210 H   0  0  0  0  0  0  0  0  0  0  0  0
   39.2320   26.8180   41.0510 H   0  0  0  0  0  0  0  0  0  0  0  0
   38.0450   29.7530   41.9490 C   0  0  0  0  0  0  0  0  0  0  0  0
   37.3860   28.4980   42.0780 C   0  0  0  0  0  0  0  0  0  0  0  0
   36.1210   28.3460   41.5290 C   0  0  0  0  0  0  0  0  0  0  0  0
   35.5620   29.4270   40.8810 N   0  0  0  0  0  0  0  0  0  0  0  0
   36.2190   30.6270   40.7700 C   0  0  0  0  0  0  0  0  0  0  0  0
   37.4790   30.7800   41.3170 N   0  0  0  0  0  0  0  0  0  0  0  0
   39.0310   29.8550   42.3820 H   0  0  0  0  0  0  0  0  0  0  0  0
   35.5240   27.4630   41.5570 H   0  0  0  0  0  0  0  0  0  0  0  0
   35.6980   31.4290   40.2400 H   0  0  0  0  0  0  0  0  0  0  0  0
   37.5670   25.4280   41.1600 C   0  0  0  0  0  0  0  0  0  0  0  0
   36.8820   24.5220   41.8770 N   0  0  0  0  0  0  0  0  0  0  0  0
   36.0990   23.8760   41.0390 O   0  0  0  0  0  0  0  0  0  0  0  0
   36.2860   24.3620   39.8280 C   0  0  0  0  0  0  0  0  0  0  0  0
   37.1940   25.3330   39.8630 N   0  0  0  0  0  0  0  0  0  0  0  0
   35.4360   23.6900   38.8040 C   0  0  0  0  0  0  0  0  0  0  0  0
   34.9710   24.7040   37.8300 C   0  0  0  0  0  0  0  0  0  0  0  0
   33.5970   24.5290   37.2960 C   0  0  0  0  0  0  0  0  0  0  0  0
   33.2750   23.0360   37.3130 C   0  0  0  0  0  0  0  0  0  0  0  0
   33.0890   22.7600   38.8050 C   0  0  0  0  0  0  0  0  0  0  0  0
   34.4020   22.8940   39.5070 C   0  0  0  0  0  0  0  0  0  0  0  0
  1  6  1  1  0  0  0
  1  2  1  0  0  0  0
  2  3  1  0  0  0  0
  2  8  1  0  0  0  0
  3 10  1  0  0  0  0
  4 11  1  0  0  0  0
  4  3  1  0  0  0  0
  5 13  1  6  0  0  0
  5  4  1  0  0  0  0
  5  1  1  0  0  0  0
  7  2  1  0  0  0  0
  9  3  1  0  0  0  0
 12  4  1  0  0  0  0
 14 15  1  0  0  0  0
 14 20  1  0  0  0  0
 15  1  1  0  0  0  0
 16 21  1  0  0  0  0
 16 15  2  0  0  0  0
 17 16  1  0  0  0  0
 18 17  2  0  0  0  0
 18 19  1  0  0  0  0
 19 14  2  0  0  0  0
 22 18  1  0  0  0  0
 23  5  1  0  0  0  0
 23 24  2  0  0  0  0
 25 24  1  0  0  0  0
 26 27  2  0  0  0  0
 26 25  1  0  0  0  0
 27 23  1  0  0  0  0
 28 33  1  0  0  0  0
 28 26  1  0  0  0  0
 29 28  1  0  0  0  0
 30 31  1  0  0  0  0
 30 29  1  0  0  0  0
 31 32  1  0  0  0  0
 32 33  1  0  0  0  0
M  END
>  <minimizedAffinity>
-5.42281771

>  <minimizedRMSD>
0.776536345

$$$$
