
 OpenBabel03242509113D

 36 40  0  0  1  0  0  0  0  0999 V2000
   36.1150   30.6850   41.0560 C   0  0  0  0  0  0  0  0  0  0  0  0
   36.6390   29.5160   41.6480 C   0  0  0  0  0  0  0  0  0  0  0  0
   38.0220   29.3470   41.6590 C   0  0  0  0  0  0  0  0  0  0  0  0
   38.7740   30.3250   41.0950 N   0  0  0  0  0  0  0  0  0  0  0  0
   38.2540   31.4390   40.5320 C   0  0  0  0  0  0  0  0  0  0  0  0
   36.9120   31.6100   40.5180 N   0  0  0  0  0  0  0  0  0  0  0  0
   35.0370   30.7830   41.0660 H   0  0  0  0  0  0  0  0  0  0  0  0
   36.0200   28.7430   42.0950 H   0  0  0  0  0  0  0  0  0  0  0  0
   38.5770   28.1460   42.2570 C   0  0  0  0  0  0  0  0  0  0  0  0
   39.5910   28.0440   43.1820 C   0  0  0  0  0  0  0  0  0  0  0  0
   39.8000   26.7400   43.4750 N   0  0  0  0  0  0  0  0  0  0  0  0
   38.9460   25.9640   42.7660 C   0  0  0  0  0  0  0  0  0  0  0  0
   38.7250   24.5980   42.6760 C   0  0  0  0  0  0  0  0  0  0  0  0
   37.7530   24.0680   41.8420 C   0  0  0  0  0  0  0  0  0  0  0  0
   37.0160   24.9620   41.1040 C   0  0  0  0  0  0  0  0  0  0  0  0
   37.2260   26.3160   41.1850 C   0  0  0  0  0  0  0  0  0  0  0  0
   38.1920   26.8440   42.0150 C   0  0  0  0  0  0  0  0  0  0  0  0
   40.1180   28.9120   43.5880 H   0  0  0  0  0  0  0  0  0  0  0  0
   40.5200   26.4010   44.1530 H   0  0  0  0  0  0  0  0  0  0  0  0
   39.3530   23.9780   43.2940 H   0  0  0  0  0  0  0  0  0  0  0  0
   37.5920   23.0000   41.7820 H   0  0  0  0  0  0  0  0  0  0  0  0
   36.2360   24.6360   40.4260 H   0  0  0  0  0  0  0  0  0  0  0  0
   36.6410   27.0170   40.6000 H   0  0  0  0  0  0  0  0  0  0  0  0
   39.1540   32.4770   39.9370 C   0  0  1  0  0  0  0  0  0  0  0  0
   39.1340   33.8620   40.5730 C   0  0  0  0  0  0  0  0  0  0  0  0
   40.3130   32.9590   40.7430 C   0  0  2  0  0  0  0  0  0  0  0  0
   39.2930   32.4200   38.8450 H   0  0  0  0  0  0  0  0  0  0  0  0
   39.1440   34.6810   39.8270 H   0  0  0  0  0  0  0  0  0  0  0  0
   38.4250   33.9600   41.4120 H   0  0  0  0  0  0  0  0  0  0  0  0
   40.4570   32.5360   41.7720 H   0  0  0  0  0  0  0  0  0  0  0  0
   41.6300   33.2590   40.0560 C   0  0  0  0  0  0  0  0  0  0  0  0
   42.0380   32.0460   39.2810 C   0  0  0  0  0  0  0  0  0  0  0  0
   42.9920   32.2990   38.1610 C   0  0  0  0  0  0  0  0  0  0  0  0
   42.3760   33.3300   37.2240 C   0  0  0  0  0  0  0  0  0  0  0  0
   42.3040   34.6120   38.0310 C   0  0  0  0  0  0  0  0  0  0  0  0
   41.3720   34.4640   39.1930 C   0  0  0  0  0  0  0  0  0  0  0  0
  1  7  1  0  0  0  0
  1  2  1  0  0  0  0
  2  3  2  0  0  0  0
  2  8  1  0  0  0  0
  3  9  1  0  0  0  0
  4  3  1  0  0  0  0
  5  4  2  0  0  0  0
  6  5  1  0  0  0  0
  6  1  2  0  0  0  0
  9 10  2  0  0  0  0
 10 11  1  0  0  0  0
 10 18  1  0  0  0  0
 11 19  1  0  0  0  0
 12 11  1  0  0  0  0
 13 12  1  0  0  0  0
 13 20  1  0  0  0  0
 14 13  2  0  0  0  0
 15 16  2  0  0  0  0
 15 14  1  0  0  0  0
 16 17  1  0  0  0  0
 17  9  1  0  0  0  0
 17 12  2  0  0  0  0
 21 14  1  0  0  0  0
 22 15  1  0  0  0  0
 23 16  1  0  0  0  0
 24 27  1  6  0  0  0
 24  5  1  0  0  0  0
 24 25  1  0  0  0  0
 24 26  1  0  0  0  0
 25 26  1  0  0  0  0
 25 29  1  0  0  0  0
 26 30  1  1  0  0  0
 28 25  1  0  0  0  0
 31 26  1  0  0  0  0
 32 31  1  0  0  0  0
 33 32  1  0  0  0  0
 34 35  1  0  0  0  0
 34 33  1  0  0  0  0
 35 36  1  0  0  0  0
 36 31  1  0  0  0  0
M  END
>  <minimizedAffinity>
-6.12487411

>  <minimizedRMSD>
0.54399693

$$$$
