
     RDKit          3D

 29 30  0  0  0  0  0  0  0  0999 V2000
   37.9734   28.8834   43.3716 C   0  0  0  0  0  0  0  0  0  0  0  0
   38.0832   27.4745   43.3083 C   0  0  0  0  0  0  0  0  0  0  0  0
   37.4376   26.8165   42.2582 C   0  0  0  0  0  0  0  0  0  0  0  0
   36.7290   27.5714   41.3408 N   0  0  0  0  0  0  0  0  0  0  0  0
   36.6519   28.9190   41.4424 C   0  0  0  0  0  0  0  0  0  0  0  0
   37.2776   29.5470   42.4584 N   0  0  0  0  0  0  0  0  0  0  0  0
   37.5319   25.3362   42.1608 C   0  0  0  0  0  0  0  0  0  0  0  0
   37.6584   25.0510   40.8084 F   0  0  0  0  0  0  0  0  0  0  0  0
   38.6291   24.8423   42.7877 F   0  0  0  0  0  0  0  0  0  0  0  0
   36.3738   24.7136   42.6366 F   0  0  0  0  0  0  0  0  0  0  0  0
   38.4871   29.3575   44.1993 H   0  0  0  0  0  0  0  0  0  0  0  0
   38.6513   26.9297   44.0533 H   0  0  0  0  0  0  0  0  0  0  0  0
   35.8928   29.6824   40.4523 C   0  0  0  0  0  0  0  0  0  0  0  0
   36.7112   30.1626   39.2939 C   0  0  0  0  0  0  0  0  0  0  0  0
   35.8619   30.7968   38.2557 C   0  0  0  0  0  0  0  0  0  0  0  0
   34.5629   31.3631   38.6681 C   0  0  0  0  0  0  0  0  0  0  0  0
   34.1711   31.3184   40.0942 C   0  0  0  0  0  0  0  0  0  0  0  0
   35.2875   30.9579   41.0417 C   0  0  0  0  0  0  0  0  0  0  0  0
   35.0492   29.0631   40.0545 H   0  0  0  0  0  0  0  0  0  0  0  0
   37.4622   30.8932   39.6646 H   0  0  0  0  0  0  0  0  0  0  0  0
   37.3325   29.3356   38.8556 H   0  0  0  0  0  0  0  0  0  0  0  0
   36.4885   31.5940   37.7554 H   0  0  0  0  0  0  0  0  0  0  0  0
   35.7432   30.0427   37.4215 H   0  0  0  0  0  0  0  0  0  0  0  0
   34.4757   32.4302   38.3321 H   0  0  0  0  0  0  0  0  0  0  0  0
   33.7455   30.8517   38.0823 H   0  0  0  0  0  0  0  0  0  0  0  0
   33.3739   30.5413   40.2842 H   0  0  0  0  0  0  0  0  0  0  0  0
   33.7403   32.2752   40.4581 H   0  0  0  0  0  0  0  0  0  0  0  0
   36.0719   31.7395   41.0607 H   0  0  0  0  0  0  0  0  0  0  0  0
   34.8259   30.7536   42.0219 H   0  0  0  0  0  0  0  0  0  0  0  0
  2  1  2  0
  3  2  1  0
  4  5  1  0
  4  3  2  0
  5  6  2  0
  6  1  1  0
  7  3  1  0
  7 10  1  0
  7  9  1  0
  8  7  1  0
  1 11  1  0
  2 12  1  0
 13 14  1  0
 14 15  1  0
 15 16  1  0
 16 17  1  0
 17 18  1  0
 18 13  1  0
 13 19  1  0
 14 20  1  0
 14 21  1  0
 15 22  1  0
 15 23  1  0
 16 24  1  0
 16 25  1  0
 17 26  1  0
 17 27  1  0
 18 28  1  0
 18 29  1  0
  5 13  1  0
M  ISO  2  11  14  12  14
M  END
>  <DihAtoms>  (1) 
3,4,12,13

>  <DihDeg>  (1) 
58.043291173857746

$$$$
