
     RDKit          3D

 29 30  0  0  0  0  0  0  0  0999 V2000
   37.9734   28.8834   43.3716 C   0  0  0  0  0  0  0  0  0  0  0  0
   38.0832   27.4745   43.3083 C   0  0  0  0  0  0  0  0  0  0  0  0
   37.4376   26.8165   42.2582 C   0  0  0  0  0  0  0  0  0  0  0  0
   36.7290   27.5714   41.3408 N   0  0  0  0  0  0  0  0  0  0  0  0
   36.6519   28.9190   41.4424 C   0  0  0  0  0  0  0  0  0  0  0  0
   37.2776   29.5470   42.4584 N   0  0  0  0  0  0  0  0  0  0  0  0
   37.5319   25.3362   42.1608 C   0  0  0  0  0  0  0  0  0  0  0  0
   37.6584   25.0510   40.8084 F   0  0  0  0  0  0  0  0  0  0  0  0
   38.6291   24.8423   42.7877 F   0  0  0  0  0  0  0  0  0  0  0  0
   36.3738   24.7136   42.6366 F   0  0  0  0  0  0  0  0  0  0  0  0
   38.4871   29.3575   44.1993 H   0  0  0  0  0  0  0  0  0  0  0  0
   38.6513   26.9297   44.0533 H   0  0  0  0  0  0  0  0  0  0  0  0
   35.8928   29.6824   40.4523 C   0  0  0  0  0  0  0  0  0  0  0  0
   36.6002   29.8581   39.1442 C   0  0  0  0  0  0  0  0  0  0  0  0
   35.7246   30.5063   38.1369 C   0  0  0  0  0  0  0  0  0  0  0  0
   34.6126   31.3485   38.6188 C   0  0  0  0  0  0  0  0  0  0  0  0
   34.4329   31.5516   40.0733 C   0  0  0  0  0  0  0  0  0  0  0  0
   35.6009   31.1100   40.9186 C   0  0  0  0  0  0  0  0  0  0  0  0
   34.9089   29.1853   40.2563 H   0  0  0  0  0  0  0  0  0  0  0  0
   37.5083   30.4774   39.3087 H   0  0  0  0  0  0  0  0  0  0  0  0
   37.0043   28.8834   38.7586 H   0  0  0  0  0  0  0  0  0  0  0  0
   36.3943   31.1069   37.4520 H   0  0  0  0  0  0  0  0  0  0  0  0
   35.3610   29.6907   37.4431 H   0  0  0  0  0  0  0  0  0  0  0  0
   34.6552   32.3642   38.1435 H   0  0  0  0  0  0  0  0  0  0  0  0
   33.6445   30.9289   38.2193 H   0  0  0  0  0  0  0  0  0  0  0  0
   33.5544   30.9641   40.4717 H   0  0  0  0  0  0  0  0  0  0  0  0
   34.2251   32.6086   40.3435 H   0  0  0  0  0  0  0  0  0  0  0  0
   36.4983   31.7299   40.7263 H   0  0  0  0  0  0  0  0  0  0  0  0
   35.2611   31.1158   41.9675 H   0  0  0  0  0  0  0  0  0  0  0  0
  2  1  2  0
  3  2  1  0
  4  5  1  0
  4  3  2  0
  5  6  2  0
  6  1  1  0
  7  3  1  0
  7 10  1  0
  7  9  1  0
  8  7  1  0
  1 11  1  0
  2 12  1  0
 13 14  1  0
 14 15  1  0
 15 16  1  0
 16 17  1  0
 17 18  1  0
 18 13  1  0
 13 19  1  0
 14 20  1  0
 14 21  1  0
 15 22  1  0
 15 23  1  0
 16 24  1  0
 16 25  1  0
 17 26  1  0
 17 27  1  0
 18 28  1  0
 18 29  1  0
  5 13  1  0
M  ISO  2  11  14  12  14
M  END
>  <DihAtoms>  (1) 
3,4,12,13

>  <DihDeg>  (1) 
58.043291173857746

$$$$
