REMARK  Name = 
REMARK  2 active torsions:
REMARK  status: ('A' for Active; 'I' for Inactive)
REMARK    1  A    between atoms: C_3  and  C_7
REMARK    2  A    between atoms: C_5  and  C_13
REMARK                            x       y       z     vdW  Elec       q    Type
REMARK                         _______ _______ _______ _____ _____    ______ ____
ROOT
ATOM      1  C   UNL     1      37.973  28.883  43.372  0.00  0.00    +0.000 A 
ATOM      2  C   UNL     1      38.083  27.474  43.308  0.00  0.00    +0.000 A 
ATOM      3  C   UNL     1      37.438  26.817  42.258  0.00  0.00    +0.000 A 
ATOM      4  N   UNL     1      36.729  27.571  41.341  0.00  0.00    +0.000 NA
ATOM      5  C   UNL     1      36.652  28.919  41.442  0.00  0.00    +0.000 A 
ATOM      6  N   UNL     1      37.278  29.547  42.458  0.00  0.00    +0.000 NA
ATOM      7  H   UNL     1      38.487  29.358  44.199  0.00  0.00    +0.000 HD
ATOM      8  H   UNL     1      38.651  26.930  44.053  0.00  0.00    +0.000 HD
ENDROOT
BRANCH   5   9
ATOM      9  C   UNL     1      35.893  29.682  40.452  0.00  0.00    +0.000 C 
ATOM     10  C   UNL     1      35.902  29.081  39.081  0.00  0.00    +0.000 C 
ATOM     11  C   UNL     1      34.997  29.814  38.161  0.00  0.00    +0.000 C 
ATOM     12  C   UNL     1      34.687  31.225  38.467  0.00  0.00    +0.000 C 
ATOM     13  C   UNL     1      35.313  31.868  39.643  0.00  0.00    +0.000 C 
ATOM     14  C   UNL     1      36.454  31.091  40.251  0.00  0.00    +0.000 C 
ENDBRANCH   5   9
BRANCH   3  15
ATOM     15  C   UNL     1      37.532  25.336  42.161  0.00  0.00    +0.000 C 
ATOM     16  F   UNL     1      37.658  25.051  40.808  0.00  0.00    +0.000 F 
ATOM     17  F   UNL     1      38.629  24.842  42.788  0.00  0.00    +0.000 F 
ATOM     18  F   UNL     1      36.374  24.714  42.637  0.00  0.00    +0.000 F 
ENDBRANCH   3  15
TORSDOF 2
