
 OpenBabel03242508013D

 40 43  0  0  1  0  0  0  0  0999 V2000
   34.2170   26.7400   37.1610 N   0  0  0  0  0  0  0  0  0  0  0  0
   33.9120   28.0580   37.6610 C   0  0  0  0  0  0  0  0  0  0  0  0
   34.6020   29.1700   36.9070 C   0  0  0  0  0  0  0  0  0  0  0  0
   35.9080   28.7110   36.3230 C   0  0  2  0  0  0  0  0  0  0  0  0
   36.5280   27.5830   37.1270 C   0  0  0  0  0  0  0  0  0  0  0  0
   35.6230   26.4130   37.2790 C   0  0  1  0  0  0  0  0  0  0  0  0
   33.9060   26.6690   36.1870 H   0  0  0  0  0  0  0  0  0  0  0  0
   32.8150   28.1660   37.7030 H   0  0  0  0  0  0  0  0  0  0  0  0
   34.2630   28.1070   38.7150 H   0  0  0  0  0  0  0  0  0  0  0  0
   33.9330   29.5310   36.0960 H   0  0  0  0  0  0  0  0  0  0  0  0
   34.7730   30.0430   37.5800 H   0  0  0  0  0  0  0  0  0  0  0  0
   35.7860   28.3400   35.3000 H   0  0  0  0  0  0  0  0  0  0  0  0
   37.4550   27.2930   36.6030 H   0  0  0  0  0  0  0  0  0  0  0  0
   36.8290   28.0190   38.0980 H   0  0  0  0  0  0  0  0  0  0  0  0
   35.8500   25.6950   36.4540 H   0  0  0  0  0  0  0  0  0  0  0  0
   35.7920   25.6460   38.5660 C   0  0  0  0  0  0  0  0  0  0  0  0
   37.2360   25.5100   38.9990 C   0  0  0  0  0  0  0  0  0  0  0  0
   37.1780   24.9750   40.4360 C   0  0  0  0  0  0  0  0  0  0  0  0
   36.2120   23.8230   40.5300 C   0  0  0  0  0  0  0  0  0  0  0  0
   35.9510   23.2150   39.1720 C   0  0  0  0  0  0  0  0  0  0  0  0
   35.3450   24.2180   38.2260 C   0  0  0  0  0  0  0  0  0  0  0  0
   37.0850   30.0860   36.3950 S   0  0  0  0  0  0  0  0  0  0  0  0
   37.2190   30.4800   40.4010 C   0  0  0  0  0  0  0  0  0  0  0  0
   37.2870   31.8370   40.6160 C   0  0  0  0  0  0  0  0  0  0  0  0
   37.2930   32.6760   39.5220 C   0  0  0  0  0  0  0  0  0  0  0  0
   37.2300   32.1130   38.2470 C   0  0  0  0  0  0  0  0  0  0  0  0
   37.1630   30.7480   38.0500 C   0  0  0  0  0  0  0  0  0  0  0  0
   37.1590   29.9520   39.1350 N   0  0  0  0  0  0  0  0  0  0  0  0
   37.3350   32.2480   41.6180 H   0  0  0  0  0  0  0  0  0  0  0  0
   37.3440   33.7410   39.5990 H   0  0  0  0  0  0  0  0  0  0  0  0
   37.2360   32.7730   37.3870 H   0  0  0  0  0  0  0  0  0  0  0  0
   38.1480   28.9190   43.5730 C   0  0  0  0  0  0  0  0  0  0  0  0
   37.2520   27.8340   43.6770 C   0  0  0  0  0  0  0  0  0  0  0  0
   36.3260   27.6540   42.6340 C   0  0  0  0  0  0  0  0  0  0  0  0
   36.3590   28.5310   41.6090 N   0  0  0  0  0  0  0  0  0  0  0  0
   37.2100   29.5430   41.5340 C   0  0  0  0  0  0  0  0  0  0  0  0
   38.0940   29.7270   42.5120 N   0  0  0  0  0  0  0  0  0  0  0  0
   38.8310   29.0130   44.3900 H   0  0  0  0  0  0  0  0  0  0  0  0
   37.2230   27.1270   44.5010 H   0  0  0  0  0  0  0  0  0  0  0  0
   35.5970   26.8530   42.6180 H   0  0  0  0  0  0  0  0  0  0  0  0
  1  6  1  0  0  0  0
  1  2  1  0  0  0  0
  2  8  1  0  0  0  0
  2  9  1  0  0  0  0
  3 11  1  0  0  0  0
  3  2  1  0  0  0  0
  4 12  1  6  0  0  0
  4 22  1  0  0  0  0
  4  3  1  0  0  0  0
  4  5  1  0  0  0  0
  5  6  1  0  0  0  0
  5 14  1  0  0  0  0
  6 15  1  6  0  0  0
  6 16  1  0  0  0  0
  7  1  1  0  0  0  0
 10  3  1  0  0  0  0
 13  5  1  0  0  0  0
 16 17  1  0  0  0  0
 17 18  1  0  0  0  0
 18 19  1  0  0  0  0
 20 19  1  0  0  0  0
 21 16  1  0  0  0  0
 21 20  1  0  0  0  0
 22 27  1  0  0  0  0
 23 24  1  0  0  0  0
 23 36  1  0  0  0  0
 24 29  1  0  0  0  0
 25 30  1  0  0  0  0
 25 24  2  0  0  0  0
 26 25  1  0  0  0  0
 27 26  2  0  0  0  0
 27 28  1  0  0  0  0
 28 23  2  0  0  0  0
 31 26  1  0  0  0  0
 32 33  1  0  0  0  0
 32 38  1  0  0  0  0
 33 39  1  0  0  0  0
 34 33  2  0  0  0  0
 35 34  1  0  0  0  0
 36 35  2  0  0  0  0
 36 37  1  0  0  0  0
 37 32  2  0  0  0  0
 40 34  1  0  0  0  0
M  END
>  <minimizedAffinity>
-5.49445152

>  <minimizedRMSD>
1.22309804

$$$$
