
 OpenBabel03242508373D

 35 38  0  0  0  0  0  0  0  0999 V2000
   36.5660   30.9120   40.4250 C   0  0  0  0  0  0  0  0  0  0  0  0
   36.4620   31.1060   39.0620 N   0  0  0  0  0  0  0  0  0  0  0  0
   37.2760   32.0720   38.7230 O   0  0  0  0  0  0  0  0  0  0  0  0
   37.8760   32.4840   39.8030 C   0  0  0  0  0  0  0  0  0  0  0  0
   37.4650   31.7950   40.8690 N   0  0  0  0  0  0  0  0  0  0  0  0
   38.8650   33.5590   39.8270 C   0  0  0  0  0  0  0  0  0  0  0  0
   38.6810   34.8640   40.2300 C   0  0  0  0  0  0  0  0  0  0  0  0
   39.8410   35.5680   40.1070 C   0  0  0  0  0  0  0  0  0  0  0  0
   40.7360   34.6430   39.6150 C   0  0  0  0  0  0  0  0  0  0  0  0
   40.1250   33.5260   39.4780 O   0  0  0  0  0  0  0  0  0  0  0  0
   37.7260   35.2560   40.5930 H   0  0  0  0  0  0  0  0  0  0  0  0
   39.9910   36.6150   40.3510 H   0  0  0  0  0  0  0  0  0  0  0  0
   42.1830   34.9210   39.3000 C   0  0  0  0  0  0  0  0  0  0  0  0
   43.0810   34.1960   40.2410 C   0  0  0  0  0  0  0  0  0  0  0  0
   43.5780   32.8610   39.7550 C   0  0  0  0  0  0  0  0  0  0  0  0
   44.1490   33.0900   38.3650 C   0  0  0  0  0  0  0  0  0  0  0  0
   42.9060   33.3070   37.4900 C   0  0  0  0  0  0  0  0  0  0  0  0
   42.4040   34.6740   37.8490 C   0  0  0  0  0  0  0  0  0  0  0  0
   35.9080   30.0020   41.2720 O   0  0  0  0  0  0  0  0  0  0  0  0
   38.0220   27.8950   43.3560 C   0  0  0  0  0  0  0  0  0  0  0  0
   37.8830   26.6850   42.6120 C   0  0  0  0  0  0  0  0  0  0  0  0
   37.0880   26.7000   41.4830 C   0  0  0  0  0  0  0  0  0  0  0  0
   36.4930   27.8630   41.1510 N   0  0  0  0  0  0  0  0  0  0  0  0
   36.6210   28.9830   41.8380 C   0  0  0  0  0  0  0  0  0  0  0  0
   37.3880   29.0150   42.9520 N   0  0  0  0  0  0  0  0  0  0  0  0
   38.5960   28.0600   44.2530 H   0  0  0  0  0  0  0  0  0  0  0  0
   38.4870   25.9610   43.1400 H   0  0  0  0  0  0  0  0  0  0  0  0
   37.0300   25.4100   40.8310 C   0  0  0  0  0  0  0  0  0  0  0  0
   37.6080   25.4710   39.8620 H   0  0  0  0  0  0  0  0  0  0  0  0
   35.9670   25.2770   40.4700 H   0  0  0  0  0  0  0  0  0  0  0  0
   37.3990   24.2440   41.6470 C   0  0  0  0  0  0  0  0  0  0  0  0
   38.1330   24.3600   42.4410 H   0  0  0  0  0  0  0  0  0  0  0  0
   36.4790   23.8300   42.1730 H   0  0  0  0  0  0  0  0  0  0  0  0
   37.9930   22.8560   40.6140 S   0  0  0  0  0  0  0  0  0  0  0  0
   38.5060   21.8750   41.5040 H   0  0  0  0  0  0  0  0  0  0  0  0
  1  5  1  0  0  0  0
  1 19  1  0  0  0  0
  2  1  2  0  0  0  0
  3  2  1  0  0  0  0
  3  4  1  0  0  0  0
  4  6  1  0  0  0  0
  4  5  2  0  0  0  0
  6  7  2  0  0  0  0
  7 11  1  0  0  0  0
  8  7  1  0  0  0  0
  8 12  1  0  0  0  0
  9  8  2  0  0  0  0
 10  9  1  0  0  0  0
 10  6  1  0  0  0  0
 13  9  1  0  0  0  0
 13 14  1  0  0  0  0
 15 14  1  0  0  0  0
 16 15  1  0  0  0  0
 17 18  1  0  0  0  0
 17 16  1  0  0  0  0
 18 13  1  0  0  0  0
 19 24  1  0  0  0  0
 20 26  1  0  0  0  0
 21 27  1  0  0  0  0
 21 20  2  0  0  0  0
 22 21  1  0  0  0  0
 23 22  2  0  0  0  0
 23 24  1  0  0  0  0
 24 25  2  0  0  0  0
 25 20  1  0  0  0  0
 28 22  1  0  0  0  0
 28 31  1  0  0  0  0
 29 28  1  0  0  0  0
 30 28  1  0  0  0  0
 31 33  1  0  0  0  0
 31 32  1  0  0  0  0
 34 35  1  0  0  0  0
 34 31  1  0  0  0  0
M  END
>  <minimizedAffinity>
-5.84300756

>  <minimizedRMSD>
0.529892206

$$$$
