
     RDKit          3D

 29 30  0  0  0  0  0  0  0  0999 V2000
   37.9734   28.8834   43.3716 C   0  0  0  0  0  0  0  0  0  0  0  0
   38.0832   27.4745   43.3083 C   0  0  0  0  0  0  0  0  0  0  0  0
   37.4376   26.8165   42.2582 C   0  0  0  0  0  0  0  0  0  0  0  0
   36.7290   27.5714   41.3408 N   0  0  0  0  0  0  0  0  0  0  0  0
   36.6519   28.9190   41.4424 C   0  0  0  0  0  0  0  0  0  0  0  0
   37.2776   29.5470   42.4584 N   0  0  0  0  0  0  0  0  0  0  0  0
   37.5319   25.3362   42.1608 C   0  0  0  0  0  0  0  0  0  0  0  0
   37.6584   25.0510   40.8084 F   0  0  0  0  0  0  0  0  0  0  0  0
   38.6291   24.8423   42.7877 F   0  0  0  0  0  0  0  0  0  0  0  0
   36.3738   24.7136   42.6366 F   0  0  0  0  0  0  0  0  0  0  0  0
   38.4871   29.3575   44.1993 H   0  0  0  0  0  0  0  0  0  0  0  0
   38.6513   26.9297   44.0533 H   0  0  0  0  0  0  0  0  0  0  0  0
   35.8928   29.6824   40.4523 C   0  0  0  0  0  0  0  0  0  0  0  0
   34.4411   29.8390   40.7848 C   0  0  0  0  0  0  0  0  0  0  0  0
   33.7599   30.7441   39.8266 C   0  0  0  0  0  0  0  0  0  0  0  0
   34.3421   30.8987   38.4793 C   0  0  0  0  0  0  0  0  0  0  0  0
   35.5491   30.1235   38.1165 C   0  0  0  0  0  0  0  0  0  0  0  0
   35.8951   29.0133   39.0765 C   0  0  0  0  0  0  0  0  0  0  0  0
   36.3379   30.7024   40.3305 H   0  0  0  0  0  0  0  0  0  0  0  0
   33.9594   28.8377   40.7653 H   0  0  0  0  0  0  0  0  0  0  0  0
   34.2947   30.1886   41.8423 H   0  0  0  0  0  0  0  0  0  0  0  0
   32.6874   30.3953   39.7454 H   0  0  0  0  0  0  0  0  0  0  0  0
   33.6371   31.7411   40.3458 H   0  0  0  0  0  0  0  0  0  0  0  0
   33.5681   30.6976   37.6920 H   0  0  0  0  0  0  0  0  0  0  0  0
   34.5846   31.9882   38.3153 H   0  0  0  0  0  0  0  0  0  0  0  0
   36.4713   30.7749   38.0895 H   0  0  0  0  0  0  0  0  0  0  0  0
   35.4852   29.6643   37.1073 H   0  0  0  0  0  0  0  0  0  0  0  0
   35.1232   28.2192   39.0737 H   0  0  0  0  0  0  0  0  0  0  0  0
   36.9075   28.6637   38.8145 H   0  0  0  0  0  0  0  0  0  0  0  0
  2  1  2  0
  3  2  1  0
  4  5  1  0
  4  3  2  0
  5  6  2  0
  6  1  1  0
  7  3  1  0
  7 10  1  0
  7  9  1  0
  8  7  1  0
  1 11  1  0
  2 12  1  0
 13 14  1  0
 14 15  1  0
 15 16  1  0
 16 17  1  0
 17 18  1  0
 18 13  1  0
 13 19  1  0
 14 20  1  0
 14 21  1  0
 15 22  1  0
 15 23  1  0
 16 24  1  0
 16 25  1  0
 17 26  1  0
 17 27  1  0
 18 28  1  0
 18 29  1  0
  5 13  1  0
M  ISO  2  11  14  12  14
M  END
>  <DihAtoms>  (1) 
3,4,12,13

>  <DihDeg>  (1) 
58.043291173857746

$$$$
