
 OpenBabel03242505163D

 35 38  0  0  1  0  0  0  0  0999 V2000
   36.6610   30.4580   40.4470 C   0  0  1  0  0  0  0  0  0  0  0  0
   37.3090   31.7720   40.5900 C   0  0  0  0  0  0  0  0  0  0  0  0
   37.1480   32.3660   39.1960 C   0  0  0  0  0  0  0  0  0  0  0  0
   36.8890   31.2080   38.2650 C   0  0  0  0  0  0  0  0  0  0  0  0
   37.1560   29.9690   39.0930 C   0  0  2  0  0  0  0  0  0  0  0  0
   35.5570   30.5410   40.3740 H   0  0  0  0  0  0  0  0  0  0  0  0
   36.8870   32.4330   41.3710 H   0  0  0  0  0  0  0  0  0  0  0  0
   38.4040   31.6070   40.7510 H   0  0  0  0  0  0  0  0  0  0  0  0
   36.2380   33.0010   39.2190 H   0  0  0  0  0  0  0  0  0  0  0  0
   38.0550   32.9420   38.8900 H   0  0  0  0  0  0  0  0  0  0  0  0
   35.8600   31.2290   37.8620 H   0  0  0  0  0  0  0  0  0  0  0  0
   37.6500   31.2470   37.4410 H   0  0  0  0  0  0  0  0  0  0  0  0
   38.2230   29.8480   39.1760 H   0  0  0  0  0  0  0  0  0  0  0  0
   38.4130   28.9720   43.3410 C   0  0  0  0  0  0  0  0  0  0  0  0
   37.5620   27.8500   43.6620 C   0  0  0  0  0  0  0  0  0  0  0  0
   36.4110   27.6360   42.8570 C   0  0  0  0  0  0  0  0  0  0  0  0
   36.1400   28.4730   41.8250 N   0  0  0  0  0  0  0  0  0  0  0  0
   36.9840   29.5220   41.5680 C   0  0  0  0  0  0  0  0  0  0  0  0
   38.0990   29.7750   42.3030 N   0  0  0  0  0  0  0  0  0  0  0  0
   39.2670   29.1020   43.9660 H   0  0  0  0  0  0  0  0  0  0  0  0
   37.7860   27.1950   44.4810 H   0  0  0  0  0  0  0  0  0  0  0  0
   35.7650   26.8090   43.0760 H   0  0  0  0  0  0  0  0  0  0  0  0
   36.4620   28.7890   38.6160 C   0  0  0  0  0  0  0  0  0  0  0  0
   35.2210   28.4420   38.0910 C   0  0  0  0  0  0  0  0  0  0  0  0
   34.9820   27.1540   37.7630 C   0  0  0  0  0  0  0  0  0  0  0  0
   35.9660   26.2000   37.9500 C   0  0  0  0  0  0  0  0  0  0  0  0
   37.3860   27.1950   38.6620 S   0  0  0  0  0  0  0  0  0  0  0  0
   34.5560   29.2810   38.0000 H   0  0  0  0  0  0  0  0  0  0  0  0
   34.0300   26.8450   37.3530 H   0  0  0  0  0  0  0  0  0  0  0  0
   35.9780   24.8020   37.6940 C   0  0  0  0  0  0  0  0  0  0  0  0
   36.5490   24.0680   38.8510 C   0  0  0  0  0  0  0  0  0  0  0  0
   35.5450   23.4830   39.8040 C   0  0  0  0  0  0  0  0  0  0  0  0
   34.6130   22.6050   38.9940 C   0  0  0  0  0  0  0  0  0  0  0  0
   33.8200   23.5510   38.1280 C   0  0  0  0  0  0  0  0  0  0  0  0
   34.6730   24.3250   37.1690 C   0  0  0  0  0  0  0  0  0  0  0  0
  1  6  1  6  0  0  0
  1  2  1  0  0  0  0
  1 18  1  0  0  0  0
  2  8  1  0  0  0  0
  2  7  1  0  0  0  0
  3  9  1  0  0  0  0
  3  2  1  0  0  0  0
  4  5  1  0  0  0  0
  4  3  1  0  0  0  0
  5 13  1  1  0  0  0
  5  1  1  0  0  0  0
 10  3  1  0  0  0  0
 11  4  1  0  0  0  0
 12  4  1  0  0  0  0
 14 15  1  0  0  0  0
 14 20  1  0  0  0  0
 15 21  1  0  0  0  0
 16 22  1  0  0  0  0
 16 15  2  0  0  0  0
 17 16  1  0  0  0  0
 18 17  2  0  0  0  0
 18 19  1  0  0  0  0
 19 14  2  0  0  0  0
 23 27  1  0  0  0  0
 23  5  1  0  0  0  0
 24 23  2  0  0  0  0
 25 26  2  0  0  0  0
 25 24  1  0  0  0  0
 26 27  1  0  0  0  0
 28 24  1  0  0  0  0
 29 25  1  0  0  0  0
 30 26  1  0  0  0  0
 30 31  1  0  0  0  0
 31 32  1  0  0  0  0
 33 32  1  0  0  0  0
 34 33  1  0  0  0  0
 35 30  1  0  0  0  0
 35 34  1  0  0  0  0
M  END
>  <minimizedAffinity>
-5.27705669

>  <minimizedRMSD>
1.26263344

$$$$
