
     RDKit          3D

 29 30  0  0  0  0  0  0  0  0999 V2000
   37.9734   28.8834   43.3716 C   0  0  0  0  0  0  0  0  0  0  0  0
   38.0832   27.4745   43.3083 C   0  0  0  0  0  0  0  0  0  0  0  0
   37.4376   26.8165   42.2582 C   0  0  0  0  0  0  0  0  0  0  0  0
   36.7290   27.5714   41.3408 N   0  0  0  0  0  0  0  0  0  0  0  0
   36.6519   28.9190   41.4424 C   0  0  0  0  0  0  0  0  0  0  0  0
   37.2776   29.5470   42.4584 N   0  0  0  0  0  0  0  0  0  0  0  0
   37.5319   25.3362   42.1608 C   0  0  0  0  0  0  0  0  0  0  0  0
   37.6584   25.0510   40.8084 F   0  0  0  0  0  0  0  0  0  0  0  0
   38.6291   24.8423   42.7877 F   0  0  0  0  0  0  0  0  0  0  0  0
   36.3738   24.7136   42.6366 F   0  0  0  0  0  0  0  0  0  0  0  0
   38.4871   29.3575   44.1993 H   0  0  0  0  0  0  0  0  0  0  0  0
   38.6513   26.9297   44.0533 H   0  0  0  0  0  0  0  0  0  0  0  0
   35.8928   29.6824   40.4523 C   0  0  0  0  0  0  0  0  0  0  0  0
   34.5522   30.1435   40.9345 C   0  0  0  0  0  0  0  0  0  0  0  0
   33.8972   31.0346   39.9454 C   0  0  0  0  0  0  0  0  0  0  0  0
   34.2924   30.9132   38.5286 C   0  0  0  0  0  0  0  0  0  0  0  0
   35.2873   29.8903   38.1374 C   0  0  0  0  0  0  0  0  0  0  0  0
   35.5817   28.8612   39.1995 C   0  0  0  0  0  0  0  0  0  0  0  0
   36.4782   30.5802   40.1286 H   0  0  0  0  0  0  0  0  0  0  0  0
   33.9134   29.2535   41.1212 H   0  0  0  0  0  0  0  0  0  0  0  0
   34.6229   30.6407   41.9393 H   0  0  0  0  0  0  0  0  0  0  0  0
   32.7816   30.8823   40.0487 H   0  0  0  0  0  0  0  0  0  0  0  0
   34.0193   32.0931   40.3241 H   0  0  0  0  0  0  0  0  0  0  0  0
   33.3886   30.7636   37.8806 H   0  0  0  0  0  0  0  0  0  0  0  0
   34.6856   31.9109   38.1783 H   0  0  0  0  0  0  0  0  0  0  0  0
   36.2908   30.3522   37.9020 H   0  0  0  0  0  0  0  0  0  0  0  0
   35.0004   29.3308   37.2219 H   0  0  0  0  0  0  0  0  0  0  0  0
   34.6968   28.2288   39.4081 H   0  0  0  0  0  0  0  0  0  0  0  0
   36.4723   28.3015   38.8690 H   0  0  0  0  0  0  0  0  0  0  0  0
  2  1  2  0
  3  2  1  0
  4  5  1  0
  4  3  2  0
  5  6  2  0
  6  1  1  0
  7  3  1  0
  7 10  1  0
  7  9  1  0
  8  7  1  0
  1 11  1  0
  2 12  1  0
 13 14  1  0
 14 15  1  0
 15 16  1  0
 16 17  1  0
 17 18  1  0
 18 13  1  0
 13 19  1  0
 14 20  1  0
 14 21  1  0
 15 22  1  0
 15 23  1  0
 16 24  1  0
 16 25  1  0
 17 26  1  0
 17 27  1  0
 18 28  1  0
 18 29  1  0
  5 13  1  0
M  ISO  2  11  14  12  14
M  END
>  <DihAtoms>  (1) 
3,4,12,13

>  <DihDeg>  (1) 
58.043291173857746

$$$$
