
     RDKit          3D

 29 30  0  0  0  0  0  0  0  0999 V2000
   37.9734   28.8834   43.3716 C   0  0  0  0  0  0  0  0  0  0  0  0
   38.0832   27.4745   43.3083 C   0  0  0  0  0  0  0  0  0  0  0  0
   37.4376   26.8165   42.2582 C   0  0  0  0  0  0  0  0  0  0  0  0
   36.7290   27.5714   41.3408 N   0  0  0  0  0  0  0  0  0  0  0  0
   36.6519   28.9190   41.4424 C   0  0  0  0  0  0  0  0  0  0  0  0
   37.2776   29.5470   42.4584 N   0  0  0  0  0  0  0  0  0  0  0  0
   37.5319   25.3362   42.1608 C   0  0  0  0  0  0  0  0  0  0  0  0
   37.6584   25.0510   40.8084 F   0  0  0  0  0  0  0  0  0  0  0  0
   38.6291   24.8423   42.7877 F   0  0  0  0  0  0  0  0  0  0  0  0
   36.3738   24.7136   42.6366 F   0  0  0  0  0  0  0  0  0  0  0  0
   38.4871   29.3575   44.1993 H   0  0  0  0  0  0  0  0  0  0  0  0
   38.6513   26.9297   44.0533 H   0  0  0  0  0  0  0  0  0  0  0  0
   35.8928   29.6824   40.4523 C   0  0  0  0  0  0  0  0  0  0  0  0
   34.9713   30.7033   41.0448 C   0  0  0  0  0  0  0  0  0  0  0  0
   34.3450   31.5431   39.9941 C   0  0  0  0  0  0  0  0  0  0  0  0
   34.2285   30.9849   38.6329 C   0  0  0  0  0  0  0  0  0  0  0  0
   34.6964   29.6058   38.3711 C   0  0  0  0  0  0  0  0  0  0  0  0
   34.9781   28.7920   39.6090 C   0  0  0  0  0  0  0  0  0  0  0  0
   36.5925   30.2046   39.7514 H   0  0  0  0  0  0  0  0  0  0  0  0
   34.1836   30.1790   41.6277 H   0  0  0  0  0  0  0  0  0  0  0  0
   35.4948   31.3387   41.8090 H   0  0  0  0  0  0  0  0  0  0  0  0
   33.3244   31.8457   40.3753 H   0  0  0  0  0  0  0  0  0  0  0  0
   34.8916   32.5330   39.9945 H   0  0  0  0  0  0  0  0  0  0  0  0
   33.1682   31.0511   38.2712 H   0  0  0  0  0  0  0  0  0  0  0  0
   34.7767   31.6637   37.9178 H   0  0  0  0  0  0  0  0  0  0  0  0
   35.6686   29.5966   37.7965 H   0  0  0  0  0  0  0  0  0  0  0  0
   33.9864   29.0142   37.7551 H   0  0  0  0  0  0  0  0  0  0  0  0
   34.0530   28.5971   40.1857 H   0  0  0  0  0  0  0  0  0  0  0  0
   35.5106   27.8830   39.2836 H   0  0  0  0  0  0  0  0  0  0  0  0
  2  1  2  0
  3  2  1  0
  4  5  1  0
  4  3  2  0
  5  6  2  0
  6  1  1  0
  7  3  1  0
  7 10  1  0
  7  9  1  0
  8  7  1  0
  1 11  1  0
  2 12  1  0
 13 14  1  0
 14 15  1  0
 15 16  1  0
 16 17  1  0
 17 18  1  0
 18 13  1  0
 13 19  1  0
 14 20  1  0
 14 21  1  0
 15 22  1  0
 15 23  1  0
 16 24  1  0
 16 25  1  0
 17 26  1  0
 17 27  1  0
 18 28  1  0
 18 29  1  0
  5 13  1  0
M  ISO  2  11  14  12  14
M  END
>  <DihAtoms>  (1) 
3,4,12,13

>  <DihDeg>  (1) 
58.043291173857746

$$$$
