
     RDKit          3D

 29 30  0  0  0  0  0  0  0  0999 V2000
   37.9734   28.8834   43.3716 C   0  0  0  0  0  0  0  0  0  0  0  0
   38.0832   27.4745   43.3083 C   0  0  0  0  0  0  0  0  0  0  0  0
   37.4376   26.8165   42.2582 C   0  0  0  0  0  0  0  0  0  0  0  0
   36.7290   27.5714   41.3408 N   0  0  0  0  0  0  0  0  0  0  0  0
   36.6519   28.9190   41.4424 C   0  0  0  0  0  0  0  0  0  0  0  0
   37.2776   29.5470   42.4584 N   0  0  0  0  0  0  0  0  0  0  0  0
   37.5319   25.3362   42.1608 C   0  0  0  0  0  0  0  0  0  0  0  0
   37.6584   25.0510   40.8084 F   0  0  0  0  0  0  0  0  0  0  0  0
   38.6291   24.8423   42.7877 F   0  0  0  0  0  0  0  0  0  0  0  0
   36.3738   24.7136   42.6366 F   0  0  0  0  0  0  0  0  0  0  0  0
   38.4871   29.3575   44.1993 H   0  0  0  0  0  0  0  0  0  0  0  0
   38.6513   26.9297   44.0533 H   0  0  0  0  0  0  0  0  0  0  0  0
   35.8928   29.6824   40.4523 C   0  0  0  0  0  0  0  0  0  0  0  0
   35.2508   30.9204   40.9979 C   0  0  0  0  0  0  0  0  0  0  0  0
   34.6249   31.7264   39.9208 C   0  0  0  0  0  0  0  0  0  0  0  0
   34.2185   31.0371   38.6808 C   0  0  0  0  0  0  0  0  0  0  0  0
   34.4074   29.5739   38.5680 C   0  0  0  0  0  0  0  0  0  0  0  0
   34.7291   28.8797   39.8675 C   0  0  0  0  0  0  0  0  0  0  0  0
   36.5587   29.9769   39.6018 H   0  0  0  0  0  0  0  0  0  0  0  0
   34.4814   30.6257   41.7437 H   0  0  0  0  0  0  0  0  0  0  0  0
   35.9791   31.5370   41.5905 H   0  0  0  0  0  0  0  0  0  0  0  0
   33.7361   32.2563   40.3763 H   0  0  0  0  0  0  0  0  0  0  0  0
   35.3223   32.5910   39.7090 H   0  0  0  0  0  0  0  0  0  0  0  0
   33.1425   31.2529   38.4465 H   0  0  0  0  0  0  0  0  0  0  0  0
   34.7606   31.5104   37.8120 H   0  0  0  0  0  0  0  0  0  0  0  0
   35.2694   29.3153   37.8857 H   0  0  0  0  0  0  0  0  0  0  0  0
   33.5263   29.0525   38.1374 H   0  0  0  0  0  0  0  0  0  0  0  0
   33.8795   28.9308   40.5760 H   0  0  0  0  0  0  0  0  0  0  0  0
   35.0496   27.8552   39.6156 H   0  0  0  0  0  0  0  0  0  0  0  0
  2  1  2  0
  3  2  1  0
  4  5  1  0
  4  3  2  0
  5  6  2  0
  6  1  1  0
  7  3  1  0
  7 10  1  0
  7  9  1  0
  8  7  1  0
  1 11  1  0
  2 12  1  0
 13 14  1  0
 14 15  1  0
 15 16  1  0
 16 17  1  0
 17 18  1  0
 18 13  1  0
 13 19  1  0
 14 20  1  0
 14 21  1  0
 15 22  1  0
 15 23  1  0
 16 24  1  0
 16 25  1  0
 17 26  1  0
 17 27  1  0
 18 28  1  0
 18 29  1  0
  5 13  1  0
M  ISO  2  11  14  12  14
M  END
>  <DihAtoms>  (1) 
3,4,12,13

>  <DihDeg>  (1) 
58.043291173857746

$$$$
