REMARK  Name = 
REMARK  6 active torsions:
REMARK  status: ('A' for Active; 'I' for Inactive)
REMARK    1  A    between atoms: C_1  and  C_2
REMARK    2  A    between atoms: C_1  and  C_13
REMARK    3  A    between atoms: C_10  and  O_12
REMARK    4  A    between atoms: C_13  and  N_17
REMARK    5  A    between atoms: C_14  and  C_21
REMARK    6  A    between atoms: C_23  and  C_40
REMARK                            x       y       z     vdW  Elec       q    Type
REMARK                         _______ _______ _______ _____ _____    ______ ____
ROOT
ATOM      1  C   UNL     1      36.172  30.080  41.128  0.00  0.00    +0.000 C 
ATOM      2  H   UNL     1      36.795  30.852  40.615  0.00  0.00    +0.000 HD
ATOM      3  H   UNL     1      35.605  30.624  41.911  0.00  0.00    +0.000 HD
ENDROOT
BRANCH   1   7
ATOM      4  C   UNL     1      38.650  28.151  42.719  0.00  0.00    +0.000 A 
ATOM      5  C   UNL     1      37.561  27.344  42.868  0.00  0.00    +0.000 A 
ATOM      6  C   UNL     1      36.487  28.005  42.267  0.00  0.00    +0.000 A 
ATOM      7  N   UNL     1      37.011  29.147  41.807  0.00  0.00    +0.000 N 
ATOM      8  N   UNL     1      38.275  29.272  42.051  0.00  0.00    +0.000 NA
ATOM      9  H   UNL     1      37.621  26.387  43.375  0.00  0.00    +0.000 HD
ATOM     10  H   UNL     1      35.502  27.582  42.244  0.00  0.00    +0.000 HD
BRANCH   4  13
ATOM     11  C   UNL     1      41.574  26.561  44.383  0.00  0.00    +0.000 A 
ATOM     12  C   UNL     1      40.258  26.761  43.955  0.00  0.00    +0.000 A 
ATOM     13  C   UNL     1      40.004  27.913  43.174  0.00  0.00    +0.000 A 
ATOM     14  N   UNL     1      41.011  28.753  42.878  0.00  0.00    +0.000 NA
ATOM     15  C   UNL     1      42.274  28.502  43.326  0.00  0.00    +0.000 A 
ATOM     16  N   UNL     1      42.550  27.416  44.071  0.00  0.00    +0.000 NA
ATOM     17  H   UNL     1      41.841  25.686  44.994  0.00  0.00    +0.000 HD
ATOM     18  H   UNL     1      39.477  26.051  44.221  0.00  0.00    +0.000 HD
BRANCH  15  19
ATOM     19  C   UNL     1      43.305  29.492  42.941  0.00  0.00    +0.000 C 
ATOM     20  C   UNL     1      43.313  30.655  43.917  0.00  0.00    +0.000 C 
ATOM     21  C   UNL     1      44.741  31.166  43.767  0.00  0.00    +0.000 C 
ATOM     22  C   UNL     1      45.514  29.867  43.849  0.00  0.00    +0.000 C 
ATOM     23  C   UNL     1      44.702  28.956  42.949  0.00  0.00    +0.000 C 
ENDBRANCH  15  19
ENDBRANCH   4  13
ENDBRANCH   1   7
BRANCH   1  24
ATOM     24  C   UNL     1      35.285  29.493  40.075  0.00  0.00    +0.000 C 
ATOM     25  H   UNL     1      34.554  30.362  39.961  0.00  0.00    +0.000 HD
ATOM     26  H   UNL     1      34.843  28.575  40.429  0.00  0.00    +0.000 HD
BRANCH  24  27
ATOM     27  C   UNL     1      35.894  29.423  38.721  0.00  0.00    +0.000 A 
ATOM     28  C   UNL     1      37.206  29.588  38.391  0.00  0.00    +0.000 A 
ATOM     29  C   UNL     1      37.717  29.596  37.128  0.00  0.00    +0.000 A 
ATOM     30  C   UNL     1      36.866  29.425  36.056  0.00  0.00    +0.000 A 
ATOM     31  C   UNL     1      35.525  29.251  36.325  0.00  0.00    +0.000 A 
ATOM     32  C   UNL     1      34.726  29.090  35.219  0.00  0.00    +0.000 A 
ATOM     33  C   UNL     1      33.379  28.909  35.371  0.00  0.00    +0.000 A 
ATOM     34  C   UNL     1      32.843  28.888  36.651  0.00  0.00    +0.000 A 
ATOM     35  C   UNL     1      33.692  29.054  37.709  0.00  0.00    +0.000 A 
ATOM     36  C   UNL     1      35.031  29.245  37.630  0.00  0.00    +0.000 A 
ATOM     37  H   UNL     1      37.877  29.724  39.247  0.00  0.00    +0.000 HD
ATOM     38  H   UNL     1      38.784  29.737  37.025  0.00  0.00    +0.000 HD
ATOM     39  H   UNL     1      37.276  29.434  35.056  0.00  0.00    +0.000 HD
ATOM     40  H   UNL     1      35.115  29.100  34.210  0.00  0.00    +0.000 HD
ATOM     41  H   UNL     1      32.711  28.781  34.526  0.00  0.00    +0.000 HD
ATOM     42  H   UNL     1      31.785  28.743  36.764  0.00  0.00    +0.000 HD
BRANCH  35  43
ATOM     43  O   UNL     1      33.096  29.005  38.956  0.00  0.00    +0.000 OA
ATOM     44  H   UNL     1      32.684  28.124  39.262  0.00  0.00    +0.000 HD
ENDBRANCH  35  43
ENDBRANCH  24  27
ENDBRANCH   1  24
TORSDOF 6
