
 OpenBabel03242508373D

 34 37  0  0  0  0  0  0  0  0999 V2000
   35.9430   30.2250   41.0830 O   0  0  0  0  0  0  0  0  0  0  0  0
   37.8990   28.0060   43.2080 C   0  0  0  0  0  0  0  0  0  0  0  0
   37.7490   26.8130   42.4370 C   0  0  0  0  0  0  0  0  0  0  0  0
   37.0030   26.8730   41.2770 C   0  0  0  0  0  0  0  0  0  0  0  0
   36.4600   28.0660   40.9440 N   0  0  0  0  0  0  0  0  0  0  0  0
   36.5990   29.1680   41.6570 C   0  0  0  0  0  0  0  0  0  0  0  0
   37.3180   29.1550   42.7980 N   0  0  0  0  0  0  0  0  0  0  0  0
   38.4440   28.1270   44.1320 H   0  0  0  0  0  0  0  0  0  0  0  0
   38.3050   26.0550   42.9710 H   0  0  0  0  0  0  0  0  0  0  0  0
   36.9320   25.6010   40.5970 C   0  0  0  0  0  0  0  0  0  0  0  0
   37.7120   25.5780   39.7800 H   0  0  0  0  0  0  0  0  0  0  0  0
   35.9680   25.5950   40.0060 H   0  0  0  0  0  0  0  0  0  0  0  0
   36.9730   24.3990   41.4450 C   0  0  0  0  0  0  0  0  0  0  0  0
   35.9270   23.9660   41.5550 H   0  0  0  0  0  0  0  0  0  0  0  0
   37.3370   24.4830   42.4630 H   0  0  0  0  0  0  0  0  0  0  0  0
   37.9060   23.0390   40.6520 S   0  0  0  0  0  0  0  0  0  0  0  0
   37.6830   23.0020   39.2680 H   0  0  0  0  0  0  0  0  0  0  0  0
   36.6780   31.1680   40.3520 C   0  0  0  0  0  0  0  0  0  0  0  0
   36.6970   31.4310   38.9950 N   0  0  0  0  0  0  0  0  0  0  0  0
   37.5430   32.4050   38.7730 O   0  0  0  0  0  0  0  0  0  0  0  0
   38.0480   32.7550   39.9220 C   0  0  0  0  0  0  0  0  0  0  0  0
   37.5380   32.0150   40.9160 N   0  0  0  0  0  0  0  0  0  0  0  0
   39.0350   33.8160   40.0860 C   0  0  0  0  0  0  0  0  0  0  0  0
   38.7950   35.1790   40.1990 C   0  0  0  0  0  0  0  0  0  0  0  0
   39.9930   35.8480   40.3400 C   0  0  0  0  0  0  0  0  0  0  0  0
   40.9440   34.8400   40.3070 C   0  0  0  0  0  0  0  0  0  0  0  0
   40.3450   33.7160   40.1620 O   0  0  0  0  0  0  0  0  0  0  0  0
   37.7890   35.5960   40.1730 H   0  0  0  0  0  0  0  0  0  0  0  0
   40.1230   36.9170   40.4490 H   0  0  0  0  0  0  0  0  0  0  0  0
   42.4000   35.1230   40.4290 C   0  0  0  0  0  0  0  0  0  0  0  0
   43.1620   33.9530   39.8720 C   0  0  0  0  0  0  0  0  0  0  0  0
   44.1350   33.5310   40.9600 C   0  0  0  0  0  0  0  0  0  0  0  0
   43.5640   34.0190   42.2550 C   0  0  0  0  0  0  0  0  0  0  0  0
   42.8230   35.2680   41.8650 C   0  0  0  0  0  0  0  0  0  0  0  0
  1  6  1  0  0  0  0
  2  8  1  0  0  0  0
  3  9  1  0  0  0  0
  3  2  2  0  0  0  0
  4  3  1  0  0  0  0
  5  4  2  0  0  0  0
  5  6  1  0  0  0  0
  6  7  2  0  0  0  0
  7  2  1  0  0  0  0
 10  4  1  0  0  0  0
 10 13  1  0  0  0  0
 11 10  1  0  0  0  0
 12 10  1  0  0  0  0
 13 14  1  0  0  0  0
 13 15  1  0  0  0  0
 16 13  1  0  0  0  0
 17 16  1  0  0  0  0
 18 22  1  0  0  0  0
 18  1  1  0  0  0  0
 19 18  2  0  0  0  0
 20 19  1  0  0  0  0
 20 21  1  0  0  0  0
 21 23  1  0  0  0  0
 21 22  2  0  0  0  0
 23 27  1  0  0  0  0
 23 24  2  0  0  0  0
 24 25  1  0  0  0  0
 25 29  1  0  0  0  0
 26 25  2  0  0  0  0
 26 30  1  0  0  0  0
 27 26  1  0  0  0  0
 28 24  1  0  0  0  0
 30 34  1  0  0  0  0
 31 30  1  0  0  0  0
 31 32  1  0  0  0  0
 32 33  1  0  0  0  0
 34 33  1  0  0  0  0
M  END
>  <minimizedAffinity>
-5.76545525

>  <minimizedRMSD>
0.683966875

$$$$
