
 OpenBabel03242509053D

 34 37  0  0  1  0  0  0  0  0999 V2000
   38.3920   30.8030   39.4040 N   0  0  1  0  0  0  0  0  0  0  0  0
   38.6480   30.0620   38.1300 C   0  0  0  0  0  0  0  0  0  0  0  0
   40.0780   29.6700   38.0100 C   0  0  0  0  0  0  0  0  0  0  0  0
   40.9090   30.6850   38.4280 O   0  0  0  0  0  0  0  0  0  0  0  0
   40.2130   31.8750   38.2560 C   0  0  0  0  0  0  0  0  0  0  0  0
   39.0360   32.0320   39.2520 C   0  0  2  0  0  0  0  0  0  0  0  0
   38.2190   30.6200   37.2970 H   0  0  0  0  0  0  0  0  0  0  0  0
   38.0050   29.1400   38.2280 H   0  0  0  0  0  0  0  0  0  0  0  0
   40.2490   29.4330   36.9290 H   0  0  0  0  0  0  0  0  0  0  0  0
   40.2260   28.7060   38.5700 H   0  0  0  0  0  0  0  0  0  0  0  0
   39.8320   31.8680   37.2210 H   0  0  0  0  0  0  0  0  0  0  0  0
   40.9700   32.6370   38.3320 H   0  0  0  0  0  0  0  0  0  0  0  0
   38.3180   32.6700   38.6810 H   0  0  0  0  0  0  0  0  0  0  0  0
   36.2680   29.8110   40.5160 C   0  0  1  0  0  0  0  0  0  0  0  0
   36.2530   31.2640   40.7750 C   0  0  0  0  0  0  0  0  0  0  0  0
   36.9760   30.8190   39.5840 C   0  0  1  0  0  0  0  0  0  0  0  0
   35.4330   29.2490   40.0950 H   0  0  0  0  0  0  0  0  0  0  0  0
   35.2360   31.7500   40.6810 H   0  0  0  0  0  0  0  0  0  0  0  0
   36.7080   31.6110   41.7180 H   0  0  0  0  0  0  0  0  0  0  0  0
   36.3580   30.9620   38.6440 H   0  0  0  0  0  0  0  0  0  0  0  0
   38.2480   28.7470   43.4190 C   0  0  0  0  0  0  0  0  0  0  0  0
   38.7230   27.4700   43.0330 C   0  0  0  0  0  0  0  0  0  0  0  0
   38.3490   27.0040   41.7560 C   0  0  0  0  0  0  0  0  0  0  0  0
   37.5470   27.8000   40.9480 N   0  0  0  0  0  0  0  0  0  0  0  0
   37.1370   29.0000   41.3870 C   0  0  0  0  0  0  0  0  0  0  0  0
   37.4830   29.4540   42.5930 N   0  0  0  0  0  0  0  0  0  0  0  0
   38.5290   29.1000   44.3820 H   0  0  0  0  0  0  0  0  0  0  0  0
   39.3450   26.8410   43.6450 H   0  0  0  0  0  0  0  0  0  0  0  0
   38.6430   26.0610   41.3540 H   0  0  0  0  0  0  0  0  0  0  0  0
   39.5760   32.8950   40.2920 C   0  0  0  0  0  0  0  0  0  0  0  0
   38.5640   33.9910   40.5900 C   0  0  0  0  0  0  0  0  0  0  0  0
   39.2140   35.3110   40.3850 C   0  0  0  0  0  0  0  0  0  0  0  0
   40.5210   35.0740   39.7070 C   0  0  0  0  0  0  0  0  0  0  0  0
   40.8580   33.6190   39.9010 C   0  0  0  0  0  0  0  0  0  0  0  0
  1  2  1  6  0  0  0
  1 16  1  0  0  0  0
  2  8  1  0  0  0  0
  3  2  1  0  0  0  0
  3  4  1  0  0  0  0
  3 10  1  0  0  0  0
  5 12  1  0  0  0  0
  5  4  1  0  0  0  0
  5  6  1  0  0  0  0
  6 13  1  6  0  0  0
  6  1  1  0  0  0  0
  6 30  1  0  0  0  0
  7  2  1  0  0  0  0
  9  3  1  0  0  0  0
 11  5  1  0  0  0  0
 14 17  1  6  0  0  0
 14 15  1  0  0  0  0
 14 25  1  0  0  0  0
 15 19  1  0  0  0  0
 16 20  1  6  0  0  0
 16 14  1  0  0  0  0
 16 15  1  0  0  0  0
 18 15  1  0  0  0  0
 21 27  1  0  0  0  0
 22 21  1  0  0  0  0
 22 28  1  0  0  0  0
 23 22  2  0  0  0  0
 24 25  2  0  0  0  0
 24 23  1  0  0  0  0
 25 26  1  0  0  0  0
 26 21  2  0  0  0  0
 29 23  1  0  0  0  0
 30 31  1  0  0  0  0
 32 31  1  0  0  0  0
 33 34  1  0  0  0  0
 33 32  1  0  0  0  0
 34 30  1  0  0  0  0
M  END
>  <minimizedAffinity>
-5.01643658

>  <minimizedRMSD>
2.04876351

$$$$
