
 OpenBabel03242509283D

 44 48  0  0  0  0  0  0  0  0999 V2000
   36.0440   30.0530   40.9200 C   0  0  0  0  0  0  0  0  0  0  0  0
   36.7120   30.7830   40.4010 H   0  0  0  0  0  0  0  0  0  0  0  0
   35.4940   30.6400   41.6830 H   0  0  0  0  0  0  0  0  0  0  0  0
   38.3950   28.0500   42.6100 C   0  0  0  0  0  0  0  0  0  0  0  0
   37.2810   27.2680   42.6970 C   0  0  0  0  0  0  0  0  0  0  0  0
   36.2540   27.9600   42.0510 C   0  0  0  0  0  0  0  0  0  0  0  0
   36.8260   29.0940   41.6290 N   0  0  0  0  0  0  0  0  0  0  0  0
   38.0800   29.1860   41.9360 N   0  0  0  0  0  0  0  0  0  0  0  0
   37.2930   26.3050   43.1970 H   0  0  0  0  0  0  0  0  0  0  0  0
   35.2610   27.5620   41.9760 H   0  0  0  0  0  0  0  0  0  0  0  0
   41.2280   26.3080   44.2780 C   0  0  0  0  0  0  0  0  0  0  0  0
   39.9410   26.5420   43.7850 C   0  0  0  0  0  0  0  0  0  0  0  0
   39.7190   27.7750   43.1270 C   0  0  0  0  0  0  0  0  0  0  0  0
   40.7280   28.6550   43.0020 N   0  0  0  0  0  0  0  0  0  0  0  0
   41.9620   28.3670   43.5050 C   0  0  0  0  0  0  0  0  0  0  0  0
   42.2070   27.2040   44.1370 N   0  0  0  0  0  0  0  0  0  0  0  0
   41.4690   25.3700   44.8010 H   0  0  0  0  0  0  0  0  0  0  0  0
   39.1570   25.7970   43.9120 H   0  0  0  0  0  0  0  0  0  0  0  0
   42.9970   29.4060   43.3110 C   0  0  0  0  0  3  0  0  0  0  0  0
   42.3510   30.7560   43.0530 C   0  0  0  0  0  2  0  0  0  0  0  0
   43.4470   31.7090   43.5150 C   0  0  0  0  0  2  0  0  0  0  0  0
   43.8190   31.0860   44.8430 C   0  0  0  0  0  2  0  0  0  0  0  0
   43.8890   29.6110   44.4960 C   0  0  0  0  0  2  0  0  0  0  0  0
   35.1440   29.4890   39.8650 C   0  0  0  0  0  0  0  0  0  0  0  0
   34.4290   30.3720   39.7580 H   0  0  0  0  0  0  0  0  0  0  0  0
   34.6860   28.5770   40.2140 H   0  0  0  0  0  0  0  0  0  0  0  0
   35.7490   29.4160   38.5090 C   0  0  0  0  0  0  0  0  0  0  0  0
   37.0620   29.5640   38.1770 C   0  0  0  0  0  0  0  0  0  0  0  0
   37.5700   29.5700   36.9120 C   0  0  0  0  0  0  0  0  0  0  0  0
   36.7140   29.4170   35.8420 C   0  0  0  0  0  0  0  0  0  0  0  0
   35.3710   29.2610   36.1130 C   0  0  0  0  0  0  0  0  0  0  0  0
   34.5670   29.1170   35.0090 C   0  0  0  0  0  0  0  0  0  0  0  0
   33.2180   28.9550   35.1630 C   0  0  0  0  0  0  0  0  0  0  0  0
   32.6850   28.9360   36.4450 C   0  0  0  0  0  0  0  0  0  0  0  0
   33.5390   29.0850   37.5010 C   0  0  0  0  0  0  0  0  0  0  0  0
   34.8800   29.2560   37.4200 C   0  0  0  0  0  0  0  0  0  0  0  0
   37.7370   29.6860   39.0320 H   0  0  0  0  0  0  0  0  0  0  0  0
   38.6390   29.6960   36.8070 H   0  0  0  0  0  0  0  0  0  0  0  0
   37.1210   29.4240   34.8410 H   0  0  0  0  0  0  0  0  0  0  0  0
   34.9540   29.1260   33.9990 H   0  0  0  0  0  0  0  0  0  0  0  0
   32.5460   28.8410   34.3190 H   0  0  0  0  0  0  0  0  0  0  0  0
   31.6250   28.8060   36.5600 H   0  0  0  0  0  0  0  0  0  0  0  0
   32.9450   29.0380   38.7490 O   0  0  0  0  0  0  0  0  0  0  0  0
   32.5210   28.1620   39.0520 H   0  0  0  0  0  0  0  0  0  0  0  0
  1  7  1  0  0  0  0
  1  3  1  0  0  0  0
  2  1  1  0  0  0  0
  4  5  1  0  0  0  0
  4 13  1  0  0  0  0
  5  9  1  0  0  0  0
  6  5  2  0  0  0  0
  7  8  1  0  0  0  0
  7  6  1  0  0  0  0
  8  4  2  0  0  0  0
 10  6  1  0  0  0  0
 11 17  1  0  0  0  0
 12 18  1  0  0  0  0
 12 11  2  0  0  0  0
 13 12  1  0  0  0  0
 14 13  2  0  0  0  0
 14 15  1  0  0  0  0
 15 16  2  0  0  0  0
 16 11  1  0  0  0  0
 19 15  1  0  0  0  0
 19 23  1  0  0  0  0
 20 19  1  0  0  0  0
 20 21  1  0  0  0  0
 21 22  1  0  0  0  0
 23 22  1  0  0  0  0
 24 26  1  0  0  0  0
 24  1  1  0  0  0  0
 25 24  1  0  0  0  0
 27 24  1  0  0  0  0
 28 27  1  0  0  0  0
 28 37  1  0  0  0  0
 29 28  2  0  0  0  0
 30 31  2  0  0  0  0
 30 29  1  0  0  0  0
 31 36  1  0  0  0  0
 32 33  2  0  0  0  0
 32 31  1  0  0  0  0
 33 34  1  0  0  0  0
 34 42  1  0  0  0  0
 34 35  2  0  0  0  0
 35 43  1  0  0  0  0
 36 35  1  0  0  0  0
 36 27  2  0  0  0  0
 38 29  1  0  0  0  0
 39 30  1  0  0  0  0
 40 32  1  0  0  0  0
 41 33  1  0  0  0  0
 43 44  1  0  0  0  0
M  END
>  <minimizedAffinity>
-6.39589977

>  <minimizedRMSD>
0.599971175

$$$$
