
 OpenBabel03242508413D

 27 29  0  0  1  0  0  0  0  0999 V2000
   36.7820   29.1180   41.6170 C   0  0  2  0  0  0  0  0  0  0  0  0
   38.2210   29.2680   41.8160 C   0  0  0  0  0  0  0  0  0  0  0  0
   38.3900   28.7770   43.2660 C   0  0  0  0  0  0  0  0  0  0  0  0
   37.0840   28.0750   43.6240 C   0  0  0  0  0  0  0  0  0  0  0  0
   36.4860   27.7640   42.2440 C   0  0  2  0  0  0  0  0  0  0  0  0
   36.2300   29.8390   42.2900 H   0  0  0  0  0  0  0  0  0  0  0  0
   38.5700   30.3420   41.7610 H   0  0  0  0  0  0  0  0  0  0  0  0
   38.8760   28.7120   41.1500 H   0  0  0  0  0  0  0  0  0  0  0  0
   38.5450   29.6670   43.9100 H   0  0  0  0  0  0  0  0  0  0  0  0
   39.2410   28.0850   43.3700 H   0  0  0  0  0  0  0  0  0  0  0  0
   37.2380   27.1650   44.2070 H   0  0  0  0  0  0  0  0  0  0  0  0
   36.3930   28.8020   44.0900 H   0  0  0  0  0  0  0  0  0  0  0  0
   35.4320   27.5210   42.3260 H   0  0  0  0  0  0  0  0  0  0  0  0
   37.0240   29.5150   39.1350 C   0  0  0  0  0  0  0  0  0  0  0  0
   36.2440   29.2210   40.2820 C   0  0  0  0  0  0  0  0  0  0  0  0
   34.8710   29.0080   40.1220 C   0  0  0  0  0  0  0  0  0  0  0  0
   34.3630   29.0970   38.8670 N   0  0  0  0  0  0  0  0  0  0  0  0
   35.1220   29.3810   37.7650 C   0  0  0  0  0  0  0  0  0  0  0  0
   36.4680   29.5900   37.9180 N   0  0  0  0  0  0  0  0  0  0  0  0
   38.0850   29.6740   39.2840 H   0  0  0  0  0  0  0  0  0  0  0  0
   34.2120   28.7840   40.9270 H   0  0  0  0  0  0  0  0  0  0  0  0
   34.6550   29.4390   36.7890 H   0  0  0  0  0  0  0  0  0  0  0  0
   37.3470   26.6560   41.7340 C   0  0  0  0  0  0  0  0  0  0  0  0
   36.9940   26.0550   40.4330 C   0  0  0  0  0  0  0  0  0  0  0  0
   37.6500   24.6680   40.5560 C   0  0  0  0  0  0  0  0  0  0  0  0
   37.1230   24.2440   41.8980 C   0  0  0  0  0  0  0  0  0  0  0  0
   37.1750   25.5010   42.7030 C   0  0  0  0  0  0  0  0  0  0  0  0
  1  2  1  0  0  0  0
  1  5  1  0  0  0  0
  1  6  1  1  0  0  0
  2  3  1  0  0  0  0
  3 10  1  0  0  0  0
  3  4  1  0  0  0  0
  3  9  1  0  0  0  0
  4 12  1  0  0  0  0
  4 11  1  0  0  0  0
  5 13  1  1  0  0  0
  5  4  1  0  0  0  0
  7  2  1  0  0  0  0
  8  2  1  0  0  0  0
 14 20  1  0  0  0  0
 14 15  1  0  0  0  0
 15  1  1  0  0  0  0
 16 15  2  0  0  0  0
 16 21  1  0  0  0  0
 17 16  1  0  0  0  0
 18 19  1  0  0  0  0
 18 17  2  0  0  0  0
 19 14  2  0  0  0  0
 22 18  1  0  0  0  0
 23  5  1  0  0  0  0
 23 27  1  0  0  0  0
 24 25  1  0  0  0  0
 24 23  1  0  0  0  0
 25 26  1  0  0  0  0
 26 27  1  0  0  0  0
M  END
>  <minimizedAffinity>
-4.71985435

>  <minimizedRMSD>
3.6894505

$$$$
