
     RDKit          3D

 26 27  0  0  0  0  0  0  0  0999 V2000
   37.9684   28.8793   43.3676 C   0  0  0  0  0  0  0  0  0  0  0  0
   38.0774   27.4739   43.3102 C   0  0  0  0  0  0  0  0  0  0  0  0
   37.4359   26.8144   42.2624 C   0  0  0  0  0  0  0  0  0  0  0  0
   36.7413   27.5729   41.3561 N   0  0  0  0  0  0  0  0  0  0  0  0
   36.6579   28.9130   41.4410 C   0  0  0  0  0  0  0  0  0  0  0  0
   37.2743   29.5546   42.4492 N   0  0  0  0  0  0  0  0  0  0  0  0
   37.5199   25.3325   42.1558 C   0  0  0  0  0  0  0  0  0  0  0  0
   37.6527   25.0600   40.8012 F   0  0  0  0  0  0  0  0  0  0  0  0
   38.6343   24.8389   42.7897 F   0  0  0  0  0  0  0  0  0  0  0  0
   36.3839   24.7155   42.6398 F   0  0  0  0  0  0  0  0  0  0  0  0
   38.4797   29.3869   44.2000 H   0  0  0  0  0  0  0  0  0  0  0  0
   38.6370   26.9318   44.0510 H   0  0  0  0  0  0  0  0  0  0  0  0
   35.8764   29.6656   40.4058 C   0  0  0  0  0  0  0  0  0  0  0  0
   34.5291   30.0906   40.9149 C   0  0  0  0  0  0  0  0  0  0  0  0
   34.2692   31.4755   40.4240 C   0  0  0  0  0  0  0  0  0  0  0  0
   35.6199   32.0705   40.1954 C   0  0  0  0  0  0  0  0  0  0  0  0
   36.5603   30.9121   39.9415 C   0  0  0  0  0  0  0  0  0  0  0  0
   35.6959   28.9770   39.5394 H   0  0  0  0  0  0  0  0  0  0  0  0
   33.6935   29.4422   40.5762 H   0  0  0  0  0  0  0  0  0  0  0  0
   34.5788   30.1150   42.0158 H   0  0  0  0  0  0  0  0  0  0  0  0
   33.6611   31.4258   39.4779 H   0  0  0  0  0  0  0  0  0  0  0  0
   33.6879   32.0885   41.1657 H   0  0  0  0  0  0  0  0  0  0  0  0
   35.5365   32.7321   39.2975 H   0  0  0  0  0  0  0  0  0  0  0  0
   35.9741   32.6214   41.0879 H   0  0  0  0  0  0  0  0  0  0  0  0
   37.5091   31.0792   40.4934 H   0  0  0  0  0  0  0  0  0  0  0  0
   36.7237   30.8648   38.8399 H   0  0  0  0  0  0  0  0  0  0  0  0
  2  1  2  0
  3  2  1  0
  4  5  1  0
  4  3  2  0
  5  6  2  0
  6  1  1  0
  7  3  1  0
  7 10  1  0
  7  9  1  0
  8  7  1  0
  1 11  1  0
  2 12  1  0
 13 14  1  0
 14 15  1  0
 15 16  1  0
 16 17  1  0
 17 13  1  0
 13 18  1  0
 14 19  1  0
 14 20  1  0
 15 21  1  0
 15 22  1  0
 16 23  1  0
 16 24  1  0
 17 25  1  0
 17 26  1  0
  5 13  1  0
M  ISO  2  11  14  12  14
M  END
>  <DihAtoms>  (1) 
3,4,12,13

>  <DihDeg>  (1) 
-62.47135660387491

$$$$
