REMARK  Name = 
REMARK  2 active torsions:
REMARK  status: ('A' for Active; 'I' for Inactive)
REMARK    1  A    between atoms: C_3  and  C_7
REMARK    2  A    between atoms: C_5  and  C_13
REMARK                            x       y       z     vdW  Elec       q    Type
REMARK                         _______ _______ _______ _____ _____    ______ ____
ROOT
ATOM      1  C   UNL     1      37.968  28.879  43.368  0.00  0.00    +0.000 A 
ATOM      2  C   UNL     1      38.077  27.474  43.310  0.00  0.00    +0.000 A 
ATOM      3  C   UNL     1      37.436  26.814  42.262  0.00  0.00    +0.000 A 
ATOM      4  N   UNL     1      36.741  27.573  41.356  0.00  0.00    +0.000 NA
ATOM      5  C   UNL     1      36.658  28.913  41.441  0.00  0.00    +0.000 A 
ATOM      6  N   UNL     1      37.274  29.555  42.449  0.00  0.00    +0.000 NA
ATOM      7  H   UNL     1      38.480  29.387  44.200  0.00  0.00    +0.000 HD
ATOM      8  H   UNL     1      38.637  26.932  44.051  0.00  0.00    +0.000 HD
ENDROOT
BRANCH   5   9
ATOM      9  C   UNL     1      35.876  29.666  40.406  0.00  0.00    +0.000 C 
ATOM     10  C   UNL     1      36.131  31.144  40.471  0.00  0.00    +0.000 C 
ATOM     11  C   UNL     1      36.232  31.654  39.073  0.00  0.00    +0.000 C 
ATOM     12  C   UNL     1      36.657  30.479  38.255  0.00  0.00    +0.000 C 
ATOM     13  C   UNL     1      36.197  29.247  39.006  0.00  0.00    +0.000 C 
ENDBRANCH   5   9
BRANCH   3  14
ATOM     14  C   UNL     1      37.520  25.332  42.156  0.00  0.00    +0.000 C 
ATOM     15  F   UNL     1      37.653  25.060  40.801  0.00  0.00    +0.000 F 
ATOM     16  F   UNL     1      38.634  24.839  42.790  0.00  0.00    +0.000 F 
ATOM     17  F   UNL     1      36.384  24.715  42.640  0.00  0.00    +0.000 F 
ENDBRANCH   3  14
TORSDOF 2
