
 OpenBabel03242507543D

 23 25  0  0  0  0  0  0  0  0999 V2000
   37.1510   30.2040   40.4590 C   0  0  0  0  0  0  0  0  0  0  0  0
   37.4540   31.5400   40.6320 C   0  0  0  0  0  0  0  0  0  0  0  0
   37.4420   32.3560   39.5050 C   0  0  0  0  0  0  0  0  0  0  0  0
   37.1300   31.7840   38.2780 C   0  0  0  0  0  0  0  0  0  0  0  0
   36.8330   30.4530   38.1350 C   0  0  0  0  0  0  0  0  0  0  0  0
   36.8490   29.6760   39.2410 N   0  0  0  0  0  0  0  0  0  0  0  0
   37.6940   31.9690   41.5970 H   0  0  0  0  0  0  0  0  0  0  0  0
   37.6730   33.4090   39.5910 H   0  0  0  0  0  0  0  0  0  0  0  0
   37.1390   32.4700   37.4440 H   0  0  0  0  0  0  0  0  0  0  0  0
   38.0100   28.7990   43.7360 C   0  0  0  0  0  0  0  0  0  0  0  0
   37.1790   27.6730   43.8410 C   0  0  0  0  0  0  0  0  0  0  0  0
   36.3160   27.4030   42.7670 C   0  0  0  0  0  0  0  0  0  0  0  0
   36.3580   28.2490   41.7200 N   0  0  0  0  0  0  0  0  0  0  0  0
   37.1540   29.3140   41.6390 C   0  0  0  0  0  0  0  0  0  0  0  0
   37.9920   29.5940   42.6570 N   0  0  0  0  0  0  0  0  0  0  0  0
   38.6810   29.0040   44.5780 H   0  0  0  0  0  0  0  0  0  0  0  0
   37.2010   27.0490   44.7010 H   0  0  0  0  0  0  0  0  0  0  0  0
   35.6460   26.5490   42.7830 H   0  0  0  0  0  0  0  0  0  0  0  0
   36.5160   29.9230   36.8210 C   0  0  0  0  0  0  0  0  0  0  0  0
   35.2400   29.1870   36.6600 C   0  0  0  0  0  0  0  0  0  0  0  0
   35.3890   28.6280   35.2570 C   0  0  0  0  0  0  0  0  0  0  0  0
   36.8930   28.6100   34.9620 C   0  0  0  0  0  0  0  0  0  0  0  0
   37.5160   28.8620   36.3440 C   0  0  0  0  0  0  0  0  0  0  0  0
  1  2  1  0  0  0  0
  1 14  1  0  0  0  0
  2  7  1  0  0  0  0
  3  8  1  0  0  0  0
  3  2  2  0  0  0  0
  4  3  1  0  0  0  0
  5  4  2  0  0  0  0
  5  6  1  0  0  0  0
  6  1  2  0  0  0  0
  9  4  1  0  0  0  0
 10 11  1  0  0  0  0
 10 16  1  0  0  0  0
 11 17  1  0  0  0  0
 12 18  1  0  0  0  0
 12 11  2  0  0  0  0
 13 12  1  0  0  0  0
 14 13  2  0  0  0  0
 14 15  1  0  0  0  0
 15 10  2  0  0  0  0
 19  5  1  0  0  0  0
 20 19  1  0  0  0  0
 21 20  1  0  0  0  0
 22 21  1  0  0  0  0
 22 23  1  0  0  0  0
 23 19  1  0  0  0  0
M  END
>  <minimizedAffinity>
-4.61265564

>  <minimizedRMSD>
1.19347215

$$$$
