
 OpenBabel03242509293D

 44 48  0  0  0  0  0  0  0  0999 V2000
   36.0900   30.0150   41.1310 C   0  0  0  0  0  0  0  0  0  0  0  0
   36.6930   30.8220   40.6480 H   0  0  0  0  0  0  0  0  0  0  0  0
   35.4860   30.5200   41.9130 H   0  0  0  0  0  0  0  0  0  0  0  0
   38.6130   28.1420   42.7180 C   0  0  0  0  0  0  0  0  0  0  0  0
   37.5440   27.3100   42.8660 C   0  0  0  0  0  0  0  0  0  0  0  0
   36.4540   27.9470   42.2670 C   0  0  0  0  0  0  0  0  0  0  0  0
   36.9510   29.1010   41.8080 N   0  0  0  0  0  0  0  0  0  0  0  0
   38.2120   29.2550   42.0510 N   0  0  0  0  0  0  0  0  0  0  0  0
   37.6260   26.3540   43.3720 H   0  0  0  0  0  0  0  0  0  0  0  0
   35.4790   27.5010   42.2440 H   0  0  0  0  0  0  0  0  0  0  0  0
   41.5860   26.5900   44.3290 C   0  0  0  0  0  0  0  0  0  0  0  0
   40.2660   26.7590   43.9010 C   0  0  0  0  0  0  0  0  0  0  0  0
   39.9730   27.9350   43.1710 C   0  0  0  0  0  0  0  0  0  0  0  0
   40.9490   28.8250   42.9210 N   0  0  0  0  0  0  0  0  0  0  0  0
   42.2180   28.6020   43.3670 C   0  0  0  0  0  0  0  0  0  0  0  0
   42.5310   27.4950   44.0640 N   0  0  0  0  0  0  0  0  0  0  0  0
   41.8830   25.6990   44.9020 H   0  0  0  0  0  0  0  0  0  0  0  0
   39.5110   26.0090   44.1290 H   0  0  0  0  0  0  0  0  0  0  0  0
   43.2120   29.6470   43.0350 C   0  0  0  0  0  3  0  0  0  0  0  0
   43.1860   29.9500   41.5480 C   0  0  0  0  0  2  0  0  0  0  0  0
   43.7280   31.3750   41.5200 C   0  0  0  0  0  2  0  0  0  0  0  0
   42.9060   32.0090   42.6210 C   0  0  0  0  0  2  0  0  0  0  0  0
   42.9720   30.9600   43.7140 C   0  0  0  0  0  2  0  0  0  0  0  0
   35.2490   29.4170   40.0470 C   0  0  0  0  0  0  0  0  0  0  0  0
   34.5070   30.2740   39.9120 H   0  0  0  0  0  0  0  0  0  0  0  0
   34.8110   28.4900   40.3830 H   0  0  0  0  0  0  0  0  0  0  0  0
   35.9030   29.3630   38.7140 C   0  0  0  0  0  0  0  0  0  0  0  0
   37.2320   29.4860   38.4350 C   0  0  0  0  0  0  0  0  0  0  0  0
   37.7880   29.5110   37.1920 C   0  0  0  0  0  0  0  0  0  0  0  0
   36.9710   29.4050   36.0860 C   0  0  0  0  0  0  0  0  0  0  0  0
   35.6150   29.2770   36.3020 C   0  0  0  0  0  0  0  0  0  0  0  0
   34.8510   29.1800   35.1640 C   0  0  0  0  0  0  0  0  0  0  0  0
   33.4930   29.0480   35.2630 C   0  0  0  0  0  0  0  0  0  0  0  0
   32.9110   29.0100   36.5230 C   0  0  0  0  0  0  0  0  0  0  0  0
   33.7270   29.1110   37.6140 C   0  0  0  0  0  0  0  0  0  0  0  0
   35.0740   29.2520   37.5880 C   0  0  0  0  0  0  0  0  0  0  0  0
   37.8760   29.5700   39.3180 H   0  0  0  0  0  0  0  0  0  0  0  0
   38.8630   29.6130   37.1310 H   0  0  0  0  0  0  0  0  0  0  0  0
   37.4170   29.4280   35.1020 H   0  0  0  0  0  0  0  0  0  0  0  0
   35.2760   29.2040   34.1700 H   0  0  0  0  0  0  0  0  0  0  0  0
   32.8520   28.9710   34.3920 H   0  0  0  0  0  0  0  0  0  0  0  0
   31.8450   28.9040   36.5940 H   0  0  0  0  0  0  0  0  0  0  0  0
   33.0850   29.0490   38.8380 O   0  0  0  0  0  0  0  0  0  0  0  0
   32.6280   28.1760   39.1020 H   0  0  0  0  0  0  0  0  0  0  0  0
  1  7  1  0  0  0  0
  1  3  1  0  0  0  0
  2  1  1  0  0  0  0
  4  5  1  0  0  0  0
  4 13  1  0  0  0  0
  5  9  1  0  0  0  0
  6  5  2  0  0  0  0
  7  8  1  0  0  0  0
  7  6  1  0  0  0  0
  8  4  2  0  0  0  0
 10  6  1  0  0  0  0
 11 17  1  0  0  0  0
 12 18  1  0  0  0  0
 12 11  2  0  0  0  0
 13 12  1  0  0  0  0
 14 13  2  0  0  0  0
 14 15  1  0  0  0  0
 15 16  2  0  0  0  0
 16 11  1  0  0  0  0
 19 15  1  0  0  0  0
 19 23  1  0  0  0  0
 20 19  1  0  0  0  0
 21 20  1  0  0  0  0
 21 22  1  0  0  0  0
 22 23  1  0  0  0  0
 24 26  1  0  0  0  0
 24  1  1  0  0  0  0
 25 24  1  0  0  0  0
 27 24  1  0  0  0  0
 28 27  1  0  0  0  0
 28 37  1  0  0  0  0
 29 28  2  0  0  0  0
 30 31  2  0  0  0  0
 30 29  1  0  0  0  0
 31 36  1  0  0  0  0
 32 33  2  0  0  0  0
 32 31  1  0  0  0  0
 33 34  1  0  0  0  0
 34 42  1  0  0  0  0
 34 35  2  0  0  0  0
 35 43  1  0  0  0  0
 36 35  1  0  0  0  0
 36 27  2  0  0  0  0
 38 29  1  0  0  0  0
 39 30  1  0  0  0  0
 40 32  1  0  0  0  0
 41 33  1  0  0  0  0
 43 44  1  0  0  0  0
M  END
>  <minimizedAffinity>
-6.13059664

>  <minimizedRMSD>
0.766316056

$$$$
