
 OpenBabel03242509293D

 44 48  0  0  0  0  0  0  0  0999 V2000
   36.1620   30.1110   41.0970 C   0  0  0  0  0  0  0  0  0  0  0  0
   36.8030   30.8690   40.5860 H   0  0  0  0  0  0  0  0  0  0  0  0
   35.6080   30.6660   41.8810 H   0  0  0  0  0  0  0  0  0  0  0  0
   38.5910   28.1280   42.6970 C   0  0  0  0  0  0  0  0  0  0  0  0
   37.4910   27.3290   42.8110 C   0  0  0  0  0  0  0  0  0  0  0  0
   36.4350   28.0120   42.2020 C   0  0  0  0  0  0  0  0  0  0  0  0
   36.9790   29.1570   41.7740 N   0  0  0  0  0  0  0  0  0  0  0  0
   38.2390   29.2650   42.0430 N   0  0  0  0  0  0  0  0  0  0  0  0
   37.5330   26.3620   43.3010 H   0  0  0  0  0  0  0  0  0  0  0  0
   35.4470   27.5990   42.1530 H   0  0  0  0  0  0  0  0  0  0  0  0
   41.4710   26.4700   44.3720 C   0  0  0  0  0  0  0  0  0  0  0  0
   40.1650   26.6910   43.9240 C   0  0  0  0  0  0  0  0  0  0  0  0
   39.9340   27.8680   43.1720 C   0  0  0  0  0  0  0  0  0  0  0  0
   40.9520   28.7090   42.9220 N   0  0  0  0  0  0  0  0  0  0  0  0
   42.2040   28.4370   43.3880 C   0  0  0  0  0  0  0  0  0  0  0  0
   42.4580   27.3280   44.1060 N   0  0  0  0  0  0  0  0  0  0  0  0
   41.7200   25.5760   44.9620 H   0  0  0  0  0  0  0  0  0  0  0  0
   39.3740   25.9790   44.1520 H   0  0  0  0  0  0  0  0  0  0  0  0
   43.2480   29.4310   43.0530 C   0  0  0  0  0  3  0  0  0  0  0  0
   42.9680   30.0600   41.7000 C   0  0  0  0  0  2  0  0  0  0  0  0
   43.6860   31.3970   41.8340 C   0  0  0  0  0  2  0  0  0  0  0  0
   43.1980   31.8440   43.1950 C   0  0  0  0  0  2  0  0  0  0  0  0
   43.3340   30.5760   44.0140 C   0  0  0  0  0  2  0  0  0  0  0  0
   35.2620   29.5470   40.0420 C   0  0  0  0  0  0  0  0  0  0  0  0
   34.5630   30.4400   39.9170 H   0  0  0  0  0  0  0  0  0  0  0  0
   34.7850   28.6480   40.4010 H   0  0  0  0  0  0  0  0  0  0  0  0
   35.8760   29.4450   38.6930 C   0  0  0  0  0  0  0  0  0  0  0  0
   37.1930   29.5840   38.3680 C   0  0  0  0  0  0  0  0  0  0  0  0
   37.7100   29.5620   37.1080 C   0  0  0  0  0  0  0  0  0  0  0  0
   36.8620   29.3860   36.0340 C   0  0  0  0  0  0  0  0  0  0  0  0
   35.5170   29.2380   36.2980 C   0  0  0  0  0  0  0  0  0  0  0  0
   34.7220   29.0700   35.1910 C   0  0  0  0  0  0  0  0  0  0  0  0
   33.3710   28.9130   35.3380 C   0  0  0  0  0  0  0  0  0  0  0  0
   32.8280   28.9220   36.6160 C   0  0  0  0  0  0  0  0  0  0  0  0
   33.6740   29.0930   37.6750 C   0  0  0  0  0  0  0  0  0  0  0  0
   35.0170   29.2620   37.6010 C   0  0  0  0  0  0  0  0  0  0  0  0
   37.8610   29.7240   39.2250 H   0  0  0  0  0  0  0  0  0  0  0  0
   38.7800   29.6850   37.0080 H   0  0  0  0  0  0  0  0  0  0  0  0
   37.2780   29.3720   35.0360 H   0  0  0  0  0  0  0  0  0  0  0  0
   35.1160   29.0570   34.1840 H   0  0  0  0  0  0  0  0  0  0  0  0
   32.7060   28.7810   34.4920 H   0  0  0  0  0  0  0  0  0  0  0  0
   31.7680   28.7950   36.7250 H   0  0  0  0  0  0  0  0  0  0  0  0
   33.0710   29.0740   38.9200 O   0  0  0  0  0  0  0  0  0  0  0  0
   32.6440   28.2050   39.2380 H   0  0  0  0  0  0  0  0  0  0  0  0
  1  7  1  0  0  0  0
  1  3  1  0  0  0  0
  2  1  1  0  0  0  0
  4  5  1  0  0  0  0
  4 13  1  0  0  0  0
  5  9  1  0  0  0  0
  6  5  2  0  0  0  0
  7  8  1  0  0  0  0
  7  6  1  0  0  0  0
  8  4  2  0  0  0  0
 10  6  1  0  0  0  0
 11 17  1  0  0  0  0
 12 18  1  0  0  0  0
 12 11  2  0  0  0  0
 13 12  1  0  0  0  0
 14 13  2  0  0  0  0
 14 15  1  0  0  0  0
 15 16  2  0  0  0  0
 16 11  1  0  0  0  0
 19 15  1  0  0  0  0
 19 23  1  0  0  0  0
 20 21  1  0  0  0  0
 20 19  1  0  0  0  0
 21 22  1  0  0  0  0
 22 23  1  0  0  0  0
 24 26  1  0  0  0  0
 24  1  1  0  0  0  0
 25 24  1  0  0  0  0
 27 24  1  0  0  0  0
 28 27  1  0  0  0  0
 28 37  1  0  0  0  0
 29 28  2  0  0  0  0
 30 31  2  0  0  0  0
 30 29  1  0  0  0  0
 31 36  1  0  0  0  0
 32 33  2  0  0  0  0
 32 31  1  0  0  0  0
 33 34  1  0  0  0  0
 34 42  1  0  0  0  0
 34 35  2  0  0  0  0
 35 43  1  0  0  0  0
 36 35  1  0  0  0  0
 36 27  2  0  0  0  0
 38 29  1  0  0  0  0
 39 30  1  0  0  0  0
 40 32  1  0  0  0  0
 41 33  1  0  0  0  0
 43 44  1  0  0  0  0
M  END
>  <minimizedAffinity>
-6.12086916

>  <minimizedRMSD>
0.120766513

$$$$
