
 OpenBabel03242509283D

 48 52  0  0  0  0  0  0  0  0999 V2000
   36.1210   30.0540   41.1010 C   0  0  0  0  0  0  0  0  0  0  0  0
   35.5070   30.5440   41.9130 H   0  0  0  0  0  0  0  0  0  0  0  0
   36.7370   30.8620   40.6560 H   0  0  0  0  0  0  0  0  0  0  0  0
   38.5420   28.0650   42.6890 C   0  0  0  0  0  0  0  0  0  0  0  0
   37.4380   27.2570   42.7820 C   0  0  0  0  0  0  0  0  0  0  0  0
   36.3870   27.9470   42.1720 C   0  0  0  0  0  0  0  0  0  0  0  0
   36.9390   29.1020   41.7680 N   0  0  0  0  0  0  0  0  0  0  0  0
   38.1970   29.2150   42.0490 N   0  0  0  0  0  0  0  0  0  0  0  0
   37.3970   26.2660   43.2440 H   0  0  0  0  0  0  0  0  0  0  0  0
   35.3980   27.5400   42.1040 H   0  0  0  0  0  0  0  0  0  0  0  0
   41.4630   26.2580   44.1420 C   0  0  0  0  0  0  0  0  0  0  0  0
   40.1690   26.4980   43.6660 C   0  0  0  0  0  0  0  0  0  0  0  0
   39.8710   27.7790   43.1840 C   0  0  0  0  0  0  0  0  0  0  0  0
   40.8290   28.7490   43.1870 N   0  0  0  0  0  0  0  0  0  0  0  0
   42.0770   28.4590   43.6630 C   0  0  0  0  0  0  0  0  0  0  0  0
   42.3830   27.2330   44.1320 N   0  0  0  0  0  0  0  0  0  0  0  0
   41.6850   25.2710   44.5120 H   0  0  0  0  0  0  0  0  0  0  0  0
   39.4540   25.7000   43.6860 H   0  0  0  0  0  0  0  0  0  0  0  0
   43.0710   29.5220   43.6490 C   0  0  0  0  0  0  0  0  0  0  0  0
   42.6740   30.8100   43.3640 C   0  0  0  0  0  0  0  0  0  0  0  0
   41.6690   31.1030   43.1460 H   0  0  0  0  0  0  0  0  0  0  0  0
   43.6640   31.7570   43.3680 C   0  0  0  0  0  3  0  0  0  0  0  0
   44.9610   31.4540   43.6370 C   0  0  0  0  0  0  0  0  0  0  0  0
   45.6720   32.2840   43.6150 H   0  0  0  0  0  0  0  0  0  0  0  0
   45.3780   30.1520   43.9280 C   0  0  0  0  0  0  0  0  0  0  0  0
   46.4090   29.9460   44.1350 H   0  0  0  0  0  0  0  0  0  0  0  0
   44.3860   29.2220   43.9200 C   0  0  0  0  0  3  0  0  0  0  0  0
   35.2290   29.5150   40.0290 C   0  0  0  0  0  0  0  0  0  0  0  0
   34.5360   30.4140   39.9080 H   0  0  0  0  0  0  0  0  0  0  0  0
   34.7370   28.6200   40.3840 H   0  0  0  0  0  0  0  0  0  0  0  0
   35.8590   29.4270   38.6920 C   0  0  0  0  0  0  0  0  0  0  0  0
   37.1790   29.5600   38.3760 C   0  0  0  0  0  0  0  0  0  0  0  0
   37.7100   29.5430   37.1230 C   0  0  0  0  0  0  0  0  0  0  0  0
   36.8730   29.3800   36.0370 C   0  0  0  0  0  0  0  0  0  0  0  0
   35.5140   29.2360   36.2870 C   0  0  0  0  0  0  0  0  0  0  0  0
   34.7380   29.0780   35.1690 C   0  0  0  0  0  0  0  0  0  0  0  0
   33.3880   28.9240   35.3000 C   0  0  0  0  0  0  0  0  0  0  0  0
   32.8340   28.9290   36.5730 C   0  0  0  0  0  0  0  0  0  0  0  0
   33.6650   29.0910   37.6350 C   0  0  0  0  0  0  0  0  0  0  0  0
   35.0130   29.2560   37.5800 C   0  0  0  0  0  0  0  0  0  0  0  0
   37.8490   29.6900   39.2260 H   0  0  0  0  0  0  0  0  0  0  0  0
   38.7800   29.6590   37.0140 H   0  0  0  0  0  0  0  0  0  0  0  0
   37.2810   29.3670   35.0440 H   0  0  0  0  0  0  0  0  0  0  0  0
   35.1570   29.0690   34.1590 H   0  0  0  0  0  0  0  0  0  0  0  0
   32.7780   28.8010   34.4140 H   0  0  0  0  0  0  0  0  0  0  0  0
   31.7820   28.8050   36.6520 H   0  0  0  0  0  0  0  0  0  0  0  0
   33.0490   29.0700   38.8760 O   0  0  0  0  0  0  0  0  0  0  0  0
   32.5210   28.2880   39.2440 H   0  0  0  0  0  0  0  0  0  0  0  0
  1  7  1  0  0  0  0
  1  2  1  0  0  0  0
  3  1  1  0  0  0  0
  4  5  1  0  0  0  0
  4 13  1  0  0  0  0
  5  9  1  0  0  0  0
  6  5  2  0  0  0  0
  7  8  1  0  0  0  0
  7  6  1  0  0  0  0
  8  4  2  0  0  0  0
 10  6  1  0  0  0  0
 11 17  1  0  0  0  0
 12 18  1  0  0  0  0
 12 11  2  0  0  0  0
 13 14  2  0  0  0  0
 13 12  1  0  0  0  0
 14 15  1  0  0  0  0
 15 16  2  0  0  0  0
 16 11  1  0  0  0  0
 19 15  1  0  0  0  0
 19 27  1  0  0  0  0
 20 22  1  0  0  0  0
 20 19  2  0  0  0  0
 21 20  1  0  0  0  0
 22 23  2  0  0  0  0
 23 25  1  0  0  0  0
 24 23  1  0  0  0  0
 25 26  1  0  0  0  0
 27 25  2  0  0  0  0
 28 30  1  0  0  0  0
 28  1  1  0  0  0  0
 29 28  1  0  0  0  0
 31 28  1  0  0  0  0
 32 31  1  0  0  0  0
 32 41  1  0  0  0  0
 33 32  2  0  0  0  0
 34 35  2  0  0  0  0
 34 33  1  0  0  0  0
 35 40  1  0  0  0  0
 36 37  2  0  0  0  0
 36 35  1  0  0  0  0
 37 38  1  0  0  0  0
 38 46  1  0  0  0  0
 38 39  2  0  0  0  0
 39 47  1  0  0  0  0
 40 39  1  0  0  0  0
 40 31  2  0  0  0  0
 42 33  1  0  0  0  0
 43 34  1  0  0  0  0
 44 36  1  0  0  0  0
 45 37  1  0  0  0  0
 47 48  1  0  0  0  0
M  END
>  <minimizedAffinity>
-6.17171907

>  <minimizedRMSD>
0.495491952

$$$$
