REMARK  Name = 
REMARK  2 active torsions:
REMARK  status: ('A' for Active; 'I' for Inactive)
REMARK    1  A    between atoms: C_3  and  C_7
REMARK    2  A    between atoms: C_5  and  C_13
REMARK                            x       y       z     vdW  Elec       q    Type
REMARK                         _______ _______ _______ _____ _____    ______ ____
ROOT
ATOM      1  C   UNL     1      37.973  28.885  43.372  0.00  0.00    +0.000 A 
ATOM      2  C   UNL     1      38.087  27.467  43.313  0.00  0.00    +0.000 A 
ATOM      3  C   UNL     1      37.432  26.820  42.252  0.00  0.00    +0.000 A 
ATOM      4  N   UNL     1      36.726  27.578  41.339  0.00  0.00    +0.000 NA
ATOM      5  C   UNL     1      36.659  28.913  41.453  0.00  0.00    +0.000 A 
ATOM      6  N   UNL     1      37.270  29.554  42.450  0.00  0.00    +0.000 NA
ATOM      7  H   UNL     1      38.447  29.441  44.154  0.00  0.00    +0.000 HD
ATOM      8  H   UNL     1      38.655  26.931  44.059  0.00  0.00    +0.000 HD
ENDROOT
BRANCH   5   9
ATOM      9  C   UNL     1      35.902  29.678  40.468  0.00  0.00    +0.000 A 
ATOM     10  C   UNL     1      35.016  29.051  39.616  0.00  0.00    +0.000 A 
ATOM     11  H   UNL     1      34.875  27.969  39.676  0.00  0.00    +0.000 HD
ATOM     12  C   UNL     1      34.265  29.668  38.666  0.00  0.00    +0.000 A 
ATOM     13  C   UNL     1      34.385  31.046  38.524  0.00  0.00    +0.000 A 
ATOM     14  H   UNL     1      33.822  31.619  37.789  0.00  0.00    +0.000 HD
ATOM     15  C   UNL     1      35.274  31.712  39.371  0.00  0.00    +0.000 A 
ATOM     16  H   UNL     1      35.420  32.799  39.315  0.00  0.00    +0.000 HD
ATOM     17  C   UNL     1      36.020  31.037  40.327  0.00  0.00    +0.000 A 
ENDBRANCH   5   9
BRANCH   3  18
ATOM     18  C   UNL     1      37.530  25.332  42.158  0.00  0.00    +0.000 C 
ATOM     19  F   UNL     1      37.661  25.049  40.808  0.00  0.00    +0.000 F 
ATOM     20  F   UNL     1      38.629  24.837  42.790  0.00  0.00    +0.000 F 
ATOM     21  F   UNL     1      36.378  24.718  42.639  0.00  0.00    +0.000 F 
ENDBRANCH   3  18
TORSDOF 2
