
 OpenBabel03242507553D

 27 29  0  0  0  0  0  0  0  0999 V2000
   37.6960   30.0770   40.8370 C   0  0  0  0  0  0  0  0  0  0  0  0
   37.9500   31.4240   41.0560 C   0  0  0  0  0  0  0  0  0  0  0  0
   37.6110   32.3080   40.0370 C   0  0  0  0  0  0  0  0  0  0  0  0
   37.0490   31.8110   38.8750 C   0  0  0  0  0  0  0  0  0  0  0  0
   36.8120   30.4870   38.6880 C   0  0  0  0  0  0  0  0  0  0  0  0
   37.1400   29.6390   39.6740 N   0  0  0  0  0  0  0  0  0  0  0  0
   38.3910   31.6960   42.0030 H   0  0  0  0  0  0  0  0  0  0  0  0
   37.8100   33.3550   40.2120 H   0  0  0  0  0  0  0  0  0  0  0  0
   36.7910   32.5100   38.0910 H   0  0  0  0  0  0  0  0  0  0  0  0
   39.6300   27.6940   42.8410 C   0  0  0  0  0  0  0  0  0  0  0  0
   38.7270   27.2990   43.8340 C   0  0  0  0  0  0  0  0  0  0  0  0
   37.4220   27.8680   43.8130 C   0  0  0  0  0  0  0  0  0  0  0  0
   37.1650   28.7470   42.8260 N   0  0  0  0  0  0  0  0  0  0  0  0
   38.0370   29.1130   41.8860 C   0  0  0  0  0  0  0  0  0  0  0  0
   39.2710   28.5770   41.9040 N   0  0  0  0  0  0  0  0  0  0  0  0
   40.6280   27.2660   42.8480 H   0  0  0  0  0  0  0  0  0  0  0  0
   39.0030   26.5860   44.5980 H   0  0  0  0  0  0  0  0  0  0  0  0
   36.7140   27.5850   44.5560 H   0  0  0  0  0  0  0  0  0  0  0  0
   36.2230   29.9100   37.4850 C   0  0  0  0  0  0  0  0  0  0  0  0
   36.8820   30.0760   36.2840 C   0  0  0  0  0  0  0  0  0  0  0  0
   37.8210   30.6100   36.1550 H   0  0  0  0  0  0  0  0  0  0  0  0
   36.3890   29.5590   35.0880 C   0  0  0  0  0  0  0  0  0  0  0  0
   35.1900   28.8590   35.1600 C   0  0  0  0  0  0  0  0  0  0  0  0
   34.7300   28.4180   34.2680 H   0  0  0  0  0  0  0  0  0  0  0  0
   34.4830   28.6590   36.3320 C   0  0  0  0  0  0  0  0  0  0  0  0
   33.5510   28.1080   36.3460 H   0  0  0  0  0  0  0  0  0  0  0  0
   35.0390   29.2040   37.4710 C   0  0  0  0  0  0  0  0  0  0  0  0
  1  2  1  0  0  0  0
  1 14  1  0  0  0  0
  2  7  1  0  0  0  0
  3  8  1  0  0  0  0
  3  2  2  0  0  0  0
  4  3  1  0  0  0  0
  5  4  2  0  0  0  0
  5  6  1  0  0  0  0
  6  1  2  0  0  0  0
  9  4  1  0  0  0  0
 10 16  1  0  0  0  0
 10 11  1  0  0  0  0
 11 17  1  0  0  0  0
 12 11  2  0  0  0  0
 12 18  1  0  0  0  0
 13 12  1  0  0  0  0
 14 15  1  0  0  0  0
 14 13  2  0  0  0  0
 15 10  2  0  0  0  0
 19  5  1  0  0  0  0
 20 19  2  0  0  0  0
 21 20  1  0  0  0  0
 22 23  2  0  0  0  0
 22 20  1  0  0  0  0
 23 25  1  0  0  0  0
 24 23  1  0  0  0  0
 25 26  1  0  0  0  0
 25 27  2  0  0  0  0
 27 19  1  0  0  0  0
M  END
>  <minimizedAffinity>
-4.83611202

>  <minimizedRMSD>
2.17725825

$$$$
