
 OpenBabel03242508373D

 38 41  0  0  0  0  0  0  0  0999 V2000
   36.9080   31.4380   40.3270 C   0  0  0  0  0  0  0  0  0  0  0  0
   36.9650   31.7720   38.9950 N   0  0  0  0  0  0  0  0  0  0  0  0
   37.8540   32.7310   38.8460 O   0  0  0  0  0  0  0  0  0  0  0  0
   38.3390   32.9960   40.0240 C   0  0  0  0  0  0  0  0  0  0  0  0
   37.7780   32.2160   40.9630 N   0  0  0  0  0  0  0  0  0  0  0  0
   39.3600   34.0110   40.2810 C   0  0  0  0  0  0  0  0  0  0  0  0
   39.2410   35.3750   40.1210 C   0  0  0  0  0  0  0  0  0  0  0  0
   40.4200   35.9930   40.4680 C   0  0  0  0  0  0  0  0  0  0  0  0
   41.2430   34.9310   40.8420 C   0  0  0  0  0  0  0  0  0  0  0  0
   40.5810   33.8520   40.7100 O   0  0  0  0  0  0  0  0  0  0  0  0
   38.3700   35.9310   39.7750 H   0  0  0  0  0  0  0  0  0  0  0  0
   40.6490   37.0490   40.4530 H   0  0  0  0  0  0  0  0  0  0  0  0
   42.6230   35.0830   41.2980 C   0  0  0  0  0  0  0  0  0  0  0  0
   43.6630   34.3900   40.7130 C   0  0  0  0  0  0  0  0  0  0  0  0
   43.4890   33.7070   39.8890 H   0  0  0  0  0  0  0  0  0  0  0  0
   44.9390   34.6070   41.2220 C   0  0  0  0  0  0  0  0  0  0  0  0
   45.1920   35.4730   42.2710 C   0  0  0  0  0  0  0  0  0  0  0  0
   46.1800   35.6340   42.6580 H   0  0  0  0  0  0  0  0  0  0  0  0
   44.1650   36.1530   42.8460 C   0  0  0  0  0  0  0  0  0  0  0  0
   44.2630   36.8490   43.6690 H   0  0  0  0  0  0  0  0  0  0  0  0
   42.8970   35.9420   42.3440 C   0  0  0  0  0  0  0  0  0  0  0  0
   36.1190   30.4760   40.9800 O   0  0  0  0  0  0  0  0  0  0  0  0
   37.9620   28.2680   43.2130 C   0  0  0  0  0  0  0  0  0  0  0  0
   37.7800   27.0500   42.4850 C   0  0  0  0  0  0  0  0  0  0  0  0
   37.0510   27.0990   41.3120 C   0  0  0  0  0  0  0  0  0  0  0  0
   36.5560   28.2940   40.9230 N   0  0  0  0  0  0  0  0  0  0  0  0
   36.7260   29.4190   41.6010 C   0  0  0  0  0  0  0  0  0  0  0  0
   37.4340   29.4200   42.7580 N   0  0  0  0  0  0  0  0  0  0  0  0
   38.5010   28.3930   44.1400 H   0  0  0  0  0  0  0  0  0  0  0  0
   38.2970   26.2860   43.0480 H   0  0  0  0  0  0  0  0  0  0  0  0
   36.9410   25.8090   40.6740 C   0  0  0  0  0  0  0  0  0  0  0  0
   36.0270   25.7870   40.0120 H   0  0  0  0  0  0  0  0  0  0  0  0
   37.7940   25.7200   39.9400 H   0  0  0  0  0  0  0  0  0  0  0  0
   36.9820   24.6320   41.5530 C   0  0  0  0  0  0  0  0  0  0  0  0
   35.9140   24.2650   41.6740 H   0  0  0  0  0  0  0  0  0  0  0  0
   37.3700   24.7280   42.5580 H   0  0  0  0  0  0  0  0  0  0  0  0
   37.8230   23.2160   40.7550 S   0  0  0  0  0  0  0  0  0  0  0  0
   37.3660   23.1370   39.4220 H   0  0  0  0  0  0  0  0  0  0  0  0
  1  5  1  0  0  0  0
  1 22  1  0  0  0  0
  2  1  2  0  0  0  0
  3  2  1  0  0  0  0
  3  4  1  0  0  0  0
  4  6  1  0  0  0  0
  4  5  2  0  0  0  0
  6 10  1  0  0  0  0
  7  6  2  0  0  0  0
  7  8  1  0  0  0  0
  8  9  2  0  0  0  0
  9 13  1  0  0  0  0
 10  9  1  0  0  0  0
 11  7  1  0  0  0  0
 12  8  1  0  0  0  0
 13 21  1  0  0  0  0
 14 16  1  0  0  0  0
 14 13  2  0  0  0  0
 15 14  1  0  0  0  0
 16 17  2  0  0  0  0
 17 18  1  0  0  0  0
 17 19  1  0  0  0  0
 19 20  1  0  0  0  0
 21 19  2  0  0  0  0
 22 27  1  0  0  0  0
 23 29  1  0  0  0  0
 24 30  1  0  0  0  0
 24 23  2  0  0  0  0
 25 24  1  0  0  0  0
 26 25  2  0  0  0  0
 26 27  1  0  0  0  0
 27 28  2  0  0  0  0
 28 23  1  0  0  0  0
 31 25  1  0  0  0  0
 31 34  1  0  0  0  0
 32 31  1  0  0  0  0
 33 31  1  0  0  0  0
 34 35  1  0  0  0  0
 34 36  1  0  0  0  0
 37 34  1  0  0  0  0
 38 37  1  0  0  0  0
M  END
>  <minimizedAffinity>
-6.39538479

>  <minimizedRMSD>
1.47569859

$$$$
