
 OpenBabel03242509283D

 48 52  0  0  0  0  0  0  0  0999 V2000
   36.2090   30.0780   41.1520 C   0  0  0  0  0  0  0  0  0  0  0  0
   35.6020   30.5690   41.9690 H   0  0  0  0  0  0  0  0  0  0  0  0
   36.8080   30.8880   40.6900 H   0  0  0  0  0  0  0  0  0  0  0  0
   38.6750   28.1300   42.7200 C   0  0  0  0  0  0  0  0  0  0  0  0
   37.5810   27.3130   42.8430 C   0  0  0  0  0  0  0  0  0  0  0  0
   36.5130   27.9870   42.2440 C   0  0  0  0  0  0  0  0  0  0  0  0
   37.0470   29.1410   41.8160 N   0  0  0  0  0  0  0  0  0  0  0  0
   38.3090   29.2690   42.0730 N   0  0  0  0  0  0  0  0  0  0  0  0
   37.5570   26.3280   43.3170 H   0  0  0  0  0  0  0  0  0  0  0  0
   35.5260   27.5690   42.1980 H   0  0  0  0  0  0  0  0  0  0  0  0
   41.6020   26.4190   44.2760 C   0  0  0  0  0  0  0  0  0  0  0  0
   40.2960   26.6420   43.8240 C   0  0  0  0  0  0  0  0  0  0  0  0
   40.0150   27.8620   43.1950 C   0  0  0  0  0  0  0  0  0  0  0  0
   41.0010   28.7900   43.0370 N   0  0  0  0  0  0  0  0  0  0  0  0
   42.2590   28.5190   43.4970 C   0  0  0  0  0  0  0  0  0  0  0  0
   42.5490   27.3510   44.1060 N   0  0  0  0  0  0  0  0  0  0  0  0
   41.8100   25.4790   44.7590 H   0  0  0  0  0  0  0  0  0  0  0  0
   39.5580   25.8790   43.9740 H   0  0  0  0  0  0  0  0  0  0  0  0
   43.2830   29.5360   43.3100 C   0  0  0  0  0  0  0  0  0  0  0  0
   43.2190   30.6990   44.0450 C   0  0  0  0  0  0  0  0  0  0  0  0
   42.4590   30.9240   44.7630 H   0  0  0  0  0  0  0  0  0  0  0  0
   44.2160   31.6100   43.8140 C   0  0  0  0  0  3  0  0  0  0  0  0
   45.2120   31.3890   42.9170 C   0  0  0  0  0  0  0  0  0  0  0  0
   45.9590   32.1800   42.8090 H   0  0  0  0  0  0  0  0  0  0  0  0
   45.2900   30.2140   42.1630 C   0  0  0  0  0  0  0  0  0  0  0  0
   46.0870   30.0700   41.4630 H   0  0  0  0  0  0  0  0  0  0  0  0
   44.2940   29.3180   42.4020 C   0  0  0  0  0  3  0  0  0  0  0  0
   35.3060   29.5180   40.1000 C   0  0  0  0  0  0  0  0  0  0  0  0
   34.6000   30.4080   39.9810 H   0  0  0  0  0  0  0  0  0  0  0  0
   34.8300   28.6210   40.4700 H   0  0  0  0  0  0  0  0  0  0  0  0
   35.9160   29.4260   38.7530 C   0  0  0  0  0  0  0  0  0  0  0  0
   37.2320   29.5540   38.4180 C   0  0  0  0  0  0  0  0  0  0  0  0
   37.7450   29.5330   37.1570 C   0  0  0  0  0  0  0  0  0  0  0  0
   36.8910   29.3710   36.0840 C   0  0  0  0  0  0  0  0  0  0  0  0
   35.5350   29.2320   36.3540 C   0  0  0  0  0  0  0  0  0  0  0  0
   34.7430   29.0740   35.2480 C   0  0  0  0  0  0  0  0  0  0  0  0
   33.3940   28.9250   35.3990 C   0  0  0  0  0  0  0  0  0  0  0  0
   32.8580   28.9330   36.6800 C   0  0  0  0  0  0  0  0  0  0  0  0
   33.7060   29.0950   37.7290 C   0  0  0  0  0  0  0  0  0  0  0  0
   35.0530   29.2550   37.6550 C   0  0  0  0  0  0  0  0  0  0  0  0
   37.9140   29.6840   39.2580 H   0  0  0  0  0  0  0  0  0  0  0  0
   38.8130   29.6450   37.0320 H   0  0  0  0  0  0  0  0  0  0  0  0
   37.2840   29.3550   35.0840 H   0  0  0  0  0  0  0  0  0  0  0  0
   35.1460   29.0620   34.2320 H   0  0  0  0  0  0  0  0  0  0  0  0
   32.7700   28.8020   34.5220 H   0  0  0  0  0  0  0  0  0  0  0  0
   31.8080   28.8130   36.7750 H   0  0  0  0  0  0  0  0  0  0  0  0
   33.1080   29.0780   38.9800 O   0  0  0  0  0  0  0  0  0  0  0  0
   32.5830   28.2980   39.3570 H   0  0  0  0  0  0  0  0  0  0  0  0
  1  7  1  0  0  0  0
  1  2  1  0  0  0  0
  3  1  1  0  0  0  0
  4  5  1  0  0  0  0
  4 13  1  0  0  0  0
  5  9  1  0  0  0  0
  6  5  2  0  0  0  0
  7  8  1  0  0  0  0
  7  6  1  0  0  0  0
  8  4  2  0  0  0  0
 10  6  1  0  0  0  0
 11 17  1  0  0  0  0
 12 18  1  0  0  0  0
 12 11  2  0  0  0  0
 13 12  1  0  0  0  0
 14 13  2  0  0  0  0
 14 15  1  0  0  0  0
 15 16  2  0  0  0  0
 16 11  1  0  0  0  0
 19 15  1  0  0  0  0
 19 20  1  0  0  0  0
 20 21  1  0  0  0  0
 22 20  2  0  0  0  0
 23 22  1  0  0  0  0
 24 23  1  0  0  0  0
 25 27  1  0  0  0  0
 25 23  2  0  0  0  0
 26 25  1  0  0  0  0
 27 19  2  0  0  0  0
 28 30  1  0  0  0  0
 28  1  1  0  0  0  0
 29 28  1  0  0  0  0
 31 28  1  0  0  0  0
 32 31  1  0  0  0  0
 32 41  1  0  0  0  0
 33 32  2  0  0  0  0
 34 35  2  0  0  0  0
 34 33  1  0  0  0  0
 35 40  1  0  0  0  0
 36 37  2  0  0  0  0
 36 35  1  0  0  0  0
 37 38  1  0  0  0  0
 38 46  1  0  0  0  0
 38 39  2  0  0  0  0
 39 47  1  0  0  0  0
 40 39  1  0  0  0  0
 40 31  2  0  0  0  0
 42 33  1  0  0  0  0
 43 34  1  0  0  0  0
 44 36  1  0  0  0  0
 45 37  1  0  0  0  0
 47 48  1  0  0  0  0
M  END
>  <minimizedAffinity>
-6.11301279

>  <minimizedRMSD>
0.225832999

$$$$
