
 OpenBabel03242509283D

 48 52  0  0  0  0  0  0  0  0999 V2000
   36.2000   30.0920   41.1340 C   0  0  0  0  0  0  0  0  0  0  0  0
   35.5960   30.5870   41.9500 H   0  0  0  0  0  0  0  0  0  0  0  0
   36.8070   30.8970   40.6740 H   0  0  0  0  0  0  0  0  0  0  0  0
   38.6450   28.1220   42.7080 C   0  0  0  0  0  0  0  0  0  0  0  0
   37.5460   27.3090   42.8170 C   0  0  0  0  0  0  0  0  0  0  0  0
   36.4860   27.9920   42.2150 C   0  0  0  0  0  0  0  0  0  0  0  0
   37.0290   29.1470   41.7980 N   0  0  0  0  0  0  0  0  0  0  0  0
   38.2890   29.2670   42.0650 N   0  0  0  0  0  0  0  0  0  0  0  0
   37.5140   26.3210   43.2850 H   0  0  0  0  0  0  0  0  0  0  0  0
   35.4980   27.5790   42.1580 H   0  0  0  0  0  0  0  0  0  0  0  0
   41.5550   26.3820   44.2630 C   0  0  0  0  0  0  0  0  0  0  0  0
   40.2540   26.6140   43.8030 C   0  0  0  0  0  0  0  0  0  0  0  0
   39.9810   27.8450   43.1910 C   0  0  0  0  0  0  0  0  0  0  0  0
   40.9690   28.7740   43.0580 N   0  0  0  0  0  0  0  0  0  0  0  0
   42.2220   28.4940   43.5250 C   0  0  0  0  0  0  0  0  0  0  0  0
   42.5050   27.3160   44.1170 N   0  0  0  0  0  0  0  0  0  0  0  0
   41.7580   25.4340   44.7330 H   0  0  0  0  0  0  0  0  0  0  0  0
   39.5140   25.8500   43.9330 H   0  0  0  0  0  0  0  0  0  0  0  0
   43.2490   29.5130   43.3630 C   0  0  0  0  0  0  0  0  0  0  0  0
   44.5070   29.1400   42.9440 C   0  0  0  0  0  0  0  0  0  0  0  0
   44.8020   28.1360   42.7230 H   0  0  0  0  0  0  0  0  0  0  0  0
   45.4210   30.1520   42.8150 C   0  0  0  0  0  3  0  0  0  0  0  0
   45.1140   31.4490   43.0790 C   0  0  0  0  0  0  0  0  0  0  0  0
   45.9150   32.1800   42.9440 H   0  0  0  0  0  0  0  0  0  0  0  0
   43.8420   31.8430   43.5040 C   0  0  0  0  0  0  0  0  0  0  0  0
   43.6310   32.8740   43.7050 H   0  0  0  0  0  0  0  0  0  0  0  0
   42.9440   30.8280   43.6290 C   0  0  0  0  0  3  0  0  0  0  0  0
   35.2940   29.5410   40.0800 C   0  0  0  0  0  0  0  0  0  0  0  0
   34.5960   30.4370   39.9610 H   0  0  0  0  0  0  0  0  0  0  0  0
   34.8090   28.6480   40.4480 H   0  0  0  0  0  0  0  0  0  0  0  0
   35.9050   29.4450   38.7340 C   0  0  0  0  0  0  0  0  0  0  0  0
   37.2200   29.5790   38.3980 C   0  0  0  0  0  0  0  0  0  0  0  0
   37.7340   29.5540   37.1380 C   0  0  0  0  0  0  0  0  0  0  0  0
   36.8810   29.3800   36.0650 C   0  0  0  0  0  0  0  0  0  0  0  0
   35.5270   29.2340   36.3360 C   0  0  0  0  0  0  0  0  0  0  0  0
   34.7360   29.0650   35.2300 C   0  0  0  0  0  0  0  0  0  0  0  0
   33.3880   28.9080   35.3820 C   0  0  0  0  0  0  0  0  0  0  0  0
   32.8510   28.9210   36.6630 C   0  0  0  0  0  0  0  0  0  0  0  0
   33.6980   29.0940   37.7110 C   0  0  0  0  0  0  0  0  0  0  0  0
   35.0430   29.2620   37.6360 C   0  0  0  0  0  0  0  0  0  0  0  0
   37.9010   29.7180   39.2380 H   0  0  0  0  0  0  0  0  0  0  0  0
   38.8010   29.6720   37.0130 H   0  0  0  0  0  0  0  0  0  0  0  0
   37.2750   29.3610   35.0660 H   0  0  0  0  0  0  0  0  0  0  0  0
   35.1400   29.0490   34.2150 H   0  0  0  0  0  0  0  0  0  0  0  0
   32.7650   28.7760   34.5050 H   0  0  0  0  0  0  0  0  0  0  0  0
   31.8020   28.7950   36.7580 H   0  0  0  0  0  0  0  0  0  0  0  0
   33.0990   29.0800   38.9610 O   0  0  0  0  0  0  0  0  0  0  0  0
   32.5790   28.3000   39.3420 H   0  0  0  0  0  0  0  0  0  0  0  0
  1  7  1  0  0  0  0
  1  2  1  0  0  0  0
  3  1  1  0  0  0  0
  4  5  1  0  0  0  0
  4 13  1  0  0  0  0
  5  9  1  0  0  0  0
  6  5  2  0  0  0  0
  7  8  1  0  0  0  0
  7  6  1  0  0  0  0
  8  4  2  0  0  0  0
 10  6  1  0  0  0  0
 11 17  1  0  0  0  0
 12 18  1  0  0  0  0
 12 11  2  0  0  0  0
 13 12  1  0  0  0  0
 14 13  2  0  0  0  0
 14 15  1  0  0  0  0
 15 16  2  0  0  0  0
 16 11  1  0  0  0  0
 19 15  1  0  0  0  0
 19 27  1  0  0  0  0
 20 19  2  0  0  0  0
 21 20  1  0  0  0  0
 22 20  1  0  0  0  0
 22 23  2  0  0  0  0
 23 25  1  0  0  0  0
 24 23  1  0  0  0  0
 25 27  2  0  0  0  0
 25 26  1  0  0  0  0
 28 30  1  0  0  0  0
 28  1  1  0  0  0  0
 29 28  1  0  0  0  0
 31 28  1  0  0  0  0
 32 31  1  0  0  0  0
 32 41  1  0  0  0  0
 33 32  2  0  0  0  0
 34 35  2  0  0  0  0
 34 33  1  0  0  0  0
 35 40  1  0  0  0  0
 36 37  2  0  0  0  0
 36 35  1  0  0  0  0
 37 38  1  0  0  0  0
 38 46  1  0  0  0  0
 38 39  2  0  0  0  0
 39 47  1  0  0  0  0
 40 39  1  0  0  0  0
 40 31  2  0  0  0  0
 42 33  1  0  0  0  0
 43 34  1  0  0  0  0
 44 36  1  0  0  0  0
 45 37  1  0  0  0  0
 47 48  1  0  0  0  0
M  END
>  <minimizedAffinity>
-6.14513063

>  <minimizedRMSD>
0.258718133

$$$$
