
 OpenBabel03242509293D

 48 52  0  0  0  0  0  0  0  0999 V2000
   36.1600   30.0670   41.1150 C   0  0  0  0  0  0  0  0  0  0  0  0
   35.5430   30.5500   41.9290 H   0  0  0  0  0  0  0  0  0  0  0  0
   36.7500   30.8850   40.6550 H   0  0  0  0  0  0  0  0  0  0  0  0
   38.6440   28.1570   42.7010 C   0  0  0  0  0  0  0  0  0  0  0  0
   37.5660   27.3160   42.7990 C   0  0  0  0  0  0  0  0  0  0  0  0
   36.4930   27.9720   42.1910 C   0  0  0  0  0  0  0  0  0  0  0  0
   37.0080   29.1420   41.7820 N   0  0  0  0  0  0  0  0  0  0  0  0
   38.2630   29.2940   42.0590 N   0  0  0  0  0  0  0  0  0  0  0  0
   37.5570   26.3250   43.2640 H   0  0  0  0  0  0  0  0  0  0  0  0
   35.5160   27.5340   42.1260 H   0  0  0  0  0  0  0  0  0  0  0  0
   41.5730   26.5120   44.3220 C   0  0  0  0  0  0  0  0  0  0  0  0
   40.2690   26.7120   43.8550 C   0  0  0  0  0  0  0  0  0  0  0  0
   39.9830   27.9130   43.1920 C   0  0  0  0  0  0  0  0  0  0  0  0
   40.9620   28.8450   43.0180 N   0  0  0  0  0  0  0  0  0  0  0  0
   42.2190   28.5970   43.4950 C   0  0  0  0  0  0  0  0  0  0  0  0
   42.5130   27.4480   44.1350 N   0  0  0  0  0  0  0  0  0  0  0  0
   41.7850   25.5870   44.8320 H   0  0  0  0  0  0  0  0  0  0  0  0
   39.5370   25.9470   44.0190 H   0  0  0  0  0  0  0  0  0  0  0  0
   43.2360   29.6180   43.2880 C   0  0  0  0  0  0  0  0  0  0  0  0
   44.0070   29.5780   42.1470 C   0  0  0  0  0  0  0  0  0  0  0  0
   43.9200   28.8390   41.3790 H   0  0  0  0  0  0  0  0  0  0  0  0
   44.9420   30.5710   42.0220 C   0  0  0  0  0  3  0  0  0  0  0  0
   45.1070   31.5400   42.9580 C   0  0  0  0  0  0  0  0  0  0  0  0
   45.8810   32.2860   42.7610 H   0  0  0  0  0  0  0  0  0  0  0  0
   44.3320   31.5940   44.1210 C   0  0  0  0  0  0  0  0  0  0  0  0
   44.4860   32.3710   44.8400 H   0  0  0  0  0  0  0  0  0  0  0  0
   43.4070   30.6030   44.2330 C   0  0  0  0  0  3  0  0  0  0  0  0
   35.2690   29.4950   40.0590 C   0  0  0  0  0  0  0  0  0  0  0  0
   34.5520   30.3750   39.9370 H   0  0  0  0  0  0  0  0  0  0  0  0
   34.8040   28.5910   40.4270 H   0  0  0  0  0  0  0  0  0  0  0  0
   35.8850   29.4100   38.7150 C   0  0  0  0  0  0  0  0  0  0  0  0
   37.2040   29.5370   38.3870 C   0  0  0  0  0  0  0  0  0  0  0  0
   37.7220   29.5230   37.1290 C   0  0  0  0  0  0  0  0  0  0  0  0
   36.8740   29.3720   36.0500 C   0  0  0  0  0  0  0  0  0  0  0  0
   35.5160   29.2350   36.3130 C   0  0  0  0  0  0  0  0  0  0  0  0
   34.7290   29.0880   35.2010 C   0  0  0  0  0  0  0  0  0  0  0  0
   33.3790   28.9420   35.3440 C   0  0  0  0  0  0  0  0  0  0  0  0
   32.8370   28.9440   36.6230 C   0  0  0  0  0  0  0  0  0  0  0  0
   33.6800   29.0940   37.6770 C   0  0  0  0  0  0  0  0  0  0  0  0
   35.0270   29.2510   37.6110 C   0  0  0  0  0  0  0  0  0  0  0  0
   37.8820   29.6580   39.2310 H   0  0  0  0  0  0  0  0  0  0  0  0
   38.7920   29.6330   37.0100 H   0  0  0  0  0  0  0  0  0  0  0  0
   37.2720   29.3620   35.0530 H   0  0  0  0  0  0  0  0  0  0  0  0
   35.1370   29.0820   34.1880 H   0  0  0  0  0  0  0  0  0  0  0  0
   32.7590   28.8290   34.4640 H   0  0  0  0  0  0  0  0  0  0  0  0
   31.7850   28.8260   36.7110 H   0  0  0  0  0  0  0  0  0  0  0  0
   33.0750   29.0700   38.9240 O   0  0  0  0  0  0  0  0  0  0  0  0
   32.5450   28.2900   39.2930 H   0  0  0  0  0  0  0  0  0  0  0  0
  1  7  1  0  0  0  0
  1  2  1  0  0  0  0
  3  1  1  0  0  0  0
  4  5  1  0  0  0  0
  4 13  1  0  0  0  0
  5  9  1  0  0  0  0
  6  5  2  0  0  0  0
  7  8  1  0  0  0  0
  7  6  1  0  0  0  0
  8  4  2  0  0  0  0
 10  6  1  0  0  0  0
 11 17  1  0  0  0  0
 12 18  1  0  0  0  0
 12 11  2  0  0  0  0
 13 12  1  0  0  0  0
 14 13  2  0  0  0  0
 14 15  1  0  0  0  0
 15 16  2  0  0  0  0
 16 11  1  0  0  0  0
 19 15  1  0  0  0  0
 19 27  1  0  0  0  0
 20 19  2  0  0  0  0
 21 20  1  0  0  0  0
 22 20  1  0  0  0  0
 22 23  2  0  0  0  0
 23 25  1  0  0  0  0
 24 23  1  0  0  0  0
 25 27  2  0  0  0  0
 25 26  1  0  0  0  0
 28 30  1  0  0  0  0
 28  1  1  0  0  0  0
 29 28  1  0  0  0  0
 31 28  1  0  0  0  0
 32 31  1  0  0  0  0
 32 41  1  0  0  0  0
 33 32  2  0  0  0  0
 34 35  2  0  0  0  0
 34 33  1  0  0  0  0
 35 40  1  0  0  0  0
 36 37  2  0  0  0  0
 36 35  1  0  0  0  0
 37 38  1  0  0  0  0
 38 46  1  0  0  0  0
 38 39  2  0  0  0  0
 39 47  1  0  0  0  0
 40 39  1  0  0  0  0
 40 31  2  0  0  0  0
 42 33  1  0  0  0  0
 43 34  1  0  0  0  0
 44 36  1  0  0  0  0
 45 37  1  0  0  0  0
 47 48  1  0  0  0  0
M  END
>  <minimizedAffinity>
-6.15168953

>  <minimizedRMSD>
0.226470485

$$$$
