
 OpenBabel03242509283D

 49 53  0  0  0  0  0  0  0  0999 V2000
   38.5940   28.1270   42.6950 C   0  0  0  0  0  0  0  0  0  0  0  0
   37.5170   27.2820   42.7680 C   0  0  0  0  0  0  0  0  0  0  0  0
   36.4530   27.9500   42.1530 C   0  0  0  0  0  0  0  0  0  0  0  0
   36.9670   29.1200   41.7690 N   0  0  0  0  0  0  0  0  0  0  0  0
   38.2160   29.2610   42.0670 N   0  0  0  0  0  0  0  0  0  0  0  0
   37.4860   26.2800   43.2150 H   0  0  0  0  0  0  0  0  0  0  0  0
   35.4710   27.4980   42.0740 H   0  0  0  0  0  0  0  0  0  0  0  0
   41.5490   26.4160   44.1820 C   0  0  0  0  0  0  0  0  0  0  0  0
   40.2450   26.5980   43.7110 C   0  0  0  0  0  0  0  0  0  0  0  0
   39.9260   27.8710   43.1990 C   0  0  0  0  0  0  0  0  0  0  0  0
   40.8640   28.8500   43.1800 N   0  0  0  0  0  0  0  0  0  0  0  0
   42.1280   28.5990   43.6610 C   0  0  0  0  0  0  0  0  0  0  0  0
   42.4570   27.4020   44.1510 N   0  0  0  0  0  0  0  0  0  0  0  0
   41.7590   25.4140   44.5710 H   0  0  0  0  0  0  0  0  0  0  0  0
   39.5230   25.7980   43.7410 H   0  0  0  0  0  0  0  0  0  0  0  0
   44.9250   31.7570   43.5310 C   0  0  0  0  0  0  0  0  0  0  0  0
   45.3420   30.4980   43.9090 C   0  0  0  0  0  3  0  0  0  0  0  0
   44.4260   29.4650   43.9520 C   0  0  0  0  0  3  0  0  0  0  0  0
   43.1050   29.6820   43.6200 C   0  0  0  0  0  0  0  0  0  0  0  0
   42.6950   30.9450   43.2420 C   0  0  0  0  0  3  0  0  0  0  0  0
   43.5930   32.0120   43.1880 C   0  0  0  0  0  3  0  0  0  0  0  0
   47.4160   32.3670   43.7070 H   0  0  0  0  0  0  0  0  0  0  0  0
   46.1960   32.9640   43.5240 S   0  0  0  0  0  0  0  0  0  0  0  0
   46.2760   33.6560   42.1840 O   0  0  0  0  0  0  0  0  0  0  0  0
   46.0110   34.0120   44.5680 O   0  0  0  0  0  0  0  0  0  0  0  0
   36.1330   30.0600   41.1020 C   0  0  0  0  0  0  0  0  0  0  0  0
   36.7330   30.8780   40.6530 H   0  0  0  0  0  0  0  0  0  0  0  0
   35.5230   30.5540   41.9160 H   0  0  0  0  0  0  0  0  0  0  0  0
   35.2450   29.5040   40.0360 C   0  0  0  0  0  0  0  0  0  0  0  0
   34.7620   28.6050   40.3990 H   0  0  0  0  0  0  0  0  0  0  0  0
   34.5370   30.3950   39.9170 H   0  0  0  0  0  0  0  0  0  0  0  0
   35.8620   29.4210   38.6980 C   0  0  0  0  0  0  0  0  0  0  0  0
   37.1860   29.5570   38.3790 C   0  0  0  0  0  0  0  0  0  0  0  0
   37.7170   29.5420   37.1220 C   0  0  0  0  0  0  0  0  0  0  0  0
   36.8770   29.3790   36.0400 C   0  0  0  0  0  0  0  0  0  0  0  0
   35.5280   29.2350   36.2920 C   0  0  0  0  0  0  0  0  0  0  0  0
   34.7390   29.0820   35.1760 C   0  0  0  0  0  0  0  0  0  0  0  0
   33.3960   28.9330   35.3250 C   0  0  0  0  0  0  0  0  0  0  0  0
   32.8330   28.9360   36.5770 C   0  0  0  0  0  0  0  0  0  0  0  0
   33.6730   29.0940   37.6480 C   0  0  0  0  0  0  0  0  0  0  0  0
   35.0170   29.2520   37.5910 C   0  0  0  0  0  0  0  0  0  0  0  0
   37.8550   29.6860   39.2350 H   0  0  0  0  0  0  0  0  0  0  0  0
   38.7820   29.6590   37.0210 H   0  0  0  0  0  0  0  0  0  0  0  0
   37.3050   29.3700   35.0550 H   0  0  0  0  0  0  0  0  0  0  0  0
   35.1500   29.0720   34.1720 H   0  0  0  0  0  0  0  0  0  0  0  0
   32.7690   28.8130   34.4320 H   0  0  0  0  0  0  0  0  0  0  0  0
   31.7650   28.8170   36.6900 H   0  0  0  0  0  0  0  0  0  0  0  0
   33.0550   29.0700   38.8960 O   0  0  0  0  0  0  0  0  0  0  0  0
   32.3330   29.7340   39.1480 H   0  0  0  0  0  0  0  0  0  0  0  0
  1  2  1  0  0  0  0
  1 10  1  0  0  0  0
  2  6  1  0  0  0  0
  3  2  2  0  0  0  0
  4  5  1  0  0  0  0
  4  3  1  0  0  0  0
  5  1  2  0  0  0  0
  7  3  1  0  0  0  0
  8 14  1  0  0  0  0
  9 15  1  0  0  0  0
  9  8  2  0  0  0  0
 10  9  1  0  0  0  0
 11 10  2  0  0  0  0
 11 12  1  0  0  0  0
 12 13  2  0  0  0  0
 13  8  1  0  0  0  0
 16 17  1  0  0  0  0
 17 18  2  0  0  0  0
 19 12  1  0  0  0  0
 19 18  1  0  0  0  0
 20 19  2  0  0  0  0
 21 20  1  0  0  0  0
 21 16  2  0  0  0  0
 23 16  1  0  0  0  0
 23 22  1  0  0  0  0
 23 25  2  0  0  0  0
 24 23  2  0  0  0  0
 26  4  1  0  0  0  0
 26 28  1  0  0  0  0
 27 26  1  0  0  0  0
 29 30  1  0  0  0  0
 29 26  1  0  0  0  0
 31 29  1  0  0  0  0
 32 29  1  0  0  0  0
 33 32  1  0  0  0  0
 33 42  1  0  0  0  0
 34 33  2  0  0  0  0
 35 36  2  0  0  0  0
 35 34  1  0  0  0  0
 36 41  1  0  0  0  0
 37 38  2  0  0  0  0
 37 36  1  0  0  0  0
 38 39  1  0  0  0  0
 39 47  1  0  0  0  0
 39 40  2  0  0  0  0
 40 48  1  0  0  0  0
 41 40  1  0  0  0  0
 41 32  2  0  0  0  0
 43 34  1  0  0  0  0
 44 35  1  0  0  0  0
 45 37  1  0  0  0  0
 46 38  1  0  0  0  0
 48 49  1  0  0  0  0
M  END
>  <minimizedAffinity>
-6.3577323

>  <minimizedRMSD>
0.877509296

$$$$
