
 OpenBabel03242508003D

 44 47  0  0  1  0  0  0  0  0999 V2000
   33.4050   27.0590   37.0220 N   0  0  0  0  0  0  0  0  0  0  0  0
   33.2730   28.4920   36.8940 C   0  0  0  0  0  0  0  0  0  0  0  0
   34.4110   29.1480   36.1650 C   0  0  0  0  0  0  0  0  0  0  0  0
   35.6870   28.3710   36.3070 C   0  0  2  0  0  0  0  0  0  0  0  0
   35.7280   27.5840   37.6100 C   0  0  0  0  0  0  0  0  0  0  0  0
   34.5820   26.6630   37.7790 C   0  0  2  0  0  0  0  0  0  0  0  0
   32.5170   26.7450   37.4930 H   0  0  0  0  0  0  0  0  0  0  0  0
   33.2780   28.9210   37.9330 H   0  0  0  0  0  0  0  0  0  0  0  0
   32.3020   28.6860   36.4210 H   0  0  0  0  0  0  0  0  0  0  0  0
   34.1920   29.2540   35.0800 H   0  0  0  0  0  0  0  0  0  0  0  0
   34.5800   30.1820   36.5280 H   0  0  0  0  0  0  0  0  0  0  0  0
   35.9040   27.7170   35.4320 H   0  0  0  0  0  0  0  0  0  0  0  0
   35.7360   28.3830   38.4090 H   0  0  0  0  0  0  0  0  0  0  0  0
   36.7350   27.1440   37.6570 H   0  0  0  0  0  0  0  0  0  0  0  0
   34.2450   26.7630   38.8560 H   0  0  0  0  0  0  0  0  0  0  0  0
   35.6440   22.5270   37.6060 C   0  0  0  0  0  0  0  0  0  0  0  0
   36.1670   23.4220   38.5130 C   0  0  0  0  0  0  0  0  0  0  0  0
   35.7850   24.7690   38.5280 C   0  0  0  0  0  0  0  0  0  0  0  0
   34.8490   25.2360   37.6020 C   0  0  0  0  0  0  0  0  0  0  0  0
   34.3490   24.3110   36.7120 C   0  0  0  0  0  0  0  0  0  0  0  0
   34.7240   22.9860   36.6970 C   0  0  0  0  0  0  0  0  0  0  0  0
   37.2070   20.7700   36.7220 H   0  0  0  0  0  0  0  0  0  0  0  0
   36.0970   20.8370   37.5580 S   0  0  0  0  0  0  0  0  0  0  0  0
   35.0410   19.9640   36.9930 O   0  0  0  0  0  0  0  0  0  0  0  0
   36.5800   20.3840   38.9010 O   0  0  0  0  0  0  0  0  0  0  0  0
   37.0730   29.5430   36.4090 S   0  0  0  0  0  0  0  0  0  0  0  0
   37.1690   30.2300   40.3750 C   0  0  0  0  0  0  0  0  0  0  0  0
   37.1760   31.5960   40.5010 C   0  0  0  0  0  0  0  0  0  0  0  0
   37.1510   32.3550   39.3430 C   0  0  0  0  0  0  0  0  0  0  0  0
   37.1200   31.6990   38.1190 C   0  0  0  0  0  0  0  0  0  0  0  0
   37.1140   30.3210   38.0020 C   0  0  0  0  0  0  0  0  0  0  0  0
   37.1390   29.6200   39.1540 N   0  0  0  0  0  0  0  0  0  0  0  0
   37.2010   32.0230   41.4900 H   0  0  0  0  0  0  0  0  0  0  0  0
   37.1560   33.4350   39.4170 H   0  0  0  0  0  0  0  0  0  0  0  0
   37.1020   32.3460   37.2480 H   0  0  0  0  0  0  0  0  0  0  0  0
   38.1450   28.9490   43.6540 C   0  0  0  0  0  0  0  0  0  0  0  0
   37.3000   27.8320   43.8340 C   0  0  0  0  0  0  0  0  0  0  0  0
   36.3880   27.5250   42.8110 C   0  0  0  0  0  0  0  0  0  0  0  0
   36.3800   28.3210   41.7190 N   0  0  0  0  0  0  0  0  0  0  0  0
   37.1960   29.3780   41.5730 C   0  0  0  0  0  0  0  0  0  0  0  0
   38.0550   29.6650   42.5420 N   0  0  0  0  0  0  0  0  0  0  0  0
   38.8070   29.1210   44.4670 H   0  0  0  0  0  0  0  0  0  0  0  0
   37.2470   27.1640   44.6600 H   0  0  0  0  0  0  0  0  0  0  0  0
   35.6900   26.7080   42.8170 H   0  0  0  0  0  0  0  0  0  0  0  0
  1  7  1  0  0  0  0
  1  6  1  0  0  0  0
  2  1  1  0  0  0  0
  2  8  1  0  0  0  0
  3  4  1  0  0  0  0
  3 11  1  0  0  0  0
  3  2  1  0  0  0  0
  4 12  1  6  0  0  0
  4 26  1  0  0  0  0
  4  5  1  0  0  0  0
  5 14  1  0  0  0  0
  5  6  1  0  0  0  0
  5 13  1  0  0  0  0
  6 15  1  1  0  0  0
  9  2  1  0  0  0  0
 10  3  1  0  0  0  0
 16 17  1  0  0  0  0
 17 18  2  0  0  0  0
 19  6  1  0  0  0  0
 19 18  1  0  0  0  0
 20 19  2  0  0  0  0
 21 20  1  0  0  0  0
 21 16  2  0  0  0  0
 22 23  1  0  0  0  0
 23 16  1  0  0  0  0
 23 25  2  0  0  0  0
 24 23  2  0  0  0  0
 26 31  1  0  0  0  0
 27 28  1  0  0  0  0
 27 40  1  0  0  0  0
 28 33  1  0  0  0  0
 29 34  1  0  0  0  0
 29 28  2  0  0  0  0
 30 29  1  0  0  0  0
 31 30  2  0  0  0  0
 31 32  1  0  0  0  0
 32 27  2  0  0  0  0
 35 30  1  0  0  0  0
 36 37  1  0  0  0  0
 36 42  1  0  0  0  0
 37 43  1  0  0  0  0
 38 44  1  0  0  0  0
 38 37  2  0  0  0  0
 39 38  1  0  0  0  0
 40 39  2  0  0  0  0
 40 41  1  0  0  0  0
 41 36  2  0  0  0  0
M  END
>  <minimizedAffinity>
-4.96265316

>  <minimizedRMSD>
1.9795022

$$$$
