
 OpenBabel03242509293D

 49 53  0  0  0  0  0  0  0  0999 V2000
   38.6950   28.1560   42.7280 C   0  0  0  0  0  0  0  0  0  0  0  0
   37.6180   27.3130   42.8290 C   0  0  0  0  0  0  0  0  0  0  0  0
   36.5450   27.9740   42.2230 C   0  0  0  0  0  0  0  0  0  0  0  0
   37.0540   29.1380   41.8160 N   0  0  0  0  0  0  0  0  0  0  0  0
   38.3070   29.2820   42.0920 N   0  0  0  0  0  0  0  0  0  0  0  0
   37.5940   26.3170   43.2900 H   0  0  0  0  0  0  0  0  0  0  0  0
   35.5620   27.5220   42.1660 H   0  0  0  0  0  0  0  0  0  0  0  0
   41.6450   26.5000   44.2850 C   0  0  0  0  0  0  0  0  0  0  0  0
   40.3320   26.6790   43.8390 C   0  0  0  0  0  0  0  0  0  0  0  0
   40.0350   27.9050   43.2130 C   0  0  0  0  0  0  0  0  0  0  0  0
   41.0020   28.8450   43.0670 N   0  0  0  0  0  0  0  0  0  0  0  0
   42.2730   28.5990   43.5320 C   0  0  0  0  0  0  0  0  0  0  0  0
   42.5810   27.4450   44.1280 N   0  0  0  0  0  0  0  0  0  0  0  0
   41.8360   25.5340   44.7670 H   0  0  0  0  0  0  0  0  0  0  0  0
   39.5860   25.9110   43.9720 H   0  0  0  0  0  0  0  0  0  0  0  0
   45.1620   31.6330   43.0230 C   0  0  0  0  0  0  0  0  0  0  0  0
   45.5050   30.3230   42.7660 C   0  0  0  0  0  3  0  0  0  0  0  0
   44.5590   29.3290   42.9320 C   0  0  0  0  0  3  0  0  0  0  0  0
   43.2810   29.6390   43.3530 C   0  0  0  0  0  0  0  0  0  0  0  0
   42.9470   30.9530   43.6080 C   0  0  0  0  0  3  0  0  0  0  0  0
   43.8770   31.9820   43.4510 C   0  0  0  0  0  3  0  0  0  0  0  0
   47.6740   32.1370   42.7990 H   0  0  0  0  0  0  0  0  0  0  0  0
   46.4630   32.7780   42.7690 S   0  0  0  0  0  0  0  0  0  0  0  0
   46.3680   33.4080   41.3980 O   0  0  0  0  0  0  0  0  0  0  0  0
   46.4770   33.8800   43.7740 O   0  0  0  0  0  0  0  0  0  0  0  0
   36.2090   30.0710   41.1510 C   0  0  0  0  0  0  0  0  0  0  0  0
   36.8030   30.8860   40.6870 H   0  0  0  0  0  0  0  0  0  0  0  0
   35.6070   30.5700   41.9670 H   0  0  0  0  0  0  0  0  0  0  0  0
   35.3110   29.5020   40.1000 C   0  0  0  0  0  0  0  0  0  0  0  0
   34.8390   28.6030   40.4740 H   0  0  0  0  0  0  0  0  0  0  0  0
   34.5970   30.3880   39.9850 H   0  0  0  0  0  0  0  0  0  0  0  0
   35.9110   29.4160   38.7540 C   0  0  0  0  0  0  0  0  0  0  0  0
   37.2320   29.5440   38.4180 C   0  0  0  0  0  0  0  0  0  0  0  0
   37.7470   29.5260   37.1540 C   0  0  0  0  0  0  0  0  0  0  0  0
   36.8930   29.3670   36.0830 C   0  0  0  0  0  0  0  0  0  0  0  0
   35.5470   29.2310   36.3530 C   0  0  0  0  0  0  0  0  0  0  0  0
   34.7420   29.0800   35.2460 C   0  0  0  0  0  0  0  0  0  0  0  0
   33.4010   28.9390   35.4120 C   0  0  0  0  0  0  0  0  0  0  0  0
   32.8540   28.9460   36.6710 C   0  0  0  0  0  0  0  0  0  0  0  0
   33.7070   29.0990   37.7310 C   0  0  0  0  0  0  0  0  0  0  0  0
   35.0520   29.2510   37.6580 C   0  0  0  0  0  0  0  0  0  0  0  0
   37.9120   29.6710   39.2660 H   0  0  0  0  0  0  0  0  0  0  0  0
   38.8110   29.6380   37.0410 H   0  0  0  0  0  0  0  0  0  0  0  0
   37.3080   29.3560   35.0930 H   0  0  0  0  0  0  0  0  0  0  0  0
   35.1410   29.0680   34.2370 H   0  0  0  0  0  0  0  0  0  0  0  0
   32.7630   28.8210   34.5260 H   0  0  0  0  0  0  0  0  0  0  0  0
   31.7860   28.8320   36.7970 H   0  0  0  0  0  0  0  0  0  0  0  0
   33.1050   29.0800   38.9860 O   0  0  0  0  0  0  0  0  0  0  0  0
   32.3900   29.7470   39.2480 H   0  0  0  0  0  0  0  0  0  0  0  0
  1  2  1  0  0  0  0
  1 10  1  0  0  0  0
  2  6  1  0  0  0  0
  3  2  2  0  0  0  0
  4  5  1  0  0  0  0
  4  3  1  0  0  0  0
  5  1  2  0  0  0  0
  7  3  1  0  0  0  0
  8 14  1  0  0  0  0
  9 15  1  0  0  0  0
  9  8  2  0  0  0  0
 10  9  1  0  0  0  0
 11 10  2  0  0  0  0
 11 12  1  0  0  0  0
 12 13  2  0  0  0  0
 13  8  1  0  0  0  0
 16 21  1  0  0  0  0
 17 18  1  0  0  0  0
 17 16  2  0  0  0  0
 18 19  2  0  0  0  0
 19 12  1  0  0  0  0
 19 20  1  0  0  0  0
 21 20  2  0  0  0  0
 23 22  1  0  0  0  0
 23 16  1  0  0  0  0
 23 25  2  0  0  0  0
 24 23  2  0  0  0  0
 26  4  1  0  0  0  0
 26 28  1  0  0  0  0
 27 26  1  0  0  0  0
 29 30  1  0  0  0  0
 29 26  1  0  0  0  0
 31 29  1  0  0  0  0
 32 29  1  0  0  0  0
 33 32  1  0  0  0  0
 33 42  1  0  0  0  0
 34 33  2  0  0  0  0
 35 36  2  0  0  0  0
 35 34  1  0  0  0  0
 36 41  1  0  0  0  0
 37 38  2  0  0  0  0
 37 36  1  0  0  0  0
 38 39  1  0  0  0  0
 39 47  1  0  0  0  0
 39 40  2  0  0  0  0
 40 48  1  0  0  0  0
 41 40  1  0  0  0  0
 41 32  2  0  0  0  0
 43 34  1  0  0  0  0
 44 35  1  0  0  0  0
 45 37  1  0  0  0  0
 46 38  1  0  0  0  0
 48 49  1  0  0  0  0
M  END
>  <minimizedAffinity>
-6.28747606

>  <minimizedRMSD>
0.475460052

$$$$
