
 OpenBabel03242509283D

 49 53  0  0  0  0  0  0  0  0999 V2000
   38.6830   28.1650   42.7150 C   0  0  0  0  0  0  0  0  0  0  0  0
   37.6260   27.2950   42.7970 C   0  0  0  0  0  0  0  0  0  0  0  0
   36.5430   27.9360   42.1860 C   0  0  0  0  0  0  0  0  0  0  0  0
   37.0280   29.1170   41.7950 N   0  0  0  0  0  0  0  0  0  0  0  0
   38.2750   29.2870   42.0860 N   0  0  0  0  0  0  0  0  0  0  0  0
   37.6210   26.2940   43.2480 H   0  0  0  0  0  0  0  0  0  0  0  0
   35.5720   27.4620   42.1150 H   0  0  0  0  0  0  0  0  0  0  0  0
   41.6630   26.5520   44.2600 C   0  0  0  0  0  0  0  0  0  0  0  0
   40.3520   26.7040   43.8000 C   0  0  0  0  0  0  0  0  0  0  0  0
   40.0230   27.9410   43.2120 C   0  0  0  0  0  0  0  0  0  0  0  0
   40.9610   28.9150   43.1120 N   0  0  0  0  0  0  0  0  0  0  0  0
   42.2330   28.6950   43.5870 C   0  0  0  0  0  0  0  0  0  0  0  0
   42.5700   27.5320   44.1490 N   0  0  0  0  0  0  0  0  0  0  0  0
   41.8800   25.5770   44.7110 H   0  0  0  0  0  0  0  0  0  0  0  0
   39.6300   25.9080   43.8960 H   0  0  0  0  0  0  0  0  0  0  0  0
   45.0520   31.8170   43.2510 C   0  0  0  0  0  0  0  0  0  0  0  0
   44.6330   31.1590   42.1150 C   0  0  0  0  0  3  0  0  0  0  0  0
   43.7100   30.1360   42.2250 C   0  0  0  0  0  3  0  0  0  0  0  0
   43.2080   29.7720   43.4580 C   0  0  0  0  0  0  0  0  0  0  0  0
   43.6330   30.4370   44.5910 C   0  0  0  0  0  3  0  0  0  0  0  0
   44.5640   31.4740   44.5160 C   0  0  0  0  0  3  0  0  0  0  0  0
   47.2600   32.6090   42.1990 H   0  0  0  0  0  0  0  0  0  0  0  0
   46.2230   33.0880   42.9550 S   0  0  0  0  0  0  0  0  0  0  0  0
   45.6100   34.2080   42.1460 O   0  0  0  0  0  0  0  0  0  0  0  0
   46.7730   33.6790   44.2080 O   0  0  0  0  0  0  0  0  0  0  0  0
   36.1680   30.0350   41.1310 C   0  0  0  0  0  0  0  0  0  0  0  0
   36.7470   30.8640   40.6740 H   0  0  0  0  0  0  0  0  0  0  0  0
   35.5530   30.5190   41.9470 H   0  0  0  0  0  0  0  0  0  0  0  0
   35.2860   29.4540   40.0740 C   0  0  0  0  0  0  0  0  0  0  0  0
   34.8280   28.5450   40.4430 H   0  0  0  0  0  0  0  0  0  0  0  0
   34.5560   30.3270   39.9580 H   0  0  0  0  0  0  0  0  0  0  0  0
   35.8940   29.3840   38.7310 C   0  0  0  0  0  0  0  0  0  0  0  0
   37.2180   29.5060   38.4060 C   0  0  0  0  0  0  0  0  0  0  0  0
   37.7410   29.5030   37.1450 C   0  0  0  0  0  0  0  0  0  0  0  0
   36.8930   29.3670   36.0660 C   0  0  0  0  0  0  0  0  0  0  0  0
   35.5440   29.2360   36.3250 C   0  0  0  0  0  0  0  0  0  0  0  0
   34.7460   29.1090   35.2110 C   0  0  0  0  0  0  0  0  0  0  0  0
   33.4020   28.9760   35.3660 C   0  0  0  0  0  0  0  0  0  0  0  0
   32.8470   28.9670   36.6210 C   0  0  0  0  0  0  0  0  0  0  0  0
   33.6950   29.0990   37.6890 C   0  0  0  0  0  0  0  0  0  0  0  0
   35.0410   29.2410   37.6260 C   0  0  0  0  0  0  0  0  0  0  0  0
   37.8930   29.6150   39.2590 H   0  0  0  0  0  0  0  0  0  0  0  0
   38.8070   29.6090   37.0400 H   0  0  0  0  0  0  0  0  0  0  0  0
   37.3140   29.3670   35.0780 H   0  0  0  0  0  0  0  0  0  0  0  0
   35.1510   29.1090   34.2040 H   0  0  0  0  0  0  0  0  0  0  0  0
   32.7690   28.8760   34.4740 H   0  0  0  0  0  0  0  0  0  0  0  0
   31.7780   28.8600   36.7390 H   0  0  0  0  0  0  0  0  0  0  0  0
   33.0840   29.0650   38.9400 O   0  0  0  0  0  0  0  0  0  0  0  0
   32.3720   29.7340   39.2070 H   0  0  0  0  0  0  0  0  0  0  0  0
  1  2  1  0  0  0  0
  1 10  1  0  0  0  0
  2  6  1  0  0  0  0
  3  2  2  0  0  0  0
  4  5  1  0  0  0  0
  4  3  1  0  0  0  0
  5  1  2  0  0  0  0
  7  3  1  0  0  0  0
  8 14  1  0  0  0  0
  9 15  1  0  0  0  0
  9  8  2  0  0  0  0
 10  9  1  0  0  0  0
 11 10  2  0  0  0  0
 11 12  1  0  0  0  0
 12 13  2  0  0  0  0
 13  8  1  0  0  0  0
 16 21  1  0  0  0  0
 17 18  1  0  0  0  0
 17 16  2  0  0  0  0
 18 19  2  0  0  0  0
 19 12  1  0  0  0  0
 19 20  1  0  0  0  0
 21 20  2  0  0  0  0
 22 23  1  0  0  0  0
 23 16  1  0  0  0  0
 23 25  2  0  0  0  0
 24 23  2  0  0  0  0
 26  4  1  0  0  0  0
 26 28  1  0  0  0  0
 27 26  1  0  0  0  0
 29 30  1  0  0  0  0
 29 26  1  0  0  0  0
 31 29  1  0  0  0  0
 32 29  1  0  0  0  0
 33 32  1  0  0  0  0
 33 42  1  0  0  0  0
 34 33  2  0  0  0  0
 35 36  2  0  0  0  0
 35 34  1  0  0  0  0
 36 41  1  0  0  0  0
 37 38  2  0  0  0  0
 37 36  1  0  0  0  0
 38 39  1  0  0  0  0
 39 47  1  0  0  0  0
 39 40  2  0  0  0  0
 40 48  1  0  0  0  0
 41 40  1  0  0  0  0
 41 32  2  0  0  0  0
 43 34  1  0  0  0  0
 44 35  1  0  0  0  0
 45 37  1  0  0  0  0
 46 38  1  0  0  0  0
 48 49  1  0  0  0  0
M  END
>  <minimizedAffinity>
-6.28533077

>  <minimizedRMSD>
0.591361046

$$$$
