
 OpenBabel03242506433D

 31 34  0  0  0  0  0  0  0  0999 V2000
   40.1250   25.4400   43.6180 C   0  0  0  0  0  0  0  0  0  0  0  0
   39.5830   26.7160   43.9210 C   0  0  0  0  0  0  0  0  0  0  0  0
   38.3880   27.0770   43.2810 C   0  0  0  0  0  0  0  0  0  0  0  0
   37.7990   26.2150   42.4120 N   0  0  0  0  0  0  0  0  0  0  0  0
   38.3570   25.0060   42.1560 C   0  0  0  0  0  0  0  0  0  0  0  0
   39.5070   24.6180   42.7490 N   0  0  0  0  0  0  0  0  0  0  0  0
   41.0430   25.1070   44.0790 H   0  0  0  0  0  0  0  0  0  0  0  0
   40.0750   27.3720   44.6120 H   0  0  0  0  0  0  0  0  0  0  0  0
   36.4150   22.3420   39.4160 C   0  0  0  0  0  0  0  0  0  0  0  0
   35.7750   23.4710   39.9150 C   0  0  0  0  0  0  0  0  0  0  0  0
   36.4080   24.3390   40.8080 C   0  0  0  0  0  0  0  0  0  0  0  0
   37.7200   24.0760   41.2180 C   0  0  0  0  0  0  0  0  0  0  0  0
   38.3860   22.9640   40.7420 C   0  0  0  0  0  0  0  0  0  0  0  0
   37.7050   22.1480   39.8630 C   0  0  0  0  0  0  0  0  0  0  0  0
   34.9480   21.9070   37.3320 H   0  0  0  0  0  0  0  0  0  0  0  0
   35.6460   21.2500   38.3050 S   0  0  0  0  0  0  0  0  0  0  0  0
   36.7190   20.4500   37.6080 O   0  0  0  0  0  0  0  0  0  0  0  0
   34.7710   20.2390   39.0020 O   0  0  0  0  0  0  0  0  0  0  0  0
   37.9040   28.3210   43.6070 O   0  0  0  0  0  0  0  0  0  0  0  0
   39.5600   31.7640   41.1250 N   0  0  0  0  0  0  0  0  0  0  0  0
   40.4430   31.3250   42.0450 C   0  0  0  0  0  0  0  0  0  0  0  0
   39.8680   30.3170   42.7230 N   0  0  0  0  0  0  0  0  0  0  0  0
   38.6260   30.0880   42.2620 C   0  0  0  0  0  0  0  0  0  0  0  0
   37.6060   29.2000   42.5770 C   0  0  0  0  0  0  0  0  0  0  0  0
   36.4320   29.2510   41.8780 N   0  0  0  0  0  0  0  0  0  0  0  0
   36.2860   30.1630   40.8960 C   0  0  0  0  0  0  0  0  0  0  0  0
   37.2610   31.0500   40.5590 N   0  0  0  0  0  0  0  0  0  0  0  0
   38.4360   31.0200   41.2370 C   0  0  0  0  0  0  0  0  0  0  0  0
   39.6590   32.5430   40.4110 H   0  0  0  0  0  0  0  0  0  0  0  0
   41.4360   31.7580   42.1650 H   0  0  0  0  0  0  0  0  0  0  0  0
   35.3370   30.1570   40.3800 H   0  0  0  0  0  0  0  0  0  0  0  0
  1  2  1  0  0  0  0
  1  7  1  0  0  0  0
  2  8  1  0  0  0  0
  3 19  1  0  0  0  0
  3  2  2  0  0  0  0
  4  3  1  0  0  0  0
  5  4  2  0  0  0  0
  5  6  1  0  0  0  0
  6  1  2  0  0  0  0
  9 14  2  0  0  0  0
  9 10  1  0  0  0  0
 10 11  2  0  0  0  0
 11 12  1  0  0  0  0
 12  5  1  0  0  0  0
 13 12  2  0  0  0  0
 14 13  1  0  0  0  0
 15 16  1  0  0  0  0
 16 18  2  0  0  0  0
 16  9  1  0  0  0  0
 17 16  2  0  0  0  0
 20 28  1  0  0  0  0
 20 21  1  0  0  0  0
 21 30  1  0  0  0  0
 21 22  2  0  0  0  0
 23 24  1  0  0  0  0
 23 22  1  0  0  0  0
 24 19  1  0  0  0  0
 25 24  2  0  0  0  0
 26 25  1  0  0  0  0
 27 26  2  0  0  0  0
 27 28  1  0  0  0  0
 28 23  2  0  0  0  0
 29 20  1  0  0  0  0
 31 26  1  0  0  0  0
M  END
>  <minimizedAffinity>
-5.67291641

>  <minimizedRMSD>
7.24721622

$$$$
