
 OpenBabel03242504073D

 24 26  0  0  0  0  0  0  0  0999 V2000
   37.7610   31.0350   41.0450 C   0  0  0  0  0  0  0  0  0  0  0  0
   36.7690   31.5520   40.2560 C   0  0  0  0  0  0  0  0  0  0  0  0
   37.0660   32.7240   39.5850 C   0  0  0  0  0  0  0  0  0  0  0  0
   38.2450   33.3510   39.6760 N   0  0  0  0  0  0  0  0  0  0  0  0
   39.1970   32.8190   40.4570 C   0  0  0  0  0  0  0  0  0  0  0  0
   38.9270   31.6750   41.1190 N   0  0  0  0  0  0  0  0  0  0  0  0
   35.7870   31.0860   40.1420 H   0  0  0  0  0  0  0  0  0  0  0  0
   36.2860   33.1580   38.9460 H   0  0  0  0  0  0  0  0  0  0  0  0
   40.5040   33.3830   40.6460 N   0  0  0  0  0  0  0  0  0  0  0  0
   41.4990   32.7720   41.5000 C   0  0  0  0  0  0  0  0  0  0  0  0
   42.8030   33.4760   41.3000 C   0  0  0  0  0  0  0  0  0  0  0  0
   42.6460   34.8650   41.6690 N   0  0  0  0  0  0  0  0  0  0  0  0
   43.5770   35.3380   41.5630 H   0  0  0  0  0  0  0  0  0  0  0  0
   41.6430   35.5420   40.8950 C   0  0  0  0  0  0  0  0  0  0  0  0
   40.8890   34.6120   39.9760 C   0  0  0  0  0  0  0  0  0  0  0  0
   38.0430   28.4000   43.5830 C   0  0  0  0  0  0  0  0  0  0  0  0
   37.0740   27.4660   43.1860 C   0  0  0  0  0  0  0  0  0  0  0  0
   36.3340   27.7530   42.0480 C   0  0  0  0  0  0  0  0  0  0  0  0
   36.5780   28.9210   41.3710 N   0  0  0  0  0  0  0  0  0  0  0  0
   37.5190   29.7880   41.7900 C   0  0  0  0  0  0  0  0  0  0  0  0
   38.2600   29.5390   42.8960 N   0  0  0  0  0  0  0  0  0  0  0  0
   38.6320   28.1750   44.4850 H   0  0  0  0  0  0  0  0  0  0  0  0
   36.9350   26.5730   43.7610 H   0  0  0  0  0  0  0  0  0  0  0  0
   35.5730   27.0650   41.6990 H   0  0  0  0  0  0  0  0  0  0  0  0
  1  6  1  0  0  0  0
  1 20  1  0  0  0  0
  2  1  2  0  0  0  0
  3  4  2  0  0  0  0
  3  2  1  0  0  0  0
  4  5  1  0  0  0  0
  5  9  1  0  0  0  0
  5  6  2  0  0  0  0
  7  2  1  0  0  0  0
  8  3  1  0  0  0  0
  9 10  1  0  0  0  0
 11 10  1  0  0  0  0
 11 12  1  0  0  0  0
 13 12  1  0  0  0  0
 14 12  1  0  0  0  0
 15  9  1  0  0  0  0
 15 14  1  0  0  0  0
 16 22  1  0  0  0  0
 17 16  1  0  0  0  0
 17 23  1  0  0  0  0
 18 17  2  0  0  0  0
 19 20  2  0  0  0  0
 19 18  1  0  0  0  0
 20 21  1  0  0  0  0
 21 16  2  0  0  0  0
 24 18  1  0  0  0  0
M  END
>  <minimizedAffinity>
-5.32858944

>  <minimizedRMSD>
3.52028227

$$$$
