
     RDKit          3D

 27 28  0  0  0  0  0  0  0  0999 V2000
   37.9656   28.8844   43.3700 C   0  0  0  0  0  0  0  0  0  0  0  0
   38.0820   27.4659   43.3150 C   0  0  0  0  0  0  0  0  0  0  0  0
   37.4360   26.8206   42.2562 C   0  0  0  0  0  0  0  0  0  0  0  0
   36.7346   27.5852   41.3413 N   0  0  0  0  0  0  0  0  0  0  0  0
   36.6629   28.9155   41.4481 C   0  0  0  0  0  0  0  0  0  0  0  0
   37.2709   29.5466   42.4486 N   0  0  0  0  0  0  0  0  0  0  0  0
   37.5245   25.3328   42.1489 C   0  0  0  0  0  0  0  0  0  0  0  0
   37.6484   25.0524   40.8058 F   0  0  0  0  0  0  0  0  0  0  0  0
   38.6351   24.8381   42.7943 F   0  0  0  0  0  0  0  0  0  0  0  0
   36.3860   24.7133   42.6449 F   0  0  0  0  0  0  0  0  0  0  0  0
   38.4754   29.3505   44.1988 H   0  0  0  0  0  0  0  0  0  0  0  0
   38.6475   26.9319   44.0659 H   0  0  0  0  0  0  0  0  0  0  0  0
   35.9315   29.6689   40.4870 N   0  0  0  0  0  0  0  0  0  0  0  0
   34.6399   30.2486   40.7456 C   0  0  0  0  0  0  0  0  0  0  0  0
   33.7283   30.1924   39.5420 C   0  0  0  0  0  0  0  0  0  0  0  0
   34.3788   30.6491   38.3349 N   0  0  0  0  0  0  0  0  0  0  0  0
   34.4358   29.8136   37.6885 H   0  0  0  0  0  0  0  0  0  0  0  0
   35.7409   31.0762   38.5677 C   0  0  0  0  0  0  0  0  0  0  0  0
   36.4665   29.8976   39.1586 C   0  0  0  0  0  0  0  0  0  0  0  0
   34.1083   29.7366   41.5747 H   0  0  0  0  0  0  0  0  0  0  0  0
   34.7534   31.3182   41.0741 H   0  0  0  0  0  0  0  0  0  0  0  0
   32.8614   30.8512   39.7509 H   0  0  0  0  0  0  0  0  0  0  0  0
   33.3124   29.1712   39.4422 H   0  0  0  0  0  0  0  0  0  0  0  0
   35.7981   31.9426   39.2462 H   0  0  0  0  0  0  0  0  0  0  0  0
   36.2011   31.3119   37.5995 H   0  0  0  0  0  0  0  0  0  0  0  0
   36.1572   29.0112   38.5487 H   0  0  0  0  0  0  0  0  0  0  0  0
   37.5603   30.0154   39.1602 H   0  0  0  0  0  0  0  0  0  0  0  0
  2  1  2  0
  3  2  1  0
  4  5  1  0
  4  3  2  0
  5  6  2  0
  6  1  1  0
  7  3  1  0
  7 10  1  0
  7  9  1  0
  8  7  1  0
  1 11  1  0
  2 12  1  0
 13 14  1  0
 14 15  1  0
 15 16  1  0
 16 17  1  0
 16 18  1  0
 18 19  1  0
 19 13  1  0
 14 20  1  0
 14 21  1  0
 15 22  1  0
 15 23  1  0
 18 24  1  0
 18 25  1  0
 19 26  1  0
 19 27  1  0
  5 13  1  0
M  ISO  3  11  14  12  14  17   5
M  END
>  <DihAtoms>  (1) 
3,4,12,13

>  <DihDeg>  (1) 
2.3640597577603067e-05

$$$$
