
 OpenBabel03242509303D

 19 20  0  0  0  0  0  0  0  0999 V2000
   37.9630   28.5430   43.6360 C   0  0  0  0  0  0  0  0  0  0  0  0
   38.4090   27.1920   43.6690 C   0  0  0  0  0  0  0  0  0  0  0  0
   38.1960   26.4290   42.5160 C   0  0  0  0  0  0  0  0  0  0  0  0
   37.5760   27.0230   41.4320 N   0  0  0  0  0  0  0  0  0  0  0  0
   37.1790   28.2990   41.4630 C   0  0  0  0  0  0  0  0  0  0  0  0
   37.3730   29.0400   42.5510 N   0  0  0  0  0  0  0  0  0  0  0  0
   38.1410   29.1040   44.5400 H   0  0  0  0  0  0  0  0  0  0  0  0
   38.8880   26.7930   44.5530 H   0  0  0  0  0  0  0  0  0  0  0  0
   36.5430   28.8750   40.3280 N   0  0  0  0  0  0  0  0  0  0  0  0
   35.1300   29.1370   40.2540 C   0  0  0  0  0  2  0  0  0  0  0  0
   34.5660   28.8870   38.8740 C   0  0  0  0  0  2  0  0  0  0  0  0
   35.3620   29.4990   37.8340 N   0  0  0  0  0  0  0  0  0  0  0  0
   35.7590   28.7090   37.2540 H   0  0  0  0  0  0  0  0  0  0  0  0
   36.4960   30.2260   38.3600 C   0  0  0  0  0  2  0  0  0  0  0  0
   37.3110   29.2400   39.1530 C   0  0  0  0  0  2  0  0  0  0  0  0
   38.6440   25.0040   42.4950 C   0  0  0  0  0  0  0  0  0  0  0  0
   39.3160   24.8310   41.3050 F   0  0  0  0  0  0  0  0  0  0  0  0
   39.5150   24.7250   43.5230 F   0  0  0  0  0  0  0  0  0  0  0  0
   37.5700   24.1260   42.5470 F   0  0  0  0  0  0  0  0  0  0  0  0
  1  2  1  0  0  0  0
  1  7  1  0  0  0  0
  2  8  1  0  0  0  0
  3  2  2  0  0  0  0
  4  5  2  0  0  0  0
  4  3  1  0  0  0  0
  5  6  1  0  0  0  0
  6  1  2  0  0  0  0
  9  5  1  0  0  0  0
 10  9  1  0  0  0  0
 11 10  1  0  0  0  0
 12 14  1  0  0  0  0
 12 11  1  0  0  0  0
 13 12  1  0  0  0  0
 14 15  1  0  0  0  0
 15  9  1  0  0  0  0
 16  3  1  0  0  0  0
 16 19  1  0  0  0  0
 16 18  1  0  0  0  0
 17 16  1  0  0  0  0
M  END
>  <minimizedAffinity>
-4.54197168

>  <minimizedRMSD>
1.15939069

$$$$
