
     RDKit          3D

 27 28  0  0  0  0  0  0  0  0999 V2000
   37.9656   28.8844   43.3700 C   0  0  0  0  0  0  0  0  0  0  0  0
   38.0820   27.4659   43.3150 C   0  0  0  0  0  0  0  0  0  0  0  0
   37.4360   26.8206   42.2562 C   0  0  0  0  0  0  0  0  0  0  0  0
   36.7346   27.5852   41.3413 N   0  0  0  0  0  0  0  0  0  0  0  0
   36.6629   28.9155   41.4481 C   0  0  0  0  0  0  0  0  0  0  0  0
   37.2709   29.5466   42.4486 N   0  0  0  0  0  0  0  0  0  0  0  0
   37.5245   25.3328   42.1489 C   0  0  0  0  0  0  0  0  0  0  0  0
   37.6484   25.0524   40.8058 F   0  0  0  0  0  0  0  0  0  0  0  0
   38.6351   24.8381   42.7943 F   0  0  0  0  0  0  0  0  0  0  0  0
   36.3860   24.7133   42.6449 F   0  0  0  0  0  0  0  0  0  0  0  0
   38.4754   29.3505   44.1988 H   0  0  0  0  0  0  0  0  0  0  0  0
   38.6475   26.9319   44.0659 H   0  0  0  0  0  0  0  0  0  0  0  0
   35.9315   29.6689   40.4870 N   0  0  0  0  0  0  0  0  0  0  0  0
   34.8067   30.5033   40.8183 C   0  0  0  0  0  0  0  0  0  0  0  0
   33.7296   30.4708   39.7593 C   0  0  0  0  0  0  0  0  0  0  0  0
   34.2597   30.6508   38.4269 N   0  0  0  0  0  0  0  0  0  0  0  0
   34.0809   29.7472   37.9066 H   0  0  0  0  0  0  0  0  0  0  0  0
   35.6930   30.8449   38.4229 C   0  0  0  0  0  0  0  0  0  0  0  0
   36.2932   29.6330   39.0830 C   0  0  0  0  0  0  0  0  0  0  0  0
   34.3271   30.2018   41.7729 H   0  0  0  0  0  0  0  0  0  0  0  0
   35.1433   31.5655   40.9713 H   0  0  0  0  0  0  0  0  0  0  0  0
   33.0245   31.2983   39.9772 H   0  0  0  0  0  0  0  0  0  0  0  0
   33.1403   29.5392   39.8617 H   0  0  0  0  0  0  0  0  0  0  0  0
   35.9930   31.7615   38.9558 H   0  0  0  0  0  0  0  0  0  0  0  0
   36.0365   30.8731   37.3808 H   0  0  0  0  0  0  0  0  0  0  0  0
   35.7543   28.7517   38.6519 H   0  0  0  0  0  0  0  0  0  0  0  0
   37.3794   29.5469   38.9306 H   0  0  0  0  0  0  0  0  0  0  0  0
  2  1  2  0
  3  2  1  0
  4  5  1  0
  4  3  2  0
  5  6  2  0
  6  1  1  0
  7  3  1  0
  7 10  1  0
  7  9  1  0
  8  7  1  0
  1 11  1  0
  2 12  1  0
 13 14  1  0
 14 15  1  0
 15 16  1  0
 16 17  1  0
 16 18  1  0
 18 19  1  0
 19 13  1  0
 14 20  1  0
 14 21  1  0
 15 22  1  0
 15 23  1  0
 18 24  1  0
 18 25  1  0
 19 26  1  0
 19 27  1  0
  5 13  1  0
M  ISO  3  11  14  12  14  17   5
M  END
>  <DihAtoms>  (1) 
3,4,12,13

>  <DihDeg>  (1) 
2.3640597577603067e-05

$$$$
