
     RDKit          3D

 27 28  0  0  0  0  0  0  0  0999 V2000
   37.9656   28.8844   43.3700 C   0  0  0  0  0  0  0  0  0  0  0  0
   38.0820   27.4659   43.3150 C   0  0  0  0  0  0  0  0  0  0  0  0
   37.4360   26.8206   42.2562 C   0  0  0  0  0  0  0  0  0  0  0  0
   36.7346   27.5852   41.3413 N   0  0  0  0  0  0  0  0  0  0  0  0
   36.6629   28.9155   41.4481 C   0  0  0  0  0  0  0  0  0  0  0  0
   37.2709   29.5466   42.4486 N   0  0  0  0  0  0  0  0  0  0  0  0
   37.5245   25.3328   42.1489 C   0  0  0  0  0  0  0  0  0  0  0  0
   37.6484   25.0524   40.8058 F   0  0  0  0  0  0  0  0  0  0  0  0
   38.6351   24.8381   42.7943 F   0  0  0  0  0  0  0  0  0  0  0  0
   36.3860   24.7133   42.6449 F   0  0  0  0  0  0  0  0  0  0  0  0
   38.4754   29.3505   44.1988 H   0  0  0  0  0  0  0  0  0  0  0  0
   38.6475   26.9319   44.0659 H   0  0  0  0  0  0  0  0  0  0  0  0
   35.9315   29.6689   40.4870 N   0  0  0  0  0  0  0  0  0  0  0  0
   34.9943   29.0852   39.5639 C   0  0  0  0  0  0  0  0  0  0  0  0
   35.0264   29.7504   38.2077 C   0  0  0  0  0  0  0  0  0  0  0  0
   34.9856   31.1922   38.2988 N   0  0  0  0  0  0  0  0  0  0  0  0
   35.9099   31.5443   37.9234 H   0  0  0  0  0  0  0  0  0  0  0  0
   34.8983   31.6582   39.6652 C   0  0  0  0  0  0  0  0  0  0  0  0
   36.0984   31.1060   40.3859 C   0  0  0  0  0  0  0  0  0  0  0  0
   35.1877   28.0051   39.3959 H   0  0  0  0  0  0  0  0  0  0  0  0
   33.9513   29.1444   39.9805 H   0  0  0  0  0  0  0  0  0  0  0  0
   34.1354   29.4034   37.6465 H   0  0  0  0  0  0  0  0  0  0  0  0
   35.9019   29.3836   37.6380 H   0  0  0  0  0  0  0  0  0  0  0  0
   33.9691   31.3330   40.1602 H   0  0  0  0  0  0  0  0  0  0  0  0
   34.9731   32.7533   39.6639 H   0  0  0  0  0  0  0  0  0  0  0  0
   36.9674   31.2642   39.6982 H   0  0  0  0  0  0  0  0  0  0  0  0
   36.2752   31.5787   41.3635 H   0  0  0  0  0  0  0  0  0  0  0  0
  2  1  2  0
  3  2  1  0
  4  5  1  0
  4  3  2  0
  5  6  2  0
  6  1  1  0
  7  3  1  0
  7 10  1  0
  7  9  1  0
  8  7  1  0
  1 11  1  0
  2 12  1  0
 13 14  1  0
 14 15  1  0
 15 16  1  0
 16 17  1  0
 16 18  1  0
 18 19  1  0
 19 13  1  0
 14 20  1  0
 14 21  1  0
 15 22  1  0
 15 23  1  0
 18 24  1  0
 18 25  1  0
 19 26  1  0
 19 27  1  0
  5 13  1  0
M  ISO  3  11  14  12  14  17   5
M  END
>  <DihAtoms>  (1) 
3,4,12,13

>  <DihDeg>  (1) 
2.3640597577603067e-05

$$$$
