
 OpenBabel03242508183D

 29 32  0  0  0  0  0  0  0  0999 V2000
   38.9500   27.2180   43.8200 C   0  0  0  0  0  0  0  0  0  0  0  0
   39.4340   26.2810   42.8840 C   0  0  0  0  0  0  0  0  0  0  0  0
   39.3480   26.6170   41.5240 C   0  0  0  0  0  0  0  0  0  0  0  0
   38.8050   27.8220   41.1980 N   0  0  0  0  0  0  0  0  0  0  0  0
   38.3460   28.7050   42.1390 C   0  0  0  0  0  0  0  0  0  0  0  0
   38.4250   28.3920   43.4400 N   0  0  0  0  0  0  0  0  0  0  0  0
   37.8320   29.8790   41.5350 N   0  0  0  0  0  0  0  0  0  0  0  0
   36.5020   29.9870   41.2330 C   0  0  0  0  0  0  0  0  0  0  0  0
   36.2530   31.1860   40.6680 N   0  0  0  0  0  0  0  0  0  0  0  0
   37.4190   31.8560   40.6050 C   0  0  0  0  0  0  0  0  0  0  0  0
   37.8210   33.1060   40.1440 C   0  0  0  0  0  0  0  0  0  0  0  0
   39.1160   33.4590   40.2410 N   0  0  0  0  0  0  0  0  0  0  0  0
   40.0360   32.6310   40.7750 C   0  0  0  0  0  0  0  0  0  0  0  0
   39.6710   31.4040   41.2340 N   0  0  0  0  0  0  0  0  0  0  0  0
   38.3760   31.0170   41.1510 C   0  0  0  0  0  0  0  0  0  0  0  0
   36.7840   33.8880   39.6070 N   0  0  0  0  0  0  0  0  0  0  0  0
   39.0080   26.9790   44.8690 H   0  0  0  0  0  0  0  0  0  0  0  0
   39.8600   25.3290   43.1820 H   0  0  0  0  0  0  0  0  0  0  0  0
   39.6990   25.9470   40.7520 H   0  0  0  0  0  0  0  0  0  0  0  0
   35.7110   29.2560   41.3940 H   0  0  0  0  0  0  0  0  0  0  0  0
   36.5240   33.7280   38.6060 H   0  0  0  0  0  0  0  0  0  0  0  0
   36.5420   34.4700   40.4570 H   0  0  0  0  0  0  0  0  0  0  0  0
   41.4050   33.0070   40.8770 N   0  0  0  0  0  0  0  0  0  0  0  0
   41.9720   34.1300   40.1530 C   0  0  0  0  0  0  0  0  0  0  0  0
   43.4540   33.8410   40.0280 C   0  0  0  0  0  0  0  0  0  0  0  0
   44.0620   33.9240   41.3400 N   0  0  0  0  0  0  0  0  0  0  0  0
   44.0420   34.9330   41.6170 H   0  0  0  0  0  0  0  0  0  0  0  0
   43.3830   33.1240   42.3240 C   0  0  0  0  0  0  0  0  0  0  0  0
   42.3000   32.2520   41.7350 C   0  0  0  0  0  0  0  0  0  0  0  0
  1 17  1  0  0  0  0
  2 18  1  0  0  0  0
  2  1  2  0  0  0  0
  3  2  1  0  0  0  0
  4  3  2  0  0  0  0
  4  5  1  0  0  0  0
  5  6  2  0  0  0  0
  6  1  1  0  0  0  0
  7  5  1  0  0  0  0
  8 20  1  0  0  0  0
  8  7  1  0  0  0  0
  9  8  2  0  0  0  0
 10  9  1  0  0  0  0
 10 15  1  0  0  0  0
 11 12  1  0  0  0  0
 11 10  2  0  0  0  0
 12 13  2  0  0  0  0
 13 23  1  0  0  0  0
 13 14  1  0  0  0  0
 15 14  2  0  0  0  0
 15  7  1  0  0  0  0
 16 11  1  0  0  0  0
 16 22  1  0  0  0  0
 19  3  1  0  0  0  0
 21 16  1  0  0  0  0
 23 29  1  0  0  0  0
 24 23  1  0  0  0  0
 25 24  1  0  0  0  0
 25 26  1  0  0  0  0
 26 27  1  0  0  0  0
 26 28  1  0  0  0  0
 29 28  1  0  0  0  0
M  END
>  <minimizedAffinity>
-6.40527773

>  <minimizedRMSD>
1.13548362

$$$$
