
     RDKit          3D

 27 28  0  0  0  0  0  0  0  0999 V2000
   37.9656   28.8844   43.3700 C   0  0  0  0  0  0  0  0  0  0  0  0
   38.0820   27.4659   43.3150 C   0  0  0  0  0  0  0  0  0  0  0  0
   37.4360   26.8206   42.2562 C   0  0  0  0  0  0  0  0  0  0  0  0
   36.7346   27.5852   41.3413 N   0  0  0  0  0  0  0  0  0  0  0  0
   36.6629   28.9155   41.4481 C   0  0  0  0  0  0  0  0  0  0  0  0
   37.2709   29.5466   42.4486 N   0  0  0  0  0  0  0  0  0  0  0  0
   37.5245   25.3328   42.1489 C   0  0  0  0  0  0  0  0  0  0  0  0
   37.6484   25.0524   40.8058 F   0  0  0  0  0  0  0  0  0  0  0  0
   38.6351   24.8381   42.7943 F   0  0  0  0  0  0  0  0  0  0  0  0
   36.3860   24.7133   42.6449 F   0  0  0  0  0  0  0  0  0  0  0  0
   38.4754   29.3505   44.1988 H   0  0  0  0  0  0  0  0  0  0  0  0
   38.6475   26.9319   44.0659 H   0  0  0  0  0  0  0  0  0  0  0  0
   35.9315   29.6689   40.4870 N   0  0  0  0  0  0  0  0  0  0  0  0
   35.8044   31.1018   40.5283 C   0  0  0  0  0  0  0  0  0  0  0  0
   34.4399   31.5753   40.0845 C   0  0  0  0  0  0  0  0  0  0  0  0
   34.0139   30.9537   38.8513 N   0  0  0  0  0  0  0  0  0  0  0  0
   33.1666   30.3656   39.0870 H   0  0  0  0  0  0  0  0  0  0  0  0
   35.0043   30.0438   38.3191 C   0  0  0  0  0  0  0  0  0  0  0  0
   35.2570   29.0114   39.3843 C   0  0  0  0  0  0  0  0  0  0  0  0
   35.9691   31.5087   41.5478 H   0  0  0  0  0  0  0  0  0  0  0  0
   36.5904   31.5799   39.8813 H   0  0  0  0  0  0  0  0  0  0  0  0
   34.5034   32.6711   39.9279 H   0  0  0  0  0  0  0  0  0  0  0  0
   33.7141   31.4310   40.9079 H   0  0  0  0  0  0  0  0  0  0  0  0
   35.9420   30.5562   38.0499 H   0  0  0  0  0  0  0  0  0  0  0  0
   34.5757   29.5368   37.4449 H   0  0  0  0  0  0  0  0  0  0  0  0
   34.2484   28.7209   39.7737 H   0  0  0  0  0  0  0  0  0  0  0  0
   35.8084   28.1329   39.0176 H   0  0  0  0  0  0  0  0  0  0  0  0
  2  1  2  0
  3  2  1  0
  4  5  1  0
  4  3  2  0
  5  6  2  0
  6  1  1  0
  7  3  1  0
  7 10  1  0
  7  9  1  0
  8  7  1  0
  1 11  1  0
  2 12  1  0
 13 14  1  0
 14 15  1  0
 15 16  1  0
 16 17  1  0
 16 18  1  0
 18 19  1  0
 19 13  1  0
 14 20  1  0
 14 21  1  0
 15 22  1  0
 15 23  1  0
 18 24  1  0
 18 25  1  0
 19 26  1  0
 19 27  1  0
  5 13  1  0
M  ISO  3  11  14  12  14  17   5
M  END
>  <DihAtoms>  (1) 
3,4,12,13

>  <DihDeg>  (1) 
2.3640597577603067e-05

$$$$
