
 OpenBabel03242509303D

 19 20  0  0  0  0  0  0  0  0999 V2000
   37.6650   28.8060   43.5050 C   0  0  0  0  0  0  0  0  0  0  0  0
   38.0360   27.4380   43.6340 C   0  0  0  0  0  0  0  0  0  0  0  0
   38.3500   26.7550   42.4550 C   0  0  0  0  0  0  0  0  0  0  0  0
   38.2840   27.4380   41.2540 N   0  0  0  0  0  0  0  0  0  0  0  0
   37.9280   28.7260   41.1990 C   0  0  0  0  0  0  0  0  0  0  0  0
   37.6250   29.3910   42.3100 N   0  0  0  0  0  0  0  0  0  0  0  0
   37.4280   29.3040   44.4330 H   0  0  0  0  0  0  0  0  0  0  0  0
   38.0670   26.9670   44.6070 H   0  0  0  0  0  0  0  0  0  0  0  0
   37.8700   29.3960   39.9440 N   0  0  0  0  0  0  0  0  0  0  0  0
   37.8070   30.8270   39.8090 C   0  0  0  0  0  2  0  0  0  0  0  0
   36.9240   31.2610   38.6620 C   0  0  0  0  0  2  0  0  0  0  0  0
   37.2080   30.5380   37.4420 N   0  0  0  0  0  0  0  0  0  0  0  0
   36.3430   29.9720   37.2200 H   0  0  0  0  0  0  0  0  0  0  0  0
   38.2860   29.5870   37.6010 C   0  0  0  0  0  2  0  0  0  0  0  0
   37.8730   28.6470   38.7020 C   0  0  0  0  0  2  0  0  0  0  0  0
   38.7470   25.3170   42.5320 C   0  0  0  0  0  0  0  0  0  0  0  0
   39.4840   25.0610   41.3960 F   0  0  0  0  0  0  0  0  0  0  0  0
   39.5410   25.0610   43.6260 F   0  0  0  0  0  0  0  0  0  0  0  0
   37.6390   24.4790   42.5580 F   0  0  0  0  0  0  0  0  0  0  0  0
  1  2  1  0  0  0  0
  1  7  1  0  0  0  0
  2  8  1  0  0  0  0
  3 16  1  0  0  0  0
  3  2  2  0  0  0  0
  4  3  1  0  0  0  0
  5  4  2  0  0  0  0
  5  6  1  0  0  0  0
  6  1  2  0  0  0  0
  9  5  1  0  0  0  0
 10  9  1  0  0  0  0
 11 10  1  0  0  0  0
 12 14  1  0  0  0  0
 12 11  1  0  0  0  0
 13 12  1  0  0  0  0
 14 15  1  0  0  0  0
 15  9  1  0  0  0  0
 16 19  1  0  0  0  0
 16 18  1  0  0  0  0
 17 16  1  0  0  0  0
M  END
>  <minimizedAffinity>
-4.28133154

>  <minimizedRMSD>
1.9891876

$$$$
