
 OpenBabel03242509193D

 20 21  0  0  0  0  0  0  0  0999 V2000
   39.6590   29.1890   42.6710 C   0  0  0  0  0  0  0  0  0  0  0  0
   40.1590   28.0190   43.1730 C   0  0  0  0  0  0  0  0  0  0  0  0
   39.0920   27.1920   43.4460 C   0  0  0  0  0  0  0  0  0  0  0  0
   37.9980   27.9060   43.0940 N   0  0  0  0  0  0  0  0  0  0  0  0
   38.3130   29.0840   42.6360 N   0  0  0  0  0  0  0  0  0  0  0  0
   41.2110   27.7780   43.3320 H   0  0  0  0  0  0  0  0  0  0  0  0
   39.1770   26.1860   43.8570 H   0  0  0  0  0  0  0  0  0  0  0  0
   42.3510   31.7490   42.3520 C   0  0  0  0  0  0  0  0  0  0  0  0
   41.6670   30.6160   42.8000 C   0  0  0  0  0  0  0  0  0  0  0  0
   40.4100   30.3440   42.2480 C   0  0  0  0  0  0  0  0  0  0  0  0
   39.9150   31.1930   41.3050 N   0  0  0  0  0  0  0  0  0  0  0  0
   40.6030   32.2820   40.8920 C   0  0  0  0  0  0  0  0  0  0  0  0
   41.8290   32.5570   41.4240 N   0  0  0  0  0  0  0  0  0  0  0  0
   43.3140   31.9650   42.7700 H   0  0  0  0  0  0  0  0  0  0  0  0
   42.0660   29.9510   43.5460 H   0  0  0  0  0  0  0  0  0  0  0  0
   40.0940   32.8810   40.1320 H   0  0  0  0  0  0  0  0  0  0  0  0
   36.6550   27.3770   43.2290 C   0  0  0  0  0  0  0  0  0  0  0  0
   36.6430   26.0300   42.9150 F   0  0  0  0  0  0  0  0  0  0  0  0
   36.1990   27.6150   44.5200 F   0  0  0  0  0  0  0  0  0  0  0  0
   35.8050   28.0190   42.3190 F   0  0  0  0  0  0  0  0  0  0  0  0
  1  2  1  0  0  0  0
  2  6  1  0  0  0  0
  2  3  2  0  0  0  0
  3  7  1  0  0  0  0
  4 17  1  0  0  0  0
  4  3  1  0  0  0  0
  5  1  2  0  0  0  0
  5  4  1  0  0  0  0
  8 14  1  0  0  0  0
  8  9  1  0  0  0  0
  9 15  1  0  0  0  0
 10  1  1  0  0  0  0
 10  9  2  0  0  0  0
 11 10  1  0  0  0  0
 12 11  2  0  0  0  0
 12 13  1  0  0  0  0
 13  8  2  0  0  0  0
 16 12  1  0  0  0  0
 17 19  1  0  0  0  0
 18 17  1  0  0  0  0
 20 17  1  0  0  0  0
M  END
>  <minimizedAffinity>
-4.40147495

>  <minimizedRMSD>
6.33841753

$$$$
