
 OpenBabel03242509253D

 46 50  0  0  0  0  0  0  0  0999 V2000
   36.1390   30.0410   41.1200 C   0  0  0  0  0  0  0  0  0  0  0  0
   36.7260   30.8560   40.6350 H   0  0  0  0  0  0  0  0  0  0  0  0
   35.5530   30.5640   41.9140 H   0  0  0  0  0  0  0  0  0  0  0  0
   38.6380   28.1410   42.7030 C   0  0  0  0  0  0  0  0  0  0  0  0
   37.5580   27.3000   42.8230 C   0  0  0  0  0  0  0  0  0  0  0  0
   36.4840   27.9570   42.2180 C   0  0  0  0  0  0  0  0  0  0  0  0
   36.9980   29.1290   41.7850 N   0  0  0  0  0  0  0  0  0  0  0  0
   38.2520   29.2630   42.0560 N   0  0  0  0  0  0  0  0  0  0  0  0
   37.5780   26.3290   43.2990 H   0  0  0  0  0  0  0  0  0  0  0  0
   35.5210   27.5050   42.1780 H   0  0  0  0  0  0  0  0  0  0  0  0
   41.6070   26.4790   44.2270 C   0  0  0  0  0  0  0  0  0  0  0  0
   40.3100   26.6570   43.7630 C   0  0  0  0  0  0  0  0  0  0  0  0
   39.9780   27.9100   43.1830 C   0  0  0  0  0  0  0  0  0  0  0  0
   40.9190   28.8980   43.0920 N   0  0  0  0  0  0  0  0  0  0  0  0
   42.1860   28.6310   43.5800 C   0  0  0  0  0  0  0  0  0  0  0  0
   42.5000   27.4650   44.1220 N   0  0  0  0  0  0  0  0  0  0  0  0
   41.8270   25.5290   44.6570 H   0  0  0  0  0  0  0  0  0  0  0  0
   39.5370   25.9110   43.8140 H   0  0  0  0  0  0  0  0  0  0  0  0
   43.1460   29.6790   43.4740 N   0  0  0  0  0  0  0  0  0  0  0  0
   42.7000   31.0570   43.5140 C   0  0  0  0  0  2  0  0  0  0  0  0
   43.3990   31.8450   42.4000 C   0  0  0  0  0  2  0  0  0  0  0  0
   44.7870   31.8440   42.7560 N   0  0  0  0  0  0  0  0  0  0  0  0
   45.0290   32.3750   43.6050 H   0  0  0  0  0  0  0  0  0  0  0  0
   45.3100   30.5240   42.6630 C   0  0  0  0  0  2  0  0  0  0  0  0
   44.5480   29.4470   43.3260 C   0  0  0  0  0  2  0  0  0  0  0  0
   35.2580   29.4600   40.0600 C   0  0  0  0  0  0  0  0  0  0  0  0
   34.8000   28.5500   40.4200 H   0  0  0  0  0  0  0  0  0  0  0  0
   34.5350   30.3350   39.9390 H   0  0  0  0  0  0  0  0  0  0  0  0
   35.8750   29.3920   38.7150 C   0  0  0  0  0  0  0  0  0  0  0  0
   37.1960   29.5140   38.4000 C   0  0  0  0  0  0  0  0  0  0  0  0
   37.7240   29.5060   37.1420 C   0  0  0  0  0  0  0  0  0  0  0  0
   36.8740   29.3640   36.0550 C   0  0  0  0  0  0  0  0  0  0  0  0
   35.5150   29.2340   36.3130 C   0  0  0  0  0  0  0  0  0  0  0  0
   34.7420   29.0980   35.1980 C   0  0  0  0  0  0  0  0  0  0  0  0
   33.3840   28.9570   35.3420 C   0  0  0  0  0  0  0  0  0  0  0  0
   32.8360   28.9550   36.6030 C   0  0  0  0  0  0  0  0  0  0  0  0
   33.6750   29.0960   37.6650 C   0  0  0  0  0  0  0  0  0  0  0  0
   35.0290   29.2460   37.6030 C   0  0  0  0  0  0  0  0  0  0  0  0
   37.8760   29.6260   39.2420 H   0  0  0  0  0  0  0  0  0  0  0  0
   38.7870   29.6070   36.9690 H   0  0  0  0  0  0  0  0  0  0  0  0
   37.3080   29.3610   35.0640 H   0  0  0  0  0  0  0  0  0  0  0  0
   35.1380   29.0930   34.1850 H   0  0  0  0  0  0  0  0  0  0  0  0
   32.7560   28.8500   34.4660 H   0  0  0  0  0  0  0  0  0  0  0  0
   31.7790   28.8430   36.6900 H   0  0  0  0  0  0  0  0  0  0  0  0
   33.0630   29.0680   38.9160 O   0  0  0  0  0  0  0  0  0  0  0  0
   32.3880   28.3950   39.2000 H   0  0  0  0  0  0  0  0  0  0  0  0
  1  7  1  0  0  0  0
  1  3  1  0  0  0  0
  2  1  1  0  0  0  0
  4  5  1  0  0  0  0
  4 13  1  0  0  0  0
  5  9  1  0  0  0  0
  6  5  2  0  0  0  0
  7  8  1  0  0  0  0
  7  6  1  0  0  0  0
  8  4  2  0  0  0  0
 10  6  1  0  0  0  0
 11 17  1  0  0  0  0
 12 18  1  0  0  0  0
 12 11  2  0  0  0  0
 13 12  1  0  0  0  0
 14 13  2  0  0  0  0
 14 15  1  0  0  0  0
 15 16  2  0  0  0  0
 16 11  1  0  0  0  0
 19 20  1  0  0  0  0
 19 15  1  0  0  0  0
 21 22  1  0  0  0  0
 21 20  1  0  0  0  0
 22 23  1  0  0  0  0
 24 22  1  0  0  0  0
 24 25  1  0  0  0  0
 25 19  1  0  0  0  0
 26 27  1  0  0  0  0
 26  1  1  0  0  0  0
 28 26  1  0  0  0  0
 29 26  1  0  0  0  0
 30 29  1  0  0  0  0
 30 39  1  0  0  0  0
 31 30  2  0  0  0  0
 32 33  2  0  0  0  0
 32 31  1  0  0  0  0
 33 38  1  0  0  0  0
 34 35  2  0  0  0  0
 34 33  1  0  0  0  0
 35 36  1  0  0  0  0
 36 44  1  0  0  0  0
 36 37  2  0  0  0  0
 37 45  1  0  0  0  0
 38 37  1  0  0  0  0
 38 29  2  0  0  0  0
 40 31  1  0  0  0  0
 41 32  1  0  0  0  0
 42 34  1  0  0  0  0
 43 35  1  0  0  0  0
 45 46  1  0  0  0  0
M  END
>  <minimizedAffinity>
-6.22794056

>  <minimizedRMSD>
0.346951097

$$$$
