
 OpenBabel03242507093D

 23 25  0  0  0  0  0  0  0  0999 V2000
   38.5990   28.0540   42.5590 N   0  0  0  0  0  0  0  0  0  0  0  0
   38.4580   27.0000   43.3700 C   0  0  0  0  0  0  0  0  0  0  0  0
   39.7100   26.7670   43.9200 C   0  0  0  0  0  0  0  0  0  0  0  0
   40.5930   27.6880   43.4330 N   0  0  0  0  0  0  0  0  0  0  0  0
   39.8540   28.4510   42.6010 C   0  0  0  0  0  0  0  0  0  0  0  0
   37.5390   26.4830   43.5230 H   0  0  0  0  0  0  0  0  0  0  0  0
   39.8260   25.9380   44.6250 H   0  0  0  0  0  0  0  0  0  0  0  0
   40.6330   29.4780   42.0130 N   0  0  0  0  0  0  0  0  0  0  0  0
   40.3880   30.3400   40.8590 C   0  0  0  0  0  0  0  0  0  0  0  0
   41.3490   31.4820   40.8110 C   0  0  0  0  0  0  0  0  0  0  0  0
   41.5690   32.1400   42.0790 N   0  0  0  0  0  0  0  0  0  0  0  0
   40.8310   32.7990   42.3430 H   0  0  0  0  0  0  0  0  0  0  0  0
   41.9630   31.2080   43.1160 C   0  0  0  0  0  0  0  0  0  0  0  0
   41.9220   29.7770   42.6180 C   0  0  0  0  0  0  0  0  0  0  0  0
   37.1260   29.9250   41.9800 C   0  0  0  0  0  0  0  0  0  0  0  0
   37.6040   28.6370   41.7830 C   0  0  0  0  0  0  0  0  0  0  0  0
   37.0160   27.9070   40.7150 C   0  0  0  0  0  0  0  0  0  0  0  0
   36.0450   28.4940   39.9670 N   0  0  0  0  0  0  0  0  0  0  0  0
   35.6190   29.7710   40.2140 C   0  0  0  0  0  0  0  0  0  0  0  0
   36.1660   30.4990   41.2350 N   0  0  0  0  0  0  0  0  0  0  0  0
   37.5110   30.5500   42.7650 H   0  0  0  0  0  0  0  0  0  0  0  0
   37.3460   26.8990   40.5100 H   0  0  0  0  0  0  0  0  0  0  0  0
   34.8480   30.2490   39.6260 H   0  0  0  0  0  0  0  0  0  0  0  0
  1  5  1  0  0  0  0
  1  2  1  0  0  0  0
  2  6  1  0  0  0  0
  2  3  2  0  0  0  0
  3  7  1  0  0  0  0
  4  3  1  0  0  0  0
  5  4  2  0  0  0  0
  8  5  1  0  0  0  0
  8 14  1  0  0  0  0
  9  8  1  0  0  0  0
 10  9  1  0  0  0  0
 10 11  1  0  0  0  0
 11 12  1  0  0  0  0
 11 13  1  0  0  0  0
 14 13  1  0  0  0  0
 15 21  1  0  0  0  0
 16 15  1  0  0  0  0
 16  1  1  0  0  0  0
 17 16  2  0  0  0  0
 18 19  2  0  0  0  0
 18 17  1  0  0  0  0
 19 20  1  0  0  0  0
 20 15  2  0  0  0  0
 22 17  1  0  0  0  0
 23 19  1  0  0  0  0
M  END
>  <minimizedAffinity>
-4.29366112

>  <minimizedRMSD>
0.55400604

$$$$
