REMARK  Name = 
REMARK  5 active torsions:
REMARK  status: ('A' for Active; 'I' for Inactive)
REMARK    1  A    between atoms: C_1  and  C_2
REMARK    2  A    between atoms: C_1  and  C_13
REMARK    3  A    between atoms: C_10  and  O_12
REMARK    4  A    between atoms: C_13  and  N_17
REMARK    5  A    between atoms: C_14  and  C_21
REMARK                            x       y       z     vdW  Elec       q    Type
REMARK                         _______ _______ _______ _____ _____    ______ ____
ROOT
ATOM      1  C   UNL     1      36.171  30.077  41.132  0.00  0.00    +0.000 C 
ATOM      2  H   UNL     1      36.765  30.883  40.642  0.00  0.00    +0.000 HD
ATOM      3  H   UNL     1      35.592  30.610  41.925  0.00  0.00    +0.000 HD
ENDROOT
BRANCH   1   7
ATOM      4  C   UNL     1      38.656  28.154  42.709  0.00  0.00    +0.000 A 
ATOM      5  C   UNL     1      37.560  27.341  42.867  0.00  0.00    +0.000 A 
ATOM      6  C   UNL     1      36.490  28.009  42.268  0.00  0.00    +0.000 A 
ATOM      7  N   UNL     1      37.022  29.160  41.801  0.00  0.00    +0.000 N 
ATOM      8  N   UNL     1      38.283  29.270  42.045  0.00  0.00    +0.000 NA
ATOM      9  H   UNL     1      37.567  26.380  43.364  0.00  0.00    +0.000 HD
ATOM     10  H   UNL     1      35.516  27.579  42.257  0.00  0.00    +0.000 HD
BRANCH   4  13
ATOM     11  C   UNL     1      41.580  26.532  44.359  0.00  0.00    +0.000 A 
ATOM     12  C   UNL     1      40.277  26.731  43.922  0.00  0.00    +0.000 A 
ATOM     13  C   UNL     1      40.000  27.902  43.168  0.00  0.00    +0.000 A 
ATOM     14  N   UNL     1      40.998  28.794  42.890  0.00  0.00    +0.000 NA
ATOM     15  C   UNL     1      42.267  28.514  43.366  0.00  0.00    +0.000 A 
ATOM     16  N   UNL     1      42.529  27.424  44.069  0.00  0.00    +0.000 NA
ATOM     17  H   UNL     1      41.758  25.645  44.922  0.00  0.00    +0.000 HD
ATOM     18  H   UNL     1      39.460  26.059  44.116  0.00  0.00    +0.000 HD
ATOM     19  N   UNL     1      43.287  29.461  43.063  0.00  0.00    +0.000 N 
ATOM     20  C   UNL     1      43.323  30.719  43.782  0.00  0.00    +0.000 C 
ATOM     21  C   UNL     1      43.550  31.861  42.784  0.00  0.00    +0.000 C 
ATOM     22  N   UNL     1      44.864  31.643  42.258  0.00  0.00    +0.000 NA
ATOM     23  H   UNL     1      45.638  31.761  42.928  0.00  0.00    +0.000 HD
ATOM     24  C   UNL     1      44.881  30.456  41.475  0.00  0.00    +0.000 C 
ATOM     25  C   UNL     1      44.295  29.241  42.075  0.00  0.00    +0.000 C 
ENDBRANCH   4  13
ENDBRANCH   1   7
BRANCH   1  26
ATOM     26  C   UNL     1      35.282  29.499  40.077  0.00  0.00    +0.000 C 
ATOM     27  H   UNL     1      34.827  28.588  40.437  0.00  0.00    +0.000 HD
ATOM     28  H   UNL     1      34.558  30.375  39.964  0.00  0.00    +0.000 HD
BRANCH  26  29
ATOM     29  C   UNL     1      35.889  29.436  38.727  0.00  0.00    +0.000 A 
ATOM     30  C   UNL     1      37.203  29.594  38.399  0.00  0.00    +0.000 A 
ATOM     31  C   UNL     1      37.720  29.589  37.136  0.00  0.00    +0.000 A 
ATOM     32  C   UNL     1      36.865  29.410  36.059  0.00  0.00    +0.000 A 
ATOM     33  C   UNL     1      35.513  29.242  36.330  0.00  0.00    +0.000 A 
ATOM     34  C   UNL     1      34.735  29.071  35.224  0.00  0.00    +0.000 A 
ATOM     35  C   UNL     1      33.383  28.891  35.382  0.00  0.00    +0.000 A 
ATOM     36  C   UNL     1      32.846  28.886  36.647  0.00  0.00    +0.000 A 
ATOM     37  C   UNL     1      33.690  29.063  37.700  0.00  0.00    +0.000 A 
ATOM     38  C   UNL     1      35.038  29.253  37.624  0.00  0.00    +0.000 A 
ATOM     39  H   UNL     1      37.886  29.735  39.234  0.00  0.00    +0.000 HD
ATOM     40  H   UNL     1      38.778  29.720  36.953  0.00  0.00    +0.000 HD
ATOM     41  H   UNL     1      37.290  29.410  35.064  0.00  0.00    +0.000 HD
ATOM     42  H   UNL     1      35.122  29.067  34.207  0.00  0.00    +0.000 HD
ATOM     43  H   UNL     1      32.751  28.756  34.512  0.00  0.00    +0.000 HD
ATOM     44  H   UNL     1      31.794  28.743  36.745  0.00  0.00    +0.000 HD
BRANCH  37  45
ATOM     45  O   UNL     1      33.090  29.030  38.957  0.00  0.00    +0.000 OA
ATOM     46  H   UNL     1      32.438  28.340  39.254  0.00  0.00    +0.000 HD
ENDBRANCH  37  45
ENDBRANCH  26  29
ENDBRANCH   1  26
TORSDOF 5
