
 OpenBabel03242509303D

 19 20  0  0  0  0  0  0  0  0999 V2000
   37.5340   28.6520   43.7520 C   0  0  0  0  0  0  0  0  0  0  0  0
   38.0020   27.3080   43.8000 C   0  0  0  0  0  0  0  0  0  0  0  0
   38.3350   26.7130   42.5790 C   0  0  0  0  0  0  0  0  0  0  0  0
   38.1920   27.4510   41.4190 N   0  0  0  0  0  0  0  0  0  0  0  0
   37.7460   28.7120   41.4400 C   0  0  0  0  0  0  0  0  0  0  0  0
   37.4240   29.2940   42.5920 N   0  0  0  0  0  0  0  0  0  0  0  0
   37.2850   29.0820   44.7100 H   0  0  0  0  0  0  0  0  0  0  0  0
   38.0890   26.7900   44.7450 H   0  0  0  0  0  0  0  0  0  0  0  0
   37.6110   29.4400   40.2250 N   0  0  0  0  0  0  0  0  0  0  0  0
   38.7260   29.9850   39.4970 C   0  0  0  0  0  2  0  0  0  0  0  0
   38.4100   31.3210   38.8680 C   0  0  0  0  0  2  0  0  0  0  0  0
   37.1530   31.3130   38.1550 N   0  0  0  0  0  0  0  0  0  0  0  0
   36.5120   31.9810   38.6680 H   0  0  0  0  0  0  0  0  0  0  0  0
   36.5060   30.0200   38.1900 C   0  0  0  0  0  2  0  0  0  0  0  0
   36.3050   29.6790   39.6420 C   0  0  0  0  0  2  0  0  0  0  0  0
   38.8320   25.3030   42.5700 C   0  0  0  0  0  0  0  0  0  0  0  0
   39.5690   25.1640   41.4140 F   0  0  0  0  0  0  0  0  0  0  0  0
   39.6590   25.0450   43.6390 F   0  0  0  0  0  0  0  0  0  0  0  0
   37.7870   24.3890   42.5610 F   0  0  0  0  0  0  0  0  0  0  0  0
  1  2  1  0  0  0  0
  1  7  1  0  0  0  0
  2  8  1  0  0  0  0
  3  2  2  0  0  0  0
  4  5  2  0  0  0  0
  4  3  1  0  0  0  0
  5  6  1  0  0  0  0
  6  1  2  0  0  0  0
  9  5  1  0  0  0  0
 10  9  1  0  0  0  0
 11 10  1  0  0  0  0
 12 14  1  0  0  0  0
 12 13  1  0  0  0  0
 12 11  1  0  0  0  0
 14 15  1  0  0  0  0
 15  9  1  0  0  0  0
 16  3  1  0  0  0  0
 16 18  1  0  0  0  0
 17 16  1  0  0  0  0
 19 16  1  0  0  0  0
M  END
>  <minimizedAffinity>
-4.3147831

>  <minimizedRMSD>
1.75299132

$$$$
