
 OpenBabel03242507533D

 25 27  0  0  0  0  0  0  0  0999 V2000
   37.1660   30.1130   40.3430 C   0  0  0  0  0  0  0  0  0  0  0  0
   37.0650   31.4920   40.4960 C   0  0  0  0  0  0  0  0  0  0  0  0
   37.0870   32.2680   39.3400 C   0  0  0  0  0  0  0  0  0  0  0  0
   37.2080   31.6340   38.1120 C   0  0  0  0  0  0  0  0  0  0  0  0
   37.3040   30.2870   38.0030 C   0  0  0  0  0  0  0  0  0  0  0  0
   37.2820   29.5570   39.1200 N   0  0  0  0  0  0  0  0  0  0  0  0
   36.9710   31.9740   41.4500 H   0  0  0  0  0  0  0  0  0  0  0  0
   37.0120   33.3410   39.3770 H   0  0  0  0  0  0  0  0  0  0  0  0
   37.2210   32.2650   37.2340 H   0  0  0  0  0  0  0  0  0  0  0  0
   37.4290   29.6000   36.7660 N   0  0  0  0  0  0  0  0  0  0  0  0
   36.6610   29.8530   35.5670 C   0  0  0  0  0  0  0  0  0  0  0  0
   35.9640   28.6160   35.0630 C   0  0  0  0  0  0  0  0  0  0  0  0
   36.7480   27.4280   35.1590 N   0  0  0  0  0  0  0  0  0  0  0  0
   36.0500   26.6240   35.1590 H   0  0  0  0  0  0  0  0  0  0  0  0
   37.5130   27.2810   36.3630 C   0  0  0  0  0  0  0  0  0  0  0  0
   38.3850   28.5250   36.5750 C   0  0  0  0  0  0  0  0  0  0  0  0
   37.9250   28.8530   43.7010 C   0  0  0  0  0  0  0  0  0  0  0  0
   37.1260   27.7160   43.8070 C   0  0  0  0  0  0  0  0  0  0  0  0
   36.3120   27.3740   42.7110 C   0  0  0  0  0  0  0  0  0  0  0  0
   36.3610   28.1800   41.6130 N   0  0  0  0  0  0  0  0  0  0  0  0
   37.1460   29.2710   41.5470 C   0  0  0  0  0  0  0  0  0  0  0  0
   37.9230   29.6030   42.5890 N   0  0  0  0  0  0  0  0  0  0  0  0
   38.5460   29.1030   44.5570 H   0  0  0  0  0  0  0  0  0  0  0  0
   37.0830   27.0720   44.6750 H   0  0  0  0  0  0  0  0  0  0  0  0
   35.6560   26.5100   42.6920 H   0  0  0  0  0  0  0  0  0  0  0  0
  1  2  1  0  0  0  0
  1 21  1  0  0  0  0
  2  7  1  0  0  0  0
  3  8  1  0  0  0  0
  3  2  2  0  0  0  0
  4  3  1  0  0  0  0
  5  4  2  0  0  0  0
  5  6  1  0  0  0  0
  6  1  2  0  0  0  0
  9  4  1  0  0  0  0
 10  5  1  0  0  0  0
 11 10  1  0  0  0  0
 12 13  1  0  0  0  0
 12 11  1  0  0  0  0
 13 14  1  0  0  0  0
 13 15  1  0  0  0  0
 15 16  1  0  0  0  0
 16 10  1  0  0  0  0
 17 18  1  0  0  0  0
 17 23  1  0  0  0  0
 18 24  1  0  0  0  0
 19 18  2  0  0  0  0
 20 19  1  0  0  0  0
 21 20  2  0  0  0  0
 21 22  1  0  0  0  0
 22 17  2  0  0  0  0
 25 19  1  0  0  0  0
M  END
>  <minimizedAffinity>
-4.89857483

>  <minimizedRMSD>
0.690226853

$$$$
