REMARK  Name = 
REMARK  2 active torsions:
REMARK  status: ('A' for Active; 'I' for Inactive)
REMARK    1  A    between atoms: C_3  and  C_7
REMARK    2  A    between atoms: C_5  and  C_13
REMARK                            x       y       z     vdW  Elec       q    Type
REMARK                         _______ _______ _______ _____ _____    ______ ____
ROOT
ATOM      1  C   UNL     1      37.974  28.879  43.374  0.00  0.00    +0.000 A 
ATOM      2  C   UNL     1      38.080  27.466  43.302  0.00  0.00    +0.000 A 
ATOM      3  C   UNL     1      37.435  26.822  42.252  0.00  0.00    +0.000 A 
ATOM      4  N   UNL     1      36.730  27.578  41.339  0.00  0.00    +0.000 NA
ATOM      5  C   UNL     1      36.658  28.909  41.447  0.00  0.00    +0.000 A 
ATOM      6  N   UNL     1      37.275  29.551  42.456  0.00  0.00    +0.000 NA
ATOM      7  H   UNL     1      38.455  29.427  44.168  0.00  0.00    +0.000 HD
ATOM      8  H   UNL     1      38.649  26.918  44.049  0.00  0.00    +0.000 HD
ENDROOT
BRANCH   5   9
ATOM      9  C   UNL     1      35.909  29.698  40.475  0.00  0.00    +0.000 A 
ATOM     10  C   UNL     1      35.953  31.041  40.264  0.00  0.00    +0.000 A 
ATOM     11  N   UNL     1      35.115  31.405  39.276  0.00  0.00    +0.000 N 
ATOM     12  C   UNL     1      34.514  30.272  38.837  0.00  0.00    +0.000 A 
ATOM     13  C   UNL     1      33.571  30.090  37.841  0.00  0.00    +0.000 A 
ATOM     14  C   UNL     1      33.096  28.824  37.566  0.00  0.00    +0.000 A 
ATOM     15  C   UNL     1      33.555  27.714  38.283  0.00  0.00    +0.000 A 
ATOM     16  C   UNL     1      34.503  27.911  39.282  0.00  0.00    +0.000 A 
ATOM     17  C   UNL     1      34.987  29.183  39.566  0.00  0.00    +0.000 A 
ATOM     18  H   UNL     1      35.000  32.395  38.959  0.00  0.00    +0.000 HD
ENDBRANCH   5   9
BRANCH   3  19
ATOM     19  C   UNL     1      37.532  25.342  42.158  0.00  0.00    +0.000 C 
ATOM     20  F   UNL     1      37.650  25.051  40.813  0.00  0.00    +0.000 F 
ATOM     21  F   UNL     1      38.634  24.845  42.796  0.00  0.00    +0.000 F 
ATOM     22  F   UNL     1      36.379  24.712  42.635  0.00  0.00    +0.000 F 
ENDBRANCH   3  19
TORSDOF 2
