
 OpenBabel03242509283D

 49 54  0  0  0  0  0  0  0  0999 V2000
   38.6980   28.1570   42.7410 C   0  0  0  0  0  0  0  0  0  0  0  0
   37.6210   27.3170   42.8610 C   0  0  0  0  0  0  0  0  0  0  0  0
   36.5440   27.9700   42.2540 C   0  0  0  0  0  0  0  0  0  0  0  0
   37.0540   29.1320   41.8250 N   0  0  0  0  0  0  0  0  0  0  0  0
   38.3080   29.2740   42.0930 N   0  0  0  0  0  0  0  0  0  0  0  0
   37.6240   26.3400   43.3380 H   0  0  0  0  0  0  0  0  0  0  0  0
   35.5730   27.5110   42.2160 H   0  0  0  0  0  0  0  0  0  0  0  0
   41.6620   26.5130   44.2890 C   0  0  0  0  0  0  0  0  0  0  0  0
   40.3500   26.6930   43.8410 C   0  0  0  0  0  0  0  0  0  0  0  0
   40.0400   27.9130   43.2230 C   0  0  0  0  0  0  0  0  0  0  0  0
   41.0010   28.8610   43.0810 N   0  0  0  0  0  0  0  0  0  0  0  0
   42.2700   28.6210   43.5420 C   0  0  0  0  0  0  0  0  0  0  0  0
   42.5870   27.4630   44.1350 N   0  0  0  0  0  0  0  0  0  0  0  0
   41.8900   25.5580   44.7670 H   0  0  0  0  0  0  0  0  0  0  0  0
   39.5730   25.9390   43.9500 H   0  0  0  0  0  0  0  0  0  0  0  0
   43.2750   29.6640   43.3710 C   0  0  0  0  0  0  0  0  0  0  0  0
   43.7300   30.1500   42.1640 C   0  0  0  0  0  3  0  0  0  0  0  0
   44.6540   31.1030   42.3860 N   0  0  0  0  0  0  0  0  0  0  0  0
   44.7970   31.2330   43.7110 C   0  0  0  0  0  0  0  0  0  0  0  0
   45.6170   32.0720   44.4390 C   0  0  0  0  0  3  0  0  0  0  0  0
   45.6250   32.0630   45.8260 C   0  0  0  0  0  3  0  0  0  0  0  0
   44.7660   31.1660   46.4310 C   0  0  0  0  0  3  0  0  0  0  0  0
   43.9230   30.3030   45.7400 C   0  0  0  0  0  3  0  0  0  0  0  0
   43.9450   30.3440   44.3660 C   0  0  0  0  0  0  0  0  0  0  0  0
   45.1770   31.6540   41.6430 H   0  0  0  0  0  0  0  0  0  0  0  0
   36.2020   30.0520   41.1550 C   0  0  0  0  0  0  0  0  0  0  0  0
   36.8040   30.8560   40.6760 H   0  0  0  0  0  0  0  0  0  0  0  0
   35.6090   30.5670   41.9580 H   0  0  0  0  0  0  0  0  0  0  0  0
   35.3110   29.4670   40.1040 C   0  0  0  0  0  0  0  0  0  0  0  0
   34.5830   30.3420   39.9900 H   0  0  0  0  0  0  0  0  0  0  0  0
   34.8550   28.5600   40.4780 H   0  0  0  0  0  0  0  0  0  0  0  0
   35.9160   29.3900   38.7570 C   0  0  0  0  0  0  0  0  0  0  0  0
   37.2360   29.5110   38.4260 C   0  0  0  0  0  0  0  0  0  0  0  0
   37.7510   29.5040   37.1630 C   0  0  0  0  0  0  0  0  0  0  0  0
   36.8980   29.3640   36.0880 C   0  0  0  0  0  0  0  0  0  0  0  0
   35.5410   29.2340   36.3540 C   0  0  0  0  0  0  0  0  0  0  0  0
   34.7500   29.1010   35.2420 C   0  0  0  0  0  0  0  0  0  0  0  0
   33.3970   28.9660   35.4000 C   0  0  0  0  0  0  0  0  0  0  0  0
   32.8580   28.9610   36.6660 C   0  0  0  0  0  0  0  0  0  0  0  0
   33.7080   29.0970   37.7290 C   0  0  0  0  0  0  0  0  0  0  0  0
   35.0530   29.2430   37.6560 C   0  0  0  0  0  0  0  0  0  0  0  0
   37.9180   29.6230   39.2670 H   0  0  0  0  0  0  0  0  0  0  0  0
   38.8000   29.6050   37.0100 H   0  0  0  0  0  0  0  0  0  0  0  0
   37.3130   29.3600   35.0890 H   0  0  0  0  0  0  0  0  0  0  0  0
   35.1300   29.0970   34.2330 H   0  0  0  0  0  0  0  0  0  0  0  0
   32.7310   28.8590   34.5460 H   0  0  0  0  0  0  0  0  0  0  0  0
   31.8000   28.8520   36.7750 H   0  0  0  0  0  0  0  0  0  0  0  0
   33.1070   29.0680   38.9810 O   0  0  0  0  0  0  0  0  0  0  0  0
   32.4050   29.7510   39.2690 H   0  0  0  0  0  0  0  0  0  0  0  0
  1  2  1  0  0  0  0
  1 10  1  0  0  0  0
  2  6  1  0  0  0  0
  3  2  2  0  0  0  0
  4  5  1  0  0  0  0
  4  3  1  0  0  0  0
  5  1  2  0  0  0  0
  7  3  1  0  0  0  0
  8 14  1  0  0  0  0
  9 15  1  0  0  0  0
  9  8  2  0  0  0  0
 10  9  1  0  0  0  0
 11 10  2  0  0  0  0
 11 12  1  0  0  0  0
 12 13  2  0  0  0  0
 13  8  1  0  0  0  0
 16 12  1  0  0  0  0
 16 24  1  0  0  0  0
 17 18  1  0  0  0  0
 17 16  2  0  0  0  0
 18 19  1  0  0  0  0
 19 24  2  0  0  0  0
 19 20  1  0  0  0  0
 20 21  2  0  0  0  0
 21 22  1  0  0  0  0
 23 22  2  0  0  0  0
 24 23  1  0  0  0  0
 25 18  1  0  0  0  0
 26  4  1  0  0  0  0
 26 28  1  0  0  0  0
 27 26  1  0  0  0  0
 29 31  1  0  0  0  0
 29 26  1  0  0  0  0
 30 29  1  0  0  0  0
 32 29  1  0  0  0  0
 33 32  1  0  0  0  0
 33 42  1  0  0  0  0
 34 33  2  0  0  0  0
 35 36  2  0  0  0  0
 35 34  1  0  0  0  0
 36 41  1  0  0  0  0
 37 38  2  0  0  0  0
 37 36  1  0  0  0  0
 38 39  1  0  0  0  0
 39 47  1  0  0  0  0
 39 40  2  0  0  0  0
 40 48  1  0  0  0  0
 41 40  1  0  0  0  0
 41 32  2  0  0  0  0
 43 34  1  0  0  0  0
 44 35  1  0  0  0  0
 45 37  1  0  0  0  0
 46 38  1  0  0  0  0
 48 49  1  0  0  0  0
M  END
>  <minimizedAffinity>
-6.71405268

>  <minimizedRMSD>
0.375535876

$$$$
