
 OpenBabel03242508373D

 39 43  0  0  0  0  0  0  0  0999 V2000
   36.9500   31.4690   40.4690 C   0  0  0  0  0  0  0  0  0  0  0  0
   36.9490   31.8420   39.1470 N   0  0  0  0  0  0  0  0  0  0  0  0
   37.8440   32.7940   38.9840 O   0  0  0  0  0  0  0  0  0  0  0  0
   38.3960   33.0190   40.1660 C   0  0  0  0  0  0  0  0  0  0  0  0
   37.8670   32.2220   41.0910 N   0  0  0  0  0  0  0  0  0  0  0  0
   39.4320   34.0090   40.3760 C   0  0  0  0  0  0  0  0  0  0  0  0
   39.3060   35.3800   40.2960 C   0  0  0  0  0  0  0  0  0  0  0  0
   40.5210   35.9710   40.5630 C   0  0  0  0  0  0  0  0  0  0  0  0
   41.3750   34.9200   40.8020 C   0  0  0  0  0  0  0  0  0  0  0  0
   40.6980   33.8180   40.6820 O   0  0  0  0  0  0  0  0  0  0  0  0
   38.3630   35.8870   40.0550 H   0  0  0  0  0  0  0  0  0  0  0  0
   40.7250   37.0190   40.5730 H   0  0  0  0  0  0  0  0  0  0  0  0
   42.7930   35.0230   41.1340 C   0  0  0  0  0  0  0  0  0  0  0  0
   43.8350   34.3870   40.4920 C   0  0  0  0  0  0  0  0  0  0  0  0
   44.9860   34.7560   41.1170 N   0  0  0  0  0  0  0  0  0  0  0  0
   44.7100   35.6090   42.1360 C   0  0  0  0  0  0  0  0  0  0  0  0
   45.4510   36.2860   43.0840 C   0  0  0  0  0  0  0  0  0  0  0  0
   44.8080   37.1060   44.0110 C   0  0  0  0  0  0  0  0  0  0  0  0
   43.4200   37.2740   44.0220 C   0  0  0  0  0  0  0  0  0  0  0  0
   42.7060   36.5860   43.0640 C   0  0  0  0  0  0  0  0  0  0  0  0
   43.3410   35.7780   42.1500 C   0  0  0  0  0  0  0  0  0  0  0  0
   45.9720   34.4770   40.9100 H   0  0  0  0  0  0  0  0  0  0  0  0
   36.1820   30.5030   41.1370 O   0  0  0  0  0  0  0  0  0  0  0  0
   38.1050   28.2560   43.2630 C   0  0  0  0  0  0  0  0  0  0  0  0
   37.8860   27.0520   42.5260 C   0  0  0  0  0  0  0  0  0  0  0  0
   37.1100   27.1190   41.3850 C   0  0  0  0  0  0  0  0  0  0  0  0
   36.6080   28.3220   41.0390 N   0  0  0  0  0  0  0  0  0  0  0  0
   36.8110   29.4340   41.7210 C   0  0  0  0  0  0  0  0  0  0  0  0
   37.5610   29.4200   42.8420 N   0  0  0  0  0  0  0  0  0  0  0  0
   38.6790   28.3810   44.1650 H   0  0  0  0  0  0  0  0  0  0  0  0
   38.4260   26.2850   43.0630 H   0  0  0  0  0  0  0  0  0  0  0  0
   36.9670   25.8340   40.7400 C   0  0  0  0  0  0  0  0  0  0  0  0
   36.0310   25.8200   40.1110 H   0  0  0  0  0  0  0  0  0  0  0  0
   37.7890   25.7250   39.9840 H   0  0  0  0  0  0  0  0  0  0  0  0
   36.9760   24.6510   41.6130 C   0  0  0  0  0  0  0  0  0  0  0  0
   35.9140   24.2670   41.7240 H   0  0  0  0  0  0  0  0  0  0  0  0
   37.3480   24.7350   42.6250 H   0  0  0  0  0  0  0  0  0  0  0  0
   37.8820   23.2550   40.8550 S   0  0  0  0  0  0  0  0  0  0  0  0
   39.1650   23.1410   41.4320 H   0  0  0  0  0  0  0  0  0  0  0  0
  1  5  1  0  0  0  0
  1 23  1  0  0  0  0
  2  1  2  0  0  0  0
  3  2  1  0  0  0  0
  3  4  1  0  0  0  0
  4  6  1  0  0  0  0
  4  5  2  0  0  0  0
  6 10  1  0  0  0  0
  7  6  2  0  0  0  0
  7  8  1  0  0  0  0
  8 12  1  0  0  0  0
  8  9  2  0  0  0  0
  9 13  1  0  0  0  0
 10  9  1  0  0  0  0
 11  7  1  0  0  0  0
 13 21  1  0  0  0  0
 14 15  1  0  0  0  0
 14 13  2  0  0  0  0
 15 16  1  0  0  0  0
 16 21  2  0  0  0  0
 16 17  1  0  0  0  0
 17 18  2  0  0  0  0
 18 19  1  0  0  0  0
 20 19  2  0  0  0  0
 21 20  1  0  0  0  0
 22 15  1  0  0  0  0
 23 28  1  0  0  0  0
 24 30  1  0  0  0  0
 25 31  1  0  0  0  0
 25 24  2  0  0  0  0
 26 25  1  0  0  0  0
 27 26  2  0  0  0  0
 27 28  1  0  0  0  0
 28 29  2  0  0  0  0
 29 24  1  0  0  0  0
 32 26  1  0  0  0  0
 32 35  1  0  0  0  0
 33 32  1  0  0  0  0
 34 32  1  0  0  0  0
 35 36  1  0  0  0  0
 35 37  1  0  0  0  0
 38 39  1  0  0  0  0
 38 35  1  0  0  0  0
M  END
>  <minimizedAffinity>
-7.49724722

>  <minimizedRMSD>
1.48806477

$$$$
