
 OpenBabel03242509283D

 49 54  0  0  0  0  0  0  0  0999 V2000
   38.6400   28.1400   42.6980 C   0  0  0  0  0  0  0  0  0  0  0  0
   37.5720   27.2820   42.7620 C   0  0  0  0  0  0  0  0  0  0  0  0
   36.5010   27.9410   42.1510 C   0  0  0  0  0  0  0  0  0  0  0  0
   37.0050   29.1250   41.7750 N   0  0  0  0  0  0  0  0  0  0  0  0
   38.2500   29.2740   42.0790 N   0  0  0  0  0  0  0  0  0  0  0  0
   37.5780   26.2890   43.2050 H   0  0  0  0  0  0  0  0  0  0  0  0
   35.5380   27.4710   42.0720 H   0  0  0  0  0  0  0  0  0  0  0  0
   41.5930   26.4770   44.2450 C   0  0  0  0  0  0  0  0  0  0  0  0
   40.2900   26.6540   43.7700 C   0  0  0  0  0  0  0  0  0  0  0  0
   39.9730   27.8970   43.2040 C   0  0  0  0  0  0  0  0  0  0  0  0
   40.9190   28.8700   43.1360 N   0  0  0  0  0  0  0  0  0  0  0  0
   42.1780   28.6300   43.6210 C   0  0  0  0  0  0  0  0  0  0  0  0
   42.5030   27.4500   44.1640 N   0  0  0  0  0  0  0  0  0  0  0  0
   41.8270   25.5040   44.6830 H   0  0  0  0  0  0  0  0  0  0  0  0
   39.5260   25.8810   43.8210 H   0  0  0  0  0  0  0  0  0  0  0  0
   43.1670   29.6990   43.5290 C   0  0  0  0  0  0  0  0  0  0  0  0
   42.9140   31.0440   43.6980 C   0  0  0  0  0  3  0  0  0  0  0  0
   44.0580   31.7360   43.5440 N   0  0  0  0  0  0  0  0  0  0  0  0
   45.0340   30.8590   43.2800 C   0  0  0  0  0  0  0  0  0  0  0  0
   46.3790   31.0680   43.0450 C   0  0  0  0  0  3  0  0  0  0  0  0
   47.2470   30.0190   42.7860 C   0  0  0  0  0  3  0  0  0  0  0  0
   46.6870   28.7560   42.7780 C   0  0  0  0  0  3  0  0  0  0  0  0
   45.3420   28.4970   43.0100 C   0  0  0  0  0  3  0  0  0  0  0  0
   44.5130   29.5650   43.2620 C   0  0  0  0  0  0  0  0  0  0  0  0
   44.1660   32.7900   43.6190 H   0  0  0  0  0  0  0  0  0  0  0  0
   36.1570   30.0550   41.1160 C   0  0  0  0  0  0  0  0  0  0  0  0
   36.7620   30.8650   40.6500 H   0  0  0  0  0  0  0  0  0  0  0  0
   35.5620   30.5610   41.9240 H   0  0  0  0  0  0  0  0  0  0  0  0
   35.2680   29.4870   40.0530 C   0  0  0  0  0  0  0  0  0  0  0  0
   34.5540   30.3740   39.9360 H   0  0  0  0  0  0  0  0  0  0  0  0
   34.7950   28.5860   40.4190 H   0  0  0  0  0  0  0  0  0  0  0  0
   35.8850   29.4070   38.7130 C   0  0  0  0  0  0  0  0  0  0  0  0
   37.2060   29.5350   38.3920 C   0  0  0  0  0  0  0  0  0  0  0  0
   37.7320   29.5240   37.1330 C   0  0  0  0  0  0  0  0  0  0  0  0
   36.8890   29.3720   36.0520 C   0  0  0  0  0  0  0  0  0  0  0  0
   35.5310   29.2350   36.3070 C   0  0  0  0  0  0  0  0  0  0  0  0
   34.7510   29.0920   35.1890 C   0  0  0  0  0  0  0  0  0  0  0  0
   33.3970   28.9480   35.3370 C   0  0  0  0  0  0  0  0  0  0  0  0
   32.8470   28.9470   36.5980 C   0  0  0  0  0  0  0  0  0  0  0  0
   33.6870   29.0950   37.6670 C   0  0  0  0  0  0  0  0  0  0  0  0
   35.0320   29.2480   37.6050 C   0  0  0  0  0  0  0  0  0  0  0  0
   37.8810   29.6560   39.2380 H   0  0  0  0  0  0  0  0  0  0  0  0
   38.7820   29.6310   36.9890 H   0  0  0  0  0  0  0  0  0  0  0  0
   37.3130   29.3660   35.0570 H   0  0  0  0  0  0  0  0  0  0  0  0
   35.1390   29.0850   34.1840 H   0  0  0  0  0  0  0  0  0  0  0  0
   32.7390   28.8330   34.4770 H   0  0  0  0  0  0  0  0  0  0  0  0
   31.7890   28.8320   36.6990 H   0  0  0  0  0  0  0  0  0  0  0  0
   33.0760   29.0680   38.9140 O   0  0  0  0  0  0  0  0  0  0  0  0
   32.3670   29.7490   39.1930 H   0  0  0  0  0  0  0  0  0  0  0  0
  1  2  1  0  0  0  0
  1 10  1  0  0  0  0
  2  6  1  0  0  0  0
  3  2  2  0  0  0  0
  4  5  1  0  0  0  0
  4  3  1  0  0  0  0
  5  1  2  0  0  0  0
  7  3  1  0  0  0  0
  8 14  1  0  0  0  0
  9 15  1  0  0  0  0
  9  8  2  0  0  0  0
 10  9  1  0  0  0  0
 11 10  2  0  0  0  0
 11 12  1  0  0  0  0
 12 13  2  0  0  0  0
 13  8  1  0  0  0  0
 16 12  1  0  0  0  0
 16 17  2  0  0  0  0
 18 25  1  0  0  0  0
 18 17  1  0  0  0  0
 19 18  1  0  0  0  0
 20 19  2  0  0  0  0
 21 20  1  0  0  0  0
 22 21  2  0  0  0  0
 22 23  1  0  0  0  0
 23 24  2  0  0  0  0
 24 19  1  0  0  0  0
 24 16  1  0  0  0  0
 26  4  1  0  0  0  0
 26 28  1  0  0  0  0
 27 26  1  0  0  0  0
 29 31  1  0  0  0  0
 29 26  1  0  0  0  0
 30 29  1  0  0  0  0
 32 29  1  0  0  0  0
 33 32  1  0  0  0  0
 33 42  1  0  0  0  0
 34 33  2  0  0  0  0
 35 36  2  0  0  0  0
 35 34  1  0  0  0  0
 36 41  1  0  0  0  0
 37 38  2  0  0  0  0
 37 36  1  0  0  0  0
 38 39  1  0  0  0  0
 39 47  1  0  0  0  0
 39 40  2  0  0  0  0
 40 48  1  0  0  0  0
 41 40  1  0  0  0  0
 41 32  2  0  0  0  0
 43 34  1  0  0  0  0
 44 35  1  0  0  0  0
 45 37  1  0  0  0  0
 46 38  1  0  0  0  0
 48 49  1  0  0  0  0
M  END
>  <minimizedAffinity>
-6.16611433

>  <minimizedRMSD>
0.452218264

$$$$
