
     RDKit          3D

 27 29  0  0  0  0  0  0  0  0999 V2000
   37.9739   28.8789   43.3740 C   0  0  0  0  0  0  0  0  0  0  0  0
   38.0797   27.4662   43.3024 C   0  0  0  0  0  0  0  0  0  0  0  0
   37.4346   26.8215   42.2522 C   0  0  0  0  0  0  0  0  0  0  0  0
   36.7296   27.5784   41.3391 N   0  0  0  0  0  0  0  0  0  0  0  0
   36.6579   28.9089   41.4475 C   0  0  0  0  0  0  0  0  0  0  0  0
   37.2752   29.5509   42.4565 N   0  0  0  0  0  0  0  0  0  0  0  0
   37.5322   25.3419   42.1579 C   0  0  0  0  0  0  0  0  0  0  0  0
   37.6500   25.0508   40.8130 F   0  0  0  0  0  0  0  0  0  0  0  0
   38.6342   24.8450   42.7960 F   0  0  0  0  0  0  0  0  0  0  0  0
   36.3787   24.7125   42.6345 F   0  0  0  0  0  0  0  0  0  0  0  0
   38.4549   29.4275   44.1680 H   0  0  0  0  0  0  0  0  0  0  0  0
   38.6486   26.9175   44.0493 H   0  0  0  0  0  0  0  0  0  0  0  0
   35.9093   29.6982   40.4755 C   0  0  0  0  0  0  0  0  0  0  0  0
   35.2617   30.8794   40.6651 C   0  0  0  0  0  0  0  0  0  0  0  0
   34.6823   31.3039   39.5277 N   0  0  0  0  0  0  0  0  0  0  0  0
   34.9608   30.3761   38.5781 C   0  0  0  0  0  0  0  0  0  0  0  0
   34.6032   30.3315   37.2422 C   0  0  0  0  0  0  0  0  0  0  0  0
   35.0076   29.2716   36.4573 C   0  0  0  0  0  0  0  0  0  0  0  0
   35.7781   28.2343   36.9928 C   0  0  0  0  0  0  0  0  0  0  0  0
   36.1305   28.2922   38.3381 C   0  0  0  0  0  0  0  0  0  0  0  0
   35.7273   29.3567   39.1363 C   0  0  0  0  0  0  0  0  0  0  0  0
   35.2276   31.3969   41.6165 H   0  0  0  0  0  0  0  0  0  0  0  0
   34.1352   32.1920   39.4608 H   0  0  0  0  0  0  0  0  0  0  0  0
   34.0068   31.1098   36.7766 H   0  0  0  0  0  0  0  0  0  0  0  0
   34.7536   29.1865   35.3982 H   0  0  0  0  0  0  0  0  0  0  0  0
   36.1201   27.3759   36.4076 H   0  0  0  0  0  0  0  0  0  0  0  0
   36.7288   27.5005   38.7823 H   0  0  0  0  0  0  0  0  0  0  0  0
  2  1  2  0
  3  2  1  0
  4  5  1  0
  4  3  2  0
  5  6  2  0
  6  1  1  0
  7  3  1  0
  7 10  1  0
  7  9  1  0
  8  7  1  0
  1 11  1  0
  2 12  1  0
 13 14  2  0
 14 15  1  0
 15 16  1  0
 16 17  2  0
 17 18  1  0
 18 19  2  0
 19 20  1  0
 20 21  2  0
 21 13  1  0
 21 16  1  0
 14 22  1  0
 15 23  1  0
 17 24  1  0
 18 25  1  0
 19 26  1  0
 20 27  1  0
  5 13  1  0
M  ISO  2  11  14  12  14
M  END
>  <DihAtoms>  (1) 
3,4,12,13

>  <DihDeg>  (1) 
179.9999779568062

$$$$
