
     RDKit          3D

 56 61  0  0  0  0  0  0  0  0999 V2000
   35.2856   29.4968   40.0769 C   0  0  0  0  0  0  0  0  0  0  0  0
   35.8903   29.4250   38.7213 C   0  0  0  0  0  0  0  0  0  0  0  0
   37.2063   29.5844   38.3959 C   0  0  0  0  0  0  0  0  0  0  0  0
   37.7181   29.5872   37.1298 C   0  0  0  0  0  0  0  0  0  0  0  0
   36.8661   29.4186   36.0592 C   0  0  0  0  0  0  0  0  0  0  0  0
   35.5141   29.2497   36.3287 C   0  0  0  0  0  0  0  0  0  0  0  0
   34.7223   29.0879   35.2158 C   0  0  0  0  0  0  0  0  0  0  0  0
   33.3767   28.9108   35.3791 C   0  0  0  0  0  0  0  0  0  0  0  0
   32.8415   28.8948   36.6456 C   0  0  0  0  0  0  0  0  0  0  0  0
   33.6911   29.0618   37.7096 C   0  0  0  0  0  0  0  0  0  0  0  0
   35.0300   29.2489   37.6252 C   0  0  0  0  0  0  0  0  0  0  0  0
   33.0942   29.0173   38.9598 O   0  0  0  0  0  0  0  0  0  0  0  0
   36.1656   30.0781   41.1352 C   0  0  0  0  0  0  0  0  0  0  0  0
   38.6605   28.1441   42.7010 C   0  0  0  0  0  0  0  0  0  0  0  0
   37.5678   27.3244   42.8576 C   0  0  0  0  0  0  0  0  0  0  0  0
   36.4958   28.0000   42.2623 C   0  0  0  0  0  0  0  0  0  0  0  0
   37.0209   29.1573   41.8007 N   0  0  0  0  0  0  0  0  0  0  0  0
   38.2863   29.2773   42.0390 N   0  0  0  0  0  0  0  0  0  0  0  0
   41.5703   26.5801   44.3960 C   0  0  0  0  0  0  0  0  0  0  0  0
   40.2600   26.7555   43.9476 C   0  0  0  0  0  0  0  0  0  0  0  0
   40.0039   27.8803   43.1640 C   0  0  0  0  0  0  0  0  0  0  0  0
   40.9982   28.7296   42.8747 N   0  0  0  0  0  0  0  0  0  0  0  0
   42.2831   28.5240   43.3366 C   0  0  0  0  0  0  0  0  0  0  0  0
   42.5380   27.4392   44.0966 N   0  0  0  0  0  0  0  0  0  0  0  0
   34.5576   30.3683   39.9525 H   0  0  0  0  0  0  0  0  0  0  0  0
   34.8331   28.5864   40.4404 H   0  0  0  0  0  0  0  0  0  0  0  0
   37.8857   29.7187   39.2303 H   0  0  0  0  0  0  0  0  0  0  0  0
   38.7691   29.7190   36.9734 H   0  0  0  0  0  0  0  0  0  0  0  0
   37.2699   29.4227   35.0563 H   0  0  0  0  0  0  0  0  0  0  0  0
   35.1202   29.0947   34.2104 H   0  0  0  0  0  0  0  0  0  0  0  0
   32.7496   28.7851   34.5004 H   0  0  0  0  0  0  0  0  0  0  0  0
   31.7773   28.7526   36.7703 H   0  0  0  0  0  0  0  0  0  0  0  0
   32.2349   29.5457   39.1191 H   0  0  0  0  0  0  0  0  0  0  0  0
   35.5529   30.5567   41.9343 H   0  0  0  0  0  0  0  0  0  0  0  0
   36.7622   30.9004   40.6792 H   0  0  0  0  0  0  0  0  0  0  0  0
   37.6205   26.3644   43.3559 H   0  0  0  0  0  0  0  0  0  0  0  0
   35.5140   27.5839   42.2407 H   0  0  0  0  0  0  0  0  0  0  0  0
   41.8270   25.7314   45.0035 H   0  0  0  0  0  0  0  0  0  0  0  0
   39.4964   26.0370   44.2099 H   0  0  0  0  0  0  0  0  0  0  0  0
   43.1682   29.5903   42.8809 C   0  0  0  0  0  0  0  0  0  0  0  0
   44.2593   30.0082   43.5989 C   0  0  0  0  0  0  0  0  0  0  0  0
   45.1164   30.9925   43.2258 C   0  0  0  0  0  0  0  0  0  0  0  0
   44.9272   31.6630   42.0399 C   0  0  0  0  0  0  0  0  0  0  0  0
   43.8517   31.3005   41.2614 C   0  0  0  0  0  0  0  0  0  0  0  0
   43.6504   31.9643   40.0700 C   0  0  0  0  0  0  0  0  0  0  0  0
   42.5889   31.6421   39.2501 C   0  0  0  0  0  0  0  0  0  0  0  0
   41.7386   30.6193   39.6863 C   0  0  0  0  0  0  0  0  0  0  0  0
   41.9836   29.9963   40.8723 C   0  0  0  0  0  0  0  0  0  0  0  0
   43.0304   30.2941   41.7093 C   0  0  0  0  0  0  0  0  0  0  0  0
   44.5081   29.5417   44.5653 H   0  0  0  0  0  0  0  0  0  0  0  0
   45.9580   31.2785   43.8314 H   0  0  0  0  0  0  0  0  0  0  0  0
   45.6189   32.4425   41.7602 H   0  0  0  0  0  0  0  0  0  0  0  0
   44.3587   32.7559   39.7930 H   0  0  0  0  0  0  0  0  0  0  0  0
   42.5216   32.2195   38.3437 H   0  0  0  0  0  0  0  0  0  0  0  0
   40.9169   30.3953   39.0154 H   0  0  0  0  0  0  0  0  0  0  0  0
   41.2828   29.2409   41.1061 H   0  0  0  0  0  0  0  0  0  0  0  0
  1 13  1  0
  2  1  1  0
  3  2  2  0
  4  3  1  0
  5  6  1  0
  5  4  2  0
  6 11  2  0
  7  8  2  0
  7  6  1  0
  8  9  1  0
  9 10  2  0
 10 12  1  0
 11 10  1  0
 11  2  1  0
 13 17  1  0
 14 15  1  0
 14 21  1  0
 16 15  2  0
 17 18  1  0
 17 16  1  0
 18 14  2  0
 20 19  2  0
 21 20  1  0
 22 21  2  0
 22 23  1  0
 23 24  2  0
 24 19  1  0
  1 25  1  0
  1 26  1  0
  3 27  1  0
  4 28  1  0
  5 29  1  0
  7 30  1  0
  8 31  1  0
  9 32  1  0
 12 33  1  0
 13 34  1  0
 13 35  1  0
 15 36  1  0
 16 37  1  0
 19 38  1  0
 20 39  1  0
 40 41  2  0
 41 42  1  0
 42 43  2  0
 43 44  1  0
 44 45  2  0
 45 46  1  0
 46 47  2  0
 47 48  1  0
 48 49  2  0
 49 40  1  0
 49 44  1  0
 41 50  1  0
 42 51  1  0
 43 52  1  0
 45 53  1  0
 46 54  1  0
 47 55  1  0
 48 56  1  0
 23 40  1  0
M  ISO  8  25   8  26   8  27  14  28  14  29  14  30  14  31  14  32  14
M  ISO  7  33   3  34   8  35   8  36  14  37  14  38  14  39  14
M  END
>  <DihAtoms>  (1) 
21,22,39,40

>  <DihDeg>  (1) 
-0.2439157505020655

$$$$
