REMARK  Name = 
REMARK  6 active torsions:
REMARK  status: ('A' for Active; 'I' for Inactive)
REMARK    1  A    between atoms: C_1  and  C_2
REMARK    2  A    between atoms: C_1  and  C_13
REMARK    3  A    between atoms: C_10  and  O_12
REMARK    4  A    between atoms: C_13  and  N_17
REMARK    5  A    between atoms: C_14  and  C_21
REMARK    6  A    between atoms: C_23  and  C_40
REMARK                            x       y       z     vdW  Elec       q    Type
REMARK                         _______ _______ _______ _____ _____    ______ ____
ROOT
ATOM      1  C   UNL     1      38.660  28.144  42.701  0.00  0.00    +0.000 A 
ATOM      2  C   UNL     1      37.568  27.324  42.858  0.00  0.00    +0.000 A 
ATOM      3  C   UNL     1      36.496  28.000  42.262  0.00  0.00    +0.000 A 
ATOM      4  N   UNL     1      37.021  29.157  41.801  0.00  0.00    +0.000 N 
ATOM      5  N   UNL     1      38.286  29.277  42.039  0.00  0.00    +0.000 NA
ATOM      6  H   UNL     1      37.620  26.364  43.356  0.00  0.00    +0.000 HD
ATOM      7  H   UNL     1      35.514  27.584  42.241  0.00  0.00    +0.000 HD
ENDROOT
BRANCH   1  10
ATOM      8  C   UNL     1      41.570  26.580  44.396  0.00  0.00    +0.000 A 
ATOM      9  C   UNL     1      40.260  26.756  43.948  0.00  0.00    +0.000 A 
ATOM     10  C   UNL     1      40.004  27.880  43.164  0.00  0.00    +0.000 A 
ATOM     11  N   UNL     1      40.998  28.730  42.875  0.00  0.00    +0.000 NA
ATOM     12  C   UNL     1      42.283  28.524  43.337  0.00  0.00    +0.000 A 
ATOM     13  N   UNL     1      42.538  27.439  44.097  0.00  0.00    +0.000 NA
ATOM     14  H   UNL     1      41.827  25.731  45.004  0.00  0.00    +0.000 HD
ATOM     15  H   UNL     1      39.496  26.037  44.210  0.00  0.00    +0.000 HD
BRANCH  12  16
ATOM     16  C   UNL     1      43.168  29.590  42.881  0.00  0.00    +0.000 A 
ATOM     17  C   UNL     1      44.259  30.008  43.599  0.00  0.00    +0.000 A 
ATOM     18  C   UNL     1      45.116  30.992  43.226  0.00  0.00    +0.000 A 
ATOM     19  C   UNL     1      44.927  31.663  42.040  0.00  0.00    +0.000 A 
ATOM     20  C   UNL     1      43.852  31.300  41.261  0.00  0.00    +0.000 A 
ATOM     21  C   UNL     1      43.650  31.964  40.070  0.00  0.00    +0.000 A 
ATOM     22  C   UNL     1      42.589  31.642  39.250  0.00  0.00    +0.000 A 
ATOM     23  C   UNL     1      41.739  30.619  39.686  0.00  0.00    +0.000 A 
ATOM     24  C   UNL     1      41.984  29.996  40.872  0.00  0.00    +0.000 A 
ATOM     25  C   UNL     1      43.030  30.294  41.709  0.00  0.00    +0.000 A 
ENDBRANCH  12  16
ENDBRANCH   1  10
BRANCH   4  26
ATOM     26  C   UNL     1      36.166  30.078  41.135  0.00  0.00    +0.000 C 
ATOM     27  H   UNL     1      35.553  30.557  41.934  0.00  0.00    +0.000 HD
ATOM     28  H   UNL     1      36.762  30.900  40.679  0.00  0.00    +0.000 HD
BRANCH  26  29
ATOM     29  C   UNL     1      35.286  29.497  40.077  0.00  0.00    +0.000 C 
ATOM     30  H   UNL     1      34.558  30.368  39.953  0.00  0.00    +0.000 HD
ATOM     31  H   UNL     1      34.833  28.586  40.440  0.00  0.00    +0.000 HD
BRANCH  29  32
ATOM     32  C   UNL     1      35.890  29.425  38.721  0.00  0.00    +0.000 A 
ATOM     33  C   UNL     1      37.206  29.584  38.396  0.00  0.00    +0.000 A 
ATOM     34  C   UNL     1      37.718  29.587  37.130  0.00  0.00    +0.000 A 
ATOM     35  C   UNL     1      36.866  29.419  36.059  0.00  0.00    +0.000 A 
ATOM     36  C   UNL     1      35.514  29.250  36.329  0.00  0.00    +0.000 A 
ATOM     37  C   UNL     1      34.722  29.088  35.216  0.00  0.00    +0.000 A 
ATOM     38  C   UNL     1      33.377  28.911  35.379  0.00  0.00    +0.000 A 
ATOM     39  C   UNL     1      32.842  28.895  36.646  0.00  0.00    +0.000 A 
ATOM     40  C   UNL     1      33.691  29.062  37.710  0.00  0.00    +0.000 A 
ATOM     41  C   UNL     1      35.030  29.249  37.625  0.00  0.00    +0.000 A 
ATOM     42  H   UNL     1      37.886  29.719  39.230  0.00  0.00    +0.000 HD
ATOM     43  H   UNL     1      38.769  29.719  36.973  0.00  0.00    +0.000 HD
ATOM     44  H   UNL     1      37.270  29.423  35.056  0.00  0.00    +0.000 HD
ATOM     45  H   UNL     1      35.120  29.095  34.210  0.00  0.00    +0.000 HD
ATOM     46  H   UNL     1      32.750  28.785  34.500  0.00  0.00    +0.000 HD
ATOM     47  H   UNL     1      31.777  28.753  36.770  0.00  0.00    +0.000 HD
BRANCH  40  48
ATOM     48  O   UNL     1      33.094  29.017  38.960  0.00  0.00    +0.000 OA
ATOM     49  H   UNL     1      32.235  29.546  39.119  0.00  0.00    +0.000 HD
ENDBRANCH  40  48
ENDBRANCH  29  32
ENDBRANCH  26  29
ENDBRANCH   4  26
TORSDOF 6
