REMARK  Name = 
REMARK  2 active torsions:
REMARK  status: ('A' for Active; 'I' for Inactive)
REMARK    1  A    between atoms: C_3  and  C_7
REMARK    2  A    between atoms: C_5  and  C_13
REMARK                            x       y       z     vdW  Elec       q    Type
REMARK                         _______ _______ _______ _____ _____    ______ ____
ROOT
ATOM      1  C   UNL     1      37.955  28.885  43.362  0.00  0.00    +0.000 A 
ATOM      2  C   UNL     1      38.084  27.470  43.312  0.00  0.00    +0.000 A 
ATOM      3  C   UNL     1      37.454  26.817  42.266  0.00  0.00    +0.000 A 
ATOM      4  N   UNL     1      36.770  27.594  41.384  0.00  0.00    +0.000 NA
ATOM      5  C   UNL     1      36.651  28.920  41.434  0.00  0.00    +0.000 A 
ATOM      6  N   UNL     1      37.258  29.532  42.440  0.00  0.00    +0.000 NA
ATOM      7  H   UNL     1      38.419  29.453  44.149  0.00  0.00    +0.000 HD
ATOM      8  H   UNL     1      38.646  26.948  44.056  0.00  0.00    +0.000 HD
ENDROOT
BRANCH   5   9
ATOM      9  C   UNL     1      35.845  29.423  40.329  0.00  0.00    +0.000 A 
ATOM     10  C   UNL     1      35.837  30.743  39.960  0.00  0.00    +0.000 A 
ATOM     11  C   UNL     1      35.092  31.263  38.925  0.00  0.00    +0.000 A 
ATOM     12  C   UNL     1      34.287  30.448  38.181  0.00  0.00    +0.000 A 
ATOM     13  C   UNL     1      34.249  29.109  38.499  0.00  0.00    +0.000 A 
ATOM     14  C   UNL     1      33.432  28.298  37.743  0.00  0.00    +0.000 A 
ATOM     15  C   UNL     1      33.347  26.949  38.011  0.00  0.00    +0.000 A 
ATOM     16  C   UNL     1      34.114  26.447  39.068  0.00  0.00    +0.000 A 
ATOM     17  C   UNL     1      34.909  27.313  39.784  0.00  0.00    +0.000 A 
ATOM     18  C   UNL     1      35.017  28.657  39.545  0.00  0.00    +0.000 A 
ENDBRANCH   5   9
BRANCH   3  19
ATOM     19  C   UNL     1      37.532  25.336  42.140  0.00  0.00    +0.000 C 
ATOM     20  F   UNL     1      37.632  25.046  40.807  0.00  0.00    +0.000 F 
ATOM     21  F   UNL     1      38.633  24.836  42.792  0.00  0.00    +0.000 F 
ATOM     22  F   UNL     1      36.376  24.719  42.635  0.00  0.00    +0.000 F 
ENDBRANCH   3  19
TORSDOF 2
