
     RDKit          3D

 29 31  0  0  0  0  0  0  0  0999 V2000
   37.9547   28.8852   43.3625 C   0  0  0  0  0  0  0  0  0  0  0  0
   38.0843   27.4702   43.3125 C   0  0  0  0  0  0  0  0  0  0  0  0
   37.4541   26.8172   42.2662 C   0  0  0  0  0  0  0  0  0  0  0  0
   36.7696   27.5941   41.3836 N   0  0  0  0  0  0  0  0  0  0  0  0
   36.6508   28.9201   41.4342 C   0  0  0  0  0  0  0  0  0  0  0  0
   37.2582   29.5317   42.4403 N   0  0  0  0  0  0  0  0  0  0  0  0
   37.5325   25.3358   42.1400 C   0  0  0  0  0  0  0  0  0  0  0  0
   37.6324   25.0460   40.8069 F   0  0  0  0  0  0  0  0  0  0  0  0
   38.6330   24.8360   42.7916 F   0  0  0  0  0  0  0  0  0  0  0  0
   36.3764   24.7186   42.6351 F   0  0  0  0  0  0  0  0  0  0  0  0
   38.4194   29.4528   44.1488 H   0  0  0  0  0  0  0  0  0  0  0  0
   38.6460   26.9479   44.0559 H   0  0  0  0  0  0  0  0  0  0  0  0
   35.8451   29.4226   40.3290 C   0  0  0  0  0  0  0  0  0  0  0  0
   34.5617   29.8754   40.4951 C   0  0  0  0  0  0  0  0  0  0  0  0
   33.7631   30.3574   39.4820 C   0  0  0  0  0  0  0  0  0  0  0  0
   34.2353   30.4094   38.2012 C   0  0  0  0  0  0  0  0  0  0  0  0
   35.5184   29.9692   37.9649 C   0  0  0  0  0  0  0  0  0  0  0  0
   35.9821   30.0250   36.6697 C   0  0  0  0  0  0  0  0  0  0  0  0
   37.2566   29.5982   36.3647 C   0  0  0  0  0  0  0  0  0  0  0  0
   38.0462   29.1128   37.4134 C   0  0  0  0  0  0  0  0  0  0  0  0
   37.5210   29.0843   38.6857 C   0  0  0  0  0  0  0  0  0  0  0  0
   36.2607   29.5004   39.0221 C   0  0  0  0  0  0  0  0  0  0  0  0
   34.0842   29.8773   41.4862 H   0  0  0  0  0  0  0  0  0  0  0  0
   32.7662   30.6977   39.6753 H   0  0  0  0  0  0  0  0  0  0  0  0
   33.5917   30.7910   37.4235 H   0  0  0  0  0  0  0  0  0  0  0  0
   35.3381   30.4075   35.8888 H   0  0  0  0  0  0  0  0  0  0  0  0
   37.5529   29.6711   35.3289 H   0  0  0  0  0  0  0  0  0  0  0  0
   39.0394   28.7868   37.1380 H   0  0  0  0  0  0  0  0  0  0  0  0
   38.2154   28.6942   39.3897 H   0  0  0  0  0  0  0  0  0  0  0  0
  2  1  2  0
  3  2  1  0
  4  5  1  0
  4  3  2  0
  5  6  2  0
  6  1  1  0
  7  3  1  0
  7 10  1  0
  7  9  1  0
  8  7  1  0
  1 11  1  0
  2 12  1  0
 13 14  2  0
 14 15  1  0
 15 16  2  0
 16 17  1  0
 17 18  2  0
 18 19  1  0
 19 20  2  0
 20 21  1  0
 21 22  2  0
 22 13  1  0
 22 17  1  0
 14 23  1  0
 15 24  1  0
 16 25  1  0
 18 26  1  0
 19 27  1  0
 20 28  1  0
 21 29  1  0
  5 13  1  0
M  ISO  2  11  14  12  14
M  END
>  <DihAtoms>  (1) 
3,4,12,13

>  <DihDeg>  (1) 
1.3277395588830718

$$$$
