
 OpenBabel03242509283D

 49 54  0  0  0  0  0  0  0  0999 V2000
   38.7360   28.1670   42.7530 C   0  0  0  0  0  0  0  0  0  0  0  0
   37.6480   27.3460   42.9260 C   0  0  0  0  0  0  0  0  0  0  0  0
   36.5700   28.0140   42.3310 C   0  0  0  0  0  0  0  0  0  0  0  0
   37.0890   29.1670   41.8550 N   0  0  0  0  0  0  0  0  0  0  0  0
   38.3550   29.2930   42.0830 N   0  0  0  0  0  0  0  0  0  0  0  0
   37.7050   26.3910   43.4320 H   0  0  0  0  0  0  0  0  0  0  0  0
   35.5890   27.5950   42.3210 H   0  0  0  0  0  0  0  0  0  0  0  0
   41.6830   26.5640   44.3450 C   0  0  0  0  0  0  0  0  0  0  0  0
   40.3720   26.7320   43.8970 C   0  0  0  0  0  0  0  0  0  0  0  0
   40.0840   27.9110   43.2090 C   0  0  0  0  0  0  0  0  0  0  0  0
   41.0500   28.8160   43.0080 N   0  0  0  0  0  0  0  0  0  0  0  0
   42.3370   28.6160   43.4670 C   0  0  0  0  0  0  0  0  0  0  0  0
   42.6230   27.4780   44.1340 N   0  0  0  0  0  0  0  0  0  0  0  0
   41.9640   25.6750   44.8810 H   0  0  0  0  0  0  0  0  0  0  0  0
   39.6320   25.9670   44.0860 H   0  0  0  0  0  0  0  0  0  0  0  0
   43.1880   29.7470   43.1160 C   0  0  0  0  0  0  0  0  0  0  0  0
   43.4170   30.1320   41.8190 C   0  0  0  0  0  3  0  0  0  0  0  0
   44.1970   31.1740   41.4340 C   0  0  0  0  0  3  0  0  0  0  0  0
   44.8370   31.9450   42.3750 C   0  0  0  0  0  3  0  0  0  0  0  0
   44.6580   31.6210   43.7010 C   0  0  0  0  0  0  0  0  0  0  0  0
   45.2940   32.3860   44.6550 C   0  0  0  0  0  3  0  0  0  0  0  0
   45.1490   32.1080   45.9990 C   0  0  0  0  0  3  0  0  0  0  0  0
   44.3320   31.0220   46.3360 C   0  0  0  0  0  3  0  0  0  0  0  0
   43.7270   30.3000   45.3530 C   0  0  0  0  0  3  0  0  0  0  0  0
   43.8520   30.5520   44.0100 C   0  0  0  0  0  0  0  0  0  0  0  0
   36.2270   30.0800   41.1860 C   0  0  0  0  0  0  0  0  0  0  0  0
   35.6170   30.5640   41.9850 H   0  0  0  0  0  0  0  0  0  0  0  0
   36.8180   30.9000   40.7200 H   0  0  0  0  0  0  0  0  0  0  0  0
   35.3430   29.4870   40.1380 C   0  0  0  0  0  0  0  0  0  0  0  0
   34.6160   30.3580   40.0060 H   0  0  0  0  0  0  0  0  0  0  0  0
   34.8900   28.5810   40.5140 H   0  0  0  0  0  0  0  0  0  0  0  0
   35.9430   29.3980   38.7810 C   0  0  0  0  0  0  0  0  0  0  0  0
   37.2620   29.5190   38.4550 C   0  0  0  0  0  0  0  0  0  0  0  0
   37.7730   29.5080   37.1880 C   0  0  0  0  0  0  0  0  0  0  0  0
   36.9150   29.3640   36.1180 C   0  0  0  0  0  0  0  0  0  0  0  0
   35.5590   29.2340   36.3900 C   0  0  0  0  0  0  0  0  0  0  0  0
   34.7610   29.0950   35.2780 C   0  0  0  0  0  0  0  0  0  0  0  0
   33.4110   28.9570   35.4430 C   0  0  0  0  0  0  0  0  0  0  0  0
   32.8780   28.9560   36.7110 C   0  0  0  0  0  0  0  0  0  0  0  0
   33.7330   29.0990   37.7730 C   0  0  0  0  0  0  0  0  0  0  0  0
   35.0770   29.2470   37.6870 C   0  0  0  0  0  0  0  0  0  0  0  0
   37.9470   29.6350   39.2880 H   0  0  0  0  0  0  0  0  0  0  0  0
   38.8270   29.6090   37.0290 H   0  0  0  0  0  0  0  0  0  0  0  0
   37.3170   29.3570   35.1150 H   0  0  0  0  0  0  0  0  0  0  0  0
   35.1570   29.0910   34.2710 H   0  0  0  0  0  0  0  0  0  0  0  0
   32.7800   28.8490   34.5650 H   0  0  0  0  0  0  0  0  0  0  0  0
   31.8100   28.8450   36.8360 H   0  0  0  0  0  0  0  0  0  0  0  0
   33.1370   29.0710   39.0240 O   0  0  0  0  0  0  0  0  0  0  0  0
   32.2930   29.6240   39.1840 H   0  0  0  0  0  0  0  0  0  0  0  0
  1  2  1  0  0  0  0
  1 10  1  0  0  0  0
  2  6  1  0  0  0  0
  3  2  2  0  0  0  0
  4  5  1  0  0  0  0
  4  3  1  0  0  0  0
  5  1  2  0  0  0  0
  7  3  1  0  0  0  0
  8 14  1  0  0  0  0
  9 15  1  0  0  0  0
  9  8  2  0  0  0  0
 10  9  1  0  0  0  0
 11 10  2  0  0  0  0
 11 12  1  0  0  0  0
 12 13  2  0  0  0  0
 13  8  1  0  0  0  0
 16 12  1  0  0  0  0
 16 25  1  0  0  0  0
 17 16  2  0  0  0  0
 18 17  1  0  0  0  0
 18 19  2  0  0  0  0
 19 20  1  0  0  0  0
 20 25  2  0  0  0  0
 20 21  1  0  0  0  0
 21 22  2  0  0  0  0
 22 23  1  0  0  0  0
 24 23  2  0  0  0  0
 25 24  1  0  0  0  0
 26  4  1  0  0  0  0
 26 27  1  0  0  0  0
 28 26  1  0  0  0  0
 29 31  1  0  0  0  0
 29 26  1  0  0  0  0
 30 29  1  0  0  0  0
 32 29  1  0  0  0  0
 33 32  1  0  0  0  0
 33 42  1  0  0  0  0
 34 33  2  0  0  0  0
 35 36  2  0  0  0  0
 35 34  1  0  0  0  0
 36 41  1  0  0  0  0
 37 38  2  0  0  0  0
 37 36  1  0  0  0  0
 38 39  1  0  0  0  0
 39 47  1  0  0  0  0
 39 40  2  0  0  0  0
 40 48  1  0  0  0  0
 41 40  1  0  0  0  0
 41 32  2  0  0  0  0
 43 34  1  0  0  0  0
 44 35  1  0  0  0  0
 45 37  1  0  0  0  0
 46 38  1  0  0  0  0
 48 49  1  0  0  0  0
M  END
>  <minimizedAffinity>
-6.89084435

>  <minimizedRMSD>
0.381808549

$$$$
