
 OpenBabel03242509283D

 49 54  0  0  0  0  0  0  0  0999 V2000
   38.7130   28.1420   42.7400 C   0  0  0  0  0  0  0  0  0  0  0  0
   37.6250   27.3180   42.9070 C   0  0  0  0  0  0  0  0  0  0  0  0
   36.5470   27.9860   42.3130 C   0  0  0  0  0  0  0  0  0  0  0  0
   37.0650   29.1430   41.8440 N   0  0  0  0  0  0  0  0  0  0  0  0
   38.3300   29.2700   42.0750 N   0  0  0  0  0  0  0  0  0  0  0  0
   37.6840   26.3600   43.4090 H   0  0  0  0  0  0  0  0  0  0  0  0
   35.5670   27.5660   42.2990 H   0  0  0  0  0  0  0  0  0  0  0  0
   41.6700   26.5120   44.2850 C   0  0  0  0  0  0  0  0  0  0  0  0
   40.3610   26.6810   43.8310 C   0  0  0  0  0  0  0  0  0  0  0  0
   40.0600   27.8860   43.1970 C   0  0  0  0  0  0  0  0  0  0  0  0
   41.0130   28.8150   43.0490 N   0  0  0  0  0  0  0  0  0  0  0  0
   42.2980   28.6140   43.5110 C   0  0  0  0  0  0  0  0  0  0  0  0
   42.5970   27.4510   44.1270 N   0  0  0  0  0  0  0  0  0  0  0  0
   41.9610   25.6030   44.7810 H   0  0  0  0  0  0  0  0  0  0  0  0
   39.6320   25.8960   43.9760 H   0  0  0  0  0  0  0  0  0  0  0  0
   43.1340   29.7740   43.2230 C   0  0  0  0  0  0  0  0  0  0  0  0
   43.3120   30.2670   41.9550 C   0  0  0  0  0  3  0  0  0  0  0  0
   44.0740   31.3410   41.6280 C   0  0  0  0  0  3  0  0  0  0  0  0
   44.7500   32.0330   42.6060 C   0  0  0  0  0  3  0  0  0  0  0  0
   44.6230   31.6000   43.9050 C   0  0  0  0  0  0  0  0  0  0  0  0
   45.2950   32.2850   44.8950 C   0  0  0  0  0  3  0  0  0  0  0  0
   45.2020   31.8960   46.2150 C   0  0  0  0  0  3  0  0  0  0  0  0
   44.4010   30.7820   46.4930 C   0  0  0  0  0  3  0  0  0  0  0  0
   43.7590   30.1420   45.4770 C   0  0  0  0  0  3  0  0  0  0  0  0
   43.8310   30.5050   44.1540 C   0  0  0  0  0  0  0  0  0  0  0  0
   36.2020   30.0570   41.1780 C   0  0  0  0  0  0  0  0  0  0  0  0
   35.5870   30.5330   41.9770 H   0  0  0  0  0  0  0  0  0  0  0  0
   36.7920   30.8830   40.7200 H   0  0  0  0  0  0  0  0  0  0  0  0
   35.3240   29.4690   40.1220 C   0  0  0  0  0  0  0  0  0  0  0  0
   34.5960   30.3380   39.9910 H   0  0  0  0  0  0  0  0  0  0  0  0
   34.8710   28.5600   40.4900 H   0  0  0  0  0  0  0  0  0  0  0  0
   35.9310   29.3880   38.7680 C   0  0  0  0  0  0  0  0  0  0  0  0
   37.2520   29.5100   38.4480 C   0  0  0  0  0  0  0  0  0  0  0  0
   37.7690   29.5070   37.1840 C   0  0  0  0  0  0  0  0  0  0  0  0
   36.9160   29.3720   36.1090 C   0  0  0  0  0  0  0  0  0  0  0  0
   35.5580   29.2410   36.3730 C   0  0  0  0  0  0  0  0  0  0  0  0
   34.7660   29.1110   35.2560 C   0  0  0  0  0  0  0  0  0  0  0  0
   33.4160   28.9730   35.4140 C   0  0  0  0  0  0  0  0  0  0  0  0
   32.8760   28.9640   36.6790 C   0  0  0  0  0  0  0  0  0  0  0  0
   33.7260   29.0980   37.7470 C   0  0  0  0  0  0  0  0  0  0  0  0
   35.0700   29.2460   37.6680 C   0  0  0  0  0  0  0  0  0  0  0  0
   37.9330   29.6190   39.2860 H   0  0  0  0  0  0  0  0  0  0  0  0
   38.8240   29.6080   37.0320 H   0  0  0  0  0  0  0  0  0  0  0  0
   37.3230   29.3710   35.1070 H   0  0  0  0  0  0  0  0  0  0  0  0
   35.1680   29.1130   34.2520 H   0  0  0  0  0  0  0  0  0  0  0  0
   32.7880   28.8720   34.5320 H   0  0  0  0  0  0  0  0  0  0  0  0
   31.8070   28.8530   36.7980 H   0  0  0  0  0  0  0  0  0  0  0  0
   33.1230   29.0620   38.9940 O   0  0  0  0  0  0  0  0  0  0  0  0
   32.2800   29.6160   39.1540 H   0  0  0  0  0  0  0  0  0  0  0  0
  1  2  1  0  0  0  0
  1 10  1  0  0  0  0
  2  6  1  0  0  0  0
  3  2  2  0  0  0  0
  4  5  1  0  0  0  0
  4  3  1  0  0  0  0
  5  1  2  0  0  0  0
  7  3  1  0  0  0  0
  8 14  1  0  0  0  0
  9 15  1  0  0  0  0
  9  8  2  0  0  0  0
 10  9  1  0  0  0  0
 11 10  2  0  0  0  0
 11 12  1  0  0  0  0
 12 13  2  0  0  0  0
 13  8  1  0  0  0  0
 16 12  1  0  0  0  0
 16 25  1  0  0  0  0
 17 16  2  0  0  0  0
 18 17  1  0  0  0  0
 18 19  2  0  0  0  0
 19 20  1  0  0  0  0
 20 25  2  0  0  0  0
 20 21  1  0  0  0  0
 21 22  2  0  0  0  0
 22 23  1  0  0  0  0
 24 23  2  0  0  0  0
 25 24  1  0  0  0  0
 26  4  1  0  0  0  0
 26 27  1  0  0  0  0
 28 26  1  0  0  0  0
 29 31  1  0  0  0  0
 29 26  1  0  0  0  0
 30 29  1  0  0  0  0
 32 29  1  0  0  0  0
 33 32  1  0  0  0  0
 33 42  1  0  0  0  0
 34 33  2  0  0  0  0
 35 36  2  0  0  0  0
 35 34  1  0  0  0  0
 36 41  1  0  0  0  0
 37 38  2  0  0  0  0
 37 36  1  0  0  0  0
 38 39  1  0  0  0  0
 39 47  1  0  0  0  0
 39 40  2  0  0  0  0
 40 48  1  0  0  0  0
 41 40  1  0  0  0  0
 41 32  2  0  0  0  0
 43 34  1  0  0  0  0
 44 35  1  0  0  0  0
 45 37  1  0  0  0  0
 46 38  1  0  0  0  0
 48 49  1  0  0  0  0
M  END
>  <minimizedAffinity>
-6.90719748

>  <minimizedRMSD>
1.00639808

$$$$
