
 OpenBabel03242504393D

 41 44  0  0  1  0  0  0  0  0999 V2000
   36.9260   25.7180   42.2130 C   0  0  2  0  0  0  0  0  0  0  0  0
   37.2200   24.2920   42.1990 C   0  0  0  0  0  0  0  0  0  0  0  0
   37.3530   23.8470   40.7630 C   0  0  0  0  0  0  0  0  0  0  0  0
   36.7890   25.0100   39.9610 C   0  0  0  0  0  0  0  0  0  0  0  0
   37.1500   26.2130   40.8160 C   0  0  2  0  0  0  0  0  0  0  0  0
   35.8250   25.8270   42.4760 H   0  0  0  0  0  0  0  0  0  0  0  0
   38.0490   23.9280   42.8600 H   0  0  0  0  0  0  0  0  0  0  0  0
   36.3530   23.6740   42.5970 H   0  0  0  0  0  0  0  0  0  0  0  0
   36.7120   22.9830   40.4930 H   0  0  0  0  0  0  0  0  0  0  0  0
   38.3680   23.5580   40.4600 H   0  0  0  0  0  0  0  0  0  0  0  0
   35.7230   24.8970   39.7600 H   0  0  0  0  0  0  0  0  0  0  0  0
   37.3470   25.0230   39.0050 H   0  0  0  0  0  0  0  0  0  0  0  0
   36.3330   26.8890   40.6200 H   0  0  0  0  0  0  0  0  0  0  0  0
   38.4840   26.6070   40.4270 C   0  0  0  0  0  0  0  0  0  0  0  0
   38.7460   27.4660   39.3800 C   0  0  0  0  0  0  0  0  0  0  0  0
   40.0170   27.8540   39.0040 C   0  0  0  0  0  0  0  0  0  0  0  0
   41.1240   27.3920   39.6750 C   0  0  0  0  0  0  0  0  0  0  0  0
   40.9060   26.5460   40.7120 C   0  0  0  0  0  0  0  0  0  0  0  0
   42.0340   26.0870   41.3860 C   0  0  0  0  0  0  0  0  0  0  0  0
   41.9100   25.2260   42.4540 C   0  0  0  0  0  0  0  0  0  0  0  0
   40.6410   24.8370   42.8320 C   0  0  0  0  0  0  0  0  0  0  0  0
   39.5510   25.3160   42.1370 C   0  0  0  0  0  0  0  0  0  0  0  0
   39.6270   26.1720   41.0690 C   0  0  0  0  0  0  0  0  0  0  0  0
   37.6090   26.6000   43.1980 C   0  0  0  0  0  0  0  0  0  0  0  0
   37.6330   26.0420   44.1800 H   0  0  0  0  0  0  0  0  0  0  0  0
   38.6300   26.8940   42.9960 H   0  0  0  0  0  0  0  0  0  0  0  0
   36.7140   27.8470   43.4350 C   0  0  2  0  0  0  0  0  0  0  0  0
   35.7240   27.7210   43.0030 H   0  0  0  0  0  0  0  0  0  0  0  0
   39.3210   30.3510   42.2780 C   0  0  0  0  0  0  0  0  0  0  0  0
   38.7430   29.2790   42.9940 C   0  0  0  0  0  0  0  0  0  0  0  0
   37.3730   28.9660   42.7150 C   0  0  0  0  0  0  0  0  0  0  0  0
   36.7370   29.7290   41.7760 N   0  0  0  0  0  0  0  0  0  0  0  0
   37.3090   30.7290   41.1210 C   0  0  0  0  0  0  0  0  0  0  0  0
   38.5910   31.0430   41.3630 N   0  0  0  0  0  0  0  0  0  0  0  0
   40.3570   30.5360   42.5340 H   0  0  0  0  0  0  0  0  0  0  0  0
   39.2710   28.7060   43.7190 H   0  0  0  0  0  0  0  0  0  0  0  0
   36.7510   31.2950   40.3890 H   0  0  0  0  0  0  0  0  0  0  0  0
   36.5710   28.1170   44.9050 C   0  0  0  0  0  0  0  0  0  0  0  0
   35.6720   28.7540   45.0390 H   0  0  0  0  0  0  0  0  0  0  0  0
   36.3600   27.1420   45.4080 H   0  0  0  0  0  0  0  0  0  0  0  0
   37.4430   28.6300   45.3430 H   0  0  0  0  0  0  0  0  0  0  0  0
  1  6  1  1  0  0  0
  1 24  1  0  0  0  0
  2  1  1  0  0  0  0
  2  8  1  0  0  0  0
  2  7  1  0  0  0  0
  3  2  1  0  0  0  0
  4  3  1  0  0  0  0
  4  5  1  0  0  0  0
  5 13  1  6  0  0  0
  5  1  1  0  0  0  0
  9  3  1  0  0  0  0
 10  3  1  0  0  0  0
 11  4  1  0  0  0  0
 12  4  1  0  0  0  0
 14  5  1  0  0  0  0
 14 23  1  0  0  0  0
 15 14  2  0  0  0  0
 16 15  1  0  0  0  0
 16 17  2  0  0  0  0
 17 18  1  0  0  0  0
 18 23  2  0  0  0  0
 18 19  1  0  0  0  0
 19 20  2  0  0  0  0
 20 21  1  0  0  0  0
 22 21  2  0  0  0  0
 23 22  1  0  0  0  0
 24 27  1  0  0  0  0
 24 25  1  0  0  0  0
 26 24  1  0  0  0  0
 27 28  1  6  0  0  0
 27 38  1  0  0  0  0
 29 35  1  0  0  0  0
 29 30  1  0  0  0  0
 30 36  1  0  0  0  0
 31 30  2  0  0  0  0
 31 27  1  0  0  0  0
 32 31  1  0  0  0  0
 33 34  1  0  0  0  0
 33 32  2  0  0  0  0
 34 29  2  0  0  0  0
 37 33  1  0  0  0  0
 38 39  1  0  0  0  0
 38 41  1  0  0  0  0
 38 40  1  0  0  0  0
M  END
>  <minimizedAffinity>
-5.84216642

>  <minimizedRMSD>
1.33328009

$$$$
