
 OpenBabel03242509283D

 49 54  0  0  0  0  0  0  0  0999 V2000
   38.4650   28.1120   42.5980 C   0  0  0  0  0  0  0  0  0  0  0  0
   37.3850   27.2820   42.7840 C   0  0  0  0  0  0  0  0  0  0  0  0
   36.3090   27.9080   42.1430 C   0  0  0  0  0  0  0  0  0  0  0  0
   36.8200   29.0500   41.6300 N   0  0  0  0  0  0  0  0  0  0  0  0
   38.0800   29.2040   41.8760 N   0  0  0  0  0  0  0  0  0  0  0  0
   37.4470   26.3490   43.3310 H   0  0  0  0  0  0  0  0  0  0  0  0
   35.3350   27.4750   42.1320 H   0  0  0  0  0  0  0  0  0  0  0  0
   41.3990   26.6320   44.3270 C   0  0  0  0  0  0  0  0  0  0  0  0
   40.0940   26.7620   43.8490 C   0  0  0  0  0  0  0  0  0  0  0  0
   39.8070   27.8950   43.0890 C   0  0  0  0  0  0  0  0  0  0  0  0
   40.7690   28.7970   42.8500 N   0  0  0  0  0  0  0  0  0  0  0  0
   42.0500   28.6350   43.3400 C   0  0  0  0  0  0  0  0  0  0  0  0
   42.3350   27.5420   44.0760 N   0  0  0  0  0  0  0  0  0  0  0  0
   41.6790   25.7790   44.9180 H   0  0  0  0  0  0  0  0  0  0  0  0
   39.3570   26.0030   44.0710 H   0  0  0  0  0  0  0  0  0  0  0  0
   42.8970   29.7520   42.9360 C   0  0  0  0  0  0  0  0  0  0  0  0
   43.0110   30.9030   43.6740 C   0  0  0  0  0  3  0  0  0  0  0  0
   43.7820   31.9720   43.3480 C   0  0  0  0  0  3  0  0  0  0  0  0
   44.5350   31.9590   42.1970 C   0  0  0  0  0  3  0  0  0  0  0  0
   44.4730   30.8370   41.4030 C   0  0  0  0  0  0  0  0  0  0  0  0
   45.2230   30.8110   40.2460 C   0  0  0  0  0  3  0  0  0  0  0  0
   45.2000   29.7120   39.4120 C   0  0  0  0  0  3  0  0  0  0  0  0
   44.3880   28.6400   39.7980 C   0  0  0  0  0  3  0  0  0  0  0  0
   43.6680   28.7190   40.9510 C   0  0  0  0  0  3  0  0  0  0  0  0
   43.6690   29.7970   41.8000 C   0  0  0  0  0  0  0  0  0  0  0  0
   35.9580   29.9210   40.9090 C   0  0  0  0  0  0  0  0  0  0  0  0
   35.3720   30.4760   41.6780 H   0  0  0  0  0  0  0  0  0  0  0  0
   36.5500   30.6920   40.3670 H   0  0  0  0  0  0  0  0  0  0  0  0
   35.0430   29.2620   39.9280 C   0  0  0  0  0  0  0  0  0  0  0  0
   34.2750   30.0990   39.8110 H   0  0  0  0  0  0  0  0  0  0  0  0
   34.6480   28.3520   40.3550 H   0  0  0  0  0  0  0  0  0  0  0  0
   35.5720   29.1530   38.5440 C   0  0  0  0  0  0  0  0  0  0  0  0
   36.8820   29.1270   38.1620 C   0  0  0  0  0  0  0  0  0  0  0  0
   37.3350   29.1020   36.8740 C   0  0  0  0  0  0  0  0  0  0  0  0
   36.4230   29.1050   35.8400 C   0  0  0  0  0  0  0  0  0  0  0  0
   35.0740   29.1300   36.1680 C   0  0  0  0  0  0  0  0  0  0  0  0
   34.2210   29.1310   35.0890 C   0  0  0  0  0  0  0  0  0  0  0  0
   32.8720   29.1510   35.3090 C   0  0  0  0  0  0  0  0  0  0  0  0
   32.3950   29.1660   36.5990 C   0  0  0  0  0  0  0  0  0  0  0  0
   33.3030   29.1630   37.6270 C   0  0  0  0  0  0  0  0  0  0  0  0
   34.6500   29.1510   37.4850 C   0  0  0  0  0  0  0  0  0  0  0  0
   37.6090   29.1260   38.9670 H   0  0  0  0  0  0  0  0  0  0  0  0
   38.3870   29.0820   36.6720 H   0  0  0  0  0  0  0  0  0  0  0  0
   36.7810   29.0880   34.8190 H   0  0  0  0  0  0  0  0  0  0  0  0
   34.5730   29.1180   34.0660 H   0  0  0  0  0  0  0  0  0  0  0  0
   32.1970   29.1540   34.4580 H   0  0  0  0  0  0  0  0  0  0  0  0
   31.3270   29.1800   36.7690 H   0  0  0  0  0  0  0  0  0  0  0  0
   32.7590   29.1590   38.9010 O   0  0  0  0  0  0  0  0  0  0  0  0
   31.9970   29.8040   39.1180 H   0  0  0  0  0  0  0  0  0  0  0  0
  1  2  1  0  0  0  0
  1 10  1  0  0  0  0
  2  6  1  0  0  0  0
  3  2  2  0  0  0  0
  4  5  1  0  0  0  0
  4  3  1  0  0  0  0
  5  1  2  0  0  0  0
  7  3  1  0  0  0  0
  8 14  1  0  0  0  0
  9 15  1  0  0  0  0
  9  8  2  0  0  0  0
 10  9  1  0  0  0  0
 11 10  2  0  0  0  0
 11 12  1  0  0  0  0
 12 13  2  0  0  0  0
 13  8  1  0  0  0  0
 16 12  1  0  0  0  0
 16 17  1  0  0  0  0
 18 17  2  0  0  0  0
 19 18  1  0  0  0  0
 20 25  1  0  0  0  0
 20 19  2  0  0  0  0
 21 20  1  0  0  0  0
 22 23  1  0  0  0  0
 22 21  2  0  0  0  0
 23 24  2  0  0  0  0
 24 25  1  0  0  0  0
 25 16  2  0  0  0  0
 26  4  1  0  0  0  0
 26 27  1  0  0  0  0
 28 26  1  0  0  0  0
 29 31  1  0  0  0  0
 29 26  1  0  0  0  0
 30 29  1  0  0  0  0
 32 29  1  0  0  0  0
 33 32  1  0  0  0  0
 33 42  1  0  0  0  0
 34 33  2  0  0  0  0
 35 36  2  0  0  0  0
 35 34  1  0  0  0  0
 36 41  1  0  0  0  0
 37 38  2  0  0  0  0
 37 36  1  0  0  0  0
 38 39  1  0  0  0  0
 39 47  1  0  0  0  0
 39 40  2  0  0  0  0
 40 48  1  0  0  0  0
 41 40  1  0  0  0  0
 41 32  2  0  0  0  0
 43 34  1  0  0  0  0
 44 35  1  0  0  0  0
 45 37  1  0  0  0  0
 46 38  1  0  0  0  0
 48 49  1  0  0  0  0
M  END
>  <minimizedAffinity>
-6.30108547

>  <minimizedRMSD>
1.16497838

$$$$
