
 OpenBabel03242509283D

 49 54  0  0  0  0  0  0  0  0999 V2000
   39.1910   27.6180   42.9070 C   0  0  0  0  0  0  0  0  0  0  0  0
   37.9850   26.9890   43.1080 C   0  0  0  0  0  0  0  0  0  0  0  0
   37.0090   27.8840   42.6530 C   0  0  0  0  0  0  0  0  0  0  0  0
   37.6950   28.9650   42.2210 N   0  0  0  0  0  0  0  0  0  0  0  0
   38.9760   28.8460   42.3530 N   0  0  0  0  0  0  0  0  0  0  0  0
   37.9030   25.9990   43.5390 H   0  0  0  0  0  0  0  0  0  0  0  0
   35.9700   27.6470   42.6930 H   0  0  0  0  0  0  0  0  0  0  0  0
   42.0850   25.3190   43.2620 C   0  0  0  0  0  0  0  0  0  0  0  0
   40.8230   25.7800   42.8850 C   0  0  0  0  0  0  0  0  0  0  0  0
   40.4970   27.0910   43.2320 C   0  0  0  0  0  0  0  0  0  0  0  0
   41.3830   27.8420   43.8980 N   0  0  0  0  0  0  0  0  0  0  0  0
   42.6240   27.3520   44.2570 C   0  0  0  0  0  0  0  0  0  0  0  0
   42.9460   26.0850   43.9250 N   0  0  0  0  0  0  0  0  0  0  0  0
   42.3920   24.3170   43.0220 H   0  0  0  0  0  0  0  0  0  0  0  0
   40.1470   25.1310   42.3460 H   0  0  0  0  0  0  0  0  0  0  0  0
   43.3900   28.3680   44.9690 C   0  0  0  0  0  0  0  0  0  0  0  0
   44.0950   29.3540   44.3260 C   0  0  0  0  0  3  0  0  0  0  0  0
   44.8240   30.3240   44.9350 C   0  0  0  0  0  3  0  0  0  0  0  0
   44.9000   30.3760   46.3070 C   0  0  0  0  0  3  0  0  0  0  0  0
   44.2180   29.4180   47.0240 C   0  0  0  0  0  0  0  0  0  0  0  0
   44.2850   29.4580   48.4010 C   0  0  0  0  0  3  0  0  0  0  0  0
   43.6230   28.5250   49.1700 C   0  0  0  0  0  3  0  0  0  0  0  0
   42.8870   27.5480   48.4870 C   0  0  0  0  0  3  0  0  0  0  0  0
   42.8540   27.5550   47.1270 C   0  0  0  0  0  3  0  0  0  0  0  0
   43.5030   28.4700   46.3340 C   0  0  0  0  0  0  0  0  0  0  0  0
   36.9700   30.0690   41.6920 C   0  0  0  0  0  0  0  0  0  0  0  0
   36.5460   30.6040   42.5740 H   0  0  0  0  0  0  0  0  0  0  0  0
   37.6640   30.7910   41.2060 H   0  0  0  0  0  0  0  0  0  0  0  0
   35.8920   29.7280   40.7170 C   0  0  0  0  0  0  0  0  0  0  0  0
   35.3680   30.7420   40.6700 H   0  0  0  0  0  0  0  0  0  0  0  0
   35.2820   28.9290   41.1120 H   0  0  0  0  0  0  0  0  0  0  0  0
   36.3410   29.5650   39.3090 C   0  0  0  0  0  0  0  0  0  0  0  0
   37.6140   29.6840   38.8320 C   0  0  0  0  0  0  0  0  0  0  0  0
   37.9820   29.6030   37.5190 C   0  0  0  0  0  0  0  0  0  0  0  0
   37.0140   29.3830   36.5610 C   0  0  0  0  0  0  0  0  0  0  0  0
   35.7000   29.2510   36.9890 C   0  0  0  0  0  0  0  0  0  0  0  0
   34.7870   29.0340   35.9820 C   0  0  0  0  0  0  0  0  0  0  0  0
   33.4670   28.8880   36.3040 C   0  0  0  0  0  0  0  0  0  0  0  0
   33.0760   28.9570   37.6210 C   0  0  0  0  0  0  0  0  0  0  0  0
   34.0400   29.1750   38.5720 C   0  0  0  0  0  0  0  0  0  0  0  0
   35.3630   29.3360   38.3280 C   0  0  0  0  0  0  0  0  0  0  0  0
   38.3830   29.8590   39.5750 H   0  0  0  0  0  0  0  0  0  0  0  0
   39.0100   29.7090   37.2390 H   0  0  0  0  0  0  0  0  0  0  0  0
   37.3040   29.3200   35.5210 H   0  0  0  0  0  0  0  0  0  0  0  0
   35.0710   28.9740   34.9400 H   0  0  0  0  0  0  0  0  0  0  0  0
   32.7450   28.7180   35.5090 H   0  0  0  0  0  0  0  0  0  0  0  0
   32.0310   28.8390   37.8700 H   0  0  0  0  0  0  0  0  0  0  0  0
   33.5850   29.2150   39.8810 O   0  0  0  0  0  0  0  0  0  0  0  0
   32.7540   29.7650   40.1000 H   0  0  0  0  0  0  0  0  0  0  0  0
  1  2  1  0  0  0  0
  1 10  1  0  0  0  0
  2  6  1  0  0  0  0
  3  7  1  0  0  0  0
  3  2  2  0  0  0  0
  4  5  1  0  0  0  0
  4  3  1  0  0  0  0
  5  1  2  0  0  0  0
  8 13  1  0  0  0  0
  9 10  1  0  0  0  0
  9  8  2  0  0  0  0
 10 11  2  0  0  0  0
 11 12  1  0  0  0  0
 12 16  1  0  0  0  0
 13 12  2  0  0  0  0
 14  8  1  0  0  0  0
 15  9  1  0  0  0  0
 16 25  1  0  0  0  0
 17 18  1  0  0  0  0
 17 16  2  0  0  0  0
 18 19  2  0  0  0  0
 19 20  1  0  0  0  0
 20 21  1  0  0  0  0
 21 22  2  0  0  0  0
 23 22  1  0  0  0  0
 24 23  2  0  0  0  0
 25 20  2  0  0  0  0
 25 24  1  0  0  0  0
 26  4  1  0  0  0  0
 26 27  1  0  0  0  0
 28 26  1  0  0  0  0
 29 31  1  0  0  0  0
 29 26  1  0  0  0  0
 30 29  1  0  0  0  0
 32 29  1  0  0  0  0
 33 32  1  0  0  0  0
 33 42  1  0  0  0  0
 34 33  2  0  0  0  0
 35 36  2  0  0  0  0
 35 34  1  0  0  0  0
 36 41  1  0  0  0  0
 37 38  2  0  0  0  0
 37 36  1  0  0  0  0
 38 39  1  0  0  0  0
 39 47  1  0  0  0  0
 39 40  2  0  0  0  0
 40 48  1  0  0  0  0
 41 40  1  0  0  0  0
 41 32  2  0  0  0  0
 43 34  1  0  0  0  0
 44 35  1  0  0  0  0
 45 37  1  0  0  0  0
 46 38  1  0  0  0  0
 48 49  1  0  0  0  0
M  END
>  <minimizedAffinity>
-8.02876472

>  <minimizedRMSD>
2.4990046

$$$$
