
 OpenBabel03242509283D

 49 54  0  0  0  0  0  0  0  0999 V2000
   38.4610   28.1320   42.6020 C   0  0  0  0  0  0  0  0  0  0  0  0
   37.3860   27.2900   42.7580 C   0  0  0  0  0  0  0  0  0  0  0  0
   36.3080   27.9320   42.1360 C   0  0  0  0  0  0  0  0  0  0  0  0
   36.8130   29.0920   41.6630 N   0  0  0  0  0  0  0  0  0  0  0  0
   38.0720   29.2450   41.9160 N   0  0  0  0  0  0  0  0  0  0  0  0
   37.4520   26.3400   43.2740 H   0  0  0  0  0  0  0  0  0  0  0  0
   35.3350   27.4940   42.1090 H   0  0  0  0  0  0  0  0  0  0  0  0
   41.3940   26.6290   44.3130 C   0  0  0  0  0  0  0  0  0  0  0  0
   40.0880   26.7670   43.8410 C   0  0  0  0  0  0  0  0  0  0  0  0
   39.8040   27.9060   43.0880 C   0  0  0  0  0  0  0  0  0  0  0  0
   40.7700   28.8040   42.8500 N   0  0  0  0  0  0  0  0  0  0  0  0
   42.0510   28.6330   43.3350 C   0  0  0  0  0  0  0  0  0  0  0  0
   42.3330   27.5350   44.0650 N   0  0  0  0  0  0  0  0  0  0  0  0
   41.6710   25.7710   44.8990 H   0  0  0  0  0  0  0  0  0  0  0  0
   39.3480   26.0100   44.0610 H   0  0  0  0  0  0  0  0  0  0  0  0
   42.9020   29.7480   42.9340 C   0  0  0  0  0  0  0  0  0  0  0  0
   43.0230   30.8960   43.6770 C   0  0  0  0  0  3  0  0  0  0  0  0
   43.7980   31.9620   43.3550 C   0  0  0  0  0  3  0  0  0  0  0  0
   44.5480   31.9510   42.2020 C   0  0  0  0  0  3  0  0  0  0  0  0
   44.4800   30.8340   41.4030 C   0  0  0  0  0  0  0  0  0  0  0  0
   45.2270   30.8100   40.2440 C   0  0  0  0  0  3  0  0  0  0  0  0
   45.1990   29.7150   39.4050 C   0  0  0  0  0  3  0  0  0  0  0  0
   44.3810   28.6440   39.7870 C   0  0  0  0  0  3  0  0  0  0  0  0
   43.6640   28.7210   40.9430 C   0  0  0  0  0  3  0  0  0  0  0  0
   43.6720   29.7950   41.7980 C   0  0  0  0  0  0  0  0  0  0  0  0
   35.9470   29.9830   40.9700 C   0  0  0  0  0  0  0  0  0  0  0  0
   35.2870   30.4330   41.7480 H   0  0  0  0  0  0  0  0  0  0  0  0
   36.5260   30.8300   40.5390 H   0  0  0  0  0  0  0  0  0  0  0  0
   35.1300   29.3730   39.8780 C   0  0  0  0  0  0  0  0  0  0  0  0
   34.3680   30.2120   39.7370 H   0  0  0  0  0  0  0  0  0  0  0  0
   34.7060   28.4390   40.2180 H   0  0  0  0  0  0  0  0  0  0  0  0
   35.7810   29.3410   38.5420 C   0  0  0  0  0  0  0  0  0  0  0  0
   37.1120   29.4750   38.2720 C   0  0  0  0  0  0  0  0  0  0  0  0
   37.6690   29.5170   37.0260 C   0  0  0  0  0  0  0  0  0  0  0  0
   36.8530   29.4200   35.9190 C   0  0  0  0  0  0  0  0  0  0  0  0
   35.4880   29.2800   36.1330 C   0  0  0  0  0  0  0  0  0  0  0  0
   34.7330   29.1890   34.9870 C   0  0  0  0  0  0  0  0  0  0  0  0
   33.3780   29.0450   35.0940 C   0  0  0  0  0  0  0  0  0  0  0  0
   32.7970   28.9900   36.3400 C   0  0  0  0  0  0  0  0  0  0  0  0
   33.6110   29.0870   37.4390 C   0  0  0  0  0  0  0  0  0  0  0  0
   34.9570   29.2380   37.4100 C   0  0  0  0  0  0  0  0  0  0  0  0
   37.7640   29.5540   39.1340 H   0  0  0  0  0  0  0  0  0  0  0  0
   38.7290   29.6240   36.9120 H   0  0  0  0  0  0  0  0  0  0  0  0
   37.2930   29.4550   34.9320 H   0  0  0  0  0  0  0  0  0  0  0  0
   35.1680   29.2270   33.9970 H   0  0  0  0  0  0  0  0  0  0  0  0
   32.7810   28.9750   34.1890 H   0  0  0  0  0  0  0  0  0  0  0  0
   31.7250   28.8750   36.4200 H   0  0  0  0  0  0  0  0  0  0  0  0
   32.9670   29.0060   38.6640 O   0  0  0  0  0  0  0  0  0  0  0  0
   32.1180   29.5530   38.8160 H   0  0  0  0  0  0  0  0  0  0  0  0
  1  2  1  0  0  0  0
  1 10  1  0  0  0  0
  2  6  1  0  0  0  0
  3  2  2  0  0  0  0
  4  5  1  0  0  0  0
  4  3  1  0  0  0  0
  5  1  2  0  0  0  0
  7  3  1  0  0  0  0
  8 14  1  0  0  0  0
  9 15  1  0  0  0  0
  9  8  2  0  0  0  0
 10  9  1  0  0  0  0
 11 10  2  0  0  0  0
 11 12  1  0  0  0  0
 12 13  2  0  0  0  0
 13  8  1  0  0  0  0
 16 12  1  0  0  0  0
 16 17  1  0  0  0  0
 18 17  2  0  0  0  0
 19 18  1  0  0  0  0
 20 25  1  0  0  0  0
 20 19  2  0  0  0  0
 21 20  1  0  0  0  0
 22 23  1  0  0  0  0
 22 21  2  0  0  0  0
 23 24  2  0  0  0  0
 24 25  1  0  0  0  0
 25 16  2  0  0  0  0
 26  4  1  0  0  0  0
 26 27  1  0  0  0  0
 28 26  1  0  0  0  0
 29 31  1  0  0  0  0
 29 26  1  0  0  0  0
 30 29  1  0  0  0  0
 32 29  1  0  0  0  0
 33 32  1  0  0  0  0
 33 42  1  0  0  0  0
 34 33  2  0  0  0  0
 35 36  2  0  0  0  0
 35 34  1  0  0  0  0
 36 41  1  0  0  0  0
 37 38  2  0  0  0  0
 37 36  1  0  0  0  0
 38 39  1  0  0  0  0
 39 47  1  0  0  0  0
 39 40  2  0  0  0  0
 40 48  1  0  0  0  0
 41 40  1  0  0  0  0
 41 32  2  0  0  0  0
 43 34  1  0  0  0  0
 44 35  1  0  0  0  0
 45 37  1  0  0  0  0
 46 38  1  0  0  0  0
 48 49  1  0  0  0  0
M  END
>  <minimizedAffinity>
-6.31946373

>  <minimizedRMSD>
0.901040673

$$$$
