
 OpenBabel03242508413D

 32 35  0  0  1  0  0  0  0  0999 V2000
   37.9290   30.4250   39.6340 C   0  0  2  0  0  0  0  0  0  0  0  0
   38.9680   31.3650   39.0900 C   0  0  0  0  0  0  0  0  0  0  0  0
   39.9490   31.4970   40.2410 C   0  0  0  0  0  0  0  0  0  0  0  0
   39.7310   30.3020   41.1000 C   0  0  0  0  0  0  0  0  0  0  0  0
   38.7330   29.4110   40.3500 C   0  0  1  0  0  0  0  0  0  0  0  0
   37.2780   31.0360   40.3010 H   0  0  0  0  0  0  0  0  0  0  0  0
   39.4480   30.9860   38.1750 H   0  0  0  0  0  0  0  0  0  0  0  0
   38.4990   32.3770   38.9320 H   0  0  0  0  0  0  0  0  0  0  0  0
   39.7700   32.4530   40.8060 H   0  0  0  0  0  0  0  0  0  0  0  0
   40.9670   31.5230   39.7860 H   0  0  0  0  0  0  0  0  0  0  0  0
   39.4360   30.4850   42.1300 H   0  0  0  0  0  0  0  0  0  0  0  0
   40.7220   29.7570   41.1720 H   0  0  0  0  0  0  0  0  0  0  0  0
   39.2740   28.8360   39.5620 H   0  0  0  0  0  0  0  0  0  0  0  0
   38.1290   28.6090   41.3980 C   0  0  0  0  0  0  0  0  0  0  0  0
   37.9450   29.2750   42.5890 C   0  0  0  0  0  0  0  0  0  0  0  0
   37.3640   28.6280   43.6870 C   0  0  0  0  0  0  0  0  0  0  0  0
   36.9560   27.3000   43.6110 C   0  0  0  0  0  0  0  0  0  0  0  0
   37.1300   26.6150   42.4290 C   0  0  0  0  0  0  0  0  0  0  0  0
   36.7490   25.3070   42.2870 C   0  0  0  0  0  0  0  0  0  0  0  0
   36.9280   24.6350   41.0980 C   0  0  0  0  0  0  0  0  0  0  0  0
   37.5070   25.3190   40.0420 C   0  0  0  0  0  0  0  0  0  0  0  0
   37.8880   26.6360   40.1940 C   0  0  0  0  0  0  0  0  0  0  0  0
   37.7050   27.2920   41.3780 C   0  0  0  0  0  0  0  0  0  0  0  0
   37.4370   29.5020   37.2800 C   0  0  0  0  0  0  0  0  0  0  0  0
   37.0590   29.8680   38.6010 C   0  0  0  0  0  0  0  0  0  0  0  0
   35.7400   29.6900   38.9930 C   0  0  0  0  0  0  0  0  0  0  0  0
   34.8540   29.1620   38.0770 N   0  0  0  0  0  0  0  0  0  0  0  0
   35.2540   28.8210   36.8110 C   0  0  0  0  0  0  0  0  0  0  0  0
   36.5600   29.0020   36.4320 N   0  0  0  0  0  0  0  0  0  0  0  0
   38.4910   29.7080   37.1490 H   0  0  0  0  0  0  0  0  0  0  0  0
   35.1910   29.8870   39.8840 H   0  0  0  0  0  0  0  0  0  0  0  0
   34.5860   28.4130   36.0870 H   0  0  0  0  0  0  0  0  0  0  0  0
  1  6  1  1  0  0  0
  1  5  1  0  0  0  0
  2  1  1  0  0  0  0
  2  3  1  0  0  0  0
  3  9  1  0  0  0  0
  3  4  1  0  0  0  0
  4 12  1  0  0  0  0
  4 11  1  0  0  0  0
  5 13  1  6  0  0  0
  5  4  1  0  0  0  0
  5 14  1  0  0  0  0
  7  2  1  0  0  0  0
  8  2  1  0  0  0  0
 10  3  1  0  0  0  0
 14 15  1  0  0  0  0
 15 16  2  0  0  0  0
 17 16  1  0  0  0  0
 18 17  2  0  0  0  0
 19 18  1  0  0  0  0
 20 19  2  0  0  0  0
 21 22  2  0  0  0  0
 21 20  1  0  0  0  0
 22 23  1  0  0  0  0
 23 14  2  0  0  0  0
 23 18  1  0  0  0  0
 24 25  1  0  0  0  0
 25 26  2  0  0  0  0
 25  1  1  0  0  0  0
 26 31  1  0  0  0  0
 27 26  1  0  0  0  0
 28 27  2  0  0  0  0
 29 28  1  0  0  0  0
 29 24  2  0  0  0  0
 30 24  1  0  0  0  0
 32 28  1  0  0  0  0
M  END
>  <minimizedAffinity>
-5.38781357

>  <minimizedRMSD>
4.52923203

$$$$
