
     RDKit          3D

 29 31  0  0  0  0  0  0  0  0999 V2000
   37.9547   28.8852   43.3625 C   0  0  0  0  0  0  0  0  0  0  0  0
   38.0843   27.4702   43.3125 C   0  0  0  0  0  0  0  0  0  0  0  0
   37.4541   26.8172   42.2662 C   0  0  0  0  0  0  0  0  0  0  0  0
   36.7696   27.5941   41.3836 N   0  0  0  0  0  0  0  0  0  0  0  0
   36.6508   28.9201   41.4342 C   0  0  0  0  0  0  0  0  0  0  0  0
   37.2582   29.5317   42.4403 N   0  0  0  0  0  0  0  0  0  0  0  0
   37.5325   25.3358   42.1400 C   0  0  0  0  0  0  0  0  0  0  0  0
   37.6324   25.0460   40.8069 F   0  0  0  0  0  0  0  0  0  0  0  0
   38.6330   24.8360   42.7916 F   0  0  0  0  0  0  0  0  0  0  0  0
   36.3764   24.7186   42.6351 F   0  0  0  0  0  0  0  0  0  0  0  0
   38.4194   29.4528   44.1488 H   0  0  0  0  0  0  0  0  0  0  0  0
   38.6460   26.9479   44.0559 H   0  0  0  0  0  0  0  0  0  0  0  0
   35.8451   29.4226   40.3290 C   0  0  0  0  0  0  0  0  0  0  0  0
   34.5344   29.0642   40.1461 C   0  0  0  0  0  0  0  0  0  0  0  0
   33.7354   29.5118   39.1178 C   0  0  0  0  0  0  0  0  0  0  0  0
   34.2358   30.3763   38.1858 C   0  0  0  0  0  0  0  0  0  0  0  0
   35.5473   30.7766   38.3110 C   0  0  0  0  0  0  0  0  0  0  0  0
   36.0403   31.6466   37.3645 C   0  0  0  0  0  0  0  0  0  0  0  0
   37.3454   32.0849   37.4306 C   0  0  0  0  0  0  0  0  0  0  0  0
   38.1349   31.6137   38.4858 C   0  0  0  0  0  0  0  0  0  0  0  0
   37.5794   30.7453   39.3982 C   0  0  0  0  0  0  0  0  0  0  0  0
   36.2883   30.2912   39.3615 C   0  0  0  0  0  0  0  0  0  0  0  0
   34.0330   28.3728   40.8395 H   0  0  0  0  0  0  0  0  0  0  0  0
   32.7163   29.1949   39.0284 H   0  0  0  0  0  0  0  0  0  0  0  0
   33.5912   30.7137   37.3888 H   0  0  0  0  0  0  0  0  0  0  0  0
   35.3953   31.9861   36.5649 H   0  0  0  0  0  0  0  0  0  0  0  0
   37.6636   32.7656   36.6552 H   0  0  0  0  0  0  0  0  0  0  0  0
   39.1525   31.9778   38.5064 H   0  0  0  0  0  0  0  0  0  0  0  0
   38.2784   30.4603   40.1468 H   0  0  0  0  0  0  0  0  0  0  0  0
  2  1  2  0
  3  2  1  0
  4  5  1  0
  4  3  2  0
  5  6  2  0
  6  1  1  0
  7  3  1  0
  7 10  1  0
  7  9  1  0
  8  7  1  0
  1 11  1  0
  2 12  1  0
 13 14  2  0
 14 15  1  0
 15 16  2  0
 16 17  1  0
 17 18  2  0
 18 19  1  0
 19 20  2  0
 20 21  1  0
 21 22  2  0
 22 13  1  0
 22 17  1  0
 14 23  1  0
 15 24  1  0
 16 25  1  0
 18 26  1  0
 19 27  1  0
 20 28  1  0
 21 29  1  0
  5 13  1  0
M  ISO  2  11  14  12  14
M  END
>  <DihAtoms>  (1) 
3,4,12,13

>  <DihDeg>  (1) 
1.3277395588830718

$$$$
