
 OpenBabel03242505113D

 32 35  0  0  1  0  0  0  0  0999 V2000
   38.3850   30.0190   39.0100 C   0  0  1  0  0  0  0  0  0  0  0  0
   37.0040   29.4820   38.7700 C   0  0  0  0  0  0  0  0  0  0  0  0
   36.7130   30.1070   37.4080 C   0  0  0  0  0  0  0  0  0  0  0  0
   37.3930   31.4780   37.4980 C   0  0  0  0  0  0  0  0  0  0  0  0
   38.1870   31.4830   38.8000 C   0  0  2  0  0  0  0  0  0  0  0  0
   39.0670   29.6600   38.2430 H   0  0  0  0  0  0  0  0  0  0  0  0
   37.0510   28.3870   38.6020 H   0  0  0  0  0  0  0  0  0  0  0  0
   36.2710   29.7820   39.5180 H   0  0  0  0  0  0  0  0  0  0  0  0
   37.1460   29.4820   36.6020 H   0  0  0  0  0  0  0  0  0  0  0  0
   35.6240   30.2690   37.3300 H   0  0  0  0  0  0  0  0  0  0  0  0
   38.0110   31.5670   36.6060 H   0  0  0  0  0  0  0  0  0  0  0  0
   36.6400   32.2920   37.4840 H   0  0  0  0  0  0  0  0  0  0  0  0
   37.5270   31.9460   39.5510 H   0  0  0  0  0  0  0  0  0  0  0  0
   39.4400   32.1690   38.5440 C   0  0  0  0  0  0  0  0  0  0  0  0
   40.4650   31.8090   37.7030 C   0  0  0  0  0  0  0  0  0  0  0  0
   41.6420   32.4970   37.5040 C   0  0  0  0  0  0  0  0  0  0  0  0
   41.8500   33.6650   38.2000 C   0  0  0  0  0  0  0  0  0  0  0  0
   40.8660   34.0880   39.0620 C   0  0  0  0  0  0  0  0  0  0  0  0
   41.1420   35.2670   39.7220 C   0  0  0  0  0  0  0  0  0  0  0  0
   40.2160   35.7750   40.6050 C   0  0  0  0  0  0  0  0  0  0  0  0
   39.0510   35.0960   40.8010 C   0  0  0  0  0  0  0  0  0  0  0  0
   38.8280   33.9250   40.1160 C   0  0  0  0  0  0  0  0  0  0  0  0
   39.7010   33.3530   39.2200 C   0  0  0  0  0  0  0  0  0  0  0  0
   38.7510   29.8560   42.6780 C   0  0  0  0  0  0  0  0  0  0  0  0
   39.8160   28.9070   42.8260 C   0  0  0  0  0  0  0  0  0  0  0  0
   40.3870   28.3530   41.6680 C   0  0  0  0  0  0  0  0  0  0  0  0
   39.9100   28.7350   40.4720 N   0  0  0  0  0  0  0  0  0  0  0  0
   38.8970   29.6380   40.3520 C   0  0  0  0  0  0  0  0  0  0  0  0
   38.3310   30.1880   41.4490 N   0  0  0  0  0  0  0  0  0  0  0  0
   38.3170   30.2790   43.5730 H   0  0  0  0  0  0  0  0  0  0  0  0
   40.1810   28.6170   43.8040 H   0  0  0  0  0  0  0  0  0  0  0  0
   41.1880   27.6400   41.8120 H   0  0  0  0  0  0  0  0  0  0  0  0
  1  6  1  6  0  0  0
  1 28  1  0  0  0  0
  2  1  1  0  0  0  0
  2  8  1  0  0  0  0
  3  4  1  0  0  0  0
  3  2  1  0  0  0  0
  4  5  1  0  0  0  0
  5  1  1  0  0  0  0
  5 13  1  1  0  0  0
  7  2  1  0  0  0  0
  9  3  1  0  0  0  0
 10  3  1  0  0  0  0
 11  4  1  0  0  0  0
 12  4  1  0  0  0  0
 14  5  1  0  0  0  0
 14 23  1  0  0  0  0
 15 14  2  0  0  0  0
 16 15  1  0  0  0  0
 16 17  2  0  0  0  0
 17 18  1  0  0  0  0
 18 23  2  0  0  0  0
 18 19  1  0  0  0  0
 19 20  2  0  0  0  0
 20 21  1  0  0  0  0
 22 21  2  0  0  0  0
 23 22  1  0  0  0  0
 24 25  1  0  0  0  0
 24 30  1  0  0  0  0
 25 31  1  0  0  0  0
 26 32  1  0  0  0  0
 26 25  2  0  0  0  0
 27 26  1  0  0  0  0
 28 27  2  0  0  0  0
 28 29  1  0  0  0  0
 29 24  2  0  0  0  0
M  END
>  <minimizedAffinity>
-5.42041588

>  <minimizedRMSD>
5.91308641

$$$$
