
 OpenBabel03242508313D

 30 33  0  0  0  0  0  0  0  0999 V2000
   38.6360   28.4450   43.2430 C   0  0  0  0  0  0  0  0  0  0  0  0
   38.3070   27.2310   42.6120 C   0  0  0  0  0  0  0  0  0  0  0  0
   37.3420   27.2350   41.5900 C   0  0  0  0  0  0  0  0  0  0  0  0
   36.7780   28.4230   41.2700 N   0  0  0  0  0  0  0  0  0  0  0  0
   37.1100   29.5680   41.8890 C   0  0  0  0  0  0  0  0  0  0  0  0
   38.0240   29.5690   42.8580 N   0  0  0  0  0  0  0  0  0  0  0  0
   39.3700   28.4680   44.0250 H   0  0  0  0  0  0  0  0  0  0  0  0
   38.7800   26.3310   42.9020 H   0  0  0  0  0  0  0  0  0  0  0  0
   36.9390   26.0250   40.8810 C   0  0  0  0  0  0  0  0  0  0  0  0
   36.5260   26.1970   39.5760 C   0  0  0  0  0  0  0  0  0  0  0  0
   36.1260   25.1070   38.8270 C   0  0  0  0  0  0  0  0  0  0  0  0
   35.7960   25.1720   37.8120 H   0  0  0  0  0  0  0  0  0  0  0  0
   36.1550   23.8640   39.4220 C   0  0  0  0  0  0  0  0  0  0  0  0
   36.5660   23.6670   40.7350 C   0  0  0  0  0  0  0  0  0  0  0  0
   36.5910   22.6890   41.2110 H   0  0  0  0  0  0  0  0  0  0  0  0
   36.9620   24.7920   41.4570 C   0  0  0  0  0  0  0  0  0  0  0  0
   36.4020   30.6380   41.3900 O   0  0  0  0  0  0  0  0  0  0  0  0
   37.0020   31.5200   40.5140 C   0  0  0  0  0  0  0  0  0  0  0  0
   36.8410   31.7020   39.1800 N   0  0  0  0  0  0  0  0  0  0  0  0
   37.6350   32.6670   38.7780 O   0  0  0  0  0  0  0  0  0  0  0  0
   38.2880   33.0940   39.8280 C   0  0  0  0  0  0  0  0  0  0  0  0
   37.9180   32.4050   40.9170 N   0  0  0  0  0  0  0  0  0  0  0  0
   39.2760   34.1720   39.7930 C   0  0  0  0  0  0  0  0  0  0  0  0
   39.0610   35.4920   40.1980 C   0  0  0  0  0  0  0  0  0  0  0  0
   40.2200   36.2170   40.0200 C   0  0  0  0  0  0  0  0  0  0  0  0
   41.1140   35.2970   39.5050 C   0  0  0  0  0  0  0  0  0  0  0  0
   40.5080   34.1490   39.4020 O   0  0  0  0  0  0  0  0  0  0  0  0
   38.1070   35.8380   40.5850 H   0  0  0  0  0  0  0  0  0  0  0  0
   40.3410   37.2790   40.2530 H   0  0  0  0  0  0  0  0  0  0  0  0
   42.1390   35.5480   39.2470 H   0  0  0  0  0  0  0  0  0  0  0  0
  1  7  1  0  0  0  0
  2  8  1  0  0  0  0
  2  1  2  0  0  0  0
  3  2  1  0  0  0  0
  4  3  2  0  0  0  0
  4  5  1  0  0  0  0
  5  6  2  0  0  0  0
  6  1  1  0  0  0  0
  9 16  1  0  0  0  0
  9  3  1  0  0  0  0
 10  9  2  0  0  0  0
 11 13  2  0  0  0  0
 11 10  1  0  0  0  0
 12 11  1  0  0  0  0
 13 14  1  0  0  0  0
 14 15  1  0  0  0  0
 14 16  2  0  0  0  0
 17  5  1  0  0  0  0
 18 22  1  0  0  0  0
 18 17  1  0  0  0  0
 19 18  2  0  0  0  0
 20 19  1  0  0  0  0
 20 21  1  0  0  0  0
 21 22  2  0  0  0  0
 23 21  1  0  0  0  0
 23 24  2  0  0  0  0
 24 28  1  0  0  0  0
 25 24  1  0  0  0  0
 25 29  1  0  0  0  0
 26 25  2  0  0  0  0
 27 26  1  0  0  0  0
 27 23  1  0  0  0  0
 30 26  1  0  0  0  0
M  END
>  <minimizedAffinity>
-6.30397511

>  <minimizedRMSD>
0.831076026

$$$$
