
     RDKit          3D

 23 24  0  0  0  0  0  0  0  0999 V2000
   37.9690   28.8857   43.3714 C   0  0  0  0  0  0  0  0  0  0  0  0
   38.0887   27.4750   43.3108 C   0  0  0  0  0  0  0  0  0  0  0  0
   37.4408   26.8157   42.2503 C   0  0  0  0  0  0  0  0  0  0  0  0
   36.7373   27.5819   41.3468 N   0  0  0  0  0  0  0  0  0  0  0  0
   36.6500   28.9143   41.4419 C   0  0  0  0  0  0  0  0  0  0  0  0
   37.2703   29.5422   42.4567 N   0  0  0  0  0  0  0  0  0  0  0  0
   37.5394   25.3364   42.1492 C   0  0  0  0  0  0  0  0  0  0  0  0
   37.6480   25.0517   40.8153 F   0  0  0  0  0  0  0  0  0  0  0  0
   38.6214   24.8339   42.7942 F   0  0  0  0  0  0  0  0  0  0  0  0
   36.3811   24.7181   42.6363 F   0  0  0  0  0  0  0  0  0  0  0  0
   38.4515   29.4400   44.1717 H   0  0  0  0  0  0  0  0  0  0  0  0
   38.6605   26.9430   44.0602 H   0  0  0  0  0  0  0  0  0  0  0  0
   35.8964   29.6968   40.4676 C   0  0  0  0  0  0  0  0  0  0  0  0
   35.5150   29.1499   39.2751 C   0  0  0  0  0  0  0  0  0  0  0  0
   34.7997   29.8733   38.3360 C   0  0  0  0  0  0  0  0  0  0  0  0
   34.5370   29.3641   37.4162 H   0  0  0  0  0  0  0  0  0  0  0  0
   34.4601   31.1769   38.6022 C   0  0  0  0  0  0  0  0  0  0  0  0
   34.8416   31.7446   39.8106 C   0  0  0  0  0  0  0  0  0  0  0  0
   34.5541   32.7771   39.9834 H   0  0  0  0  0  0  0  0  0  0  0  0
   35.5565   31.0062   40.7378 C   0  0  0  0  0  0  0  0  0  0  0  0
   35.7809   28.1362   39.0716 H   0  0  0  0  0  0  0  0  0  0  0  0
   33.8928   31.7026   37.8219 H   0  0  0  0  0  0  0  0  0  0  0  0
   35.8298   31.4906   41.6609 H   0  0  0  0  0  0  0  0  0  0  0  0
  2  1  2  0
  3  2  1  0
  4  5  1  0
  4  3  2  0
  5  6  2  0
  6  1  1  0
  7  3  1  0
  7 10  1  0
  7  9  1  0
  8  7  1  0
  1 11  1  0
  2 12  1  0
 13 14  2  0
 14 15  1  0
 15 16  1  0
 15 17  2  0
 17 18  1  0
 18 19  1  0
 18 20  2  0
 20 13  1  0
 14 21  1  0
 17 22  1  0
 20 23  1  0
  5 13  1  0
M  ISO  4  11  14  12  14  16  16  19  16
M  END
>  <DihAtoms>  (1) 
3,4,12,13

>  <DihDeg>  (1) 
-179.9992939922386

$$$$
