
 OpenBabel03242501013D

 29 31  0  0  1  0  0  0  0  0999 V2000
   36.5900   30.7020   41.2530 C   0  0  0  0  0  0  0  0  0  0  0  0
   37.4770   29.8530   41.9290 C   0  0  0  0  0  0  0  0  0  0  0  0
   37.3170   28.4590   41.8050 C   0  0  0  0  0  0  0  0  0  0  0  0
   36.3000   28.0370   41.0280 N   0  0  0  0  0  0  0  0  0  0  0  0
   35.4660   28.8730   40.3920 C   0  0  0  0  0  0  0  0  0  0  0  0
   35.6050   30.2040   40.5010 N   0  0  0  0  0  0  0  0  0  0  0  0
   38.1610   27.5090   42.4470 N   0  0  0  0  0  0  0  0  0  0  0  0
   38.4030   27.3370   43.8490 C   0  0  0  0  0  0  0  0  0  0  0  0
   39.7370   26.6510   43.8990 C   0  0  0  0  0  0  0  0  0  0  0  0
   39.7220   25.7760   42.6860 C   0  0  0  0  0  0  0  0  0  0  0  0
   38.9150   26.5480   41.6770 C   0  0  1  0  0  0  0  0  0  0  0  0
   36.7950   31.7520   41.4110 H   0  0  0  0  0  0  0  0  0  0  0  0
   38.2930   30.1830   42.5520 H   0  0  0  0  0  0  0  0  0  0  0  0
   34.6480   28.5240   39.7660 H   0  0  0  0  0  0  0  0  0  0  0  0
   37.6220   26.8110   44.4070 H   0  0  0  0  0  0  0  0  0  0  0  0
   38.5720   28.3690   44.2640 H   0  0  0  0  0  0  0  0  0  0  0  0
   39.7110   25.9740   44.7910 H   0  0  0  0  0  0  0  0  0  0  0  0
   40.5800   27.3610   43.9270 H   0  0  0  0  0  0  0  0  0  0  0  0
   40.7470   25.6230   42.2840 H   0  0  0  0  0  0  0  0  0  0  0  0
   39.2660   24.8060   42.8800 H   0  0  0  0  0  0  0  0  0  0  0  0
   39.5920   27.0330   40.9550 H   0  0  0  0  0  0  0  0  0  0  0  0
   37.9730   25.6210   41.0030 C   0  0  0  0  0  0  0  0  0  0  0  0
   37.0850   24.7660   41.6640 C   0  0  0  0  0  0  0  0  0  0  0  0
   36.2420   23.9360   40.9520 C   0  0  0  0  0  0  0  0  0  0  0  0
   35.5920   23.3120   41.5380 H   0  0  0  0  0  0  0  0  0  0  0  0
   36.2340   23.9070   39.5690 C   0  0  0  0  0  0  0  0  0  0  0  0
   37.1030   24.7430   38.9080 C   0  0  0  0  0  0  0  0  0  0  0  0
   37.0750   24.7000   37.8280 H   0  0  0  0  0  0  0  0  0  0  0  0
   37.9390   25.5680   39.6280 C   0  0  0  0  0  0  0  0  0  0  0  0
  1 12  1  0  0  0  0
  1  2  1  0  0  0  0
  2 13  1  0  0  0  0
  3  2  2  0  0  0  0
  3  7  1  0  0  0  0
  4  3  1  0  0  0  0
  5  6  1  0  0  0  0
  5  4  2  0  0  0  0
  6  1  2  0  0  0  0
  7  8  1  0  0  0  0
  8  9  1  0  0  0  0
  8 16  1  0  0  0  0
  8 15  1  0  0  0  0
  9 18  1  0  0  0  0
  9 17  1  0  0  0  0
 10 20  1  0  0  0  0
 10  9  1  0  0  0  0
 11 21  1  6  0  0  0
 11  7  1  0  0  0  0
 11 10  1  0  0  0  0
 14  5  1  0  0  0  0
 19 10  1  0  0  0  0
 22 23  1  0  0  0  0
 22 11  1  0  0  0  0
 24 25  1  0  0  0  0
 24 23  2  0  0  0  0
 26 24  1  0  0  0  0
 27 26  2  0  0  0  0
 27 29  1  0  0  0  0
 28 27  1  0  0  0  0
 29 22  2  0  0  0  0
M  END
>  <minimizedAffinity>
-5.01615381

>  <minimizedRMSD>
0.613977253

$$$$
