REMARK  Name = 
REMARK  2 active torsions:
REMARK  status: ('A' for Active; 'I' for Inactive)
REMARK    1  A    between atoms: C_3  and  C_7
REMARK    2  A    between atoms: C_5  and  C_13
REMARK                            x       y       z     vdW  Elec       q    Type
REMARK                         _______ _______ _______ _____ _____    ______ ____
ROOT
ATOM      1  C   UNL     1      37.969  28.886  43.371  0.00  0.00    +0.000 A 
ATOM      2  C   UNL     1      38.089  27.475  43.311  0.00  0.00    +0.000 A 
ATOM      3  C   UNL     1      37.441  26.816  42.250  0.00  0.00    +0.000 A 
ATOM      4  N   UNL     1      36.737  27.582  41.347  0.00  0.00    +0.000 NA
ATOM      5  C   UNL     1      36.650  28.914  41.442  0.00  0.00    +0.000 A 
ATOM      6  N   UNL     1      37.270  29.542  42.457  0.00  0.00    +0.000 NA
ATOM      7  H   UNL     1      38.452  29.440  44.172  0.00  0.00    +0.000 HD
ATOM      8  H   UNL     1      38.660  26.943  44.060  0.00  0.00    +0.000 HD
ENDROOT
BRANCH   5   9
ATOM      9  C   UNL     1      35.896  29.697  40.468  0.00  0.00    +0.000 A 
ATOM     10  C   UNL     1      35.515  29.150  39.275  0.00  0.00    +0.000 A 
ATOM     11  C   UNL     1      34.800  29.873  38.336  0.00  0.00    +0.000 A 
ATOM     12  H   UNL     1      34.537  29.364  37.416  0.00  0.00    +0.000 HD
ATOM     13  C   UNL     1      34.460  31.177  38.602  0.00  0.00    +0.000 A 
ATOM     14  C   UNL     1      34.842  31.745  39.811  0.00  0.00    +0.000 A 
ATOM     15  H   UNL     1      34.554  32.777  39.983  0.00  0.00    +0.000 HD
ATOM     16  C   UNL     1      35.556  31.006  40.738  0.00  0.00    +0.000 A 
ENDBRANCH   5   9
BRANCH   3  17
ATOM     17  C   UNL     1      37.539  25.336  42.149  0.00  0.00    +0.000 C 
ATOM     18  F   UNL     1      37.648  25.052  40.815  0.00  0.00    +0.000 F 
ATOM     19  F   UNL     1      38.621  24.834  42.794  0.00  0.00    +0.000 F 
ATOM     20  F   UNL     1      36.381  24.718  42.636  0.00  0.00    +0.000 F 
ENDBRANCH   3  17
TORSDOF 2
