
 OpenBabel03242509283D

 47 51  0  0  0  0  0  0  0  0999 V2000
   36.1490   30.0760   41.0970 C   0  0  0  0  0  0  0  0  0  0  0  0
   35.5870   30.6280   41.8820 H   0  0  0  0  0  0  0  0  0  0  0  0
   36.7900   30.8520   40.6190 H   0  0  0  0  0  0  0  0  0  0  0  0
   38.5490   28.0710   42.6960 C   0  0  0  0  0  0  0  0  0  0  0  0
   37.4360   27.2670   42.7900 C   0  0  0  0  0  0  0  0  0  0  0  0
   36.3930   27.9610   42.1780 C   0  0  0  0  0  0  0  0  0  0  0  0
   36.9500   29.1130   41.7700 N   0  0  0  0  0  0  0  0  0  0  0  0
   38.2070   29.2100   42.0560 N   0  0  0  0  0  0  0  0  0  0  0  0
   37.4260   26.2960   43.2560 H   0  0  0  0  0  0  0  0  0  0  0  0
   35.3870   27.5780   42.0970 H   0  0  0  0  0  0  0  0  0  0  0  0
   41.4590   26.2540   44.1480 C   0  0  0  0  0  0  0  0  0  0  0  0
   40.1620   26.4860   43.6790 C   0  0  0  0  0  0  0  0  0  0  0  0
   39.8760   27.7720   43.1930 C   0  0  0  0  0  0  0  0  0  0  0  0
   40.8390   28.7380   43.1900 N   0  0  0  0  0  0  0  0  0  0  0  0
   42.0840   28.4330   43.6660 C   0  0  0  0  0  0  0  0  0  0  0  0
   42.3890   27.2110   44.1370 N   0  0  0  0  0  0  0  0  0  0  0  0
   41.6970   25.2650   44.5260 H   0  0  0  0  0  0  0  0  0  0  0  0
   39.4000   25.7170   43.6820 H   0  0  0  0  0  0  0  0  0  0  0  0
   43.0890   29.5080   43.6420 C   0  0  0  0  0  0  0  0  0  0  0  0
   42.6740   30.7880   43.3400 C   0  0  0  0  0  3  0  0  0  0  0  0
   43.5950   31.8360   43.3060 C   0  0  0  0  0  0  0  0  0  0  0  0
   43.3310   32.8500   43.0780 H   0  0  0  0  0  0  0  0  0  0  0  0
   44.8920   31.4690   43.5920 C   0  0  0  0  0  3  0  0  0  0  0  0
   45.3590   30.2100   43.8990 C   0  0  0  0  0  0  0  0  0  0  0  0
   46.4070   30.0540   44.1050 H   0  0  0  0  0  0  0  0  0  0  0  0
   44.3960   29.1940   43.9200 C   0  0  0  0  0  3  0  0  0  0  0  0
   35.2470   29.5320   40.0310 C   0  0  0  0  0  0  0  0  0  0  0  0
   34.7510   28.6460   40.3930 H   0  0  0  0  0  0  0  0  0  0  0  0
   34.5670   30.4400   39.9030 H   0  0  0  0  0  0  0  0  0  0  0  0
   35.8710   29.4300   38.6870 C   0  0  0  0  0  0  0  0  0  0  0  0
   37.1900   29.5620   38.3680 C   0  0  0  0  0  0  0  0  0  0  0  0
   37.7200   29.5420   37.1170 C   0  0  0  0  0  0  0  0  0  0  0  0
   36.8770   29.3770   36.0360 C   0  0  0  0  0  0  0  0  0  0  0  0
   35.5220   29.2350   36.2900 C   0  0  0  0  0  0  0  0  0  0  0  0
   34.7450   29.0770   35.1680 C   0  0  0  0  0  0  0  0  0  0  0  0
   33.3890   28.9260   35.3100 C   0  0  0  0  0  0  0  0  0  0  0  0
   32.8420   28.9340   36.5950 C   0  0  0  0  0  0  0  0  0  0  0  0
   33.6820   29.0960   37.6510 C   0  0  0  0  0  0  0  0  0  0  0  0
   35.0240   29.2580   37.5820 C   0  0  0  0  0  0  0  0  0  0  0  0
   37.8650   29.6940   39.2200 H   0  0  0  0  0  0  0  0  0  0  0  0
   38.7890   29.6560   37.0050 H   0  0  0  0  0  0  0  0  0  0  0  0
   37.3020   29.3650   35.0610 H   0  0  0  0  0  0  0  0  0  0  0  0
   35.1510   29.0660   34.1640 H   0  0  0  0  0  0  0  0  0  0  0  0
   32.7570   28.8020   34.4410 H   0  0  0  0  0  0  0  0  0  0  0  0
   31.7780   28.8100   36.6830 H   0  0  0  0  0  0  0  0  0  0  0  0
   33.0620   29.0760   38.8900 O   0  0  0  0  0  0  0  0  0  0  0  0
   32.4400   28.2830   39.1090 H   0  0  0  0  0  0  0  0  0  0  0  0
  1  7  1  0  0  0  0
  1  2  1  0  0  0  0
  3  1  1  0  0  0  0
  4  5  1  0  0  0  0
  4 13  1  0  0  0  0
  5  9  1  0  0  0  0
  6  5  2  0  0  0  0
  7  8  1  0  0  0  0
  7  6  1  0  0  0  0
  8  4  2  0  0  0  0
 10  6  1  0  0  0  0
 11 17  1  0  0  0  0
 12 18  1  0  0  0  0
 12 11  2  0  0  0  0
 13 12  1  0  0  0  0
 14 13  2  0  0  0  0
 14 15  1  0  0  0  0
 15 16  2  0  0  0  0
 16 11  1  0  0  0  0
 19 15  1  0  0  0  0
 19 26  1  0  0  0  0
 20 19  2  0  0  0  0
 21 20  1  0  0  0  0
 21 23  2  0  0  0  0
 22 21  1  0  0  0  0
 23 24  1  0  0  0  0
 24 26  2  0  0  0  0
 24 25  1  0  0  0  0
 27 28  1  0  0  0  0
 27  1  1  0  0  0  0
 29 27  1  0  0  0  0
 30 27  1  0  0  0  0
 31 30  1  0  0  0  0
 31 40  1  0  0  0  0
 32 31  2  0  0  0  0
 33 34  2  0  0  0  0
 33 32  1  0  0  0  0
 34 39  1  0  0  0  0
 35 36  2  0  0  0  0
 35 34  1  0  0  0  0
 36 37  1  0  0  0  0
 37 45  1  0  0  0  0
 37 38  2  0  0  0  0
 38 46  1  0  0  0  0
 39 38  1  0  0  0  0
 39 30  2  0  0  0  0
 41 32  1  0  0  0  0
 42 33  1  0  0  0  0
 43 35  1  0  0  0  0
 44 36  1  0  0  0  0
 46 47  1  0  0  0  0
M  END
>  <minimizedAffinity>
-6.17774916

>  <minimizedRMSD>
0.472386748

$$$$
