
 OpenBabel03242508463D

 35 38  0  0  1  0  0  0  0  0999 V2000
   37.9840   27.3860   42.7630 C   0  0  2  0  0  0  0  0  0  0  0  0
   39.0900   27.6780   43.6830 C   0  0  0  0  0  0  0  0  0  0  0  0
   39.8170   26.3550   43.8560 C   0  0  0  0  0  0  0  0  0  0  0  0
   39.3100   25.4640   42.7740 C   0  0  0  0  0  0  0  0  0  0  0  0
   38.5690   26.3770   41.7930 C   0  0  1  0  0  0  0  0  0  0  0  0
   37.1850   26.8080   43.3000 H   0  0  0  0  0  0  0  0  0  0  0  0
   38.7520   27.9960   44.7050 H   0  0  0  0  0  0  0  0  0  0  0  0
   39.8450   28.3910   43.3560 H   0  0  0  0  0  0  0  0  0  0  0  0
   40.9140   26.4390   43.7140 H   0  0  0  0  0  0  0  0  0  0  0  0
   39.6900   25.9350   44.8840 H   0  0  0  0  0  0  0  0  0  0  0  0
   38.6120   24.7510   43.2580 H   0  0  0  0  0  0  0  0  0  0  0  0
   40.0800   24.8650   42.2630 H   0  0  0  0  0  0  0  0  0  0  0  0
   39.2250   26.8230   41.0560 H   0  0  0  0  0  0  0  0  0  0  0  0
   38.0350   29.7850   41.9180 C   0  0  0  0  0  0  0  0  0  0  0  0
   37.3970   28.5240   42.0780 C   0  0  0  0  0  0  0  0  0  0  0  0
   36.1320   28.3610   41.5430 C   0  0  0  0  0  0  0  0  0  0  0  0
   35.5550   29.4230   40.8840 N   0  0  0  0  0  0  0  0  0  0  0  0
   36.2010   30.6320   40.7470 C   0  0  0  0  0  0  0  0  0  0  0  0
   37.4620   30.7990   41.2790 N   0  0  0  0  0  0  0  0  0  0  0  0
   39.0240   29.9050   42.3390 H   0  0  0  0  0  0  0  0  0  0  0  0
   35.5230   27.4740   41.5790 H   0  0  0  0  0  0  0  0  0  0  0  0
   35.6290   31.3660   40.2110 H   0  0  0  0  0  0  0  0  0  0  0  0
   37.5600   25.4440   41.2200 C   0  0  0  0  0  0  0  0  0  0  0  0
   36.9390   24.5050   41.9600 N   0  0  0  0  0  0  0  0  0  0  0  0
   36.1270   23.8530   41.1590 O   0  0  0  0  0  0  0  0  0  0  0  0
   36.2280   24.3610   39.9450 C   0  0  0  0  0  0  0  0  0  0  0  0
   37.1210   25.3670   39.9400 N   0  0  0  0  0  0  0  0  0  0  0  0
   35.4470   23.8570   38.7950 C   0  0  0  0  0  0  0  0  0  0  0  0
   35.5540   24.5480   37.6060 C   0  0  0  0  0  0  0  0  0  0  0  0
   34.8290   24.0920   36.5070 C   0  0  0  0  0  0  0  0  0  0  0  0
   34.8610   24.5810   35.5390 H   0  0  0  0  0  0  0  0  0  0  0  0
   34.0510   22.9830   36.6770 C   0  0  0  0  0  0  0  0  0  0  0  0
   33.9180   22.2610   37.8590 C   0  0  0  0  0  0  0  0  0  0  0  0
   33.2720   21.3920   37.8880 H   0  0  0  0  0  0  0  0  0  0  0  0
   34.6550   22.7370   38.9480 C   0  0  0  0  0  0  0  0  0  0  0  0
  1  6  1  1  0  0  0
  1  2  1  0  0  0  0
  2  3  1  0  0  0  0
  2  7  1  0  0  0  0
  3 10  1  0  0  0  0
  4 11  1  0  0  0  0
  4  3  1  0  0  0  0
  5 13  1  6  0  0  0
  5  1  1  0  0  0  0
  5  4  1  0  0  0  0
  8  2  1  0  0  0  0
  9  3  1  0  0  0  0
 12  4  1  0  0  0  0
 14 15  1  0  0  0  0
 14 20  1  0  0  0  0
 15  1  1  0  0  0  0
 16 21  1  0  0  0  0
 16 15  2  0  0  0  0
 17 16  1  0  0  0  0
 18 17  2  0  0  0  0
 18 19  1  0  0  0  0
 19 14  2  0  0  0  0
 22 18  1  0  0  0  0
 23  5  1  0  0  0  0
 23 24  2  0  0  0  0
 25 24  1  0  0  0  0
 26 25  1  0  0  0  0
 27 26  2  0  0  0  0
 27 23  1  0  0  0  0
 28 35  1  0  0  0  0
 28 26  1  0  0  0  0
 29 28  2  0  0  0  0
 30 32  2  0  0  0  0
 30 29  1  0  0  0  0
 31 30  1  0  0  0  0
 32 33  1  0  0  0  0
 33 34  1  0  0  0  0
 33 35  2  0  0  0  0
M  END
>  <minimizedAffinity>
-5.0995841

>  <minimizedRMSD>
0.609698892

$$$$
