
 OpenBabel03242506543D

 33 36  0  0  0  0  0  0  0  0999 V2000
   38.5740   27.8790   41.5950 C   0  0  0  0  0  0  0  0  0  0  0  0
   38.8000   28.4350   42.8720 C   0  0  0  0  0  0  0  0  0  0  0  0
   39.0040   29.7840   43.1180 C   0  0  0  0  0  0  0  0  0  0  0  0
   38.9870   30.6500   42.0450 C   0  0  0  0  0  0  0  0  0  0  0  0
   38.7750   30.1770   40.7810 C   0  0  0  0  0  0  0  0  0  0  0  0
   38.7550   31.0500   39.7300 C   0  0  0  0  0  0  0  0  0  0  0  0
   38.5310   30.6170   38.4150 C   0  0  0  0  0  0  0  0  0  0  0  0
   38.3330   29.2380   38.2630 C   0  0  0  0  0  0  0  0  0  0  0  0
   38.3640   28.4100   39.3480 C   0  0  0  0  0  0  0  0  0  0  0  0
   38.5810   28.8290   40.6240 C   0  0  0  0  0  0  0  0  0  0  0  0
   38.8220   27.7910   43.7570 H   0  0  0  0  0  0  0  0  0  0  0  0
   39.1700   30.1320   44.1250 H   0  0  0  0  0  0  0  0  0  0  0  0
   39.1380   31.7010   42.2410 H   0  0  0  0  0  0  0  0  0  0  0  0
   38.5070   31.2640   37.5650 H   0  0  0  0  0  0  0  0  0  0  0  0
   38.1550   28.8420   37.2720 H   0  0  0  0  0  0  0  0  0  0  0  0
   38.2030   27.3330   39.1670 H   0  0  0  0  0  0  0  0  0  0  0  0
   38.3840   26.4680   41.5550 C   0  0  0  0  0  0  0  0  0  0  0  0
   39.2630   25.4450   41.1720 C   0  0  0  0  0  0  0  0  0  0  0  0
   38.9220   24.0980   41.2290 C   0  0  0  0  0  0  0  0  0  0  0  0
   37.6820   23.8260   41.6780 N   0  0  0  0  0  0  0  0  0  0  0  0
   36.8160   24.7710   42.0520 C   0  0  0  0  0  0  0  0  0  0  0  0
   37.1790   26.0540   41.9830 N   0  0  0  0  0  0  0  0  0  0  0  0
   40.2270   25.8390   40.8320 H   0  0  0  0  0  0  0  0  0  0  0  0
   39.6730   23.4110   40.9130 H   0  0  0  0  0  0  0  0  0  0  0  0
   35.8510   24.4230   42.3940 H   0  0  0  0  0  0  0  0  0  0  0  0
   38.9840   32.4700   39.8290 C   0  0  0  0  0  0  0  0  0  0  0  0
   40.2960   32.8800   39.5590 C   0  0  0  0  0  0  0  0  0  0  0  0
   40.7270   34.1880   39.6120 C   0  0  0  0  0  0  0  0  0  0  0  0
   41.7340   34.4760   39.4020 H   0  0  0  0  0  0  0  0  0  0  0  0
   39.8390   35.1850   39.9460 C   0  0  0  0  0  0  0  0  0  0  0  0
   38.5440   34.8020   40.2150 C   0  0  0  0  0  0  0  0  0  0  0  0
   37.7370   35.4930   40.4940 H   0  0  0  0  0  0  0  0  0  0  0  0
   38.1200   33.4890   40.1610 C   0  0  0  0  0  0  0  0  0  0  0  0
  1  2  1  0  0  0  0
  2  3  2  0  0  0  0
  2 11  1  0  0  0  0
  3 12  1  0  0  0  0
  4 13  1  0  0  0  0
  4  3  1  0  0  0  0
  5  4  2  0  0  0  0
  6 26  1  0  0  0  0
  6  5  1  0  0  0  0
  7  6  2  0  0  0  0
  8  7  1  0  0  0  0
  8  9  2  0  0  0  0
  9 10  1  0  0  0  0
 10  5  1  0  0  0  0
 10  1  2  0  0  0  0
 14  7  1  0  0  0  0
 15  8  1  0  0  0  0
 16  9  1  0  0  0  0
 17  1  1  0  0  0  0
 17 22  1  0  0  0  0
 18 19  1  0  0  0  0
 18 17  2  0  0  0  0
 19 20  2  0  0  0  0
 20 21  1  0  0  0  0
 21 25  1  0  0  0  0
 22 21  2  0  0  0  0
 23 18  1  0  0  0  0
 24 19  1  0  0  0  0
 26 33  1  0  0  0  0
 27 28  1  0  0  0  0
 27 26  2  0  0  0  0
 28 30  2  0  0  0  0
 29 28  1  0  0  0  0
 30 31  1  0  0  0  0
 31 32  1  0  0  0  0
 33 31  2  0  0  0  0
M  END
>  <minimizedAffinity>
-5.56352329

>  <minimizedRMSD>
7.61646461

$$$$
