
 OpenBabel03242509293D

 47 51  0  0  0  0  0  0  0  0999 V2000
   36.1470   30.0680   41.1010 C   0  0  0  0  0  0  0  0  0  0  0  0
   35.5720   30.6040   41.8870 H   0  0  0  0  0  0  0  0  0  0  0  0
   36.7560   30.8640   40.6130 H   0  0  0  0  0  0  0  0  0  0  0  0
   38.6310   28.1670   42.6990 C   0  0  0  0  0  0  0  0  0  0  0  0
   37.5550   27.3130   42.7860 C   0  0  0  0  0  0  0  0  0  0  0  0
   36.4830   27.9620   42.1730 C   0  0  0  0  0  0  0  0  0  0  0  0
   36.9890   29.1400   41.7720 N   0  0  0  0  0  0  0  0  0  0  0  0
   38.2400   29.2920   42.0630 N   0  0  0  0  0  0  0  0  0  0  0  0
   37.5870   26.3410   43.2470 H   0  0  0  0  0  0  0  0  0  0  0  0
   35.4960   27.5340   42.0870 H   0  0  0  0  0  0  0  0  0  0  0  0
   41.5750   26.5250   44.2850 C   0  0  0  0  0  0  0  0  0  0  0  0
   40.2680   26.7020   43.8200 C   0  0  0  0  0  0  0  0  0  0  0  0
   39.9690   27.9260   43.1990 C   0  0  0  0  0  0  0  0  0  0  0  0
   40.9290   28.8860   43.0680 N   0  0  0  0  0  0  0  0  0  0  0  0
   42.1840   28.6360   43.5490 C   0  0  0  0  0  0  0  0  0  0  0  0
   42.5020   27.4750   44.1480 N   0  0  0  0  0  0  0  0  0  0  0  0
   41.8230   25.5850   44.7670 H   0  0  0  0  0  0  0  0  0  0  0  0
   39.5070   25.9390   43.9250 H   0  0  0  0  0  0  0  0  0  0  0  0
   43.1850   29.7010   43.3840 C   0  0  0  0  0  0  0  0  0  0  0  0
   43.6050   30.3880   44.5030 C   0  0  0  0  0  3  0  0  0  0  0  0
   44.5540   31.4060   44.3900 C   0  0  0  0  0  0  0  0  0  0  0  0
   44.9180   31.9740   45.2240 H   0  0  0  0  0  0  0  0  0  0  0  0
   44.9980   31.6360   43.1060 C   0  0  0  0  0  3  0  0  0  0  0  0
   44.6120   30.9820   41.9560 C   0  0  0  0  0  0  0  0  0  0  0  0
   45.0390   31.2580   41.0040 H   0  0  0  0  0  0  0  0  0  0  0  0
   43.6590   29.9700   42.1230 C   0  0  0  0  0  3  0  0  0  0  0  0
   35.2580   29.4850   40.0460 C   0  0  0  0  0  0  0  0  0  0  0  0
   34.7960   28.5850   40.4170 H   0  0  0  0  0  0  0  0  0  0  0  0
   34.5450   30.3670   39.9170 H   0  0  0  0  0  0  0  0  0  0  0  0
   35.8740   29.3950   38.6980 C   0  0  0  0  0  0  0  0  0  0  0  0
   37.1930   29.5180   38.3750 C   0  0  0  0  0  0  0  0  0  0  0  0
   37.7170   29.5090   37.1210 C   0  0  0  0  0  0  0  0  0  0  0  0
   36.8680   29.3670   36.0420 C   0  0  0  0  0  0  0  0  0  0  0  0
   35.5130   29.2350   36.3000 C   0  0  0  0  0  0  0  0  0  0  0  0
   34.7290   29.1000   35.1790 C   0  0  0  0  0  0  0  0  0  0  0  0
   33.3730   28.9600   35.3250 C   0  0  0  0  0  0  0  0  0  0  0  0
   32.8310   28.9560   36.6120 C   0  0  0  0  0  0  0  0  0  0  0  0
   33.6770   29.0960   37.6670 C   0  0  0  0  0  0  0  0  0  0  0  0
   35.0210   29.2450   37.5940 C   0  0  0  0  0  0  0  0  0  0  0  0
   37.8730   29.6320   39.2250 H   0  0  0  0  0  0  0  0  0  0  0  0
   38.7870   29.6140   37.0060 H   0  0  0  0  0  0  0  0  0  0  0  0
   37.2880   29.3630   35.0640 H   0  0  0  0  0  0  0  0  0  0  0  0
   35.1310   29.0980   34.1730 H   0  0  0  0  0  0  0  0  0  0  0  0
   32.7360   28.8540   34.4570 H   0  0  0  0  0  0  0  0  0  0  0  0
   31.7670   28.8410   36.7040 H   0  0  0  0  0  0  0  0  0  0  0  0
   33.0630   29.0660   38.9090 O   0  0  0  0  0  0  0  0  0  0  0  0
   32.4340   28.2760   39.1200 H   0  0  0  0  0  0  0  0  0  0  0  0
  1  7  1  0  0  0  0
  1  2  1  0  0  0  0
  3  1  1  0  0  0  0
  4  5  1  0  0  0  0
  4 13  1  0  0  0  0
  5  9  1  0  0  0  0
  6  5  2  0  0  0  0
  7  8  1  0  0  0  0
  7  6  1  0  0  0  0
  8  4  2  0  0  0  0
 10  6  1  0  0  0  0
 11 17  1  0  0  0  0
 12 18  1  0  0  0  0
 12 11  2  0  0  0  0
 13 12  1  0  0  0  0
 14 13  2  0  0  0  0
 14 15  1  0  0  0  0
 15 16  2  0  0  0  0
 16 11  1  0  0  0  0
 19 15  1  0  0  0  0
 19 20  1  0  0  0  0
 21 20  2  0  0  0  0
 21 22  1  0  0  0  0
 23 21  1  0  0  0  0
 24 26  1  0  0  0  0
 24 23  2  0  0  0  0
 25 24  1  0  0  0  0
 26 19  2  0  0  0  0
 27 28  1  0  0  0  0
 27  1  1  0  0  0  0
 29 27  1  0  0  0  0
 30 27  1  0  0  0  0
 31 30  1  0  0  0  0
 31 40  1  0  0  0  0
 32 31  2  0  0  0  0
 33 34  2  0  0  0  0
 33 32  1  0  0  0  0
 34 39  1  0  0  0  0
 35 36  2  0  0  0  0
 35 34  1  0  0  0  0
 36 37  1  0  0  0  0
 37 45  1  0  0  0  0
 37 38  2  0  0  0  0
 38 46  1  0  0  0  0
 39 38  1  0  0  0  0
 39 30  2  0  0  0  0
 41 32  1  0  0  0  0
 42 33  1  0  0  0  0
 43 35  1  0  0  0  0
 44 36  1  0  0  0  0
 46 47  1  0  0  0  0
M  END
>  <minimizedAffinity>
-6.13393736

>  <minimizedRMSD>
0.313575566

$$$$
