
 OpenBabel03242509283D

 47 51  0  0  0  0  0  0  0  0999 V2000
   36.1930   30.0950   41.1330 C   0  0  0  0  0  0  0  0  0  0  0  0
   35.6320   30.6410   41.9230 H   0  0  0  0  0  0  0  0  0  0  0  0
   36.8180   30.8790   40.6460 H   0  0  0  0  0  0  0  0  0  0  0  0
   38.6400   28.1290   42.7090 C   0  0  0  0  0  0  0  0  0  0  0  0
   37.5390   27.3110   42.8210 C   0  0  0  0  0  0  0  0  0  0  0  0
   36.4790   27.9890   42.2200 C   0  0  0  0  0  0  0  0  0  0  0  0
   37.0150   29.1460   41.8000 N   0  0  0  0  0  0  0  0  0  0  0  0
   38.2750   29.2600   42.0680 N   0  0  0  0  0  0  0  0  0  0  0  0
   37.5470   26.3420   43.2910 H   0  0  0  0  0  0  0  0  0  0  0  0
   35.4760   27.5920   42.1540 H   0  0  0  0  0  0  0  0  0  0  0  0
   41.5550   26.4070   44.2630 C   0  0  0  0  0  0  0  0  0  0  0  0
   40.2470   26.6220   43.8170 C   0  0  0  0  0  0  0  0  0  0  0  0
   39.9780   27.8490   43.1890 C   0  0  0  0  0  0  0  0  0  0  0  0
   40.9660   28.7760   43.0320 N   0  0  0  0  0  0  0  0  0  0  0  0
   42.2200   28.4890   43.4960 C   0  0  0  0  0  0  0  0  0  0  0  0
   42.5100   27.3240   44.1010 N   0  0  0  0  0  0  0  0  0  0  0  0
   41.7800   25.4640   44.7500 H   0  0  0  0  0  0  0  0  0  0  0  0
   39.4640   25.8850   43.9430 H   0  0  0  0  0  0  0  0  0  0  0  0
   43.2530   29.5200   43.3030 C   0  0  0  0  0  0  0  0  0  0  0  0
   42.9570   30.8200   43.6570 C   0  0  0  0  0  3  0  0  0  0  0  0
   43.9080   31.8280   43.4900 C   0  0  0  0  0  0  0  0  0  0  0  0
   43.7360   32.8550   43.7460 H   0  0  0  0  0  0  0  0  0  0  0  0
   45.1090   31.4020   42.9620 C   0  0  0  0  0  3  0  0  0  0  0  0
   45.4540   30.1210   42.5930 C   0  0  0  0  0  0  0  0  0  0  0  0
   46.4340   29.9180   42.1890 H   0  0  0  0  0  0  0  0  0  0  0  0
   44.4670   29.1470   42.7800 C   0  0  0  0  0  3  0  0  0  0  0  0
   35.2880   29.5360   40.0790 C   0  0  0  0  0  0  0  0  0  0  0  0
   34.8050   28.6460   40.4490 H   0  0  0  0  0  0  0  0  0  0  0  0
   34.5970   30.4350   39.9520 H   0  0  0  0  0  0  0  0  0  0  0  0
   35.9010   29.4330   38.7300 C   0  0  0  0  0  0  0  0  0  0  0  0
   37.2170   29.5650   38.4000 C   0  0  0  0  0  0  0  0  0  0  0  0
   37.7360   29.5450   37.1440 C   0  0  0  0  0  0  0  0  0  0  0  0
   36.8850   29.3770   36.0700 C   0  0  0  0  0  0  0  0  0  0  0  0
   35.5320   29.2350   36.3350 C   0  0  0  0  0  0  0  0  0  0  0  0
   34.7460   29.0750   35.2200 C   0  0  0  0  0  0  0  0  0  0  0  0
   33.3920   28.9220   35.3730 C   0  0  0  0  0  0  0  0  0  0  0  0
   32.8550   28.9310   36.6630 C   0  0  0  0  0  0  0  0  0  0  0  0
   33.7030   29.0950   37.7110 C   0  0  0  0  0  0  0  0  0  0  0  0
   35.0450   29.2580   37.6310 C   0  0  0  0  0  0  0  0  0  0  0  0
   37.8990   29.6990   39.2460 H   0  0  0  0  0  0  0  0  0  0  0  0
   38.8040   29.6590   37.0230 H   0  0  0  0  0  0  0  0  0  0  0  0
   37.3010   29.3640   35.0910 H   0  0  0  0  0  0  0  0  0  0  0  0
   35.1440   29.0630   34.2130 H   0  0  0  0  0  0  0  0  0  0  0  0
   32.7520   28.7970   34.5100 H   0  0  0  0  0  0  0  0  0  0  0  0
   31.7920   28.8060   36.7600 H   0  0  0  0  0  0  0  0  0  0  0  0
   33.0940   29.0760   38.9560 O   0  0  0  0  0  0  0  0  0  0  0  0
   32.4750   28.2830   39.1810 H   0  0  0  0  0  0  0  0  0  0  0  0
  1  7  1  0  0  0  0
  1  2  1  0  0  0  0
  3  1  1  0  0  0  0
  4  5  1  0  0  0  0
  4 13  1  0  0  0  0
  5  9  1  0  0  0  0
  6  5  2  0  0  0  0
  7  8  1  0  0  0  0
  7  6  1  0  0  0  0
  8  4  2  0  0  0  0
 10  6  1  0  0  0  0
 11 17  1  0  0  0  0
 12 18  1  0  0  0  0
 12 11  2  0  0  0  0
 13 12  1  0  0  0  0
 14 13  2  0  0  0  0
 14 15  1  0  0  0  0
 15 16  2  0  0  0  0
 16 11  1  0  0  0  0
 19 15  1  0  0  0  0
 19 20  1  0  0  0  0
 21 20  2  0  0  0  0
 21 22  1  0  0  0  0
 23 21  1  0  0  0  0
 24 26  1  0  0  0  0
 24 23  2  0  0  0  0
 25 24  1  0  0  0  0
 26 19  2  0  0  0  0
 27 28  1  0  0  0  0
 27  1  1  0  0  0  0
 29 27  1  0  0  0  0
 30 27  1  0  0  0  0
 31 30  1  0  0  0  0
 31 40  1  0  0  0  0
 32 31  2  0  0  0  0
 33 34  2  0  0  0  0
 33 32  1  0  0  0  0
 34 39  1  0  0  0  0
 35 36  2  0  0  0  0
 35 34  1  0  0  0  0
 36 37  1  0  0  0  0
 37 45  1  0  0  0  0
 37 38  2  0  0  0  0
 38 46  1  0  0  0  0
 39 38  1  0  0  0  0
 39 30  2  0  0  0  0
 41 32  1  0  0  0  0
 42 33  1  0  0  0  0
 43 35  1  0  0  0  0
 44 36  1  0  0  0  0
 46 47  1  0  0  0  0
M  END
>  <minimizedAffinity>
-6.13844824

>  <minimizedRMSD>
0.228937268

$$$$
