
 OpenBabel03242509283D

 47 51  0  0  0  0  0  0  0  0999 V2000
   36.1680   29.9750   41.0330 C   0  0  0  0  0  0  0  0  0  0  0  0
   35.6450   30.5390   41.8360 H   0  0  0  0  0  0  0  0  0  0  0  0
   36.8500   30.7240   40.5680 H   0  0  0  0  0  0  0  0  0  0  0  0
   38.4660   27.7870   42.5400 C   0  0  0  0  0  0  0  0  0  0  0  0
   37.2980   27.0730   42.6800 C   0  0  0  0  0  0  0  0  0  0  0  0
   36.2890   27.8480   42.1090 C   0  0  0  0  0  0  0  0  0  0  0  0
   36.9170   28.9520   41.6760 N   0  0  0  0  0  0  0  0  0  0  0  0
   38.1890   28.9500   41.9110 N   0  0  0  0  0  0  0  0  0  0  0  0
   37.2300   26.1060   43.1480 H   0  0  0  0  0  0  0  0  0  0  0  0
   35.2530   27.5440   42.0690 H   0  0  0  0  0  0  0  0  0  0  0  0
   41.3950   25.6890   43.4850 C   0  0  0  0  0  0  0  0  0  0  0  0
   40.1090   26.0200   43.0470 C   0  0  0  0  0  0  0  0  0  0  0  0
   39.7840   27.3840   42.9840 C   0  0  0  0  0  0  0  0  0  0  0  0
   40.7020   28.3290   43.3410 N   0  0  0  0  0  0  0  0  0  0  0  0
   41.9390   27.9240   43.7590 C   0  0  0  0  0  0  0  0  0  0  0  0
   42.2800   26.6260   43.8300 N   0  0  0  0  0  0  0  0  0  0  0  0
   41.6620   24.6390   43.5390 H   0  0  0  0  0  0  0  0  0  0  0  0
   39.3820   25.2680   42.7640 H   0  0  0  0  0  0  0  0  0  0  0  0
   42.8940   28.9800   44.1330 C   0  0  0  0  0  0  0  0  0  0  0  0
   43.8030   28.7190   45.1360 C   0  0  0  0  0  3  0  0  0  0  0  0
   44.7260   29.6930   45.5210 C   0  0  0  0  0  0  0  0  0  0  0  0
   45.4550   29.5480   46.2930 H   0  0  0  0  0  0  0  0  0  0  0  0
   44.6310   30.8780   44.8250 C   0  0  0  0  0  3  0  0  0  0  0  0
   43.7440   31.1910   43.8170 C   0  0  0  0  0  0  0  0  0  0  0  0
   43.7740   32.1630   43.3490 H   0  0  0  0  0  0  0  0  0  0  0  0
   42.8410   30.1810   43.4690 C   0  0  0  0  0  3  0  0  0  0  0  0
   35.2300   29.5100   39.9620 C   0  0  0  0  0  0  0  0  0  0  0  0
   34.6920   28.6400   40.3030 H   0  0  0  0  0  0  0  0  0  0  0  0
   34.5960   30.4550   39.8680 H   0  0  0  0  0  0  0  0  0  0  0  0
   35.8330   29.4160   38.6090 C   0  0  0  0  0  0  0  0  0  0  0  0
   37.1480   29.5450   38.2720 C   0  0  0  0  0  0  0  0  0  0  0  0
   37.6600   29.5330   37.0130 C   0  0  0  0  0  0  0  0  0  0  0  0
   36.8010   29.3770   35.9430 C   0  0  0  0  0  0  0  0  0  0  0  0
   35.4490   29.2380   36.2150 C   0  0  0  0  0  0  0  0  0  0  0  0
   34.6560   29.0890   35.1030 C   0  0  0  0  0  0  0  0  0  0  0  0
   33.3020   28.9400   35.2630 C   0  0  0  0  0  0  0  0  0  0  0  0
   32.7730   28.9410   36.5560 C   0  0  0  0  0  0  0  0  0  0  0  0
   33.6290   29.0940   37.6010 C   0  0  0  0  0  0  0  0  0  0  0  0
   34.9710   29.2530   37.5140 C   0  0  0  0  0  0  0  0  0  0  0  0
   37.8360   29.6700   39.1150 H   0  0  0  0  0  0  0  0  0  0  0  0
   38.7280   29.6440   36.8860 H   0  0  0  0  0  0  0  0  0  0  0  0
   37.2120   29.3700   34.9610 H   0  0  0  0  0  0  0  0  0  0  0  0
   35.0480   29.0840   34.0940 H   0  0  0  0  0  0  0  0  0  0  0  0
   32.6570   28.8250   34.4030 H   0  0  0  0  0  0  0  0  0  0  0  0
   31.7100   28.8200   36.6590 H   0  0  0  0  0  0  0  0  0  0  0  0
   33.0270   29.0680   38.8490 O   0  0  0  0  0  0  0  0  0  0  0  0
   32.4060   28.2750   39.0720 H   0  0  0  0  0  0  0  0  0  0  0  0
  1  7  1  0  0  0  0
  1  2  1  0  0  0  0
  3  1  1  0  0  0  0
  4  5  1  0  0  0  0
  4 13  1  0  0  0  0
  5  9  1  0  0  0  0
  6  5  2  0  0  0  0
  7  8  1  0  0  0  0
  7  6  1  0  0  0  0
  8  4  2  0  0  0  0
 10  6  1  0  0  0  0
 11 17  1  0  0  0  0
 11 16  1  0  0  0  0
 12 11  2  0  0  0  0
 13 12  1  0  0  0  0
 13 14  2  0  0  0  0
 14 15  1  0  0  0  0
 15 16  2  0  0  0  0
 15 19  1  0  0  0  0
 18 12  1  0  0  0  0
 19 20  1  0  0  0  0
 20 21  2  0  0  0  0
 21 22  1  0  0  0  0
 23 21  1  0  0  0  0
 24 23  2  0  0  0  0
 25 24  1  0  0  0  0
 26 24  1  0  0  0  0
 26 19  2  0  0  0  0
 27 28  1  0  0  0  0
 27  1  1  0  0  0  0
 29 27  1  0  0  0  0
 30 27  1  0  0  0  0
 31 30  1  0  0  0  0
 31 40  1  0  0  0  0
 32 31  2  0  0  0  0
 33 34  2  0  0  0  0
 33 32  1  0  0  0  0
 34 39  1  0  0  0  0
 35 36  2  0  0  0  0
 35 34  1  0  0  0  0
 36 37  1  0  0  0  0
 37 45  1  0  0  0  0
 37 38  2  0  0  0  0
 38 46  1  0  0  0  0
 39 38  1  0  0  0  0
 39 30  2  0  0  0  0
 41 32  1  0  0  0  0
 42 33  1  0  0  0  0
 43 35  1  0  0  0  0
 44 36  1  0  0  0  0
 46 47  1  0  0  0  0
M  END
>  <minimizedAffinity>
-6.2290926

>  <minimizedRMSD>
0.999685705

$$$$
