
 OpenBabel03242507513D

 39 43  0  0  1  0  0  0  0  0999 V2000
   39.7790   26.2230   43.7850 C   0  0  2  0  0  0  0  0  0  0  0  0
   40.8660   25.7520   42.8060 C   0  0  0  0  0  0  0  0  0  0  0  0
   39.6190   24.9610   42.9890 C   0  0  2  0  0  0  0  0  0  0  0  0
   40.0040   26.1210   44.8630 H   0  0  0  0  0  0  0  0  0  0  0  0
   41.8060   25.4230   43.2740 H   0  0  0  0  0  0  0  0  0  0  0  0
   40.9310   26.3250   41.8350 H   0  0  0  0  0  0  0  0  0  0  0  0
   39.5970   24.0460   43.6220 H   0  0  0  0  0  0  0  0  0  0  0  0
   38.5860   24.9000   41.9180 C   0  0  0  0  0  0  0  0  0  0  0  0
   37.5110   24.0410   42.0740 C   0  0  0  0  0  0  0  0  0  0  0  0
   36.6380   24.0590   41.0110 C   0  0  0  0  0  0  0  0  0  0  0  0
   36.7290   24.7930   39.8980 N   0  0  0  0  0  0  0  0  0  0  0  0
   37.8050   25.6170   39.7990 C   0  0  0  0  0  0  0  0  0  0  0  0
   38.7020   25.6540   40.8000 N   0  0  0  0  0  0  0  0  0  0  0  0
   37.3800   23.4320   42.9340 H   0  0  0  0  0  0  0  0  0  0  0  0
   35.7570   23.4150   41.0420 H   0  0  0  0  0  0  0  0  0  0  0  0
   38.0520   26.4820   38.6520 C   0  0  0  0  0  0  0  0  0  0  0  0
   38.1550   25.8650   37.4270 C   0  0  0  0  0  0  0  0  0  0  0  0
   38.3860   26.5400   36.2460 C   0  0  0  0  0  0  0  0  0  0  0  0
   38.4620   26.0180   35.2900 H   0  0  0  0  0  0  0  0  0  0  0  0
   38.5240   27.9300   36.2990 C   0  0  0  0  0  0  0  0  0  0  0  0
   38.4200   28.5510   37.5380 C   0  0  0  0  0  0  0  0  0  0  0  0
   38.5280   29.6210   37.5730 H   0  0  0  0  0  0  0  0  0  0  0  0
   38.1860   27.8460   38.7170 C   0  0  0  0  0  0  0  0  0  0  0  0
   38.4640   29.3100   42.5230 C   0  0  0  0  0  0  0  0  0  0  0  0
   37.4270   28.9170   43.3710 C   0  0  0  0  0  0  0  0  0  0  0  0
   37.8300   27.7140   43.9230 C   0  0  0  0  0  0  0  0  0  0  0  0
   39.0450   27.4220   43.4190 N   0  0  0  0  0  0  0  0  0  0  0  0
   39.4310   28.3730   42.5810 N   0  0  0  0  0  0  0  0  0  0  0  0
   36.4960   29.4390   43.5610 H   0  0  0  0  0  0  0  0  0  0  0  0
   37.1930   27.1840   44.6310 H   0  0  0  0  0  0  0  0  0  0  0  0
   37.1430   31.9500   40.3570 C   0  0  0  0  0  0  0  0  0  0  0  0
   38.1980   32.8870   40.3140 C   0  0  0  0  0  0  0  0  0  0  0  0
   39.3660   32.5940   41.0420 C   0  0  0  0  0  0  0  0  0  0  0  0
   39.4270   31.4310   41.7470 N   0  0  0  0  0  0  0  0  0  0  0  0
   38.3830   30.5540   41.7610 C   0  0  0  0  0  0  0  0  0  0  0  0
   37.2320   30.8180   41.0590 N   0  0  0  0  0  0  0  0  0  0  0  0
   36.2610   32.2180   39.7810 H   0  0  0  0  0  0  0  0  0  0  0  0
   38.1190   33.7970   39.7470 H   0  0  0  0  0  0  0  0  0  0  0  0
   40.1990   33.2890   41.0330 H   0  0  0  0  0  0  0  0  0  0  0  0
  1  4  1  1  0  0  0
  2  3  1  0  0  0  0
  2  5  1  0  0  0  0
  2  1  1  0  0  0  0
  3  7  1  1  0  0  0
  3  1  1  0  0  0  0
  6  2  1  0  0  0  0
  8  9  1  0  0  0  0
  8  3  1  0  0  0  0
  9 14  1  0  0  0  0
 10 15  1  0  0  0  0
 10  9  2  0  0  0  0
 11 10  1  0  0  0  0
 12 11  2  0  0  0  0
 12 13  1  0  0  0  0
 13  8  2  0  0  0  0
 16 23  1  0  0  0  0
 16 12  1  0  0  0  0
 17 16  2  0  0  0  0
 18 20  2  0  0  0  0
 18 17  1  0  0  0  0
 19 18  1  0  0  0  0
 20 21  1  0  0  0  0
 21 22  1  0  0  0  0
 21 23  2  0  0  0  0
 24 28  2  0  0  0  0
 24 25  1  0  0  0  0
 25 29  1  0  0  0  0
 25 26  2  0  0  0  0
 26 30  1  0  0  0  0
 27  1  1  0  0  0  0
 27 26  1  0  0  0  0
 28 27  1  0  0  0  0
 31 36  1  0  0  0  0
 32 31  2  0  0  0  0
 32 33  1  0  0  0  0
 33 34  2  0  0  0  0
 34 35  1  0  0  0  0
 35 24  1  0  0  0  0
 36 35  2  0  0  0  0
 37 31  1  0  0  0  0
 38 32  1  0  0  0  0
 39 33  1  0  0  0  0
M  END
>  <minimizedAffinity>
-5.65859127

>  <minimizedRMSD>
0.866062522

$$$$
