
 OpenBabel03242506473D

 32 35  0  0  0  0  0  0  0  0999 V2000
   44.5320   26.3670   44.3190 C   0  0  0  0  0  0  0  0  0  0  0  0
   43.3290   26.3840   43.5850 C   0  0  0  0  0  0  0  0  0  0  0  0
   42.1700   26.8860   44.1790 C   0  0  0  0  0  0  0  0  0  0  0  0
   42.2600   27.3430   45.4660 N   0  0  0  0  0  0  0  0  0  0  0  0
   43.4240   27.3150   46.1440 C   0  0  0  0  0  0  0  0  0  0  0  0
   44.5390   26.8370   45.5830 N   0  0  0  0  0  0  0  0  0  0  0  0
   45.4440   25.9900   43.8990 H   0  0  0  0  0  0  0  0  0  0  0  0
   43.4260   25.8550   42.2260 C   0  0  0  0  0  0  0  0  0  0  0  0
   42.4080   25.4210   41.4240 C   0  0  0  0  0  0  0  0  0  0  0  0
   42.6560   24.9440   40.1520 C   0  0  0  0  0  0  0  0  0  0  0  0
   41.8070   24.6200   39.5760 H   0  0  0  0  0  0  0  0  0  0  0  0
   43.9370   24.8850   39.6440 C   0  0  0  0  0  0  0  0  0  0  0  0
   45.0060   25.3180   40.4340 C   0  0  0  0  0  0  0  0  0  0  0  0
   46.0130   25.2780   40.0520 H   0  0  0  0  0  0  0  0  0  0  0  0
   44.7200   25.7870   41.6920 C   0  0  0  0  0  0  0  0  0  0  0  0
   43.4430   27.8320   47.5450 C   0  0  0  0  0  0  0  0  0  0  0  0
   43.4270   29.2120   47.5630 F   0  0  0  0  0  0  0  0  0  0  0  0
   42.2600   27.4610   48.2100 F   0  0  0  0  0  0  0  0  0  0  0  0
   44.5660   27.4350   48.2410 F   0  0  0  0  0  0  0  0  0  0  0  0
   41.0380   26.8790   43.4270 O   0  0  0  0  0  0  0  0  0  0  0  0
   37.0900   29.1070   43.3400 N   0  0  0  0  0  0  0  0  0  0  0  0
   36.9380   27.8680   43.8170 C   0  0  0  0  0  0  0  0  0  0  0  0
   38.1660   27.2880   43.8030 N   0  0  0  0  0  0  0  0  0  0  0  0
   39.0880   28.1660   43.3170 C   0  0  0  0  0  0  0  0  0  0  0  0
   40.4590   28.0890   43.0950 C   0  0  0  0  0  0  0  0  0  0  0  0
   41.0810   29.1840   42.5850 N   0  0  0  0  0  0  0  0  0  0  0  0
   40.3710   30.3000   42.3100 C   0  0  0  0  0  0  0  0  0  0  0  0
   39.0320   30.3900   42.5210 N   0  0  0  0  0  0  0  0  0  0  0  0
   38.3670   29.3170   43.0320 C   0  0  0  0  0  0  0  0  0  0  0  0
   36.3370   29.8320   43.2150 H   0  0  0  0  0  0  0  0  0  0  0  0
   36.0370   27.3730   44.1600 H   0  0  0  0  0  0  0  0  0  0  0  0
   40.9440   31.1220   41.9070 H   0  0  0  0  0  0  0  0  0  0  0  0
  1  6  1  0  0  0  0
  2  3  1  0  0  0  0
  2  1  2  0  0  0  0
  3  4  2  0  0  0  0
  4  5  1  0  0  0  0
  5 16  1  0  0  0  0
  6  5  2  0  0  0  0
  7  1  1  0  0  0  0
  8  2  1  0  0  0  0
  9  8  2  0  0  0  0
 10  9  1  0  0  0  0
 11 10  1  0  0  0  0
 12 10  2  0  0  0  0
 12 13  1  0  0  0  0
 13 15  2  0  0  0  0
 14 13  1  0  0  0  0
 15  8  1  0  0  0  0
 16 17  1  0  0  0  0
 16 18  1  0  0  0  0
 16 19  1  0  0  0  0
 20  3  1  0  0  0  0
 21 22  1  0  0  0  0
 22 31  1  0  0  0  0
 23 22  2  0  0  0  0
 24 23  1  0  0  0  0
 25 24  1  0  0  0  0
 25 20  1  0  0  0  0
 26 25  2  0  0  0  0
 27 28  2  0  0  0  0
 27 26  1  0  0  0  0
 28 29  1  0  0  0  0
 29 24  2  0  0  0  0
 29 21  1  0  0  0  0
 30 21  1  0  0  0  0
 32 27  1  0  0  0  0
M  END
>  <minimizedAffinity>
-5.70620918

>  <minimizedRMSD>
0.247429669

$$$$
