
 OpenBabel03242508163D

 47 51  0  0  1  0  0  0  0  0999 V2000
   42.3780   34.9540   40.7420 O   0  0  0  0  0  0  0  0  0  0  0  0
   38.8590   35.4750   40.1070 C   0  0  0  0  0  0  0  0  0  0  0  0
   40.2090   35.8120   40.2850 C   0  0  0  0  0  0  0  0  0  0  0  0
   41.0910   34.7420   40.5550 C   0  0  0  0  0  0  0  0  0  0  0  0
   40.5500   33.5420   40.6110 N   0  0  0  0  0  0  0  0  0  0  0  0
   39.2980   33.1810   40.4510 C   0  0  0  0  0  0  0  0  0  0  0  0
   38.4780   34.2060   40.1970 N   0  0  0  0  0  0  0  0  0  0  0  0
   38.2070   36.3130   39.9010 H   0  0  0  0  0  0  0  0  0  0  0  0
   40.5830   36.8120   40.2250 H   0  0  0  0  0  0  0  0  0  0  0  0
   38.5990   31.9100   40.4940 C   0  0  0  0  0  0  0  0  0  0  0  0
   38.4330   31.1860   41.6220 N   0  0  0  0  0  0  0  0  0  0  0  0
   37.8030   30.0250   41.7010 C   0  0  0  0  0  0  0  0  0  0  0  0
   37.2710   29.4700   40.6310 N   0  0  0  0  0  0  0  0  0  0  0  0
   37.3670   30.0940   39.4300 C   0  0  0  0  0  0  0  0  0  0  0  0
   36.8100   29.5210   38.3010 C   0  0  0  0  0  0  0  0  0  0  0  0
   36.8940   30.1280   37.0920 C   0  0  0  0  0  0  0  0  0  0  0  0
   37.5640   31.3640   37.0050 C   0  0  0  0  0  0  0  0  0  0  0  0
   38.0940   31.8780   38.1690 C   0  0  0  0  0  0  0  0  0  0  0  0
   38.0310   31.3010   39.3940 C   0  0  0  0  0  0  0  0  0  0  0  0
   37.7610   29.5780   42.6850 H   0  0  0  0  0  0  0  0  0  0  0  0
   36.3080   28.5670   38.4360 H   0  0  0  0  0  0  0  0  0  0  0  0
   36.4570   29.6720   36.2170 H   0  0  0  0  0  0  0  0  0  0  0  0
   37.6490   31.8730   36.0590 H   0  0  0  0  0  0  0  0  0  0  0  0
   38.6090   32.8410   38.0730 H   0  0  0  0  0  0  0  0  0  0  0  0
   43.0720   34.7820   41.9620 C   0  0  2  0  0  0  0  0  0  0  0  0
   42.5180   34.1680   42.6900 H   0  0  0  0  0  0  0  0  0  0  0  0
   43.0780   36.2250   42.6040 C   0  0  0  0  0  0  0  0  0  0  0  0
   43.8280   36.8160   42.0710 H   0  0  0  0  0  0  0  0  0  0  0  0
   43.3190   36.0440   43.6560 H   0  0  0  0  0  0  0  0  0  0  0  0
   42.0770   36.6520   42.4840 H   0  0  0  0  0  0  0  0  0  0  0  0
   44.4740   34.3460   41.7690 C   0  0  0  0  0  0  0  0  0  0  0  0
   45.0940   35.2580   41.6710 H   0  0  0  0  0  0  0  0  0  0  0  0
   44.5550   33.6800   40.8920 H   0  0  0  0  0  0  0  0  0  0  0  0
   44.8730   33.6100   42.9600 N   0  0  0  0  0  0  0  0  0  0  0  0
   46.0500   33.8000   43.6160 C   0  0  0  0  0  0  0  0  0  0  0  0
   46.1080   32.9600   44.6750 N   0  0  0  0  0  0  0  0  0  0  0  0
   44.9530   32.2470   44.6690 C   0  0  0  0  0  0  0  0  0  0  0  0
   44.2120   32.6690   43.6010 N   0  0  0  0  0  0  0  0  0  0  0  0
   46.8480   34.4860   43.3880 H   0  0  0  0  0  0  0  0  0  0  0  0
   44.5610   31.2130   45.6220 C   0  0  0  0  0  0  0  0  0  0  0  0
   44.2750   29.9490   45.1680 C   0  0  0  0  0  0  0  0  0  0  0  0
   43.8960   28.9380   46.0590 C   0  0  0  0  0  0  0  0  0  0  0  0
   43.6630   27.9290   45.7450 H   0  0  0  0  0  0  0  0  0  0  0  0
   43.8420   29.3300   47.3810 C   0  0  0  0  0  0  0  0  0  0  0  0
   44.1160   30.5720   47.8820 C   0  0  0  0  0  0  0  0  0  0  0  0
   44.0380   30.7590   48.9450 H   0  0  0  0  0  0  0  0  0  0  0  0
   44.4880   31.5430   46.9590 C   0  0  0  0  0  0  0  0  0  0  0  0
  1 25  1  0  0  0  0
  2  7  2  0  0  0  0
  2  3  1  0  0  0  0
  3  4  2  0  0  0  0
  4  5  1  0  0  0  0
  4  1  1  0  0  0  0
  6 10  1  0  0  0  0
  6  5  2  0  0  0  0
  7  6  1  0  0  0  0
  8  2  1  0  0  0  0
  9  3  1  0  0  0  0
 10 11  1  0  0  0  0
 11 12  2  0  0  0  0
 12 20  1  0  0  0  0
 13 12  1  0  0  0  0
 14 13  2  0  0  0  0
 15 21  1  0  0  0  0
 15 14  1  0  0  0  0
 16 15  2  0  0  0  0
 17 16  1  0  0  0  0
 17 18  2  0  0  0  0
 18 19  1  0  0  0  0
 19 14  1  0  0  0  0
 19 10  2  0  0  0  0
 22 16  1  0  0  0  0
 23 17  1  0  0  0  0
 24 18  1  0  0  0  0
 25 27  1  0  0  0  0
 25 26  1  1  0  0  0
 27 29  1  0  0  0  0
 28 27  1  0  0  0  0
 30 27  1  0  0  0  0
 31 25  1  0  0  0  0
 31 34  1  0  0  0  0
 32 31  1  0  0  0  0
 33 31  1  0  0  0  0
 34 38  1  0  0  0  0
 34 35  1  0  0  0  0
 35 36  2  0  0  0  0
 37 36  1  0  0  0  0
 37 40  1  0  0  0  0
 38 37  2  0  0  0  0
 39 35  1  0  0  0  0
 40 47  1  0  0  0  0
 41 40  2  0  0  0  0
 41 42  1  0  0  0  0
 42 44  2  0  0  0  0
 43 42  1  0  0  0  0
 44 45  1  0  0  0  0
 45 46  1  0  0  0  0
 47 45  2  0  0  0  0
M  END
>  <minimizedAffinity>
-7.01155615

>  <minimizedRMSD>
0.773229897

$$$$
