
 OpenBabel03242504133D

 35 38  0  0  0  0  0  0  0  0999 V2000
   37.4670   32.8270   40.0730 C   0  0  0  0  0  0  0  0  0  0  0  0
   36.5540   33.2250   39.6200 H   0  0  0  0  0  0  0  0  0  0  0  0
   37.2730   32.7220   41.1750 H   0  0  0  0  0  0  0  0  0  0  0  0
   40.8060   34.0100   39.1960 C   0  0  0  0  0  0  0  0  0  0  0  0
   40.8470   35.3130   39.6500 C   0  0  0  0  0  0  0  0  0  0  0  0
   39.7060   35.7760   40.2640 C   0  0  0  0  0  0  0  0  0  0  0  0
   38.6050   35.0390   40.4270 N   0  0  0  0  0  0  0  0  0  0  0  0
   38.6110   33.7750   39.9690 C   0  0  0  0  0  0  0  0  0  0  0  0
   39.6930   33.2760   39.3660 N   0  0  0  0  0  0  0  0  0  0  0  0
   41.7300   35.9310   39.5280 H   0  0  0  0  0  0  0  0  0  0  0  0
   39.6700   36.7900   40.6430 H   0  0  0  0  0  0  0  0  0  0  0  0
   42.8870   31.8860   37.0400 C   0  0  0  0  0  0  0  0  0  0  0  0
   44.1780   32.3790   37.2980 C   0  0  0  0  0  0  0  0  0  0  0  0
   44.3210   33.4320   38.2060 C   0  0  0  0  0  0  0  0  0  0  0  0
   43.2070   33.9310   38.7990 N   0  0  0  0  0  0  0  0  0  0  0  0
   41.9860   33.4320   38.5260 C   0  0  0  0  0  0  0  0  0  0  0  0
   41.8090   32.4110   37.6510 N   0  0  0  0  0  0  0  0  0  0  0  0
   42.7920   31.0860   36.3480 H   0  0  0  0  0  0  0  0  0  0  0  0
   45.0410   31.9700   36.8210 H   0  0  0  0  0  0  0  0  0  0  0  0
   45.2580   33.8630   38.4590 H   0  0  0  0  0  0  0  0  0  0  0  0
   37.8810   31.4820   39.5090 C   0  0  0  0  0  0  0  0  0  0  0  0
   37.2700   31.2510   38.6140 H   0  0  0  0  0  0  0  0  0  0  0  0
   38.9540   31.5090   39.2330 H   0  0  0  0  0  0  0  0  0  0  0  0
   37.6300   30.3900   40.4730 C   0  0  0  0  0  0  0  0  0  0  0  0
   36.9290   30.3860   41.5910 N   0  0  0  0  0  0  0  0  0  0  0  0
   36.9760   29.2040   42.1290 O   0  0  0  0  0  0  0  0  0  0  0  0
   37.6930   28.3990   41.4080 C   0  0  0  0  0  0  0  0  0  0  0  0
   38.1040   29.1350   40.3740 N   0  0  0  0  0  0  0  0  0  0  0  0
   37.9410   27.0340   41.7240 N   0  0  0  0  0  0  0  0  0  0  0  0
   37.5090   26.0220   40.7770 C   0  0  0  0  0  0  0  0  0  0  0  0
   36.9850   24.8370   41.5310 C   0  0  0  0  0  0  0  0  0  0  0  0
   38.1110   24.2310   42.3240 C   0  0  0  0  0  0  0  0  0  0  0  0
   38.6360   23.5170   41.6260 H   0  0  0  0  0  0  0  0  0  0  0  0
   39.1240   25.2310   42.7730 C   0  0  0  0  0  0  0  0  0  0  0  0
   38.6020   26.6260   42.9490 C   0  0  0  0  0  0  0  0  0  0  0  0
  1  3  1  0  0  0  0
  2  1  1  0  0  0  0
  4  9  2  0  0  0  0
  4  5  1  0  0  0  0
  5  6  2  0  0  0  0
  6  7  1  0  0  0  0
  6 11  1  0  0  0  0
  8  1  1  0  0  0  0
  8  7  2  0  0  0  0
  9  8  1  0  0  0  0
 10  5  1  0  0  0  0
 12 13  2  0  0  0  0
 12 17  1  0  0  0  0
 13 14  1  0  0  0  0
 14 20  1  0  0  0  0
 14 15  2  0  0  0  0
 16 15  1  0  0  0  0
 16  4  1  0  0  0  0
 17 16  2  0  0  0  0
 18 12  1  0  0  0  0
 19 13  1  0  0  0  0
 21  1  1  0  0  0  0
 21 24  1  0  0  0  0
 22 21  1  0  0  0  0
 23 21  1  0  0  0  0
 24 25  2  0  0  0  0
 25 26  1  0  0  0  0
 27 29  1  0  0  0  0
 27 26  1  0  0  0  0
 28 24  1  0  0  0  0
 28 27  2  0  0  0  0
 29 35  1  0  0  0  0
 30 31  1  0  0  0  0
 30 29  1  0  0  0  0
 31 32  1  0  0  0  0
 32 34  1  0  0  0  0
 33 32  1  0  0  0  0
 34 35  1  0  0  0  0
M  END
>  <minimizedAffinity>
-6.06779146

>  <minimizedRMSD>
8.66067696

$$$$
