
     RDKit          3D

 28 29  0  0  0  0  0  0  0  0999 V2000
   37.9744   28.8846   43.3768 C   0  0  0  0  0  0  0  0  0  0  0  0
   38.0829   27.4757   43.3016 C   0  0  0  0  0  0  0  0  0  0  0  0
   37.4428   26.8159   42.2553 C   0  0  0  0  0  0  0  0  0  0  0  0
   36.7350   27.5728   41.3454 N   0  0  0  0  0  0  0  0  0  0  0  0
   36.6551   28.9126   41.4509 C   0  0  0  0  0  0  0  0  0  0  0  0
   37.2668   29.5563   42.4530 N   0  0  0  0  0  0  0  0  0  0  0  0
   37.5325   25.3362   42.1408 C   0  0  0  0  0  0  0  0  0  0  0  0
   37.6550   25.0492   40.8055 F   0  0  0  0  0  0  0  0  0  0  0  0
   38.6202   24.8348   42.7998 F   0  0  0  0  0  0  0  0  0  0  0  0
   36.3812   24.7169   42.6440 F   0  0  0  0  0  0  0  0  0  0  0  0
   38.4624   29.4214   44.1799 H   0  0  0  0  0  0  0  0  0  0  0  0
   38.6539   26.9314   44.0466 H   0  0  0  0  0  0  0  0  0  0  0  0
   35.9311   29.6616   40.5159 N   0  0  0  0  0  0  0  0  0  0  0  0
   35.9965   29.4741   39.0878 C   0  0  0  0  0  0  0  0  0  0  0  0
   36.6196   30.7291   38.5305 C   0  0  0  0  0  0  0  0  0  0  0  0
   35.9662   31.9865   39.0005 C   0  0  0  0  0  0  0  0  0  0  0  0
   35.5710   32.5139   38.1049 H   0  0  0  0  0  0  0  0  0  0  0  0
   34.8428   31.8138   39.9636 C   0  0  0  0  0  0  0  0  0  0  0  0
   35.0284   30.7237   40.9704 C   0  0  0  0  0  0  0  0  0  0  0  0
   36.5873   28.6203   38.7532 H   0  0  0  0  0  0  0  0  0  0  0  0
   34.9763   29.3769   38.6356 H   0  0  0  0  0  0  0  0  0  0  0  0
   36.6322   30.6120   37.4256 H   0  0  0  0  0  0  0  0  0  0  0  0
   37.6923   30.7157   38.8230 H   0  0  0  0  0  0  0  0  0  0  0  0
   36.7290   32.6690   39.4412 H   0  0  0  0  0  0  0  0  0  0  0  0
   33.8718   31.6935   39.4369 H   0  0  0  0  0  0  0  0  0  0  0  0
   34.7205   32.7705   40.5305 H   0  0  0  0  0  0  0  0  0  0  0  0
   35.3594   31.0902   41.9643 H   0  0  0  0  0  0  0  0  0  0  0  0
   34.0491   30.2004   41.1462 H   0  0  0  0  0  0  0  0  0  0  0  0
  2  1  2  0
  3  2  1  0
  4  5  1  0
  4  3  2  0
  5  6  2  0
  6  1  1  0
  7  3  1  0
  7 10  1  0
  7  9  1  0
  8  7  1  0
  1 11  1  0
  2 12  1  0
 13 14  1  0
 14 15  1  0
 15 16  1  0
 16 17  1  0
 16 18  1  0
 18 19  1  0
 19 13  1  0
 14 20  1  0
 14 21  1  0
 15 22  1  0
 15 23  1  0
 16 24  1  0
 18 25  1  0
 18 26  1  0
 19 27  1  0
 19 28  1  0
  5 13  1  0
M  ISO  3  11  14  12  14  17  15
M  END
>  <DihAtoms>  (1) 
3,4,12,13

>  <DihDeg>  (1) 
-179.99036623504807

$$$$
