
 OpenBabel03242509303D

 19 20  0  0  0  0  0  0  0  0999 V2000
   37.8550   28.4580   43.4890 C   0  0  0  0  0  0  0  0  0  0  0  0
   38.4720   27.1990   43.6780 C   0  0  0  0  0  0  0  0  0  0  0  0
   38.5280   26.3190   42.5990 C   0  0  0  0  0  0  0  0  0  0  0  0
   37.9770   26.7230   41.4010 N   0  0  0  0  0  0  0  0  0  0  0  0
   37.3980   27.9310   41.2610 C   0  0  0  0  0  0  0  0  0  0  0  0
   37.3400   28.7830   42.2920 N   0  0  0  0  0  0  0  0  0  0  0  0
   37.7990   29.1600   44.3110 H   0  0  0  0  0  0  0  0  0  0  0  0
   38.8880   26.9330   44.6450 H   0  0  0  0  0  0  0  0  0  0  0  0
   36.8460   28.3210   40.0360 N   0  0  0  0  0  0  0  0  0  0  0  0
   36.4900   29.6750   39.6920 C   0  0  0  0  0  2  0  0  0  0  0  0
   34.9890   29.6860   39.5470 C   0  0  0  0  0  2  0  0  0  0  0  0
   34.4610   28.6170   38.6500 C   0  0  0  0  0  3  0  0  0  0  0  0
   33.9350   29.1170   37.8060 H   0  0  0  0  0  0  0  0  0  0  0  0
   35.4770   27.6920   38.0730 C   0  0  0  0  0  2  0  0  0  0  0  0
   36.5940   27.3200   38.9950 C   0  0  0  0  0  2  0  0  0  0  0  0
   39.1660   24.9850   42.7570 C   0  0  0  0  0  0  0  0  0  0  0  0
   40.0440   24.8410   41.7140 F   0  0  0  0  0  0  0  0  0  0  0  0
   39.8590   24.8830   43.9310 F   0  0  0  0  0  0  0  0  0  0  0  0
   38.2160   23.9570   42.7080 F   0  0  0  0  0  0  0  0  0  0  0  0
  1  2  1  0  0  0  0
  1  7  1  0  0  0  0
  2  8  1  0  0  0  0
  3 16  1  0  0  0  0
  3  2  2  0  0  0  0
  4  3  1  0  0  0  0
  5  4  2  0  0  0  0
  5  6  1  0  0  0  0
  6  1  2  0  0  0  0
  9  5  1  0  0  0  0
 10  9  1  0  0  0  0
 11 10  1  0  0  0  0
 12 11  1  0  0  0  0
 13 12  1  0  0  0  0
 14 12  1  0  0  0  0
 14 15  1  0  0  0  0
 15  9  1  0  0  0  0
 16 18  1  0  0  0  0
 17 16  1  0  0  0  0
 19 16  1  0  0  0  0
M  END
>  <minimizedAffinity>
-4.3381176

>  <minimizedRMSD>
1.88557017

$$$$
