
     RDKit          3D

 28 29  0  0  0  0  0  0  0  0999 V2000
   37.9744   28.8846   43.3768 C   0  0  0  0  0  0  0  0  0  0  0  0
   38.0829   27.4757   43.3016 C   0  0  0  0  0  0  0  0  0  0  0  0
   37.4428   26.8159   42.2553 C   0  0  0  0  0  0  0  0  0  0  0  0
   36.7350   27.5728   41.3454 N   0  0  0  0  0  0  0  0  0  0  0  0
   36.6551   28.9126   41.4509 C   0  0  0  0  0  0  0  0  0  0  0  0
   37.2668   29.5563   42.4530 N   0  0  0  0  0  0  0  0  0  0  0  0
   37.5325   25.3362   42.1408 C   0  0  0  0  0  0  0  0  0  0  0  0
   37.6550   25.0492   40.8055 F   0  0  0  0  0  0  0  0  0  0  0  0
   38.6202   24.8348   42.7998 F   0  0  0  0  0  0  0  0  0  0  0  0
   36.3812   24.7169   42.6440 F   0  0  0  0  0  0  0  0  0  0  0  0
   38.4624   29.4214   44.1799 H   0  0  0  0  0  0  0  0  0  0  0  0
   38.6539   26.9314   44.0466 H   0  0  0  0  0  0  0  0  0  0  0  0
   35.9311   29.6616   40.5159 N   0  0  0  0  0  0  0  0  0  0  0  0
   34.7747   29.1825   39.8003 C   0  0  0  0  0  0  0  0  0  0  0  0
   35.1810   29.1131   38.3498 C   0  0  0  0  0  0  0  0  0  0  0  0
   35.7990   30.3713   37.8360 C   0  0  0  0  0  0  0  0  0  0  0  0
   35.1582   30.7455   37.0079 H   0  0  0  0  0  0  0  0  0  0  0  0
   35.9539   31.4711   38.8288 C   0  0  0  0  0  0  0  0  0  0  0  0
   36.3371   31.0362   40.2073 C   0  0  0  0  0  0  0  0  0  0  0  0
   34.4104   28.1995   40.1017 H   0  0  0  0  0  0  0  0  0  0  0  0
   33.9161   29.8981   39.8741 H   0  0  0  0  0  0  0  0  0  0  0  0
   34.2812   28.7878   37.7847 H   0  0  0  0  0  0  0  0  0  0  0  0
   35.8915   28.2632   38.2528 H   0  0  0  0  0  0  0  0  0  0  0  0
   36.7886   30.1475   37.3751 H   0  0  0  0  0  0  0  0  0  0  0  0
   35.0500   32.1165   38.8635 H   0  0  0  0  0  0  0  0  0  0  0  0
   36.7571   32.1588   38.4634 H   0  0  0  0  0  0  0  0  0  0  0  0
   37.4179   31.1606   40.4267 H   0  0  0  0  0  0  0  0  0  0  0  0
   35.7951   31.6637   40.9663 H   0  0  0  0  0  0  0  0  0  0  0  0
  2  1  2  0
  3  2  1  0
  4  5  1  0
  4  3  2  0
  5  6  2  0
  6  1  1  0
  7  3  1  0
  7 10  1  0
  7  9  1  0
  8  7  1  0
  1 11  1  0
  2 12  1  0
 13 14  1  0
 14 15  1  0
 15 16  1  0
 16 17  1  0
 16 18  1  0
 18 19  1  0
 19 13  1  0
 14 20  1  0
 14 21  1  0
 15 22  1  0
 15 23  1  0
 16 24  1  0
 18 25  1  0
 18 26  1  0
 19 27  1  0
 19 28  1  0
  5 13  1  0
M  ISO  3  11  14  12  14  17  15
M  END
>  <DihAtoms>  (1) 
3,4,12,13

>  <DihDeg>  (1) 
-179.99036623504807

$$$$
