
 OpenBabel03242509293D

 19 20  0  0  0  0  0  0  0  0999 V2000
   37.7910   28.5390   43.6420 C   0  0  0  0  0  0  0  0  0  0  0  0
   37.7680   27.1600   43.3230 C   0  0  0  0  0  0  0  0  0  0  0  0
   37.3120   26.7780   42.0630 C   0  0  0  0  0  0  0  0  0  0  0  0
   36.9070   27.7670   41.1900 N   0  0  0  0  0  0  0  0  0  0  0  0
   36.9450   29.0690   41.5310 C   0  0  0  0  0  0  0  0  0  0  0  0
   37.3820   29.4460   42.7400 N   0  0  0  0  0  0  0  0  0  0  0  0
   38.1410   28.8610   44.6130 H   0  0  0  0  0  0  0  0  0  0  0  0
   38.0980   26.4250   44.0500 H   0  0  0  0  0  0  0  0  0  0  0  0
   36.5290   30.0560   40.6300 N   0  0  0  0  0  0  0  0  0  0  0  0
   35.5190   29.8700   39.6190 C   0  0  0  0  0  2  0  0  0  0  0  0
   36.2280   29.9820   38.2940 C   0  0  0  0  0  2  0  0  0  0  0  0
   37.0720   31.2060   38.1630 C   0  0  0  0  0  3  0  0  0  0  0  0
   36.6740   31.7980   37.3100 H   0  0  0  0  0  0  0  0  0  0  0  0
   37.1150   32.0950   39.3580 C   0  0  0  0  0  2  0  0  0  0  0  0
   37.1340   31.3910   40.6770 C   0  0  0  0  0  2  0  0  0  0  0  0
   37.2700   25.3400   41.6890 C   0  0  0  0  0  0  0  0  0  0  0  0
   36.7600   25.2760   40.4180 F   0  0  0  0  0  0  0  0  0  0  0  0
   38.5140   24.7720   41.6920 F   0  0  0  0  0  0  0  0  0  0  0  0
   36.4450   24.6130   42.5570 F   0  0  0  0  0  0  0  0  0  0  0  0
  1  7  1  0  0  0  0
  2  1  1  0  0  0  0
  2  8  1  0  0  0  0
  3  2  2  0  0  0  0
  4  5  2  0  0  0  0
  4  3  1  0  0  0  0
  5  6  1  0  0  0  0
  6  1  2  0  0  0  0
  9 15  1  0  0  0  0
  9  5  1  0  0  0  0
 10  9  1  0  0  0  0
 11 10  1  0  0  0  0
 12 11  1  0  0  0  0
 12 14  1  0  0  0  0
 13 12  1  0  0  0  0
 14 15  1  0  0  0  0
 16 18  1  0  0  0  0
 16  3  1  0  0  0  0
 16 19  1  0  0  0  0
 17 16  1  0  0  0  0
M  END
>  <minimizedAffinity>
-5.05796099

>  <minimizedRMSD>
0.873101175

$$$$
