
     RDKit          3D

 28 29  0  0  0  0  0  0  0  0999 V2000
   37.9744   28.8846   43.3768 C   0  0  0  0  0  0  0  0  0  0  0  0
   38.0829   27.4757   43.3016 C   0  0  0  0  0  0  0  0  0  0  0  0
   37.4428   26.8159   42.2553 C   0  0  0  0  0  0  0  0  0  0  0  0
   36.7350   27.5728   41.3454 N   0  0  0  0  0  0  0  0  0  0  0  0
   36.6551   28.9126   41.4509 C   0  0  0  0  0  0  0  0  0  0  0  0
   37.2668   29.5563   42.4530 N   0  0  0  0  0  0  0  0  0  0  0  0
   37.5325   25.3362   42.1408 C   0  0  0  0  0  0  0  0  0  0  0  0
   37.6550   25.0492   40.8055 F   0  0  0  0  0  0  0  0  0  0  0  0
   38.6202   24.8348   42.7998 F   0  0  0  0  0  0  0  0  0  0  0  0
   36.3812   24.7169   42.6440 F   0  0  0  0  0  0  0  0  0  0  0  0
   38.4624   29.4214   44.1799 H   0  0  0  0  0  0  0  0  0  0  0  0
   38.6539   26.9314   44.0466 H   0  0  0  0  0  0  0  0  0  0  0  0
   35.9311   29.6616   40.5159 N   0  0  0  0  0  0  0  0  0  0  0  0
   34.5213   29.5066   40.2561 C   0  0  0  0  0  0  0  0  0  0  0  0
   34.4120   28.9874   38.8446 C   0  0  0  0  0  0  0  0  0  0  0  0
   35.1817   29.7877   37.8466 C   0  0  0  0  0  0  0  0  0  0  0  0
   34.4550   30.1894   37.1070 H   0  0  0  0  0  0  0  0  0  0  0  0
   35.9594   30.9341   38.3943 C   0  0  0  0  0  0  0  0  0  0  0  0
   36.6085   30.6890   39.7191 C   0  0  0  0  0  0  0  0  0  0  0  0
   33.9956   28.8163   40.9171 H   0  0  0  0  0  0  0  0  0  0  0  0
   33.9827   30.4879   40.2951 H   0  0  0  0  0  0  0  0  0  0  0  0
   33.3266   28.9080   38.6202 H   0  0  0  0  0  0  0  0  0  0  0  0
   34.7700   27.9347   38.8581 H   0  0  0  0  0  0  0  0  0  0  0  0
   35.8631   29.1210   37.2695 H   0  0  0  0  0  0  0  0  0  0  0  0
   35.3468   31.8605   38.4286 H   0  0  0  0  0  0  0  0  0  0  0  0
   36.7734   31.1810   37.6675 H   0  0  0  0  0  0  0  0  0  0  0  0
   37.6891   30.4467   39.6449 H   0  0  0  0  0  0  0  0  0  0  0  0
   36.5442   31.6176   40.3494 H   0  0  0  0  0  0  0  0  0  0  0  0
  2  1  2  0
  3  2  1  0
  4  5  1  0
  4  3  2  0
  5  6  2  0
  6  1  1  0
  7  3  1  0
  7 10  1  0
  7  9  1  0
  8  7  1  0
  1 11  1  0
  2 12  1  0
 13 14  1  0
 14 15  1  0
 15 16  1  0
 16 17  1  0
 16 18  1  0
 18 19  1  0
 19 13  1  0
 14 20  1  0
 14 21  1  0
 15 22  1  0
 15 23  1  0
 16 24  1  0
 18 25  1  0
 18 26  1  0
 19 27  1  0
 19 28  1  0
  5 13  1  0
M  ISO  3  11  14  12  14  17  15
M  END
>  <DihAtoms>  (1) 
3,4,12,13

>  <DihDeg>  (1) 
-179.99036623504807

$$$$
