
 OpenBabel03242509293D

 19 20  0  0  0  0  0  0  0  0999 V2000
   37.8800   28.6160   43.5960 C   0  0  0  0  0  0  0  0  0  0  0  0
   37.9930   27.2100   43.4840 C   0  0  0  0  0  0  0  0  0  0  0  0
   37.5400   26.5990   42.3170 C   0  0  0  0  0  0  0  0  0  0  0  0
   37.0040   27.3990   41.3290 N   0  0  0  0  0  0  0  0  0  0  0  0
   36.9140   28.7350   41.4740 C   0  0  0  0  0  0  0  0  0  0  0  0
   37.3470   29.3310   42.5920 N   0  0  0  0  0  0  0  0  0  0  0  0
   38.2250   29.1150   44.4920 H   0  0  0  0  0  0  0  0  0  0  0  0
   38.4230   26.6300   44.2940 H   0  0  0  0  0  0  0  0  0  0  0  0
   36.3660   29.5290   40.4590 N   0  0  0  0  0  0  0  0  0  0  0  0
   35.0210   29.4010   39.9540 C   0  0  0  0  0  2  0  0  0  0  0  0
   35.1550   28.9370   38.5250 C   0  0  0  0  0  2  0  0  0  0  0  0
   36.0900   29.7670   37.7080 C   0  0  0  0  0  3  0  0  0  0  0  0
   35.5040   30.2050   36.8710 H   0  0  0  0  0  0  0  0  0  0  0  0
   36.7670   30.8810   38.4270 C   0  0  0  0  0  2  0  0  0  0  0  0
   37.1760   30.5770   39.8330 C   0  0  0  0  0  2  0  0  0  0  0  0
   37.6390   25.1240   42.1600 C   0  0  0  0  0  0  0  0  0  0  0  0
   37.8850   24.8820   40.8330 F   0  0  0  0  0  0  0  0  0  0  0  0
   38.6620   24.5970   42.8990 F   0  0  0  0  0  0  0  0  0  0  0  0
   36.4470   24.4910   42.5330 F   0  0  0  0  0  0  0  0  0  0  0  0
  1  7  1  0  0  0  0
  2  1  1  0  0  0  0
  2  8  1  0  0  0  0
  3  2  2  0  0  0  0
  4  5  2  0  0  0  0
  4  3  1  0  0  0  0
  5  6  1  0  0  0  0
  6  1  2  0  0  0  0
  9  5  1  0  0  0  0
 10  9  1  0  0  0  0
 11 10  1  0  0  0  0
 12 14  1  0  0  0  0
 12 11  1  0  0  0  0
 13 12  1  0  0  0  0
 14 15  1  0  0  0  0
 15  9  1  0  0  0  0
 16  3  1  0  0  0  0
 16 19  1  0  0  0  0
 16 18  1  0  0  0  0
 17 16  1  0  0  0  0
M  END
>  <minimizedAffinity>
-4.97233009

>  <minimizedRMSD>
0.495162576

$$$$
