
 OpenBabel03242509203D

 29 31  0  0  0  0  0  0  0  0999 V2000
   38.0800   28.5480   42.1220 C   0  0  0  0  0  0  0  0  0  0  0  0
   36.8310   28.0790   41.8770 C   0  0  0  0  0  0  0  0  0  0  0  0
   36.1020   29.0420   41.2370 C   0  0  0  0  0  0  0  0  0  0  0  0
   36.9920   30.1090   41.1180 N   0  0  0  0  0  0  0  0  0  0  0  0
   38.1250   29.7930   41.6380 N   0  0  0  0  0  0  0  0  0  0  0  0
   36.4210   27.0830   42.1360 H   0  0  0  0  0  0  0  0  0  0  0  0
   35.0610   28.9170   40.9190 H   0  0  0  0  0  0  0  0  0  0  0  0
   40.0120   25.8900   43.8990 C   0  0  0  0  0  0  0  0  0  0  0  0
   38.9590   26.5400   43.2620 C   0  0  0  0  0  0  0  0  0  0  0  0
   39.1310   27.8280   42.7770 C   0  0  0  0  0  0  0  0  0  0  0  0
   40.3420   28.4180   42.9400 N   0  0  0  0  0  0  0  0  0  0  0  0
   41.3590   27.7510   43.5690 C   0  0  0  0  0  0  0  0  0  0  0  0
   41.1980   26.5150   44.0380 N   0  0  0  0  0  0  0  0  0  0  0  0
   39.7220   24.8800   44.2250 H   0  0  0  0  0  0  0  0  0  0  0  0
   37.9620   26.1080   43.0960 H   0  0  0  0  0  0  0  0  0  0  0  0
   42.3360   28.1930   43.7040 H   0  0  0  0  0  0  0  0  0  0  0  0
   36.5690   31.3570   40.4710 C   0  0  0  0  0  0  0  0  0  0  0  0
   35.4520   31.4490   40.6110 H   0  0  0  0  0  0  0  0  0  0  0  0
   37.0530   32.2330   40.9200 H   0  0  0  0  0  0  0  0  0  0  0  0
   36.8950   31.3360   39.0010 C   0  0  0  0  0  0  0  0  0  0  0  0
   37.3740   30.3970   38.7470 H   0  0  0  0  0  0  0  0  0  0  0  0
   35.9640   31.5110   38.4440 H   0  0  0  0  0  0  0  0  0  0  0  0
   37.8090   32.4730   38.8110 N   0  0  0  0  0  0  0  0  0  0  0  0
   37.5400   33.5240   39.7110 C   0  0  0  0  0  0  0  0  0  0  0  0
   38.5990   34.1610   40.4940 C   0  0  0  0  0  0  0  0  0  0  0  0
   39.9460   34.1070   39.8260 C   0  0  0  0  0  0  0  0  0  0  0  0
   39.9910   34.8740   39.0320 H   0  0  0  0  0  0  0  0  0  0  0  0
   40.2610   32.7420   39.2830 C   0  0  0  0  0  0  0  0  0  0  0  0
   39.1410   31.9930   38.7230 C   0  0  0  0  0  0  0  0  0  0  0  0
  1 10  1  0  0  0  0
  2  1  1  0  0  0  0
  2  6  1  0  0  0  0
  3  2  2  0  0  0  0
  4  3  1  0  0  0  0
  4  5  1  0  0  0  0
  5  1  2  0  0  0  0
  7  3  1  0  0  0  0
  8 13  1  0  0  0  0
  8 14  1  0  0  0  0
  9  8  2  0  0  0  0
 10 11  2  0  0  0  0
 10  9  1  0  0  0  0
 11 12  1  0  0  0  0
 12 16  1  0  0  0  0
 12 13  2  0  0  0  0
 15  9  1  0  0  0  0
 17 18  1  0  0  0  0
 17 19  1  0  0  0  0
 17  4  1  0  0  0  0
 20 17  1  0  0  0  0
 21 20  1  0  0  0  0
 22 20  1  0  0  0  0
 23 20  1  0  0  0  0
 23 24  1  0  0  0  0
 24 25  1  0  0  0  0
 26 25  1  0  0  0  0
 27 26  1  0  0  0  0
 28 26  1  0  0  0  0
 29 23  1  0  0  0  0
 29 28  2  0  0  0  0
M  END
>  <minimizedAffinity>
-4.75994492

>  <minimizedRMSD>
4.28201246

$$$$
