
 OpenBabel03242509303D

 19 20  0  0  0  0  0  0  0  0999 V2000
   37.8610   28.5990   43.5360 C   0  0  0  0  0  0  0  0  0  0  0  0
   38.0920   27.2050   43.4560 C   0  0  0  0  0  0  0  0  0  0  0  0
   37.7330   26.5390   42.2860 C   0  0  0  0  0  0  0  0  0  0  0  0
   37.1700   27.2750   41.2650 N   0  0  0  0  0  0  0  0  0  0  0  0
   36.9660   28.6020   41.3790 C   0  0  0  0  0  0  0  0  0  0  0  0
   37.3090   29.2500   42.4990 N   0  0  0  0  0  0  0  0  0  0  0  0
   38.1320   29.1390   44.4330 H   0  0  0  0  0  0  0  0  0  0  0  0
   38.5390   26.6750   44.2920 H   0  0  0  0  0  0  0  0  0  0  0  0
   36.3940   29.3300   40.3300 N   0  0  0  0  0  0  0  0  0  0  0  0
   34.9790   29.5530   40.1640 C   0  0  0  0  0  2  0  0  0  0  0  0
   34.5860   28.8190   38.9060 C   0  0  0  0  0  2  0  0  0  0  0  0
   35.4460   29.1390   37.7290 C   0  0  0  0  0  3  0  0  0  0  0  0
   34.7920   29.5830   36.9470 H   0  0  0  0  0  0  0  0  0  0  0  0
   36.5680   30.0870   37.9810 C   0  0  0  0  0  2  0  0  0  0  0  0
   37.2500   29.9290   39.3020 C   0  0  0  0  0  2  0  0  0  0  0  0
   37.9570   25.0740   42.1630 C   0  0  0  0  0  0  0  0  0  0  0  0
   38.3850   24.8460   40.8800 F   0  0  0  0  0  0  0  0  0  0  0  0
   38.9140   24.6260   43.0310 F   0  0  0  0  0  0  0  0  0  0  0  0
   36.7760   24.3570   42.3910 F   0  0  0  0  0  0  0  0  0  0  0  0
  1  7  1  0  0  0  0
  2  1  1  0  0  0  0
  2  8  1  0  0  0  0
  3  2  2  0  0  0  0
  4  5  2  0  0  0  0
  4  3  1  0  0  0  0
  5  6  1  0  0  0  0
  6  1  2  0  0  0  0
  9  5  1  0  0  0  0
 10  9  1  0  0  0  0
 11 10  1  0  0  0  0
 12 14  1  0  0  0  0
 12 11  1  0  0  0  0
 13 12  1  0  0  0  0
 14 15  1  0  0  0  0
 15  9  1  0  0  0  0
 16  3  1  0  0  0  0
 16 19  1  0  0  0  0
 16 18  1  0  0  0  0
 17 16  1  0  0  0  0
M  END
>  <minimizedAffinity>
-4.8020854

>  <minimizedRMSD>
0.666839838

$$$$
