
     RDKit          3D

 55 59  0  0  0  0  0  0  0  0999 V2000
   35.2836   29.4953   40.0775 C   0  0  0  0  0  0  0  0  0  0  0  0
   35.8935   29.4181   38.7216 C   0  0  0  0  0  0  0  0  0  0  0  0
   37.2074   29.5752   38.3912 C   0  0  0  0  0  0  0  0  0  0  0  0
   37.7184   29.5809   37.1325 C   0  0  0  0  0  0  0  0  0  0  0  0
   36.8694   29.4179   36.0600 C   0  0  0  0  0  0  0  0  0  0  0  0
   35.5176   29.2507   36.3268 C   0  0  0  0  0  0  0  0  0  0  0  0
   34.7225   29.0895   35.2080 C   0  0  0  0  0  0  0  0  0  0  0  0
   33.3836   28.9096   35.3766 C   0  0  0  0  0  0  0  0  0  0  0  0
   32.8447   28.8883   36.6467 C   0  0  0  0  0  0  0  0  0  0  0  0
   33.6984   29.0561   37.7114 C   0  0  0  0  0  0  0  0  0  0  0  0
   35.0369   29.2469   37.6258 C   0  0  0  0  0  0  0  0  0  0  0  0
   33.0949   29.0073   38.9611 O   0  0  0  0  0  0  0  0  0  0  0  0
   36.1699   30.0878   41.1316 C   0  0  0  0  0  0  0  0  0  0  0  0
   38.6527   28.1617   42.7174 C   0  0  0  0  0  0  0  0  0  0  0  0
   37.5606   27.3454   42.8645 C   0  0  0  0  0  0  0  0  0  0  0  0
   36.4876   28.0019   42.2676 C   0  0  0  0  0  0  0  0  0  0  0  0
   37.0117   29.1564   41.8094 N   0  0  0  0  0  0  0  0  0  0  0  0
   38.2814   29.2896   42.0530 N   0  0  0  0  0  0  0  0  0  0  0  0
   41.5788   26.5516   44.3567 C   0  0  0  0  0  0  0  0  0  0  0  0
   40.2608   26.7415   43.9377 C   0  0  0  0  0  0  0  0  0  0  0  0
   39.9996   27.9086   43.1783 C   0  0  0  0  0  0  0  0  0  0  0  0
   40.9955   28.7611   42.8983 N   0  0  0  0  0  0  0  0  0  0  0  0
   42.2628   28.5157   43.3389 C   0  0  0  0  0  0  0  0  0  0  0  0
   42.5546   27.4157   44.0654 N   0  0  0  0  0  0  0  0  0  0  0  0
   34.5578   30.3672   39.9576 H   0  0  0  0  0  0  0  0  0  0  0  0
   34.8361   28.5859   40.4442 H   0  0  0  0  0  0  0  0  0  0  0  0
   37.8889   29.7063   39.2300 H   0  0  0  0  0  0  0  0  0  0  0  0
   38.7842   29.7139   37.0027 H   0  0  0  0  0  0  0  0  0  0  0  0
   37.2781   29.4253   35.0588 H   0  0  0  0  0  0  0  0  0  0  0  0
   35.1280   29.1014   34.2044 H   0  0  0  0  0  0  0  0  0  0  0  0
   32.7406   28.7831   34.5157 H   0  0  0  0  0  0  0  0  0  0  0  0
   31.7805   28.7424   36.7711 H   0  0  0  0  0  0  0  0  0  0  0  0
   32.1394   29.2442   39.1395 H   0  0  0  0  0  0  0  0  0  0  0  0
   36.7856   30.8564   40.6191 H   0  0  0  0  0  0  0  0  0  0  0  0
   35.6076   30.6391   41.9080 H   0  0  0  0  0  0  0  0  0  0  0  0
   37.5590   26.3736   43.3582 H   0  0  0  0  0  0  0  0  0  0  0  0
   35.5046   27.6017   42.2299 H   0  0  0  0  0  0  0  0  0  0  0  0
   41.7416   25.6414   44.9392 H   0  0  0  0  0  0  0  0  0  0  0  0
   39.4814   26.0357   44.1799 H   0  0  0  0  0  0  0  0  0  0  0  0
   43.2922   29.4411   43.0231 N   0  0  0  0  0  0  0  0  0  0  0  0
   44.6612   28.9900   42.8673 C   0  0  0  0  0  0  0  0  0  0  0  0
   45.1731   29.3564   41.5011 C   0  0  0  0  0  0  0  0  0  0  0  0
   44.2675   30.3518   40.8060 C   0  0  0  0  0  0  0  0  0  0  0  0
   44.7868   30.8371   39.9689 H   0  0  0  0  0  0  0  0  0  0  0  0
   43.8838   31.4299   41.7807 C   0  0  0  0  0  0  0  0  0  0  0  0
   42.9945   30.8494   42.8510 C   0  0  0  0  0  0  0  0  0  0  0  0
   45.2421   29.5711   43.6401 H   0  0  0  0  0  0  0  0  0  0  0  0
   44.7928   27.9324   43.1077 H   0  0  0  0  0  0  0  0  0  0  0  0
   45.2035   28.4252   40.8901 H   0  0  0  0  0  0  0  0  0  0  0  0
   46.1956   29.7626   41.5441 H   0  0  0  0  0  0  0  0  0  0  0  0
   43.3726   29.8449   40.4468 H   0  0  0  0  0  0  0  0  0  0  0  0
   43.3046   32.2244   41.2537 H   0  0  0  0  0  0  0  0  0  0  0  0
   44.7585   31.8907   42.2743 H   0  0  0  0  0  0  0  0  0  0  0  0
   41.9357   30.9838   42.5567 H   0  0  0  0  0  0  0  0  0  0  0  0
   43.1386   31.3350   43.8350 H   0  0  0  0  0  0  0  0  0  0  0  0
  1 13  1  0
  2  1  1  0
  3  2  2  0
  4  3  1  0
  5  6  1  0
  5  4  2  0
  6 11  2  0
  7  8  2  0
  7  6  1  0
  8  9  1  0
  9 10  2  0
 10 12  1  0
 11 10  1  0
 11  2  1  0
 13 17  1  0
 14 15  1  0
 14 21  1  0
 16 15  2  0
 17 18  1  0
 17 16  1  0
 18 14  2  0
 20 19  2  0
 21 20  1  0
 22 21  2  0
 22 23  1  0
 23 24  2  0
 24 19  1  0
  1 25  1  0
  1 26  1  0
  3 27  1  0
  4 28  1  0
  5 29  1  0
  7 30  1  0
  8 31  1  0
  9 32  1  0
 12 33  1  0
 13 34  1  0
 13 35  1  0
 15 36  1  0
 16 37  1  0
 19 38  1  0
 20 39  1  0
 40 41  1  0
 41 42  1  0
 42 43  1  0
 43 44  1  0
 43 45  1  0
 45 46  1  0
 46 40  1  0
 41 47  1  0
 41 48  1  0
 42 49  1  0
 42 50  1  0
 43 51  1  0
 45 52  1  0
 45 53  1  0
 46 54  1  0
 46 55  1  0
 23 40  1  0
M  ISO  8  25   8  26   8  27  14  28  14  29  14  30  14  31  14  32  14
M  ISO  8  33   3  34   8  35   8  36  14  37  14  38  14  39  14  44  15
M  END
>  <DihAtoms>  (1) 
21,22,39,40

>  <DihDeg>  (1) 
179.99927874388396

$$$$
