
     RDKit          3D

 28 29  0  0  0  0  0  0  0  0999 V2000
   37.9744   28.8846   43.3768 C   0  0  0  0  0  0  0  0  0  0  0  0
   38.0829   27.4757   43.3016 C   0  0  0  0  0  0  0  0  0  0  0  0
   37.4428   26.8159   42.2553 C   0  0  0  0  0  0  0  0  0  0  0  0
   36.7350   27.5728   41.3454 N   0  0  0  0  0  0  0  0  0  0  0  0
   36.6551   28.9126   41.4509 C   0  0  0  0  0  0  0  0  0  0  0  0
   37.2668   29.5563   42.4530 N   0  0  0  0  0  0  0  0  0  0  0  0
   37.5325   25.3362   42.1408 C   0  0  0  0  0  0  0  0  0  0  0  0
   37.6550   25.0492   40.8055 F   0  0  0  0  0  0  0  0  0  0  0  0
   38.6202   24.8348   42.7998 F   0  0  0  0  0  0  0  0  0  0  0  0
   36.3812   24.7169   42.6440 F   0  0  0  0  0  0  0  0  0  0  0  0
   38.4624   29.4214   44.1799 H   0  0  0  0  0  0  0  0  0  0  0  0
   38.6539   26.9314   44.0466 H   0  0  0  0  0  0  0  0  0  0  0  0
   35.9311   29.6616   40.5159 N   0  0  0  0  0  0  0  0  0  0  0  0
   35.2646   30.9075   40.8029 C   0  0  0  0  0  0  0  0  0  0  0  0
   33.7893   30.6366   40.6479 C   0  0  0  0  0  0  0  0  0  0  0  0
   33.4294   29.9791   39.3567 C   0  0  0  0  0  0  0  0  0  0  0  0
   32.7410   30.6624   38.8132 H   0  0  0  0  0  0  0  0  0  0  0  0
   34.5683   29.6601   38.4510 C   0  0  0  0  0  0  0  0  0  0  0  0
   35.8126   29.1884   39.1333 C   0  0  0  0  0  0  0  0  0  0  0  0
   35.4358   31.3122   41.8012 H   0  0  0  0  0  0  0  0  0  0  0  0
   35.5387   31.7036   40.0641 H   0  0  0  0  0  0  0  0  0  0  0  0
   33.2703   31.6034   40.8230 H   0  0  0  0  0  0  0  0  0  0  0  0
   33.4851   29.9991   41.5068 H   0  0  0  0  0  0  0  0  0  0  0  0
   32.8428   29.0523   39.5532 H   0  0  0  0  0  0  0  0  0  0  0  0
   34.7970   30.5097   37.7722 H   0  0  0  0  0  0  0  0  0  0  0  0
   34.2427   28.8457   37.7564 H   0  0  0  0  0  0  0  0  0  0  0  0
   35.9416   28.0864   39.1073 H   0  0  0  0  0  0  0  0  0  0  0  0
   36.7137   29.6158   38.6146 H   0  0  0  0  0  0  0  0  0  0  0  0
  2  1  2  0
  3  2  1  0
  4  5  1  0
  4  3  2  0
  5  6  2  0
  6  1  1  0
  7  3  1  0
  7 10  1  0
  7  9  1  0
  8  7  1  0
  1 11  1  0
  2 12  1  0
 13 14  1  0
 14 15  1  0
 15 16  1  0
 16 17  1  0
 16 18  1  0
 18 19  1  0
 19 13  1  0
 14 20  1  0
 14 21  1  0
 15 22  1  0
 15 23  1  0
 16 24  1  0
 18 25  1  0
 18 26  1  0
 19 27  1  0
 19 28  1  0
  5 13  1  0
M  ISO  3  11  14  12  14  17  15
M  END
>  <DihAtoms>  (1) 
3,4,12,13

>  <DihDeg>  (1) 
-179.99036623504807

$$$$
