
 OpenBabel03242509293D

 19 20  0  0  0  0  0  0  0  0999 V2000
   37.8500   28.5480   43.6830 C   0  0  0  0  0  0  0  0  0  0  0  0
   38.3530   27.2260   43.7170 C   0  0  0  0  0  0  0  0  0  0  0  0
   38.2850   26.4610   42.5540 C   0  0  0  0  0  0  0  0  0  0  0  0
   37.7300   27.0350   41.4290 N   0  0  0  0  0  0  0  0  0  0  0  0
   37.2630   28.2970   41.4370 C   0  0  0  0  0  0  0  0  0  0  0  0
   37.3240   29.0400   42.5490 N   0  0  0  0  0  0  0  0  0  0  0  0
   37.8920   29.1630   44.5720 H   0  0  0  0  0  0  0  0  0  0  0  0
   38.7790   26.8250   44.6310 H   0  0  0  0  0  0  0  0  0  0  0  0
   36.7040   28.8600   40.2840 N   0  0  0  0  0  0  0  0  0  0  0  0
   35.6720   29.8660   40.2810 C   0  0  0  0  0  2  0  0  0  0  0  0
   34.4540   29.2140   39.6760 C   0  0  0  0  0  2  0  0  0  0  0  0
   34.7190   28.5360   38.3720 C   0  0  0  0  0  3  0  0  0  0  0  0
   34.0850   29.0290   37.6030 H   0  0  0  0  0  0  0  0  0  0  0  0
   36.1300   28.5750   37.8940 C   0  0  0  0  0  2  0  0  0  0  0  0
   37.1680   28.4290   38.9610 C   0  0  0  0  0  2  0  0  0  0  0  0
   38.8000   25.0660   42.5480 C   0  0  0  0  0  0  0  0  0  0  0  0
   39.5190   24.9150   41.3900 F   0  0  0  0  0  0  0  0  0  0  0  0
   39.6230   24.8180   43.6110 F   0  0  0  0  0  0  0  0  0  0  0  0
   37.7530   24.1360   42.5670 F   0  0  0  0  0  0  0  0  0  0  0  0
  1  2  1  0  0  0  0
  1  7  1  0  0  0  0
  2  8  1  0  0  0  0
  3  2  2  0  0  0  0
  4  5  2  0  0  0  0
  4  3  1  0  0  0  0
  5  6  1  0  0  0  0
  6  1  2  0  0  0  0
  9  5  1  0  0  0  0
 10  9  1  0  0  0  0
 11 10  1  0  0  0  0
 12 11  1  0  0  0  0
 13 12  1  0  0  0  0
 14 12  1  0  0  0  0
 14 15  1  0  0  0  0
 15  9  1  0  0  0  0
 16  3  1  0  0  0  0
 16 19  1  0  0  0  0
 16 18  1  0  0  0  0
 17 16  1  0  0  0  0
M  END
>  <minimizedAffinity>
-4.64427805

>  <minimizedRMSD>
1.38422799

$$$$
