
 OpenBabel03242507403D

 27 28  0  0  0  0  0  0  0  0999 V2000
   39.3650   27.5770   43.5080 C   0  0  0  0  0  0  0  0  0  0  0  0
   38.7060   26.3390   43.4390 C   0  0  0  0  0  0  0  0  0  0  0  0
   37.7910   26.1720   42.3820 C   0  0  0  0  0  0  0  0  0  0  0  0
   37.5930   27.1800   41.5040 N   0  0  0  0  0  0  0  0  0  0  0  0
   38.2530   28.3560   41.6120 C   0  0  0  0  0  0  0  0  0  0  0  0
   39.1340   28.5510   42.6100 N   0  0  0  0  0  0  0  0  0  0  0  0
   37.0530   24.9920   42.1740 N   0  0  0  0  0  0  0  0  0  0  0  0
   38.0760   29.4450   40.7120 N   0  0  0  0  0  0  0  0  0  0  0  0
   37.2710   29.1930   39.6410 C   0  0  0  0  0  0  0  0  0  0  0  0
   36.9810   30.1180   38.6650 C   0  0  0  0  0  0  0  0  0  0  0  0
   37.5480   31.3630   38.8000 C   0  0  0  0  0  0  0  0  0  0  0  0
   37.3350   32.2720   37.9510 O   0  0  0  0  0  0  0  0  0  0  0  0
   38.3500   31.6000   39.8750 N   0  0  0  0  0  0  0  0  0  0  0  0
   38.6040   30.6680   40.7980 C   0  0  0  0  0  0  0  0  0  0  0  0
   39.3390   30.8650   41.7950 O   0  0  0  0  0  0  0  0  0  0  0  0
   40.0540   27.6470   44.3380 H   0  0  0  0  0  0  0  0  0  0  0  0
   38.8030   25.5010   44.0810 H   0  0  0  0  0  0  0  0  0  0  0  0
   36.0040   24.8410   42.2750 H   0  0  0  0  0  0  0  0  0  0  0  0
   37.3130   24.0220   41.8890 H   0  0  0  0  0  0  0  0  0  0  0  0
   36.8120   28.2210   39.5110 H   0  0  0  0  0  0  0  0  0  0  0  0
   36.0900   29.7710   37.5180 C   0  0  0  0  0  0  0  0  0  0  0  0
   35.8120   28.7070   37.6040 H   0  0  0  0  0  0  0  0  0  0  0  0
   36.6270   29.9250   36.5460 H   0  0  0  0  0  0  0  0  0  0  0  0
   35.1460   30.3580   37.5450 H   0  0  0  0  0  0  0  0  0  0  0  0
   38.9660   32.8800   40.0630 C   0  0  0  0  0  0  0  0  0  0  0  0
   37.8990   33.9470   39.9350 C   0  0  0  0  0  0  0  0  0  0  0  0
   40.0780   33.2220   39.1410 C   0  0  0  0  0  0  0  0  0  0  0  0
  1 16  1  0  0  0  0
  2  1  1  0  0  0  0
  2 17  1  0  0  0  0
  3  2  2  0  0  0  0
  4  5  2  0  0  0  0
  4  3  1  0  0  0  0
  5  6  1  0  0  0  0
  6  1  2  0  0  0  0
  7 18  1  0  0  0  0
  7  3  1  0  0  0  0
  8 14  1  0  0  0  0
  8  5  1  0  0  0  0
  9  8  1  0  0  0  0
 10 11  1  0  0  0  0
 10  9  2  0  0  0  0
 11 13  1  0  0  0  0
 12 11  2  0  0  0  0
 13 25  1  0  0  0  0
 13 14  1  0  0  0  0
 14 15  2  0  0  0  0
 19  7  1  0  0  0  0
 20  9  1  0  0  0  0
 21 24  1  0  0  0  0
 21 22  1  0  0  0  0
 21 10  1  0  0  0  0
 23 21  1  0  0  0  0
 26 25  1  0  0  0  0
 27 25  1  0  0  0  0
M  END
>  <minimizedAffinity>
-4.82281256

>  <minimizedRMSD>
1.5083462

$$$$
