
 OpenBabel03242505593D

 28 30  0  0  1  0  0  0  0  0999 V2000
   37.5450   27.5700   41.3360 N   0  0  0  0  0  0  0  0  0  0  0  0
   37.5910   26.3670   42.1250 C   0  0  0  0  0  0  0  0  0  0  0  0
   38.3790   26.7530   43.3630 C   0  0  0  0  0  0  0  0  0  0  0  0
   38.7860   28.1840   43.1590 C   0  0  0  0  0  0  0  0  0  0  0  0
   38.7740   28.2410   41.6360 C   0  0  2  0  0  0  0  0  0  0  0  0
   38.1220   25.5950   41.5190 H   0  0  0  0  0  0  0  0  0  0  0  0
   36.5620   26.0470   42.3920 H   0  0  0  0  0  0  0  0  0  0  0  0
   37.8190   26.5770   44.2890 H   0  0  0  0  0  0  0  0  0  0  0  0
   39.3130   26.1470   43.4300 H   0  0  0  0  0  0  0  0  0  0  0  0
   39.7790   28.4110   43.5710 H   0  0  0  0  0  0  0  0  0  0  0  0
   37.9780   28.8300   43.5630 H   0  0  0  0  0  0  0  0  0  0  0  0
   39.6270   27.6520   41.2590 H   0  0  0  0  0  0  0  0  0  0  0  0
   35.4860   28.8800   40.8330 C   0  0  0  0  0  0  0  0  0  0  0  0
   36.5310   28.0020   40.4640 C   0  0  0  0  0  0  0  0  0  0  0  0
   36.5530   27.5300   39.1310 C   0  0  0  0  0  0  0  0  0  0  0  0
   35.5740   27.9470   38.2900 N   0  0  0  0  0  0  0  0  0  0  0  0
   34.5890   28.7890   38.6800 C   0  0  0  0  0  0  0  0  0  0  0  0
   34.5540   29.2460   39.9420 N   0  0  0  0  0  0  0  0  0  0  0  0
   35.5250   29.2040   41.8640 H   0  0  0  0  0  0  0  0  0  0  0  0
   37.3200   26.8690   38.8100 H   0  0  0  0  0  0  0  0  0  0  0  0
   33.8620   29.0580   37.9350 H   0  0  0  0  0  0  0  0  0  0  0  0
   38.8170   29.6280   41.2240 N   0  0  0  0  0  0  0  0  0  0  0  0
   39.2570   30.3770   42.4120 C   0  0  0  0  0  0  0  0  0  0  0  0
   40.1430   31.5370   42.0700 C   0  0  0  0  0  0  0  0  0  0  0  0
   39.8380   32.1950   40.7570 C   0  0  0  0  0  0  0  0  0  0  0  0
   40.7270   32.8140   40.4860 H   0  0  0  0  0  0  0  0  0  0  0  0
   39.6420   31.1920   39.6190 C   0  0  0  0  0  0  0  0  0  0  0  0
   39.8640   29.8350   40.2470 C   0  0  0  0  0  0  0  0  0  0  0  0
  1  5  1  0  0  0  0
  1  2  1  0  0  0  0
  2  7  1  0  0  0  0
  2  3  1  0  0  0  0
  3  9  1  0  0  0  0
  3  8  1  0  0  0  0
  4  3  1  0  0  0  0
  4 11  1  0  0  0  0
  4 10  1  0  0  0  0
  5 12  1  6  0  0  0
  5  4  1  0  0  0  0
  6  2  1  0  0  0  0
 13 19  1  0  0  0  0
 14 13  1  0  0  0  0
 14  1  1  0  0  0  0
 15 14  2  0  0  0  0
 16 17  2  0  0  0  0
 16 15  1  0  0  0  0
 17 18  1  0  0  0  0
 18 13  2  0  0  0  0
 20 15  1  0  0  0  0
 21 17  1  0  0  0  0
 22  5  1  0  0  0  0
 22 23  1  0  0  0  0
 24 23  1  0  0  0  0
 25 24  1  0  0  0  0
 26 25  1  0  0  0  0
 27 28  1  0  0  0  0
 27 25  1  0  0  0  0
 28 22  1  0  0  0  0
M  END
>  <minimizedAffinity>
-3.96119714

>  <minimizedRMSD>
2.08200073

$$$$
