
 OpenBabel03242509193D

 19 20  0  0  0  0  0  0  0  0999 V2000
   40.8530   25.9090   43.4920 C   0  0  0  0  0  0  0  0  0  0  0  0
   41.2400   26.8200   44.4370 C   0  0  0  0  0  0  0  0  0  0  0  0
   42.6210   26.7250   44.5610 C   0  0  0  0  0  0  0  0  0  0  0  0
   42.9760   25.7610   43.6790 N   0  0  0  0  0  0  0  0  0  0  0  0
   41.9600   25.2750   43.0480 N   0  0  0  0  0  0  0  0  0  0  0  0
   40.6370   27.5210   45.0250 H   0  0  0  0  0  0  0  0  0  0  0  0
   43.2500   27.3080   45.2250 H   0  0  0  0  0  0  0  0  0  0  0  0
   37.2650   26.3630   42.5830 C   0  0  0  0  0  0  0  0  0  0  0  0
   38.5610   26.6830   43.0330 C   0  0  0  0  0  0  0  0  0  0  0  0
   39.5030   25.6670   43.0460 C   0  0  0  0  0  0  0  0  0  0  0  0
   39.1430   24.4260   42.6290 N   0  0  0  0  0  0  0  0  0  0  0  0
   37.8860   24.1590   42.2030 C   0  0  0  0  0  0  0  0  0  0  0  0
   36.9470   25.1260   42.1800 N   0  0  0  0  0  0  0  0  0  0  0  0
   36.4890   27.1180   42.5520 H   0  0  0  0  0  0  0  0  0  0  0  0
   38.7970   27.6830   43.3540 H   0  0  0  0  0  0  0  0  0  0  0  0
   37.7720   23.1120   41.9070 H   0  0  0  0  0  0  0  0  0  0  0  0
   44.3810   25.3730   43.5210 C   0  0  0  0  0  0  0  0  0  0  0  0
   45.2740   26.1590   44.4390 C   0  0  0  0  0  0  0  0  0  0  0  0
   44.8080   25.7200   42.0860 C   0  0  0  0  0  0  0  0  0  0  0  0
  1  2  1  0  0  0  0
  2  3  2  0  0  0  0
  2  6  1  0  0  0  0
  3  7  1  0  0  0  0
  4  3  1  0  0  0  0
  5  1  2  0  0  0  0
  5  4  1  0  0  0  0
  8  9  1  0  0  0  0
  9 10  2  0  0  0  0
  9 15  1  0  0  0  0
 10  1  1  0  0  0  0
 11 10  1  0  0  0  0
 12 11  2  0  0  0  0
 13 12  1  0  0  0  0
 13  8  2  0  0  0  0
 14  8  1  0  0  0  0
 16 12  1  0  0  0  0
 17  4  1  0  0  0  0
 17 18  1  0  0  0  0
 19 17  1  0  0  0  0
M  END
>  <minimizedAffinity>
-3.4138391

>  <minimizedRMSD>
1.51298285

$$$$
