
     RDKit          3D

 26 27  0  0  0  0  0  0  0  0999 V2000
   37.9703   28.8829   43.3693 C   0  0  0  0  0  0  0  0  0  0  0  0
   38.0822   27.4711   43.3066 C   0  0  0  0  0  0  0  0  0  0  0  0
   37.4349   26.8189   42.2535 C   0  0  0  0  0  0  0  0  0  0  0  0
   36.7369   27.5825   41.3531 N   0  0  0  0  0  0  0  0  0  0  0  0
   36.6584   28.9132   41.4518 C   0  0  0  0  0  0  0  0  0  0  0  0
   37.2683   29.5490   42.4475 N   0  0  0  0  0  0  0  0  0  0  0  0
   37.5314   25.3303   42.1560 C   0  0  0  0  0  0  0  0  0  0  0  0
   37.6489   25.0488   40.8045 F   0  0  0  0  0  0  0  0  0  0  0  0
   38.6336   24.8378   42.7988 F   0  0  0  0  0  0  0  0  0  0  0  0
   36.3811   24.7203   42.6321 F   0  0  0  0  0  0  0  0  0  0  0  0
   38.4663   29.3975   44.1786 H   0  0  0  0  0  0  0  0  0  0  0  0
   38.6631   26.9363   44.0719 H   0  0  0  0  0  0  0  0  0  0  0  0
   35.9227   29.6583   40.4932 N   0  0  0  0  0  0  0  0  0  0  0  0
   35.2321   29.0333   39.3804 C   0  0  0  0  0  0  0  0  0  0  0  0
   34.3096   30.1261   38.8295 C   0  0  0  0  0  0  0  0  0  0  0  0
   33.5755   30.7113   39.8500 O   0  0  0  0  0  0  0  0  0  0  0  0
   34.3471   31.4245   40.7444 C   0  0  0  0  0  0  0  0  0  0  0  0
   35.8244   31.1024   40.5816 C   0  0  0  0  0  0  0  0  0  0  0  0
   34.6233   28.1553   39.6879 H   0  0  0  0  0  0  0  0  0  0  0  0
   35.9832   28.8055   38.6004 H   0  0  0  0  0  0  0  0  0  0  0  0
   33.5880   29.6248   38.1583 H   0  0  0  0  0  0  0  0  0  0  0  0
   34.9156   30.8229   38.2433 H   0  0  0  0  0  0  0  0  0  0  0  0
   34.0338   31.1241   41.7690 H   0  0  0  0  0  0  0  0  0  0  0  0
   34.1712   32.5294   40.6398 H   0  0  0  0  0  0  0  0  0  0  0  0
   36.2265   31.5994   39.6701 H   0  0  0  0  0  0  0  0  0  0  0  0
   36.3889   31.4862   41.4540 H   0  0  0  0  0  0  0  0  0  0  0  0
  2  1  2  0
  3  2  1  0
  4  5  1  0
  4  3  2  0
  5  6  2  0
  6  1  1  0
  7  3  1  0
  7 10  1  0
  7  9  1  0
  8  7  1  0
  1 11  1  0
  2 12  1  0
 13 14  1  0
 14 15  1  0
 15 16  1  0
 16 17  1  0
 17 18  1  0
 18 13  1  0
 14 19  1  0
 14 20  1  0
 15 21  1  0
 15 22  1  0
 17 23  1  0
 17 24  1  0
 18 25  1  0
 18 26  1  0
  5 13  1  0
M  ISO  2  11  14  12  14
M  END
>  <DihAtoms>  (1) 
3,4,12,13

>  <DihDeg>  (1) 
-0.0042601742006946955

$$$$
