
 OpenBabel03242508223D

 13 13  0  0  0  0  0  0  0  0999 V2000
   38.6870   28.7940   43.1680 C   0  0  0  0  0  0  0  0  0  0  0  0
   38.1420   27.5120   43.3860 C   0  0  0  0  0  0  0  0  0  0  0  0
   36.9020   27.2170   42.7710 C   0  0  0  0  0  0  0  0  0  0  0  0
   36.3250   28.1830   42.0170 N   0  0  0  0  0  0  0  0  0  0  0  0
   36.8810   29.3990   41.8350 C   0  0  0  0  0  0  0  0  0  0  0  0
   38.0590   29.7070   42.4060 N   0  0  0  0  0  0  0  0  0  0  0  0
   39.6330   29.0850   43.6090 H   0  0  0  0  0  0  0  0  0  0  0  0
   38.6610   26.7970   43.9980 H   0  0  0  0  0  0  0  0  0  0  0  0
   36.4820   26.2420   42.9330 H   0  0  0  0  0  0  0  0  0  0  0  0
   36.0780   30.1770   41.0260 O   0  0  0  0  0  0  0  0  0  0  0  0
   36.6400   31.3590   40.4850 C   0  0  0  0  0  0  0  0  0  0  0  0
   36.9280   31.1950   38.9890 C   0  0  0  0  0  0  0  0  0  0  0  0
   37.2640   30.1610   38.7930 H   0  0  0  0  0  0  0  0  0  0  0  0
  1  2  1  0  0  0  0
  1  7  1  0  0  0  0
  2  8  1  0  0  0  0
  3  9  1  0  0  0  0
  3  2  2  0  0  0  0
  4  3  1  0  0  0  0
  5  4  2  0  0  0  0
  5  6  1  0  0  0  0
  6  1  2  0  0  0  0
 10  5  1  0  0  0  0
 11 10  1  0  0  0  0
 12 11  1  0  0  0  0
 13 12  1  0  0  0  0
M  END
>  <minimizedAffinity>
-2.99359131

>  <minimizedRMSD>
0.706978679

$$$$
