
 OpenBabel03242509303D

 18 19  0  0  0  0  0  0  0  0999 V2000
   37.5690   28.6480   43.5630 C   0  0  0  0  0  0  0  0  0  0  0  0
   38.1650   27.3750   43.7530 C   0  0  0  0  0  0  0  0  0  0  0  0
   38.4510   26.6210   42.6120 C   0  0  0  0  0  0  0  0  0  0  0  0
   38.1390   27.1560   41.3880 N   0  0  0  0  0  0  0  0  0  0  0  0
   37.5770   28.3620   41.2570 C   0  0  0  0  0  0  0  0  0  0  0  0
   37.2980   29.0930   42.3320 N   0  0  0  0  0  0  0  0  0  0  0  0
   37.3430   29.2400   44.4380 H   0  0  0  0  0  0  0  0  0  0  0  0
   38.3830   27.0220   44.7710 H   0  0  0  0  0  0  0  0  0  0  0  0
   37.2730   28.8720   39.9680 N   0  0  0  0  0  0  0  0  0  0  0  0
   35.9190   28.9230   39.4470 C   0  0  0  0  0  2  0  0  0  0  0  0
   36.0070   29.8390   38.2210 C   0  0  0  0  0  2  0  0  0  0  0  0
   36.6650   31.0180   38.5340 O   0  0  0  0  0  0  0  0  0  0  0  0
   37.9980   30.8400   38.8420 C   0  0  0  0  0  2  0  0  0  0  0  0
   38.3170   29.3740   39.0950 C   0  0  0  0  0  2  0  0  0  0  0  0
   39.0800   25.2740   42.7740 C   0  0  0  0  0  0  0  0  0  0  0  0
   39.9520   25.1360   41.7060 F   0  0  0  0  0  0  0  0  0  0  0  0
   39.7970   25.1720   43.9350 F   0  0  0  0  0  0  0  0  0  0  0  0
   38.1320   24.2650   42.7000 F   0  0  0  0  0  0  0  0  0  0  0  0
  1  2  1  0  0  0  0
  1  7  1  0  0  0  0
  2  8  1  0  0  0  0
  3 15  1  0  0  0  0
  3  2  2  0  0  0  0
  4  3  1  0  0  0  0
  5  4  2  0  0  0  0
  5  6  1  0  0  0  0
  6  1  2  0  0  0  0
  9  5  1  0  0  0  0
 10  9  1  0  0  0  0
 11 12  1  0  0  0  0
 11 10  1  0  0  0  0
 12 13  1  0  0  0  0
 13 14  1  0  0  0  0
 14  9  1  0  0  0  0
 15 17  1  0  0  0  0
 16 15  1  0  0  0  0
 18 15  1  0  0  0  0
M  END
>  <minimizedAffinity>
-4.34676838

>  <minimizedRMSD>
1.66049421

$$$$
