
 OpenBabel03242509073D

 36 40  0  0  1  0  0  0  0  0999 V2000
   36.0950   29.8560   38.2630 C   0  0  0  0  0  0  0  0  0  0  0  0
   36.1440   28.7880   39.1770 C   0  0  0  0  0  0  0  0  0  0  0  0
   36.7950   28.9860   40.3920 C   0  0  0  0  0  0  0  0  0  0  0  0
   37.3550   30.2080   40.6450 N   0  0  0  0  0  0  0  0  0  0  0  0
   37.2830   31.2110   39.7320 C   0  0  0  0  0  0  0  0  0  0  0  0
   36.6530   31.0350   38.5400 N   0  0  0  0  0  0  0  0  0  0  0  0
   35.5840   29.6520   37.3430 H   0  0  0  0  0  0  0  0  0  0  0  0
   35.6950   27.8380   38.9530 H   0  0  0  0  0  0  0  0  0  0  0  0
   36.8470   27.8910   41.3360 C   0  0  0  0  0  0  0  0  0  0  0  0
   36.5520   27.9280   42.7000 C   0  0  0  0  0  0  0  0  0  0  0  0
   36.7260   26.6970   43.2140 N   0  0  0  0  0  0  0  0  0  0  0  0
   37.1240   25.8300   42.2490 C   0  0  0  0  0  0  0  0  0  0  0  0
   37.4370   24.4820   42.2270 C   0  0  0  0  0  0  0  0  0  0  0  0
   37.8260   23.8530   41.0600 C   0  0  0  0  0  0  0  0  0  0  0  0
   37.8920   24.6220   39.9030 C   0  0  0  0  0  0  0  0  0  0  0  0
   37.5840   25.9540   39.9210 C   0  0  0  0  0  0  0  0  0  0  0  0
   37.1960   26.5830   41.0870 C   0  0  0  0  0  0  0  0  0  0  0  0
   36.2380   28.7850   43.2730 H   0  0  0  0  0  0  0  0  0  0  0  0
   36.6020   26.3390   44.1930 H   0  0  0  0  0  0  0  0  0  0  0  0
   37.3850   23.8970   43.1180 H   0  0  0  0  0  0  0  0  0  0  0  0
   38.0770   22.8040   41.0110 H   0  0  0  0  0  0  0  0  0  0  0  0
   38.1930   24.1730   38.9580 H   0  0  0  0  0  0  0  0  0  0  0  0
   37.6460   26.5250   39.0040 H   0  0  0  0  0  0  0  0  0  0  0  0
   37.9070   32.5290   40.0720 C   0  0  1  0  0  0  0  0  0  0  0  0
   39.0620   32.5620   41.0260 C   0  0  0  0  0  0  0  0  0  0  0  0
   39.2860   32.8190   39.5770 C   0  0  1  0  0  0  0  0  0  0  0  0
   37.1710   33.3670   40.0980 H   0  0  0  0  0  0  0  0  0  0  0  0
   39.0710   33.4850   41.6790 H   0  0  0  0  0  0  0  0  0  0  0  0
   39.2520   31.6290   41.5390 H   0  0  0  0  0  0  0  0  0  0  0  0
   39.4790   33.8680   39.2700 H   0  0  0  0  0  0  0  0  0  0  0  0
   40.1040   31.8160   38.9220 N   0  0  0  0  0  0  0  0  0  0  0  0
   40.3100   32.1970   37.5150 C   0  0  0  0  0  0  0  0  0  0  0  0
   41.7540   32.0710   37.1430 C   0  0  0  0  0  0  0  0  0  0  0  0
   42.1710   30.7790   37.4720 O   0  0  0  0  0  0  0  0  0  0  0  0
   42.2690   30.6720   38.8590 C   0  0  0  0  0  0  0  0  0  0  0  0
   41.4040   31.7010   39.5580 C   0  0  0  0  0  0  0  0  0  0  0  0
  1  6  2  0  0  0  0
  1  2  1  0  0  0  0
  2  3  2  0  0  0  0
  3  4  1  0  0  0  0
  3  9  1  0  0  0  0
  5 24  1  0  0  0  0
  5  4  2  0  0  0  0
  6  5  1  0  0  0  0
  7  1  1  0  0  0  0
  8  2  1  0  0  0  0
  9 10  2  0  0  0  0
 10 11  1  0  0  0  0
 10 18  1  0  0  0  0
 11 19  1  0  0  0  0
 12 11  1  0  0  0  0
 13 12  1  0  0  0  0
 13 20  1  0  0  0  0
 14 13  2  0  0  0  0
 15 16  2  0  0  0  0
 15 14  1  0  0  0  0
 16 17  1  0  0  0  0
 17  9  1  0  0  0  0
 17 12  2  0  0  0  0
 21 14  1  0  0  0  0
 22 15  1  0  0  0  0
 23 16  1  0  0  0  0
 24 27  1  1  0  0  0
 24 25  1  0  0  0  0
 25 29  1  0  0  0  0
 25 28  1  0  0  0  0
 26 30  1  6  0  0  0
 26 24  1  0  0  0  0
 26 25  1  0  0  0  0
 31 36  1  0  0  0  0
 31 26  1  0  0  0  0
 32 31  1  0  0  0  0
 33 34  1  0  0  0  0
 33 32  1  0  0  0  0
 34 35  1  0  0  0  0
 35 36  1  0  0  0  0
M  END
>  <minimizedAffinity>
-5.55523109

>  <minimizedRMSD>
3.1458528

$$$$
