
 OpenBabel03242508383D

 28 30  0  0  1  0  0  0  0  0999 V2000
   38.7620   27.1360   43.1960 C   0  0  2  0  0  0  0  0  0  0  0  0
   40.1610   27.4350   43.5160 C   0  0  0  0  0  0  0  0  0  0  0  0
   40.6780   26.0630   43.9630 C   0  0  0  0  0  0  0  0  0  0  0  0
   39.7950   25.0420   43.3080 C   0  0  0  0  0  0  0  0  0  0  0  0
   38.8440   25.8210   42.4510 C   0  0  2  0  0  0  0  0  0  0  0  0
   38.2360   26.9130   44.1640 H   0  0  0  0  0  0  0  0  0  0  0  0
   40.2030   28.1270   44.3840 H   0  0  0  0  0  0  0  0  0  0  0  0
   40.7800   27.8980   42.7350 H   0  0  0  0  0  0  0  0  0  0  0  0
   40.4780   25.9980   45.0520 H   0  0  0  0  0  0  0  0  0  0  0  0
   41.7480   25.9420   43.7120 H   0  0  0  0  0  0  0  0  0  0  0  0
   40.4280   24.3360   42.7190 H   0  0  0  0  0  0  0  0  0  0  0  0
   39.2670   24.3900   44.0380 H   0  0  0  0  0  0  0  0  0  0  0  0
   37.8260   25.3510   42.5990 H   0  0  0  0  0  0  0  0  0  0  0  0
   36.6200   27.8280   42.1320 C   0  0  0  0  0  0  0  0  0  0  0  0
   37.9680   28.0990   42.4740 C   0  0  0  0  0  0  0  0  0  0  0  0
   38.5010   29.3270   42.0730 C   0  0  0  0  0  0  0  0  0  0  0  0
   37.6990   30.1670   41.3900 N   0  0  0  0  0  0  0  0  0  0  0  0
   36.4130   29.8940   41.0710 C   0  0  0  0  0  0  0  0  0  0  0  0
   35.8760   28.6940   41.4570 N   0  0  0  0  0  0  0  0  0  0  0  0
   36.2080   26.8750   42.4440 H   0  0  0  0  0  0  0  0  0  0  0  0
   39.5210   29.5630   42.3170 H   0  0  0  0  0  0  0  0  0  0  0  0
   35.9000   30.6790   40.5150 H   0  0  0  0  0  0  0  0  0  0  0  0
   39.0790   25.8740   41.0770 N   0  0  0  0  0  0  0  0  0  0  0  0
   40.3990   25.7970   40.5780 C   0  0  0  0  0  0  0  0  0  0  0  0
   40.3190   25.3690   39.1030 C   0  0  0  0  0  0  0  0  0  0  0  0
   40.0030   24.0200   39.1350 O   0  0  0  0  0  0  0  0  0  0  0  0
   38.7510   23.8650   39.6740 C   0  0  0  0  0  0  0  0  0  0  0  0
   38.1670   25.0740   40.3270 C   0  0  0  0  0  0  0  0  0  0  0  0
  1  2  1  0  0  0  0
  1  6  1  1  0  0  0
  2  3  1  0  0  0  0
  2  7  1  0  0  0  0
  3  9  1  0  0  0  0
  4  3  1  0  0  0  0
  4 12  1  0  0  0  0
  5 13  1  1  0  0  0
  5  1  1  0  0  0  0
  5  4  1  0  0  0  0
  8  2  1  0  0  0  0
 10  3  1  0  0  0  0
 11  4  1  0  0  0  0
 14 20  1  0  0  0  0
 14 15  1  0  0  0  0
 15  1  1  0  0  0  0
 16 21  1  0  0  0  0
 16 15  2  0  0  0  0
 17 16  1  0  0  0  0
 18 17  2  0  0  0  0
 18 19  1  0  0  0  0
 19 14  2  0  0  0  0
 22 18  1  0  0  0  0
 23  5  1  0  0  0  0
 24 23  1  0  0  0  0
 25 26  1  0  0  0  0
 25 24  1  0  0  0  0
 26 27  1  0  0  0  0
 27 28  1  0  0  0  0
 28 23  1  0  0  0  0
M  END
>  <minimizedAffinity>
-4.22277212

>  <minimizedRMSD>
1.71669114

$$$$
