
 OpenBabel03242509293D

 18 19  0  0  0  0  0  0  0  0999 V2000
   37.5830   28.7170   43.5210 C   0  0  0  0  0  0  0  0  0  0  0  0
   37.5120   27.3230   43.2720 C   0  0  0  0  0  0  0  0  0  0  0  0
   37.2460   26.9150   41.9630 C   0  0  0  0  0  0  0  0  0  0  0  0
   37.0710   27.8830   41.0070 N   0  0  0  0  0  0  0  0  0  0  0  0
   37.1450   29.1880   41.2890 C   0  0  0  0  0  0  0  0  0  0  0  0
   37.3990   29.5930   42.5290 N   0  0  0  0  0  0  0  0  0  0  0  0
   37.7880   29.0440   44.5300 H   0  0  0  0  0  0  0  0  0  0  0  0
   37.6660   26.6130   44.0980 H   0  0  0  0  0  0  0  0  0  0  0  0
   36.9570   30.1510   40.2630 N   0  0  0  0  0  0  0  0  0  0  0  0
   37.0260   31.5790   40.5110 C   0  0  0  0  0  2  0  0  0  0  0  0
   37.1180   32.2140   39.1190 C   0  0  0  0  0  2  0  0  0  0  0  0
   38.1040   31.6000   38.3620 O   0  0  0  0  0  0  0  0  0  0  0  0
   37.8220   30.2860   38.0500 C   0  0  0  0  0  2  0  0  0  0  0  0
   36.6800   29.7490   38.8980 C   0  0  0  0  0  2  0  0  0  0  0  0
   37.1640   25.4520   41.6630 C   0  0  0  0  0  0  0  0  0  0  0  0
   36.4970   25.3530   40.4520 F   0  0  0  0  0  0  0  0  0  0  0  0
   38.4000   24.8810   41.5240 F   0  0  0  0  0  0  0  0  0  0  0  0
   36.4270   24.7820   42.6260 F   0  0  0  0  0  0  0  0  0  0  0  0
  1  7  1  0  0  0  0
  2  1  1  0  0  0  0
  2  8  1  0  0  0  0
  3  2  2  0  0  0  0
  4  5  2  0  0  0  0
  4  3  1  0  0  0  0
  5  6  1  0  0  0  0
  6  1  2  0  0  0  0
  9 10  1  0  0  0  0
  9  5  1  0  0  0  0
 11 10  1  0  0  0  0
 12 11  1  0  0  0  0
 13 12  1  0  0  0  0
 13 14  1  0  0  0  0
 14  9  1  0  0  0  0
 15  3  1  0  0  0  0
 15 18  1  0  0  0  0
 16 15  1  0  0  0  0
 17 15  1  0  0  0  0
M  END
>  <minimizedAffinity>
-4.75399351

>  <minimizedRMSD>
1.23237062

$$$$
