
 OpenBabel03242509303D

 18 19  0  0  0  0  0  0  0  0999 V2000
   37.7950   28.6180   43.6260 C   0  0  0  0  0  0  0  0  0  0  0  0
   37.7650   27.2200   43.3920 C   0  0  0  0  0  0  0  0  0  0  0  0
   37.3840   26.7880   42.1200 C   0  0  0  0  0  0  0  0  0  0  0  0
   37.0660   27.7380   41.1830 N   0  0  0  0  0  0  0  0  0  0  0  0
   37.1080   29.0470   41.4490 C   0  0  0  0  0  0  0  0  0  0  0  0
   37.4680   29.4760   42.6540 N   0  0  0  0  0  0  0  0  0  0  0  0
   38.0880   28.9640   44.6070 H   0  0  0  0  0  0  0  0  0  0  0  0
   38.0360   26.5260   44.2010 H   0  0  0  0  0  0  0  0  0  0  0  0
   36.7690   29.9910   40.4440 N   0  0  0  0  0  0  0  0  0  0  0  0
   37.5600   31.1810   40.1910 C   0  0  0  0  0  2  0  0  0  0  0  0
   37.0560   31.7050   38.8420 C   0  0  0  0  0  2  0  0  0  0  0  0
   37.0260   30.6900   37.8990 O   0  0  0  0  0  0  0  0  0  0  0  0
   36.0990   29.7060   38.1790 C   0  0  0  0  0  2  0  0  0  0  0  0
   35.5970   29.8090   39.6100 C   0  0  0  0  0  2  0  0  0  0  0  0
   37.3400   25.3200   41.8360 C   0  0  0  0  0  0  0  0  0  0  0  0
   36.9430   25.2040   40.5130 F   0  0  0  0  0  0  0  0  0  0  0  0
   38.5660   24.7290   41.9740 F   0  0  0  0  0  0  0  0  0  0  0  0
   36.4030   24.6820   42.6330 F   0  0  0  0  0  0  0  0  0  0  0  0
  1  7  1  0  0  0  0
  2  1  1  0  0  0  0
  2  8  1  0  0  0  0
  3  2  2  0  0  0  0
  4  5  2  0  0  0  0
  4  3  1  0  0  0  0
  5  6  1  0  0  0  0
  6  1  2  0  0  0  0
  9  5  1  0  0  0  0
 10  9  1  0  0  0  0
 11 10  1  0  0  0  0
 12 13  1  0  0  0  0
 12 11  1  0  0  0  0
 13 14  1  0  0  0  0
 14  9  1  0  0  0  0
 15 17  1  0  0  0  0
 15  3  1  0  0  0  0
 15 18  1  0  0  0  0
 16 15  1  0  0  0  0
M  END
>  <minimizedAffinity>
-4.62462521

>  <minimizedRMSD>
0.956928432

$$$$
