
 OpenBabel03242509013D

 35 38  0  0  1  0  0  0  0  0999 V2000
   37.2930   30.3830   39.8490 N   0  0  1  0  0  0  0  0  0  0  0  0
   37.8510   30.2780   38.4710 C   0  0  0  0  0  0  0  0  0  0  0  0
   37.9460   28.8490   38.0270 C   0  0  0  0  0  0  0  0  0  0  0  0
   38.4430   28.0430   39.0420 O   0  0  0  0  0  0  0  0  0  0  0  0
   39.1730   28.8390   39.9090 C   0  0  0  0  0  0  0  0  0  0  0  0
   38.2680   29.8150   40.6910 C   0  0  2  0  0  0  0  0  0  0  0  0
   38.8160   30.8230   38.4190 H   0  0  0  0  0  0  0  0  0  0  0  0
   37.0750   30.7860   37.8420 H   0  0  0  0  0  0  0  0  0  0  0  0
   38.5700   28.8330   37.1240 H   0  0  0  0  0  0  0  0  0  0  0  0
   36.8960   28.5280   37.7620 H   0  0  0  0  0  0  0  0  0  0  0  0
   39.6950   28.1820   40.6300 H   0  0  0  0  0  0  0  0  0  0  0  0
   39.9580   29.3790   39.3550 H   0  0  0  0  0  0  0  0  0  0  0  0
   38.9920   30.6470   40.9490 H   0  0  0  0  0  0  0  0  0  0  0  0
   37.9130   32.8160   40.4910 C   0  0  1  0  0  0  0  0  0  0  0  0
   37.1560   32.8710   39.2210 C   0  0  0  0  0  0  0  0  0  0  0  0
   36.9030   31.7180   40.0920 C   0  0  1  0  0  0  0  0  0  0  0  0
   37.6830   33.3920   41.3850 H   0  0  0  0  0  0  0  0  0  0  0  0
   37.7010   32.7060   38.2550 H   0  0  0  0  0  0  0  0  0  0  0  0
   36.4300   33.7050   39.1180 H   0  0  0  0  0  0  0  0  0  0  0  0
   35.9410   31.8420   40.6790 H   0  0  0  0  0  0  0  0  0  0  0  0
   41.2620   32.3040   39.0650 C   0  0  0  0  0  0  0  0  0  0  0  0
   42.0220   31.8820   40.1770 C   0  0  0  0  0  0  0  0  0  0  0  0
   41.3440   31.7720   41.4110 C   0  0  0  0  0  0  0  0  0  0  0  0
   39.9950   32.0780   41.4730 N   0  0  0  0  0  0  0  0  0  0  0  0
   39.3480   32.4710   40.3720 C   0  0  0  0  0  0  0  0  0  0  0  0
   39.9590   32.5860   39.1780 N   0  0  0  0  0  0  0  0  0  0  0  0
   41.7540   32.3950   38.1130 H   0  0  0  0  0  0  0  0  0  0  0  0
   43.0580   31.6470   40.1330 H   0  0  0  0  0  0  0  0  0  0  0  0
   41.8480   31.4550   42.3230 H   0  0  0  0  0  0  0  0  0  0  0  0
   37.9230   29.1810   41.8880 N   0  0  0  0  0  0  0  0  0  0  0  0
   36.7510   28.3800   41.8770 C   0  0  0  0  0  0  0  0  0  0  0  0
   36.5110   27.5910   43.1120 C   0  0  0  0  0  0  0  0  0  0  0  0
   37.4610   27.8020   44.1050 O   0  0  0  0  0  0  0  0  0  0  0  0
   38.7000   27.5130   43.4900 C   0  0  0  0  0  0  0  0  0  0  0  0
   39.0390   28.6880   42.6260 C   0  0  0  0  0  0  0  0  0  0  0  0
  1  2  1  6  0  0  0
  1 16  1  0  0  0  0
  1  6  1  0  0  0  0
  3  2  1  0  0  0  0
  3  4  1  0  0  0  0
  4  5  1  0  0  0  0
  5 11  1  0  0  0  0
  5  6  1  0  0  0  0
  6 13  1  1  0  0  0
  6 30  1  0  0  0  0
  7  2  1  0  0  0  0
  8  2  1  0  0  0  0
  9  3  1  0  0  0  0
 10  3  1  0  0  0  0
 12  5  1  0  0  0  0
 14 17  1  1  0  0  0
 15 16  1  0  0  0  0
 15 14  1  0  0  0  0
 16 14  1  0  0  0  0
 16 20  1  1  0  0  0
 18 15  1  0  0  0  0
 19 15  1  0  0  0  0
 21 26  2  0  0  0  0
 21 22  1  0  0  0  0
 22 23  2  0  0  0  0
 23 24  1  0  0  0  0
 23 29  1  0  0  0  0
 25 14  1  0  0  0  0
 25 24  2  0  0  0  0
 26 25  1  0  0  0  0
 27 21  1  0  0  0  0
 28 22  1  0  0  0  0
 30 35  1  0  0  0  0
 31 30  1  0  0  0  0
 31 32  1  0  0  0  0
 32 33  1  0  0  0  0
 34 33  1  0  0  0  0
 35 34  1  0  0  0  0
M  END
>  <minimizedAffinity>
-4.76236105

>  <minimizedRMSD>
3.85521865

$$$$
