
 OpenBabel03242509293D

 18 19  0  0  0  0  0  0  0  0999 V2000
   39.1010   28.1300   43.1820 C   0  0  0  0  0  0  0  0  0  0  0  0
   38.9250   26.7230   43.1790 C   0  0  0  0  0  0  0  0  0  0  0  0
   38.0720   26.1830   42.2130 C   0  0  0  0  0  0  0  0  0  0  0  0
   37.4630   27.0430   41.3350 N   0  0  0  0  0  0  0  0  0  0  0  0
   37.6580   28.3650   41.3760 C   0  0  0  0  0  0  0  0  0  0  0  0
   38.4670   28.8950   42.2880 N   0  0  0  0  0  0  0  0  0  0  0  0
   39.7580   28.5590   43.9250 H   0  0  0  0  0  0  0  0  0  0  0  0
   39.4520   26.1060   43.9200 H   0  0  0  0  0  0  0  0  0  0  0  0
   37.0050   29.2130   40.4440 N   0  0  0  0  0  0  0  0  0  0  0  0
   37.5890   29.5640   39.1620 C   0  0  0  0  0  2  0  0  0  0  0  0
   36.4350   30.1770   38.3620 C   0  0  0  0  0  2  0  0  0  0  0  0
   35.3160   29.3590   38.4040 O   0  0  0  0  0  0  0  0  0  0  0  0
   34.7580   29.2540   39.6610 C   0  0  0  0  0  2  0  0  0  0  0  0
   35.7010   29.7780   40.7330 C   0  0  0  0  0  2  0  0  0  0  0  0
   37.8610   24.7030   42.1790 C   0  0  0  0  0  0  0  0  0  0  0  0
   38.1760   24.3080   40.8880 F   0  0  0  0  0  0  0  0  0  0  0  0
   38.6860   24.0420   43.0480 F   0  0  0  0  0  0  0  0  0  0  0  0
   36.5370   24.3780   42.4260 F   0  0  0  0  0  0  0  0  0  0  0  0
  1  7  1  0  0  0  0
  2  1  1  0  0  0  0
  2  8  1  0  0  0  0
  3  2  2  0  0  0  0
  4  5  2  0  0  0  0
  4  3  1  0  0  0  0
  5  6  1  0  0  0  0
  6  1  2  0  0  0  0
  9 14  1  0  0  0  0
  9  5  1  0  0  0  0
 10  9  1  0  0  0  0
 11 12  1  0  0  0  0
 11 10  1  0  0  0  0
 12 13  1  0  0  0  0
 13 14  1  0  0  0  0
 15  3  1  0  0  0  0
 15 18  1  0  0  0  0
 15 17  1  0  0  0  0
 16 15  1  0  0  0  0
M  END
>  <minimizedAffinity>
-4.3870759

>  <minimizedRMSD>
1.05391717

$$$$
