
 OpenBabel03242508583D

 22 24  0  0  1  0  0  0  0  0999 V2000
   36.1860   30.6160   40.7480 C   0  0  1  0  0  0  0  0  0  0  0  0
   37.0240   31.8310   40.5070 C   0  0  0  0  0  0  0  0  0  0  0  0
   36.8630   30.8710   39.3990 C   0  0  1  0  0  0  0  0  0  0  0  0
   35.0900   30.6340   40.7630 H   0  0  0  0  0  0  0  0  0  0  0  0
   36.4870   32.8040   40.4710 H   0  0  0  0  0  0  0  0  0  0  0  0
   37.9570   31.9400   41.1070 H   0  0  0  0  0  0  0  0  0  0  0  0
   36.1140   31.2100   38.6240 H   0  0  0  0  0  0  0  0  0  0  0  0
   38.3960   28.9820   43.1820 C   0  0  0  0  0  0  0  0  0  0  0  0
   37.8550   27.6730   43.2690 C   0  0  0  0  0  0  0  0  0  0  0  0
   36.7270   27.3820   42.4610 C   0  0  0  0  0  0  0  0  0  0  0  0
   36.2200   28.3730   41.6430 N   0  0  0  0  0  0  0  0  0  0  0  0
   36.7920   29.5930   41.6180 C   0  0  0  0  0  0  0  0  0  0  0  0
   37.8600   29.9050   42.3670 N   0  0  0  0  0  0  0  0  0  0  0  0
   39.2530   29.1300   43.8230 H   0  0  0  0  0  0  0  0  0  0  0  0
   38.2460   26.9000   43.9030 H   0  0  0  0  0  0  0  0  0  0  0  0
   36.3070   26.3960   42.5150 H   0  0  0  0  0  0  0  0  0  0  0  0
   37.8570   30.0170   38.8740 N   0  0  0  0  0  0  0  0  0  0  0  0
   37.6060   29.7770   37.4400 C   0  0  0  0  0  0  0  0  0  0  0  0
   38.4300   28.6050   36.9500 C   0  0  0  0  0  0  0  0  0  0  0  0
   39.7400   28.6700   37.4240 O   0  0  0  0  0  0  0  0  0  0  0  0
   40.0190   29.9930   37.7260 C   0  0  0  0  0  0  0  0  0  0  0  0
   39.2170   30.4630   38.9510 C   0  0  0  0  0  0  0  0  0  0  0  0
  1  4  1  1  0  0  0
  1 12  1  0  0  0  0
  2  1  1  0  0  0  0
  2  6  1  0  0  0  0
  3  7  1  6  0  0  0
  3  2  1  0  0  0  0
  3  1  1  0  0  0  0
  5  2  1  0  0  0  0
  8  9  1  0  0  0  0
  8 14  1  0  0  0  0
  9 15  1  0  0  0  0
 10 16  1  0  0  0  0
 10  9  2  0  0  0  0
 11 10  1  0  0  0  0
 12 11  2  0  0  0  0
 12 13  1  0  0  0  0
 13  8  2  0  0  0  0
 17 22  1  0  0  0  0
 17  3  1  0  0  0  0
 18 17  1  0  0  0  0
 19 20  1  0  0  0  0
 19 18  1  0  0  0  0
 20 21  1  0  0  0  0
 21 22  1  0  0  0  0
M  END
>  <minimizedAffinity>
-4.00790596

>  <minimizedRMSD>
0.410870254

$$$$
