
 OpenBabel03242509303D

 18 19  0  0  0  0  0  0  0  0999 V2000
   37.8730   28.6120   43.6740 C   0  0  0  0  0  0  0  0  0  0  0  0
   38.4100   27.3020   43.7530 C   0  0  0  0  0  0  0  0  0  0  0  0
   38.3500   26.5100   42.6030 C   0  0  0  0  0  0  0  0  0  0  0  0
   37.7780   27.0470   41.4780 N   0  0  0  0  0  0  0  0  0  0  0  0
   37.2820   28.2890   41.4500 C   0  0  0  0  0  0  0  0  0  0  0  0
   37.3320   29.0560   42.5350 N   0  0  0  0  0  0  0  0  0  0  0  0
   37.9140   29.2330   44.5570 H   0  0  0  0  0  0  0  0  0  0  0  0
   38.8520   26.9500   44.6960 H   0  0  0  0  0  0  0  0  0  0  0  0
   36.7000   28.7990   40.2600 N   0  0  0  0  0  0  0  0  0  0  0  0
   37.1240   28.3760   38.9390 C   0  0  0  0  0  2  0  0  0  0  0  0
   36.0300   28.8860   37.9950 C   0  0  0  0  0  2  0  0  0  0  0  0
   34.7740   28.5260   38.4580 O   0  0  0  0  0  0  0  0  0  0  0  0
   34.4270   29.1420   39.6420 C   0  0  0  0  0  2  0  0  0  0  0  0
   35.6350   29.7820   40.3090 C   0  0  0  0  0  2  0  0  0  0  0  0
   38.9070   25.1230   42.6480 C   0  0  0  0  0  0  0  0  0  0  0  0
   39.6950   24.9970   41.5150 F   0  0  0  0  0  0  0  0  0  0  0  0
   39.6940   24.9160   43.7480 F   0  0  0  0  0  0  0  0  0  0  0  0
   37.8980   24.1750   42.5890 F   0  0  0  0  0  0  0  0  0  0  0  0
  1  2  1  0  0  0  0
  1  7  1  0  0  0  0
  2  8  1  0  0  0  0
  3 15  1  0  0  0  0
  3  2  2  0  0  0  0
  4  3  1  0  0  0  0
  5  4  2  0  0  0  0
  5  6  1  0  0  0  0
  6  1  2  0  0  0  0
  9 14  1  0  0  0  0
  9  5  1  0  0  0  0
 10  9  1  0  0  0  0
 11 12  1  0  0  0  0
 11 10  1  0  0  0  0
 12 13  1  0  0  0  0
 13 14  1  0  0  0  0
 15 17  1  0  0  0  0
 16 15  1  0  0  0  0
 18 15  1  0  0  0  0
M  END
>  <minimizedAffinity>
-4.32485151

>  <minimizedRMSD>
1.44646513

$$$$
