
     RDKit          3D

 26 27  0  0  0  0  0  0  0  0999 V2000
   37.9703   28.8829   43.3693 C   0  0  0  0  0  0  0  0  0  0  0  0
   38.0822   27.4711   43.3066 C   0  0  0  0  0  0  0  0  0  0  0  0
   37.4349   26.8189   42.2535 C   0  0  0  0  0  0  0  0  0  0  0  0
   36.7369   27.5825   41.3531 N   0  0  0  0  0  0  0  0  0  0  0  0
   36.6584   28.9132   41.4518 C   0  0  0  0  0  0  0  0  0  0  0  0
   37.2683   29.5490   42.4475 N   0  0  0  0  0  0  0  0  0  0  0  0
   37.5314   25.3303   42.1560 C   0  0  0  0  0  0  0  0  0  0  0  0
   37.6489   25.0488   40.8045 F   0  0  0  0  0  0  0  0  0  0  0  0
   38.6336   24.8378   42.7988 F   0  0  0  0  0  0  0  0  0  0  0  0
   36.3811   24.7203   42.6321 F   0  0  0  0  0  0  0  0  0  0  0  0
   38.4663   29.3975   44.1786 H   0  0  0  0  0  0  0  0  0  0  0  0
   38.6631   26.9363   44.0719 H   0  0  0  0  0  0  0  0  0  0  0  0
   35.9227   29.6583   40.4932 N   0  0  0  0  0  0  0  0  0  0  0  0
   35.5022   29.0971   39.2227 C   0  0  0  0  0  0  0  0  0  0  0  0
   34.4699   30.0908   38.6791 C   0  0  0  0  0  0  0  0  0  0  0  0
   33.5200   30.3909   39.6436 O   0  0  0  0  0  0  0  0  0  0  0  0
   34.0302   31.0834   40.7225 C   0  0  0  0  0  0  0  0  0  0  0  0
   35.5502   31.0375   40.7417 C   0  0  0  0  0  0  0  0  0  0  0  0
   35.0321   28.0951   39.3274 H   0  0  0  0  0  0  0  0  0  0  0  0
   36.3732   29.1133   38.5404 H   0  0  0  0  0  0  0  0  0  0  0  0
   33.9417   29.5807   37.8525 H   0  0  0  0  0  0  0  0  0  0  0  0
   35.0051   30.9564   38.2783 H   0  0  0  0  0  0  0  0  0  0  0  0
   33.6531   30.5888   41.6451 H   0  0  0  0  0  0  0  0  0  0  0  0
   33.6683   32.1472   40.7287 H   0  0  0  0  0  0  0  0  0  0  0  0
   35.9637   31.7221   39.9671 H   0  0  0  0  0  0  0  0  0  0  0  0
   35.9219   31.3777   41.7282 H   0  0  0  0  0  0  0  0  0  0  0  0
  2  1  2  0
  3  2  1  0
  4  5  1  0
  4  3  2  0
  5  6  2  0
  6  1  1  0
  7  3  1  0
  7 10  1  0
  7  9  1  0
  8  7  1  0
  1 11  1  0
  2 12  1  0
 13 14  1  0
 14 15  1  0
 15 16  1  0
 16 17  1  0
 17 18  1  0
 18 13  1  0
 14 19  1  0
 14 20  1  0
 15 21  1  0
 15 22  1  0
 17 23  1  0
 17 24  1  0
 18 25  1  0
 18 26  1  0
  5 13  1  0
M  ISO  2  11  14  12  14
M  END
>  <DihAtoms>  (1) 
3,4,12,13

>  <DihDeg>  (1) 
-0.0042601742006946955

$$$$
