
     RDKit          3D

 26 27  0  0  0  0  0  0  0  0999 V2000
   37.9703   28.8829   43.3693 C   0  0  0  0  0  0  0  0  0  0  0  0
   38.0822   27.4711   43.3066 C   0  0  0  0  0  0  0  0  0  0  0  0
   37.4349   26.8189   42.2535 C   0  0  0  0  0  0  0  0  0  0  0  0
   36.7369   27.5825   41.3531 N   0  0  0  0  0  0  0  0  0  0  0  0
   36.6584   28.9132   41.4518 C   0  0  0  0  0  0  0  0  0  0  0  0
   37.2683   29.5490   42.4475 N   0  0  0  0  0  0  0  0  0  0  0  0
   37.5314   25.3303   42.1560 C   0  0  0  0  0  0  0  0  0  0  0  0
   37.6489   25.0488   40.8045 F   0  0  0  0  0  0  0  0  0  0  0  0
   38.6336   24.8378   42.7988 F   0  0  0  0  0  0  0  0  0  0  0  0
   36.3811   24.7203   42.6321 F   0  0  0  0  0  0  0  0  0  0  0  0
   38.4663   29.3975   44.1786 H   0  0  0  0  0  0  0  0  0  0  0  0
   38.6631   26.9363   44.0719 H   0  0  0  0  0  0  0  0  0  0  0  0
   35.9227   29.6583   40.4932 N   0  0  0  0  0  0  0  0  0  0  0  0
   34.5036   29.4553   40.2674 C   0  0  0  0  0  0  0  0  0  0  0  0
   34.0621   30.6675   39.4402 C   0  0  0  0  0  0  0  0  0  0  0  0
   34.5016   31.8469   40.0220 O   0  0  0  0  0  0  0  0  0  0  0  0
   35.8741   31.9886   40.0109 C   0  0  0  0  0  0  0  0  0  0  0  0
   36.5641   30.6741   39.6810 C   0  0  0  0  0  0  0  0  0  0  0  0
   33.9171   29.4176   41.2111 H   0  0  0  0  0  0  0  0  0  0  0  0
   34.3869   28.5567   39.6323 H   0  0  0  0  0  0  0  0  0  0  0  0
   32.9570   30.6856   39.4671 H   0  0  0  0  0  0  0  0  0  0  0  0
   34.3902   30.5158   38.4079 H   0  0  0  0  0  0  0  0  0  0  0  0
   36.1856   32.3010   41.0324 H   0  0  0  0  0  0  0  0  0  0  0  0
   36.1925   32.7916   39.2922 H   0  0  0  0  0  0  0  0  0  0  0  0
   36.4683   30.4537   38.5939 H   0  0  0  0  0  0  0  0  0  0  0  0
   37.6436   30.7489   39.9180 H   0  0  0  0  0  0  0  0  0  0  0  0
  2  1  2  0
  3  2  1  0
  4  5  1  0
  4  3  2  0
  5  6  2  0
  6  1  1  0
  7  3  1  0
  7 10  1  0
  7  9  1  0
  8  7  1  0
  1 11  1  0
  2 12  1  0
 13 14  1  0
 14 15  1  0
 15 16  1  0
 16 17  1  0
 17 18  1  0
 18 13  1  0
 14 19  1  0
 14 20  1  0
 15 21  1  0
 15 22  1  0
 17 23  1  0
 17 24  1  0
 18 25  1  0
 18 26  1  0
  5 13  1  0
M  ISO  2  11  14  12  14
M  END
>  <DihAtoms>  (1) 
3,4,12,13

>  <DihDeg>  (1) 
-0.0042601742006946955

$$$$
