
 OpenBabel03242509293D

 18 19  0  0  0  0  0  0  0  0999 V2000
   37.4190   28.4200   43.8170 C   0  0  0  0  0  0  0  0  0  0  0  0
   37.2910   27.0690   43.4070 C   0  0  0  0  0  0  0  0  0  0  0  0
   37.2960   26.8080   42.0350 C   0  0  0  0  0  0  0  0  0  0  0  0
   37.4240   27.8700   41.1760 N   0  0  0  0  0  0  0  0  0  0  0  0
   37.5410   29.1300   41.6080 C   0  0  0  0  0  0  0  0  0  0  0  0
   37.5380   29.3950   42.9110 N   0  0  0  0  0  0  0  0  0  0  0  0
   37.4160   28.6330   44.8760 H   0  0  0  0  0  0  0  0  0  0  0  0
   37.1940   26.2760   44.1640 H   0  0  0  0  0  0  0  0  0  0  0  0
   37.6700   30.1950   40.6790 N   0  0  0  0  0  0  0  0  0  0  0  0
   36.5510   30.6940   39.9010 C   0  0  0  0  0  2  0  0  0  0  0  0
   37.0400   32.0240   39.3200 C   0  0  0  0  0  2  0  0  0  0  0  0
   37.5940   32.8200   40.3120 O   0  0  0  0  0  0  0  0  0  0  0  0
   38.7580   32.3060   40.8450 C   0  0  0  0  0  2  0  0  0  0  0  0
   38.9470   30.8470   40.4590 C   0  0  0  0  0  2  0  0  0  0  0  0
   37.1640   25.3950   41.5650 C   0  0  0  0  0  0  0  0  0  0  0  0
   36.4550   25.4590   40.3760 F   0  0  0  0  0  0  0  0  0  0  0  0
   38.3780   24.8150   41.3160 F   0  0  0  0  0  0  0  0  0  0  0  0
   36.4390   24.6320   42.4670 F   0  0  0  0  0  0  0  0  0  0  0  0
  1  7  1  0  0  0  0
  2  1  1  0  0  0  0
  2  8  1  0  0  0  0
  3  2  2  0  0  0  0
  4  5  2  0  0  0  0
  4  3  1  0  0  0  0
  5  6  1  0  0  0  0
  6  1  2  0  0  0  0
  9  5  1  0  0  0  0
 10  9  1  0  0  0  0
 11 10  1  0  0  0  0
 11 12  1  0  0  0  0
 12 13  1  0  0  0  0
 14  9  1  0  0  0  0
 14 13  1  0  0  0  0
 15  3  1  0  0  0  0
 15 18  1  0  0  0  0
 16 15  1  0  0  0  0
 17 15  1  0  0  0  0
M  END
>  <minimizedAffinity>
-4.80233288

>  <minimizedRMSD>
1.77077711

$$$$
