
 OpenBabel03242507433D

 40 43  0  0  0  0  0  0  0  0999 V2000
   39.6560   27.7520   43.4320 C   0  0  0  0  0  0  0  0  0  0  0  0
   39.0760   26.4570   43.4070 C   0  0  0  0  0  0  0  0  0  0  0  0
   38.2320   26.1750   42.3460 C   0  0  0  0  0  0  0  0  0  0  0  0
   38.0110   27.1160   41.4200 N   0  0  0  0  0  0  0  0  0  0  0  0
   38.5620   28.3330   41.4540 C   0  0  0  0  0  0  0  0  0  0  0  0
   39.3890   28.6560   42.4630 N   0  0  0  0  0  0  0  0  0  0  0  0
   37.5990   24.9410   42.1930 N   0  0  0  0  0  0  0  0  0  0  0  0
   38.3450   29.3480   40.4730 N   0  0  0  0  0  0  0  0  0  0  0  0
   37.6220   28.9740   39.3870 C   0  0  0  0  0  0  0  0  0  0  0  0
   37.3090   29.8090   38.3190 C   0  0  0  0  0  0  0  0  0  0  0  0
   37.7830   31.0930   38.4140 C   0  0  0  0  0  0  0  0  0  0  0  0
   37.5450   31.9140   37.4850 O   0  0  0  0  0  0  0  0  0  0  0  0
   38.4940   31.4400   39.4950 N   0  0  0  0  0  0  0  0  0  0  0  0
   38.7810   30.6070   40.5090 C   0  0  0  0  0  0  0  0  0  0  0  0
   39.4450   30.9250   41.5190 O   0  0  0  0  0  0  0  0  0  0  0  0
   40.3240   28.0120   44.2500 H   0  0  0  0  0  0  0  0  0  0  0  0
   39.2760   25.7200   44.1700 H   0  0  0  0  0  0  0  0  0  0  0  0
   37.9450   24.0510   41.7440 H   0  0  0  0  0  0  0  0  0  0  0  0
   36.6250   24.9120   42.5920 H   0  0  0  0  0  0  0  0  0  0  0  0
   37.2430   27.9500   39.3110 H   0  0  0  0  0  0  0  0  0  0  0  0
   39.0120   32.7580   39.6320 C   0  0  0  0  0  0  0  0  0  0  0  0
   38.2210   33.7300   40.1840 C   0  0  0  0  0  0  0  0  0  0  0  0
   38.7400   35.0030   40.3070 C   0  0  0  0  0  0  0  0  0  0  0  0
   40.0320   35.2420   39.8700 C   0  0  0  0  0  0  0  0  0  0  0  0
   40.8240   34.2840   39.3200 C   0  0  0  0  0  0  0  0  0  0  0  0
   40.3150   33.0010   39.1900 C   0  0  0  0  0  0  0  0  0  0  0  0
   37.2170   33.4670   40.5040 H   0  0  0  0  0  0  0  0  0  0  0  0
   38.1380   35.7800   40.7380 H   0  0  0  0  0  0  0  0  0  0  0  0
   40.4440   36.2370   39.9630 H   0  0  0  0  0  0  0  0  0  0  0  0
   41.8280   34.5190   38.9930 H   0  0  0  0  0  0  0  0  0  0  0  0
   40.9460   32.2280   38.7520 H   0  0  0  0  0  0  0  0  0  0  0  0
   36.5000   29.3070   37.1980 C   0  0  0  0  0  0  0  0  0  0  0  0
   36.7270   28.1960   37.0440 H   0  0  0  0  0  0  0  0  0  0  0  0
   36.9420   29.7680   36.2730 H   0  0  0  0  0  0  0  0  0  0  0  0
   35.1120   29.4590   37.2390 N   0  0  0  0  0  0  0  0  0  0  0  0
   34.5800   28.5270   38.2440 C   0  0  0  0  0  0  0  0  0  0  0  0
   34.6360   27.2010   37.5230 C   0  0  0  0  0  0  0  0  0  0  0  0
   34.3490   27.5690   36.0900 C   0  0  0  0  0  0  0  0  0  0  0  0
   34.3900   29.0860   36.0900 C   0  0  0  0  0  0  0  0  0  0  0  0
   33.3110   29.4170   36.2940 H   0  0  0  0  0  0  0  0  0  0  0  0
  1 16  1  0  0  0  0
  2  1  1  0  0  0  0
  2 17  1  0  0  0  0
  3  2  2  0  0  0  0
  4  5  2  0  0  0  0
  4  3  1  0  0  0  0
  5  6  1  0  0  0  0
  6  1  2  0  0  0  0
  7  3  1  0  0  0  0
  7 19  1  0  0  0  0
  8 14  1  0  0  0  0
  8  5  1  0  0  0  0
  9  8  1  0  0  0  0
 10 11  1  0  0  0  0
 10  9  2  0  0  0  0
 11 13  1  0  0  0  0
 12 11  2  0  0  0  0
 13 21  1  0  0  0  0
 13 14  1  0  0  0  0
 14 15  2  0  0  0  0
 18  7  1  0  0  0  0
 20  9  1  0  0  0  0
 21 22  1  0  0  0  0
 22 23  2  0  0  0  0
 22 27  1  0  0  0  0
 23 28  1  0  0  0  0
 24 29  1  0  0  0  0
 24 23  1  0  0  0  0
 25 24  2  0  0  0  0
 26 25  1  0  0  0  0
 26 21  2  0  0  0  0
 30 25  1  0  0  0  0
 31 26  1  0  0  0  0
 32 35  1  0  0  0  0
 32 10  1  0  0  0  0
 33 32  1  0  0  0  0
 34 32  1  0  0  0  0
 35 36  1  0  0  0  0
 37 36  1  0  0  0  0
 38 37  1  0  0  0  0
 39 38  1  0  0  0  0
 39 40  1  0  0  0  0
 39 35  1  0  0  0  0
M  END
>  <minimizedAffinity>
-6.01672888

>  <minimizedRMSD>
0.47697565

$$$$
