
 OpenBabel03242506283D

 30 33  0  0  0  0  0  0  0  0999 V2000
   38.5640   28.1870   42.5990 C   0  0  0  0  0  0  0  0  0  0  0  0
   38.4010   27.0740   43.4050 C   0  0  0  0  0  0  0  0  0  0  0  0
   39.5750   26.6890   43.9570 N   0  0  0  0  0  0  0  0  0  0  0  0
   40.4710   27.5730   43.4860 C   0  0  0  0  0  0  0  0  0  0  0  0
   39.8800   28.4810   42.6680 N   0  0  0  0  0  0  0  0  0  0  0  0
   37.4470   26.5750   43.5730 H   0  0  0  0  0  0  0  0  0  0  0  0
   41.5180   27.4990   43.7730 H   0  0  0  0  0  0  0  0  0  0  0  0
   40.5280   29.5540   41.9990 C   0  0  0  0  0  0  0  0  0  0  0  0
   40.8620   30.7670   42.5510 C   0  0  0  0  0  0  0  0  0  0  0  0
   41.4910   31.7360   41.7980 C   0  0  0  0  0  0  0  0  0  0  0  0
   41.7680   31.4680   40.5200 N   0  0  0  0  0  0  0  0  0  0  0  0
   41.4500   30.2830   39.9500 C   0  0  0  0  0  0  0  0  0  0  0  0
   40.8440   29.3540   40.6820 N   0  0  0  0  0  0  0  0  0  0  0  0
   40.6160   30.9220   43.5730 H   0  0  0  0  0  0  0  0  0  0  0  0
   41.7420   32.6830   42.2630 H   0  0  0  0  0  0  0  0  0  0  0  0
   41.7640   30.0390   38.5820 N   0  0  0  0  0  0  0  0  0  0  0  0
   41.8310   31.0690   37.5340 C   0  0  0  0  0  0  0  0  0  0  0  0
   42.6190   30.3920   36.4050 C   0  0  0  0  0  0  0  0  0  0  0  0
   41.9690   29.0030   36.4930 C   0  0  0  0  0  0  0  0  0  0  0  0
   42.0720   28.7610   37.9690 C   0  0  0  0  0  0  0  0  0  0  0  0
   43.1640   28.5980   38.1760 H   0  0  0  0  0  0  0  0  0  0  0  0
   35.5920   28.6400   40.4670 C   0  0  0  0  0  0  0  0  0  0  0  0
   36.6200   27.9990   41.1740 C   0  0  0  0  0  0  0  0  0  0  0  0
   37.5120   28.8370   41.8760 C   0  0  0  0  0  0  0  0  0  0  0  0
   37.3240   30.1750   41.8210 N   0  0  0  0  0  0  0  0  0  0  0  0
   36.3090   30.7470   41.1190 C   0  0  0  0  0  0  0  0  0  0  0  0
   35.4480   29.9750   40.4450 N   0  0  0  0  0  0  0  0  0  0  0  0
   34.8630   28.0670   39.9020 H   0  0  0  0  0  0  0  0  0  0  0  0
   36.6660   26.9220   41.1420 H   0  0  0  0  0  0  0  0  0  0  0  0
   36.2400   31.8380   41.1350 H   0  0  0  0  0  0  0  0  0  0  0  0
  1  5  1  0  0  0  0
  1  2  2  0  0  0  0
  2  6  1  0  0  0  0
  2  3  1  0  0  0  0
  4  7  1  0  0  0  0
  4  3  2  0  0  0  0
  5  4  1  0  0  0  0
  8  9  1  0  0  0  0
  8  5  1  0  0  0  0
  9 14  1  0  0  0  0
 10 15  1  0  0  0  0
 10  9  2  0  0  0  0
 11 10  1  0  0  0  0
 12 11  2  0  0  0  0
 12 13  1  0  0  0  0
 13  8  2  0  0  0  0
 16 12  1  0  0  0  0
 17 16  1  0  0  0  0
 18 19  1  0  0  0  0
 18 17  1  0  0  0  0
 19 20  1  0  0  0  0
 20 21  1  0  0  0  0
 20 16  1  0  0  0  0
 22 23  1  0  0  0  0
 23 24  2  0  0  0  0
 24  1  1  0  0  0  0
 25 24  1  0  0  0  0
 26 30  1  0  0  0  0
 26 25  2  0  0  0  0
 27 22  2  0  0  0  0
 27 26  1  0  0  0  0
 28 22  1  0  0  0  0
 29 23  1  0  0  0  0
M  END
>  <minimizedAffinity>
-4.95225811

>  <minimizedRMSD>
0.140629977

$$$$
