
 OpenBabel03242509303D

 18 19  0  0  0  0  0  0  0  0999 V2000
   37.4930   28.5960   43.4350 C   0  0  0  0  0  0  0  0  0  0  0  0
   38.2440   27.4260   43.6890 C   0  0  0  0  0  0  0  0  0  0  0  0
   38.4250   26.5220   42.6230 C   0  0  0  0  0  0  0  0  0  0  0  0
   37.8640   26.8320   41.4110 N   0  0  0  0  0  0  0  0  0  0  0  0
   37.1610   27.9590   41.2290 C   0  0  0  0  0  0  0  0  0  0  0  0
   36.9760   28.8280   42.2180 N   0  0  0  0  0  0  0  0  0  0  0  0
   37.3820   29.2550   44.2750 H   0  0  0  0  0  0  0  0  0  0  0  0
   38.6650   27.2220   44.6500 H   0  0  0  0  0  0  0  0  0  0  0  0
   36.6030   28.2250   39.9470 N   0  0  0  0  0  0  0  0  0  0  0  0
   36.4100   27.3350   38.8190 C   0  0  0  0  0  2  0  0  0  0  0  0
   35.0640   27.7420   38.2140 C   0  0  0  0  0  2  0  0  0  0  0  0
   34.7010   29.0160   38.9700 C   0  0  0  0  0  2  0  0  0  0  0  0
   36.0740   29.4730   39.4270 C   0  0  0  0  0  3  0  0  0  0  0  0
   36.0320   30.2280   40.2340 H   0  0  0  0  0  0  0  0  0  0  0  0
   39.2070   25.2800   42.8520 C   0  0  0  0  0  0  0  0  0  0  0  0
   40.1360   25.2320   41.8440 F   0  0  0  0  0  0  0  0  0  0  0  0
   39.8700   25.3060   44.0580 F   0  0  0  0  0  0  0  0  0  0  0  0
   38.4080   24.1520   42.8020 F   0  0  0  0  0  0  0  0  0  0  0  0
  1  2  1  0  0  0  0
  1  7  1  0  0  0  0
  2  8  1  0  0  0  0
  3 15  1  0  0  0  0
  3  2  2  0  0  0  0
  4  3  1  0  0  0  0
  5  4  2  0  0  0  0
  5  6  1  0  0  0  0
  6  1  2  0  0  0  0
  9  5  1  0  0  0  0
 10  9  1  0  0  0  0
 11 10  1  0  0  0  0
 11 12  1  0  0  0  0
 12 13  1  0  0  0  0
 13  9  1  0  0  0  0
 13 14  1  0  0  0  0
 15 17  1  0  0  0  0
 16 15  1  0  0  0  0
 18 15  1  0  0  0  0
M  END
>  <minimizedAffinity>
-4.22201443

>  <minimizedRMSD>
1.87491763

$$$$
