
 OpenBabel03242509243D

 45 49  0  0  0  0  0  0  0  0999 V2000
   36.1220   30.0650   41.0950 C   0  0  0  0  0  0  0  0  0  0  0  0
   35.5070   30.5550   41.9010 H   0  0  0  0  0  0  0  0  0  0  0  0
   36.7140   30.9010   40.6490 H   0  0  0  0  0  0  0  0  0  0  0  0
   38.6020   28.1610   42.6940 C   0  0  0  0  0  0  0  0  0  0  0  0
   37.5230   27.3140   42.7930 C   0  0  0  0  0  0  0  0  0  0  0  0
   36.4550   27.9730   42.1780 C   0  0  0  0  0  0  0  0  0  0  0  0
   36.9680   29.1410   41.7670 N   0  0  0  0  0  0  0  0  0  0  0  0
   38.2240   29.2920   42.0500 N   0  0  0  0  0  0  0  0  0  0  0  0
   37.5000   26.3200   43.2590 H   0  0  0  0  0  0  0  0  0  0  0  0
   35.4970   27.5140   42.1260 H   0  0  0  0  0  0  0  0  0  0  0  0
   41.5430   26.5080   44.2770 C   0  0  0  0  0  0  0  0  0  0  0  0
   40.2360   26.6870   43.8190 C   0  0  0  0  0  0  0  0  0  0  0  0
   39.9400   27.9190   43.1880 C   0  0  0  0  0  0  0  0  0  0  0  0
   40.9080   28.8650   43.0480 N   0  0  0  0  0  0  0  0  0  0  0  0
   42.1720   28.6090   43.5280 C   0  0  0  0  0  0  0  0  0  0  0  0
   42.4700   27.4590   44.1230 N   0  0  0  0  0  0  0  0  0  0  0  0
   41.6670   25.5460   44.7400 H   0  0  0  0  0  0  0  0  0  0  0  0
   39.4380   25.9870   43.8990 H   0  0  0  0  0  0  0  0  0  0  0  0
   43.1250   29.6490   43.3420 N   0  0  0  0  0  0  0  0  0  0  0  0
   44.4810   29.4600   42.8690 C   0  0  0  0  0  0  0  0  0  0  0  0
   45.0060   30.8630   42.6830 C   0  0  0  0  0  0  0  0  0  0  0  0
   44.1480   31.7700   43.5010 C   0  0  0  0  0  0  0  0  0  0  0  0
   42.8450   31.0530   43.6100 C   0  0  0  0  0  0  0  0  0  0  0  0
   42.1300   31.4940   42.8720 H   0  0  0  0  0  0  0  0  0  0  0  0
   35.2420   29.4950   40.0340 C   0  0  0  0  0  0  0  0  0  0  0  0
   34.5250   30.3760   39.9070 H   0  0  0  0  0  0  0  0  0  0  0  0
   34.7720   28.5890   40.3940 H   0  0  0  0  0  0  0  0  0  0  0  0
   35.8590   29.4160   38.6890 C   0  0  0  0  0  0  0  0  0  0  0  0
   37.1810   29.5520   38.3640 C   0  0  0  0  0  0  0  0  0  0  0  0
   37.6990   29.5380   37.1040 C   0  0  0  0  0  0  0  0  0  0  0  0
   36.8650   29.3770   36.0370 C   0  0  0  0  0  0  0  0  0  0  0  0
   35.5070   29.2320   36.2820 C   0  0  0  0  0  0  0  0  0  0  0  0
   34.7110   29.0830   35.1750 C   0  0  0  0  0  0  0  0  0  0  0  0
   33.3700   28.9390   35.3090 C   0  0  0  0  0  0  0  0  0  0  0  0
   32.8220   28.9410   36.5810 C   0  0  0  0  0  0  0  0  0  0  0  0
   33.6590   29.0920   37.6480 C   0  0  0  0  0  0  0  0  0  0  0  0
   35.0030   29.2470   37.5820 C   0  0  0  0  0  0  0  0  0  0  0  0
   37.8530   29.6810   39.2090 H   0  0  0  0  0  0  0  0  0  0  0  0
   38.7550   29.6520   36.9690 H   0  0  0  0  0  0  0  0  0  0  0  0
   37.2770   29.3660   35.0360 H   0  0  0  0  0  0  0  0  0  0  0  0
   35.1250   29.0770   34.1690 H   0  0  0  0  0  0  0  0  0  0  0  0
   32.7520   28.8250   34.4290 H   0  0  0  0  0  0  0  0  0  0  0  0
   31.7610   28.8240   36.6810 H   0  0  0  0  0  0  0  0  0  0  0  0
   33.0510   29.0670   38.8890 O   0  0  0  0  0  0  0  0  0  0  0  0
   32.4490   28.2710   39.1150 H   0  0  0  0  0  0  0  0  0  0  0  0
  1  7  1  0  0  0  0
  1  2  1  0  0  0  0
  3  1  1  0  0  0  0
  4  5  1  0  0  0  0
  4 13  1  0  0  0  0
  5  9  1  0  0  0  0
  6  5  2  0  0  0  0
  7  8  1  0  0  0  0
  7  6  1  0  0  0  0
  8  4  2  0  0  0  0
 10  6  1  0  0  0  0
 11 17  1  0  0  0  0
 12 18  1  0  0  0  0
 12 11  2  0  0  0  0
 13 12  1  0  0  0  0
 14 13  2  0  0  0  0
 14 15  1  0  0  0  0
 15 16  2  0  0  0  0
 16 11  1  0  0  0  0
 19 15  1  0  0  0  0
 19 23  1  0  0  0  0
 20 19  1  0  0  0  0
 21 20  1  0  0  0  0
 21 22  1  0  0  0  0
 22 23  1  0  0  0  0
 24 23  1  0  0  0  0
 25 27  1  0  0  0  0
 25  1  1  0  0  0  0
 26 25  1  0  0  0  0
 28 25  1  0  0  0  0
 29 28  1  0  0  0  0
 29 38  1  0  0  0  0
 30 29  2  0  0  0  0
 31 32  2  0  0  0  0
 31 30  1  0  0  0  0
 32 37  1  0  0  0  0
 33 34  2  0  0  0  0
 33 32  1  0  0  0  0
 34 35  1  0  0  0  0
 35 43  1  0  0  0  0
 35 36  2  0  0  0  0
 36 44  1  0  0  0  0
 37 36  1  0  0  0  0
 37 28  2  0  0  0  0
 39 30  1  0  0  0  0
 40 31  1  0  0  0  0
 41 33  1  0  0  0  0
 42 34  1  0  0  0  0
 44 45  1  0  0  0  0
M  END
>  <minimizedAffinity>
-6.25238514

>  <minimizedRMSD>
0.257790208

$$$$
