REMARK  Name = 
REMARK  1 active torsions:
REMARK  status: ('A' for Active; 'I' for Inactive)
REMARK    1  A    between atoms: C_3  and  C_7
REMARK                            x       y       z     vdW  Elec       q    Type
REMARK                         _______ _______ _______ _____ _____    ______ ____
ROOT
ATOM      1  C   UNL     1      37.975  28.880  43.371  0.00  0.00    +0.000 A 
ATOM      2  C   UNL     1      38.085  27.472  43.306  0.00  0.00    +0.000 A 
ATOM      3  C   UNL     1      37.431  26.814  42.246  0.00  0.00    +0.000 A 
ATOM      4  N   UNL     1      36.731  27.576  41.346  0.00  0.00    +0.000 NA
ATOM      5  C   UNL     1      36.662  28.910  41.458  0.00  0.00    +0.000 A 
ATOM      6  N   UNL     1      37.270  29.555  42.449  0.00  0.00    +0.000 NA
ATOM      7  H   UNL     1      38.489  29.338  44.194  0.00  0.00    +0.000 HD
ATOM      8  H   UNL     1      38.641  26.915  44.029  0.00  0.00    +0.000 HD
ATOM      9  N   UNL     1      35.920  29.647  40.492  0.00  0.00    +0.000 N 
ATOM     10  C   UNL     1      34.520  30.026  40.493  0.00  0.00    +0.000 C 
ATOM     11  C   UNL     1      34.487  31.437  39.903  0.00  0.00    +0.000 C 
ATOM     12  C   UNL     1      35.916  31.654  39.413  0.00  0.00    +0.000 C 
ATOM     13  C   UNL     1      36.375  30.219  39.239  0.00  0.00    +0.000 C 
ATOM     14  H   UNL     1      37.475  30.123  39.159  0.00  0.00    +0.000 HD
ENDROOT
BRANCH   3  15
ATOM     15  C   UNL     1      37.523  25.335  42.145  0.00  0.00    +0.000 C 
ATOM     16  F   UNL     1      37.655  25.058  40.809  0.00  0.00    +0.000 F 
ATOM     17  F   UNL     1      38.625  24.843  42.806  0.00  0.00    +0.000 F 
ATOM     18  F   UNL     1      36.389  24.714  42.639  0.00  0.00    +0.000 F 
ENDBRANCH   3  15
TORSDOF 1
