
 OpenBabel03242509253D

 45 49  0  0  0  0  0  0  0  0999 V2000
   36.1470   30.0730   41.1070 C   0  0  0  0  0  0  0  0  0  0  0  0
   35.5370   30.5660   41.9150 H   0  0  0  0  0  0  0  0  0  0  0  0
   36.7410   30.9060   40.6580 H   0  0  0  0  0  0  0  0  0  0  0  0
   38.6230   28.1550   42.6950 C   0  0  0  0  0  0  0  0  0  0  0  0
   37.5380   27.3160   42.8040 C   0  0  0  0  0  0  0  0  0  0  0  0
   36.4700   27.9810   42.1940 C   0  0  0  0  0  0  0  0  0  0  0  0
   36.9900   29.1440   41.7760 N   0  0  0  0  0  0  0  0  0  0  0  0
   38.2490   29.2860   42.0490 N   0  0  0  0  0  0  0  0  0  0  0  0
   37.5100   26.3240   43.2740 H   0  0  0  0  0  0  0  0  0  0  0  0
   35.5080   27.5300   42.1510 H   0  0  0  0  0  0  0  0  0  0  0  0
   41.5390   26.5250   44.3460 C   0  0  0  0  0  0  0  0  0  0  0  0
   40.2290   26.7150   43.9010 C   0  0  0  0  0  0  0  0  0  0  0  0
   39.9620   27.9040   43.1800 C   0  0  0  0  0  0  0  0  0  0  0  0
   40.9590   28.8000   42.9470 N   0  0  0  0  0  0  0  0  0  0  0  0
   42.2230   28.5370   43.4200 C   0  0  0  0  0  0  0  0  0  0  0  0
   42.4950   27.4270   44.0990 N   0  0  0  0  0  0  0  0  0  0  0  0
   41.6400   25.5990   44.8810 H   0  0  0  0  0  0  0  0  0  0  0  0
   39.4100   26.0530   44.0520 H   0  0  0  0  0  0  0  0  0  0  0  0
   43.2070   29.5240   43.1340 N   0  0  0  0  0  0  0  0  0  0  0  0
   43.6040   29.9440   41.8050 C   0  0  0  0  0  2  0  0  0  0  0  0
   44.5290   31.1110   42.0470 C   0  0  0  0  0  2  0  0  0  0  0  0
   45.0130   31.0100   43.4540 C   0  0  0  0  0  2  0  0  0  0  0  0
   43.9470   30.2430   44.1620 C   0  0  0  0  0  3  0  0  0  0  0  0
   43.3030   30.9620   44.7260 H   0  0  0  0  0  0  0  0  0  0  0  0
   35.2590   29.5070   40.0490 C   0  0  0  0  0  0  0  0  0  0  0  0
   34.5450   30.3910   39.9260 H   0  0  0  0  0  0  0  0  0  0  0  0
   34.7880   28.6020   40.4100 H   0  0  0  0  0  0  0  0  0  0  0  0
   35.8710   29.4270   38.7010 C   0  0  0  0  0  0  0  0  0  0  0  0
   37.1910   29.5660   38.3700 C   0  0  0  0  0  0  0  0  0  0  0  0
   37.7030   29.5500   37.1080 C   0  0  0  0  0  0  0  0  0  0  0  0
   36.8650   29.3840   36.0450 C   0  0  0  0  0  0  0  0  0  0  0  0
   35.5080   29.2350   36.2960 C   0  0  0  0  0  0  0  0  0  0  0  0
   34.7070   29.0810   35.1940 C   0  0  0  0  0  0  0  0  0  0  0  0
   33.3680   28.9330   35.3340 C   0  0  0  0  0  0  0  0  0  0  0  0
   32.8250   28.9360   36.6090 C   0  0  0  0  0  0  0  0  0  0  0  0
   33.6670   29.0930   37.6710 C   0  0  0  0  0  0  0  0  0  0  0  0
   35.0100   29.2520   37.5980 C   0  0  0  0  0  0  0  0  0  0  0  0
   37.8660   29.6990   39.2110 H   0  0  0  0  0  0  0  0  0  0  0  0
   38.7580   29.6680   36.9670 H   0  0  0  0  0  0  0  0  0  0  0  0
   37.2710   29.3720   35.0410 H   0  0  0  0  0  0  0  0  0  0  0  0
   35.1170   29.0740   34.1850 H   0  0  0  0  0  0  0  0  0  0  0  0
   32.7460   28.8150   34.4570 H   0  0  0  0  0  0  0  0  0  0  0  0
   31.7650   28.8160   36.7140 H   0  0  0  0  0  0  0  0  0  0  0  0
   33.0650   29.0690   38.9160 O   0  0  0  0  0  0  0  0  0  0  0  0
   32.4660   28.2720   39.1460 H   0  0  0  0  0  0  0  0  0  0  0  0
  1  7  1  0  0  0  0
  1  2  1  0  0  0  0
  3  1  1  0  0  0  0
  4  5  1  0  0  0  0
  4 13  1  0  0  0  0
  5  9  1  0  0  0  0
  6  5  2  0  0  0  0
  7  8  1  0  0  0  0
  7  6  1  0  0  0  0
  8  4  2  0  0  0  0
 10  6  1  0  0  0  0
 11 17  1  0  0  0  0
 12 18  1  0  0  0  0
 12 11  2  0  0  0  0
 13 12  1  0  0  0  0
 14 13  2  0  0  0  0
 14 15  1  0  0  0  0
 15 16  2  0  0  0  0
 16 11  1  0  0  0  0
 19 15  1  0  0  0  0
 19 23  1  0  0  0  0
 20 21  1  0  0  0  0
 20 19  1  0  0  0  0
 21 22  1  0  0  0  0
 22 23  1  0  0  0  0
 23 24  1  0  0  0  0
 25 27  1  0  0  0  0
 25  1  1  0  0  0  0
 26 25  1  0  0  0  0
 28 25  1  0  0  0  0
 29 28  1  0  0  0  0
 29 38  1  0  0  0  0
 30 29  2  0  0  0  0
 31 32  2  0  0  0  0
 31 30  1  0  0  0  0
 32 37  1  0  0  0  0
 33 34  2  0  0  0  0
 33 32  1  0  0  0  0
 34 35  1  0  0  0  0
 35 43  1  0  0  0  0
 35 36  2  0  0  0  0
 36 44  1  0  0  0  0
 37 36  1  0  0  0  0
 37 28  2  0  0  0  0
 39 30  1  0  0  0  0
 40 31  1  0  0  0  0
 41 33  1  0  0  0  0
 42 34  1  0  0  0  0
 44 45  1  0  0  0  0
M  END
>  <minimizedAffinity>
-6.14042902

>  <minimizedRMSD>
0.101797722

$$$$
