
 OpenBabel03242509203D

 28 30  0  0  0  0  0  0  0  0999 V2000
   42.1760   30.5780   37.6170 C   0  0  0  0  0  0  0  0  0  0  0  0
   41.2420   29.6820   37.2020 C   0  0  0  0  0  0  0  0  0  0  0  0
   40.2390   29.6570   38.1240 C   0  0  0  0  0  0  0  0  0  0  0  0
   40.6140   30.5560   39.0750 N   0  0  0  0  0  0  0  0  0  0  0  0
   41.7540   31.0890   38.7640 N   0  0  0  0  0  0  0  0  0  0  0  0
   41.3560   29.1140   36.2610 H   0  0  0  0  0  0  0  0  0  0  0  0
   39.4290   28.9610   37.9060 H   0  0  0  0  0  0  0  0  0  0  0  0
   45.0240   30.5700   35.1810 C   0  0  0  0  0  0  0  0  0  0  0  0
   43.8120   30.2240   35.7900 C   0  0  0  0  0  0  0  0  0  0  0  0
   43.4230   30.9040   36.9300 C   0  0  0  0  0  0  0  0  0  0  0  0
   44.2150   31.8850   37.4340 N   0  0  0  0  0  0  0  0  0  0  0  0
   45.3900   32.1910   36.8100 C   0  0  0  0  0  0  0  0  0  0  0  0
   45.7830   31.5400   35.7030 N   0  0  0  0  0  0  0  0  0  0  0  0
   45.2410   29.9960   34.3110 H   0  0  0  0  0  0  0  0  0  0  0  0
   43.1860   29.4530   35.4010 H   0  0  0  0  0  0  0  0  0  0  0  0
   46.0290   32.9530   37.1800 H   0  0  0  0  0  0  0  0  0  0  0  0
   39.7250   30.7660   40.2090 C   0  0  0  0  0  0  0  0  0  0  0  0
   38.7710   31.1800   39.8100 H   0  0  0  0  0  0  0  0  0  0  0  0
   40.2030   31.4530   40.9070 H   0  0  0  0  0  0  0  0  0  0  0  0
   39.3350   29.4750   40.9030 C   0  0  0  0  0  0  0  0  0  0  0  0
   38.6840   28.9570   40.1360 H   0  0  0  0  0  0  0  0  0  0  0  0
   40.2300   28.8420   41.0130 H   0  0  0  0  0  0  0  0  0  0  0  0
   38.5560   29.6250   42.0840 N   0  0  0  0  0  0  0  0  0  0  0  0
   38.7450   28.5340   43.0240 C   0  0  0  0  0  0  0  0  0  0  0  0
   37.3720   28.1090   43.4910 C   0  0  0  0  0  0  0  0  0  0  0  0
   36.6060   28.3320   42.1770 C   0  0  0  0  0  0  0  0  0  0  0  0
   37.1300   29.6920   41.7910 C   0  0  0  0  0  0  0  0  0  0  0  0
   36.6630   30.5270   42.3370 H   0  0  0  0  0  0  0  0  0  0  0  0
  1  5  2  0  0  0  0
  2  1  1  0  0  0  0
  2  3  2  0  0  0  0
  3  4  1  0  0  0  0
  4 17  1  0  0  0  0
  5  4  1  0  0  0  0
  6  2  1  0  0  0  0
  7  3  1  0  0  0  0
  8 13  2  0  0  0  0
  8  9  1  0  0  0  0
  9 10  2  0  0  0  0
 10 11  1  0  0  0  0
 10  1  1  0  0  0  0
 12 16  1  0  0  0  0
 12 11  2  0  0  0  0
 13 12  1  0  0  0  0
 14  8  1  0  0  0  0
 15  9  1  0  0  0  0
 17 20  1  0  0  0  0
 17 19  1  0  0  0  0
 18 17  1  0  0  0  0
 20 22  1  0  0  0  0
 20 23  1  0  0  0  0
 21 20  1  0  0  0  0
 23 24  1  0  0  0  0
 24 25  1  0  0  0  0
 26 25  1  0  0  0  0
 27 23  1  0  0  0  0
 27 26  1  0  0  0  0
 27 28  1  0  0  0  0
M  END
>  <minimizedAffinity>
-3.71217012

>  <minimizedRMSD>
6.72356892

$$$$
