
 OpenBabel03242509023D

 35 38  0  0  1  0  0  0  0  0999 V2000
   37.9670   30.0010   38.9230 N   0  0  1  0  0  0  0  0  0  0  0  0
   37.6990   29.6490   37.5100 C   0  0  0  0  0  0  0  0  0  0  0  0
   38.4880   28.4490   37.0740 C   0  0  0  0  0  0  0  0  0  0  0  0
   39.7950   28.4940   37.5460 O   0  0  0  0  0  0  0  0  0  0  0  0
   40.1230   29.8280   37.7690 C   0  0  0  0  0  0  0  0  0  0  0  0
   39.3340   30.3730   38.9580 C   0  0  1  0  0  0  0  0  0  0  0  0
   36.6250   29.3820   37.4140 H   0  0  0  0  0  0  0  0  0  0  0  0
   37.8330   30.5430   36.8700 H   0  0  0  0  0  0  0  0  0  0  0  0
   38.4180   28.3650   35.9920 H   0  0  0  0  0  0  0  0  0  0  0  0
   37.9550   27.5610   37.5170 H   0  0  0  0  0  0  0  0  0  0  0  0
   39.8780   30.3330   36.8150 H   0  0  0  0  0  0  0  0  0  0  0  0
   41.1890   29.9390   38.0090 H   0  0  0  0  0  0  0  0  0  0  0  0
   39.7650   29.7760   39.8220 H   0  0  0  0  0  0  0  0  0  0  0  0
   36.2730   30.6750   40.7530 C   0  0  1  0  0  0  0  0  0  0  0  0
   37.1590   31.8360   40.5210 C   0  0  0  0  0  0  0  0  0  0  0  0
   37.0090   30.8920   39.4120 C   0  0  1  0  0  0  0  0  0  0  0  0
   35.1810   30.6910   40.7210 H   0  0  0  0  0  0  0  0  0  0  0  0
   36.6290   32.8330   40.5140 H   0  0  0  0  0  0  0  0  0  0  0  0
   38.0690   31.9160   41.1490 H   0  0  0  0  0  0  0  0  0  0  0  0
   36.2810   31.2670   38.6290 H   0  0  0  0  0  0  0  0  0  0  0  0
   38.3530   28.9480   43.2470 C   0  0  0  0  0  0  0  0  0  0  0  0
   37.7470   27.6760   43.3360 C   0  0  0  0  0  0  0  0  0  0  0  0
   36.6220   27.4380   42.5070 C   0  0  0  0  0  0  0  0  0  0  0  0
   36.1750   28.4420   41.6640 N   0  0  0  0  0  0  0  0  0  0  0  0
   36.8050   29.6180   41.6410 C   0  0  0  0  0  0  0  0  0  0  0  0
   37.8810   29.8890   42.4130 N   0  0  0  0  0  0  0  0  0  0  0  0
   39.2050   29.0930   43.8910 H   0  0  0  0  0  0  0  0  0  0  0  0
   38.0560   26.8760   43.9680 H   0  0  0  0  0  0  0  0  0  0  0  0
   36.0790   26.4950   42.4950 H   0  0  0  0  0  0  0  0  0  0  0  0
   39.6460   31.7270   39.2800 N   0  0  1  0  0  0  0  0  0  0  0  0
   40.6220   31.7630   40.3690 C   0  0  0  0  0  0  0  0  0  0  0  0
   41.7580   32.6290   39.9040 C   0  0  0  0  0  0  0  0  0  0  0  0
   41.0460   33.5220   38.9060 C   0  0  0  0  0  0  0  0  0  0  0  0
   40.1580   32.5140   38.2020 C   0  0  0  0  0  0  0  0  0  0  0  0
   40.8380   31.9940   37.5020 H   0  0  0  0  0  0  0  0  0  0  0  0
  1  2  1  6  0  0  0
  1  6  1  0  0  0  0
  1 16  1  0  0  0  0
  3  2  1  0  0  0  0
  3 10  1  0  0  0  0
  3  4  1  0  0  0  0
  4  5  1  0  0  0  0
  5 12  1  0  0  0  0
  5  6  1  0  0  0  0
  6 30  1  0  0  0  0
  6 13  1  1  0  0  0
  7  2  1  0  0  0  0
  8  2  1  0  0  0  0
  9  3  1  0  0  0  0
 11  5  1  0  0  0  0
 14 17  1  1  0  0  0
 14 25  1  0  0  0  0
 15 14  1  0  0  0  0
 15 19  1  0  0  0  0
 16 20  1  6  0  0  0
 16 15  1  0  0  0  0
 16 14  1  0  0  0  0
 18 15  1  0  0  0  0
 21 22  1  0  0  0  0
 21 27  1  0  0  0  0
 22 28  1  0  0  0  0
 23 22  2  0  0  0  0
 24 23  1  0  0  0  0
 25 24  2  0  0  0  0
 25 26  1  0  0  0  0
 26 21  2  0  0  0  0
 29 23  1  0  0  0  0
 30 31  1  1  0  0  0
 32 31  1  0  0  0  0
 33 32  1  0  0  0  0
 34 33  1  0  0  0  0
 34 30  1  0  0  0  0
 35 34  1  0  0  0  0
M  END
>  <minimizedAffinity>
-4.67503214

>  <minimizedRMSD>
0.168285921

$$$$
