
 OpenBabel03242509293D

 18 19  0  0  0  0  0  0  0  0999 V2000
   37.8930   28.7060   43.6360 C   0  0  0  0  0  0  0  0  0  0  0  0
   37.9510   27.2990   43.5130 C   0  0  0  0  0  0  0  0  0  0  0  0
   37.4800   26.7280   42.3140 C   0  0  0  0  0  0  0  0  0  0  0  0
   36.9960   27.5690   41.3440 N   0  0  0  0  0  0  0  0  0  0  0  0
   36.9660   28.8980   41.5170 C   0  0  0  0  0  0  0  0  0  0  0  0
   37.4040   29.4610   42.6390 N   0  0  0  0  0  0  0  0  0  0  0  0
   38.2620   29.0960   44.5650 H   0  0  0  0  0  0  0  0  0  0  0  0
   38.3350   26.6790   44.2930 H   0  0  0  0  0  0  0  0  0  0  0  0
   36.4530   29.7190   40.4740 N   0  0  0  0  0  0  0  0  0  0  0  0
   36.9810   30.9520   39.9230 C   0  0  0  0  0  2  0  0  0  0  0  0
   36.7130   30.8640   38.4180 C   0  0  0  0  0  2  0  0  0  0  0  0
   35.8360   29.6230   38.2820 C   0  0  0  0  0  2  0  0  0  0  0  0
   35.2520   29.5350   39.6800 C   0  0  0  0  0  3  0  0  0  0  0  0
   34.8020   28.5480   39.8990 H   0  0  0  0  0  0  0  0  0  0  0  0
   37.5240   25.2530   42.1470 C   0  0  0  0  0  0  0  0  0  0  0  0
   37.6330   25.0310   40.7990 F   0  0  0  0  0  0  0  0  0  0  0  0
   38.6180   24.6980   42.7730 F   0  0  0  0  0  0  0  0  0  0  0  0
   36.3770   24.6460   42.6280 F   0  0  0  0  0  0  0  0  0  0  0  0
  1  7  1  0  0  0  0
  2  1  1  0  0  0  0
  2  8  1  0  0  0  0
  3  2  2  0  0  0  0
  4  5  2  0  0  0  0
  4  3  1  0  0  0  0
  5  6  1  0  0  0  0
  6  1  2  0  0  0  0
  9  5  1  0  0  0  0
 10  9  1  0  0  0  0
 11 10  1  0  0  0  0
 12 11  1  0  0  0  0
 12 13  1  0  0  0  0
 13 14  1  0  0  0  0
 13  9  1  0  0  0  0
 15  3  1  0  0  0  0
 15 18  1  0  0  0  0
 15 17  1  0  0  0  0
 16 15  1  0  0  0  0
M  END
>  <minimizedAffinity>
-4.60800362

>  <minimizedRMSD>
0.500087917

$$$$
