
 OpenBabel03242509303D

 18 19  0  0  0  0  0  0  0  0999 V2000
   37.8820   28.7140   43.4780 C   0  0  0  0  0  0  0  0  0  0  0  0
   38.0380   27.3090   43.4410 C   0  0  0  0  0  0  0  0  0  0  0  0
   37.5590   26.6290   42.3040 C   0  0  0  0  0  0  0  0  0  0  0  0
   36.9740   27.3680   41.3080 N   0  0  0  0  0  0  0  0  0  0  0  0
   36.8550   28.7000   41.3980 C   0  0  0  0  0  0  0  0  0  0  0  0
   37.2980   29.3650   42.4600 N   0  0  0  0  0  0  0  0  0  0  0  0
   38.2620   29.1900   44.3620 H   0  0  0  0  0  0  0  0  0  0  0  0
   38.5000   26.7710   44.2400 H   0  0  0  0  0  0  0  0  0  0  0  0
   36.2380   29.4120   40.3300 N   0  0  0  0  0  0  0  0  0  0  0  0
   36.7760   30.4600   39.4850 C   0  0  0  0  0  2  0  0  0  0  0  0
   36.2140   30.1770   38.0900 C   0  0  0  0  0  2  0  0  0  0  0  0
   35.2010   29.0620   38.3310 C   0  0  0  0  0  2  0  0  0  0  0  0
   34.8930   29.2740   39.8020 C   0  0  0  0  0  3  0  0  0  0  0  0
   34.3930   28.4040   40.2680 H   0  0  0  0  0  0  0  0  0  0  0  0
   37.7040   25.1530   42.2290 C   0  0  0  0  0  0  0  0  0  0  0  0
   38.0090   24.8720   40.9230 F   0  0  0  0  0  0  0  0  0  0  0  0
   38.7280   24.6960   43.0270 F   0  0  0  0  0  0  0  0  0  0  0  0
   36.5350   24.5020   42.5840 F   0  0  0  0  0  0  0  0  0  0  0  0
  1  7  1  0  0  0  0
  2  1  1  0  0  0  0
  2  8  1  0  0  0  0
  3  2  2  0  0  0  0
  4  5  2  0  0  0  0
  4  3  1  0  0  0  0
  5  6  1  0  0  0  0
  6  1  2  0  0  0  0
  9  5  1  0  0  0  0
 10  9  1  0  0  0  0
 11 12  1  0  0  0  0
 11 10  1  0  0  0  0
 12 13  1  0  0  0  0
 13 14  1  0  0  0  0
 13  9  1  0  0  0  0
 15  3  1  0  0  0  0
 15 18  1  0  0  0  0
 15 17  1  0  0  0  0
 16 15  1  0  0  0  0
M  END
>  <minimizedAffinity>
-4.62733126

>  <minimizedRMSD>
0.413505912

$$$$
