
 OpenBabel03242509303D

 18 19  0  0  0  0  0  0  0  0999 V2000
   37.8500   28.7690   43.3970 C   0  0  0  0  0  0  0  0  0  0  0  0
   38.1010   27.3780   43.3920 C   0  0  0  0  0  0  0  0  0  0  0  0
   37.6660   26.6400   42.2740 C   0  0  0  0  0  0  0  0  0  0  0  0
   37.0290   27.3130   41.2630 N   0  0  0  0  0  0  0  0  0  0  0  0
   36.8190   28.6350   41.3230 C   0  0  0  0  0  0  0  0  0  0  0  0
   37.2190   29.3550   42.3670 N   0  0  0  0  0  0  0  0  0  0  0  0
   38.1990   29.2900   44.2680 H   0  0  0  0  0  0  0  0  0  0  0  0
   38.6020   26.8920   44.2020 H   0  0  0  0  0  0  0  0  0  0  0  0
   36.1520   29.2780   40.2420 N   0  0  0  0  0  0  0  0  0  0  0  0
   36.6910   30.1210   39.1930 C   0  0  0  0  0  2  0  0  0  0  0  0
   35.9130   29.7380   37.9320 C   0  0  0  0  0  2  0  0  0  0  0  0
   34.8170   28.8130   38.4540 C   0  0  0  0  0  2  0  0  0  0  0  0
   34.7400   29.2560   39.9020 C   0  0  0  0  0  3  0  0  0  0  0  0
   34.2090   28.5340   40.5490 H   0  0  0  0  0  0  0  0  0  0  0  0
   37.9110   25.1750   42.2340 C   0  0  0  0  0  0  0  0  0  0  0  0
   38.3070   24.8970   40.9510 F   0  0  0  0  0  0  0  0  0  0  0  0
   38.9170   24.7990   43.0940 F   0  0  0  0  0  0  0  0  0  0  0  0
   36.7690   24.4540   42.5350 F   0  0  0  0  0  0  0  0  0  0  0  0
  1  7  1  0  0  0  0
  2  1  1  0  0  0  0
  2  8  1  0  0  0  0
  3  2  2  0  0  0  0
  4  5  2  0  0  0  0
  4  3  1  0  0  0  0
  5  6  1  0  0  0  0
  6  1  2  0  0  0  0
  9  5  1  0  0  0  0
 10  9  1  0  0  0  0
 11 12  1  0  0  0  0
 11 10  1  0  0  0  0
 12 13  1  0  0  0  0
 13  9  1  0  0  0  0
 13 14  1  0  0  0  0
 15  3  1  0  0  0  0
 15 18  1  0  0  0  0
 15 17  1  0  0  0  0
 16 15  1  0  0  0  0
M  END
>  <minimizedAffinity>
-4.62949133

>  <minimizedRMSD>
0.507919729

$$$$
