
 OpenBabel03242507403D

 30 32  0  0  1  0  0  0  0  0999 V2000
   38.2950   28.3030   43.5910 C   0  0  0  0  0  0  0  0  0  0  0  0
   37.8140   26.9800   43.4910 C   0  0  0  0  0  0  0  0  0  0  0  0
   37.3000   26.5810   42.2500 C   0  0  0  0  0  0  0  0  0  0  0  0
   37.2950   27.4680   41.2430 N   0  0  0  0  0  0  0  0  0  0  0  0
   37.7600   28.7300   41.3600 C   0  0  0  0  0  0  0  0  0  0  0  0
   38.2610   29.1430   42.5400 N   0  0  0  0  0  0  0  0  0  0  0  0
   36.7900   25.3000   42.0070 N   0  0  0  0  0  0  0  0  0  0  0  0
   37.7590   29.6800   40.2970 N   0  0  0  0  0  0  0  0  0  0  0  0
   37.2750   29.2450   39.1170 C   0  0  0  0  0  0  0  0  0  0  0  0
   37.1940   30.0130   37.9800 C   0  0  0  0  0  0  0  0  0  0  0  0
   37.6440   31.3130   38.0840 C   0  0  0  0  0  0  0  0  0  0  0  0
   37.6040   32.0840   37.0840 O   0  0  0  0  0  0  0  0  0  0  0  0
   38.1290   31.7300   39.2850 N   0  0  0  0  0  0  0  0  0  0  0  0
   38.1890   30.9490   40.3670 C   0  0  0  0  0  0  0  0  0  0  0  0
   38.6300   31.3220   41.4660 O   0  0  0  0  0  0  0  0  0  0  0  0
   38.6960   28.6200   44.5540 H   0  0  0  0  0  0  0  0  0  0  0  0
   37.8230   26.2750   44.3050 H   0  0  0  0  0  0  0  0  0  0  0  0
   36.8810   24.8530   41.0750 H   0  0  0  0  0  0  0  0  0  0  0  0
   36.3270   24.8560   42.8320 H   0  0  0  0  0  0  0  0  0  0  0  0
   36.9110   28.2220   39.0070 H   0  0  0  0  0  0  0  0  0  0  0  0
   38.3780   33.3240   41.3220 H   0  0  0  0  0  0  0  0  0  0  0  0
   38.0000   33.8230   40.4600 N   0  0  0  0  0  0  0  0  0  0  0  0
   38.7600   35.0730   40.4420 C   0  0  0  0  0  0  0  0  0  0  0  0
   40.0990   34.7700   39.8640 C   0  0  0  0  0  0  0  0  0  0  0  0
   40.0460   33.2480   39.6750 C   0  0  0  0  0  0  0  0  0  0  0  0
   38.5810   33.0830   39.3320 C   0  0  1  0  0  0  0  0  0  0  0  0
   36.6490   29.4700   36.7110 C   0  0  0  0  0  0  0  0  0  0  0  0
   37.4290   28.8650   36.1670 H   0  0  0  0  0  0  0  0  0  0  0  0
   36.3800   30.2990   36.0240 H   0  0  0  0  0  0  0  0  0  0  0  0
   35.8010   28.7840   36.9300 H   0  0  0  0  0  0  0  0  0  0  0  0
  1 16  1  0  0  0  0
  2  1  1  0  0  0  0
  2 17  1  0  0  0  0
  3  2  2  0  0  0  0
  4  5  2  0  0  0  0
  4  3  1  0  0  0  0
  5  6  1  0  0  0  0
  6  1  2  0  0  0  0
  7  3  1  0  0  0  0
  7 19  1  0  0  0  0
  8 14  1  0  0  0  0
  8  5  1  0  0  0  0
  9  8  1  0  0  0  0
 10 11  1  0  0  0  0
 10  9  2  0  0  0  0
 11 13  1  0  0  0  0
 12 11  2  0  0  0  0
 13 14  1  0  0  0  0
 14 15  2  0  0  0  0
 18  7  1  0  0  0  0
 20  9  1  0  0  0  0
 22 21  1  0  0  0  0
 23 22  1  0  0  0  0
 24 23  1  0  0  0  0
 25 24  1  0  0  0  0
 26 13  1  1  0  0  0
 26 25  1  0  0  0  0
 26 22  1  0  0  0  0
 27 30  1  0  0  0  0
 27 10  1  0  0  0  0
 28 27  1  0  0  0  0
 29 27  1  0  0  0  0
M  END
>  <minimizedAffinity>
-5.74243259

>  <minimizedRMSD>
1.01366258

$$$$
