
 OpenBabel03242509113D

 41 46  0  0  1  0  0  0  0  0999 V2000
   35.9220   30.5370   40.8730 C   0  0  0  0  0  0  0  0  0  0  0  0
   36.4550   29.3860   41.4910 C   0  0  0  0  0  0  0  0  0  0  0  0
   37.8270   29.2510   41.5770 C   0  0  0  0  0  0  0  0  0  0  0  0
   38.5720   30.2620   41.0490 N   0  0  0  0  0  0  0  0  0  0  0  0
   38.0510   31.3580   40.4610 C   0  0  0  0  0  0  0  0  0  0  0  0
   36.7170   31.4880   40.3750 N   0  0  0  0  0  0  0  0  0  0  0  0
   34.8750   30.7410   40.7520 H   0  0  0  0  0  0  0  0  0  0  0  0
   35.6550   28.7650   41.8430 H   0  0  0  0  0  0  0  0  0  0  0  0
   38.3740   28.0770   42.1930 C   0  0  0  0  0  0  0  0  0  0  0  0
   39.3370   28.0170   43.1940 C   0  0  0  0  0  0  0  0  0  0  0  0
   39.5730   26.7160   43.5010 N   0  0  0  0  0  0  0  0  0  0  0  0
   38.7990   25.9100   42.7380 C   0  0  0  0  0  0  0  0  0  0  0  0
   38.6520   24.5430   42.6530 C   0  0  0  0  0  0  0  0  0  0  0  0
   37.7530   23.9760   41.7490 C   0  0  0  0  0  0  0  0  0  0  0  0
   37.0270   24.8430   40.9510 C   0  0  0  0  0  0  0  0  0  0  0  0
   37.1850   26.1960   41.0480 C   0  0  0  0  0  0  0  0  0  0  0  0
   38.0640   26.7580   41.9350 C   0  0  0  0  0  0  0  0  0  0  0  0
   39.8260   28.8640   43.6580 H   0  0  0  0  0  0  0  0  0  0  0  0
   40.2390   26.3330   44.2100 H   0  0  0  0  0  0  0  0  0  0  0  0
   39.2620   23.9270   43.3170 H   0  0  0  0  0  0  0  0  0  0  0  0
   37.7270   22.8930   41.7750 H   0  0  0  0  0  0  0  0  0  0  0  0
   36.3590   24.2910   40.2840 H   0  0  0  0  0  0  0  0  0  0  0  0
   36.5630   26.6810   40.3470 H   0  0  0  0  0  0  0  0  0  0  0  0
   38.9650   32.4330   39.9350 C   0  0  1  0  0  0  0  0  0  0  0  0
   38.9930   33.7540   40.7290 C   0  0  0  0  0  0  0  0  0  0  0  0
   40.1370   32.8180   40.7570 C   0  0  2  0  0  0  0  0  0  0  0  0
   38.8520   32.6190   38.8550 H   0  0  0  0  0  0  0  0  0  0  0  0
   38.3390   33.7800   41.6220 H   0  0  0  0  0  0  0  0  0  0  0  0
   39.1080   34.6990   40.1750 H   0  0  0  0  0  0  0  0  0  0  0  0
   40.2830   32.1740   41.6700 H   0  0  0  0  0  0  0  0  0  0  0  0
   41.4320   33.1530   40.1200 C   0  0  0  0  0  0  0  0  0  0  0  0
   42.2140   34.2090   40.3960 N   0  0  0  0  0  0  0  0  0  0  0  0
   43.2660   34.1820   39.6230 O   0  0  0  0  0  0  0  0  0  0  0  0
   43.2100   33.1230   38.8290 C   0  0  0  0  0  0  0  0  0  0  0  0
   42.0530   32.4790   39.1460 N   0  0  0  0  0  0  0  0  0  0  0  0
   44.2290   32.8400   37.8760 N   0  0  0  0  0  0  0  0  0  0  0  0
   45.4640   33.5860   37.5830 C   0  0  0  0  0  0  0  0  0  0  0  0
   46.4690   32.4970   37.9850 C   0  0  0  0  0  0  0  0  0  0  0  0
   45.8420   31.3060   37.2680 C   0  0  0  0  0  0  0  0  0  0  0  0
   44.4410   31.7730   36.8820 C   0  0  0  0  0  0  0  0  0  0  0  0
   43.6880   30.9880   36.9290 H   0  0  0  0  0  0  0  0  0  0  0  0
  1  2  1  0  0  0  0
  2  3  2  0  0  0  0
  2  8  1  0  0  0  0
  3  9  1  0  0  0  0
  4  3  1  0  0  0  0
  5  4  2  0  0  0  0
  6  5  1  0  0  0  0
  6  1  2  0  0  0  0
  7  1  1  0  0  0  0
  9 10  2  0  0  0  0
 10 11  1  0  0  0  0
 10 18  1  0  0  0  0
 11 19  1  0  0  0  0
 12 11  1  0  0  0  0
 13 12  1  0  0  0  0
 13 20  1  0  0  0  0
 14 21  1  0  0  0  0
 14 13  2  0  0  0  0
 15 16  2  0  0  0  0
 15 14  1  0  0  0  0
 16 17  1  0  0  0  0
 17  9  1  0  0  0  0
 17 12  2  0  0  0  0
 22 15  1  0  0  0  0
 23 16  1  0  0  0  0
 24 27  1  6  0  0  0
 24  5  1  0  0  0  0
 24 25  1  0  0  0  0
 24 26  1  0  0  0  0
 25 26  1  0  0  0  0
 25 28  1  0  0  0  0
 26 30  1  1  0  0  0
 29 25  1  0  0  0  0
 31 32  2  0  0  0  0
 31 26  1  0  0  0  0
 33 32  1  0  0  0  0
 34 35  2  0  0  0  0
 34 33  1  0  0  0  0
 35 31  1  0  0  0  0
 36 34  1  0  0  0  0
 37 36  1  0  0  0  0
 37 38  1  0  0  0  0
 39 38  1  0  0  0  0
 40 41  1  0  0  0  0
 40 39  1  0  0  0  0
 40 36  1  0  0  0  0
M  END
>  <minimizedAffinity>
-6.4898262

>  <minimizedRMSD>
1.37762499

$$$$
