
 OpenBabel03242507363D

 37 38  0  0  1  0  0  0  0  0999 V2000
   37.0910   27.2560   40.0240 C   0  0  2  0  0  0  0  0  0  0  0  0
   36.8330   25.8260   40.4220 C   0  0  0  0  0  0  0  0  0  0  0  0
   36.0420   25.3340   39.2260 C   0  0  0  0  0  0  0  0  0  0  0  0
   36.4950   26.1520   38.0750 C   0  0  0  0  0  0  0  0  0  0  0  0
   37.6430   27.0670   38.6300 C   0  0  1  0  0  0  0  0  0  0  0  0
   36.2010   27.8590   39.8200 H   0  0  0  0  0  0  0  0  0  0  0  0
   37.7600   25.2560   40.5720 H   0  0  0  0  0  0  0  0  0  0  0  0
   36.2030   25.8670   41.3400 H   0  0  0  0  0  0  0  0  0  0  0  0
   34.9420   25.4460   39.4210 H   0  0  0  0  0  0  0  0  0  0  0  0
   36.3110   24.2590   39.0990 H   0  0  0  0  0  0  0  0  0  0  0  0
   35.6580   26.7480   37.7180 H   0  0  0  0  0  0  0  0  0  0  0  0
   36.9730   25.5450   37.2590 H   0  0  0  0  0  0  0  0  0  0  0  0
   38.5870   26.5660   38.5820 H   0  0  0  0  0  0  0  0  0  0  0  0
   38.9030   29.6380   42.2820 C   0  0  0  0  0  0  0  0  0  0  0  0
   38.0900   29.2420   41.1490 C   0  0  0  0  0  0  0  0  0  0  0  0
   37.9510   27.9040   40.9760 C   0  0  0  0  0  0  0  0  0  0  0  0
   38.5790   27.0440   41.8670 N   0  0  0  0  0  0  0  0  0  0  0  0
   39.3150   27.4590   42.8920 C   0  0  0  0  0  0  0  0  0  0  0  0
   39.4780   28.7710   43.1000 N   0  0  0  0  0  0  0  0  0  0  0  0
   39.0320   30.7180   42.4470 H   0  0  0  0  0  0  0  0  0  0  0  0
   39.7880   26.7680   43.5660 H   0  0  0  0  0  0  0  0  0  0  0  0
   37.5780   30.2380   40.3230 N   0  0  0  0  0  0  0  0  0  0  0  0
   36.5720   31.1750   40.7190 C   0  0  0  0  0  0  0  0  0  0  0  0
   35.6620   30.7410   41.5290 N   0  0  0  0  0  0  0  0  0  0  0  0
   36.7030   32.5200   40.1740 N   0  0  0  0  0  0  0  0  0  0  0  0
   34.9100   31.3500   41.8820 H   0  0  0  0  0  0  0  0  0  0  0  0
   37.9510   30.3880   39.3620 H   0  0  0  0  0  0  0  0  0  0  0  0
   36.4860   33.3650   40.7490 H   0  0  0  0  0  0  0  0  0  0  0  0
   37.0160   32.6140   39.2050 H   0  0  0  0  0  0  0  0  0  0  0  0
   37.4940   28.2180   37.7700 N   0  0  0  0  0  0  0  0  0  0  0  0
   38.2120   27.9890   36.5280 C   0  0  0  0  0  0  0  0  0  0  0  0
   39.1980   27.1320   36.4140 N   0  0  0  0  0  0  0  0  0  0  0  0
   37.9010   28.6870   35.2990 N   0  0  0  0  0  0  0  0  0  0  0  0
   37.0580   29.1530   37.6810 H   0  0  0  0  0  0  0  0  0  0  0  0
   39.7140   26.9640   35.5340 H   0  0  0  0  0  0  0  0  0  0  0  0
   37.1310   28.3730   34.6570 H   0  0  0  0  0  0  0  0  0  0  0  0
   38.4560   29.5380   35.0310 H   0  0  0  0  0  0  0  0  0  0  0  0
  1  6  1  6  0  0  0
  1  2  1  0  0  0  0
  1 16  1  0  0  0  0
  2  7  1  0  0  0  0
  2  8  1  0  0  0  0
  3  9  1  0  0  0  0
  3  2  1  0  0  0  0
  4  5  1  0  0  0  0
  4  3  1  0  0  0  0
  5 13  1  6  0  0  0
  5  1  1  0  0  0  0
 10  3  1  0  0  0  0
 11  4  1  0  0  0  0
 12  4  1  0  0  0  0
 14 20  1  0  0  0  0
 14 19  1  0  0  0  0
 15 14  2  0  0  0  0
 16 15  1  0  0  0  0
 16 17  2  0  0  0  0
 17 18  1  0  0  0  0
 18 19  2  0  0  0  0
 18 21  1  0  0  0  0
 22 23  1  0  0  0  0
 22 15  1  0  0  0  0
 23 24  2  0  0  0  0
 24 26  1  0  0  0  0
 25 23  1  0  0  0  0
 25 28  1  0  0  0  0
 27 22  1  0  0  0  0
 29 25  1  0  0  0  0
 30  5  1  0  0  0  0
 31 30  1  0  0  0  0
 32 31  2  0  0  0  0
 33 31  1  0  0  0  0
 34 30  1  0  0  0  0
 35 32  1  0  0  0  0
 36 33  1  0  0  0  0
 37 33  1  0  0  0  0
M  END
>  <minimizedAffinity>
-5.2187109

>  <minimizedRMSD>
0.695064723

$$$$
