
 OpenBabel03242509293D

 20 20  0  0  0  0  0  0  0  0999 V2000
   37.9140   28.7730   43.5630 C   0  0  0  0  0  0  0  0  0  0  0  0
   37.9620   27.3640   43.4410 C   0  0  0  0  0  0  0  0  0  0  0  0
   37.4440   26.7980   42.2750 C   0  0  0  0  0  0  0  0  0  0  0  0
   36.9190   27.6220   41.3180 N   0  0  0  0  0  0  0  0  0  0  0  0
   36.8920   28.9580   41.4750 C   0  0  0  0  0  0  0  0  0  0  0  0
   37.3900   29.5110   42.5950 N   0  0  0  0  0  0  0  0  0  0  0  0
   38.3280   29.1770   44.4890 H   0  0  0  0  0  0  0  0  0  0  0  0
   38.3830   26.7740   44.2190 H   0  0  0  0  0  0  0  0  0  0  0  0
   36.3340   29.8050   40.4510 N   0  0  0  0  0  0  0  0  0  0  0  0
   37.0700   30.0430   39.2520 C   0  0  0  0  0  0  0  0  0  0  0  0
   37.9090   29.1530   38.8410 N   0  0  0  0  0  0  0  0  0  0  0  0
   36.8440   31.2610   38.5590 N   0  0  0  0  0  0  0  0  0  0  0  0
   35.3930   30.2260   40.6160 H   0  0  0  0  0  0  0  0  0  0  0  0
   38.4280   29.3630   37.9600 H   0  0  0  0  0  0  0  0  0  0  0  0
   36.0660   31.7610   38.0740 H   0  0  0  0  0  0  0  0  0  0  0  0
   37.7840   31.7600   38.5810 H   0  0  0  0  0  0  0  0  0  0  0  0
   37.4810   25.3160   42.1170 C   0  0  0  0  0  0  0  0  0  0  0  0
   37.5340   25.0750   40.7700 F   0  0  0  0  0  0  0  0  0  0  0  0
   38.5890   24.7600   42.6880 F   0  0  0  0  0  0  0  0  0  0  0  0
   36.3360   24.7100   42.6280 F   0  0  0  0  0  0  0  0  0  0  0  0
  1  7  1  0  0  0  0
  2  1  1  0  0  0  0
  2  8  1  0  0  0  0
  3  2  2  0  0  0  0
  4  5  2  0  0  0  0
  4  3  1  0  0  0  0
  5  6  1  0  0  0  0
  6  1  2  0  0  0  0
  9 13  1  0  0  0  0
  9  5  1  0  0  0  0
 10  9  1  0  0  0  0
 11 10  2  0  0  0  0
 12 16  1  0  0  0  0
 12 10  1  0  0  0  0
 14 11  1  0  0  0  0
 15 12  1  0  0  0  0
 17  3  1  0  0  0  0
 17 20  1  0  0  0  0
 17 19  1  0  0  0  0
 18 17  1  0  0  0  0
M  END
>  <minimizedAffinity>
-4.16633654

>  <minimizedRMSD>
0.380362779

$$$$
