
 OpenBabel03242508583D

 24 25  0  0  1  0  0  0  0  0999 V2000
   36.3880   31.1530   40.7110 C   0  0  1  0  0  0  0  0  0  0  0  0
   37.3480   32.2530   40.3890 C   0  0  0  0  0  0  0  0  0  0  0  0
   36.8850   31.3800   39.2800 C   0  0  1  0  0  0  0  0  0  0  0  0
   35.3280   31.3020   40.9040 H   0  0  0  0  0  0  0  0  0  0  0  0
   36.9680   33.2900   40.4990 H   0  0  0  0  0  0  0  0  0  0  0  0
   38.4140   32.1620   40.6440 H   0  0  0  0  0  0  0  0  0  0  0  0
   36.1190   31.8700   38.6460 H   0  0  0  0  0  0  0  0  0  0  0  0
   38.6830   29.1060   42.7540 C   0  0  0  0  0  0  0  0  0  0  0  0
   38.0200   27.8570   42.7960 C   0  0  0  0  0  0  0  0  0  0  0  0
   36.7900   27.7500   42.1020 C   0  0  0  0  0  0  0  0  0  0  0  0
   36.3040   28.8270   41.4410 N   0  0  0  0  0  0  0  0  0  0  0  0
   36.9870   30.0100   41.4330 C   0  0  0  0  0  0  0  0  0  0  0  0
   38.1640   30.1440   42.0830 N   0  0  0  0  0  0  0  0  0  0  0  0
   39.6250   29.2170   43.2740 H   0  0  0  0  0  0  0  0  0  0  0  0
   38.4500   27.0200   43.3420 H   0  0  0  0  0  0  0  0  0  0  0  0
   36.2640   26.8040   42.1200 H   0  0  0  0  0  0  0  0  0  0  0  0
   37.7450   30.4320   38.6490 N   0  0  0  0  0  0  0  0  0  0  0  0
   38.6480   30.8740   37.6130 C   0  0  0  0  0  0  0  0  0  0  0  0
   38.2410   31.8610   36.8610 N   0  0  0  0  0  0  0  0  0  0  0  0
   39.9200   30.2490   37.4320 N   0  0  0  0  0  0  0  0  0  0  0  0
   37.7710   29.3990   38.8910 H   0  0  0  0  0  0  0  0  0  0  0  0
   38.9010   32.1730   36.1150 H   0  0  0  0  0  0  0  0  0  0  0  0
   40.6130   30.7970   36.8680 H   0  0  0  0  0  0  0  0  0  0  0  0
   40.0570   29.3150   37.8670 H   0  0  0  0  0  0  0  0  0  0  0  0
  1  4  1  1  0  0  0
  1 12  1  0  0  0  0
  2  5  1  0  0  0  0
  2  6  1  0  0  0  0
  2  1  1  0  0  0  0
  3  7  1  6  0  0  0
  3  2  1  0  0  0  0
  3  1  1  0  0  0  0
  8  9  1  0  0  0  0
  8 14  1  0  0  0  0
  9 15  1  0  0  0  0
 10 16  1  0  0  0  0
 10  9  2  0  0  0  0
 11 10  1  0  0  0  0
 12 11  2  0  0  0  0
 12 13  1  0  0  0  0
 13  8  2  0  0  0  0
 17 21  1  0  0  0  0
 17  3  1  0  0  0  0
 18 17  1  0  0  0  0
 19 18  2  0  0  0  0
 20 18  1  0  0  0  0
 20 24  1  0  0  0  0
 22 19  1  0  0  0  0
 23 20  1  0  0  0  0
M  END
>  <minimizedAffinity>
-4.15830183

>  <minimizedRMSD>
1.31629145

$$$$
