REMARK  Name = 
REMARK  1 active torsions:
REMARK  status: ('A' for Active; 'I' for Inactive)
REMARK    1  A    between atoms: C_3  and  C_7
REMARK                            x       y       z     vdW  Elec       q    Type
REMARK                         _______ _______ _______ _____ _____    ______ ____
ROOT
ATOM      1  C   UNL     1      37.976  28.882  43.369  0.00  0.00    +0.000 A 
ATOM      2  C   UNL     1      38.084  27.472  43.301  0.00  0.00    +0.000 A 
ATOM      3  C   UNL     1      37.433  26.824  42.250  0.00  0.00    +0.000 A 
ATOM      4  N   UNL     1      36.730  27.573  41.347  0.00  0.00    +0.000 NA
ATOM      5  C   UNL     1      36.653  28.912  41.449  0.00  0.00    +0.000 A 
ATOM      6  N   UNL     1      37.277  29.544  42.459  0.00  0.00    +0.000 NA
ATOM      7  H   UNL     1      38.498  29.351  44.205  0.00  0.00    +0.000 HD
ATOM      8  H   UNL     1      38.645  26.943  44.033  0.00  0.00    +0.000 HD
ATOM      9  N   UNL     1      35.906  29.678  40.484  0.00  0.00    +0.000 N 
ATOM     10  C   UNL     1      36.049  29.395  39.093  0.00  0.00    +0.000 C 
ATOM     11  N   UNL     1      36.374  28.201  38.724  0.00  0.00    +0.000 NA
ATOM     12  N   UNL     1      35.825  30.449  38.169  0.00  0.00    +0.000 N 
ATOM     13  H   UNL     1      35.271  30.430  40.833  0.00  0.00    +0.000 HD
ATOM     14  H   UNL     1      36.469  28.033  37.698  0.00  0.00    +0.000 HD
ATOM     15  H   UNL     1      35.053  31.083  37.867  0.00  0.00    +0.000 HD
ATOM     16  H   UNL     1      36.759  30.575  37.674  0.00  0.00    +0.000 HD
ENDROOT
BRANCH   3  17
ATOM     17  C   UNL     1      37.529  25.340  42.152  0.00  0.00    +0.000 C 
ATOM     18  F   UNL     1      37.657  25.051  40.819  0.00  0.00    +0.000 F 
ATOM     19  F   UNL     1      38.625  24.845  42.797  0.00  0.00    +0.000 F 
ATOM     20  F   UNL     1      36.381  24.712  42.630  0.00  0.00    +0.000 F 
ENDBRANCH   3  17
TORSDOF 1
