
 OpenBabel03242509293D

 20 20  0  0  0  0  0  0  0  0999 V2000
   37.8950   28.7970   43.5300 C   0  0  0  0  0  0  0  0  0  0  0  0
   37.9670   27.3860   43.4310 C   0  0  0  0  0  0  0  0  0  0  0  0
   37.4540   26.7920   42.2760 C   0  0  0  0  0  0  0  0  0  0  0  0
   36.9120   27.5920   41.3080 N   0  0  0  0  0  0  0  0  0  0  0  0
   36.8630   28.9290   41.4430 C   0  0  0  0  0  0  0  0  0  0  0  0
   37.3550   29.5090   42.5520 N   0  0  0  0  0  0  0  0  0  0  0  0
   38.3060   29.2220   44.4470 H   0  0  0  0  0  0  0  0  0  0  0  0
   38.4010   26.8170   44.2170 H   0  0  0  0  0  0  0  0  0  0  0  0
   36.2870   29.7490   40.4070 N   0  0  0  0  0  0  0  0  0  0  0  0
   36.6190   29.5010   39.0420 C   0  0  0  0  0  0  0  0  0  0  0  0
   36.9560   28.3070   38.6840 N   0  0  0  0  0  0  0  0  0  0  0  0
   36.5630   30.5880   38.1320 N   0  0  0  0  0  0  0  0  0  0  0  0
   35.6320   30.5130   40.6870 H   0  0  0  0  0  0  0  0  0  0  0  0
   37.1920   28.1650   37.6770 H   0  0  0  0  0  0  0  0  0  0  0  0
   35.8630   31.2580   37.7440 H   0  0  0  0  0  0  0  0  0  0  0  0
   37.5620   30.6950   37.7790 H   0  0  0  0  0  0  0  0  0  0  0  0
   37.5160   25.3090   42.1430 C   0  0  0  0  0  0  0  0  0  0  0  0
   37.6110   25.0480   40.8020 F   0  0  0  0  0  0  0  0  0  0  0  0
   38.6140   24.7770   42.7550 F   0  0  0  0  0  0  0  0  0  0  0  0
   36.3650   24.6950   42.6310 F   0  0  0  0  0  0  0  0  0  0  0  0
  1  7  1  0  0  0  0
  2  1  1  0  0  0  0
  2  8  1  0  0  0  0
  3  2  2  0  0  0  0
  4  5  2  0  0  0  0
  4  3  1  0  0  0  0
  5  6  1  0  0  0  0
  6  1  2  0  0  0  0
  9 13  1  0  0  0  0
  9  5  1  0  0  0  0
 10  9  1  0  0  0  0
 11 10  2  0  0  0  0
 12 10  1  0  0  0  0
 14 11  1  0  0  0  0
 15 12  1  0  0  0  0
 16 12  1  0  0  0  0
 17  3  1  0  0  0  0
 17 20  1  0  0  0  0
 17 19  1  0  0  0  0
 18 17  1  0  0  0  0
M  END
>  <minimizedAffinity>
-4.11702299

>  <minimizedRMSD>
0.337744415

$$$$
