
 OpenBabel03242508383D

 30 31  0  0  1  0  0  0  0  0999 V2000
   38.6890   26.8530   43.0990 C   0  0  2  0  0  0  0  0  0  0  0  0
   39.9480   27.4850   43.5850 C   0  0  0  0  0  0  0  0  0  0  0  0
   40.7820   26.2830   44.0000 C   0  0  0  0  0  0  0  0  0  0  0  0
   40.3170   25.1590   43.1280 C   0  0  0  0  0  0  0  0  0  0  0  0
   39.1930   25.6970   42.2800 C   0  0  1  0  0  0  0  0  0  0  0  0
   38.1570   26.3920   43.9770 H   0  0  0  0  0  0  0  0  0  0  0  0
   39.7980   28.1860   44.4290 H   0  0  0  0  0  0  0  0  0  0  0  0
   40.4630   28.0490   42.7910 H   0  0  0  0  0  0  0  0  0  0  0  0
   40.5040   26.1050   45.0700 H   0  0  0  0  0  0  0  0  0  0  0  0
   41.8600   26.5000   43.8820 H   0  0  0  0  0  0  0  0  0  0  0  0
   40.0890   24.2420   43.6830 H   0  0  0  0  0  0  0  0  0  0  0  0
   41.1610   24.9400   42.4070 H   0  0  0  0  0  0  0  0  0  0  0  0
   39.4490   25.9520   41.2580 H   0  0  0  0  0  0  0  0  0  0  0  0
   37.6730   29.1030   42.5690 C   0  0  0  0  0  0  0  0  0  0  0  0
   37.8070   27.7270   42.3440 C   0  0  0  0  0  0  0  0  0  0  0  0
   37.0380   27.1580   41.3260 C   0  0  0  0  0  0  0  0  0  0  0  0
   36.1980   27.9620   40.6060 N   0  0  0  0  0  0  0  0  0  0  0  0
   36.0910   29.3000   40.8530 C   0  0  0  0  0  0  0  0  0  0  0  0
   36.8350   29.8560   41.8370 N   0  0  0  0  0  0  0  0  0  0  0  0
   38.2760   29.5290   43.3600 H   0  0  0  0  0  0  0  0  0  0  0  0
   36.9930   26.1350   40.9930 H   0  0  0  0  0  0  0  0  0  0  0  0
   35.4010   29.8660   40.2340 H   0  0  0  0  0  0  0  0  0  0  0  0
   38.1970   24.6060   42.3290 N   0  0  0  0  0  0  0  0  0  0  0  0
   38.4400   23.7580   41.2170 C   0  0  0  0  0  0  0  0  0  0  0  0
   39.1370   23.8140   40.1270 N   0  0  0  0  0  0  0  0  0  0  0  0
   37.9450   22.4570   40.9210 N   0  0  0  0  0  0  0  0  0  0  0  0
   37.3950   24.1690   42.8100 H   0  0  0  0  0  0  0  0  0  0  0  0
   39.7310   24.6150   39.8370 H   0  0  0  0  0  0  0  0  0  0  0  0
   37.2180   22.0700   40.2810 H   0  0  0  0  0  0  0  0  0  0  0  0
   38.0500   21.4260   41.1580 H   0  0  0  0  0  0  0  0  0  0  0  0
  1  2  1  0  0  0  0
  1  6  1  1  0  0  0
  2  3  1  0  0  0  0
  2  7  1  0  0  0  0
  3  9  1  0  0  0  0
  4 11  1  0  0  0  0
  4  3  1  0  0  0  0
  5 13  1  6  0  0  0
  5 23  1  0  0  0  0
  5  1  1  0  0  0  0
  5  4  1  0  0  0  0
  8  2  1  0  0  0  0
 10  3  1  0  0  0  0
 12  4  1  0  0  0  0
 14 20  1  0  0  0  0
 15 14  1  0  0  0  0
 15  1  1  0  0  0  0
 16 15  2  0  0  0  0
 17 18  2  0  0  0  0
 17 16  1  0  0  0  0
 18 19  1  0  0  0  0
 19 14  2  0  0  0  0
 21 16  1  0  0  0  0
 22 18  1  0  0  0  0
 23 27  1  0  0  0  0
 24 23  1  0  0  0  0
 25 24  2  0  0  0  0
 26 30  1  0  0  0  0
 26 24  1  0  0  0  0
 28 25  1  0  0  0  0
 29 26  1  0  0  0  0
M  END
>  <minimizedAffinity>
-4.42878628

>  <minimizedRMSD>
0.979503334

$$$$
