
 OpenBabel03242509053D

 31 33  0  0  0  0  0  0  0  0999 V2000
   39.9500   31.6990   41.6510 C   0  0  0  0  0  0  0  0  0  0  0  0
   39.4770   30.5150   42.2490 C   0  0  0  0  0  0  0  0  0  0  0  0
   38.1770   30.0880   41.8900 C   0  0  0  0  0  0  0  0  0  0  0  0
   37.4700   30.8350   41.0010 N   0  0  0  0  0  0  0  0  0  0  0  0
   37.9680   31.9690   40.4530 C   0  0  0  0  0  0  0  0  0  0  0  0
   39.2080   32.3970   40.7810 N   0  0  0  0  0  0  0  0  0  0  0  0
   40.9520   31.9450   41.9880 H   0  0  0  0  0  0  0  0  0  0  0  0
   40.0470   29.9260   42.9550 H   0  0  0  0  0  0  0  0  0  0  0  0
   37.1910   32.7200   39.5270 N   0  0  0  0  0  0  0  0  0  0  0  0
   37.4030   34.1320   39.4760 C   0  0  0  0  0  0  0  0  0  0  0  0
   38.4770   34.6900   39.9230 N   0  0  0  0  0  0  0  0  0  0  0  0
   36.3770   34.9360   38.9050 N   0  0  0  0  0  0  0  0  0  0  0  0
   36.5040   32.2580   38.9200 H   0  0  0  0  0  0  0  0  0  0  0  0
   38.5970   35.7230   39.8670 H   0  0  0  0  0  0  0  0  0  0  0  0
   36.4630   34.6940   37.8740 H   0  0  0  0  0  0  0  0  0  0  0  0
   35.6150   35.5450   38.5570 H   0  0  0  0  0  0  0  0  0  0  0  0
   37.6800   28.8680   42.5000 C   0  0  0  0  0  0  0  0  0  0  0  0
   37.2850   28.6800   43.8120 C   0  0  0  0  0  0  0  0  0  0  0  0
   36.8900   27.4030   43.9760 N   0  0  0  0  0  0  0  0  0  0  0  0
   37.0100   26.7320   42.8070 C   0  0  0  0  0  0  0  0  0  0  0  0
   36.7470   25.4220   42.4340 C   0  0  0  0  0  0  0  0  0  0  0  0
   36.9720   25.0010   41.1330 C   0  0  0  0  0  0  0  0  0  0  0  0
   37.4670   25.9360   40.2260 C   0  0  0  0  0  0  0  0  0  0  0  0
   37.7220   27.2250   40.6070 C   0  0  0  0  0  0  0  0  0  0  0  0
   37.5010   27.6420   41.8920 C   0  0  0  0  0  0  0  0  0  0  0  0
   37.2850   29.4300   44.6060 H   0  0  0  0  0  0  0  0  0  0  0  0
   36.5420   26.9840   44.8650 H   0  0  0  0  0  0  0  0  0  0  0  0
   36.3630   24.7780   43.2190 H   0  0  0  0  0  0  0  0  0  0  0  0
   36.7360   23.9670   40.9450 H   0  0  0  0  0  0  0  0  0  0  0  0
   37.6080   25.5100   39.2350 H   0  0  0  0  0  0  0  0  0  0  0  0
   38.1010   27.8610   39.8290 H   0  0  0  0  0  0  0  0  0  0  0  0
  1  7  1  0  0  0  0
  1  2  1  0  0  0  0
  2  8  1  0  0  0  0
  3  2  2  0  0  0  0
  3 17  1  0  0  0  0
  4  3  1  0  0  0  0
  5  6  1  0  0  0  0
  5  4  2  0  0  0  0
  6  1  2  0  0  0  0
  9  5  1  0  0  0  0
 10  9  1  0  0  0  0
 10 11  2  0  0  0  0
 12 10  1  0  0  0  0
 13  9  1  0  0  0  0
 14 11  1  0  0  0  0
 15 12  1  0  0  0  0
 16 12  1  0  0  0  0
 17 18  2  0  0  0  0
 18 19  1  0  0  0  0
 18 26  1  0  0  0  0
 19 27  1  0  0  0  0
 20 19  1  0  0  0  0
 21 20  1  0  0  0  0
 21 28  1  0  0  0  0
 22 21  2  0  0  0  0
 23 24  2  0  0  0  0
 23 22  1  0  0  0  0
 24 25  1  0  0  0  0
 25 17  1  0  0  0  0
 25 20  2  0  0  0  0
 29 22  1  0  0  0  0
 30 23  1  0  0  0  0
 31 24  1  0  0  0  0
M  END
>  <minimizedAffinity>
-5.8232913

>  <minimizedRMSD>
0.991272449

$$$$
