
 OpenBabel03242509303D

 20 20  0  0  0  0  0  0  0  0999 V2000
   37.8710   28.8310   43.4680 C   0  0  0  0  0  0  0  0  0  0  0  0
   37.9820   27.4210   43.4100 C   0  0  0  0  0  0  0  0  0  0  0  0
   37.4650   26.7770   42.2850 C   0  0  0  0  0  0  0  0  0  0  0  0
   36.8830   27.5310   41.3030 N   0  0  0  0  0  0  0  0  0  0  0  0
   36.7980   28.8700   41.3980 C   0  0  0  0  0  0  0  0  0  0  0  0
   37.2930   29.4980   42.4790 N   0  0  0  0  0  0  0  0  0  0  0  0
   38.2860   29.2970   44.3640 H   0  0  0  0  0  0  0  0  0  0  0  0
   38.4450   26.8890   44.2050 H   0  0  0  0  0  0  0  0  0  0  0  0
   36.1800   29.6410   40.3490 N   0  0  0  0  0  0  0  0  0  0  0  0
   35.9450   29.0400   39.0750 C   0  0  0  0  0  0  0  0  0  0  0  0
   35.7710   27.7630   39.0040 N   0  0  0  0  0  0  0  0  0  0  0  0
   35.9150   29.8840   37.9330 N   0  0  0  0  0  0  0  0  0  0  0  0
   35.9160   30.6300   40.5520 H   0  0  0  0  0  0  0  0  0  0  0  0
   35.6020   27.3620   38.0550 H   0  0  0  0  0  0  0  0  0  0  0  0
   35.3580   30.6840   37.5580 H   0  0  0  0  0  0  0  0  0  0  0  0
   36.7210   29.5450   37.3280 H   0  0  0  0  0  0  0  0  0  0  0  0
   37.5680   25.2930   42.1960 C   0  0  0  0  0  0  0  0  0  0  0  0
   37.7320   24.9990   40.8680 F   0  0  0  0  0  0  0  0  0  0  0  0
   38.6480   24.8040   42.8710 F   0  0  0  0  0  0  0  0  0  0  0  0
   36.4100   24.6640   42.6460 F   0  0  0  0  0  0  0  0  0  0  0  0
  1  7  1  0  0  0  0
  2  1  1  0  0  0  0
  2  8  1  0  0  0  0
  3  2  2  0  0  0  0
  4  5  2  0  0  0  0
  4  3  1  0  0  0  0
  5  6  1  0  0  0  0
  6  1  2  0  0  0  0
  9 13  1  0  0  0  0
  9  5  1  0  0  0  0
 10  9  1  0  0  0  0
 11 10  2  0  0  0  0
 12 10  1  0  0  0  0
 14 11  1  0  0  0  0
 15 12  1  0  0  0  0
 16 12  1  0  0  0  0
 17  3  1  0  0  0  0
 17 20  1  0  0  0  0
 17 19  1  0  0  0  0
 18 17  1  0  0  0  0
M  END
>  <minimizedAffinity>
-4.15748835

>  <minimizedRMSD>
0.272686541

$$$$
