
 OpenBabel03242507313D

 24 24  0  0  0  0  0  0  0  0999 V2000
   39.0620   29.3990   42.3490 C   0  0  0  0  0  0  0  0  0  0  0  0
   38.0140   29.2750   41.4100 C   0  0  0  0  0  0  0  0  0  0  0  0
   37.3350   28.0530   41.4510 C   0  0  0  0  0  0  0  0  0  0  0  0
   37.6740   27.0820   42.3330 N   0  0  0  0  0  0  0  0  0  0  0  0
   38.6890   27.2610   43.2110 C   0  0  0  0  0  0  0  0  0  0  0  0
   39.3700   28.4230   43.2050 N   0  0  0  0  0  0  0  0  0  0  0  0
   39.5950   30.3280   42.3330 H   0  0  0  0  0  0  0  0  0  0  0  0
   38.9170   26.4520   43.8920 H   0  0  0  0  0  0  0  0  0  0  0  0
   37.6970   30.3220   40.5050 N   0  0  0  0  0  0  0  0  0  0  0  0
   36.7290   31.3280   40.7770 C   0  0  0  0  0  0  0  0  0  0  0  0
   35.6260   30.9140   41.3630 N   0  0  0  0  0  0  0  0  0  0  0  0
   37.0880   32.6710   40.3730 N   0  0  0  0  0  0  0  0  0  0  0  0
   34.8650   31.5700   41.5900 H   0  0  0  0  0  0  0  0  0  0  0  0
   38.2380   30.3130   39.5860 H   0  0  0  0  0  0  0  0  0  0  0  0
   36.6640   32.9650   39.4660 H   0  0  0  0  0  0  0  0  0  0  0  0
   37.7180   33.2940   40.9410 H   0  0  0  0  0  0  0  0  0  0  0  0
   36.2630   27.8370   40.5410 N   0  0  0  0  0  0  0  0  0  0  0  0
   36.3990   26.8840   39.4920 C   0  0  0  0  0  0  0  0  0  0  0  0
   37.1590   25.8640   39.6710 N   0  0  0  0  0  0  0  0  0  0  0  0
   35.6680   27.1220   38.2770 N   0  0  0  0  0  0  0  0  0  0  0  0
   35.3720   28.3690   40.6330 H   0  0  0  0  0  0  0  0  0  0  0  0
   37.3560   25.1020   39.0180 H   0  0  0  0  0  0  0  0  0  0  0  0
   34.6550   27.3840   38.3020 H   0  0  0  0  0  0  0  0  0  0  0  0
   36.3460   26.9800   37.4700 H   0  0  0  0  0  0  0  0  0  0  0  0
  1  6  1  0  0  0  0
  2  3  1  0  0  0  0
  2  1  2  0  0  0  0
  3  4  2  0  0  0  0
  4  5  1  0  0  0  0
  5  8  1  0  0  0  0
  6  5  2  0  0  0  0
  7  1  1  0  0  0  0
  9 10  1  0  0  0  0
  9  2  1  0  0  0  0
 10 11  2  0  0  0  0
 11 13  1  0  0  0  0
 12 10  1  0  0  0  0
 12 16  1  0  0  0  0
 14  9  1  0  0  0  0
 15 12  1  0  0  0  0
 17 21  1  0  0  0  0
 17  3  1  0  0  0  0
 18 19  2  0  0  0  0
 18 17  1  0  0  0  0
 20 23  1  0  0  0  0
 20 18  1  0  0  0  0
 22 19  1  0  0  0  0
 24 20  1  0  0  0  0
M  END
>  <minimizedAffinity>
-4.48637819

>  <minimizedRMSD>
0.978571832

$$$$
