
 OpenBabel03242506193D

 34 37  0  0  0  0  0  0  0  0999 V2000
   36.9400   29.5020   41.6020 C   0  0  0  0  0  0  0  0  0  0  0  0
   38.3680   29.4740   41.4150 C   0  0  0  0  0  0  0  0  0  0  0  0
   38.9820   30.5690   40.8710 C   0  0  0  0  0  0  0  0  0  0  0  0
   38.1880   31.6320   40.5350 N   0  0  0  0  0  0  0  0  0  0  0  0
   36.8440   31.6320   40.7190 C   0  0  0  0  0  0  0  0  0  0  0  0
   36.2200   30.5680   41.2530 N   0  0  0  0  0  0  0  0  0  0  0  0
   36.4520   28.6530   42.0260 H   0  0  0  0  0  0  0  0  0  0  0  0
   36.3140   32.5290   40.4160 H   0  0  0  0  0  0  0  0  0  0  0  0
   39.0370   28.2570   41.8210 C   0  0  0  0  0  0  0  0  0  0  0  0
   39.1180   27.1870   40.8670 C   0  0  0  0  0  0  0  0  0  0  0  0
   40.0310   25.8570   41.7750 S   0  0  0  0  0  0  0  0  0  0  0  0
   40.1330   27.0250   43.3020 C   0  0  0  0  0  0  0  0  0  0  0  0
   39.6090   27.9460   42.9550 N   0  0  0  0  0  0  0  0  0  0  0  0
   38.7310   27.1610   39.8410 H   0  0  0  0  0  0  0  0  0  0  0  0
   40.7960   26.5760   44.5180 N   0  0  0  0  0  0  0  0  0  0  0  0
   42.0750   27.1400   44.7550 C   0  0  0  0  0  0  0  0  0  0  0  0
   42.6980   27.6370   43.7580 N   0  0  0  0  0  0  0  0  0  0  0  0
   42.5840   27.1120   46.0810 N   0  0  0  0  0  0  0  0  0  0  0  0
   40.3250   25.8860   45.1440 H   0  0  0  0  0  0  0  0  0  0  0  0
   43.6390   28.0540   43.9220 H   0  0  0  0  0  0  0  0  0  0  0  0
   41.9640   26.9080   46.8930 H   0  0  0  0  0  0  0  0  0  0  0  0
   43.6170   27.3110   46.1600 H   0  0  0  0  0  0  0  0  0  0  0  0
   40.4160   30.6890   40.6310 C   0  0  0  0  0  0  0  0  0  0  0  0
   41.4520   30.0680   40.1460 N   0  0  0  0  0  0  0  0  0  0  0  0
   42.5230   30.7660   40.2360 O   0  0  0  0  0  0  0  0  0  0  0  0
   42.3080   31.8990   40.7800 C   0  0  0  0  0  0  0  0  0  0  0  0
   41.0130   31.8520   41.0230 N   0  0  0  0  0  0  0  0  0  0  0  0
   43.1460   33.0200   41.1040 N   0  0  0  0  0  0  0  0  0  0  0  0
   44.4630   33.0790   40.8550 C   0  0  0  0  0  0  0  0  0  0  0  0
   44.9240   34.2640   41.2840 N   0  0  0  0  0  0  0  0  0  0  0  0
   43.8740   34.9540   41.8070 C   0  0  0  0  0  0  0  0  0  0  0  0
   42.7730   34.1530   41.6820 N   0  0  0  0  0  0  0  0  0  0  0  0
   45.0190   32.2800   40.3860 H   0  0  0  0  0  0  0  0  0  0  0  0
   43.7530   35.9270   42.2630 H   0  0  0  0  0  0  0  0  0  0  0  0
  1  7  1  0  0  0  0
  2  1  1  0  0  0  0
  2  9  1  0  0  0  0
  3  2  2  0  0  0  0
  4  5  2  0  0  0  0
  4  3  1  0  0  0  0
  5  6  1  0  0  0  0
  6  1  2  0  0  0  0
  8  5  1  0  0  0  0
  9 13  1  0  0  0  0
 10 11  1  0  0  0  0
 10  9  2  0  0  0  0
 11 12  1  0  0  0  0
 12 15  1  0  0  0  0
 13 12  2  0  0  0  0
 14 10  1  0  0  0  0
 15 16  1  0  0  0  0
 15 19  1  0  0  0  0
 16 18  1  0  0  0  0
 17 20  1  0  0  0  0
 17 16  2  0  0  0  0
 18 22  1  0  0  0  0
 18 21  1  0  0  0  0
 23  3  1  0  0  0  0
 23 27  1  0  0  0  0
 24 25  1  0  0  0  0
 24 23  2  0  0  0  0
 25 26  1  0  0  0  0
 26 27  2  0  0  0  0
 26 28  1  0  0  0  0
 28 32  1  0  0  0  0
 29 28  1  0  0  0  0
 29 30  2  0  0  0  0
 30 31  1  0  0  0  0
 31 34  1  0  0  0  0
 32 31  2  0  0  0  0
 33 29  1  0  0  0  0
M  END
>  <minimizedAffinity>
-5.63596106

>  <minimizedRMSD>
0.753348112

$$$$
