
 OpenBabel03242509293D

 20 20  0  0  0  0  0  0  0  0999 V2000
   37.9480   28.5260   43.6170 C   0  0  0  0  0  0  0  0  0  0  0  0
   37.8140   27.1560   43.2830 C   0  0  0  0  0  0  0  0  0  0  0  0
   37.3080   26.8460   42.0200 C   0  0  0  0  0  0  0  0  0  0  0  0
   36.9700   27.8680   41.1750 N   0  0  0  0  0  0  0  0  0  0  0  0
   37.1130   29.1560   41.5330 C   0  0  0  0  0  0  0  0  0  0  0  0
   37.6000   29.4630   42.7490 N   0  0  0  0  0  0  0  0  0  0  0  0
   38.3460   28.7260   44.6140 H   0  0  0  0  0  0  0  0  0  0  0  0
   38.0930   26.4060   43.9820 H   0  0  0  0  0  0  0  0  0  0  0  0
   36.7500   30.2140   40.6250 N   0  0  0  0  0  0  0  0  0  0  0  0
   37.4400   31.4610   40.6800 C   0  0  0  0  0  0  0  0  0  0  0  0
   38.6580   31.4890   41.1050 N   0  0  0  0  0  0  0  0  0  0  0  0
   36.7470   32.6280   40.2600 N   0  0  0  0  0  0  0  0  0  0  0  0
   35.9810   30.0360   39.9410 H   0  0  0  0  0  0  0  0  0  0  0  0
   39.1290   32.4200   41.1310 H   0  0  0  0  0  0  0  0  0  0  0  0
   36.3030   33.0150   39.3980 H   0  0  0  0  0  0  0  0  0  0  0  0
   36.7060   33.2420   41.1280 H   0  0  0  0  0  0  0  0  0  0  0  0
   37.1550   25.4140   41.6390 C   0  0  0  0  0  0  0  0  0  0  0  0
   36.4740   25.4030   40.4500 F   0  0  0  0  0  0  0  0  0  0  0  0
   38.3560   24.7960   41.4410 F   0  0  0  0  0  0  0  0  0  0  0  0
   36.4120   24.7020   42.5780 F   0  0  0  0  0  0  0  0  0  0  0  0
  1  7  1  0  0  0  0
  2  1  1  0  0  0  0
  2  8  1  0  0  0  0
  3  2  2  0  0  0  0
  4  5  2  0  0  0  0
  4  3  1  0  0  0  0
  5  6  1  0  0  0  0
  6  1  2  0  0  0  0
  9 10  1  0  0  0  0
  9  5  1  0  0  0  0
 10 11  2  0  0  0  0
 11 14  1  0  0  0  0
 12 10  1  0  0  0  0
 12 16  1  0  0  0  0
 13  9  1  0  0  0  0
 15 12  1  0  0  0  0
 17  3  1  0  0  0  0
 17 20  1  0  0  0  0
 18 17  1  0  0  0  0
 19 17  1  0  0  0  0
M  END
>  <minimizedAffinity>
-4.7547369

>  <minimizedRMSD>
0.946463406

$$$$
