
 OpenBabel03242508563D

 44 47  0  0  0  0  0  0  0  0999 V2000
   36.8200   29.8550   39.8350 C   0  0  0  0  0  0  0  0  0  0  0  0
   37.6930   30.9390   39.8610 C   0  0  0  0  0  0  0  0  0  0  0  0
   38.3270   30.8940   41.0290 N   0  0  0  0  0  0  0  0  0  0  0  0
   37.9310   29.8530   41.7740 C   0  0  0  0  0  0  0  0  0  0  0  0
   38.3480   29.4630   43.0380 C   0  0  0  0  0  0  0  0  0  0  0  0
   37.7480   28.3240   43.5620 C   0  0  0  0  0  0  0  0  0  0  0  0
   36.7780   27.6130   42.8520 C   0  0  0  0  0  0  0  0  0  0  0  0
   36.3860   28.0260   41.5990 C   0  0  0  0  0  0  0  0  0  0  0  0
   36.9670   29.1640   41.0430 C   0  0  0  0  0  0  0  0  0  0  0  0
   37.7270   31.6040   39.0030 H   0  0  0  0  0  0  0  0  0  0  0  0
   39.0940   30.0250   43.5640 H   0  0  0  0  0  0  0  0  0  0  0  0
   38.0710   28.0090   44.5590 H   0  0  0  0  0  0  0  0  0  0  0  0
   36.3390   26.7310   43.3030 H   0  0  0  0  0  0  0  0  0  0  0  0
   35.6490   27.5110   41.0230 H   0  0  0  0  0  0  0  0  0  0  0  0
   33.7820   28.8120   38.1070 C   0  0  0  0  0  0  0  0  0  0  0  0
   34.1950   28.7700   36.7350 C   0  0  0  0  0  0  0  0  0  0  0  0
   35.5170   29.1040   36.4370 C   0  0  0  0  0  0  0  0  0  0  0  0
   36.3260   29.4460   37.4600 N   0  0  0  0  0  0  0  0  0  0  0  0
   35.9010   29.4750   38.7540 C   0  0  0  0  0  0  0  0  0  0  0  0
   34.6500   29.1640   39.0740 N   0  0  0  0  0  0  0  0  0  0  0  0
   32.7630   28.5560   38.3460 H   0  0  0  0  0  0  0  0  0  0  0  0
   33.5210   28.4940   35.9580 H   0  0  0  0  0  0  0  0  0  0  0  0
   35.8940   29.0930   35.4190 H   0  0  0  0  0  0  0  0  0  0  0  0
   39.3010   31.8930   41.3490 C   0  0  0  0  0  0  0  0  0  0  0  0
   40.2860   31.5570   40.9590 H   0  0  0  0  0  0  0  0  0  0  0  0
   39.4190   31.8950   42.4690 H   0  0  0  0  0  0  0  0  0  0  0  0
   38.9420   33.2840   40.9510 C   0  0  0  0  0  0  0  0  0  0  0  0
   38.9370   33.9870   41.8260 H   0  0  0  0  0  0  0  0  0  0  0  0
   38.0710   33.4250   40.3240 H   0  0  0  0  0  0  0  0  0  0  0  0
   40.0400   33.7110   40.0480 N   0  0  0  0  0  0  0  0  0  0  0  0
   40.3950   33.0670   38.9590 N   0  0  0  0  0  0  0  0  0  0  0  0
   41.4190   33.7080   38.3610 C   0  0  0  0  0  0  0  0  0  0  0  0
   41.7140   34.8380   39.1510 C   0  0  0  0  0  0  0  0  0  0  0  0
   40.8180   34.8080   40.2150 C   0  0  0  0  0  0  0  0  0  0  0  0
   41.9350   33.4140   37.4330 H   0  0  0  0  0  0  0  0  0  0  0  0
   42.4940   35.5440   38.9150 H   0  0  0  0  0  0  0  0  0  0  0  0
   40.7430   35.7510   41.2610 N   0  0  0  0  0  0  0  0  0  0  0  0
   41.8880   36.1290   42.0540 C   0  0  0  0  0  0  0  0  0  0  0  0
   42.7140   35.1470   42.3250 N   0  0  0  0  0  0  0  0  0  0  0  0
   41.9960   37.5090   42.4520 N   0  0  0  0  0  0  0  0  0  0  0  0
   39.8040   36.1980   41.4690 H   0  0  0  0  0  0  0  0  0  0  0  0
   43.5680   35.3780   42.9040 H   0  0  0  0  0  0  0  0  0  0  0  0
   42.5000   38.4240   42.4140 H   0  0  0  0  0  0  0  0  0  0  0  0
   41.1780   37.6970   43.0900 H   0  0  0  0  0  0  0  0  0  0  0  0
  1  2  2  0  0  0  0
  1  9  1  0  0  0  0
  2  3  1  0  0  0  0
  3 24  1  0  0  0  0
  3  4  1  0  0  0  0
  4  5  1  0  0  0  0
  5  6  2  0  0  0  0
  5 11  1  0  0  0  0
  6 12  1  0  0  0  0
  7 13  1  0  0  0  0
  7  6  1  0  0  0  0
  8  7  2  0  0  0  0
  9  8  1  0  0  0  0
  9  4  2  0  0  0  0
 10  2  1  0  0  0  0
 14  8  1  0  0  0  0
 15 21  1  0  0  0  0
 15 20  1  0  0  0  0
 16 15  2  0  0  0  0
 17 16  1  0  0  0  0
 17 18  2  0  0  0  0
 18 19  1  0  0  0  0
 19 20  2  0  0  0  0
 19  1  1  0  0  0  0
 22 16  1  0  0  0  0
 23 17  1  0  0  0  0
 24 26  1  0  0  0  0
 25 24  1  0  0  0  0
 27 24  1  0  0  0  0
 27 28  1  0  0  0  0
 29 27  1  0  0  0  0
 30 34  1  0  0  0  0
 30 27  1  0  0  0  0
 31 30  1  0  0  0  0
 32 31  2  0  0  0  0
 32 33  1  0  0  0  0
 33 34  2  0  0  0  0
 34 37  1  0  0  0  0
 35 32  1  0  0  0  0
 36 33  1  0  0  0  0
 37 41  1  0  0  0  0
 37 38  1  0  0  0  0
 38 39  2  0  0  0  0
 38 40  1  0  0  0  0
 39 42  1  0  0  0  0
 40 44  1  0  0  0  0
 43 40  1  0  0  0  0
M  END
>  <minimizedAffinity>
-6.71261644

>  <minimizedRMSD>
1.86744726

$$$$
