
     RDKit          3D

 47 50  0  0  0  0  0  0  0  0999 V2000
   35.2829   29.4886   40.0758 C   0  0  0  0  0  0  0  0  0  0  0  0
   35.8933   29.4108   38.7203 C   0  0  0  0  0  0  0  0  0  0  0  0
   37.2089   29.5727   38.3915 C   0  0  0  0  0  0  0  0  0  0  0  0
   37.7187   29.5819   37.1302 C   0  0  0  0  0  0  0  0  0  0  0  0
   36.8722   29.4187   36.0619 C   0  0  0  0  0  0  0  0  0  0  0  0
   35.5286   29.2483   36.3236 C   0  0  0  0  0  0  0  0  0  0  0  0
   34.7227   29.0974   35.2175 C   0  0  0  0  0  0  0  0  0  0  0  0
   33.3797   28.9246   35.3729 C   0  0  0  0  0  0  0  0  0  0  0  0
   32.8421   28.8992   36.6449 C   0  0  0  0  0  0  0  0  0  0  0  0
   33.6928   29.0542   37.7105 C   0  0  0  0  0  0  0  0  0  0  0  0
   35.0320   29.2385   37.6245 C   0  0  0  0  0  0  0  0  0  0  0  0
   33.0999   28.9980   38.9593 O   0  0  0  0  0  0  0  0  0  0  0  0
   36.1670   30.0780   41.1316 C   0  0  0  0  0  0  0  0  0  0  0  0
   38.6510   28.1645   42.7179 C   0  0  0  0  0  0  0  0  0  0  0  0
   37.5608   27.3504   42.8712 C   0  0  0  0  0  0  0  0  0  0  0  0
   36.4845   28.0062   42.2712 C   0  0  0  0  0  0  0  0  0  0  0  0
   37.0105   29.1528   41.8093 N   0  0  0  0  0  0  0  0  0  0  0  0
   38.2793   29.2864   42.0497 N   0  0  0  0  0  0  0  0  0  0  0  0
   41.5814   26.5541   44.3667 C   0  0  0  0  0  0  0  0  0  0  0  0
   40.2626   26.7583   43.9411 C   0  0  0  0  0  0  0  0  0  0  0  0
   39.9977   27.9048   43.1819 C   0  0  0  0  0  0  0  0  0  0  0  0
   40.9986   28.7538   42.8931 N   0  0  0  0  0  0  0  0  0  0  0  0
   42.2707   28.5088   43.3329 C   0  0  0  0  0  0  0  0  0  0  0  0
   42.5490   27.4222   44.0586 N   0  0  0  0  0  0  0  0  0  0  0  0
   34.5528   30.3571   39.9539 H   0  0  0  0  0  0  0  0  0  0  0  0
   34.8366   28.5753   40.4407 H   0  0  0  0  0  0  0  0  0  0  0  0
   37.8772   29.7032   39.2469 H   0  0  0  0  0  0  0  0  0  0  0  0
   38.7861   29.7198   37.0255 H   0  0  0  0  0  0  0  0  0  0  0  0
   37.2766   29.4281   35.0585 H   0  0  0  0  0  0  0  0  0  0  0  0
   35.1185   29.1103   34.2072 H   0  0  0  0  0  0  0  0  0  0  0  0
   32.7509   28.8093   34.4934 H   0  0  0  0  0  0  0  0  0  0  0  0
   31.7764   28.7593   36.7688 H   0  0  0  0  0  0  0  0  0  0  0  0
   32.6703   28.1202   39.2742 H   0  0  0  0  0  0  0  0  0  0  0  0
   35.5911   30.6190   41.9102 H   0  0  0  0  0  0  0  0  0  0  0  0
   36.7782   30.8648   40.6342 H   0  0  0  0  0  0  0  0  0  0  0  0
   37.5638   26.3847   43.3691 H   0  0  0  0  0  0  0  0  0  0  0  0
   35.5027   27.5889   42.2467 H   0  0  0  0  0  0  0  0  0  0  0  0
   41.7205   25.6488   44.9502 H   0  0  0  0  0  0  0  0  0  0  0  0
   39.4690   26.0453   44.1943 H   0  0  0  0  0  0  0  0  0  0  0  0
   43.2929   29.4392   42.9992 N   0  0  0  0  0  0  0  0  0  0  0  0
   44.5343   29.3948   43.6919 C   0  0  0  0  0  0  0  0  0  0  0  0
   44.5302   28.9300   44.9138 N   0  0  0  0  0  0  0  0  0  0  0  0
   45.7185   29.8501   43.0427 N   0  0  0  0  0  0  0  0  0  0  0  0
   43.1465   30.1538   42.2544 H   0  0  0  0  0  0  0  0  0  0  0  0
   45.4576   28.9113   45.3934 H   0  0  0  0  0  0  0  0  0  0  0  0
   46.1579   29.1740   42.3626 H   0  0  0  0  0  0  0  0  0  0  0  0
   46.4213   30.6066   42.9103 H   0  0  0  0  0  0  0  0  0  0  0  0
  1 13  1  0
  2  1  1  0
  3  2  2  0
  4  3  1  0
  5  6  1  0
  5  4  2  0
  6 11  2  0
  7  8  2  0
  7  6  1  0
  8  9  1  0
  9 10  2  0
 10 12  1  0
 11 10  1  0
 11  2  1  0
 13 17  1  0
 14 15  1  0
 14 21  1  0
 16 15  2  0
 17 18  1  0
 17 16  1  0
 18 14  2  0
 20 19  2  0
 21 20  1  0
 22 21  2  0
 22 23  1  0
 23 24  2  0
 24 19  1  0
  1 25  1  0
  1 26  1  0
  3 27  1  0
  4 28  1  0
  5 29  1  0
  7 30  1  0
  8 31  1  0
  9 32  1  0
 12 33  1  0
 13 34  1  0
 13 35  1  0
 15 36  1  0
 16 37  1  0
 19 38  1  0
 20 39  1  0
 40 41  1  0
 41 42  2  3
 41 43  1  0
 40 44  1  0
 42 45  1  0
 43 46  1  0
 43 47  1  0
 23 40  1  0
M  ISO  8  25   8  26   8  27  14  28  14  29  14  30  14  31  14  32  14
M  ISO  7  33   3  34   8  35   8  36  14  37  14  38  14  39  14
M  END
>  <DihAtoms>  (1) 
21,22,39,40

>  <DihDeg>  (1) 
-179.99978814619783

$$$$
