
 OpenBabel03242508233D

 13 13  0  0  0  0  0  0  0  0999 V2000
   38.5340   28.7760   43.1880 C   0  0  0  0  0  0  0  0  0  0  0  0
   37.6520   27.6700   43.0850 C   0  0  0  0  0  0  0  0  0  0  0  0
   36.5500   27.8070   42.2300 C   0  0  0  0  0  0  0  0  0  0  0  0
   36.3890   28.9750   41.5600 N   0  0  0  0  0  0  0  0  0  0  0  0
   37.2520   30.0110   41.6830 C   0  0  0  0  0  0  0  0  0  0  0  0
   38.3210   29.9030   42.5010 N   0  0  0  0  0  0  0  0  0  0  0  0
   39.4010   28.7320   43.8300 H   0  0  0  0  0  0  0  0  0  0  0  0
   37.8560   26.7880   43.6510 H   0  0  0  0  0  0  0  0  0  0  0  0
   35.8670   26.9730   42.1400 H   0  0  0  0  0  0  0  0  0  0  0  0
   36.8460   31.0670   40.8910 O   0  0  0  0  0  0  0  0  0  0  0  0
   37.5260   31.5300   39.7610 C   0  0  0  0  0  0  0  0  0  0  0  0
   36.8940   30.9870   38.4900 C   0  0  0  0  0  0  0  0  0  0  0  0
   37.3490   33.0510   39.7420 C   0  0  0  0  0  0  0  0  0  0  0  0
  1  7  1  0  0  0  0
  2  1  1  0  0  0  0
  2  8  1  0  0  0  0
  3  2  2  0  0  0  0
  4  5  2  0  0  0  0
  4  3  1  0  0  0  0
  5  6  1  0  0  0  0
  6  1  2  0  0  0  0
  9  3  1  0  0  0  0
 10  5  1  0  0  0  0
 11 10  1  0  0  0  0
 12 11  1  0  0  0  0
 13 11  1  0  0  0  0
M  END
>  <minimizedAffinity>
-3.21332502

>  <minimizedRMSD>
1.30547118

$$$$
