
 OpenBabel03242509293D

 16 16  0  0  0  0  0  0  0  0999 V2000
   38.3190   28.6090   43.3950 C   0  0  0  0  0  0  0  0  0  0  0  0
   38.3770   27.2070   43.2380 C   0  0  0  0  0  0  0  0  0  0  0  0
   37.5220   26.6320   42.2760 C   0  0  0  0  0  0  0  0  0  0  0  0
   36.6820   27.4560   41.5440 N   0  0  0  0  0  0  0  0  0  0  0  0
   36.6820   28.7860   41.7470 C   0  0  0  0  0  0  0  0  0  0  0  0
   37.4790   29.3540   42.6500 N   0  0  0  0  0  0  0  0  0  0  0  0
   38.9930   28.9770   44.1400 H   0  0  0  0  0  0  0  0  0  0  0  0
   39.0430   26.5820   43.8230 H   0  0  0  0  0  0  0  0  0  0  0  0
   37.5440   25.1630   42.0710 C   0  0  0  0  0  0  0  0  0  0  0  0
   37.6740   24.9590   40.7260 F   0  0  0  0  0  0  0  0  0  0  0  0
   38.6170   24.5700   42.6900 F   0  0  0  0  0  0  0  0  0  0  0  0
   36.3670   24.5680   42.5310 F   0  0  0  0  0  0  0  0  0  0  0  0
   35.8000   29.6620   40.9800 C   0  0  0  0  0  0  0  0  0  0  0  0
   35.1710   29.2860   39.9760 O   0  0  0  0  0  0  0  0  0  0  0  0
   35.5800   30.9950   41.2970 O   0  0  0  0  0  0  0  0  0  0  0  0
   35.6520   31.7430   40.5880 H   0  0  0  0  0  0  0  0  0  0  0  0
  1  7  1  0  0  0  0
  2  1  1  0  0  0  0
  2  8  1  0  0  0  0
  3  2  2  0  0  0  0
  4  5  2  0  0  0  0
  4  3  1  0  0  0  0
  5  6  1  0  0  0  0
  6  1  2  0  0  0  0
  9  3  1  0  0  0  0
  9 12  1  0  0  0  0
  9 11  1  0  0  0  0
 10  9  1  0  0  0  0
 13 15  1  0  0  0  0
 13  5  1  0  0  0  0
 14 13  2  0  0  0  0
 16 15  1  0  0  0  0
M  END
>  <minimizedAffinity>
-4.60175943

>  <minimizedRMSD>
0.473237216

$$$$
