
 OpenBabel03242506143D

 24 26  0  0  0  0  0  0  0  0999 V2000
   36.8860   29.8780   41.8080 C   0  0  0  0  0  0  0  0  0  0  0  0
   38.1250   29.4020   41.2720 C   0  0  0  0  0  0  0  0  0  0  0  0
   38.6490   29.9560   40.1400 C   0  0  0  0  0  0  0  0  0  0  0  0
   37.9270   30.9770   39.5560 N   0  0  0  0  0  0  0  0  0  0  0  0
   36.7410   31.4190   40.0810 C   0  0  0  0  0  0  0  0  0  0  0  0
   36.2270   30.8700   41.2040 N   0  0  0  0  0  0  0  0  0  0  0  0
   36.4970   29.4200   42.7090 H   0  0  0  0  0  0  0  0  0  0  0  0
   36.2430   32.2310   39.5470 H   0  0  0  0  0  0  0  0  0  0  0  0
   38.7270   28.2790   41.9860 C   0  0  0  0  0  0  0  0  0  0  0  0
   38.2410   26.9570   41.7240 C   0  0  0  0  0  0  0  0  0  0  0  0
   39.2600   25.8770   42.8220 S   0  0  0  0  0  0  0  0  0  0  0  0
   40.1820   27.4630   43.4520 C   0  0  0  0  0  0  0  0  0  0  0  0
   39.6950   28.2920   42.8820 N   0  0  0  0  0  0  0  0  0  0  0  0
   37.4610   26.6670   41.0410 H   0  0  0  0  0  0  0  0  0  0  0  0
   41.0080   27.5070   44.2130 H   0  0  0  0  0  0  0  0  0  0  0  0
   39.9070   29.6040   39.5120 C   0  0  0  0  0  0  0  0  0  0  0  0
   40.6430   28.5720   39.1710 N   0  0  0  0  0  0  0  0  0  0  0  0
   41.7430   28.9250   38.6090 O   0  0  0  0  0  0  0  0  0  0  0  0
   41.8330   30.2050   38.5270 C   0  0  0  0  0  0  0  0  0  0  0  0
   40.7030   30.6080   39.0830 N   0  0  0  0  0  0  0  0  0  0  0  0
   42.8830   31.0330   37.9740 C   0  0  0  0  0  0  0  0  0  0  0  0
   43.8950   31.3420   38.6900 O   0  0  0  0  0  0  0  0  0  0  0  0
   42.8190   31.5020   36.6810 O   0  0  0  0  0  0  0  0  0  0  0  0
   43.6540   31.7830   36.1490 H   0  0  0  0  0  0  0  0  0  0  0  0
  1  7  1  0  0  0  0
  2  1  1  0  0  0  0
  2  9  1  0  0  0  0
  3  2  2  0  0  0  0
  4  5  2  0  0  0  0
  4  3  1  0  0  0  0
  5  6  1  0  0  0  0
  6  1  2  0  0  0  0
  8  5  1  0  0  0  0
  9 13  1  0  0  0  0
 10  9  2  0  0  0  0
 10 11  1  0  0  0  0
 11 12  1  0  0  0  0
 12 15  1  0  0  0  0
 13 12  2  0  0  0  0
 14 10  1  0  0  0  0
 16  3  1  0  0  0  0
 17 16  2  0  0  0  0
 18 17  1  0  0  0  0
 19 18  1  0  0  0  0
 19 20  2  0  0  0  0
 20 16  1  0  0  0  0
 21 19  1  0  0  0  0
 21 22  2  0  0  0  0
 23 21  1  0  0  0  0
 24 23  1  0  0  0  0
M  END
>  <minimizedAffinity>
-3.63826942

>  <minimizedRMSD>
1.16019356

$$$$
