
 OpenBabel03242509133D

 20 21  0  0  1  0  0  0  0  0999 V2000
   37.8940   28.5060   43.3670 C   0  0  1  0  0  0  0  0  0  0  0  0
   36.8650   27.4950   43.4450 C   0  0  0  0  0  0  0  0  0  0  0  0
   38.0850   27.1140   42.6740 C   0  0  2  0  0  0  0  0  0  0  0  0
   38.5690   28.6970   44.2080 H   0  0  0  0  0  0  0  0  0  0  0  0
   35.8900   27.5970   42.8860 H   0  0  0  0  0  0  0  0  0  0  0  0
   36.6880   26.9840   44.4130 H   0  0  0  0  0  0  0  0  0  0  0  0
   38.0740   27.1380   41.5890 H   0  0  0  0  0  0  0  0  0  0  0  0
   37.8210   29.6540   42.3890 C   0  0  0  0  0  0  0  0  0  0  0  0
   39.0080   30.3900   42.1990 C   0  0  0  0  0  0  0  0  0  0  0  0
   38.9290   31.4490   41.3090 C   0  0  0  0  0  0  0  0  0  0  0  0
   37.7470   31.7180   40.6830 N   0  0  0  0  0  0  0  0  0  0  0  0
   36.6350   30.9920   40.8920 C   0  0  0  0  0  0  0  0  0  0  0  0
   36.6730   29.9480   41.7550 N   0  0  0  0  0  0  0  0  0  0  0  0
   39.9170   30.1290   42.7240 H   0  0  0  0  0  0  0  0  0  0  0  0
   39.8130   32.0650   41.1120 H   0  0  0  0  0  0  0  0  0  0  0  0
   35.7440   31.2800   40.3520 H   0  0  0  0  0  0  0  0  0  0  0  0
   39.0670   26.2390   43.3630 C   0  0  0  0  0  0  0  0  0  0  0  0
   39.2230   25.0580   42.9030 O   0  0  0  0  0  0  0  0  0  0  0  0
   39.8520   26.5200   44.4520 O   0  0  0  0  0  0  0  0  0  0  0  0
   40.8440   26.2340   44.4510 H   0  0  0  0  0  0  0  0  0  0  0  0
  1  2  1  0  0  0  0
  1  4  1  1  0  0  0
  2  6  1  0  0  0  0
  3  7  1  6  0  0  0
  3 17  1  0  0  0  0
  3  1  1  0  0  0  0
  3  2  1  0  0  0  0
  5  2  1  0  0  0  0
  8  1  1  0  0  0  0
  9  8  1  0  0  0  0
  9 14  1  0  0  0  0
 10  9  2  0  0  0  0
 11 12  2  0  0  0  0
 11 10  1  0  0  0  0
 12 13  1  0  0  0  0
 13  8  2  0  0  0  0
 15 10  1  0  0  0  0
 16 12  1  0  0  0  0
 17 19  1  0  0  0  0
 18 17  2  0  0  0  0
 20 19  1  0  0  0  0
M  END
>  <minimizedAffinity>
-4.05728769

>  <minimizedRMSD>
2.82943678

$$$$
