
 OpenBabel03242506283D

 28 30  0  0  0  0  0  0  0  0999 V2000
   38.6130   28.3080   42.4990 C   0  0  0  0  0  0  0  0  0  0  0  0
   38.5060   27.2510   43.3810 C   0  0  0  0  0  0  0  0  0  0  0  0
   39.7140   26.9110   43.8730 N   0  0  0  0  0  0  0  0  0  0  0  0
   40.5800   27.7610   43.2920 C   0  0  0  0  0  0  0  0  0  0  0  0
   39.9250   28.6090   42.4610 N   0  0  0  0  0  0  0  0  0  0  0  0
   37.5780   26.7600   43.6460 H   0  0  0  0  0  0  0  0  0  0  0  0
   41.6510   27.7940   43.4430 H   0  0  0  0  0  0  0  0  0  0  0  0
   35.5540   28.6280   40.4690 C   0  0  0  0  0  0  0  0  0  0  0  0
   36.6240   28.0370   41.1440 C   0  0  0  0  0  0  0  0  0  0  0  0
   37.5100   28.9100   41.8030 C   0  0  0  0  0  0  0  0  0  0  0  0
   37.2740   30.2490   41.7440 N   0  0  0  0  0  0  0  0  0  0  0  0
   36.2140   30.7870   41.0720 C   0  0  0  0  0  0  0  0  0  0  0  0
   35.3570   29.9590   40.4360 N   0  0  0  0  0  0  0  0  0  0  0  0
   34.8170   28.0240   39.9300 H   0  0  0  0  0  0  0  0  0  0  0  0
   36.7020   26.9670   41.1170 H   0  0  0  0  0  0  0  0  0  0  0  0
   36.1430   31.8680   41.1040 H   0  0  0  0  0  0  0  0  0  0  0  0
   40.5210   29.6370   41.6830 C   0  0  0  0  0  0  0  0  0  0  0  0
   40.9830   30.8440   42.1480 C   0  0  0  0  0  0  0  0  0  0  0  0
   41.5450   31.7670   41.3000 C   0  0  0  0  0  0  0  0  0  0  0  0
   41.6380   31.4780   40.0090 N   0  0  0  0  0  0  0  0  0  0  0  0
   41.1950   30.2940   39.5020 C   0  0  0  0  0  0  0  0  0  0  0  0
   40.6490   29.4080   40.3500 N   0  0  0  0  0  0  0  0  0  0  0  0
   40.8750   31.0130   43.2080 H   0  0  0  0  0  0  0  0  0  0  0  0
   41.9060   32.7130   41.6610 H   0  0  0  0  0  0  0  0  0  0  0  0
   41.2850   29.9540   38.1020 C   0  0  0  0  0  0  0  0  0  0  0  0
   41.8120   28.9440   37.6090 O   0  0  0  0  0  0  0  0  0  0  0  0
   40.7280   30.8440   37.1930 O   0  0  0  0  0  0  0  0  0  0  0  0
   40.8240   30.7250   36.2010 H   0  0  0  0  0  0  0  0  0  0  0  0
  1  2  2  0  0  0  0
  2  6  1  0  0  0  0
  2  3  1  0  0  0  0
  4  7  1  0  0  0  0
  4  3  2  0  0  0  0
  5  1  1  0  0  0  0
  5  4  1  0  0  0  0
  8  9  1  0  0  0  0
  9 10  2  0  0  0  0
 10  1  1  0  0  0  0
 11 10  1  0  0  0  0
 12 16  1  0  0  0  0
 12 11  2  0  0  0  0
 13  8  2  0  0  0  0
 13 12  1  0  0  0  0
 14  8  1  0  0  0  0
 15  9  1  0  0  0  0
 17 18  1  0  0  0  0
 17  5  1  0  0  0  0
 18 23  1  0  0  0  0
 19 24  1  0  0  0  0
 19 18  2  0  0  0  0
 20 19  1  0  0  0  0
 21 20  2  0  0  0  0
 21 22  1  0  0  0  0
 22 17  2  0  0  0  0
 25 21  1  0  0  0  0
 26 25  2  0  0  0  0
 27 25  1  0  0  0  0
 28 27  1  0  0  0  0
M  END
>  <minimizedAffinity>
-4.2777977

>  <minimizedRMSD>
0.500616252

$$$$
