
 OpenBabel03242509303D

 16 16  0  0  0  0  0  0  0  0999 V2000
   38.0990   28.8530   43.3630 C   0  0  0  0  0  0  0  0  0  0  0  0
   38.2030   27.4480   43.2720 C   0  0  0  0  0  0  0  0  0  0  0  0
   37.4460   26.8100   42.2680 C   0  0  0  0  0  0  0  0  0  0  0  0
   36.6520   27.5790   41.4340 N   0  0  0  0  0  0  0  0  0  0  0  0
   36.6020   28.9160   41.5780 C   0  0  0  0  0  0  0  0  0  0  0  0
   37.3060   29.5420   42.5180 N   0  0  0  0  0  0  0  0  0  0  0  0
   38.6980   29.2700   44.1440 H   0  0  0  0  0  0  0  0  0  0  0  0
   38.8310   26.8660   43.9380 H   0  0  0  0  0  0  0  0  0  0  0  0
   37.5200   25.3350   42.1310 C   0  0  0  0  0  0  0  0  0  0  0  0
   37.6410   25.0740   40.7950 F   0  0  0  0  0  0  0  0  0  0  0  0
   38.6210   24.8110   42.7620 F   0  0  0  0  0  0  0  0  0  0  0  0
   36.3710   24.7190   42.6330 F   0  0  0  0  0  0  0  0  0  0  0  0
   35.7680   29.7350   40.7020 C   0  0  0  0  0  0  0  0  0  0  0  0
   36.1380   30.8220   40.2290 O   0  0  0  0  0  0  0  0  0  0  0  0
   34.4830   29.3770   40.3150 O   0  0  0  0  0  0  0  0  0  0  0  0
   33.6900   30.0340   40.3890 H   0  0  0  0  0  0  0  0  0  0  0  0
  1  7  1  0  0  0  0
  2  1  1  0  0  0  0
  2  8  1  0  0  0  0
  3  2  2  0  0  0  0
  4  5  2  0  0  0  0
  4  3  1  0  0  0  0
  5  6  1  0  0  0  0
  6  1  2  0  0  0  0
  9  3  1  0  0  0  0
  9 12  1  0  0  0  0
  9 11  1  0  0  0  0
 10  9  1  0  0  0  0
 13  5  1  0  0  0  0
 14 13  2  0  0  0  0
 15 16  1  0  0  0  0
 15 13  1  0  0  0  0
M  END
>  <minimizedAffinity>
-4.31232977

>  <minimizedRMSD>
0.196781844

$$$$
