
 OpenBabel03242508073D

 28 30  0  0  0  0  0  0  0  0999 V2000
   37.7460   32.1260   39.9880 C   0  0  0  0  0  0  0  0  0  0  0  0
   37.1490   31.6810   41.1070 N   0  0  0  0  0  0  0  0  0  0  0  0
   36.2860   30.6850   41.1750 C   0  0  0  0  0  0  0  0  0  0  0  0
   35.9290   30.0230   40.1030 N   0  0  0  0  0  0  0  0  0  0  0  0
   36.4530   30.3640   38.9090 C   0  0  0  0  0  0  0  0  0  0  0  0
   36.0850   29.6730   37.7610 C   0  0  0  0  0  0  0  0  0  0  0  0
   36.6000   29.9990   36.5450 C   0  0  0  0  0  0  0  0  0  0  0  0
   37.5170   31.0580   36.4830 C   0  0  0  0  0  0  0  0  0  0  0  0
   37.8420   31.7080   37.6560 C   0  0  0  0  0  0  0  0  0  0  0  0
   37.3510   31.4120   38.8840 C   0  0  0  0  0  0  0  0  0  0  0  0
   35.8170   30.3460   42.0980 H   0  0  0  0  0  0  0  0  0  0  0  0
   35.3730   28.8500   37.8200 H   0  0  0  0  0  0  0  0  0  0  0  0
   36.3010   29.4470   35.6610 H   0  0  0  0  0  0  0  0  0  0  0  0
   37.9210   31.3150   35.5250 H   0  0  0  0  0  0  0  0  0  0  0  0
   38.5620   32.5310   37.5650 H   0  0  0  0  0  0  0  0  0  0  0  0
   38.7520   35.5690   40.0290 C   0  0  0  0  0  0  0  0  0  0  0  0
   40.1490   35.6200   39.9350 C   0  0  0  0  0  0  0  0  0  0  0  0
   40.7960   34.3850   39.8510 C   0  0  0  0  0  0  0  0  0  0  0  0
   40.0240   33.2880   39.8700 N   0  0  0  0  0  0  0  0  0  0  0  0
   38.6980   33.2350   39.9580 C   0  0  0  0  0  0  0  0  0  0  0  0
   38.1110   34.4140   40.0360 N   0  0  0  0  0  0  0  0  0  0  0  0
   38.2940   36.5520   40.0900 H   0  0  0  0  0  0  0  0  0  0  0  0
   40.8030   36.4810   39.9170 H   0  0  0  0  0  0  0  0  0  0  0  0
   42.1320   34.1650   39.7530 O   0  0  0  0  0  0  0  0  0  0  0  0
   42.9780   34.0910   40.8680 C   0  0  0  0  0  0  0  0  0  0  0  0
   42.7870   35.3110   41.7680 C   0  0  0  0  0  0  0  0  0  0  0  0
   44.4250   34.0650   40.3870 C   0  0  0  0  0  0  0  0  0  0  0  0
   42.7600   32.8530   41.6970 C   0  0  0  0  0  0  0  0  0  0  0  0
  1  2  1  0  0  0  0
  2  3  2  0  0  0  0
  3 11  1  0  0  0  0
  4  3  1  0  0  0  0
  5  4  2  0  0  0  0
  6 12  1  0  0  0  0
  6  5  1  0  0  0  0
  7  6  2  0  0  0  0
  8  7  1  0  0  0  0
  8  9  2  0  0  0  0
  9 10  1  0  0  0  0
 10  5  1  0  0  0  0
 10  1  2  0  0  0  0
 13  7  1  0  0  0  0
 14  8  1  0  0  0  0
 15  9  1  0  0  0  0
 16 21  1  0  0  0  0
 16 22  1  0  0  0  0
 17 16  2  0  0  0  0
 18 19  2  0  0  0  0
 18 17  1  0  0  0  0
 19 20  1  0  0  0  0
 20  1  1  0  0  0  0
 20 21  2  0  0  0  0
 23 17  1  0  0  0  0
 24 18  1  0  0  0  0
 24 25  1  0  0  0  0
 25 28  1  0  0  0  0
 25 26  1  0  0  0  0
 27 25  1  0  0  0  0
M  END
>  <minimizedAffinity>
-5.41028595

>  <minimizedRMSD>
6.6232996

$$$$
