
 OpenBabel03242509083D

 33 36  0  0  1  0  0  0  0  0999 V2000
   36.9140   31.9910   40.0390 C   0  0  0  0  0  0  0  0  0  0  0  0
   36.7330   30.8900   40.8980 C   0  0  0  0  0  0  0  0  0  0  0  0
   37.7540   29.9180   40.9740 C   0  0  0  0  0  0  0  0  0  0  0  0
   38.8490   30.1200   40.2060 N   0  0  0  0  0  0  0  0  0  0  0  0
   38.9950   31.1920   39.3880 C   0  0  0  0  0  0  0  0  0  0  0  0
   38.0260   32.1330   39.3040 N   0  0  0  0  0  0  0  0  0  0  0  0
   36.0890   32.7000   40.0290 H   0  0  0  0  0  0  0  0  0  0  0  0
   35.8300   30.7770   41.4940 H   0  0  0  0  0  0  0  0  0  0  0  0
   37.5610   28.7880   41.8470 C   0  0  0  0  0  0  0  0  0  0  0  0
   37.5660   28.7740   43.2260 C   0  0  0  0  0  0  0  0  0  0  0  0
   37.3460   27.5190   43.6590 N   0  0  0  0  0  0  0  0  0  0  0  0
   37.1960   26.6940   42.6160 C   0  0  0  0  0  0  0  0  0  0  0  0
   36.9490   25.3210   42.4720 C   0  0  0  0  0  0  0  0  0  0  0  0
   36.8350   24.7210   41.2130 C   0  0  0  0  0  0  0  0  0  0  0  0
   36.9760   25.5430   40.1140 C   0  0  0  0  0  0  0  0  0  0  0  0
   37.2160   26.8820   40.2510 C   0  0  0  0  0  0  0  0  0  0  0  0
   37.3290   27.4840   41.4800 C   0  0  0  0  0  0  0  0  0  0  0  0
   37.7180   29.6190   43.8680 H   0  0  0  0  0  0  0  0  0  0  0  0
   37.3010   27.2380   44.6500 H   0  0  0  0  0  0  0  0  0  0  0  0
   36.8490   24.7300   43.3780 H   0  0  0  0  0  0  0  0  0  0  0  0
   36.6450   23.6560   41.2260 H   0  0  0  0  0  0  0  0  0  0  0  0
   36.8830   25.0590   39.1550 H   0  0  0  0  0  0  0  0  0  0  0  0
   37.3210   27.5020   39.3670 H   0  0  0  0  0  0  0  0  0  0  0  0
   40.2500   31.3310   38.5850 C   0  0  1  0  0  0  0  0  0  0  0  0
   40.6400   32.7320   38.1260 C   0  0  0  0  0  0  0  0  0  0  0  0
   41.4280   32.0180   39.1840 C   0  0  1  0  0  0  0  0  0  0  0  0
   40.4410   30.5010   37.8610 H   0  0  0  0  0  0  0  0  0  0  0  0
   41.0160   32.7600   37.0860 H   0  0  0  0  0  0  0  0  0  0  0  0
   39.8980   33.5010   38.3790 H   0  0  0  0  0  0  0  0  0  0  0  0
   42.4560   31.7280   38.9210 H   0  0  0  0  0  0  0  0  0  0  0  0
   41.3250   32.6450   40.5290 C   0  0  0  0  0  0  0  0  0  0  0  0
   41.5750   32.0300   41.4090 H   0  0  0  0  0  0  0  0  0  0  0  0
   40.9790   33.8020   40.6830 O   0  0  0  0  0  0  0  0  0  0  0  0
  1  2  1  0  0  0  0
  2  3  2  0  0  0  0
  2  8  1  0  0  0  0
  3  9  1  0  0  0  0
  4  3  1  0  0  0  0
  5  4  2  0  0  0  0
  6  5  1  0  0  0  0
  6  1  2  0  0  0  0
  7  1  1  0  0  0  0
  9 10  2  0  0  0  0
 10 11  1  0  0  0  0
 10 18  1  0  0  0  0
 11 19  1  0  0  0  0
 12 11  1  0  0  0  0
 13 12  1  0  0  0  0
 13 20  1  0  0  0  0
 14 21  1  0  0  0  0
 14 13  2  0  0  0  0
 15 16  2  0  0  0  0
 15 14  1  0  0  0  0
 16 17  1  0  0  0  0
 17  9  1  0  0  0  0
 17 12  2  0  0  0  0
 22 15  1  0  0  0  0
 23 16  1  0  0  0  0
 24 27  1  6  0  0  0
 24 26  1  0  0  0  0
 24  5  1  0  0  0  0
 25 29  1  0  0  0  0
 25 24  1  0  0  0  0
 25 26  1  0  0  0  0
 26 30  1  6  0  0  0
 26 31  1  0  0  0  0
 28 25  1  0  0  0  0
 31 33  2  0  0  0  0
 31 32  1  0  0  0  0
M  END
>  <minimizedAffinity>
-4.96205425

>  <minimizedRMSD>
1.73361075

$$$$
