
 OpenBabel03242507583D

 37 39  0  0  1  0  0  0  0  0999 V2000
   37.0740   29.1160   36.3330 S   0  0  0  0  0  0  0  0  0  0  0  0
   33.1610   27.0390   36.8830 N   0  0  0  0  0  0  0  0  0  0  0  0
   33.2940   28.3910   37.3390 C   0  0  0  0  0  0  0  0  0  0  0  0
   34.3970   29.1620   36.6360 C   0  0  0  0  0  0  0  0  0  0  0  0
   35.4950   28.2480   36.1760 C   0  0  2  0  0  0  0  0  0  0  0  0
   35.6080   27.0070   37.0390 C   0  0  0  0  0  0  0  0  0  0  0  0
   34.3330   26.2430   37.1630 C   0  0  2  0  0  0  0  0  0  0  0  0
   33.0550   27.0630   35.8320 H   0  0  0  0  0  0  0  0  0  0  0  0
   33.5820   28.3500   38.4170 H   0  0  0  0  0  0  0  0  0  0  0  0
   32.3270   28.9060   37.3000 H   0  0  0  0  0  0  0  0  0  0  0  0
   33.9330   29.7210   35.8160 H   0  0  0  0  0  0  0  0  0  0  0  0
   34.8350   29.8890   37.3470 H   0  0  0  0  0  0  0  0  0  0  0  0
   35.3250   28.0010   35.1050 H   0  0  0  0  0  0  0  0  0  0  0  0
   36.3880   26.3780   36.5740 H   0  0  0  0  0  0  0  0  0  0  0  0
   36.0140   27.3530   38.0090 H   0  0  0  0  0  0  0  0  0  0  0  0
   34.2350   25.9610   38.2530 H   0  0  0  0  0  0  0  0  0  0  0  0
   34.3110   24.9690   36.4160 C   0  0  0  0  0  0  0  0  0  0  0  0
   34.7360   25.0620   35.4060 H   0  0  0  0  0  0  0  0  0  0  0  0
   33.8400   23.9680   36.9730 O   0  0  0  0  0  0  0  0  0  0  0  0
   37.2050   30.0550   40.2420 C   0  0  0  0  0  0  0  0  0  0  0  0
   37.2610   31.4310   40.2820 C   0  0  0  0  0  0  0  0  0  0  0  0
   37.2590   32.1120   39.0730 C   0  0  0  0  0  0  0  0  0  0  0  0
   37.2010   31.3670   37.8880 C   0  0  0  0  0  0  0  0  0  0  0  0
   37.1460   29.9980   37.8810 C   0  0  0  0  0  0  0  0  0  0  0  0
   37.1500   29.3740   39.0650 N   0  0  0  0  0  0  0  0  0  0  0  0
   37.3030   31.9210   41.2420 H   0  0  0  0  0  0  0  0  0  0  0  0
   37.3020   33.1910   39.0670 H   0  0  0  0  0  0  0  0  0  0  0  0
   37.1990   31.8900   36.9380 H   0  0  0  0  0  0  0  0  0  0  0  0
   38.0860   28.9970   43.6320 C   0  0  0  0  0  0  0  0  0  0  0  0
   37.2560   27.8900   43.8640 C   0  0  0  0  0  0  0  0  0  0  0  0
   36.3850   27.5130   42.8280 C   0  0  0  0  0  0  0  0  0  0  0  0
   36.4080   28.2430   41.6840 N   0  0  0  0  0  0  0  0  0  0  0  0
   37.2050   29.2850   41.4960 C   0  0  0  0  0  0  0  0  0  0  0  0
   38.0330   29.6500   42.4680 N   0  0  0  0  0  0  0  0  0  0  0  0
   38.7490   29.2760   44.4350 H   0  0  0  0  0  0  0  0  0  0  0  0
   37.2280   27.3050   44.7630 H   0  0  0  0  0  0  0  0  0  0  0  0
   35.6940   26.6830   42.8730 H   0  0  0  0  0  0  0  0  0  0  0  0
  1 24  1  0  0  0  0
  2  7  1  0  0  0  0
  2  3  1  0  0  0  0
  3  9  1  0  0  0  0
  4  3  1  0  0  0  0
  4 12  1  0  0  0  0
  5 13  1  6  0  0  0
  5  1  1  0  0  0  0
  5  4  1  0  0  0  0
  5  6  1  0  0  0  0
  6  7  1  0  0  0  0
  6 15  1  0  0  0  0
  7 16  1  1  0  0  0
  8  2  1  0  0  0  0
 10  3  1  0  0  0  0
 11  4  1  0  0  0  0
 14  6  1  0  0  0  0
 17 19  2  0  0  0  0
 17  7  1  0  0  0  0
 18 17  1  0  0  0  0
 20 21  1  0  0  0  0
 20 33  1  0  0  0  0
 21 26  1  0  0  0  0
 22 21  2  0  0  0  0
 23 22  1  0  0  0  0
 24 23  2  0  0  0  0
 24 25  1  0  0  0  0
 25 20  2  0  0  0  0
 27 22  1  0  0  0  0
 28 23  1  0  0  0  0
 29 30  1  0  0  0  0
 29 35  1  0  0  0  0
 30 36  1  0  0  0  0
 31 37  1  0  0  0  0
 31 30  2  0  0  0  0
 32 31  1  0  0  0  0
 33 32  2  0  0  0  0
 33 34  1  0  0  0  0
 34 29  2  0  0  0  0
M  END
>  <minimizedAffinity>
-4.45017195

>  <minimizedRMSD>
0.0765777156

$$$$
