
 OpenBabel03242502153D

 30 33  0  0  1  0  0  0  0  0999 V2000
   39.0370   32.1210   40.9750 C   0  0  0  0  0  0  0  0  0  0  0  0
   38.9540   30.8960   41.6620 C   0  0  0  0  0  0  0  0  0  0  0  0
   37.7140   30.2350   41.6300 C   0  0  0  0  0  0  0  0  0  0  0  0
   36.7050   30.7930   40.9630 N   0  0  0  0  0  0  0  0  0  0  0  0
   36.8240   31.9670   40.3180 C   0  0  0  0  0  0  0  0  0  0  0  0
   38.0000   32.6500   40.3150 N   0  0  0  0  0  0  0  0  0  0  0  0
   37.5620   28.9940   42.2940 N   0  0  0  0  0  0  0  0  0  0  0  0
   37.6030   28.7310   43.5780 C   0  0  0  0  0  0  0  0  0  0  0  0
   37.4210   27.3890   43.8070 N   0  0  0  0  0  0  0  0  0  0  0  0
   37.2590   26.7930   42.6160 C   0  0  0  0  0  0  0  0  0  0  0  0
   37.0470   25.5030   42.1820 C   0  0  0  0  0  0  0  0  0  0  0  0
   36.9310   25.2510   40.8670 N   0  0  0  0  0  0  0  0  0  0  0  0
   37.0240   26.2710   39.9930 C   0  0  0  0  0  0  0  0  0  0  0  0
   37.2280   27.5330   40.3520 N   0  0  0  0  0  0  0  0  0  0  0  0
   37.3500   27.8180   41.6760 C   0  0  0  0  0  0  0  0  0  0  0  0
   40.0110   32.5740   41.0390 H   0  0  0  0  0  0  0  0  0  0  0  0
   39.7940   30.4740   42.1920 H   0  0  0  0  0  0  0  0  0  0  0  0
   36.0160   32.4330   39.7720 H   0  0  0  0  0  0  0  0  0  0  0  0
   37.7630   29.4910   44.3280 H   0  0  0  0  0  0  0  0  0  0  0  0
   36.9820   24.7240   42.9270 H   0  0  0  0  0  0  0  0  0  0  0  0
   36.9100   25.9310   38.5450 C   0  0  1  0  0  0  0  0  0  0  0  0
   35.5160   26.0740   37.9040 C   0  0  0  0  0  0  0  0  0  0  0  0
   36.6740   26.9310   37.5250 C   0  0  2  0  0  0  0  0  0  0  0  0
   37.4540   25.0000   38.2920 H   0  0  0  0  0  0  0  0  0  0  0  0
   34.7020   26.4760   38.5120 H   0  0  0  0  0  0  0  0  0  0  0  0
   35.2310   25.2180   37.2730 H   0  0  0  0  0  0  0  0  0  0  0  0
   36.5580   28.0000   37.8650 H   0  0  0  0  0  0  0  0  0  0  0  0
   37.2920   26.8190   36.1890 C   0  0  0  0  0  0  0  0  0  0  0  0
   37.4890   25.7920   35.9020 H   0  0  0  0  0  0  0  0  0  0  0  0
   37.1330   28.0260   36.3700 O   0  0  0  0  0  0  0  0  0  0  0  0
  1 16  1  0  0  0  0
  1  2  1  0  0  0  0
  2 17  1  0  0  0  0
  3  2  2  0  0  0  0
  3  7  1  0  0  0  0
  4  3  1  0  0  0  0
  5  4  2  0  0  0  0
  6  5  1  0  0  0  0
  6  1  2  0  0  0  0
  7  8  1  0  0  0  0
  8  9  2  0  0  0  0
  8 19  1  0  0  0  0
 10  9  1  0  0  0  0
 11 10  1  0  0  0  0
 11 20  1  0  0  0  0
 12 11  2  0  0  0  0
 13 14  2  0  0  0  0
 13 12  1  0  0  0  0
 14 15  1  0  0  0  0
 15  7  1  0  0  0  0
 15 10  2  0  0  0  0
 18  5  1  0  0  0  0
 21 24  1  6  0  0  0
 21 13  1  0  0  0  0
 22 25  1  0  0  0  0
 22 21  1  0  0  0  0
 23 27  1  1  0  0  0
 23 22  1  0  0  0  0
 23 21  1  0  0  0  0
 26 22  1  0  0  0  0
 28 30  2  0  0  0  0
 28 23  1  0  0  0  0
 29 28  1  0  0  0  0
M  END
>  <minimizedAffinity>
-4.65739727

>  <minimizedRMSD>
0.161433131

$$$$
