
     RDKit          3D

 53 59  0  0  0  0  0  0  0  0999 V2000
   39.0260   23.5050   36.0960 C   0  0  0  0  0  0  0  0  0  0  0  0
   40.4350   23.6390   35.9850 C   0  0  0  0  0  0  0  0  0  0  0  0
   40.9060   24.7120   35.2700 C   0  0  0  0  0  0  0  0  0  0  0  0
   39.9780   25.5250   34.7470 N   0  0  0  0  0  0  0  0  0  0  0  0
   38.6840   25.4240   34.8350 C   0  0  0  0  0  0  0  0  0  0  0  0
   38.2020   24.3830   35.5300 N   0  0  0  0  0  0  0  0  0  0  0  0
   37.9440   26.4280   34.1930 N   0  0  0  0  0  0  0  0  0  0  0  0
   37.2200   27.2870   34.9610 C   0  0  0  0  0  0  0  0  0  0  0  0
   36.5760   28.1840   34.1350 C   0  0  0  0  0  0  0  0  0  0  0  0
   36.9120   27.8630   32.8870 N   0  0  0  0  0  0  0  0  0  0  0  0
   37.7630   26.7690   32.9150 C   0  0  0  0  0  0  0  0  0  0  0  0
   38.2960   26.1440   31.7510 C   0  0  0  0  0  0  0  0  0  0  0  0
   38.7530   26.8840   30.6440 C   0  0  0  0  0  0  0  0  0  0  0  0
   39.1800   26.0180   29.6690 N   0  0  0  0  0  0  0  0  0  0  0  0
   38.9810   24.7310   30.1820 C   0  0  0  0  0  0  0  0  0  0  0  0
   38.4700   24.8950   31.3940 N   0  0  0  0  0  0  0  0  0  0  0  0
   38.3770   23.5810   31.8670 C   0  0  0  0  0  0  0  0  0  0  0  0
   39.5190   23.1650   32.4250 N   0  0  0  0  0  0  0  0  0  0  0  0
   39.6150   21.8900   32.8850 C   0  0  0  0  0  0  0  0  0  0  0  0
   38.6250   21.0000   32.8180 N   0  0  0  0  0  0  0  0  0  0  0  0
   37.4550   21.3780   32.2630 C   0  0  0  0  0  0  0  0  0  0  0  0
   36.3610   20.5680   32.1290 C   0  0  0  0  0  0  0  0  0  0  0  0
   35.2020   21.0030   31.5540 C   0  0  0  0  0  0  0  0  0  0  0  0
   35.1260   22.3110   31.0890 C   0  0  0  0  0  0  0  0  0  0  0  0
   36.1900   23.1710   31.1970 C   0  0  0  0  0  0  0  0  0  0  0  0
   37.3270   22.6850   31.7810 C   0  0  0  0  0  0  0  0  0  0  0  0
   35.7070   29.2660   34.4590 N   0  0  0  0  0  0  0  0  0  0  0  0
   36.0370   30.2530   35.3410 C   0  0  0  0  0  0  0  0  0  0  0  0
   35.0380   31.1680   35.4780 N   0  0  0  0  0  0  0  0  0  0  0  0
   34.0630   30.7240   34.6480 C   0  0  0  0  0  0  0  0  0  0  0  0
   32.8010   31.1690   34.3090 C   0  0  0  0  0  0  0  0  0  0  0  0
   32.0200   30.5100   33.4280 N   0  0  0  0  0  0  0  0  0  0  0  0
   32.4510   29.3700   32.8320 C   0  0  0  0  0  0  0  0  0  0  0  0
   33.6820   28.9230   33.1550 N   0  0  0  0  0  0  0  0  0  0  0  0
   34.4670   29.5610   34.0230 C   0  0  0  0  0  0  0  0  0  0  0  0
   32.2920   32.3600   34.8990 N   0  0  0  0  0  0  0  0  0  0  0  0
   38.4890   22.3990   36.8530 N   0  0  0  0  0  0  0  0  0  0  0  0
   41.1192   22.9149   36.4514 H   0  0  0  0  0  0  0  0  0  0  0  0
   41.9823   24.8938   35.1343 H   0  0  0  0  0  0  0  0  0  0  0  0
   37.1586   27.2688   36.0591 H   0  0  0  0  0  0  0  0  0  0  0  0
   38.7658   27.9816   30.5721 H   0  0  0  0  0  0  0  0  0  0  0  0
   39.2035   23.7773   29.6811 H   0  0  0  0  0  0  0  0  0  0  0  0
   40.5656   21.5738   33.3394 H   0  0  0  0  0  0  0  0  0  0  0  0
   36.4170   19.5327   32.4964 H   0  0  0  0  0  0  0  0  0  0  0  0
   34.3391   20.3273   31.4597 H   0  0  0  0  0  0  0  0  0  0  0  0
   34.1934   22.6640   30.6247 H   0  0  0  0  0  0  0  0  0  0  0  0
   36.1308   24.2062   30.8298 H   0  0  0  0  0  0  0  0  0  0  0  0
   36.9959   30.3036   35.8776 H   0  0  0  0  0  0  0  0  0  0  0  0
   31.8194   28.8297   32.1114 H   0  0  0  0  0  0  0  0  0  0  0  0
   31.3510   32.6967   34.6498 H   0  0  0  0  0  0  0  0  0  0  0  0
   32.8646   32.8852   35.5752 H   0  0  0  0  0  0  0  0  0  0  0  0
   37.4695   22.2847   36.9451 H   0  0  0  0  0  0  0  0  0  0  0  0
   39.1254   21.7243   37.3010 H   0  0  0  0  0  0  0  0  0  0  0  0
  1 37  1  0
  2  1  2  0
  3  2  1  0
  4  5  1  0
  4  3  2  0
  5  6  2  0
  6  1  1  0
  7  5  1  0
  7  8  1  0
  9 27  1  0
  9  8  2  0
 10 11  2  0
 10  9  1  0
 11  7  1  0
 12 11  1  0
 13 12  2  0
 14 15  2  0
 14 13  1  0
 15 16  1  0
 16 12  1  0
 16 17  1  0
 17 18  2  0
 18 19  1  0
 20 19  2  0
 21 20  1  0
 22 21  2  0
 23 22  1  0
 24 25  1  0
 24 23  2  0
 25 26  2  0
 26 17  1  0
 26 21  1  0
 27 28  1  0
 28 29  2  0
 30 29  1  0
 31 30  2  0
 31 36  1  0
 32 31  1  0
 33 34  1  0
 33 32  2  0
 34 35  2  0
 35 27  1  0
 35 30  1  0
  2 38  1  0
  3 39  1  0
  8 40  1  0
 13 41  1  0
 15 42  1  0
 19 43  1  0
 22 44  1  0
 23 45  1  0
 24 46  1  0
 25 47  1  0
 28 48  1  0
 33 49  1  0
 36 50  1  0
 36 51  1  0
 37 52  1  0
 37 53  1  0
M  END
>  <Score>  (1) 
-7.32633

$$$$
