
     RDKit          3D

 45 49  0  0  0  0  0  0  0  0999 V2000
   36.4780   23.0210   31.9330 C   0  0  0  0  0  0  0  0  0  0  0  0
   36.0750   24.3190   31.6460 C   0  0  0  0  0  0  0  0  0  0  0  0
   36.7210   25.2890   32.3680 C   0  0  0  0  0  0  0  0  0  0  0  0
   37.6440   24.9300   33.2510 N   0  0  0  0  0  0  0  0  0  0  0  0
   38.0360   23.7150   33.5330 C   0  0  0  0  0  0  0  0  0  0  0  0
   37.4220   22.7870   32.8460 N   0  0  0  0  0  0  0  0  0  0  0  0
   39.0240   23.1850   34.4640 C   0  0  0  0  0  0  0  0  0  0  0  0
   40.1670   22.5290   34.0280 C   0  0  0  0  0  0  0  0  0  0  0  0
   41.1220   22.0150   34.8590 C   0  0  0  0  0  0  0  0  0  0  0  0
   40.9830   22.1330   36.2170 C   0  0  0  0  0  0  0  0  0  0  0  0
   39.8850   22.7660   36.7010 C   0  0  0  0  0  0  0  0  0  0  0  0
   39.7470   22.8840   38.0770 C   0  0  0  0  0  0  0  0  0  0  0  0
   38.6730   23.5040   38.6440 C   0  0  0  0  0  0  0  0  0  0  0  0
   37.7100   24.0230   37.7810 C   0  0  0  0  0  0  0  0  0  0  0  0
   37.8850   23.8840   36.4240 C   0  0  0  0  0  0  0  0  0  0  0  0
   38.9500   23.2670   35.8360 C   0  0  0  0  0  0  0  0  0  0  0  0
   36.4250   26.6740   32.1960 N   0  0  0  0  0  0  0  0  0  0  0  0
   36.1450   27.2740   31.0150 C   0  0  0  0  0  0  0  0  0  0  0  0
   35.9180   28.5680   31.2140 N   0  0  0  0  0  0  0  0  0  0  0  0
   36.0540   28.7980   32.5360 C   0  0  0  0  0  0  0  0  0  0  0  0
   36.3640   27.6280   33.1160 N   0  0  0  0  0  0  0  0  0  0  0  0
   35.8780   30.0970   33.1180 N   0  0  0  0  0  0  0  0  0  0  0  0
   35.6890   30.2170   34.4420 C   0  0  0  0  0  0  0  0  0  0  0  0
   35.5290   31.5030   34.9200 C   0  0  0  0  0  0  0  0  0  0  0  0
   35.3130   31.7470   36.3710 C   0  0  0  0  0  0  0  0  0  0  0  0
   35.5780   32.5280   33.9980 C   0  0  0  0  0  0  0  0  0  0  0  0
   35.4230   33.6920   34.4990 O   0  0  0  0  0  0  0  0  0  0  0  0
   35.7670   32.3960   32.6770 N   0  0  0  0  0  0  0  0  0  0  0  0
   35.9210   31.1180   32.2420 C   0  0  0  0  0  0  0  0  0  0  0  0
   36.1020   30.9510   31.0090 O   0  0  0  0  0  0  0  0  0  0  0  0
   36.0137   22.1771   31.4017 H   0  0  0  0  0  0  0  0  0  0  0  0
   35.3004   24.5499   30.8999 H   0  0  0  0  0  0  0  0  0  0  0  0
   40.3133   22.4157   32.9437 H   0  0  0  0  0  0  0  0  0  0  0  0
   42.0020   21.5067   34.4380 H   0  0  0  0  0  0  0  0  0  0  0  0
   41.7435   21.7242   36.8985 H   0  0  0  0  0  0  0  0  0  0  0  0
   40.5272   22.4649   38.7295 H   0  0  0  0  0  0  0  0  0  0  0  0
   38.5712   23.5907   39.7358 H   0  0  0  0  0  0  0  0  0  0  0  0
   36.8225   24.5365   38.1794 H   0  0  0  0  0  0  0  0  0  0  0  0
   37.1095   24.3008   35.7646 H   0  0  0  0  0  0  0  0  0  0  0  0
   36.1107   26.7673   30.0392 H   0  0  0  0  0  0  0  0  0  0  0  0
   35.6631   29.3416   35.1076 H   0  0  0  0  0  0  0  0  0  0  0  0
   35.9305   31.0495   36.9560 H   0  0  0  0  0  0  0  0  0  0  0  0
   35.5969   32.7813   36.6151 H   0  0  0  0  0  0  0  0  0  0  0  0
   34.2519   31.5907   36.6151 H   0  0  0  0  0  0  0  0  0  0  0  0
   35.7935   33.2041   32.0389 H   0  0  0  0  0  0  0  0  0  0  0  0
  1  6  2  0
  2  1  1  0
  2  3  2  0
  3  4  1  0
  4  5  2  0
  5  7  1  0
  6  5  1  0
  7 16  1  0
  8  7  2  0
  8  9  1  0
  9 10  2  0
 10 11  1  0
 11 12  2  0
 12 13  1  0
 14 13  2  0
 15 14  1  0
 16 15  2  0
 16 11  1  0
 17  3  1  0
 17 21  1  0
 18 19  2  0
 18 17  1  0
 19 20  1  0
 20 21  2  0
 20 22  1  0
 22 23  1  0
 23 24  2  0
 24 25  1  0
 26 27  2  0
 26 24  1  0
 28 26  1  0
 29 28  1  0
 29 22  1  0
 30 29  2  0
  1 31  1  0
  2 32  1  0
  8 33  1  0
  9 34  1  0
 10 35  1  0
 12 36  1  0
 13 37  1  0
 14 38  1  0
 15 39  1  0
 18 40  1  0
 23 41  1  0
 25 42  1  0
 25 43  1  0
 25 44  1  0
 28 45  1  0
M  END
>  <Score>  (1) 
-7.47317

$$$$
