
     RDKit          3D

 46 51  0  0  0  0  0  0  0  0999 V2000
   36.7860   24.3190   31.8340 C   0  0  0  0  0  0  0  0  0  0  0  0
   36.3250   25.6260   31.9070 C   0  0  0  0  0  0  0  0  0  0  0  0
   36.8180   26.3600   32.9710 C   0  0  0  0  0  0  0  0  0  0  0  0
   37.6600   25.7800   33.8090 N   0  0  0  0  0  0  0  0  0  0  0  0
   38.1080   24.5480   33.7590 C   0  0  0  0  0  0  0  0  0  0  0  0
   37.6400   23.8420   32.7420 N   0  0  0  0  0  0  0  0  0  0  0  0
   39.0210   23.7960   34.6000 C   0  0  0  0  0  0  0  0  0  0  0  0
   40.0800   23.0790   34.0660 C   0  0  0  0  0  0  0  0  0  0  0  0
   40.9790   22.3470   34.8110 C   0  0  0  0  0  0  0  0  0  0  0  0
   40.8430   22.3060   36.1770 C   0  0  0  0  0  0  0  0  0  0  0  0
   39.8240   22.9890   36.7570 C   0  0  0  0  0  0  0  0  0  0  0  0
   39.6950   22.9400   38.1290 C   0  0  0  0  0  0  0  0  0  0  0  0
   38.7010   23.5970   38.7860 C   0  0  0  0  0  0  0  0  0  0  0  0
   37.8000   24.3330   38.0090 C   0  0  0  0  0  0  0  0  0  0  0  0
   37.9600   24.3580   36.6420 C   0  0  0  0  0  0  0  0  0  0  0  0
   38.9440   23.7100   35.9730 C   0  0  0  0  0  0  0  0  0  0  0  0
   36.4360   27.7060   33.1730 N   0  0  0  0  0  0  0  0  0  0  0  0
   36.2970   28.6560   32.2340 C   0  0  0  0  0  0  0  0  0  0  0  0
   35.9280   29.8020   32.7740 N   0  0  0  0  0  0  0  0  0  0  0  0
   35.8210   29.6070   34.0920 C   0  0  0  0  0  0  0  0  0  0  0  0
   36.1370   28.3170   34.3090 N   0  0  0  0  0  0  0  0  0  0  0  0
   35.4400   30.5750   35.1170 C   0  0  0  0  0  0  0  0  0  0  0  0
   36.2260   31.5230   35.7820 C   0  0  0  0  0  0  0  0  0  0  0  0
   35.4670   32.2140   36.6550 N   0  0  0  0  0  0  0  0  0  0  0  0
   34.2030   31.7480   36.5860 C   0  0  0  0  0  0  0  0  0  0  0  0
   33.0720   32.1410   37.2910 C   0  0  0  0  0  0  0  0  0  0  0  0
   31.9320   31.4300   36.9550 C   0  0  0  0  0  0  0  0  0  0  0  0
   31.8270   30.4170   36.0290 C   0  0  0  0  0  0  0  0  0  0  0  0
   32.9980   30.0910   35.3780 C   0  0  0  0  0  0  0  0  0  0  0  0
   34.1760   30.7400   35.6440 C   0  0  0  0  0  0  0  0  0  0  0  0
   36.4429   23.6675   31.0168 H   0  0  0  0  0  0  0  0  0  0  0  0
   35.6207   26.0466   31.1741 H   0  0  0  0  0  0  0  0  0  0  0  0
   40.2118   23.0953   32.9740 H   0  0  0  0  0  0  0  0  0  0  0  0
   41.7966   21.8015   34.3170 H   0  0  0  0  0  0  0  0  0  0  0  0
   41.5493   21.7284   36.7915 H   0  0  0  0  0  0  0  0  0  0  0  0
   40.4190   22.3508   38.7110 H   0  0  0  0  0  0  0  0  0  0  0  0
   38.6097   23.5514   39.8813 H   0  0  0  0  0  0  0  0  0  0  0  0
   36.9750   24.8842   38.4839 H   0  0  0  0  0  0  0  0  0  0  0  0
   37.2397   24.9442   36.0525 H   0  0  0  0  0  0  0  0  0  0  0  0
   36.4679   28.4997   31.1587 H   0  0  0  0  0  0  0  0  0  0  0  0
   37.3021   31.6804   35.6168 H   0  0  0  0  0  0  0  0  0  0  0  0
   35.7965   32.9707   37.2713 H   0  0  0  0  0  0  0  0  0  0  0  0
   33.0812   32.9417   38.0452 H   0  0  0  0  0  0  0  0  0  0  0  0
   31.0090   31.7050   37.4865 H   0  0  0  0  0  0  0  0  0  0  0  0
   30.8761   29.9038   35.8229 H   0  0  0  0  0  0  0  0  0  0  0  0
   32.9867   29.2889   34.6253 H   0  0  0  0  0  0  0  0  0  0  0  0
  1  2  2  0
  1  6  1  0
  2  3  1  0
  3 17  1  0
  3  4  2  0
  5  4  1  0
  5  7  1  0
  6  5  2  0
  7 16  1  0
  8  7  2  0
  8  9  1  0
  9 10  2  0
 10 11  1  0
 11 12  2  0
 12 13  1  0
 14 13  2  0
 15 14  1  0
 16 15  2  0
 16 11  1  0
 17 21  1  0
 18 19  2  0
 18 17  1  0
 19 20  1  0
 20 21  2  0
 20 22  1  0
 22 30  1  0
 22 23  2  0
 23 24  1  0
 25 24  1  0
 25 26  2  0
 27 26  1  0
 28 27  2  0
 29 30  2  0
 29 28  1  0
 30 25  1  0
  1 31  1  0
  2 32  1  0
  8 33  1  0
  9 34  1  0
 10 35  1  0
 12 36  1  0
 13 37  1  0
 14 38  1  0
 15 39  1  0
 18 40  1  0
 23 41  1  0
 24 42  1  0
 26 43  1  0
 27 44  1  0
 28 45  1  0
 29 46  1  0
M  END
>  <Score>  (1) 
-7.89364

$$$$
