
     RDKit          3D

 50 55  0  0  0  0  0  0  0  0999 V2000
   35.9810   29.8300   32.4020 C   0  0  0  0  0  0  0  0  0  0  0  0
   36.5290   30.1280   31.1760 C   0  0  0  0  0  0  0  0  0  0  0  0
   36.5840   31.4610   30.9760 N   0  0  0  0  0  0  0  0  0  0  0  0
   36.0820   32.0400   32.0500 C   0  0  0  0  0  0  0  0  0  0  0  0
   35.7190   31.0760   32.9100 N   0  0  0  0  0  0  0  0  0  0  0  0
   35.1360   31.3530   34.1770 C   0  0  0  0  0  0  0  0  0  0  0  0
   35.9690   31.8180   35.1990 C   0  0  0  0  0  0  0  0  0  0  0  0
   35.5230   32.1230   36.4740 C   0  0  0  0  0  0  0  0  0  0  0  0
   34.2080   31.9640   36.7520 N   0  0  0  0  0  0  0  0  0  0  0  0
   33.4150   31.5110   35.7490 C   0  0  0  0  0  0  0  0  0  0  0  0
   33.8380   31.2140   34.5130 N   0  0  0  0  0  0  0  0  0  0  0  0
   32.0390   31.3510   36.0640 N   0  0  0  0  0  0  0  0  0  0  0  0
   31.0930   32.3300   36.1300 C   0  0  0  0  0  0  0  0  0  0  0  0
   29.8870   31.8340   36.4560 N   0  0  0  0  0  0  0  0  0  0  0  0
   30.0210   30.4980   36.6120 C   0  0  0  0  0  0  0  0  0  0  0  0
   29.1390   29.4930   36.9390 C   0  0  0  0  0  0  0  0  0  0  0  0
   27.9290   29.7960   37.1540 O   0  0  0  0  0  0  0  0  0  0  0  0
   29.5800   28.2210   37.0210 N   0  0  0  0  0  0  0  0  0  0  0  0
   30.8760   27.9560   36.7820 C   0  0  0  0  0  0  0  0  0  0  0  0
   31.3810   26.6100   36.8610 N   0  0  0  0  0  0  0  0  0  0  0  0
   31.7440   28.9440   36.4600 N   0  0  0  0  0  0  0  0  0  0  0  0
   31.3550   30.2330   36.3650 C   0  0  0  0  0  0  0  0  0  0  0  0
   35.6980   28.5840   33.1040 C   0  0  0  0  0  0  0  0  0  0  0  0
   36.3630   28.3820   34.4150 C   0  0  0  0  0  0  0  0  0  0  0  0
   38.0110   25.2460   35.1750 C   0  0  0  0  0  0  0  0  0  0  0  0
   37.6920   25.1320   33.8440 N   0  0  0  0  0  0  0  0  0  0  0  0
   37.0860   26.2420   33.4940 O   0  0  0  0  0  0  0  0  0  0  0  0
   36.9930   27.0580   34.5000 C   0  0  0  0  0  0  0  0  0  0  0  0
   37.5520   26.4730   35.5460 N   0  0  0  0  0  0  0  0  0  0  0  0
   38.8190   23.3290   38.2560 C   0  0  0  0  0  0  0  0  0  0  0  0
   38.1220   24.1990   37.4070 C   0  0  0  0  0  0  0  0  0  0  0  0
   38.6740   24.3650   36.1060 C   0  0  0  0  0  0  0  0  0  0  0  0
   39.8250   23.6790   35.7780 N   0  0  0  0  0  0  0  0  0  0  0  0
   40.4270   22.8700   36.6430 C   0  0  0  0  0  0  0  0  0  0  0  0
   39.9440   22.6910   37.8610 N   0  0  0  0  0  0  0  0  0  0  0  0
   36.8774   29.3765   30.4522 H   0  0  0  0  0  0  0  0  0  0  0  0
   35.9791   33.1231   32.2121 H   0  0  0  0  0  0  0  0  0  0  0  0
   37.0386   31.9489   34.9779 H   0  0  0  0  0  0  0  0  0  0  0  0
   36.2210   32.4860   37.2428 H   0  0  0  0  0  0  0  0  0  0  0  0
   31.2920   33.3950   35.9399 H   0  0  0  0  0  0  0  0  0  0  0  0
   28.9300   27.4600   37.2644 H   0  0  0  0  0  0  0  0  0  0  0  0
   32.3765   26.4217   36.6753 H   0  0  0  0  0  0  0  0  0  0  0  0
   30.7468   25.8354   37.1032 H   0  0  0  0  0  0  0  0  0  0  0  0
   34.6120   28.5376   33.2724 H   0  0  0  0  0  0  0  0  0  0  0  0
   36.1015   27.7930   32.4548 H   0  0  0  0  0  0  0  0  0  0  0  0
   37.1349   29.1544   34.5471 H   0  0  0  0  0  0  0  0  0  0  0  0
   35.5997   28.4526   35.2040 H   0  0  0  0  0  0  0  0  0  0  0  0
   38.4396   23.1599   39.2746 H   0  0  0  0  0  0  0  0  0  0  0  0
   37.2071   24.7200   37.7257 H   0  0  0  0  0  0  0  0  0  0  0  0
   41.3425   22.3402   36.3410 H   0  0  0  0  0  0  0  0  0  0  0  0
  1  5  1  0
  1 23  1  0
  2  1  2  0
  3  2  1  0
  3  4  2  0
  4  5  1  0
  5  6  1  0
  6 11  1  0
  6  7  2  0
  7  8  1  0
  8  9  2  0
 10 12  1  0
 10  9  1  0
 11 10  2  0
 12 13  1  0
 12 22  1  0
 13 14  2  0
 14 15  1  0
 15 16  1  0
 16 18  1  0
 16 17  2  0
 19 20  1  0
 19 18  1  0
 21 19  2  0
 22 21  1  0
 22 15  2  0
 23 24  1  0
 24 28  1  0
 25 29  1  0
 25 32  1  0
 26 25  2  0
 27 26  1  0
 27 28  1  0
 28 29  2  0
 31 30  2  0
 32 31  1  0
 33 32  2  0
 33 34  1  0
 34 35  2  0
 35 30  1  0
  2 36  1  0
  4 37  1  0
  7 38  1  0
  8 39  1  0
 13 40  1  0
 18 41  1  0
 20 42  1  0
 20 43  1  0
 23 44  1  0
 23 45  1  0
 24 46  1  0
 24 47  1  0
 30 48  1  0
 31 49  1  0
 34 50  1  0
M  END
>  <Score>  (1) 
-7.35773

$$$$
