
     RDKit          3D

 44 48  0  0  0  0  0  0  0  0999 V2000
   36.2350   19.9670   31.5330 C   0  0  0  0  0  0  0  0  0  0  0  0
   36.7750   21.1940   31.1660 C   0  0  0  0  0  0  0  0  0  0  0  0
   36.7780   22.2130   32.1350 C   0  0  0  0  0  0  0  0  0  0  0  0
   36.2560   21.9230   33.3510 N   0  0  0  0  0  0  0  0  0  0  0  0
   35.7420   20.7150   33.6600 C   0  0  0  0  0  0  0  0  0  0  0  0
   35.7360   19.7400   32.7420 N   0  0  0  0  0  0  0  0  0  0  0  0
   35.2010   20.4560   34.9560 N   0  0  0  0  0  0  0  0  0  0  0  0
   35.8860   20.8910   36.1100 C   0  0  0  0  0  0  0  0  0  0  0  0
   37.1000   21.3550   35.9790 N   0  0  0  0  0  0  0  0  0  0  0  0
   35.2550   20.8240   37.4090 N   0  0  0  0  0  0  0  0  0  0  0  0
   37.6080   21.6530   36.8440 H   0  0  0  0  0  0  0  0  0  0  0  0
   37.3020   23.4850   31.8550 N   0  0  0  0  0  0  0  0  0  0  0  0
   36.8050   24.3410   30.9360 C   0  0  0  0  0  0  0  0  0  0  0  0
   37.5500   25.4730   30.9220 N   0  0  0  0  0  0  0  0  0  0  0  0
   38.5180   25.2900   31.8550 C   0  0  0  0  0  0  0  0  0  0  0  0
   39.5140   26.1760   32.1920 C   0  0  0  0  0  0  0  0  0  0  0  0
   40.3740   25.7590   33.1600 N   0  0  0  0  0  0  0  0  0  0  0  0
   40.2260   24.5260   33.7450 C   0  0  0  0  0  0  0  0  0  0  0  0
   39.2300   23.6920   33.3810 N   0  0  0  0  0  0  0  0  0  0  0  0
   38.3530   24.0460   32.4330 C   0  0  0  0  0  0  0  0  0  0  0  0
   41.2540   24.2980   34.7480 C   0  0  0  0  0  0  0  0  0  0  0  0
   41.1080   23.3280   35.7130 C   0  0  0  0  0  0  0  0  0  0  0  0
   42.0290   23.0460   36.6970 C   0  0  0  0  0  0  0  0  0  0  0  0
   43.2010   23.7610   36.7620 C   0  0  0  0  0  0  0  0  0  0  0  0
   43.4090   24.7470   35.8240 C   0  0  0  0  0  0  0  0  0  0  0  0
   44.5830   25.4610   35.8910 C   0  0  0  0  0  0  0  0  0  0  0  0
   44.8560   26.4620   34.9840 C   0  0  0  0  0  0  0  0  0  0  0  0
   43.8930   26.7060   34.0100 C   0  0  0  0  0  0  0  0  0  0  0  0
   42.7380   25.9630   33.9890 C   0  0  0  0  0  0  0  0  0  0  0  0
   42.4390   24.9640   34.8760 C   0  0  0  0  0  0  0  0  0  0  0  0
   36.2206   19.1529   30.7934 H   0  0  0  0  0  0  0  0  0  0  0  0
   37.1834   21.3612   30.1584 H   0  0  0  0  0  0  0  0  0  0  0  0
   34.3084   19.9503   35.0484 H   0  0  0  0  0  0  0  0  0  0  0  0
   35.7634   21.1441   38.2456 H   0  0  0  0  0  0  0  0  0  0  0  0
   34.2970   20.4562   37.4978 H   0  0  0  0  0  0  0  0  0  0  0  0
   35.9303   24.1489   30.2973 H   0  0  0  0  0  0  0  0  0  0  0  0
   39.6094   27.1598   31.7093 H   0  0  0  0  0  0  0  0  0  0  0  0
   40.1839   22.7316   35.6971 H   0  0  0  0  0  0  0  0  0  0  0  0
   41.8272   22.2504   37.4293 H   0  0  0  0  0  0  0  0  0  0  0  0
   43.9501   23.5518   37.5399 H   0  0  0  0  0  0  0  0  0  0  0  0
   45.3141   25.2297   36.6796 H   0  0  0  0  0  0  0  0  0  0  0  0
   45.7906   27.0404   35.0280 H   0  0  0  0  0  0  0  0  0  0  0  0
   44.0563   27.4923   33.2583 H   0  0  0  0  0  0  0  0  0  0  0  0
   42.0009   26.1865   33.2037 H   0  0  0  0  0  0  0  0  0  0  0  0
  1  6  2  0
  2  1  1  0
  2  3  2  0
  3  4  1  0
  4  5  2  0
  5  7  1  0
  6  5  1  0
  7  8  1  0
  8 10  1  0
  9  8  2  0
  9 11  1  0
 12  3  1  0
 12 20  1  0
 13 12  1  0
 14 13  2  0
 14 15  1  0
 15 16  2  0
 15 20  1  0
 16 17  1  0
 17 18  2  0
 18 21  1  0
 19 18  1  0
 20 19  2  0
 21 30  1  0
 21 22  2  0
 22 23  1  0
 23 24  2  0
 25 26  2  0
 25 24  1  0
 27 26  1  0
 28 27  2  0
 29 28  1  0
 29 30  2  0
 30 25  1  0
  1 31  1  0
  2 32  1  0
  7 33  1  0
 10 34  1  0
 10 35  1  0
 13 36  1  0
 16 37  1  0
 22 38  1  0
 23 39  1  0
 24 40  1  0
 26 41  1  0
 27 42  1  0
 28 43  1  0
 29 44  1  0
M  END
>  <Score>  (1) 
-7.25238

$$$$
