
     RDKit          3D

 54 60  0  0  0  0  0  0  0  0999 V2000
   38.7180   23.6520   36.1190 C   0  0  0  0  0  0  0  0  0  0  0  0
   40.1350   23.7310   36.0700 C   0  0  0  0  0  0  0  0  0  0  0  0
   40.6780   24.7730   35.3640 C   0  0  0  0  0  0  0  0  0  0  0  0
   39.8090   25.6150   34.7880 N   0  0  0  0  0  0  0  0  0  0  0  0
   38.5040   25.5630   34.8180 C   0  0  0  0  0  0  0  0  0  0  0  0
   37.9530   24.5510   35.5050 N   0  0  0  0  0  0  0  0  0  0  0  0
   37.8300   26.5890   34.1270 N   0  0  0  0  0  0  0  0  0  0  0  0
   37.1190   27.4860   34.8500 C   0  0  0  0  0  0  0  0  0  0  0  0
   36.5490   28.4090   33.9730 C   0  0  0  0  0  0  0  0  0  0  0  0
   36.9350   28.0340   32.7700 N   0  0  0  0  0  0  0  0  0  0  0  0
   37.7260   26.9130   32.8410 C   0  0  0  0  0  0  0  0  0  0  0  0
   38.2840   26.2490   31.7090 C   0  0  0  0  0  0  0  0  0  0  0  0
   38.7710   26.9540   30.5890 C   0  0  0  0  0  0  0  0  0  0  0  0
   39.2210   26.0580   29.6530 N   0  0  0  0  0  0  0  0  0  0  0  0
   39.0070   24.7890   30.2030 C   0  0  0  0  0  0  0  0  0  0  0  0
   38.4650   24.9910   31.3960 N   0  0  0  0  0  0  0  0  0  0  0  0
   38.3510   23.6960   31.9070 C   0  0  0  0  0  0  0  0  0  0  0  0
   39.4780   23.2890   32.5060 N   0  0  0  0  0  0  0  0  0  0  0  0
   39.5550   22.0270   33.0040 C   0  0  0  0  0  0  0  0  0  0  0  0
   38.5630   21.1400   32.9380 N   0  0  0  0  0  0  0  0  0  0  0  0
   37.4140   21.5050   32.3460 C   0  0  0  0  0  0  0  0  0  0  0  0
   36.3170   20.6960   32.2040 C   0  0  0  0  0  0  0  0  0  0  0  0
   35.1750   21.1180   31.5880 C   0  0  0  0  0  0  0  0  0  0  0  0
   35.1150   22.4140   31.0820 C   0  0  0  0  0  0  0  0  0  0  0  0
   36.1790   23.2730   31.1930 C   0  0  0  0  0  0  0  0  0  0  0  0
   37.2990   22.7990   31.8210 C   0  0  0  0  0  0  0  0  0  0  0  0
   35.7230   29.4950   34.5070 C   0  0  0  0  0  0  0  0  0  0  0  0
   36.1630   30.3870   35.4140 N   0  0  0  0  0  0  0  0  0  0  0  0
   35.4380   31.3910   35.9230 C   0  0  0  0  0  0  0  0  0  0  0  0
   34.1640   31.5880   35.5450 N   0  0  0  0  0  0  0  0  0  0  0  0
   33.6320   30.7490   34.6410 C   0  0  0  0  0  0  0  0  0  0  0  0
   32.3260   30.9420   34.2470 C   0  0  0  0  0  0  0  0  0  0  0  0
   31.7280   30.1090   33.3200 C   0  0  0  0  0  0  0  0  0  0  0  0
   32.5050   29.0850   32.8190 C   0  0  0  0  0  0  0  0  0  0  0  0
   33.8070   28.9200   33.2330 C   0  0  0  0  0  0  0  0  0  0  0  0
   34.4190   29.7320   34.1500 C   0  0  0  0  0  0  0  0  0  0  0  0
   38.1040   22.5810   36.8660 N   0  0  0  0  0  0  0  0  0  0  0  0
   40.7692   22.9885   36.5764 H   0  0  0  0  0  0  0  0  0  0  0  0
   41.7658   24.9103   35.2753 H   0  0  0  0  0  0  0  0  0  0  0  0
   37.0093   27.4869   35.9445 H   0  0  0  0  0  0  0  0  0  0  0  0
   38.7874   28.0487   30.4828 H   0  0  0  0  0  0  0  0  0  0  0  0
   39.2412   23.8195   29.7391 H   0  0  0  0  0  0  0  0  0  0  0  0
   40.4923   21.7194   33.4907 H   0  0  0  0  0  0  0  0  0  0  0  0
   36.3586   19.6708   32.6004 H   0  0  0  0  0  0  0  0  0  0  0  0
   34.3121   20.4426   31.4922 H   0  0  0  0  0  0  0  0  0  0  0  0
   34.1961   22.7559   30.5833 H   0  0  0  0  0  0  0  0  0  0  0  0
   36.1340   24.2974   30.7949 H   0  0  0  0  0  0  0  0  0  0  0  0
   35.8931   32.0658   36.6630 H   0  0  0  0  0  0  0  0  0  0  0  0
   31.7490   31.7736   34.6777 H   0  0  0  0  0  0  0  0  0  0  0  0
   30.6863   30.2551   32.9984 H   0  0  0  0  0  0  0  0  0  0  0  0
   32.0784   28.3916   32.0792 H   0  0  0  0  0  0  0  0  0  0  0  0
   34.3879   28.0903   32.8037 H   0  0  0  0  0  0  0  0  0  0  0  0
   37.0776   22.5080   36.9125 H   0  0  0  0  0  0  0  0  0  0  0  0
   38.6921   21.8895   37.3527 H   0  0  0  0  0  0  0  0  0  0  0  0
  1 37  1  0
  2  1  2  0
  3  2  1  0
  4  5  1  0
  4  3  2  0
  5  6  2  0
  6  1  1  0
  7  5  1  0
  7  8  1  0
  9 27  1  0
  9  8  2  0
 10 11  2  0
 10  9  1  0
 11  7  1  0
 12 11  1  0
 13 12  2  0
 14 15  2  0
 14 13  1  0
 15 16  1  0
 16 12  1  0
 16 17  1  0
 17 18  2  0
 18 19  1  0
 20 19  2  0
 21 20  1  0
 22 21  2  0
 23 22  1  0
 24 25  1  0
 24 23  2  0
 25 26  2  0
 26 17  1  0
 26 21  1  0
 27 28  2  0
 28 29  1  0
 30 29  2  0
 31 30  1  0
 32 31  2  0
 33 32  1  0
 34 35  1  0
 34 33  2  0
 35 36  2  0
 36 27  1  0
 36 31  1  0
  2 38  1  0
  3 39  1  0
  8 40  1  0
 13 41  1  0
 15 42  1  0
 19 43  1  0
 22 44  1  0
 23 45  1  0
 24 46  1  0
 25 47  1  0
 29 48  1  0
 32 49  1  0
 33 50  1  0
 34 51  1  0
 35 52  1  0
 37 53  1  0
 37 54  1  0
M  END
>  <Score>  (1) 
-7.48427

$$$$
