
     RDKit          3D

 47 52  0  0  0  0  0  0  0  0999 V2000
   39.0650   23.0480   37.9820 C   0  0  0  0  0  0  0  0  0  0  0  0
   38.3340   23.2980   36.8150 C   0  0  0  0  0  0  0  0  0  0  0  0
   38.9910   23.0790   35.6010 C   0  0  0  0  0  0  0  0  0  0  0  0
   40.2580   22.6510   35.6860 N   0  0  0  0  0  0  0  0  0  0  0  0
   40.9630   22.4100   36.8060 C   0  0  0  0  0  0  0  0  0  0  0  0
   40.3210   22.6240   37.9540 N   0  0  0  0  0  0  0  0  0  0  0  0
   42.3110   21.9570   36.5220 C   0  0  0  0  0  0  0  0  0  0  0  0
   42.5830   20.6230   36.3170 C   0  0  0  0  0  0  0  0  0  0  0  0
   43.8460   20.1220   36.0410 C   0  0  0  0  0  0  0  0  0  0  0  0
   44.9220   20.9770   35.9590 C   0  0  0  0  0  0  0  0  0  0  0  0
   44.6910   22.3000   36.1570 C   0  0  0  0  0  0  0  0  0  0  0  0
   45.7720   23.1590   36.0750 C   0  0  0  0  0  0  0  0  0  0  0  0
   45.6250   24.5190   36.2630 C   0  0  0  0  0  0  0  0  0  0  0  0
   44.3430   24.9770   36.5360 C   0  0  0  0  0  0  0  0  0  0  0  0
   43.2910   24.0870   36.6100 C   0  0  0  0  0  0  0  0  0  0  0  0
   43.4160   22.7560   36.4290 C   0  0  0  0  0  0  0  0  0  0  0  0
   38.3470   23.2990   34.3480 N   0  0  0  0  0  0  0  0  0  0  0  0
   37.4160   22.4730   33.8870 C   0  0  0  0  0  0  0  0  0  0  0  0
   37.0290   22.9880   32.6830 C   0  0  0  0  0  0  0  0  0  0  0  0
   37.7250   24.1060   32.4370 N   0  0  0  0  0  0  0  0  0  0  0  0
   38.5580   24.3020   33.4880 C   0  0  0  0  0  0  0  0  0  0  0  0
   39.4730   25.3850   33.6210 N   0  0  0  0  0  0  0  0  0  0  0  0
   39.8240   25.9430   34.8170 C   0  0  0  0  0  0  0  0  0  0  0  0
   40.6950   26.9260   34.5840 N   0  0  0  0  0  0  0  0  0  0  0  0
   40.9050   27.0070   33.2770 C   0  0  0  0  0  0  0  0  0  0  0  0
   41.6580   27.7750   32.3940 C   0  0  0  0  0  0  0  0  0  0  0  0
   41.6560   27.6030   31.0580 N   0  0  0  0  0  0  0  0  0  0  0  0
   40.8830   26.6380   30.5280 C   0  0  0  0  0  0  0  0  0  0  0  0
   40.1050   25.8290   31.3050 N   0  0  0  0  0  0  0  0  0  0  0  0
   40.1430   26.0430   32.6510 C   0  0  0  0  0  0  0  0  0  0  0  0
   36.0080   22.4610   31.7310 C   0  0  0  0  0  0  0  0  0  0  0  0
   34.9040   21.9400   32.3660 F   0  0  0  0  0  0  0  0  0  0  0  0
   36.5520   21.4050   30.9760 F   0  0  0  0  0  0  0  0  0  0  0  0
   35.6750   23.4290   30.7970 F   0  0  0  0  0  0  0  0  0  0  0  0
   38.5807   23.2089   38.9564 H   0  0  0  0  0  0  0  0  0  0  0  0
   37.2925   23.6499   36.8515 H   0  0  0  0  0  0  0  0  0  0  0  0
   41.7468   19.9108   36.3758 H   0  0  0  0  0  0  0  0  0  0  0  0
   43.9883   19.0421   35.8876 H   0  0  0  0  0  0  0  0  0  0  0  0
   45.9327   20.6015   35.7409 H   0  0  0  0  0  0  0  0  0  0  0  0
   46.7694   22.7503   35.8555 H   0  0  0  0  0  0  0  0  0  0  0  0
   46.4817   25.2060   36.1996 H   0  0  0  0  0  0  0  0  0  0  0  0
   44.1656   26.0511   36.6936 H   0  0  0  0  0  0  0  0  0  0  0  0
   42.2901   24.4870   36.8298 H   0  0  0  0  0  0  0  0  0  0  0  0
   37.0353   21.5629   34.3736 H   0  0  0  0  0  0  0  0  0  0  0  0
   39.4516   25.6342   35.8049 H   0  0  0  0  0  0  0  0  0  0  0  0
   42.2928   28.5701   32.8120 H   0  0  0  0  0  0  0  0  0  0  0  0
   40.8777   26.4967   29.4371 H   0  0  0  0  0  0  0  0  0  0  0  0
  2  1  2  0
  3  4  2  0
  3  2  1  0
  4  5  1  0
  5  6  2  0
  6  1  1  0
  7  5  1  0
  8  7  2  0
  9  8  1  0
 10  9  2  0
 10 11  1  0
 11 16  2  0
 12 11  1  0
 12 13  2  0
 13 14  1  0
 14 15  2  0
 16  7  1  0
 16 15  1  0
 17  3  1  0
 18 17  1  0
 19 18  2  0
 20 19  1  0
 20 21  2  0
 21 22  1  0
 21 17  1  0
 22 23  1  0
 24 23  2  0
 25 24  1  0
 26 25  2  0
 27 26  1  0
 28 27  2  0
 28 29  1  0
 29 30  2  0
 30 25  1  0
 30 22  1  0
 31 32  1  0
 31 19  1  0
 33 31  1  0
 34 31  1  0
  1 35  1  0
  2 36  1  0
  8 37  1  0
  9 38  1  0
 10 39  1  0
 12 40  1  0
 13 41  1  0
 14 42  1  0
 15 43  1  0
 18 44  1  0
 23 45  1  0
 26 46  1  0
 28 47  1  0
M  END
>  <Score>  (1) 
-7.14549

$$$$
