
     RDKit          3D

 46 51  0  0  0  0  0  0  0  0999 V2000
   36.7970   24.2200   31.8810 C   0  0  0  0  0  0  0  0  0  0  0  0
   36.2450   25.4960   31.8230 C   0  0  0  0  0  0  0  0  0  0  0  0
   36.7490   26.3800   32.7640 C   0  0  0  0  0  0  0  0  0  0  0  0
   37.6770   25.9680   33.6120 N   0  0  0  0  0  0  0  0  0  0  0  0
   38.2090   24.7720   33.6800 C   0  0  0  0  0  0  0  0  0  0  0  0
   37.7380   23.9230   32.7900 N   0  0  0  0  0  0  0  0  0  0  0  0
   39.2190   24.1920   34.5440 C   0  0  0  0  0  0  0  0  0  0  0  0
   40.4920   23.8840   34.0750 C   0  0  0  0  0  0  0  0  0  0  0  0
   41.4820   23.3360   34.8510 C   0  0  0  0  0  0  0  0  0  0  0  0
   41.2410   23.0600   36.1750 C   0  0  0  0  0  0  0  0  0  0  0  0
   40.0160   23.3410   36.6840 C   0  0  0  0  0  0  0  0  0  0  0  0
   39.7770   23.0580   38.0260 C   0  0  0  0  0  0  0  0  0  0  0  0
   38.5830   23.3070   38.6120 C   0  0  0  0  0  0  0  0  0  0  0  0
   37.5940   23.8630   37.8040 C   0  0  0  0  0  0  0  0  0  0  0  0
   37.8530   24.1310   36.4870 C   0  0  0  0  0  0  0  0  0  0  0  0
   39.0370   23.8910   35.8850 C   0  0  0  0  0  0  0  0  0  0  0  0
   36.2750   27.7200   32.8240 N   0  0  0  0  0  0  0  0  0  0  0  0
   36.0340   28.5460   31.8040 C   0  0  0  0  0  0  0  0  0  0  0  0
   35.6010   29.7140   32.2430 N   0  0  0  0  0  0  0  0  0  0  0  0
   35.5550   29.6610   33.5690 C   0  0  0  0  0  0  0  0  0  0  0  0
   35.9740   28.4260   33.8910 N   0  0  0  0  0  0  0  0  0  0  0  0
   35.2040   30.5030   34.7330 C   0  0  0  0  0  0  0  0  0  0  0  0
   36.0020   31.4070   35.3330 N   0  0  0  0  0  0  0  0  0  0  0  0
   35.6210   32.1390   36.3850 C   0  0  0  0  0  0  0  0  0  0  0  0
   34.4090   32.0400   36.9420 N   0  0  0  0  0  0  0  0  0  0  0  0
   33.5520   31.1640   36.4090 C   0  0  0  0  0  0  0  0  0  0  0  0
   32.3050   31.0670   36.9860 C   0  0  0  0  0  0  0  0  0  0  0  0
   31.3850   30.1980   36.4930 C   0  0  0  0  0  0  0  0  0  0  0  0
   31.7300   29.4110   35.3950 C   0  0  0  0  0  0  0  0  0  0  0  0
   32.9880   29.5530   34.8650 C   0  0  0  0  0  0  0  0  0  0  0  0
   33.9620   30.4160   35.3210 C   0  0  0  0  0  0  0  0  0  0  0  0
   36.4586   23.4474   31.1748 H   0  0  0  0  0  0  0  0  0  0  0  0
   35.4735   25.7793   31.0918 H   0  0  0  0  0  0  0  0  0  0  0  0
   40.7184   24.0923   33.0189 H   0  0  0  0  0  0  0  0  0  0  0  0
   42.4674   23.1179   34.4135 H   0  0  0  0  0  0  0  0  0  0  0  0
   42.0252   22.6203   36.8088 H   0  0  0  0  0  0  0  0  0  0  0  0
   40.5847   22.6179   38.6293 H   0  0  0  0  0  0  0  0  0  0  0  0
   38.4024   23.0816   39.6734 H   0  0  0  0  0  0  0  0  0  0  0  0
   36.6029   24.0871   38.2252 H   0  0  0  0  0  0  0  0  0  0  0  0
   37.0460   24.5693   35.8815 H   0  0  0  0  0  0  0  0  0  0  0  0
   36.1763   28.2895   30.7438 H   0  0  0  0  0  0  0  0  0  0  0  0
   36.3376   32.8559   36.8122 H   0  0  0  0  0  0  0  0  0  0  0  0
   32.0527   31.6973   37.8515 H   0  0  0  0  0  0  0  0  0  0  0  0
   30.3880   30.1167   36.9506 H   0  0  0  0  0  0  0  0  0  0  0  0
   31.0133   28.6957   34.9652 H   0  0  0  0  0  0  0  0  0  0  0  0
   33.2417   28.9226   34.0000 H   0  0  0  0  0  0  0  0  0  0  0  0
  1  6  2  0
  2  1  1  0
  2  3  2  0
  3 17  1  0
  3  4  1  0
  4  5  2  0
  5  7  1  0
  6  5  1  0
  7 16  1  0
  8  7  2  0
  8  9  1  0
  9 10  2  0
 10 11  1  0
 11 12  2  0
 12 13  1  0
 14 13  2  0
 15 14  1  0
 16 15  2  0
 16 11  1  0
 17 21  1  0
 18 19  2  0
 18 17  1  0
 19 20  1  0
 20 21  2  0
 20 22  1  0
 22 31  1  0
 22 23  2  0
 23 24  1  0
 24 25  2  0
 26 25  1  0
 26 27  2  0
 28 27  1  0
 29 28  2  0
 30 31  2  0
 30 29  1  0
 31 26  1  0
  1 32  1  0
  2 33  1  0
  8 34  1  0
  9 35  1  0
 10 36  1  0
 12 37  1  0
 13 38  1  0
 14 39  1  0
 15 40  1  0
 18 41  1  0
 24 42  1  0
 27 43  1  0
 28 44  1  0
 29 45  1  0
 30 46  1  0
M  END
>  <Score>  (1) 
-7.61226

$$$$
