
     RDKit          3D

 61 65  0  0  1  0  0  0  0  0999 V2000
   38.7780   25.9840   34.8090 C   0  0  2  0  0  0  0  0  0  0  0  0
   38.9470   23.0150   37.0310 C   0  0  0  0  0  0  0  0  0  0  0  0
   38.3650   23.4320   38.2030 C   0  0  0  0  0  0  0  0  0  0  0  0
   37.9150   24.7300   38.2180 C   0  0  0  0  0  0  0  0  0  0  0  0
   38.0550   25.5160   37.1300 N   0  0  0  0  0  0  0  0  0  0  0  0
   38.6360   25.0750   35.9820 C   0  0  0  0  0  0  0  0  0  0  0  0
   39.0790   23.7930   35.9680 N   0  0  0  0  0  0  0  0  0  0  0  0
   38.2800   22.5160   39.2800 N   0  0  0  0  0  0  0  0  0  0  0  0
   39.0740   27.3520   35.2700 C   0  0  0  0  0  0  0  0  0  0  0  0
   37.4320   25.9140   34.1030 C   0  0  0  0  0  0  0  0  0  0  0  0
   37.0010   27.1470   33.5020 N   0  0  0  0  0  0  0  0  0  0  0  0
   36.3850   28.0160   34.3300 C   0  0  0  0  0  0  0  0  0  0  0  0
   35.9140   29.2460   33.9040 C   0  0  0  0  0  0  0  0  0  0  0  0
   36.0920   29.5740   32.5790 C   0  0  0  0  0  0  0  0  0  0  0  0
   35.6030   30.8400   32.1670 N   0  0  0  0  0  0  0  0  0  0  0  0
   36.7060   28.7030   31.7530 N   0  0  0  0  0  0  0  0  0  0  0  0
   37.1370   27.5300   32.2310 C   0  0  0  0  0  0  0  0  0  0  0  0
   37.7000   26.7220   31.4760 O   0  0  0  0  0  0  0  0  0  0  0  0
   35.2430   30.1480   34.8530 C   0  0  0  0  0  0  0  0  0  0  0  0
   35.9460   31.0530   35.5980 C   0  0  0  0  0  0  0  0  0  0  0  0
   35.3070   31.8950   36.4900 C   0  0  0  0  0  0  0  0  0  0  0  0
   33.9570   31.7770   36.5860 C   0  0  0  0  0  0  0  0  0  0  0  0
   33.2010   30.8880   35.8650 C   0  0  0  0  0  0  0  0  0  0  0  0
   33.8520   30.0360   34.9610 C   0  0  0  0  0  0  0  0  0  0  0  0
   39.8030   25.4050   33.8660 C   0  0  0  0  0  0  0  0  0  0  0  0
   40.9380   26.2350   33.4430 C   0  0  0  0  0  0  0  0  0  0  0  0
   41.0870   27.2070   32.4840 C   0  0  0  0  0  0  0  0  0  0  0  0
   42.2090   27.8950   32.1230 C   0  0  0  0  0  0  0  0  0  0  0  0
   43.3660   27.6120   32.7850 C   0  0  0  0  0  0  0  0  0  0  0  0
   43.3460   26.6500   33.7860 C   0  0  0  0  0  0  0  0  0  0  0  0
   44.5480   26.4740   34.4280 C   0  0  0  0  0  0  0  0  0  0  0  0
   44.6100   25.5840   35.4680 C   0  0  0  0  0  0  0  0  0  0  0  0
   43.4780   24.8960   35.8420 C   0  0  0  0  0  0  0  0  0  0  0  0
   42.3180   25.1340   35.1410 C   0  0  0  0  0  0  0  0  0  0  0  0
   42.1640   26.0010   34.0870 C   0  0  0  0  0  0  0  0  0  0  0  0
   39.3223   21.9827   36.9726 H   0  0  0  0  0  0  0  0  0  0  0  0
   37.4370   25.1316   39.1237 H   0  0  0  0  0  0  0  0  0  0  0  0
   37.8479   22.8052   40.1691 H   0  0  0  0  0  0  0  0  0  0  0  0
   38.6503   21.5607   39.1741 H   0  0  0  0  0  0  0  0  0  0  0  0
   39.0790   27.3753   36.3697 H   0  0  0  0  0  0  0  0  0  0  0  0
   40.0598   27.6610   34.8922 H   0  0  0  0  0  0  0  0  0  0  0  0
   38.3041   28.0409   34.8922 H   0  0  0  0  0  0  0  0  0  0  0  0
   37.5000   25.1531   33.3116 H   0  0  0  0  0  0  0  0  0  0  0  0
   36.6890   25.6706   34.8768 H   0  0  0  0  0  0  0  0  0  0  0  0
   36.2518   27.7360   35.3854 H   0  0  0  0  0  0  0  0  0  0  0  0
   35.7084   31.1387   31.1869 H   0  0  0  0  0  0  0  0  0  0  0  0
   35.1425   31.4607   32.8479 H   0  0  0  0  0  0  0  0  0  0  0  0
   37.0387   31.1127   35.4862 H   0  0  0  0  0  0  0  0  0  0  0  0
   35.8656   32.6258   37.0933 H   0  0  0  0  0  0  0  0  0  0  0  0
   33.4340   32.4402   37.2907 H   0  0  0  0  0  0  0  0  0  0  0  0
   32.1093   30.8444   35.9929 H   0  0  0  0  0  0  0  0  0  0  0  0
   33.2901   29.3066   34.3590 H   0  0  0  0  0  0  0  0  0  0  0  0
   40.2219   24.5132   34.3551 H   0  0  0  0  0  0  0  0  0  0  0  0
   39.2389   25.2404   32.9361 H   0  0  0  0  0  0  0  0  0  0  0  0
   40.1737   27.4675   31.9290 H   0  0  0  0  0  0  0  0  0  0  0  0
   42.1804   28.6518   31.3252 H   0  0  0  0  0  0  0  0  0  0  0  0
   44.2990   28.1363   32.5309 H   0  0  0  0  0  0  0  0  0  0  0  0
   45.4406   27.0350   34.1141 H   0  0  0  0  0  0  0  0  0  0  0  0
   45.5584   25.4204   36.0006 H   0  0  0  0  0  0  0  0  0  0  0  0
   43.4999   24.1783   36.6753 H   0  0  0  0  0  0  0  0  0  0  0  0
   41.4252   24.5741   35.4562 H   0  0  0  0  0  0  0  0  0  0  0  0
  1 25  1  6
  1  9  1  0
  1  6  1  0
  2  3  2  0
  3  4  1  0
  3  8  1  0
  5  4  2  0
  6  5  1  0
  7  6  2  0
  7  2  1  0
 10  1  1  0
 11 10  1  0
 11 12  1  0
 13 12  2  0
 13 19  1  0
 14 13  1  0
 15 14  1  0
 16 17  1  0
 16 14  2  0
 17 11  1  0
 18 17  2  0
 19 24  1  0
 19 20  2  0
 20 21  1  0
 21 22  2  0
 23 22  1  0
 24 23  2  0
 26 25  1  0
 26 35  1  0
 27 26  2  0
 28 27  1  0
 28 29  2  0
 29 30  1  0
 30 35  2  0
 30 31  1  0
 31 32  2  0
 32 33  1  0
 34 33  2  0
 35 34  1  0
  2 36  1  0
  4 37  1  0
  8 38  1  0
  8 39  1  0
  9 40  1  0
  9 41  1  0
  9 42  1  0
 10 43  1  0
 10 44  1  0
 12 45  1  0
 15 46  1  0
 15 47  1  0
 20 48  1  0
 21 49  1  0
 22 50  1  0
 23 51  1  0
 24 52  1  0
 25 53  1  0
 25 54  1  0
 27 55  1  0
 28 56  1  0
 29 57  1  0
 31 58  1  0
 32 59  1  0
 33 60  1  0
 34 61  1  0
M  END
>  <Score>  (1) 
-7.4764

$$$$
