
     RDKit          3D

 48 53  0  0  1  0  0  0  0  0999 V2000
   39.6650   22.8220   37.2910 C   0  0  0  0  0  0  0  0  0  0  0  0
   38.9990   23.2330   38.4530 C   0  0  0  0  0  0  0  0  0  0  0  0
   37.9830   24.1690   38.3190 C   0  0  0  0  0  0  0  0  0  0  0  0
   37.6720   24.6460   37.1070 N   0  0  0  0  0  0  0  0  0  0  0  0
   38.3550   24.2150   35.9830 C   0  0  0  0  0  0  0  0  0  0  0  0
   39.3270   23.3230   36.0860 N   0  0  0  0  0  0  0  0  0  0  0  0
   37.9750   24.7650   34.7440 N   0  0  0  0  0  0  0  0  0  0  0  0
   37.3940   25.9840   34.8460 C   0  0  0  0  0  0  0  0  0  0  0  0
   37.0550   26.4040   33.5450 C   0  0  0  0  0  0  0  0  0  0  0  0
   37.4460   25.4220   32.7220 N   0  0  0  0  0  0  0  0  0  0  0  0
   38.0020   24.4320   33.4380 C   0  0  0  0  0  0  0  0  0  0  0  0
   38.5770   23.1740   33.0960 N   0  0  0  0  0  0  0  0  0  0  0  0
   39.8220   22.7250   33.0670 C   0  0  0  0  0  0  0  0  0  0  0  0
   39.7820   21.4260   32.6580 N   0  0  0  0  0  0  0  0  0  0  0  0
   38.4870   21.0860   32.4360 C   0  0  0  0  0  0  0  0  0  0  0  0
   37.9730   19.8710   32.0100 C   0  0  0  0  0  0  0  0  0  0  0  0
   38.7390   18.9010   31.7770 O   0  0  0  0  0  0  0  0  0  0  0  0
   36.6260   19.7610   31.8560 N   0  0  0  0  0  0  0  0  0  0  0  0
   35.8790   20.8480   32.1280 C   0  0  0  0  0  0  0  0  0  0  0  0
   34.4660   20.7530   31.9710 N   0  0  0  0  0  0  0  0  0  0  0  0
   36.3810   22.0260   32.5410 N   0  0  0  0  0  0  0  0  0  0  0  0
   37.7220   22.2030   32.7160 C   0  0  0  0  0  0  0  0  0  0  0  0
   40.6520   21.9120   37.4220 O   0  0  0  0  0  0  0  0  0  0  0  0
   41.9250   22.1720   36.8950 C   0  0  0  0  0  0  0  0  0  0  0  0
   42.4690   21.1480   36.1620 C   0  0  0  0  0  0  0  0  0  0  0  0
   44.0490   21.8550   35.6830 S   0  0  0  0  0  0  0  0  0  0  0  0
   43.7110   23.5020   36.5910 C   0  0  0  0  0  0  0  0  0  0  0  0
   42.6850   23.2330   36.9890 N   0  0  0  0  0  0  0  0  0  0  0  0
   44.7330   24.6050   36.5810 C   0  0  2  0  0  0  0  0  0  0  0  0
   46.1290   24.2670   36.4310 C   0  0  0  0  0  0  0  0  0  0  0  0
   45.7960   24.4510   37.7870 C   0  0  1  0  0  0  0  0  0  0  0  0
   46.2910   25.8040   38.3150 C   0  0  0  0  0  0  0  0  0  0  0  0
   47.3390   26.3950   37.7510 O   0  0  0  0  0  0  0  0  0  0  0  0
   45.6230   26.4160   39.3960 O   0  0  0  0  0  0  0  0  0  0  0  0
   39.2721   22.8275   39.4384 H   0  0  0  0  0  0  0  0  0  0  0  0
   37.4345   24.5182   39.2063 H   0  0  0  0  0  0  0  0  0  0  0  0
   37.2186   26.5445   35.7761 H   0  0  0  0  0  0  0  0  0  0  0  0
   36.5673   27.3484   33.2617 H   0  0  0  0  0  0  0  0  0  0  0  0
   40.7251   23.2970   33.3261 H   0  0  0  0  0  0  0  0  0  0  0  0
   36.1938   18.8799   31.5433 H   0  0  0  0  0  0  0  0  0  0  0  0
   33.8695   21.5684   32.1718 H   0  0  0  0  0  0  0  0  0  0  0  0
   34.0410   19.8690   31.6567 H   0  0  0  0  0  0  0  0  0  0  0  0
   42.0495   20.1581   35.9296 H   0  0  0  0  0  0  0  0  0  0  0  0
   44.0681   25.3527   36.1241 H   0  0  0  0  0  0  0  0  0  0  0  0
   46.3886   23.2545   36.0884 H   0  0  0  0  0  0  0  0  0  0  0  0
   46.9187   24.7209   35.8143 H   0  0  0  0  0  0  0  0  0  0  0  0
   45.8638   23.8725   38.7202 H   0  0  0  0  0  0  0  0  0  0  0  0
   45.9370   27.2889   39.7417 H   0  0  0  0  0  0  0  0  0  0  0  0
  1 23  1  0
  1  2  2  0
  3  2  1  0
  4  3  2  0
  5  6  2  0
  5  4  1  0
  6  1  1  0
  7  8  1  0
  7  5  1  0
  9  8  2  0
 10 11  2  0
 10  9  1  0
 11  7  1  0
 12 11  1  0
 13 12  1  0
 14 13  2  0
 15 14  1  0
 15 22  2  0
 16 15  1  0
 17 16  2  0
 18 16  1  0
 18 19  1  0
 19 21  2  0
 20 19  1  0
 21 22  1  0
 22 12  1  0
 24 28  1  0
 24 23  1  0
 25 24  2  0
 26 25  1  0
 26 27  1  0
 27 28  2  0
 29 27  1  0
 29 31  1  0
 30 29  1  0
 30 31  1  0
 31 32  1  0
 32 34  1  0
 33 32  2  0
  2 35  1  0
  3 36  1  0
  8 37  1  0
  9 38  1  0
 13 39  1  0
 18 40  1  0
 20 41  1  0
 20 42  1  0
 25 43  1  0
 29 44  1  6
 30 45  1  0
 30 46  1  0
 31 47  1  1
 34 48  1  0
M  END
>  <Score>  (1) 
-7.14301

$$$$
