
 OpenBabel03252512283D

 31 33  0  0  1  0  0  0  0  0999 V2000
   34.9740   29.4250   48.5880 C   0  0  0  0  0  0  0  0  0  0  0  0
   34.4700   28.2460   49.1720 C   0  0  0  0  0  0  0  0  0  0  0  0
   33.3670   27.7110   48.6080 C   0  0  0  0  0  0  0  0  0  0  0  0
   32.8260   28.3030   47.5600 C   0  0  0  0  0  0  0  0  0  0  0  0
   33.8570   29.7720   47.2150 S   0  0  0  0  0  0  0  0  0  0  0  0
   35.0140   27.8520   50.0460 H   0  0  0  0  0  0  0  0  0  0  0  0
   32.9110   26.8060   48.9910 H   0  0  0  0  0  0  0  0  0  0  0  0
   37.7760   30.6320   50.6400 C   0  0  0  0  0  0  0  0  0  0  0  0
   38.3810   31.5940   49.7840 C   0  0  0  0  0  0  0  0  0  0  0  0
   37.8220   31.8060   48.5440 C   0  0  0  0  0  0  0  0  0  0  0  0
   36.7250   31.0830   48.2120 N   0  0  0  0  0  0  0  0  0  0  0  0
   36.1780   30.1990   49.0120 C   0  0  0  0  0  0  0  0  0  0  0  0
   36.6760   29.9360   50.2530 N   0  0  0  0  0  0  0  0  0  0  0  0
   38.2010   30.4500   51.6190 H   0  0  0  0  0  0  0  0  0  0  0  0
   39.2450   32.1300   50.1080 H   0  0  0  0  0  0  0  0  0  0  0  0
   38.2410   32.5220   47.8590 H   0  0  0  0  0  0  0  0  0  0  0  0
   31.6420   27.9520   46.7230 C   0  0  2  0  0  0  0  0  0  0  0  0
   31.7600   26.8650   46.4980 H   0  0  0  0  0  0  0  0  0  0  0  0
   31.6320   28.7790   45.5180 C   0  0  0  0  0  0  0  0  0  0  0  0
   30.7210   29.4040   45.4510 H   0  0  0  0  0  0  0  0  0  0  0  0
   31.6430   28.1300   44.6050 H   0  0  0  0  0  0  0  0  0  0  0  0
   32.5710   29.3930   45.4110 H   0  0  0  0  0  0  0  0  0  0  0  0
   30.4150   28.0650   47.6010 C   0  0  0  0  0  0  0  0  0  0  0  0
   30.6900   28.4030   48.6200 H   0  0  0  0  0  0  0  0  0  0  0  0
   29.8000   28.9200   47.1910 H   0  0  0  0  0  0  0  0  0  0  0  0
   29.6840   26.9350   47.6660 O   0  0  0  0  0  0  0  0  0  0  0  0
   29.1080   26.3480   46.5480 C   0  0  0  0  0  0  0  0  0  0  0  0
   29.0930   25.2100   45.8730 C   0  0  0  0  0  0  0  0  0  0  0  0
   28.3380   25.0360   44.7510 C   0  0  0  0  0  0  0  0  0  0  0  0
   27.5600   26.1950   44.3650 C   0  0  0  0  0  0  0  0  0  0  0  0
   28.0110   27.4300   45.6870 S   0  0  0  0  0  0  0  0  0  0  0  0
  1 12  1  0  0  0  0
  1  2  2  0  0  0  0
  2  6  1  0  0  0  0
  3  7  1  0  0  0  0
  3  2  1  0  0  0  0
  4  3  2  0  0  0  0
  5  4  1  0  0  0  0
  5  1  1  0  0  0  0
  8 14  1  0  0  0  0
  9 15  1  0  0  0  0
  9  8  2  0  0  0  0
 10  9  1  0  0  0  0
 11 10  2  0  0  0  0
 11 12  1  0  0  0  0
 12 13  2  0  0  0  0
 13  8  1  0  0  0  0
 16 10  1  0  0  0  0
 17 18  1  6  0  0  0
 17  4  1  0  0  0  0
 17 23  1  0  0  0  0
 19 17  1  0  0  0  0
 20 19  1  0  0  0  0
 21 19  1  0  0  0  0
 22 19  1  0  0  0  0
 23 26  1  0  0  0  0
 23 24  1  0  0  0  0
 25 23  1  0  0  0  0
 27 26  1  0  0  0  0
 28 27  2  0  0  0  0
 29 28  1  0  0  0  0
 30 29  2  0  0  0  0
 30 31  1  0  0  0  0
 31 27  1  0  0  0  0
M  END
>  <minimizedAffinity>
-4.48007679

>  <minimizedRMSD>
0.826641858

$$$$
