
 OpenBabel03252513013D

 24 25  0  0  0  0  0  0  0  0999 V2000
   37.8710   30.3320   48.2210 C   0  0  0  0  0  0  0  0  0  0  0  0
   38.4810   29.4580   47.9140 H   0  0  0  0  0  0  0  0  0  0  0  0
   38.5440   31.0390   48.7690 H   0  0  0  0  0  0  0  0  0  0  0  0
   34.6460   29.1110   49.7760 C   0  0  0  0  0  0  0  0  0  0  0  0
   35.5890   29.5040   48.7960 C   0  0  0  0  0  0  0  0  0  0  0  0
   36.8530   29.8990   49.1780 C   0  0  0  0  0  0  0  0  0  0  0  0
   37.1500   29.8940   50.5120 N   0  0  0  0  0  0  0  0  0  0  0  0
   36.2590   29.5230   51.4340 C   0  0  0  0  0  0  0  0  0  0  0  0
   35.0170   29.1330   51.0820 N   0  0  0  0  0  0  0  0  0  0  0  0
   33.6630   28.8040   49.4760 H   0  0  0  0  0  0  0  0  0  0  0  0
   35.2990   29.4890   47.7580 H   0  0  0  0  0  0  0  0  0  0  0  0
   36.4910   29.5180   52.4960 H   0  0  0  0  0  0  0  0  0  0  0  0
   37.3530   31.0440   47.0320 C   0  0  0  0  0  0  0  0  0  0  0  0
   36.8700   30.3810   46.2810 H   0  0  0  0  0  0  0  0  0  0  0  0
   36.4910   31.6770   47.4010 H   0  0  0  0  0  0  0  0  0  0  0  0
   38.2370   31.9060   46.3300 N   0  0  0  0  0  0  0  0  0  0  0  0
   39.3630   32.4970   46.6870 C   0  0  0  0  0  0  0  0  0  0  0  0
   40.1360   33.3020   45.8990 C   0  0  0  0  0  0  0  0  0  0  0  0
   39.7490   33.5520   44.6080 C   0  0  0  0  0  0  0  0  0  0  0  0
   40.3940   34.2770   43.8140 O   0  0  0  0  0  0  0  0  0  0  0  0
   38.6260   32.9800   44.2040 N   0  0  0  0  0  0  0  0  0  0  0  0
   37.9100   32.1970   45.0310 C   0  0  0  0  0  0  0  0  0  0  0  0
   36.8460   31.7010   44.5270 O   0  0  0  0  0  0  0  0  0  0  0  0
   38.3080   33.1510   43.2250 H   0  0  0  0  0  0  0  0  0  0  0  0
  1  3  1  0  0  0  0
  1  6  1  0  0  0  0
  2  1  1  0  0  0  0
  4  9  1  0  0  0  0
  5  6  1  0  0  0  0
  5  4  2  0  0  0  0
  6  7  2  0  0  0  0
  7  8  1  0  0  0  0
  8 12  1  0  0  0  0
  9  8  2  0  0  0  0
 10  4  1  0  0  0  0
 11  5  1  0  0  0  0
 13 15  1  0  0  0  0
 13  1  1  0  0  0  0
 14 13  1  0  0  0  0
 16 17  1  0  0  0  0
 16 13  1  0  0  0  0
 18 17  2  0  0  0  0
 19 18  1  0  0  0  0
 20 19  2  0  0  0  0
 21 19  1  0  0  0  0
 21 22  1  0  0  0  0
 22 16  1  0  0  0  0
 23 22  2  0  0  0  0
 24 21  1  0  0  0  0
M  END
>  <minimizedAffinity>
-4.65804768

>  <minimizedRMSD>
3.83884263

$$$$
