
 OpenBabel03252512453D

 33 35  0  0  1  0  0  0  0  0999 V2000
   39.6570   30.4800   44.4480 C   0  0  2  0  0  0  0  0  0  0  0  0
   40.3210   29.6530   44.6950 H   0  0  0  0  0  0  0  0  0  0  0  0
   38.4180   31.1930   47.8480 C   0  0  0  0  0  0  0  0  0  0  0  0
   38.8420   32.5400   47.9360 C   0  0  0  0  0  0  0  0  0  0  0  0
   39.6640   32.8570   46.3250 S   0  0  0  0  0  0  0  0  0  0  0  0
   39.2770   31.0610   45.8000 C   0  0  0  0  0  0  0  0  0  0  0  0
   38.7430   30.6610   46.6970 N   0  0  0  0  0  0  0  0  0  0  0  0
   38.6910   33.2160   48.8060 H   0  0  0  0  0  0  0  0  0  0  0  0
   38.1040   30.8770   50.2780 C   0  0  0  0  0  0  0  0  0  0  0  0
   37.7050   30.5720   48.9640 C   0  0  0  0  0  0  0  0  0  0  0  0
   36.6410   29.6860   48.8180 C   0  0  0  0  0  0  0  0  0  0  0  0
   36.0580   29.1760   49.9220 N   0  0  0  0  0  0  0  0  0  0  0  0
   36.4610   29.4870   51.1610 C   0  0  0  0  0  0  0  0  0  0  0  0
   37.4840   30.3370   51.3260 N   0  0  0  0  0  0  0  0  0  0  0  0
   38.9160   31.5510   50.4960 H   0  0  0  0  0  0  0  0  0  0  0  0
   36.3660   29.4780   47.7960 H   0  0  0  0  0  0  0  0  0  0  0  0
   35.9420   29.0370   51.9870 H   0  0  0  0  0  0  0  0  0  0  0  0
   40.2990   31.5930   43.6830 C   0  0  0  0  0  0  0  0  0  0  0  0
   41.1310   32.0700   44.2690 H   0  0  0  0  0  0  0  0  0  0  0  0
   39.6130   32.4200   43.4510 H   0  0  0  0  0  0  0  0  0  0  0  0
   40.7540   31.2500   42.7340 H   0  0  0  0  0  0  0  0  0  0  0  0
   38.3830   30.0100   43.7760 C   0  0  0  0  0  0  0  0  0  0  0  0
   37.9540   30.9060   43.2810 H   0  0  0  0  0  0  0  0  0  0  0  0
   37.7020   29.6490   44.5580 H   0  0  0  0  0  0  0  0  0  0  0  0
   38.6930   28.9890   42.8060 N   0  0  0  0  0  0  0  0  0  0  0  0
   39.0880   27.8160   43.3520 C   0  0  0  0  0  0  0  0  0  0  0  0
   39.4350   26.7240   42.5860 C   0  0  0  0  0  0  0  0  0  0  0  0
   39.3660   26.8710   41.2170 C   0  0  0  0  0  0  0  0  0  0  0  0
   39.6810   25.8840   40.4960 O   0  0  0  0  0  0  0  0  0  0  0  0
   38.9720   28.0410   40.6760 N   0  0  0  0  0  0  0  0  0  0  0  0
   38.6450   29.0710   41.4760 C   0  0  0  0  0  0  0  0  0  0  0  0
   38.2810   30.1480   40.9860 O   0  0  0  0  0  0  0  0  0  0  0  0
   38.9220   28.1440   39.6410 H   0  0  0  0  0  0  0  0  0  0  0  0
  1  2  1  1  0  0  0
  1  6  1  0  0  0  0
  3  4  2  0  0  0  0
  3 10  1  0  0  0  0
  4  8  1  0  0  0  0
  5  4  1  0  0  0  0
  6  5  1  0  0  0  0
  6  7  2  0  0  0  0
  7  3  1  0  0  0  0
  9 15  1  0  0  0  0
  9 14  1  0  0  0  0
 10  9  2  0  0  0  0
 11 10  1  0  0  0  0
 11 12  2  0  0  0  0
 12 13  1  0  0  0  0
 13 14  2  0  0  0  0
 13 17  1  0  0  0  0
 16 11  1  0  0  0  0
 18 19  1  0  0  0  0
 18  1  1  0  0  0  0
 20 18  1  0  0  0  0
 21 18  1  0  0  0  0
 22  1  1  0  0  0  0
 22 24  1  0  0  0  0
 23 22  1  0  0  0  0
 25 26  1  0  0  0  0
 25 22  1  0  0  0  0
 27 26  2  0  0  0  0
 28 27  1  0  0  0  0
 29 28  2  0  0  0  0
 30 28  1  0  0  0  0
 30 31  1  0  0  0  0
 31 25  1  0  0  0  0
 32 31  2  0  0  0  0
 33 30  1  0  0  0  0
M  END
>  <minimizedAffinity>
-5.40607023

>  <minimizedRMSD>
1.29066646

$$$$
