
 OpenBabel03252511123D

 18 19  0  0  0  0  0  0  0  0999 V2000
   37.3430   31.1920   47.0570 C   0  0  0  0  0  0  0  0  0  0  0  0
   38.3710   31.9730   47.5770 C   0  0  0  0  0  0  0  0  0  0  0  0
   39.3450   32.4590   46.6620 C   0  0  0  0  0  0  0  0  0  0  0  0
   39.1920   32.1200   45.3490 N   0  0  0  0  0  0  0  0  0  0  0  0
   38.1810   31.3620   44.9050 C   0  0  0  0  0  0  0  0  0  0  0  0
   37.2520   30.8910   45.7350 N   0  0  0  0  0  0  0  0  0  0  0  0
   38.4420   32.2100   48.6220 H   0  0  0  0  0  0  0  0  0  0  0  0
   40.1490   33.0630   47.0230 H   0  0  0  0  0  0  0  0  0  0  0  0
   38.0650   31.0960   43.8630 H   0  0  0  0  0  0  0  0  0  0  0  0
   36.3630   30.7060   47.9980 C   0  0  0  0  0  0  0  0  0  0  0  0
   35.1250   30.5620   47.7560 O   0  0  0  0  0  0  0  0  0  0  0  0
   37.4600   30.8780   52.4590 H   0  0  0  0  0  0  0  0  0  0  0  0
   37.2550   30.4980   51.4990 N   0  0  0  0  0  0  0  0  0  0  0  0
   36.9190   31.1650   50.3980 N   0  0  0  0  0  0  0  0  0  0  0  0
   36.7370   30.3260   49.3620 C   0  0  0  0  0  0  0  0  0  0  0  0
   36.9870   29.0840   49.9070 C   0  0  0  0  0  0  0  0  0  0  0  0
   37.3110   29.1810   51.2420 C   0  0  0  0  0  0  0  0  0  0  0  0
   37.5500   28.3540   51.8940 H   0  0  0  0  0  0  0  0  0  0  0  0
  1  2  1  0  0  0  0
  1 10  1  0  0  0  0
  2  7  1  0  0  0  0
  3  8  1  0  0  0  0
  3  2  2  0  0  0  0
  4  3  1  0  0  0  0
  5  4  2  0  0  0  0
  5  6  1  0  0  0  0
  6  1  2  0  0  0  0
  9  5  1  0  0  0  0
 10 15  1  0  0  0  0
 11 10  2  0  0  0  0
 13 12  1  0  0  0  0
 14 13  1  0  0  0  0
 15 16  1  0  0  0  0
 15 14  2  0  0  0  0
 16 17  2  0  0  0  0
 17 13  1  0  0  0  0
 17 18  1  0  0  0  0
M  END
>  <minimizedAffinity>
-4.08977652

>  <minimizedRMSD>
3.20840812

$$$$
