
 OpenBabel03252514073D

 43 46  0  0  0  0  0  0  0  0999 V2000
   34.2490   30.0720   47.6020 C   0  0  0  0  0  0  0  0  0  0  0  0
   35.2720   29.8280   48.5530 C   0  0  0  0  0  0  0  0  0  0  0  0
   35.2390   28.6030   49.2010 C   0  0  0  0  0  0  0  0  0  0  0  0
   34.2630   27.7120   48.9110 N   0  0  0  0  0  0  0  0  0  0  0  0
   33.3000   27.9640   48.0010 C   0  0  0  0  0  0  0  0  0  0  0  0
   33.3060   29.1310   47.3650 N   0  0  0  0  0  0  0  0  0  0  0  0
   34.2140   31.0070   47.0610 H   0  0  0  0  0  0  0  0  0  0  0  0
   36.0230   28.4420   49.9160 H   0  0  0  0  0  0  0  0  0  0  0  0
   36.2440   30.8470   48.7570 N   0  0  0  0  0  0  0  0  0  0  0  0
   36.3810   31.5420   49.9000 C   0  0  0  0  0  0  0  0  0  0  0  0
   37.3940   32.4270   49.7500 N   0  0  0  0  0  0  0  0  0  0  0  0
   37.8720   32.2600   48.5000 C   0  0  0  0  0  0  0  0  0  0  0  0
   38.8850   32.8610   47.7750 C   0  0  0  0  0  0  0  0  0  0  0  0
   39.1620   32.4990   46.5160 N   0  0  0  0  0  0  0  0  0  0  0  0
   38.4600   31.5270   45.8930 C   0  0  0  0  0  0  0  0  0  0  0  0
   37.4760   30.9440   46.5990 N   0  0  0  0  0  0  0  0  0  0  0  0
   37.1590   31.2690   47.8610 C   0  0  0  0  0  0  0  0  0  0  0  0
   35.7800   31.4130   50.7850 H   0  0  0  0  0  0  0  0  0  0  0  0
   38.6880   31.2410   44.8810 H   0  0  0  0  0  0  0  0  0  0  0  0
   39.6530   33.8880   48.3790 N   0  0  0  0  0  0  0  0  0  0  0  0
   39.4160   34.9040   48.3200 H   0  0  0  0  0  0  0  0  0  0  0  0
   40.5210   33.8650   48.9510 H   0  0  0  0  0  0  0  0  0  0  0  0
   32.2500   26.9720   47.6820 C   0  0  0  0  0  0  0  0  0  0  0  0
   31.0590   27.1870   48.6280 C   0  0  0  0  0  0  0  0  0  0  0  0
   30.8720   28.2820   48.7100 H   0  0  0  0  0  0  0  0  0  0  0  0
   30.1320   26.7510   48.1970 H   0  0  0  0  0  0  0  0  0  0  0  0
   31.2580   26.7760   49.6230 H   0  0  0  0  0  0  0  0  0  0  0  0
   31.6690   27.2530   46.2950 C   0  0  0  0  0  0  0  0  0  0  0  0
   31.2140   28.2890   46.3130 H   0  0  0  0  0  0  0  0  0  0  0  0
   30.8370   26.5930   46.0490 H   0  0  0  0  0  0  0  0  0  0  0  0
   32.4260   27.2000   45.4950 H   0  0  0  0  0  0  0  0  0  0  0  0
   32.6980   25.5650   47.7290 C   0  0  0  0  0  0  0  0  0  0  0  0
   31.8080   24.9500   48.0610 H   0  0  0  0  0  0  0  0  0  0  0  0
   33.4020   25.4750   48.6000 H   0  0  0  0  0  0  0  0  0  0  0  0
   33.1920   24.9580   46.5560 N   0  0  0  0  0  0  0  0  0  0  0  0
   34.3920   25.1900   45.9950 C   0  0  0  0  0  3  0  0  0  0  0  0
   34.8940   24.6140   44.8520 C   0  0  0  0  0  3  0  0  0  0  0  0
   34.0970   23.6920   44.1910 C   0  0  0  0  0  0  0  0  0  0  0  0
   34.5060   23.1430   43.1520 O   0  0  0  0  0  0  0  0  0  0  0  0
   32.8970   23.4300   44.7120 N   0  0  0  0  0  0  0  0  0  0  0  0
   32.4810   24.0390   45.8360 C   0  0  0  0  0  0  0  0  0  0  0  0
   31.3310   23.6800   46.1950 O   0  0  0  0  0  0  0  0  0  0  0  0
   32.3350   22.7400   44.1910 H   0  0  0  0  0  0  0  0  0  0  0  0
  1  2  1  0  0  0  0
  2  9  1  0  0  0  0
  2  3  2  0  0  0  0
  3  8  1  0  0  0  0
  4  3  1  0  0  0  0
  5  4  2  0  0  0  0
  6  1  2  0  0  0  0
  6  5  1  0  0  0  0
  7  1  1  0  0  0  0
  9 10  1  0  0  0  0
 10 18  1  0  0  0  0
 11 10  2  0  0  0  0
 12 11  1  0  0  0  0
 13 20  1  0  0  0  0
 13 12  2  0  0  0  0
 14 13  1  0  0  0  0
 15 14  2  0  0  0  0
 15 16  1  0  0  0  0
 16 17  2  0  0  0  0
 17 12  1  0  0  0  0
 17  9  1  0  0  0  0
 19 15  1  0  0  0  0
 20 22  1  0  0  0  0
 21 20  1  0  0  0  0
 23 32  1  0  0  0  0
 23  5  1  0  0  0  0
 23 24  1  0  0  0  0
 24 25  1  0  0  0  0
 24 27  1  0  0  0  0
 26 24  1  0  0  0  0
 28 29  1  0  0  0  0
 28 23  1  0  0  0  0
 30 28  1  0  0  0  0
 31 28  1  0  0  0  0
 32 33  1  0  0  0  0
 32 34  1  0  0  0  0
 35 32  1  0  0  0  0
 36 35  1  0  0  0  0
 37 36  2  0  0  0  0
 38 40  1  0  0  0  0
 38 37  1  0  0  0  0
 39 38  2  0  0  0  0
 40 41  1  0  0  0  0
 41 42  2  0  0  0  0
 41 35  1  0  0  0  0
 43 40  1  0  0  0  0
M  END
>  <minimizedAffinity>
-5.40748835

>  <minimizedRMSD>
1.67261767

$$$$
