REMARK  Name = 
REMARK  3 active torsions:
REMARK  status: ('A' for Active; 'I' for Inactive)
REMARK    1  A    between atoms: N_1  and  C_11
REMARK    2  A    between atoms: C_14  and  C_23
REMARK    3  A    between atoms: C_23  and  C_24
REMARK                            x       y       z     vdW  Elec       q    Type
REMARK                         _______ _______ _______ _____ _____    ______ ____
ROOT
ATOM      1  N   UNL     1      37.804  31.823  49.069  0.00  0.00    +0.000 N 
ATOM      2  C   UNL     1      38.199  33.033  49.474  0.00  0.00    +0.000 A 
ATOM      3  N   UNL     1      38.949  33.593  48.488  0.00  0.00    +0.000 NA
ATOM      4  C   UNL     1      39.003  32.708  47.482  0.00  0.00    +0.000 A 
ATOM      5  C   UNL     1      39.609  32.727  46.247  0.00  0.00    +0.000 A 
ATOM      6  N   UNL     1      39.499  31.669  45.407  0.00  0.00    +0.000 NA
ATOM      7  C   UNL     1      38.793  30.557  45.745  0.00  0.00    +0.000 A 
ATOM      8  N   UNL     1      38.215  30.574  46.959  0.00  0.00    +0.000 NA
ATOM      9  C   UNL     1      38.291  31.590  47.826  0.00  0.00    +0.000 A 
ATOM     10  N   UNL     1      40.354  33.831  45.820  0.00  0.00    +0.000 N 
ATOM     11  H   UNL     1      37.961  33.495  50.433  0.00  0.00    +0.000 HD
ATOM     12  H   UNL     1      38.689  29.698  45.093  0.00  0.00    +0.000 HD
ATOM     13  H   UNL     1      41.395  33.684  45.963  0.00  0.00    +0.000 HD
ATOM     14  H   UNL     1      39.690  34.563  45.448  0.00  0.00    +0.000 HD
ENDROOT
BRANCH   1  16
ATOM     15  C   UNL     1      35.684  30.663  49.395  0.00  0.00    +0.000 A 
ATOM     16  C   UNL     1      36.998  30.933  49.838  0.00  0.00    +0.000 A 
ATOM     17  C   UNL     1      37.406  30.300  51.005  0.00  0.00    +0.000 A 
ATOM     18  N   UNL     1      36.548  29.465  51.661  0.00  0.00    +0.000 NA
ATOM     19  C   UNL     1      35.295  29.239  51.193  0.00  0.00    +0.000 A 
ATOM     20  N   UNL     1      34.872  29.833  50.072  0.00  0.00    +0.000 NA
ATOM     21  H   UNL     1      35.259  31.098  48.500  0.00  0.00    +0.000 HD
ATOM     22  H   UNL     1      38.407  30.508  51.340  0.00  0.00    +0.000 HD
BRANCH  19  23
ATOM     23  C   UNL     1      34.363  28.322  51.920  0.00  0.00    +0.000 C 
BRANCH  23  24
ATOM     24  C   UNL     1      35.001  27.748  53.147  0.00  0.00    +0.000 C 
ATOM     25  H   UNL     1      34.458  28.107  54.044  0.00  0.00    +0.000 HD
ENDBRANCH  23  24
ENDBRANCH  19  23
ENDBRANCH   1  16
TORSDOF 3
