REMARK  Name = 
REMARK  7 active torsions:
REMARK  status: ('A' for Active; 'I' for Inactive)
REMARK    1  A    between atoms: C_1  and  C_4
REMARK    2  A    between atoms: C_3  and  C_11
REMARK    3  A    between atoms: C_4  and  C_9
REMARK    4  A    between atoms: C_11  and  O_13
REMARK    5  A    between atoms: O_13  and  C_14
REMARK    6  A    between atoms: C_17  and  C_30
REMARK    7  A    between atoms: C_30  and  C_31
REMARK                            x       y       z     vdW  Elec       q    Type
REMARK                         _______ _______ _______ _____ _____    ______ ____
ROOT
ATOM      1  C   UNL     1      35.292  29.417  48.985  0.00  0.00    +0.000 C 
ATOM      2  C   UNL     1      34.190  29.358  49.940  0.00  0.00    +0.000 C 
ATOM      3  C   UNL     1      34.527  28.100  49.343  0.00  0.00    +0.000 C 
ATOM      4  H   UNL     1      35.194  29.781  47.945  0.00  0.00    +0.000 HD
ATOM      5  H   UNL     1      33.262  29.934  49.664  0.00  0.00    +0.000 HD
ATOM      6  H   UNL     1      34.444  29.579  51.016  0.00  0.00    +0.000 HD
ATOM      7  H   UNL     1      35.177  27.339  49.771  0.00  0.00    +0.000 HD
ENDROOT
BRANCH   1   8
ATOM      8  C   UNL     1      36.708  29.386  49.583  0.00  0.00    +0.000 C 
ATOM      9  H   UNL     1      37.146  28.431  49.206  0.00  0.00    +0.000 HD
ATOM     10  H   UNL     1      36.639  29.313  50.679  0.00  0.00    +0.000 HD
BRANCH   8  15
ATOM     11  C   UNL     1      38.080  32.768  49.443  0.00  0.00    +0.000 A 
ATOM     12  C   UNL     1      38.761  32.771  48.207  0.00  0.00    +0.000 A 
ATOM     13  C   UNL     1      38.730  31.585  47.437  0.00  0.00    +0.000 A 
ATOM     14  N   UNL     1      38.045  30.509  47.936  0.00  0.00    +0.000 NA
ATOM     15  C   UNL     1      37.417  30.566  49.118  0.00  0.00    +0.000 A 
ATOM     16  N   UNL     1      37.444  31.702  49.859  0.00  0.00    +0.000 NA
ATOM     17  H   UNL     1      38.125  33.695  50.007  0.00  0.00    +0.000 HD
ATOM     18  H   UNL     1      39.306  33.627  47.809  0.00  0.00    +0.000 HD
ATOM     19  H   UNL     1      39.231  31.529  46.486  0.00  0.00    +0.000 HD
ENDBRANCH   8  15
ENDBRANCH   1   8
BRANCH   3  20
ATOM     20  C   UNL     1      33.559  27.596  48.293  0.00  0.00    +0.000 C 
ATOM     21  O   UNL     1      33.904  26.451  47.796  0.00  0.00    +0.000 OA
BRANCH  20  22
ATOM     22  O   UNL     1      32.395  28.241  47.865  0.00  0.00    +0.000 OA
BRANCH  22  23
ATOM     23  C   UNL     1      31.141  27.833  48.212  0.00  0.00    +0.000 A 
ATOM     24  C   UNL     1      30.621  27.829  49.592  0.00  0.00    +0.000 A 
ATOM     25  C   UNL     1      29.354  27.403  49.830  0.00  0.00    +0.000 A 
ATOM     26  C   UNL     1      28.542  26.964  48.747  0.00  0.00    +0.000 A 
ATOM     27  S   UNL     1      29.649  27.167  47.265  0.00  0.00    +0.000 S 
ATOM     28  H   UNL     1      31.272  28.169  50.379  0.00  0.00    +0.000 HD
ATOM     29  H   UNL     1      28.894  27.367  50.799  0.00  0.00    +0.000 HD
BRANCH  26  30
ATOM     30  C   UNL     1      27.233  26.479  48.669  0.00  0.00    +0.000 C 
BRANCH  30  31
ATOM     31  C   UNL     1      27.035  25.513  47.534  0.00  0.00    +0.000 C 
ATOM     32  H   UNL     1      26.702  26.028  46.587  0.00  0.00    +0.000 HD
ENDBRANCH  30  31
ENDBRANCH  26  30
ENDBRANCH  22  23
ENDBRANCH  20  22
ENDBRANCH   3  20
TORSDOF 7
