
     RDKit          3D

 36 38  0  0  0  0  0  0  0  0999 V2000
   35.2921   29.4174   48.9853 C   0  0  2  0  0  0  0  0  0  0  0  0
   34.1902   29.3585   49.9403 C   0  0  0  0  0  0  0  0  0  0  0  0
   34.5274   28.0999   49.3435 C   0  0  1  0  0  0  0  0  0  0  0  0
   36.7080   29.3858   49.5825 C   0  0  0  0  0  0  0  0  0  0  0  0
   38.0804   32.7683   49.4431 C   0  0  0  0  0  0  0  0  0  0  0  0
   38.7605   32.7712   48.2066 C   0  0  0  0  0  0  0  0  0  0  0  0
   38.7302   31.5852   47.4367 C   0  0  0  0  0  0  0  0  0  0  0  0
   38.0448   30.5091   47.9360 N   0  0  0  0  0  0  0  0  0  0  0  0
   37.4174   30.5656   49.1176 C   0  0  0  0  0  0  0  0  0  0  0  0
   37.4443   31.7020   49.8594 N   0  0  0  0  0  0  0  0  0  0  0  0
   33.5588   27.5962   48.2934 C   0  0  0  0  0  0  0  0  0  0  0  0
   33.9038   26.4513   47.7962 O   0  0  0  0  0  0  0  0  0  0  0  0
   32.3946   28.2406   47.8649 O   0  0  0  0  0  0  0  0  0  0  0  0
   31.1413   27.8330   48.2116 C   0  0  0  0  0  0  0  0  0  0  0  0
   30.6209   27.8289   49.5921 C   0  0  0  0  0  0  0  0  0  0  0  0
   29.3541   27.4029   49.8295 C   0  0  0  0  0  0  0  0  0  0  0  0
   28.5419   26.9641   48.7472 C   0  0  0  0  0  0  0  0  0  0  0  0
   29.6494   27.1671   47.2651 S   0  0  0  0  0  0  0  0  0  0  0  0
   35.1941   29.7812   47.9454 H   0  0  0  0  0  0  0  0  0  0  0  0
   33.2619   29.9342   49.6637 H   0  0  0  0  0  0  0  0  0  0  0  0
   34.4444   29.5795   51.0156 H   0  0  0  0  0  0  0  0  0  0  0  0
   35.1774   27.3392   49.7709 H   0  0  0  0  0  0  0  0  0  0  0  0
   37.1459   28.4308   49.2058 H   0  0  0  0  0  0  0  0  0  0  0  0
   36.6389   29.3133   50.6791 H   0  0  0  0  0  0  0  0  0  0  0  0
   38.1251   33.6951   50.0065 H   0  0  0  0  0  0  0  0  0  0  0  0
   39.3059   33.6272   47.8089 H   0  0  0  0  0  0  0  0  0  0  0  0
   39.2307   31.5288   46.4862 H   0  0  0  0  0  0  0  0  0  0  0  0
   31.2717   28.1688   50.3788 H   0  0  0  0  0  0  0  0  0  0  0  0
   28.8939   27.3667   50.7988 H   0  0  0  0  0  0  0  0  0  0  0  0
   27.2333   26.4792   48.6688 C   0  0  0  0  0  0  0  0  0  0  0  0
   27.0355   25.5132   47.5336 C   0  0  0  0  0  0  0  0  0  0  0  0
   26.7019   26.0279   46.5874 H   0  0  0  0  0  0  0  0  0  0  0  0
   26.9679   25.9269   49.6185 H   0  0  0  0  0  0  0  0  0  0  0  0
   26.4977   27.2982   48.6032 H   0  0  0  0  0  0  0  0  0  0  0  0
   27.8982   24.8636   47.3505 H   0  0  0  0  0  0  0  0  0  0  0  0
   26.1631   24.8618   47.7999 H   0  0  0  0  0  0  0  0  0  0  0  0
  1  3  1  0
  1  4  1  0
  1  2  1  0
  3  2  1  0
  5 10  2  0
  6  5  1  0
  7  8  1  0
  7  6  2  0
  8  9  2  0
  9  4  1  0
  9 10  1  0
 11  3  1  0
 12 11  2  0
 13 14  1  0
 13 11  1  0
 14 15  2  0
 15 16  1  0
 17 16  2  0
 18 14  1  0
 18 17  1  0
  1 19  1  6
  2 20  1  0
  2 21  1  0
  3 22  1  1
  4 23  1  0
  4 24  1  0
  5 25  1  0
  6 26  1  0
  7 27  1  0
 15 28  1  0
 16 29  1  0
 30 31  1  0
 31 32  1  0
 30 33  1  0
 30 34  1  0
 31 35  1  0
 31 36  1  0
 17 30  1  0
M  ISO  8  19  13  20  13  21  13  22  13  23   8  24   8  25  14  26  14
M  ISO  4  27  14  28  14  29  14  32   8
M  END
>  <DihAtoms>  (1) 
15,16,29,30

>  <DihDeg>  (1) 
90.01054259659281

$$$$
