
 OpenBabel03252513243D

 25 26  0  0  0  0  0  0  0  0999 V2000
   32.8500   27.8550   48.5740 C   0  0  0  0  0  0  0  0  0  0  0  0
   31.7390   28.2300   49.2660 C   0  0  0  0  0  0  0  0  0  0  0  0
   30.5190   27.5840   49.1920 C   0  0  0  0  0  0  0  0  0  0  0  0
   30.4710   26.4900   48.3460 C   0  0  0  0  0  0  0  0  0  0  0  0
   31.5700   26.0740   47.6270 C   0  0  0  0  0  0  0  0  0  0  0  0
   32.7650   26.7560   47.7360 C   0  0  0  0  0  0  0  0  0  0  0  0
   31.7960   29.1000   49.9310 H   0  0  0  0  0  0  0  0  0  0  0  0
   29.6920   27.9540   49.7800 H   0  0  0  0  0  0  0  0  0  0  0  0
   29.5230   25.9760   48.2810 H   0  0  0  0  0  0  0  0  0  0  0  0
   31.4660   25.2110   46.9830 H   0  0  0  0  0  0  0  0  0  0  0  0
   36.1700   28.9570   49.6840 C   0  0  0  0  0  0  0  0  0  0  0  0
   36.4540   30.0090   48.7870 C   0  0  0  0  0  0  0  0  0  0  0  0
   35.4930   30.3050   47.8290 C   0  0  0  0  0  0  0  0  0  0  0  0
   34.3280   29.5730   47.7960 N   0  0  0  0  0  0  0  0  0  0  0  0
   34.1100   28.5700   48.6870 C   0  0  0  0  0  0  0  0  0  0  0  0
   35.0220   28.2810   49.6060 N   0  0  0  0  0  0  0  0  0  0  0  0
   36.9210   28.7270   50.4340 H   0  0  0  0  0  0  0  0  0  0  0  0
   35.6480   31.1070   47.1030 H   0  0  0  0  0  0  0  0  0  0  0  0
   37.7130   30.7910   48.8310 C   0  0  0  0  0  0  0  0  0  0  0  0
   38.5350   30.5690   47.7620 F   0  0  0  0  0  0  0  0  0  0  0  0
   38.4440   30.5100   49.9690 F   0  0  0  0  0  0  0  0  0  0  0  0
   37.4160   32.1590   48.8450 F   0  0  0  0  0  0  0  0  0  0  0  0
   33.9620   26.3560   46.9940 C   0  0  0  0  0  0  0  0  0  0  0  0
   34.1000   24.8920   46.7180 C   0  0  0  0  0  0  0  0  0  0  0  0
   34.6310   24.4110   47.5810 H   0  0  0  0  0  0  0  0  0  0  0  0
  1 15  1  0  0  0  0
  1  2  1  0  0  0  0
  2  7  1  0  0  0  0
  3  2  2  0  0  0  0
  3  8  1  0  0  0  0
  4  3  1  0  0  0  0
  5  6  1  0  0  0  0
  5  4  2  0  0  0  0
  6  1  2  0  0  0  0
  9  4  1  0  0  0  0
 10  5  1  0  0  0  0
 11 17  1  0  0  0  0
 12 19  1  0  0  0  0
 12 11  2  0  0  0  0
 13 12  1  0  0  0  0
 14 13  2  0  0  0  0
 14 15  1  0  0  0  0
 15 16  2  0  0  0  0
 16 11  1  0  0  0  0
 18 13  1  0  0  0  0
 19 22  1  0  0  0  0
 19 21  1  0  0  0  0
 20 19  1  0  0  0  0
 23  6  1  0  0  0  0
 24 23  1  0  0  0  0
 24 25  1  0  0  0  0
M  END
>  <minimizedAffinity>
-4.99440813

>  <minimizedRMSD>
1.15647018

$$$$
