
 OpenBabel03252514063D

 25 27  0  0  0  0  0  0  0  0999 V2000
   36.7100   31.2240   48.7730 N   0  0  0  0  0  0  0  0  0  0  0  0
   36.8160   32.0700   49.8010 C   0  0  0  0  0  0  0  0  0  0  0  0
   37.8140   32.9530   49.5300 N   0  0  0  0  0  0  0  0  0  0  0  0
   38.3100   32.6310   48.3270 C   0  0  0  0  0  0  0  0  0  0  0  0
   39.3150   33.1640   47.5530 C   0  0  0  0  0  0  0  0  0  0  0  0
   39.6150   32.6280   46.3450 N   0  0  0  0  0  0  0  0  0  0  0  0
   38.9440   31.5520   45.8530 C   0  0  0  0  0  0  0  0  0  0  0  0
   37.9700   31.0580   46.6360 N   0  0  0  0  0  0  0  0  0  0  0  0
   37.6320   31.5490   47.8340 C   0  0  0  0  0  0  0  0  0  0  0  0
   40.0550   34.2700   47.9830 N   0  0  0  0  0  0  0  0  0  0  0  0
   36.2070   32.0570   50.7060 H   0  0  0  0  0  0  0  0  0  0  0  0
   39.1640   31.1040   44.8910 H   0  0  0  0  0  0  0  0  0  0  0  0
   40.9840   33.9830   48.4080 H   0  0  0  0  0  0  0  0  0  0  0  0
   39.5030   35.1470   47.7780 H   0  0  0  0  0  0  0  0  0  0  0  0
   34.7090   30.2580   47.7700 C   0  0  0  0  0  0  0  0  0  0  0  0
   35.7700   30.1550   48.6970 C   0  0  0  0  0  0  0  0  0  0  0  0
   35.8140   29.0020   49.4700 C   0  0  0  0  0  0  0  0  0  0  0  0
   34.8590   28.0400   49.3110 N   0  0  0  0  0  0  0  0  0  0  0  0
   33.8590   28.1880   48.4060 C   0  0  0  0  0  0  0  0  0  0  0  0
   33.7890   29.2860   47.6460 N   0  0  0  0  0  0  0  0  0  0  0  0
   34.5740   31.1090   47.1150 H   0  0  0  0  0  0  0  0  0  0  0  0
   36.6240   28.9260   50.1750 H   0  0  0  0  0  0  0  0  0  0  0  0
   32.8170   27.1270   48.2400 C   0  0  0  0  0  2  0  0  0  0  0  0
   31.4630   27.6160   48.6550 C   0  0  0  0  0  2  0  0  0  0  0  0
   30.7940   27.6320   47.7740 H   0  0  0  0  0  0  0  0  0  0  0  0
  1  2  1  0  0  0  0
  2 11  1  0  0  0  0
  3  2  2  0  0  0  0
  4  3  1  0  0  0  0
  5 10  1  0  0  0  0
  5  4  2  0  0  0  0
  6  5  1  0  0  0  0
  7  6  2  0  0  0  0
  7  8  1  0  0  0  0
  8  9  2  0  0  0  0
  9  4  1  0  0  0  0
  9  1  1  0  0  0  0
 10 13  1  0  0  0  0
 12  7  1  0  0  0  0
 14 10  1  0  0  0  0
 15 16  1  0  0  0  0
 16  1  1  0  0  0  0
 16 17  2  0  0  0  0
 17 22  1  0  0  0  0
 18 17  1  0  0  0  0
 19 18  2  0  0  0  0
 20 15  2  0  0  0  0
 20 19  1  0  0  0  0
 21 15  1  0  0  0  0
 23 19  1  0  0  0  0
 23 24  1  0  0  0  0
 25 24  1  0  0  0  0
M  END
>  <minimizedAffinity>
-5.45628452

>  <minimizedRMSD>
2.36420846

$$$$
