
 OpenBabel03252511143D

 30 32  0  0  1  0  0  0  0  0999 V2000
   37.7560   31.1560   49.0740 C   0  0  0  0  0  0  0  0  0  0  0  0
   38.2600   31.0230   50.2980 N   0  0  0  0  0  0  0  0  0  0  0  0
   37.6810   30.2560   51.2590 C   0  0  0  0  0  0  0  0  0  0  0  0
   36.5560   29.5770   51.0410 N   0  0  0  0  0  0  0  0  0  0  0  0
   35.9660   29.6470   49.8370 C   0  0  0  0  0  0  0  0  0  0  0  0
   34.8030   28.9560   49.5580 C   0  0  0  0  0  0  0  0  0  0  0  0
   34.1950   29.0110   48.3430 C   0  0  0  0  0  0  0  0  0  0  0  0
   34.8050   29.7990   47.3990 C   0  0  0  0  0  0  0  0  0  0  0  0
   35.9630   30.4790   47.6900 C   0  0  0  0  0  0  0  0  0  0  0  0
   36.5920   30.4390   48.8970 C   0  0  0  0  0  0  0  0  0  0  0  0
   38.1810   30.2140   52.2400 H   0  0  0  0  0  0  0  0  0  0  0  0
   34.3910   28.3570   50.3700 H   0  0  0  0  0  0  0  0  0  0  0  0
   33.2870   28.4490   48.1830 H   0  0  0  0  0  0  0  0  0  0  0  0
   34.3400   29.8680   46.4060 H   0  0  0  0  0  0  0  0  0  0  0  0
   36.4330   31.1080   46.9090 H   0  0  0  0  0  0  0  0  0  0  0  0
   38.4640   31.9920   48.1080 C   0  0  1  0  0  0  0  0  0  0  0  0
   39.5380   32.0410   48.6030 H   0  0  0  0  0  0  0  0  0  0  0  0
   38.9620   31.7650   46.7820 C   0  0  0  0  0  0  0  0  0  0  0  0
   39.8500   32.7820   46.3940 C   0  0  0  0  0  0  0  0  0  0  0  0
   40.5690   32.6630   45.1520 C   0  0  0  0  0  0  0  0  0  0  0  0
   40.3180   31.5400   44.4360 N   0  0  0  0  0  0  0  0  0  0  0  0
   39.4460   30.5810   44.8470 C   0  0  0  0  0  0  0  0  0  0  0  0
   38.7870   30.6870   45.9850 N   0  0  0  0  0  0  0  0  0  0  0  0
   40.0820   33.6830   46.9190 H   0  0  0  0  0  0  0  0  0  0  0  0
   41.2560   33.4360   44.8400 H   0  0  0  0  0  0  0  0  0  0  0  0
   39.1950   29.3610   44.0320 C   0  0  0  0  0  0  0  0  0  0  0  0
   37.7540   29.4080   43.5240 C   0  0  0  0  0  0  0  0  0  0  0  0
   37.2390   28.4260   43.6720 H   0  0  0  0  0  0  0  0  0  0  0  0
   38.1620   33.2240   48.5160 O   0  0  0  0  0  0  0  0  0  0  0  0
   38.1630   33.3600   49.4760 H   0  0  0  0  0  0  0  0  0  0  0  0
  1  2  1  0  0  0  0
  2  3  2  0  0  0  0
  3 11  1  0  0  0  0
  4  3  1  0  0  0  0
  5  4  2  0  0  0  0
  6  5  1  0  0  0  0
  6 12  1  0  0  0  0
  7  6  2  0  0  0  0
  8  9  2  0  0  0  0
  8  7  1  0  0  0  0
  9 10  1  0  0  0  0
 10  1  2  0  0  0  0
 10  5  1  0  0  0  0
 13  7  1  0  0  0  0
 14  8  1  0  0  0  0
 15  9  1  0  0  0  0
 16 29  1  0  0  0  0
 16 17  1  1  0  0  0
 16  1  1  0  0  0  0
 18 16  1  0  0  0  0
 19 18  1  0  0  0  0
 19 24  1  0  0  0  0
 20 19  2  0  0  0  0
 21 22  2  0  0  0  0
 21 20  1  0  0  0  0
 22 23  1  0  0  0  0
 23 18  2  0  0  0  0
 25 20  1  0  0  0  0
 26 22  1  0  0  0  0
 27 28  1  0  0  0  0
 27 26  1  0  0  0  0
 29 30  1  0  0  0  0
M  END
>  <minimizedAffinity>
-6.70780277

>  <minimizedRMSD>
0.468975544

$$$$
