
 OpenBabel03252514033D

 32 34  0  0  1  0  0  0  0  0999 V2000
   35.2600   29.4260   48.9700 C   0  0  2  0  0  0  0  0  0  0  0  0
   34.1430   29.3190   49.9030 C   0  0  0  0  0  0  0  0  0  0  0  0
   34.5220   28.0830   49.2860 C   0  0  1  0  0  0  0  0  0  0  0  0
   35.1720   29.8090   47.9360 H   0  0  0  0  0  0  0  0  0  0  0  0
   33.2060   29.8780   49.6220 H   0  0  0  0  0  0  0  0  0  0  0  0
   34.3710   29.5240   50.9880 H   0  0  0  0  0  0  0  0  0  0  0  0
   35.1830   27.3300   49.7100 H   0  0  0  0  0  0  0  0  0  0  0  0
   36.6650   29.4180   49.5930 C   0  0  0  0  0  0  0  0  0  0  0  0
   37.1290   28.4750   49.2160 H   0  0  0  0  0  0  0  0  0  0  0  0
   36.5780   29.3340   50.6870 H   0  0  0  0  0  0  0  0  0  0  0  0
   37.8950   32.8540   49.4590 C   0  0  0  0  0  0  0  0  0  0  0  0
   38.6780   32.8530   48.2850 C   0  0  0  0  0  0  0  0  0  0  0  0
   38.7640   31.6460   47.5540 C   0  0  0  0  0  0  0  0  0  0  0  0
   38.0870   30.5540   48.0280 N   0  0  0  0  0  0  0  0  0  0  0  0
   37.3590   30.6160   49.1510 C   0  0  0  0  0  0  0  0  0  0  0  0
   37.2740   31.7720   49.8550 N   0  0  0  0  0  0  0  0  0  0  0  0
   37.8520   33.7980   49.9950 H   0  0  0  0  0  0  0  0  0  0  0  0
   39.2170   33.7220   47.9060 H   0  0  0  0  0  0  0  0  0  0  0  0
   39.3450   31.5860   46.6500 H   0  0  0  0  0  0  0  0  0  0  0  0
   33.5860   27.5770   48.2080 C   0  0  0  0  0  0  0  0  0  0  0  0
   33.9310   26.4190   47.7430 O   0  0  0  0  0  0  0  0  0  0  0  0
   32.4510   28.2340   47.7260 O   0  0  0  0  0  0  0  0  0  0  0  0
   31.1780   27.8740   48.0590 C   0  0  0  0  0  0  0  0  0  0  0  0
   30.7190   27.6280   49.4390 C   0  0  0  0  0  0  0  0  0  0  0  0
   29.4280   27.2740   49.6630 C   0  0  0  0  0  0  0  0  0  0  0  0
   28.5310   27.1440   48.5650 C   0  0  0  0  0  0  0  0  0  0  0  0
   29.5890   27.5540   47.0900 S   0  0  0  0  0  0  0  0  0  0  0  0
   31.4330   27.7380   50.2370 H   0  0  0  0  0  0  0  0  0  0  0  0
   29.0080   27.0770   50.6310 H   0  0  0  0  0  0  0  0  0  0  0  0
   27.1790   26.8020   48.4710 C   0  0  0  0  0  0  0  0  0  0  0  0
   26.2660   27.9860   48.6350 C   0  0  0  0  0  0  0  0  0  0  0  0
   25.9570   28.1430   49.7080 H   0  0  0  0  0  0  0  0  0  0  0  0
  1  4  1  6  0  0  0
  1  3  1  0  0  0  0
  1  8  1  0  0  0  0
  1  2  1  0  0  0  0
  2  6  1  0  0  0  0
  3  7  1  1  0  0  0
  3  2  1  0  0  0  0
  5  2  1  0  0  0  0
  8 10  1  0  0  0  0
  9  8  1  0  0  0  0
 11 16  1  0  0  0  0
 11 17  1  0  0  0  0
 12 11  2  0  0  0  0
 13 14  2  0  0  0  0
 13 12  1  0  0  0  0
 14 15  1  0  0  0  0
 15  8  1  0  0  0  0
 15 16  2  0  0  0  0
 18 12  1  0  0  0  0
 19 13  1  0  0  0  0
 20  3  1  0  0  0  0
 21 20  2  0  0  0  0
 22 23  1  0  0  0  0
 22 20  1  0  0  0  0
 23 24  2  0  0  0  0
 24 25  1  0  0  0  0
 24 28  1  0  0  0  0
 25 29  1  0  0  0  0
 26 25  2  0  0  0  0
 27 23  1  0  0  0  0
 27 26  1  0  0  0  0
 30 26  1  0  0  0  0
 30 31  1  0  0  0  0
 31 32  1  0  0  0  0
M  END
>  <minimizedAffinity>
-5.66201925

>  <minimizedRMSD>
0.254064143

$$$$
