
 OpenBabel03252512593D

 37 40  0  0  0  0  0  0  0  0999 V2000
   38.3370   32.6920   49.6670 C   0  0  0  0  0  0  0  0  0  0  0  0
   38.9710   33.1030   48.4730 C   0  0  0  0  0  0  0  0  0  0  0  0
   38.6270   32.4330   47.2960 C   0  0  0  0  0  0  0  0  0  0  0  0
   37.7010   31.4140   47.3280 N   0  0  0  0  0  0  0  0  0  0  0  0
   37.1300   31.0660   48.5030 C   0  0  0  0  0  0  0  0  0  0  0  0
   37.4320   31.6880   49.6680 N   0  0  0  0  0  0  0  0  0  0  0  0
   36.1820   30.0120   48.4900 N   0  0  0  0  0  0  0  0  0  0  0  0
   35.1640   29.9910   47.4620 C   0  0  0  0  0  0  0  0  0  0  0  0
   33.8320   29.9050   48.2030 C   0  0  0  0  0  0  0  0  0  0  0  0
   33.8600   28.9930   49.2390 O   0  0  0  0  0  0  0  0  0  0  0  0
   34.9520   28.1190   49.1800 C   0  0  0  0  0  0  0  0  0  0  0  0
   36.2040   28.9510   49.4800 C   0  0  0  0  0  0  0  0  0  0  0  0
   38.6110   33.2200   50.5840 H   0  0  0  0  0  0  0  0  0  0  0  0
   39.6920   33.8940   48.4340 H   0  0  0  0  0  0  0  0  0  0  0  0
   35.1520   30.9530   46.9050 H   0  0  0  0  0  0  0  0  0  0  0  0
   35.2830   29.1730   46.7280 H   0  0  0  0  0  0  0  0  0  0  0  0
   33.1110   29.4810   47.4490 H   0  0  0  0  0  0  0  0  0  0  0  0
   33.4400   30.8870   48.4810 H   0  0  0  0  0  0  0  0  0  0  0  0
   35.0340   27.7130   48.1490 H   0  0  0  0  0  0  0  0  0  0  0  0
   34.7980   27.3470   49.9370 H   0  0  0  0  0  0  0  0  0  0  0  0
   37.0830   28.2800   49.3530 H   0  0  0  0  0  0  0  0  0  0  0  0
   36.0960   29.3110   50.5140 H   0  0  0  0  0  0  0  0  0  0  0  0
   39.2310   32.7890   46.0100 C   0  0  0  0  0  0  0  0  0  0  0  0
   40.1560   33.6990   45.6570 N   0  0  0  0  0  0  0  0  0  0  0  0
   40.3650   33.6330   44.3790 O   0  0  0  0  0  0  0  0  0  0  0  0
   39.5950   32.6960   43.8810 C   0  0  0  0  0  0  0  0  0  0  0  0
   38.8640   32.1400   44.8810 N   0  0  0  0  0  0  0  0  0  0  0  0
   39.4860   32.2700   42.5180 N   0  0  0  0  0  0  0  0  0  0  0  0
   39.0070   33.0710   41.5750 N   0  0  0  0  0  0  0  0  0  0  0  0
   39.0140   32.4310   40.3960 C   0  0  0  0  0  0  0  0  0  0  0  0
   39.5260   31.1700   40.6430 C   0  0  0  0  0  0  0  0  0  0  0  0
   39.8180   31.0920   41.9970 C   0  0  0  0  0  0  0  0  0  0  0  0
   38.6950   32.7850   39.4380 H   0  0  0  0  0  0  0  0  0  0  0  0
   39.7070   30.3340   39.9940 H   0  0  0  0  0  0  0  0  0  0  0  0
   40.3900   29.9950   42.8570 C   0  0  0  0  0  0  0  0  0  0  0  0
   41.4380   29.2270   42.1240 C   0  0  0  0  0  0  0  0  0  0  0  0
   41.1920   29.2170   41.0400 H   0  0  0  0  0  0  0  0  0  0  0  0
  1  6  1  0  0  0  0
  1 13  1  0  0  0  0
  2  1  2  0  0  0  0
  3  4  2  0  0  0  0
  3  2  1  0  0  0  0
  4  5  1  0  0  0  0
  5  6  2  0  0  0  0
  7  5  1  0  0  0  0
  7 12  1  0  0  0  0
  8  9  1  0  0  0  0
  8  7  1  0  0  0  0
  9 18  1  0  0  0  0
  9 10  1  0  0  0  0
 11 10  1  0  0  0  0
 11 12  1  0  0  0  0
 11 20  1  0  0  0  0
 12 22  1  0  0  0  0
 14  2  1  0  0  0  0
 15  8  1  0  0  0  0
 16  8  1  0  0  0  0
 17  9  1  0  0  0  0
 19 11  1  0  0  0  0
 21 12  1  0  0  0  0
 23  3  1  0  0  0  0
 24 23  2  0  0  0  0
 25 24  1  0  0  0  0
 26 25  1  0  0  0  0
 26 27  2  0  0  0  0
 27 23  1  0  0  0  0
 28 26  1  0  0  0  0
 29 28  1  0  0  0  0
 30 31  1  0  0  0  0
 30 29  2  0  0  0  0
 31 32  2  0  0  0  0
 32 28  1  0  0  0  0
 32 35  1  0  0  0  0
 33 30  1  0  0  0  0
 34 31  1  0  0  0  0
 36 35  1  0  0  0  0
 37 36  1  0  0  0  0
M  END
>  <minimizedAffinity>
-6.35667562

>  <minimizedRMSD>
1.06278276

$$$$
