
     RDKit          3D

 42 45  0  0  0  0  0  0  0  0999 V2000
   36.4203   30.9614   48.7367 N   0  0  0  0  0  0  0  0  0  0  0  0
   36.3946   31.7290   49.8640 C   0  0  0  0  0  0  0  0  0  0  0  0
   37.3715   32.6606   49.7827 N   0  0  0  0  0  0  0  0  0  0  0  0
   37.9880   32.4596   48.6109 C   0  0  0  0  0  0  0  0  0  0  0  0
   39.0449   33.0800   47.9725 C   0  0  0  0  0  0  0  0  0  0  0  0
   39.4753   32.6710   46.7727 N   0  0  0  0  0  0  0  0  0  0  0  0
   38.8947   31.6213   46.1165 C   0  0  0  0  0  0  0  0  0  0  0  0
   37.8661   31.0242   46.7473 N   0  0  0  0  0  0  0  0  0  0  0  0
   37.4029   31.3981   47.9444 C   0  0  0  0  0  0  0  0  0  0  0  0
   39.6859   34.1717   48.6016 N   0  0  0  0  0  0  0  0  0  0  0  0
   34.6596   29.9802   47.3931 C   0  0  0  0  0  0  0  0  0  0  0  0
   35.5287   29.8900   48.4970 C   0  0  0  0  0  0  0  0  0  0  0  0
   35.4297   28.7349   49.2655 C   0  0  0  0  0  0  0  0  0  0  0  0
   34.5316   27.7792   48.9296 N   0  0  0  0  0  0  0  0  0  0  0  0
   33.7177   27.8837   47.8803 C   0  0  0  0  0  0  0  0  0  0  0  0
   33.7909   28.9938   47.1156 N   0  0  0  0  0  0  0  0  0  0  0  0
   32.7300   26.8574   47.4924 C   0  0  0  0  0  0  0  0  0  0  0  0
   31.5386   26.9052   48.4331 C   0  0  0  0  0  0  0  0  0  0  0  0
   32.1618   27.1105   46.1048 C   0  0  0  0  0  0  0  0  0  0  0  0
   33.3282   25.4684   47.4692 C   0  0  0  0  0  0  0  0  0  0  0  0
   35.7549   31.6965   50.7376 H   0  0  0  0  0  0  0  0  0  0  0  0
   39.3025   31.3639   45.1646 H   0  0  0  0  0  0  0  0  0  0  0  0
   39.2132   34.9336   49.1389 H   0  0  0  0  0  0  0  0  0  0  0  0
   40.7271   34.3133   48.5809 H   0  0  0  0  0  0  0  0  0  0  0  0
   34.7075   30.8684   46.7685 H   0  0  0  0  0  0  0  0  0  0  0  0
   36.0913   28.6556   50.1141 H   0  0  0  0  0  0  0  0  0  0  0  0
   30.6630   27.4198   48.0034 H   0  0  0  0  0  0  0  0  0  0  0  0
   31.8877   27.3747   49.3782 H   0  0  0  0  0  0  0  0  0  0  0  0
   31.2748   25.8458   48.7026 H   0  0  0  0  0  0  0  0  0  0  0  0
   32.9445   27.1802   45.3243 H   0  0  0  0  0  0  0  0  0  0  0  0
   31.6547   28.1103   46.0935 H   0  0  0  0  0  0  0  0  0  0  0  0
   31.4130   26.3405   45.9063 H   0  0  0  0  0  0  0  0  0  0  0  0
   32.5747   24.6857   47.3159 H   0  0  0  0  0  0  0  0  0  0  0  0
   33.7899   25.3150   48.4780 H   0  0  0  0  0  0  0  0  0  0  0  0
   34.4226   25.3827   46.5262 N   0  0  0  0  0  0  0  0  0  0  0  0
   34.6676   24.6503   45.4311 C   0  0  0  0  0  0  0  0  0  0  0  0
   35.9080   24.9897   44.9034 C   0  0  0  0  0  0  0  0  0  0  0  0
   36.4115   25.9575   45.7183 N   0  0  0  0  0  0  0  0  0  0  0  0
   35.5142   26.1771   46.6765 C   0  0  0  0  0  0  0  0  0  0  0  0
   33.9478   23.9266   45.0842 H   0  0  0  0  0  0  0  0  0  0  0  0
   36.3276   24.5250   44.0066 H   0  0  0  0  0  0  0  0  0  0  0  0
   35.7500   26.9291   47.4284 H   0  0  0  0  0  0  0  0  0  0  0  0
  1  2  1  0
  3  2  2  0
  4  3  1  0
  5 10  1  0
  5  4  2  0
  6  5  1  0
  7  8  1  0
  7  6  2  0
  8  9  2  0
  9  4  1  0
  9  1  1  0
 11 12  2  0
 12  1  1  0
 12 13  1  0
 14 13  2  0
 15 14  1  0
 16 11  1  0
 16 15  2  0
 17 15  1  0
 17 18  1  0
 19 17  1  0
 20 17  1  0
  2 21  1  0
  7 22  1  0
 10 23  1  0
 10 24  1  0
 11 25  1  0
 13 26  1  0
 18 27  1  0
 18 28  1  0
 18 29  1  0
 19 30  1  0
 19 31  1  0
 19 32  1  0
 20 33  1  0
 20 34  1  0
 35 36  1  0
 36 37  2  0
 37 38  1  0
 38 39  2  0
 39 35  1  0
 36 40  1  0
 37 41  1  0
 39 42  1  0
 20 35  1  0
M  ISO  8  21  14  22  14  25  14  26  14  27   8  28   8  29   8  30   8
M  ISO  4  31   8  32   8  33   8  34   8
M  END
>  <DihAtoms>  (1) 
16,19,34,35

>  <DihDeg>  (1) 
89.99947827421805

$$$$
