
 OpenBabel03252513333D

 16 16  0  0  0  0  0  0  0  0999 V2000
   37.6210   30.3410   49.8830 C   0  0  0  0  0  0  0  0  0  0  0  0
   38.1590   31.6250   50.0950 C   0  0  0  0  0  0  0  0  0  0  0  0
   38.5310   32.3640   48.9740 C   0  0  0  0  0  0  0  0  0  0  0  0
   38.3550   31.8070   47.7440 N   0  0  0  0  0  0  0  0  0  0  0  0
   37.8330   30.5650   47.5820 C   0  0  0  0  0  0  0  0  0  0  0  0
   37.4760   29.8550   48.6560 N   0  0  0  0  0  0  0  0  0  0  0  0
   38.2860   32.0390   51.0740 H   0  0  0  0  0  0  0  0  0  0  0  0
   37.7490   30.2450   46.5510 H   0  0  0  0  0  0  0  0  0  0  0  0
   37.2140   29.5300   51.0750 C   0  0  0  0  0  0  0  0  0  0  0  0
   35.8420   29.3860   51.1010 F   0  0  0  0  0  0  0  0  0  0  0  0
   37.8970   28.3510   51.0550 F   0  0  0  0  0  0  0  0  0  0  0  0
   37.5660   30.2690   52.2130 F   0  0  0  0  0  0  0  0  0  0  0  0
   39.1030   33.7240   49.1580 C   0  0  0  0  0  0  0  0  0  0  0  0
   39.8130   33.8510   50.3410 F   0  0  0  0  0  0  0  0  0  0  0  0
   38.0580   34.6430   49.0900 F   0  0  0  0  0  0  0  0  0  0  0  0
   39.9320   34.0610   48.0800 F   0  0  0  0  0  0  0  0  0  0  0  0
  1  2  1  0  0  0  0
  1  9  1  0  0  0  0
  2  7  1  0  0  0  0
  3 13  1  0  0  0  0
  3  2  2  0  0  0  0
  4  3  1  0  0  0  0
  5  4  2  0  0  0  0
  5  6  1  0  0  0  0
  6  1  2  0  0  0  0
  8  5  1  0  0  0  0
  9 10  1  0  0  0  0
  9 12  1  0  0  0  0
 11  9  1  0  0  0  0
 13 14  1  0  0  0  0
 15 13  1  0  0  0  0
 16 13  1  0  0  0  0
M  END
>  <minimizedAffinity>
-5.5335536

>  <minimizedRMSD>
0.863222897

$$$$
