
 OpenBabel03252511573D

 32 34  0  0  0  0  0  0  0  0999 V2000
   36.4370   30.2710   47.2520 N   0  0  0  0  0  0  0  0  0  0  0  0
   35.1720   30.0600   46.8090 C   0  0  0  0  0  0  0  0  0  0  0  0
   34.8670   30.1170   45.4630 C   0  0  0  0  0  0  0  0  0  0  0  0
   35.9300   30.3960   44.6500 C   0  0  0  0  0  0  0  0  0  0  0  0
   35.6890   30.4570   43.3980 O   0  0  0  0  0  0  0  0  0  0  0  0
   37.2060   30.6140   45.0240 N   0  0  0  0  0  0  0  0  0  0  0  0
   37.4060   30.5360   46.3670 C   0  0  0  0  0  0  0  0  0  0  0  0
   38.5610   30.7240   46.7900 O   0  0  0  0  0  0  0  0  0  0  0  0
   34.3800   29.8420   47.5240 H   0  0  0  0  0  0  0  0  0  0  0  0
   33.8790   29.9510   45.1250 H   0  0  0  0  0  0  0  0  0  0  0  0
   36.9250   31.4550   49.2250 C   0  0  0  0  0  0  0  0  0  0  0  0
   36.6610   30.1990   48.6240 C   0  0  0  0  0  0  0  0  0  0  0  0
   36.6700   29.0830   49.4360 C   0  0  0  0  0  0  0  0  0  0  0  0
   36.9290   29.2350   50.7640 N   0  0  0  0  0  0  0  0  0  0  0  0
   37.1790   30.4470   51.3150 C   0  0  0  0  0  0  0  0  0  0  0  0
   37.1740   31.5650   50.5240 N   0  0  0  0  0  0  0  0  0  0  0  0
   36.9710   32.4750   48.8750 H   0  0  0  0  0  0  0  0  0  0  0  0
   36.4630   28.1540   48.9270 H   0  0  0  0  0  0  0  0  0  0  0  0
   37.3540   30.3130   52.3660 H   0  0  0  0  0  0  0  0  0  0  0  0
   38.2010   30.8970   44.0860 C   0  0  0  0  0  0  0  0  0  0  0  0
   38.5710   32.1470   43.6190 C   0  0  0  0  0  0  0  0  0  0  0  0
   39.5590   32.3410   42.6980 C   0  0  0  0  0  0  0  0  0  0  0  0
   40.2370   31.2480   42.1930 C   0  0  0  0  0  0  0  0  0  0  0  0
   39.8540   30.0050   42.6720 C   0  0  0  0  0  0  0  0  0  0  0  0
   38.8680   29.8280   43.5890 N   0  0  0  0  0  0  0  0  0  0  0  0
   38.0220   32.9960   44.0310 H   0  0  0  0  0  0  0  0  0  0  0  0
   39.8450   33.3240   42.3350 H   0  0  0  0  0  0  0  0  0  0  0  0
   41.0280   31.2790   41.4680 H   0  0  0  0  0  0  0  0  0  0  0  0
   40.5590   28.7880   42.1540 C   0  0  0  0  0  0  0  0  0  0  0  0
   41.9280   28.9620   42.3070 F   0  0  0  0  0  0  0  0  0  0  0  0
   40.2640   28.6200   40.8210 F   0  0  0  0  0  0  0  0  0  0  0  0
   40.1290   27.6550   42.8080 F   0  0  0  0  0  0  0  0  0  0  0  0
  1 12  1  0  0  0  0
  2  1  1  0  0  0  0
  2  9  1  0  0  0  0
  3  2  2  0  0  0  0
  4  6  1  0  0  0  0
  4  3  1  0  0  0  0
  5  4  2  0  0  0  0
  6  7  1  0  0  0  0
  7  8  2  0  0  0  0
  7  1  1  0  0  0  0
 10  3  1  0  0  0  0
 11 16  1  0  0  0  0
 12 11  2  0  0  0  0
 12 13  1  0  0  0  0
 13 14  2  0  0  0  0
 14 15  1  0  0  0  0
 15 19  1  0  0  0  0
 16 15  2  0  0  0  0
 17 11  1  0  0  0  0
 18 13  1  0  0  0  0
 20  6  1  0  0  0  0
 21 26  1  0  0  0  0
 21 20  1  0  0  0  0
 22 21  2  0  0  0  0
 23 24  2  0  0  0  0
 23 22  1  0  0  0  0
 24 25  1  0  0  0  0
 25 20  2  0  0  0  0
 27 22  1  0  0  0  0
 28 23  1  0  0  0  0
 29 30  1  0  0  0  0
 29 24  1  0  0  0  0
 29 32  1  0  0  0  0
 31 29  1  0  0  0  0
M  END
>  <minimizedAffinity>
-5.41539669

>  <minimizedRMSD>
0.72292757

$$$$
