
 OpenBabel03252514033D

 33 35  0  0  1  0  0  0  0  0999 V2000
   35.2610   29.4320   48.9720 C   0  0  2  0  0  0  0  0  0  0  0  0
   34.1380   29.3200   49.8990 C   0  0  0  0  0  0  0  0  0  0  0  0
   34.5210   28.0890   49.2770 C   0  0  1  0  0  0  0  0  0  0  0  0
   35.2120   29.6970   47.9170 H   0  0  0  0  0  0  0  0  0  0  0  0
   33.1900   29.8460   49.5940 H   0  0  0  0  0  0  0  0  0  0  0  0
   34.3490   29.5670   50.9810 H   0  0  0  0  0  0  0  0  0  0  0  0
   35.1790   27.3340   49.7060 H   0  0  0  0  0  0  0  0  0  0  0  0
   36.6630   29.4240   49.6030 C   0  0  0  0  0  0  0  0  0  0  0  0
   36.5520   29.4370   50.7020 H   0  0  0  0  0  0  0  0  0  0  0  0
   37.1790   28.4890   49.2760 H   0  0  0  0  0  0  0  0  0  0  0  0
   37.9020   32.8580   49.4610 C   0  0  0  0  0  0  0  0  0  0  0  0
   38.6810   32.8580   48.2910 C   0  0  0  0  0  0  0  0  0  0  0  0
   38.7640   31.6490   47.5610 C   0  0  0  0  0  0  0  0  0  0  0  0
   38.0860   30.5570   48.0330 N   0  0  0  0  0  0  0  0  0  0  0  0
   37.3620   30.6160   49.1520 C   0  0  0  0  0  0  0  0  0  0  0  0
   37.2750   31.7690   49.8590 N   0  0  0  0  0  0  0  0  0  0  0  0
   37.8400   33.7880   50.0200 H   0  0  0  0  0  0  0  0  0  0  0  0
   39.1900   33.7520   47.9710 H   0  0  0  0  0  0  0  0  0  0  0  0
   39.3590   31.6320   46.6570 H   0  0  0  0  0  0  0  0  0  0  0  0
   33.5920   27.5840   48.1900 C   0  0  0  0  0  0  0  0  0  0  0  0
   33.9250   26.4180   47.7440 O   0  0  0  0  0  0  0  0  0  0  0  0
   32.4760   28.2510   47.6850 O   0  0  0  0  0  0  0  0  0  0  0  0
   31.1920   27.9430   48.0590 C   0  0  0  0  0  0  0  0  0  0  0  0
   30.7440   27.6470   49.4460 C   0  0  0  0  0  0  0  0  0  0  0  0
   29.4370   27.3640   49.6200 C   0  0  0  0  0  0  0  0  0  0  0  0
   28.5160   27.3440   48.5560 C   0  0  0  0  0  0  0  0  0  0  0  0
   29.5730   27.7710   47.0790 S   0  0  0  0  0  0  0  0  0  0  0  0
   31.4880   27.6800   50.1990 H   0  0  0  0  0  0  0  0  0  0  0  0
   29.0250   27.1370   50.5880 H   0  0  0  0  0  0  0  0  0  0  0  0
   27.1720   27.0990   48.4350 C   0  0  0  0  0  0  0  0  0  0  0  0
   26.3830   27.7900   49.3590 F   0  0  0  0  0  0  0  0  0  0  0  0
   26.6780   27.4700   47.1800 F   0  0  0  0  0  0  0  0  0  0  0  0
   26.8980   25.7490   48.5460 F   0  0  0  0  0  0  0  0  0  0  0  0
  1  4  1  6  0  0  0
  1  3  1  0  0  0  0
  1  8  1  0  0  0  0
  1  2  1  0  0  0  0
  2  6  1  0  0  0  0
  3  7  1  1  0  0  0
  3  2  1  0  0  0  0
  5  2  1  0  0  0  0
  8  9  1  0  0  0  0
 10  8  1  0  0  0  0
 11 16  1  0  0  0  0
 11 17  1  0  0  0  0
 12 11  2  0  0  0  0
 13 14  2  0  0  0  0
 13 12  1  0  0  0  0
 14 15  1  0  0  0  0
 15  8  1  0  0  0  0
 15 16  2  0  0  0  0
 18 12  1  0  0  0  0
 19 13  1  0  0  0  0
 20  3  1  0  0  0  0
 21 20  2  0  0  0  0
 22 23  1  0  0  0  0
 22 20  1  0  0  0  0
 23 24  2  0  0  0  0
 24 25  1  0  0  0  0
 24 28  1  0  0  0  0
 25 29  1  0  0  0  0
 26 25  2  0  0  0  0
 27 23  1  0  0  0  0
 27 26  1  0  0  0  0
 30 33  1  0  0  0  0
 30 26  1  0  0  0  0
 30 31  1  0  0  0  0
 32 30  1  0  0  0  0
M  END
>  <minimizedAffinity>
-6.07812405

>  <minimizedRMSD>
0.367417276

$$$$
