
 OpenBabel03252514073D

 39 42  0  0  0  0  0  0  0  0999 V2000
   33.9790   29.8250   47.4590 C   0  0  0  0  0  0  0  0  0  0  0  0
   34.9750   29.5910   48.4260 C   0  0  0  0  0  0  0  0  0  0  0  0
   34.8620   28.4100   49.1520 C   0  0  0  0  0  0  0  0  0  0  0  0
   33.8330   27.5650   48.9060 N   0  0  0  0  0  0  0  0  0  0  0  0
   32.9000   27.8060   47.9850 C   0  0  0  0  0  0  0  0  0  0  0  0
   32.9830   28.9450   47.2650 N   0  0  0  0  0  0  0  0  0  0  0  0
   34.0330   30.7380   46.8720 H   0  0  0  0  0  0  0  0  0  0  0  0
   35.6200   28.2210   49.8950 H   0  0  0  0  0  0  0  0  0  0  0  0
   35.9960   30.5560   48.5830 N   0  0  0  0  0  0  0  0  0  0  0  0
   36.2800   31.1720   49.7660 C   0  0  0  0  0  0  0  0  0  0  0  0
   37.3040   32.0350   49.5780 N   0  0  0  0  0  0  0  0  0  0  0  0
   37.6420   31.9440   48.2850 C   0  0  0  0  0  0  0  0  0  0  0  0
   38.5980   32.5640   47.5040 C   0  0  0  0  0  0  0  0  0  0  0  0
   38.7280   32.2840   46.2020 N   0  0  0  0  0  0  0  0  0  0  0  0
   37.9250   31.3710   45.5760 C   0  0  0  0  0  0  0  0  0  0  0  0
   36.9960   30.7720   46.3450 N   0  0  0  0  0  0  0  0  0  0  0  0
   36.8310   31.0210   47.6480 C   0  0  0  0  0  0  0  0  0  0  0  0
   35.8360   31.0730   50.7500 H   0  0  0  0  0  0  0  0  0  0  0  0
   38.1000   31.2110   44.5360 H   0  0  0  0  0  0  0  0  0  0  0  0
   39.4580   33.5170   48.0960 N   0  0  0  0  0  0  0  0  0  0  0  0
   39.1830   34.2350   48.8040 H   0  0  0  0  0  0  0  0  0  0  0  0
   40.4810   33.5860   47.8650 H   0  0  0  0  0  0  0  0  0  0  0  0
   31.7680   26.9020   47.6970 C   0  0  0  0  0  0  0  0  0  0  0  0
   30.7260   27.0140   48.7960 C   0  0  0  0  0  0  0  0  0  0  0  0
   29.8580   27.6340   48.5130 H   0  0  0  0  0  0  0  0  0  0  0  0
   31.2450   27.3960   49.7010 H   0  0  0  0  0  0  0  0  0  0  0  0
   30.3920   25.9730   49.0560 H   0  0  0  0  0  0  0  0  0  0  0  0
   31.0480   27.2840   46.4140 C   0  0  0  0  0  0  0  0  0  0  0  0
   31.7210   27.3210   45.5350 H   0  0  0  0  0  0  0  0  0  0  0  0
   30.6500   28.3280   46.5130 H   0  0  0  0  0  0  0  0  0  0  0  0
   30.2040   26.6030   46.2900 H   0  0  0  0  0  0  0  0  0  0  0  0
   32.2110   25.4650   47.5350 C   0  0  0  0  0  0  0  0  0  0  0  0
   31.3670   24.7690   47.4590 H   0  0  0  0  0  0  0  0  0  0  0  0
   32.7880   25.2140   48.4610 H   0  0  0  0  0  0  0  0  0  0  0  0
   33.1520   25.3260   46.4430 N   0  0  0  0  0  0  0  0  0  0  0  0
   33.1750   25.7190   45.1630 C   0  0  0  0  0  3  0  0  0  0  0  0
   34.3540   25.3000   44.5610 C   0  0  0  0  0  3  0  0  0  0  0  0
   35.0520   24.6330   45.5230 N   0  0  0  0  0  0  0  0  0  0  0  0
   34.3200   24.6590   46.6340 C   0  0  0  0  0  3  0  0  0  0  0  0
  1  2  1  0  0  0  0
  2  9  1  0  0  0  0
  2  3  2  0  0  0  0
  3  8  1  0  0  0  0
  4  3  1  0  0  0  0
  5  4  2  0  0  0  0
  6  1  2  0  0  0  0
  6  5  1  0  0  0  0
  7  1  1  0  0  0  0
  9 10  1  0  0  0  0
 10 18  1  0  0  0  0
 11 10  2  0  0  0  0
 12 11  1  0  0  0  0
 13 20  1  0  0  0  0
 13 12  2  0  0  0  0
 14 13  1  0  0  0  0
 15 14  2  0  0  0  0
 15 16  1  0  0  0  0
 16 17  2  0  0  0  0
 17 12  1  0  0  0  0
 17  9  1  0  0  0  0
 19 15  1  0  0  0  0
 20 21  1  0  0  0  0
 22 20  1  0  0  0  0
 23  5  1  0  0  0  0
 23 24  1  0  0  0  0
 24 27  1  0  0  0  0
 24 26  1  0  0  0  0
 25 24  1  0  0  0  0
 28 30  1  0  0  0  0
 28 23  1  0  0  0  0
 29 28  1  0  0  0  0
 31 28  1  0  0  0  0
 32 23  1  0  0  0  0
 32 34  1  0  0  0  0
 33 32  1  0  0  0  0
 35 39  1  0  0  0  0
 35 32  1  0  0  0  0
 36 35  1  0  0  0  0
 37 36  2  0  0  0  0
 37 38  1  0  0  0  0
 38 39  2  0  0  0  0
M  END
>  <minimizedAffinity>
-5.19813776

>  <minimizedRMSD>
0.987573802

$$$$
