
 OpenBabel03252513113D

 33 35  0  0  0  0  0  0  0  0999 V2000
   36.3340   30.3120   46.7950 C   0  0  0  0  0  0  0  0  0  0  0  0
   35.0530   30.0060   46.3190 C   0  0  0  0  0  0  0  0  0  0  0  0
   34.0300   29.5100   47.0840 C   0  0  0  0  0  0  0  0  0  0  0  0
   34.2220   29.2800   48.4090 C   0  0  0  0  0  0  0  0  0  0  0  0
   35.4410   29.5530   48.9410 C   0  0  0  0  0  0  0  0  0  0  0  0
   35.6190   29.3150   50.2820 C   0  0  0  0  0  0  0  0  0  0  0  0
   36.8180   29.5630   50.9020 C   0  0  0  0  0  0  0  0  0  0  0  0
   37.8510   30.0660   50.1210 C   0  0  0  0  0  0  0  0  0  0  0  0
   37.6180   30.2840   48.7860 C   0  0  0  0  0  0  0  0  0  0  0  0
   36.4620   30.0540   48.1500 C   0  0  0  0  0  0  0  0  0  0  0  0
   34.8590   30.1770   45.2570 H   0  0  0  0  0  0  0  0  0  0  0  0
   33.0690   29.3070   46.6100 H   0  0  0  0  0  0  0  0  0  0  0  0
   34.8010   28.9210   50.8840 H   0  0  0  0  0  0  0  0  0  0  0  0
   36.9780   29.3820   51.9570 H   0  0  0  0  0  0  0  0  0  0  0  0
   38.7890   30.2540   50.6280 H   0  0  0  0  0  0  0  0  0  0  0  0
   38.4650   30.6820   48.2120 H   0  0  0  0  0  0  0  0  0  0  0  0
   38.2840   30.5680   43.8100 C   0  0  0  0  0  0  0  0  0  0  0  0
   39.2620   31.5360   44.0270 C   0  0  0  0  0  0  0  0  0  0  0  0
   39.2510   32.1350   45.2730 C   0  0  0  0  0  0  0  0  0  0  0  0
   38.3170   31.7360   46.1360 N   0  0  0  0  0  0  0  0  0  0  0  0
   37.3850   30.8310   45.9640 C   0  0  0  0  0  0  0  0  0  0  0  0
   37.4200   30.2750   44.7650 N   0  0  0  0  0  0  0  0  0  0  0  0
   38.3260   30.1200   42.8160 H   0  0  0  0  0  0  0  0  0  0  0  0
   40.0060   31.8480   43.3260 H   0  0  0  0  0  0  0  0  0  0  0  0
   40.2060   33.1880   45.7060 C   0  0  0  0  0  0  0  0  0  0  0  0
   40.0920   34.2980   44.8860 F   0  0  0  0  0  0  0  0  0  0  0  0
   41.5010   32.7370   45.5500 F   0  0  0  0  0  0  0  0  0  0  0  0
   40.0260   33.6090   46.9900 F   0  0  0  0  0  0  0  0  0  0  0  0
   33.1710   28.7790   49.1550 O   0  0  0  0  0  0  0  0  0  0  0  0
   32.2820   27.8520   48.6150 C   0  0  0  0  0  0  0  0  0  0  0  0
   32.8280   26.6560   48.2620 F   0  0  0  0  0  0  0  0  0  0  0  0
   31.3200   27.5800   49.6030 F   0  0  0  0  0  0  0  0  0  0  0  0
   31.6820   28.4800   47.5200 F   0  0  0  0  0  0  0  0  0  0  0  0
  1 10  1  0  0  0  0
  2  1  2  0  0  0  0
  2  3  1  0  0  0  0
  3  4  2  0  0  0  0
  4  5  1  0  0  0  0
  4 29  1  0  0  0  0
  5  6  1  0  0  0  0
  6 13  1  0  0  0  0
  6  7  2  0  0  0  0
  7 14  1  0  0  0  0
  8 15  1  0  0  0  0
  8  7  1  0  0  0  0
  9  8  2  0  0  0  0
 10  9  1  0  0  0  0
 10  5  2  0  0  0  0
 11  2  1  0  0  0  0
 12  3  1  0  0  0  0
 16  9  1  0  0  0  0
 17 18  2  0  0  0  0
 17 22  1  0  0  0  0
 18 19  1  0  0  0  0
 19 25  1  0  0  0  0
 19 20  2  0  0  0  0
 21 20  1  0  0  0  0
 21  1  1  0  0  0  0
 22 21  2  0  0  0  0
 23 17  1  0  0  0  0
 24 18  1  0  0  0  0
 25 28  1  0  0  0  0
 26 25  1  0  0  0  0
 27 25  1  0  0  0  0
 30 29  1  0  0  0  0
 30 32  1  0  0  0  0
 31 30  1  0  0  0  0
 33 30  1  0  0  0  0
M  END
>  <minimizedAffinity>
-7.19591331

>  <minimizedRMSD>
1.57917416

$$$$
