
 OpenBabel03252513513D

 35 36  0  0  1  0  0  0  0  0999 V2000
   39.1400   30.9910   45.3390 C   0  0  0  0  0  0  0  0  0  0  0  0
   40.0320   31.7620   45.7830 O   0  0  0  0  0  0  0  0  0  0  0  0
   39.4010   30.5160   44.0300 N   0  0  0  0  0  0  0  0  0  0  0  0
   39.1750   29.0930   43.8130 C   0  0  0  0  0  0  0  0  0  0  0  0
   39.8610   28.5910   42.5680 C   0  0  0  0  0  0  0  0  0  0  0  0
   41.0250   29.3270   42.3980 O   0  0  0  0  0  0  0  0  0  0  0  0
   40.6120   30.5910   41.8860 C   0  0  0  0  0  0  0  0  0  0  0  0
   39.8640   31.3500   42.9340 C   0  0  1  0  0  0  0  0  0  0  0  0
   38.0780   28.9770   43.6460 H   0  0  0  0  0  0  0  0  0  0  0  0
   39.4160   28.4860   44.7090 H   0  0  0  0  0  0  0  0  0  0  0  0
   40.2020   27.5430   42.7950 H   0  0  0  0  0  0  0  0  0  0  0  0
   39.2090   28.5870   41.6770 H   0  0  0  0  0  0  0  0  0  0  0  0
   41.4360   31.1510   41.4390 H   0  0  0  0  0  0  0  0  0  0  0  0
   39.8490   30.3060   41.1040 H   0  0  0  0  0  0  0  0  0  0  0  0
   40.5680   32.0780   43.4200 H   0  0  0  0  0  0  0  0  0  0  0  0
   36.9730   30.1580   48.3010 C   0  0  0  0  0  0  0  0  0  0  0  0
   38.1420   30.4820   47.5250 C   0  0  0  0  0  0  0  0  0  0  0  0
   37.9870   30.6630   46.1470 C   0  0  0  0  0  0  0  0  0  0  0  0
   36.7400   30.5200   45.6350 N   0  0  0  0  0  0  0  0  0  0  0  0
   35.6800   30.2180   46.3880 C   0  0  0  0  0  0  0  0  0  0  0  0
   35.7900   30.0400   47.6890 N   0  0  0  0  0  0  0  0  0  0  0  0
   39.1210   30.5910   47.9570 H   0  0  0  0  0  0  0  0  0  0  0  0
   34.3930   30.1030   45.6430 C   0  0  0  0  0  0  0  0  0  0  0  0
   34.5220   30.7130   44.3820 F   0  0  0  0  0  0  0  0  0  0  0  0
   34.1220   28.7760   45.3930 F   0  0  0  0  0  0  0  0  0  0  0  0
   33.3220   30.6100   46.3470 F   0  0  0  0  0  0  0  0  0  0  0  0
   37.1430   29.9820   49.6610 O   0  0  0  0  0  0  0  0  0  0  0  0
   37.4460   31.0080   50.5560 C   0  0  0  0  0  0  0  0  0  0  0  0
   38.7950   31.3180   50.5870 F   0  0  0  0  0  0  0  0  0  0  0  0
   36.6920   32.1220   50.4180 F   0  0  0  0  0  0  0  0  0  0  0  0
   37.1340   30.4700   51.8250 F   0  0  0  0  0  0  0  0  0  0  0  0
   38.7610   32.2020   42.3460 C   0  0  0  0  0  0  0  0  0  0  0  0
   38.7040   33.3690   43.0810 F   0  0  0  0  0  0  0  0  0  0  0  0
   39.0250   32.4210   41.0240 F   0  0  0  0  0  0  0  0  0  0  0  0
   37.5320   31.5790   42.4440 F   0  0  0  0  0  0  0  0  0  0  0  0
  1  2  2  0  0  0  0
  1 18  1  0  0  0  0
  3  1  1  0  0  0  0
  4  3  1  0  0  0  0
  4 10  1  0  0  0  0
  5 11  1  0  0  0  0
  5  4  1  0  0  0  0
  6  5  1  0  0  0  0
  7  6  1  0  0  0  0
  7  8  1  0  0  0  0
  8 15  1  1  0  0  0
  8  3  1  0  0  0  0
  9  4  1  0  0  0  0
 12  5  1  0  0  0  0
 13  7  1  0  0  0  0
 14  7  1  0  0  0  0
 16 27  1  0  0  0  0
 17 22  1  0  0  0  0
 17 16  2  0  0  0  0
 18 17  1  0  0  0  0
 19 18  2  0  0  0  0
 19 20  1  0  0  0  0
 20 21  2  0  0  0  0
 21 16  1  0  0  0  0
 23 26  1  0  0  0  0
 23 20  1  0  0  0  0
 24 23  1  0  0  0  0
 25 23  1  0  0  0  0
 27 28  1  0  0  0  0
 28 29  1  0  0  0  0
 28 31  1  0  0  0  0
 30 28  1  0  0  0  0
 32 35  1  0  0  0  0
 32  8  1  0  0  0  0
 32 33  1  0  0  0  0
 34 32  1  0  0  0  0
M  END
>  <minimizedAffinity>
-6.06256056

>  <minimizedRMSD>
2.8373487

$$$$
