
 OpenBabel03252514073D

 39 42  0  0  0  0  0  0  0  0999 V2000
   34.1280   30.0690   47.5340 C   0  0  0  0  0  0  0  0  0  0  0  0
   35.1190   29.8450   48.5080 C   0  0  0  0  0  0  0  0  0  0  0  0
   34.9790   28.6940   49.2760 C   0  0  0  0  0  0  0  0  0  0  0  0
   33.9300   27.8660   49.0610 N   0  0  0  0  0  0  0  0  0  0  0  0
   33.0020   28.0960   48.1330 C   0  0  0  0  0  0  0  0  0  0  0  0
   33.1110   29.2060   47.3720 N   0  0  0  0  0  0  0  0  0  0  0  0
   34.2030   30.9580   46.9140 H   0  0  0  0  0  0  0  0  0  0  0  0
   35.7330   28.5140   50.0250 H   0  0  0  0  0  0  0  0  0  0  0  0
   36.1630   30.7910   48.6300 N   0  0  0  0  0  0  0  0  0  0  0  0
   36.4630   31.4420   49.7900 C   0  0  0  0  0  0  0  0  0  0  0  0
   37.5070   32.2730   49.5710 N   0  0  0  0  0  0  0  0  0  0  0  0
   37.8410   32.1270   48.2820 C   0  0  0  0  0  0  0  0  0  0  0  0
   38.8110   32.6960   47.4780 C   0  0  0  0  0  0  0  0  0  0  0  0
   38.9320   32.3660   46.1880 N   0  0  0  0  0  0  0  0  0  0  0  0
   38.1070   31.4510   45.5950 C   0  0  0  0  0  0  0  0  0  0  0  0
   37.1660   30.9030   46.3850 N   0  0  0  0  0  0  0  0  0  0  0  0
   37.0070   31.2010   47.6790 C   0  0  0  0  0  0  0  0  0  0  0  0
   36.0180   31.3890   50.7770 H   0  0  0  0  0  0  0  0  0  0  0  0
   38.2770   31.2490   44.5610 H   0  0  0  0  0  0  0  0  0  0  0  0
   39.6950   33.6490   48.0360 N   0  0  0  0  0  0  0  0  0  0  0  0
   39.4380   34.3990   48.7180 H   0  0  0  0  0  0  0  0  0  0  0  0
   40.7180   33.6850   47.8010 H   0  0  0  0  0  0  0  0  0  0  0  0
   31.8480   27.2100   47.8780 C   0  0  0  0  0  0  0  0  0  0  0  0
   30.8320   27.3500   48.9980 C   0  0  0  0  0  0  0  0  0  0  0  0
   29.9690   27.9820   48.7280 H   0  0  0  0  0  0  0  0  0  0  0  0
   31.3780   27.7300   49.8880 H   0  0  0  0  0  0  0  0  0  0  0  0
   30.4870   26.3160   49.2750 H   0  0  0  0  0  0  0  0  0  0  0  0
   31.1070   27.5930   46.6070 C   0  0  0  0  0  0  0  0  0  0  0  0
   31.7610   27.6100   45.7140 H   0  0  0  0  0  0  0  0  0  0  0  0
   30.7300   28.6440   46.7050 H   0  0  0  0  0  0  0  0  0  0  0  0
   30.2480   26.9250   46.5080 H   0  0  0  0  0  0  0  0  0  0  0  0
   32.2620   25.7640   47.7190 C   0  0  0  0  0  0  0  0  0  0  0  0
   31.4380   25.0650   47.9070 H   0  0  0  0  0  0  0  0  0  0  0  0
   33.0550   25.5840   48.4890 H   0  0  0  0  0  0  0  0  0  0  0  0
   32.9060   25.5390   46.4420 N   0  0  0  0  0  0  0  0  0  0  0  0
   34.0510   25.9480   45.8800 C   0  0  0  0  0  3  0  0  0  0  0  0
   34.1690   25.4110   44.6030 C   0  0  0  0  0  3  0  0  0  0  0  0
   33.0510   24.6570   44.4070 N   0  0  0  0  0  0  0  0  0  0  0  0
   32.3130   24.7460   45.5120 C   0  0  0  0  0  3  0  0  0  0  0  0
  1  2  1  0  0  0  0
  2  9  1  0  0  0  0
  2  3  2  0  0  0  0
  3  8  1  0  0  0  0
  4  3  1  0  0  0  0
  5  4  2  0  0  0  0
  6  1  2  0  0  0  0
  6  5  1  0  0  0  0
  7  1  1  0  0  0  0
  9 10  1  0  0  0  0
 10 18  1  0  0  0  0
 11 10  2  0  0  0  0
 12 11  1  0  0  0  0
 13 20  1  0  0  0  0
 13 12  2  0  0  0  0
 14 13  1  0  0  0  0
 15 14  2  0  0  0  0
 15 16  1  0  0  0  0
 16 17  2  0  0  0  0
 17 12  1  0  0  0  0
 17  9  1  0  0  0  0
 19 15  1  0  0  0  0
 20 21  1  0  0  0  0
 22 20  1  0  0  0  0
 23  5  1  0  0  0  0
 23 24  1  0  0  0  0
 24 27  1  0  0  0  0
 24 26  1  0  0  0  0
 25 24  1  0  0  0  0
 28 30  1  0  0  0  0
 28 23  1  0  0  0  0
 29 28  1  0  0  0  0
 31 28  1  0  0  0  0
 32 23  1  0  0  0  0
 32 33  1  0  0  0  0
 32 34  1  0  0  0  0
 35 32  1  0  0  0  0
 36 35  1  0  0  0  0
 37 36  2  0  0  0  0
 38 37  1  0  0  0  0
 38 39  2  0  0  0  0
 39 35  1  0  0  0  0
M  END
>  <minimizedAffinity>
-5.13318682

>  <minimizedRMSD>
1.15861619

$$$$
