
 OpenBabel03252511433D

 28 30  0  0  0  0  0  0  0  0999 V2000
   37.6270   31.5650   48.1130 C   0  0  0  0  0  0  0  0  0  0  0  0
   37.5640   32.3940   49.2100 C   0  0  0  0  0  0  0  0  0  0  0  0
   38.4410   33.4720   49.3600 C   0  0  0  0  0  0  0  0  0  0  0  0
   39.3870   33.7080   48.3880 C   0  0  0  0  0  0  0  0  0  0  0  0
   39.4430   32.8680   47.2870 C   0  0  0  0  0  0  0  0  0  0  0  0
   40.3660   33.0270   46.2500 C   0  0  0  0  0  0  0  0  0  0  0  0
   40.3620   32.1460   45.1780 C   0  0  0  0  0  0  0  0  0  0  0  0
   39.4700   31.1010   45.0890 C   0  0  0  0  0  0  0  0  0  0  0  0
   38.5570   30.9410   46.1090 C   0  0  0  0  0  0  0  0  0  0  0  0
   38.5750   31.8160   47.1580 C   0  0  0  0  0  0  0  0  0  0  0  0
   36.8760   32.3240   50.0420 H   0  0  0  0  0  0  0  0  0  0  0  0
   38.4280   34.1450   50.2020 H   0  0  0  0  0  0  0  0  0  0  0  0
   40.0950   34.5280   48.4500 H   0  0  0  0  0  0  0  0  0  0  0  0
   41.0570   33.8520   46.3390 H   0  0  0  0  0  0  0  0  0  0  0  0
   41.0980   32.3220   44.4140 H   0  0  0  0  0  0  0  0  0  0  0  0
   39.5330   30.4670   44.2290 H   0  0  0  0  0  0  0  0  0  0  0  0
   37.8440   30.1040   46.0360 H   0  0  0  0  0  0  0  0  0  0  0  0
   35.5370   30.2830   47.3290 C   0  0  0  0  0  0  0  0  0  0  0  0
   36.6160   30.5240   48.1860 C   0  0  0  0  0  0  0  0  0  0  0  0
   36.7380   29.6230   49.2810 C   0  0  0  0  0  0  0  0  0  0  0  0
   35.8370   28.6180   49.4350 N   0  0  0  0  0  0  0  0  0  0  0  0
   34.8220   28.4460   48.5710 C   0  0  0  0  0  0  0  0  0  0  0  0
   34.6800   29.2770   47.5290 N   0  0  0  0  0  0  0  0  0  0  0  0
   35.5330   31.0220   46.5280 H   0  0  0  0  0  0  0  0  0  0  0  0
   37.5110   29.6550   50.0460 H   0  0  0  0  0  0  0  0  0  0  0  0
   33.7990   27.3700   48.6760 C   0  0  0  0  0  0  0  0  0  0  0  0
   32.3970   27.9910   48.7230 C   0  0  0  0  0  0  0  0  0  0  0  0
   33.8170   26.4700   47.4580 C   0  0  0  0  0  0  0  0  0  0  0  0
  1 19  1  0  0  0  0
  1  2  1  0  0  0  0
  2  3  2  0  0  0  0
  2 11  1  0  0  0  0
  3 12  1  0  0  0  0
  4 13  1  0  0  0  0
  4  3  1  0  0  0  0
  5  4  2  0  0  0  0
  6 14  1  0  0  0  0
  6  5  1  0  0  0  0
  7  6  2  0  0  0  0
  8  7  1  0  0  0  0
  8  9  2  0  0  0  0
  9 10  1  0  0  0  0
 10  5  1  0  0  0  0
 10  1  2  0  0  0  0
 15  7  1  0  0  0  0
 16  8  1  0  0  0  0
 17  9  1  0  0  0  0
 18 23  2  0  0  0  0
 18 19  1  0  0  0  0
 19 20  2  0  0  0  0
 20 21  1  0  0  0  0
 20 25  1  0  0  0  0
 22 26  1  0  0  0  0
 22 21  2  0  0  0  0
 23 22  1  0  0  0  0
 24 18  1  0  0  0  0
 26 27  1  0  0  0  0
 28 26  1  0  0  0  0
M  END
>  <minimizedAffinity>
-6.631217

>  <minimizedRMSD>
2.01208591

$$$$
