
 OpenBabel03252512073D

 38 40  0  0  0  0  0  0  0  0999 V2000
   36.9700   30.5510   50.1950 C   0  0  0  0  0  0  0  0  0  0  0  0
   36.8450   30.6500   51.3120 H   0  0  0  0  0  0  0  0  0  0  0  0
   37.8950   29.9510   50.0830 H   0  0  0  0  0  0  0  0  0  0  0  0
   35.6330   28.5400   49.7540 C   0  0  0  0  0  0  0  0  0  0  0  0
   35.8330   29.9250   49.6380 C   0  0  0  0  0  0  0  0  0  0  0  0
   34.8850   30.6360   48.9410 C   0  0  0  0  0  0  0  0  0  0  0  0
   33.8150   30.0020   48.3960 N   0  0  0  0  0  0  0  0  0  0  0  0
   33.6450   28.6870   48.5170 C   0  0  0  0  0  0  0  0  0  0  0  0
   34.5410   27.9970   49.1800 N   0  0  0  0  0  0  0  0  0  0  0  0
   36.3450   27.9070   50.2960 H   0  0  0  0  0  0  0  0  0  0  0  0
   34.8750   31.6930   48.7590 H   0  0  0  0  0  0  0  0  0  0  0  0
   32.4840   28.0100   47.9270 C   0  0  0  0  0  0  0  0  0  0  0  0
   32.0740   28.2980   46.7780 O   0  0  0  0  0  0  0  0  0  0  0  0
   31.8010   27.0250   48.6210 O   0  0  0  0  0  0  0  0  0  0  0  0
   30.4040   27.1610   48.7590 C   0  0  0  0  0  0  0  0  0  0  0  0
   29.3120   26.7570   47.8800 C   0  0  0  0  0  0  0  0  0  0  0  0
   27.8190   27.3470   48.8870 S   0  0  0  0  0  0  0  0  0  0  0  0
   28.9930   27.9900   50.2330 C   0  0  0  0  0  0  0  0  0  0  0  0
   28.0250   28.3850   50.9100 H   0  0  0  0  0  0  0  0  0  0  0  0
   30.0340   27.7600   49.8830 N   0  0  0  0  0  0  0  0  0  0  0  0
   37.2240   31.8880   49.6230 C   0  0  0  0  0  0  0  0  0  0  0  0
   37.9640   32.3980   50.3200 H   0  0  0  0  0  0  0  0  0  0  0  0
   36.3950   32.5850   49.5480 H   0  0  0  0  0  0  0  0  0  0  0  0
   37.9700   31.7100   48.3550 C   0  0  0  0  0  0  0  0  0  0  0  0
   37.9250   30.5270   47.7060 C   0  0  0  0  0  0  0  0  0  0  0  0
   38.6650   30.3550   46.5360 C   0  0  0  0  0  0  0  0  0  0  0  0
   39.4070   31.4030   46.0920 N   0  0  0  0  0  0  0  0  0  0  0  0
   39.4330   32.5530   46.7440 C   0  0  0  0  0  0  0  0  0  0  0  0
   38.7300   32.7390   47.8730 N   0  0  0  0  0  0  0  0  0  0  0  0
   37.4550   29.5840   47.8150 H   0  0  0  0  0  0  0  0  0  0  0  0
   38.7770   29.4970   45.8610 H   0  0  0  0  0  0  0  0  0  0  0  0
   40.2310   33.6930   46.2340 C   0  0  0  0  0  0  0  0  0  0  0  0
   39.7560   34.6540   46.5520 H   0  0  0  0  0  0  0  0  0  0  0  0
   41.2810   33.5910   46.5310 H   0  0  0  0  0  0  0  0  0  0  0  0
   40.1410   33.7360   44.6910 C   0  0  0  0  0  0  0  0  0  0  0  0
   39.1890   34.2070   44.3810 H   0  0  0  0  0  0  0  0  0  0  0  0
   40.1010   32.6910   44.3150 H   0  0  0  0  0  0  0  0  0  0  0  0
   40.9840   34.3170   44.2960 H   0  0  0  0  0  0  0  0  0  0  0  0
  1  2  1  0  0  0  0
  3  1  1  0  0  0  0
  4 10  1  0  0  0  0
  5  4  1  0  0  0  0
  5  1  1  0  0  0  0
  6  5  2  0  0  0  0
  7  8  2  0  0  0  0
  7  6  1  0  0  0  0
  8  9  1  0  0  0  0
  9  4  2  0  0  0  0
 11  6  1  0  0  0  0
 12  8  1  0  0  0  0
 12 14  1  0  0  0  0
 13 12  2  0  0  0  0
 14 15  1  0  0  0  0
 15 20  1  0  0  0  0
 16 15  2  0  0  0  0
 16 17  1  0  0  0  0
 17 18  1  0  0  0  0
 18 19  1  0  0  0  0
 20 18  2  0  0  0  0
 21  1  1  0  0  0  0
 21 22  1  0  0  0  0
 23 21  1  0  0  0  0
 24 21  1  0  0  0  0
 25 30  1  0  0  0  0
 25 24  2  0  0  0  0
 26 25  1  0  0  0  0
 27 26  2  0  0  0  0
 27 28  1  0  0  0  0
 28 29  2  0  0  0  0
 29 24  1  0  0  0  0
 31 26  1  0  0  0  0
 32 34  1  0  0  0  0
 32 33  1  0  0  0  0
 32 28  1  0  0  0  0
 35 32  1  0  0  0  0
 36 35  1  0  0  0  0
 37 35  1  0  0  0  0
 38 35  1  0  0  0  0
M  END
>  <minimizedAffinity>
-5.44721317

>  <minimizedRMSD>
1.22568846

$$$$
