
 OpenBabel03252514083D

 44 47  0  0  0  0  0  0  0  0999 V2000
   34.5290   29.8240   47.1580 C   0  0  0  0  0  0  0  0  0  0  0  0
   35.2940   29.6840   48.3260 C   0  0  0  0  0  0  0  0  0  0  0  0
   35.1090   28.5140   49.0380 C   0  0  0  0  0  0  0  0  0  0  0  0
   34.2340   27.5840   48.6040 N   0  0  0  0  0  0  0  0  0  0  0  0
   33.5130   27.7530   47.4740 C   0  0  0  0  0  0  0  0  0  0  0  0
   33.6680   28.8680   46.7670 N   0  0  0  0  0  0  0  0  0  0  0  0
   34.5860   30.6980   46.5160 H   0  0  0  0  0  0  0  0  0  0  0  0
   35.6910   28.3880   49.9400 H   0  0  0  0  0  0  0  0  0  0  0  0
   36.1800   30.7340   48.6760 N   0  0  0  0  0  0  0  0  0  0  0  0
   36.1310   31.4140   49.8530 C   0  0  0  0  0  0  0  0  0  0  0  0
   37.1190   32.3410   49.8480 N   0  0  0  0  0  0  0  0  0  0  0  0
   37.7620   32.2280   48.6830 C   0  0  0  0  0  0  0  0  0  0  0  0
   38.8340   32.8900   48.1200 C   0  0  0  0  0  0  0  0  0  0  0  0
   39.2940   32.5740   46.9080 N   0  0  0  0  0  0  0  0  0  0  0  0
   38.7270   31.5800   46.1600 C   0  0  0  0  0  0  0  0  0  0  0  0
   37.6820   30.9430   46.7230 N   0  0  0  0  0  0  0  0  0  0  0  0
   37.1880   31.2240   47.9320 C   0  0  0  0  0  0  0  0  0  0  0  0
   35.4510   31.2900   50.6890 H   0  0  0  0  0  0  0  0  0  0  0  0
   39.1050   31.3250   45.1700 H   0  0  0  0  0  0  0  0  0  0  0  0
   39.4640   33.9310   48.8470 N   0  0  0  0  0  0  0  0  0  0  0  0
   39.1970   34.1830   49.8240 H   0  0  0  0  0  0  0  0  0  0  0  0
   40.2340   34.5020   48.4310 H   0  0  0  0  0  0  0  0  0  0  0  0
   32.5390   26.7320   46.9790 C   0  0  0  0  0  0  0  0  0  0  0  0
   31.6440   26.3020   48.1550 C   0  0  0  0  0  0  0  0  0  0  0  0
   31.2490   27.1830   48.6790 H   0  0  0  0  0  0  0  0  0  0  0  0
   32.2470   25.7360   48.9020 H   0  0  0  0  0  0  0  0  0  0  0  0
   30.7940   25.7150   47.8070 H   0  0  0  0  0  0  0  0  0  0  0  0
   31.5940   27.3450   45.9730 C   0  0  0  0  0  0  0  0  0  0  0  0
   31.1280   28.2720   46.4120 H   0  0  0  0  0  0  0  0  0  0  0  0
   30.7830   26.6440   45.7470 H   0  0  0  0  0  0  0  0  0  0  0  0
   32.0920   27.6960   45.0460 H   0  0  0  0  0  0  0  0  0  0  0  0
   33.2030   25.5500   46.3670 C   0  0  0  0  0  0  0  0  0  0  0  0
   33.5150   25.7420   45.3090 H   0  0  0  0  0  0  0  0  0  0  0  0
   34.1750   25.3790   46.9090 H   0  0  0  0  0  0  0  0  0  0  0  0
   32.4380   24.3260   46.4380 N   0  0  0  0  0  0  0  0  0  0  0  0
   31.3740   24.2150   45.5940 C   0  0  0  0  0  3  0  0  0  0  0  0
   30.5460   23.1160   45.5240 C   0  0  0  0  0  0  0  0  0  0  0  0
   29.4010   23.0790   44.5690 C   0  0  0  0  0  1  0  0  0  0  0  0
   30.8000   22.0520   46.3550 C   0  0  0  0  0  0  0  0  0  0  0  0
   30.0590   21.0350   46.3120 O   0  0  0  0  0  0  0  0  0  0  0  0
   31.8460   22.1850   47.1710 N   0  0  0  0  0  0  0  0  0  0  0  0
   32.6440   23.2590   47.2300 C   0  0  0  0  0  0  0  0  0  0  0  0
   33.6010   23.3260   48.0090 O   0  0  0  0  0  0  0  0  0  0  0  0
   32.0890   21.4110   47.8250 H   0  0  0  0  0  0  0  0  0  0  0  0
  1  2  1  0  0  0  0
  2  9  1  0  0  0  0
  2  3  2  0  0  0  0
  3  8  1  0  0  0  0
  4  3  1  0  0  0  0
  5  4  2  0  0  0  0
  6  1  2  0  0  0  0
  6  5  1  0  0  0  0
  7  1  1  0  0  0  0
  9 10  1  0  0  0  0
 10 18  1  0  0  0  0
 11 10  2  0  0  0  0
 12 11  1  0  0  0  0
 13 12  1  0  0  0  0
 13 20  1  0  0  0  0
 14 13  2  0  0  0  0
 15 16  2  0  0  0  0
 15 14  1  0  0  0  0
 16 17  1  0  0  0  0
 17  9  1  0  0  0  0
 17 12  2  0  0  0  0
 19 15  1  0  0  0  0
 20 21  1  0  0  0  0
 22 20  1  0  0  0  0
 23  5  1  0  0  0  0
 23 24  1  0  0  0  0
 24 25  1  0  0  0  0
 24 26  1  0  0  0  0
 27 24  1  0  0  0  0
 28 29  1  0  0  0  0
 28 23  1  0  0  0  0
 30 28  1  0  0  0  0
 31 28  1  0  0  0  0
 32 35  1  0  0  0  0
 32 34  1  0  0  0  0
 32 23  1  0  0  0  0
 33 32  1  0  0  0  0
 35 42  1  0  0  0  0
 36 35  1  0  0  0  0
 37 36  2  0  0  0  0
 37 39  1  0  0  0  0
 38 37  1  0  0  0  0
 39 41  1  0  0  0  0
 40 39  2  0  0  0  0
 41 42  1  0  0  0  0
 41 44  1  0  0  0  0
 42 43  2  0  0  0  0
M  END
>  <minimizedAffinity>
-5.61842251

>  <minimizedRMSD>
0.591828585

$$$$
