
 OpenBabel03252514063D

 25 27  0  0  0  0  0  0  0  0999 V2000
   37.5040   31.0100   47.1320 N   0  0  0  0  0  0  0  0  0  0  0  0
   37.8850   32.0410   47.9250 C   0  0  0  0  0  0  0  0  0  0  0  0
   39.0110   32.5840   47.3950 N   0  0  0  0  0  0  0  0  0  0  0  0
   39.3020   31.8850   46.2930 C   0  0  0  0  0  0  0  0  0  0  0  0
   40.3120   31.9640   45.3490 C   0  0  0  0  0  0  0  0  0  0  0  0
   40.3660   31.1090   44.3090 N   0  0  0  0  0  0  0  0  0  0  0  0
   39.4400   30.1300   44.1330 C   0  0  0  0  0  0  0  0  0  0  0  0
   38.4670   30.0690   45.0610 N   0  0  0  0  0  0  0  0  0  0  0  0
   38.3670   30.8880   46.1070 C   0  0  0  0  0  0  0  0  0  0  0  0
   41.3040   32.9450   45.4590 N   0  0  0  0  0  0  0  0  0  0  0  0
   37.3760   32.3770   48.8340 H   0  0  0  0  0  0  0  0  0  0  0  0
   39.5290   29.4680   43.2810 H   0  0  0  0  0  0  0  0  0  0  0  0
   41.9710   32.9960   46.2780 H   0  0  0  0  0  0  0  0  0  0  0  0
   41.6100   33.7530   44.8730 H   0  0  0  0  0  0  0  0  0  0  0  0
   35.3980   30.0790   46.3680 C   0  0  0  0  0  0  0  0  0  0  0  0
   36.3550   30.2040   47.3830 C   0  0  0  0  0  0  0  0  0  0  0  0
   36.0890   29.5180   48.5600 C   0  0  0  0  0  0  0  0  0  0  0  0
   34.9540   28.7830   48.6740 N   0  0  0  0  0  0  0  0  0  0  0  0
   34.0620   28.6870   47.6830 C   0  0  0  0  0  0  0  0  0  0  0  0
   34.2890   29.3400   46.5270 N   0  0  0  0  0  0  0  0  0  0  0  0
   35.5440   30.5880   45.4240 H   0  0  0  0  0  0  0  0  0  0  0  0
   36.8150   29.6120   49.3310 H   0  0  0  0  0  0  0  0  0  0  0  0
   32.8240   27.8930   47.7880 C   0  0  0  0  0  3  0  0  0  0  0  0
   33.0560   26.4080   47.6190 C   0  0  0  0  0  1  0  0  0  0  0  0
   32.2430   28.0990   49.1920 C   0  0  0  0  0  1  0  0  0  0  0  0
  1 16  1  0  0  0  0
  1  2  1  0  0  0  0
  2 11  1  0  0  0  0
  3  2  2  0  0  0  0
  4  3  1  0  0  0  0
  5 10  1  0  0  0  0
  5  4  2  0  0  0  0
  6  5  1  0  0  0  0
  7  6  2  0  0  0  0
  7  8  1  0  0  0  0
  8  9  2  0  0  0  0
  9  4  1  0  0  0  0
  9  1  1  0  0  0  0
 10 13  1  0  0  0  0
 12  7  1  0  0  0  0
 14 10  1  0  0  0  0
 15 20  2  0  0  0  0
 15 16  1  0  0  0  0
 16 17  2  0  0  0  0
 17 18  1  0  0  0  0
 17 22  1  0  0  0  0
 19 23  1  0  0  0  0
 19 18  2  0  0  0  0
 20 19  1  0  0  0  0
 21 15  1  0  0  0  0
 23 25  1  0  0  0  0
 24 23  1  0  0  0  0
M  END
>  <minimizedAffinity>
-4.34265423

>  <minimizedRMSD>
2.79140806

$$$$
