
 OpenBabel03252513043D

 31 33  0  0  0  0  0  0  0  0999 V2000
   39.1420   32.0220   46.4920 N   0  0  0  0  0  0  0  0  0  0  0  0
   40.1640   32.7570   46.0780 C   0  0  0  0  0  0  0  0  0  0  0  0
   40.2810   33.3280   44.8350 C   0  0  0  0  0  0  0  0  0  0  0  0
   39.2880   33.1510   43.9180 C   0  0  0  0  0  0  0  0  0  0  0  0
   39.3170   33.6360   42.7660 O   0  0  0  0  0  0  0  0  0  0  0  0
   38.2540   32.4240   44.2990 N   0  0  0  0  0  0  0  0  0  0  0  0
   38.1730   31.8810   45.5240 C   0  0  0  0  0  0  0  0  0  0  0  0
   37.1370   31.2000   45.7860 O   0  0  0  0  0  0  0  0  0  0  0  0
   40.9690   32.9090   46.8020 H   0  0  0  0  0  0  0  0  0  0  0  0
   41.1600   33.9100   44.6000 H   0  0  0  0  0  0  0  0  0  0  0  0
   37.1880   32.2130   43.3620 C   0  0  0  0  0  0  0  0  0  0  0  0
   36.9530   31.2910   42.3600 C   0  0  0  0  0  0  0  0  0  0  0  0
   35.7760   31.5560   41.7760 N   0  0  0  0  0  0  0  0  0  0  0  0
   35.2430   32.6360   42.3820 C   0  0  0  0  0  0  0  0  0  0  0  0
   36.0890   33.0230   43.3250 N   0  0  0  0  0  0  0  0  0  0  0  0
   35.8130   33.8590   43.8900 H   0  0  0  0  0  0  0  0  0  0  0  0
   38.9290   31.4020   47.7330 C   0  0  0  0  0  0  0  0  0  0  0  0
   38.4910   30.3800   47.5300 H   0  0  0  0  0  0  0  0  0  0  0  0
   39.9310   31.1480   48.1900 H   0  0  0  0  0  0  0  0  0  0  0  0
   38.0950   32.0430   48.7520 C   0  0  0  0  0  0  0  0  0  0  0  0
   38.7320   32.6750   49.4390 H   0  0  0  0  0  0  0  0  0  0  0  0
   37.3820   32.7430   48.3060 H   0  0  0  0  0  0  0  0  0  0  0  0
   35.3950   29.7900   50.1600 C   0  0  0  0  0  0  0  0  0  0  0  0
   36.1010   30.6700   49.2940 C   0  0  0  0  0  0  0  0  0  0  0  0
   37.3440   31.1350   49.6270 C   0  0  0  0  0  0  0  0  0  0  0  0
   37.8600   30.7170   50.8130 N   0  0  0  0  0  0  0  0  0  0  0  0
   37.2120   29.8990   51.6280 C   0  0  0  0  0  0  0  0  0  0  0  0
   35.9880   29.4300   51.3170 N   0  0  0  0  0  0  0  0  0  0  0  0
   34.4180   29.4190   49.9090 H   0  0  0  0  0  0  0  0  0  0  0  0
   35.6190   30.9450   48.3850 H   0  0  0  0  0  0  0  0  0  0  0  0
   37.7480   29.6530   52.5360 H   0  0  0  0  0  0  0  0  0  0  0  0
  1 17  1  0  0  0  0
  2  1  1  0  0  0  0
  2  9  1  0  0  0  0
  3  2  2  0  0  0  0
  4  6  1  0  0  0  0
  4  3  1  0  0  0  0
  5  4  2  0  0  0  0
  6  7  1  0  0  0  0
  7  8  2  0  0  0  0
  7  1  1  0  0  0  0
 10  3  1  0  0  0  0
 11  6  1  0  0  0  0
 12 11  2  0  0  0  0
 13 12  1  0  0  0  0
 13 14  2  0  0  0  0
 14 15  1  0  0  0  0
 15 11  1  0  0  0  0
 15 16  1  0  0  0  0
 17 19  1  0  0  0  0
 17 20  1  0  0  0  0
 18 17  1  0  0  0  0
 20 21  1  0  0  0  0
 20 25  1  0  0  0  0
 22 20  1  0  0  0  0
 23 28  1  0  0  0  0
 24 25  1  0  0  0  0
 24 23  2  0  0  0  0
 25 26  2  0  0  0  0
 26 27  1  0  0  0  0
 27 31  1  0  0  0  0
 28 27  2  0  0  0  0
 29 23  1  0  0  0  0
 30 24  1  0  0  0  0
M  END
>  <minimizedAffinity>
-5.79725552

>  <minimizedRMSD>
1.52861881

$$$$
