REMARK  Name = 
REMARK  4 active torsions:
REMARK  status: ('A' for Active; 'I' for Inactive)
REMARK    1  A    between atoms: N_1  and  C_11
REMARK    2  A    between atoms: C_14  and  C_23
REMARK    3  A    between atoms: C_23  and  C_24
REMARK    4  A    between atoms: C_23  and  C_25
REMARK                            x       y       z     vdW  Elec       q    Type
REMARK                         _______ _______ _______ _____ _____    ______ ____
ROOT
ATOM      1  N   UNL     1      37.807  31.809  49.054  0.00  0.00    +0.000 N 
ATOM      2  C   UNL     1      38.197  33.037  49.475  0.00  0.00    +0.000 A 
ATOM      3  N   UNL     1      38.945  33.601  48.492  0.00  0.00    +0.000 NA
ATOM      4  C   UNL     1      39.002  32.718  47.489  0.00  0.00    +0.000 A 
ATOM      5  C   UNL     1      39.607  32.724  46.243  0.00  0.00    +0.000 A 
ATOM      6  N   UNL     1      39.500  31.671  45.409  0.00  0.00    +0.000 NA
ATOM      7  C   UNL     1      38.799  30.556  45.743  0.00  0.00    +0.000 A 
ATOM      8  N   UNL     1      38.219  30.569  46.957  0.00  0.00    +0.000 NA
ATOM      9  C   UNL     1      38.293  31.582  47.820  0.00  0.00    +0.000 A 
ATOM     10  N   UNL     1      40.347  33.835  45.824  0.00  0.00    +0.000 N 
ATOM     11  H   UNL     1      37.953  33.495  50.439  0.00  0.00    +0.000 HD
ATOM     12  H   UNL     1      38.744  29.737  45.037  0.00  0.00    +0.000 HD
ATOM     13  H   UNL     1      41.217  34.166  46.325  0.00  0.00    +0.000 HD
ATOM     14  H   UNL     1      40.265  34.524  45.044  0.00  0.00    +0.000 HD
ENDROOT
BRANCH   1  16
ATOM     15  C   UNL     1      35.696  30.665  49.401  0.00  0.00    +0.000 A 
ATOM     16  C   UNL     1      37.003  30.926  49.833  0.00  0.00    +0.000 A 
ATOM     17  C   UNL     1      37.399  30.288  51.000  0.00  0.00    +0.000 A 
ATOM     18  N   UNL     1      36.536  29.469  51.651  0.00  0.00    +0.000 NA
ATOM     19  C   UNL     1      35.294  29.243  51.209  0.00  0.00    +0.000 A 
ATOM     20  N   UNL     1      34.877  29.846  50.079  0.00  0.00    +0.000 NA
ATOM     21  H   UNL     1      35.324  31.130  48.498  0.00  0.00    +0.000 HD
ATOM     22  H   UNL     1      38.391  30.486  51.328  0.00  0.00    +0.000 HD
BRANCH  19  23
ATOM     23  C   UNL     1      34.342  28.356  51.902  0.00  0.00    +0.000 C 
ATOM     24  C   UNL     1      34.006  27.112  51.110  0.00  0.00    +0.000 C 
ATOM     25  C   UNL     1      34.988  27.893  53.214  0.00  0.00    +0.000 C 
ENDBRANCH  19  23
ENDBRANCH   1  16
TORSDOF 2
