
 OpenBabel03252514073D

 44 47  0  0  0  0  0  0  0  0999 V2000
   34.2440   29.8200   47.2460 C   0  0  0  0  0  0  0  0  0  0  0  0
   35.1060   29.5930   48.3290 C   0  0  0  0  0  0  0  0  0  0  0  0
   34.9940   28.3630   48.9480 C   0  0  0  0  0  0  0  0  0  0  0  0
   34.0960   27.4570   48.5080 N   0  0  0  0  0  0  0  0  0  0  0  0
   33.2810   27.7110   47.4610 C   0  0  0  0  0  0  0  0  0  0  0  0
   33.3640   28.8860   46.8440 N   0  0  0  0  0  0  0  0  0  0  0  0
   34.2370   30.7470   46.6810 H   0  0  0  0  0  0  0  0  0  0  0  0
   35.6510   28.1700   49.7850 H   0  0  0  0  0  0  0  0  0  0  0  0
   36.0060   30.6250   48.6960 N   0  0  0  0  0  0  0  0  0  0  0  0
   35.9950   31.2560   49.9010 C   0  0  0  0  0  0  0  0  0  0  0  0
   36.9870   32.1790   49.9050 N   0  0  0  0  0  0  0  0  0  0  0  0
   37.5940   32.1120   48.7170 C   0  0  0  0  0  0  0  0  0  0  0  0
   38.6520   32.7930   48.1510 C   0  0  0  0  0  0  0  0  0  0  0  0
   39.0740   32.5270   46.9140 N   0  0  0  0  0  0  0  0  0  0  0  0
   38.4810   31.5660   46.1420 C   0  0  0  0  0  0  0  0  0  0  0  0
   37.4510   30.9100   46.7090 N   0  0  0  0  0  0  0  0  0  0  0  0
   36.9940   31.1420   47.9430 C   0  0  0  0  0  0  0  0  0  0  0  0
   35.3400   31.0990   50.7510 H   0  0  0  0  0  0  0  0  0  0  0  0
   38.8290   31.3520   45.1310 H   0  0  0  0  0  0  0  0  0  0  0  0
   39.3080   33.8010   48.9010 N   0  0  0  0  0  0  0  0  0  0  0  0
   39.0720   34.0130   49.8950 H   0  0  0  0  0  0  0  0  0  0  0  0
   40.0680   34.3860   48.4860 H   0  0  0  0  0  0  0  0  0  0  0  0
   32.2800   26.7200   46.9600 C   0  0  0  0  0  0  0  0  0  0  0  0
   31.4900   26.1740   48.1640 C   0  0  0  0  0  0  0  0  0  0  0  0
   31.1300   27.0000   48.7930 H   0  0  0  0  0  0  0  0  0  0  0  0
   32.1590   25.5570   48.8070 H   0  0  0  0  0  0  0  0  0  0  0  0
   30.6200   25.6040   47.8360 H   0  0  0  0  0  0  0  0  0  0  0  0
   31.2480   27.4000   46.0920 C   0  0  0  0  0  0  0  0  0  0  0  0
   30.8110   28.2780   46.6460 H   0  0  0  0  0  0  0  0  0  0  0  0
   30.4280   26.7060   45.8720 H   0  0  0  0  0  0  0  0  0  0  0  0
   31.6640   27.8380   45.1610 H   0  0  0  0  0  0  0  0  0  0  0  0
   32.9040   25.6070   46.1950 C   0  0  0  0  0  0  0  0  0  0  0  0
   32.8200   25.7550   45.0890 H   0  0  0  0  0  0  0  0  0  0  0  0
   34.0120   25.6300   46.3900 H   0  0  0  0  0  0  0  0  0  0  0  0
   32.4230   24.2900   46.5490 N   0  0  0  0  0  0  0  0  0  0  0  0
   33.0460   23.6660   47.5870 C   0  0  0  0  0  3  0  0  0  0  0  0
   32.7120   22.4150   48.0600 C   0  0  0  0  0  0  0  0  0  0  0  0
   33.4490   21.8050   49.2040 C   0  0  0  0  0  1  0  0  0  0  0  0
   31.6800   21.7410   47.4510 C   0  0  0  0  0  0  0  0  0  0  0  0
   31.3520   20.5970   47.8630 O   0  0  0  0  0  0  0  0  0  0  0  0
   31.0860   22.3720   46.4390 N   0  0  0  0  0  0  0  0  0  0  0  0
   31.4220   23.5890   45.9880 C   0  0  0  0  0  0  0  0  0  0  0  0
   30.8330   24.1260   45.0410 O   0  0  0  0  0  0  0  0  0  0  0  0
   30.2970   21.9130   45.9370 H   0  0  0  0  0  0  0  0  0  0  0  0
  1  2  1  0  0  0  0
  2  9  1  0  0  0  0
  2  3  2  0  0  0  0
  3  8  1  0  0  0  0
  4  3  1  0  0  0  0
  5  4  2  0  0  0  0
  6  1  2  0  0  0  0
  6  5  1  0  0  0  0
  7  1  1  0  0  0  0
  9 10  1  0  0  0  0
 10 11  2  0  0  0  0
 10 18  1  0  0  0  0
 12 11  1  0  0  0  0
 13 12  1  0  0  0  0
 13 20  1  0  0  0  0
 14 13  2  0  0  0  0
 15 16  2  0  0  0  0
 15 14  1  0  0  0  0
 16 17  1  0  0  0  0
 17  9  1  0  0  0  0
 17 12  2  0  0  0  0
 19 15  1  0  0  0  0
 20 21  1  0  0  0  0
 22 20  1  0  0  0  0
 23  5  1  0  0  0  0
 23 24  1  0  0  0  0
 24 25  1  0  0  0  0
 24 26  1  0  0  0  0
 27 24  1  0  0  0  0
 28 29  1  0  0  0  0
 28 23  1  0  0  0  0
 30 28  1  0  0  0  0
 31 28  1  0  0  0  0
 32 34  1  0  0  0  0
 32 35  1  0  0  0  0
 32 23  1  0  0  0  0
 33 32  1  0  0  0  0
 35 36  1  0  0  0  0
 36 37  2  0  0  0  0
 37 38  1  0  0  0  0
 39 40  2  0  0  0  0
 39 37  1  0  0  0  0
 41 39  1  0  0  0  0
 42 41  1  0  0  0  0
 42 35  1  0  0  0  0
 43 42  2  0  0  0  0
 44 41  1  0  0  0  0
M  END
>  <minimizedAffinity>
-5.6547718

>  <minimizedRMSD>
0.994888127

$$$$
