REMARK  Name = 
REMARK  8 active torsions:
REMARK  status: ('A' for Active; 'I' for Inactive)
REMARK    1  A    between atoms: N_1  and  C_12
REMARK    2  A    between atoms: C_5  and  N_10
REMARK    3  A    between atoms: C_15  and  C_17
REMARK    4  A    between atoms: C_17  and  C_18
REMARK    5  A    between atoms: C_17  and  C_19
REMARK    6  A    between atoms: C_17  and  C_20
REMARK    7  A    between atoms: C_20  and  N_35
REMARK    8  A    between atoms: C_37  and  C_38
REMARK                            x       y       z     vdW  Elec       q    Type
REMARK                         _______ _______ _______ _____ _____    ______ ____
ROOT
ATOM      1  C   UNL     1      34.660  29.977  47.405  0.00  0.00    +0.000 A 
ATOM      2  C   UNL     1      35.526  29.885  48.505  0.00  0.00    +0.000 A 
ATOM      3  C   UNL     1      35.431  28.731  49.259  0.00  0.00    +0.000 A 
ATOM      4  N   UNL     1      34.544  27.770  48.926  0.00  0.00    +0.000 NA
ATOM      5  C   UNL     1      33.725  27.893  47.859  0.00  0.00    +0.000 A 
ATOM      6  N   UNL     1      33.792  28.992  47.113  0.00  0.00    +0.000 NA
ATOM      7  H   UNL     1      34.641  30.834  46.739  0.00  0.00    +0.000 HD
ATOM      8  H   UNL     1      36.091  28.642  50.111  0.00  0.00    +0.000 HD
ENDROOT
BRANCH   2   9
ATOM      9  N   UNL     1      36.413  30.963  48.751  0.00  0.00    +0.000 N 
ATOM     10  C   UNL     1      36.386  31.734  49.871  0.00  0.00    +0.000 A 
ATOM     11  N   UNL     1      37.368  32.662  49.771  0.00  0.00    +0.000 NA
ATOM     12  C   UNL     1      37.986  32.459  48.604  0.00  0.00    +0.000 A 
ATOM     13  C   UNL     1      39.042  33.078  47.967  0.00  0.00    +0.000 A 
ATOM     14  N   UNL     1      39.477  32.669  46.774  0.00  0.00    +0.000 NA
ATOM     15  C   UNL     1      38.900  31.616  46.120  0.00  0.00    +0.000 A 
ATOM     16  N   UNL     1      37.871  31.022  46.755  0.00  0.00    +0.000 NA
ATOM     17  C   UNL     1      37.402  31.396  47.948  0.00  0.00    +0.000 A 
ATOM     18  H   UNL     1      35.725  31.674  50.729  0.00  0.00    +0.000 HD
ATOM     19  H   UNL     1      39.258  31.285  45.145  0.00  0.00    +0.000 HD
BRANCH  13  20
ATOM     20  N   UNL     1      39.682  34.176  48.595  0.00  0.00    +0.000 N 
ATOM     21  H   UNL     1      39.435  34.504  49.554  0.00  0.00    +0.000 HD
ATOM     22  H   UNL     1      40.439  34.715  48.118  0.00  0.00    +0.000 HD
ENDBRANCH  13  20
ENDBRANCH   2   9
BRANCH   5  23
ATOM     23  C   UNL     1      32.737  26.839  47.475  0.00  0.00    +0.000 C 
BRANCH  23  24
ATOM     24  C   UNL     1      31.542  26.915  48.444  0.00  0.00    +0.000 C 
ATOM     25  H   UNL     1      31.186  27.951  48.533  0.00  0.00    +0.000 HD
ATOM     26  H   UNL     1      31.863  26.604  49.465  0.00  0.00    +0.000 HD
ATOM     27  H   UNL     1      30.710  26.308  48.088  0.00  0.00    +0.000 HD
ENDBRANCH  23  24
BRANCH  23  28
ATOM     28  C   UNL     1      32.153  27.129  46.113  0.00  0.00    +0.000 C 
ATOM     29  H   UNL     1      31.756  28.183  46.091  0.00  0.00    +0.000 HD
ATOM     30  H   UNL     1      31.312  26.455  45.915  0.00  0.00    +0.000 HD
ATOM     31  H   UNL     1      32.897  27.095  45.290  0.00  0.00    +0.000 HD
ENDBRANCH  23  28
BRANCH  23  32
ATOM     32  C   UNL     1      33.323  25.472  47.474  0.00  0.00    +0.000 C 
ATOM     33  H   UNL     1      34.242  25.407  46.838  0.00  0.00    +0.000 HD
ATOM     34  H   UNL     1      33.696  25.253  48.513  0.00  0.00    +0.000 HD
BRANCH  32  35
ATOM     35  N   UNL     1      32.400  24.421  47.108  0.00  0.00    +0.000 N 
ATOM     36  C   UNL     1      32.381  23.315  47.902  0.00  0.00    +0.000 A 
ATOM     37  C   UNL     1      31.559  22.226  47.704  0.00  0.00    +0.000 A 
ATOM     38  C   UNL     1      31.604  21.054  48.625  0.00  0.00    +0.000 C 
ATOM     39  C   UNL     1      30.695  22.245  46.636  0.00  0.00    +0.000 A 
ATOM     40  O   UNL     1      29.933  21.264  46.431  0.00  0.00    +0.000 OA
ATOM     41  N   UNL     1      30.733  23.338  45.873  0.00  0.00    +0.000 N 
ATOM     42  C   UNL     1      31.537  24.391  46.077  0.00  0.00    +0.000 A 
ATOM     43  O   UNL     1      31.529  25.379  45.333  0.00  0.00    +0.000 OA
ATOM     44  H   UNL     1      30.102  23.412  45.048  0.00  0.00    +0.000 HD
ENDBRANCH  32  35
ENDBRANCH  23  32
ENDBRANCH   5  23
TORSDOF 7
