
 OpenBabel03252513263D

 38 40  0  0  0  0  0  0  0  0999 V2000
   32.8020   27.7890   48.5520 C   0  0  0  0  0  0  0  0  0  0  0  0
   31.6880   28.1990   49.2180 C   0  0  0  0  0  0  0  0  0  0  0  0
   30.4600   27.5600   49.1590 C   0  0  0  0  0  0  0  0  0  0  0  0
   30.4150   26.4340   48.3540 C   0  0  0  0  0  0  0  0  0  0  0  0
   31.5150   25.9950   47.6710 C   0  0  0  0  0  0  0  0  0  0  0  0
   32.7140   26.6530   47.7550 C   0  0  0  0  0  0  0  0  0  0  0  0
   31.7440   29.0770   49.8390 H   0  0  0  0  0  0  0  0  0  0  0  0
   29.6060   27.9130   49.6980 H   0  0  0  0  0  0  0  0  0  0  0  0
   29.4600   25.9290   48.3010 H   0  0  0  0  0  0  0  0  0  0  0  0
   31.3900   25.1070   47.0650 H   0  0  0  0  0  0  0  0  0  0  0  0
   36.1180   28.9210   49.6560 C   0  0  0  0  0  0  0  0  0  0  0  0
   36.4240   29.9210   48.6940 C   0  0  0  0  0  0  0  0  0  0  0  0
   35.4790   30.1630   47.7070 C   0  0  0  0  0  0  0  0  0  0  0  0
   34.3070   29.4390   47.6990 N   0  0  0  0  0  0  0  0  0  0  0  0
   34.0710   28.4960   48.6480 C   0  0  0  0  0  0  0  0  0  0  0  0
   34.9640   28.2520   49.6010 N   0  0  0  0  0  0  0  0  0  0  0  0
   36.8770   28.7620   50.4080 H   0  0  0  0  0  0  0  0  0  0  0  0
   35.6180   30.9050   46.9250 H   0  0  0  0  0  0  0  0  0  0  0  0
   37.6890   30.6900   48.7140 C   0  0  0  0  0  0  0  0  0  0  0  0
   38.4800   30.4690   47.6300 F   0  0  0  0  0  0  0  0  0  0  0  0
   38.4510   30.3870   49.8340 F   0  0  0  0  0  0  0  0  0  0  0  0
   37.4050   32.0520   48.7670 F   0  0  0  0  0  0  0  0  0  0  0  0
   33.9050   26.2110   47.0390 C   0  0  0  0  0  0  0  0  0  0  0  0
   34.3960   27.1320   46.6180 H   0  0  0  0  0  0  0  0  0  0  0  0
   34.6730   25.8170   47.7560 H   0  0  0  0  0  0  0  0  0  0  0  0
   33.6820   25.2710   45.9070 C   0  0  0  0  0  0  0  0  0  0  0  0
   33.1370   25.8180   45.1040 H   0  0  0  0  0  0  0  0  0  0  0  0
   32.9640   24.4780   46.2610 H   0  0  0  0  0  0  0  0  0  0  0  0
   34.9060   24.6850   45.3970 N   0  0  0  0  0  0  0  0  0  0  0  0
   35.6380   23.7560   46.0390 C   0  0  0  0  0  0  0  0  0  0  0  0
   36.7820   23.2910   45.4290 C   0  0  0  0  0  0  0  0  0  0  0  0
   37.6110   22.2640   46.1150 C   0  0  0  0  0  0  0  0  0  0  0  0
   37.1780   23.7550   44.1900 C   0  0  0  0  0  0  0  0  0  0  0  0
   38.2190   23.3110   43.6680 O   0  0  0  0  0  0  0  0  0  0  0  0
   36.4140   24.6910   43.5740 N   0  0  0  0  0  0  0  0  0  0  0  0
   35.3170   25.1260   44.1790 C   0  0  0  0  0  0  0  0  0  0  0  0
   34.6820   25.9990   43.5100 O   0  0  0  0  0  0  0  0  0  0  0  0
   36.7450   25.0190   42.6370 H   0  0  0  0  0  0  0  0  0  0  0  0
  1 15  1  0  0  0  0
  1  2  1  0  0  0  0
  2  7  1  0  0  0  0
  3  2  2  0  0  0  0
  3  8  1  0  0  0  0
  4  3  1  0  0  0  0
  5  6  1  0  0  0  0
  5  4  2  0  0  0  0
  6  1  2  0  0  0  0
  9  4  1  0  0  0  0
 10  5  1  0  0  0  0
 11 17  1  0  0  0  0
 12 19  1  0  0  0  0
 12 11  2  0  0  0  0
 13 12  1  0  0  0  0
 14 13  2  0  0  0  0
 14 15  1  0  0  0  0
 15 16  2  0  0  0  0
 16 11  1  0  0  0  0
 18 13  1  0  0  0  0
 19 22  1  0  0  0  0
 19 21  1  0  0  0  0
 20 19  1  0  0  0  0
 23  6  1  0  0  0  0
 23 25  1  0  0  0  0
 24 23  1  0  0  0  0
 26 28  1  0  0  0  0
 26 23  1  0  0  0  0
 27 26  1  0  0  0  0
 29 26  1  0  0  0  0
 29 30  1  0  0  0  0
 31 30  2  0  0  0  0
 31 32  1  0  0  0  0
 33 31  1  0  0  0  0
 34 33  2  0  0  0  0
 35 36  1  0  0  0  0
 35 33  1  0  0  0  0
 36 29  1  0  0  0  0
 37 36  2  0  0  0  0
 38 35  1  0  0  0  0
M  END
>  <minimizedAffinity>
-5.34380627

>  <minimizedRMSD>
0.480328619

$$$$
