
 OpenBabel03252513093D

 28 30  0  0  0  0  0  0  0  0999 V2000
   33.9790   28.8200   48.3440 C   0  0  0  0  0  0  0  0  0  0  0  0
   34.0840   28.8170   49.7460 C   0  0  0  0  0  0  0  0  0  0  0  0
   35.0710   29.4550   50.4330 C   0  0  0  0  0  0  0  0  0  0  0  0
   36.0420   30.1560   49.7550 C   0  0  0  0  0  0  0  0  0  0  0  0
   35.9930   30.1950   48.3980 C   0  0  0  0  0  0  0  0  0  0  0  0
   36.9870   30.9040   47.7540 C   0  0  0  0  0  0  0  0  0  0  0  0
   37.0040   30.9850   46.3940 C   0  0  0  0  0  0  0  0  0  0  0  0
   36.0000   30.3350   45.6940 C   0  0  0  0  0  0  0  0  0  0  0  0
   35.0400   29.6460   46.3880 C   0  0  0  0  0  0  0  0  0  0  0  0
   34.9820   29.5390   47.7360 C   0  0  0  0  0  0  0  0  0  0  0  0
   33.3270   28.2690   50.3010 H   0  0  0  0  0  0  0  0  0  0  0  0
   35.0620   29.3890   51.5210 H   0  0  0  0  0  0  0  0  0  0  0  0
   37.7890   31.4250   48.2550 H   0  0  0  0  0  0  0  0  0  0  0  0
   37.7530   31.5230   45.8320 H   0  0  0  0  0  0  0  0  0  0  0  0
   35.9980   30.3880   44.6140 H   0  0  0  0  0  0  0  0  0  0  0  0
   34.2620   29.1460   45.7870 H   0  0  0  0  0  0  0  0  0  0  0  0
   32.2540   25.9790   46.9770 C   0  0  0  0  0  0  0  0  0  0  0  0
   31.1020   26.4330   46.3620 C   0  0  0  0  0  0  0  0  0  0  0  0
   30.8970   27.7950   46.4140 C   0  0  0  0  0  0  0  0  0  0  0  0
   31.8030   28.5540   47.0390 N   0  0  0  0  0  0  0  0  0  0  0  0
   32.9140   28.1330   47.6340 C   0  0  0  0  0  0  0  0  0  0  0  0
   33.0810   26.8290   47.5670 N   0  0  0  0  0  0  0  0  0  0  0  0
   32.4060   24.8950   46.9290 H   0  0  0  0  0  0  0  0  0  0  0  0
   30.3440   25.8590   45.8470 H   0  0  0  0  0  0  0  0  0  0  0  0
   30.0470   28.3470   45.9880 H   0  0  0  0  0  0  0  0  0  0  0  0
   37.0680   30.8190   50.6020 C   0  0  0  0  0  0  0  0  0  0  0  0
   38.4020   30.7770   49.8450 C   0  0  0  0  0  0  0  0  0  0  0  0
   37.3160   29.9970   51.8770 C   0  0  0  0  0  0  0  0  0  0  0  0
  1  2  1  0  0  0  0
  2 11  1  0  0  0  0
  2  3  2  0  0  0  0
  3 12  1  0  0  0  0
  4  3  1  0  0  0  0
  4 26  1  0  0  0  0
  5  4  2  0  0  0  0
  6 13  1  0  0  0  0
  6  5  1  0  0  0  0
  7  6  2  0  0  0  0
  8  9  2  0  0  0  0
  8  7  1  0  0  0  0
  9 10  1  0  0  0  0
 10  1  2  0  0  0  0
 10  5  1  0  0  0  0
 14  7  1  0  0  0  0
 15  8  1  0  0  0  0
 16  9  1  0  0  0  0
 17 22  1  0  0  0  0
 18 19  1  0  0  0  0
 18 17  2  0  0  0  0
 19 20  2  0  0  0  0
 20 21  1  0  0  0  0
 21  1  1  0  0  0  0
 22 21  2  0  0  0  0
 23 17  1  0  0  0  0
 24 18  1  0  0  0  0
 25 19  1  0  0  0  0
 26 28  1  0  0  0  0
 27 26  1  0  0  0  0
M  END
>  <minimizedAffinity>
-6.14448214

>  <minimizedRMSD>
2.17790484

$$$$
