
 OpenBabel03252514083D

 44 47  0  0  0  0  0  0  0  0999 V2000
   34.2350   30.0700   47.5770 C   0  0  0  0  0  0  0  0  0  0  0  0
   35.2470   29.8330   48.5190 C   0  0  0  0  0  0  0  0  0  0  0  0
   35.2120   28.6060   49.1540 C   0  0  0  0  0  0  0  0  0  0  0  0
   34.2440   27.7130   48.8590 N   0  0  0  0  0  0  0  0  0  0  0  0
   33.2840   27.9770   47.9460 C   0  0  0  0  0  0  0  0  0  0  0  0
   33.2900   29.1490   47.3170 N   0  0  0  0  0  0  0  0  0  0  0  0
   34.1570   30.9960   47.0150 H   0  0  0  0  0  0  0  0  0  0  0  0
   35.9850   28.4050   49.8830 H   0  0  0  0  0  0  0  0  0  0  0  0
   36.2080   30.8510   48.7410 N   0  0  0  0  0  0  0  0  0  0  0  0
   36.3160   31.5620   49.8960 C   0  0  0  0  0  0  0  0  0  0  0  0
   37.3340   32.4440   49.7570 N   0  0  0  0  0  0  0  0  0  0  0  0
   37.8410   32.2740   48.5330 C   0  0  0  0  0  0  0  0  0  0  0  0
   38.8720   32.8730   47.8390 C   0  0  0  0  0  0  0  0  0  0  0  0
   39.1840   32.5080   46.5940 N   0  0  0  0  0  0  0  0  0  0  0  0
   38.4990   31.5210   45.9410 C   0  0  0  0  0  0  0  0  0  0  0  0
   37.4960   30.9450   46.6320 N   0  0  0  0  0  0  0  0  0  0  0  0
   37.1490   31.2770   47.8780 C   0  0  0  0  0  0  0  0  0  0  0  0
   35.7260   31.4880   50.8030 H   0  0  0  0  0  0  0  0  0  0  0  0
   38.7560   31.2260   44.9240 H   0  0  0  0  0  0  0  0  0  0  0  0
   39.6200   33.9030   48.4630 N   0  0  0  0  0  0  0  0  0  0  0  0
   39.4720   34.1910   49.4550 H   0  0  0  0  0  0  0  0  0  0  0  0
   40.3630   34.4290   47.9500 H   0  0  0  0  0  0  0  0  0  0  0  0
   32.2040   27.0000   47.6060 C   0  0  0  0  0  0  0  0  0  0  0  0
   31.1100   27.0890   48.6860 C   0  0  0  0  0  0  0  0  0  0  0  0
   30.8250   28.1360   48.8590 H   0  0  0  0  0  0  0  0  0  0  0  0
   31.5040   26.7060   49.6560 H   0  0  0  0  0  0  0  0  0  0  0  0
   30.2140   26.5480   48.3820 H   0  0  0  0  0  0  0  0  0  0  0  0
   31.5160   27.3950   46.3210 C   0  0  0  0  0  0  0  0  0  0  0  0
   31.1820   28.4690   46.3880 H   0  0  0  0  0  0  0  0  0  0  0  0
   30.6220   26.7790   46.1710 H   0  0  0  0  0  0  0  0  0  0  0  0
   32.1780   27.3650   45.4310 H   0  0  0  0  0  0  0  0  0  0  0  0
   32.7060   25.6060   47.4830 C   0  0  0  0  0  0  0  0  0  0  0  0
   33.8210   25.5490   47.5670 H   0  0  0  0  0  0  0  0  0  0  0  0
   32.3360   25.0240   48.3730 H   0  0  0  0  0  0  0  0  0  0  0  0
   32.2690   24.9110   46.2920 N   0  0  0  0  0  0  0  0  0  0  0  0
   31.0410   24.3240   46.3380 C   0  0  0  0  0  3  0  0  0  0  0  0
   30.4680   23.6310   45.2920 C   0  0  0  0  0  0  0  0  0  0  0  0
   29.1160   23.0170   45.4290 C   0  0  0  0  0  1  0  0  0  0  0  0
   31.1730   23.5190   44.1190 C   0  0  0  0  0  0  0  0  0  0  0  0
   30.6750   22.8910   43.1480 O   0  0  0  0  0  0  0  0  0  0  0  0
   32.3730   24.1020   44.0990 N   0  0  0  0  0  0  0  0  0  0  0  0
   32.9190   24.7730   45.1220 C   0  0  0  0  0  0  0  0  0  0  0  0
   34.0380   25.2930   45.0460 O   0  0  0  0  0  0  0  0  0  0  0  0
   32.9560   24.0510   43.2380 H   0  0  0  0  0  0  0  0  0  0  0  0
  1  2  1  0  0  0  0
  2  9  1  0  0  0  0
  2  3  2  0  0  0  0
  3  8  1  0  0  0  0
  4  3  1  0  0  0  0
  5  4  2  0  0  0  0
  6  1  2  0  0  0  0
  6  5  1  0  0  0  0
  7  1  1  0  0  0  0
  9 10  1  0  0  0  0
 10 18  1  0  0  0  0
 11 10  2  0  0  0  0
 12 11  1  0  0  0  0
 13 20  1  0  0  0  0
 13 12  2  0  0  0  0
 14 13  1  0  0  0  0
 15 14  2  0  0  0  0
 15 16  1  0  0  0  0
 16 17  2  0  0  0  0
 17 12  1  0  0  0  0
 17  9  1  0  0  0  0
 19 15  1  0  0  0  0
 20 21  1  0  0  0  0
 22 20  1  0  0  0  0
 23  5  1  0  0  0  0
 23 24  1  0  0  0  0
 24 25  1  0  0  0  0
 24 26  1  0  0  0  0
 27 24  1  0  0  0  0
 28 29  1  0  0  0  0
 28 23  1  0  0  0  0
 30 28  1  0  0  0  0
 31 28  1  0  0  0  0
 32 33  1  0  0  0  0
 32 23  1  0  0  0  0
 32 34  1  0  0  0  0
 35 36  1  0  0  0  0
 35 32  1  0  0  0  0
 37 38  1  0  0  0  0
 37 36  2  0  0  0  0
 39 37  1  0  0  0  0
 40 39  2  0  0  0  0
 41 39  1  0  0  0  0
 41 42  1  0  0  0  0
 42 35  1  0  0  0  0
 43 42  2  0  0  0  0
 44 41  1  0  0  0  0
M  END
>  <minimizedAffinity>
-5.48782492

>  <minimizedRMSD>
1.34653044

$$$$
