
 OpenBabel03252514063D

 25 27  0  0  0  0  0  0  0  0999 V2000
   36.7390   31.2160   48.7580 N   0  0  0  0  0  0  0  0  0  0  0  0
   36.8210   32.0860   49.7940 C   0  0  0  0  0  0  0  0  0  0  0  0
   37.8120   32.9740   49.5220 N   0  0  0  0  0  0  0  0  0  0  0  0
   38.3200   32.6390   48.3300 C   0  0  0  0  0  0  0  0  0  0  0  0
   39.3310   33.1610   47.5410 C   0  0  0  0  0  0  0  0  0  0  0  0
   39.6430   32.6110   46.3510 N   0  0  0  0  0  0  0  0  0  0  0  0
   38.9880   31.5240   45.8660 C   0  0  0  0  0  0  0  0  0  0  0  0
   38.0090   31.0310   46.6470 N   0  0  0  0  0  0  0  0  0  0  0  0
   37.6600   31.5350   47.8300 C   0  0  0  0  0  0  0  0  0  0  0  0
   40.0540   34.2790   47.9690 N   0  0  0  0  0  0  0  0  0  0  0  0
   36.1990   32.0760   50.6950 H   0  0  0  0  0  0  0  0  0  0  0  0
   39.2770   31.1200   44.9040 H   0  0  0  0  0  0  0  0  0  0  0  0
   40.6440   34.2790   48.8460 H   0  0  0  0  0  0  0  0  0  0  0  0
   40.1890   35.2510   47.6110 H   0  0  0  0  0  0  0  0  0  0  0  0
   34.7650   30.2170   47.7640 C   0  0  0  0  0  0  0  0  0  0  0  0
   35.8040   30.1420   48.7020 C   0  0  0  0  0  0  0  0  0  0  0  0
   35.8230   29.0080   49.5020 C   0  0  0  0  0  0  0  0  0  0  0  0
   34.8710   28.0550   49.3490 N   0  0  0  0  0  0  0  0  0  0  0  0
   33.8940   28.1590   48.4420 C   0  0  0  0  0  0  0  0  0  0  0  0
   33.8450   29.2470   47.6490 N   0  0  0  0  0  0  0  0  0  0  0  0
   34.6920   31.0740   47.1080 H   0  0  0  0  0  0  0  0  0  0  0  0
   36.6110   28.9520   50.2130 H   0  0  0  0  0  0  0  0  0  0  0  0
   32.8510   27.1330   48.2610 C   0  0  0  0  0  3  0  0  0  0  0  0
   31.4670   27.6240   48.6220 C   0  0  0  0  0  1  0  0  0  0  0  0
   32.8170   26.7450   46.7760 C   0  0  0  0  0  1  0  0  0  0  0  0
  1  2  1  0  0  0  0
  2 11  1  0  0  0  0
  3  2  2  0  0  0  0
  4  3  1  0  0  0  0
  5 10  1  0  0  0  0
  5  4  2  0  0  0  0
  6  5  1  0  0  0  0
  7  6  2  0  0  0  0
  7  8  1  0  0  0  0
  8  9  2  0  0  0  0
  9  4  1  0  0  0  0
  9  1  1  0  0  0  0
 10 13  1  0  0  0  0
 12  7  1  0  0  0  0
 14 10  1  0  0  0  0
 15 16  1  0  0  0  0
 16  1  1  0  0  0  0
 16 17  2  0  0  0  0
 17 22  1  0  0  0  0
 18 17  1  0  0  0  0
 19 18  2  0  0  0  0
 20 15  2  0  0  0  0
 20 19  1  0  0  0  0
 21 15  1  0  0  0  0
 23 19  1  0  0  0  0
 23 24  1  0  0  0  0
 25 23  1  0  0  0  0
M  END
>  <minimizedAffinity>
-5.61815166

>  <minimizedRMSD>
2.72644401

$$$$
