
     RDKit          3D

 42 44  0  0  0  0  0  0  0  0999 V2000
   35.2987   29.4067   48.9807 C   0  0  2  0  0  0  0  0  0  0  0  0
   34.1878   29.3651   49.9252 C   0  0  0  0  0  0  0  0  0  0  0  0
   34.5309   28.0965   49.3506 C   0  0  1  0  0  0  0  0  0  0  0  0
   36.7110   29.3862   49.5870 C   0  0  0  0  0  0  0  0  0  0  0  0
   38.0784   32.7685   49.4458 C   0  0  0  0  0  0  0  0  0  0  0  0
   38.7490   32.7811   48.2077 C   0  0  0  0  0  0  0  0  0  0  0  0
   38.7162   31.5999   47.4323 C   0  0  0  0  0  0  0  0  0  0  0  0
   38.0381   30.5170   47.9264 N   0  0  0  0  0  0  0  0  0  0  0  0
   37.4158   30.5675   49.1193 C   0  0  0  0  0  0  0  0  0  0  0  0
   37.4452   31.6966   49.8642 N   0  0  0  0  0  0  0  0  0  0  0  0
   33.5696   27.5770   48.2994 C   0  0  0  0  0  0  0  0  0  0  0  0
   33.9098   26.4365   47.8070 O   0  0  0  0  0  0  0  0  0  0  0  0
   32.4095   28.2010   47.8569 O   0  0  0  0  0  0  0  0  0  0  0  0
   31.1475   27.8198   48.2231 C   0  0  0  0  0  0  0  0  0  0  0  0
   30.6290   27.8114   49.6126 C   0  0  0  0  0  0  0  0  0  0  0  0
   29.3547   27.4090   49.8104 C   0  0  0  0  0  0  0  0  0  0  0  0
   28.5332   27.0083   48.7407 C   0  0  0  0  0  0  0  0  0  0  0  0
   29.6359   27.1989   47.2617 S   0  0  0  0  0  0  0  0  0  0  0  0
   35.2473   29.6117   47.9140 H   0  0  0  0  0  0  0  0  0  0  0  0
   33.2462   29.8964   49.6109 H   0  0  0  0  0  0  0  0  0  0  0  0
   34.4302   29.6542   50.9814 H   0  0  0  0  0  0  0  0  0  0  0  0
   35.1808   27.3259   49.7632 H   0  0  0  0  0  0  0  0  0  0  0  0
   37.2360   28.4861   49.2075 H   0  0  0  0  0  0  0  0  0  0  0  0
   36.6287   29.2964   50.6744 H   0  0  0  0  0  0  0  0  0  0  0  0
   38.1722   33.7232   49.9476 H   0  0  0  0  0  0  0  0  0  0  0  0
   39.3025   33.5480   47.7211 H   0  0  0  0  0  0  0  0  0  0  0  0
   39.1976   31.5020   46.4678 H   0  0  0  0  0  0  0  0  0  0  0  0
   31.3008   28.1278   50.3875 H   0  0  0  0  0  0  0  0  0  0  0  0
   28.8924   27.3690   50.7797 H   0  0  0  0  0  0  0  0  0  0  0  0
   27.2558   26.5581   48.5286 C   0  0  0  0  0  0  0  0  0  0  0  0
   27.1049   25.9574   47.1500 C   0  0  0  0  0  0  0  0  0  0  0  0
   26.8594   25.4541   49.5113 C   0  0  0  0  0  0  0  0  0  0  0  0
   26.2149   27.6516   48.6608 C   0  0  0  0  0  0  0  0  0  0  0  0
   26.1720   25.3357   47.1264 H   0  0  0  0  0  0  0  0  0  0  0  0
   27.9323   25.2756   46.8893 H   0  0  0  0  0  0  0  0  0  0  0  0
   26.9514   26.7510   46.3920 H   0  0  0  0  0  0  0  0  0  0  0  0
   25.8186   25.1421   49.2629 H   0  0  0  0  0  0  0  0  0  0  0  0
   26.9552   25.8457   50.5318 H   0  0  0  0  0  0  0  0  0  0  0  0
   27.5138   24.5705   49.3206 H   0  0  0  0  0  0  0  0  0  0  0  0
   26.1949   28.2680   47.7285 H   0  0  0  0  0  0  0  0  0  0  0  0
   25.1992   27.2490   48.8846 H   0  0  0  0  0  0  0  0  0  0  0  0
   26.4716   28.3336   49.5038 H   0  0  0  0  0  0  0  0  0  0  0  0
  1  3  1  0
  1  4  1  0
  1  2  1  0
  3  2  1  0
  5 10  2  0
  6  5  1  0
  7  8  1  0
  7  6  2  0
  8  9  2  0
  9  4  1  0
  9 10  1  0
 11  3  1  0
 12 11  2  0
 13 14  1  0
 13 11  1  0
 14 15  2  0
 15 16  1  0
 17 16  2  0
 18 14  1  0
 18 17  1  0
  1 19  1  6
  2 20  1  0
  2 21  1  0
  3 22  1  1
  4 23  1  0
  4 24  1  0
  5 25  1  0
  6 26  1  0
  7 27  1  0
 15 28  1  0
 16 29  1  0
 30 31  1  0
 30 32  1  0
 30 33  1  0
 31 34  1  0
 31 35  1  0
 31 36  1  0
 32 37  1  0
 32 38  1  0
 32 39  1  0
 33 40  1  0
 33 41  1  0
 33 42  1  0
 17 30  1  0
M  ISO  8  19  13  20  13  21  13  22  13  23   8  24   8  25  14  26  14
M  ISO  3  27  14  28  14  29  14
M  END
>  <DihAtoms>  (1) 
15,16,29,30

>  <DihDeg>  (1) 
0.0010029338439603679

$$$$
