REMARK  Name = 
REMARK  5 active torsions:
REMARK  status: ('A' for Active; 'I' for Inactive)
REMARK    1  A    between atoms: N_1  and  C_11
REMARK    2  A    between atoms: C_14  and  C_23
REMARK    3  A    between atoms: C_23  and  C_24
REMARK    4  A    between atoms: C_23  and  C_25
REMARK    5  A    between atoms: C_23  and  C_26
REMARK                            x       y       z     vdW  Elec       q    Type
REMARK                         _______ _______ _______ _____ _____    ______ ____
ROOT
ATOM      1  N   UNL     1      37.803  31.804  49.054  0.00  0.00    +0.000 N 
ATOM      2  C   UNL     1      38.200  33.033  49.466  0.00  0.00    +0.000 A 
ATOM      3  N   UNL     1      38.947  33.599  48.489  0.00  0.00    +0.000 NA
ATOM      4  C   UNL     1      39.002  32.712  47.486  0.00  0.00    +0.000 A 
ATOM      5  C   UNL     1      39.606  32.717  46.241  0.00  0.00    +0.000 A 
ATOM      6  N   UNL     1      39.503  31.674  45.407  0.00  0.00    +0.000 NA
ATOM      7  C   UNL     1      38.798  30.559  45.745  0.00  0.00    +0.000 A 
ATOM      8  N   UNL     1      38.214  30.563  46.956  0.00  0.00    +0.000 NA
ATOM      9  C   UNL     1      38.289  31.581  47.823  0.00  0.00    +0.000 A 
ATOM     10  N   UNL     1      40.352  33.851  45.838  0.00  0.00    +0.000 N 
ATOM     11  H   UNL     1      37.947  33.466  50.425  0.00  0.00    +0.000 HD
ATOM     12  H   UNL     1      38.748  29.753  45.040  0.00  0.00    +0.000 HD
ATOM     13  H   UNL     1      39.730  34.697  45.759  0.00  0.00    +0.000 HD
ATOM     14  H   UNL     1      41.381  33.934  45.624  0.00  0.00    +0.000 HD
ENDROOT
BRANCH   1  16
ATOM     15  C   UNL     1      35.688  30.666  49.393  0.00  0.00    +0.000 A 
ATOM     16  C   UNL     1      37.000  30.925  49.831  0.00  0.00    +0.000 A 
ATOM     17  C   UNL     1      37.404  30.291  51.002  0.00  0.00    +0.000 A 
ATOM     18  N   UNL     1      36.541  29.476  51.651  0.00  0.00    +0.000 NA
ATOM     19  C   UNL     1      35.295  29.246  51.210  0.00  0.00    +0.000 A 
ATOM     20  N   UNL     1      34.878  29.843  50.085  0.00  0.00    +0.000 NA
ATOM     21  H   UNL     1      35.262  31.112  48.481  0.00  0.00    +0.000 HD
ATOM     22  H   UNL     1      38.413  30.493  51.336  0.00  0.00    +0.000 HD
BRANCH  19  23
ATOM     23  C   UNL     1      34.344  28.350  51.921  0.00  0.00    +0.000 C 
ATOM     24  C   UNL     1      32.971  29.025  51.998  0.00  0.00    +0.000 C 
ATOM     25  C   UNL     1      34.117  27.065  51.133  0.00  0.00    +0.000 C 
ATOM     26  C   UNL     1      34.827  27.939  53.280  0.00  0.00    +0.000 C 
ENDBRANCH  19  23
ENDBRANCH   1  16
TORSDOF 2
