
 OpenBabel03252514083D

 48 52  0  0  0  0  0  0  0  0999 V2000
   32.0480   27.0820   47.4650 C   0  0  0  0  0  0  0  0  0  0  0  0
   34.1330   30.1070   47.5170 C   0  0  0  0  0  0  0  0  0  0  0  0
   35.1480   29.8170   48.4360 C   0  0  0  0  0  0  0  0  0  0  0  0
   35.0930   28.5690   49.0270 C   0  0  0  0  0  0  0  0  0  0  0  0
   34.0960   27.7220   48.6980 N   0  0  0  0  0  0  0  0  0  0  0  0
   33.1380   28.0210   47.8180 C   0  0  0  0  0  0  0  0  0  0  0  0
   33.1670   29.2150   47.2360 N   0  0  0  0  0  0  0  0  0  0  0  0
   34.1310   31.0740   47.0260 H   0  0  0  0  0  0  0  0  0  0  0  0
   35.8720   28.3310   49.7400 H   0  0  0  0  0  0  0  0  0  0  0  0
   36.1390   30.8100   48.6870 N   0  0  0  0  0  0  0  0  0  0  0  0
   36.2980   31.4450   49.8650 C   0  0  0  0  0  0  0  0  0  0  0  0
   37.3240   32.3160   49.7490 N   0  0  0  0  0  0  0  0  0  0  0  0
   37.7910   32.2110   48.4960 C   0  0  0  0  0  0  0  0  0  0  0  0
   38.8080   32.8350   47.8080 C   0  0  0  0  0  0  0  0  0  0  0  0
   39.0700   32.5330   46.5210 N   0  0  0  0  0  0  0  0  0  0  0  0
   38.3440   31.6030   45.8520 C   0  0  0  0  0  0  0  0  0  0  0  0
   37.3560   31.0040   46.5380 N   0  0  0  0  0  0  0  0  0  0  0  0
   37.0540   31.2680   47.8180 C   0  0  0  0  0  0  0  0  0  0  0  0
   35.6920   31.2740   50.7570 H   0  0  0  0  0  0  0  0  0  0  0  0
   38.5310   31.3390   44.8190 H   0  0  0  0  0  0  0  0  0  0  0  0
   39.5970   33.8100   48.4500 N   0  0  0  0  0  0  0  0  0  0  0  0
   40.4930   33.3180   48.6250 H   0  0  0  0  0  0  0  0  0  0  0  0
   39.2130   34.7550   48.6320 H   0  0  0  0  0  0  0  0  0  0  0  0
   31.1890   26.8030   48.7130 C   0  0  0  0  0  0  0  0  0  0  0  0
   30.3930   26.1200   48.3910 H   0  0  0  0  0  0  0  0  0  0  0  0
   31.8120   26.4220   49.5440 H   0  0  0  0  0  0  0  0  0  0  0  0
   30.7210   27.7590   49.0050 H   0  0  0  0  0  0  0  0  0  0  0  0
   31.0850   27.7290   46.4800 C   0  0  0  0  0  0  0  0  0  0  0  0
   30.3700   27.0030   46.0920 H   0  0  0  0  0  0  0  0  0  0  0  0
   30.6080   28.6290   46.9220 H   0  0  0  0  0  0  0  0  0  0  0  0
   31.7010   28.1130   45.6410 H   0  0  0  0  0  0  0  0  0  0  0  0
   32.5230   25.8030   46.8670 C   0  0  0  0  0  0  0  0  0  0  0  0
   31.9130   24.9890   47.3020 H   0  0  0  0  0  0  0  0  0  0  0  0
   33.5830   25.6490   47.1760 H   0  0  0  0  0  0  0  0  0  0  0  0
   32.4270   25.8280   45.4440 N   0  0  0  0  0  0  0  0  0  0  0  0
   31.4970   25.1570   44.7450 C   0  0  0  0  0  3  0  0  0  0  0  0
   31.6510   25.3710   43.4090 N   0  0  0  0  0  0  0  0  0  0  0  0
   32.7040   26.1980   43.2190 C   0  0  0  0  0  0  0  0  0  0  0  0
   33.3210   26.7530   42.1180 C   0  0  0  0  0  0  0  0  0  0  0  0
   32.8170   26.4390   41.0250 O   0  0  0  0  0  0  0  0  0  0  0  0
   34.3840   27.5630   42.2960 N   0  0  0  0  0  0  0  0  0  0  0  0
   34.7850   27.7860   43.5430 C   0  0  0  0  0  0  0  0  0  0  0  0
   35.9100   28.6470   43.6900 N   0  0  0  0  0  0  0  0  0  0  0  0
   34.2130   27.2680   44.6240 N   0  0  0  0  0  0  0  0  0  0  0  0
   33.1470   26.4530   44.4900 C   0  0  0  0  0  0  0  0  0  0  0  0
   34.7900   27.9400   41.4130 H   0  0  0  0  0  0  0  0  0  0  0  0
   36.5490   28.9210   42.9110 H   0  0  0  0  0  0  0  0  0  0  0  0
   36.3040   29.1440   44.5180 H   0  0  0  0  0  0  0  0  0  0  0  0
  1  6  1  0  0  0  0
  1 24  1  0  0  0  0
  2  3  1  0  0  0  0
  3 10  1  0  0  0  0
  3  4  2  0  0  0  0
  4  9  1  0  0  0  0
  5  4  1  0  0  0  0
  6  5  2  0  0  0  0
  7  2  2  0  0  0  0
  7  6  1  0  0  0  0
  8  2  1  0  0  0  0
 10 11  1  0  0  0  0
 11 19  1  0  0  0  0
 12 11  2  0  0  0  0
 13 12  1  0  0  0  0
 14 21  1  0  0  0  0
 14 13  2  0  0  0  0
 15 14  1  0  0  0  0
 16 15  2  0  0  0  0
 16 17  1  0  0  0  0
 17 18  2  0  0  0  0
 18 13  1  0  0  0  0
 18 10  1  0  0  0  0
 20 16  1  0  0  0  0
 21 22  1  0  0  0  0
 21 23  1  0  0  0  0
 24 27  1  0  0  0  0
 24 26  1  0  0  0  0
 25 24  1  0  0  0  0
 28 30  1  0  0  0  0
 28  1  1  0  0  0  0
 29 28  1  0  0  0  0
 31 28  1  0  0  0  0
 32 34  1  0  0  0  0
 32 33  1  0  0  0  0
 32  1  1  0  0  0  0
 35 32  1  0  0  0  0
 36 35  1  0  0  0  0
 37 36  2  0  0  0  0
 38 37  1  0  0  0  0
 38 45  2  0  0  0  0
 39 41  1  0  0  0  0
 39 38  1  0  0  0  0
 40 39  2  0  0  0  0
 41 42  1  0  0  0  0
 42 43  1  0  0  0  0
 42 44  2  0  0  0  0
 43 48  1  0  0  0  0
 45 44  1  0  0  0  0
 45 35  1  0  0  0  0
 46 41  1  0  0  0  0
 47 43  1  0  0  0  0
M  END
>  <minimizedAffinity>
-5.2186327

>  <minimizedRMSD>
2.11022878

$$$$
