
 OpenBabel03252511493D

 39 43  0  0  1  0  0  0  0  0999 V2000
   35.5100   30.3460   47.2600 C   0  0  0  0  0  0  0  0  0  0  0  0
   36.5800   30.5640   48.1130 C   0  0  0  0  0  0  0  0  0  0  0  0
   36.6720   29.6380   49.1970 C   0  0  0  0  0  0  0  0  0  0  0  0
   35.7500   28.6440   49.3250 N   0  0  0  0  0  0  0  0  0  0  0  0
   34.7390   28.5040   48.4510 C   0  0  0  0  0  0  0  0  0  0  0  0
   34.6340   29.3460   47.4410 N   0  0  0  0  0  0  0  0  0  0  0  0
   35.4690   31.0600   46.4550 H   0  0  0  0  0  0  0  0  0  0  0  0
   37.4460   29.6630   49.9560 H   0  0  0  0  0  0  0  0  0  0  0  0
   37.6040   31.5770   48.0750 C   0  0  0  0  0  0  0  0  0  0  0  0
   37.5600   32.3820   49.1670 C   0  0  0  0  0  0  0  0  0  0  0  0
   38.4630   33.4410   49.3500 C   0  0  0  0  0  0  0  0  0  0  0  0
   39.4250   33.6710   48.3900 C   0  0  0  0  0  0  0  0  0  0  0  0
   39.4540   32.8450   47.2910 C   0  0  0  0  0  0  0  0  0  0  0  0
   40.3930   32.9900   46.2510 C   0  0  0  0  0  0  0  0  0  0  0  0
   40.3800   32.1320   45.1670 C   0  0  0  0  0  0  0  0  0  0  0  0
   39.4700   31.1260   45.0610 C   0  0  0  0  0  0  0  0  0  0  0  0
   38.5390   30.9650   46.0690 C   0  0  0  0  0  0  0  0  0  0  0  0
   38.5630   31.8190   47.1360 C   0  0  0  0  0  0  0  0  0  0  0  0
   36.8670   32.3260   50.0000 H   0  0  0  0  0  0  0  0  0  0  0  0
   38.4590   34.1030   50.2050 H   0  0  0  0  0  0  0  0  0  0  0  0
   40.1660   34.4390   48.4080 H   0  0  0  0  0  0  0  0  0  0  0  0
   41.1180   33.7860   46.3300 H   0  0  0  0  0  0  0  0  0  0  0  0
   41.0980   32.2380   44.3660 H   0  0  0  0  0  0  0  0  0  0  0  0
   39.4810   30.4670   44.2010 H   0  0  0  0  0  0  0  0  0  0  0  0
   37.8100   30.1460   45.9680 H   0  0  0  0  0  0  0  0  0  0  0  0
   33.7760   27.3860   48.6580 C   0  0  1  0  0  0  0  0  0  0  0  0
   32.3100   27.6980   48.6040 C   0  0  0  0  0  0  0  0  0  0  0  0
   32.9620   26.8990   47.5100 C   0  0  2  0  0  0  0  0  0  0  0  0
   34.0670   26.6540   49.4400 H   0  0  0  0  0  0  0  0  0  0  0  0
   32.0770   28.7550   48.4450 H   0  0  0  0  0  0  0  0  0  0  0  0
   31.6510   27.1630   49.3180 H   0  0  0  0  0  0  0  0  0  0  0  0
   33.0350   27.4280   46.5300 H   0  0  0  0  0  0  0  0  0  0  0  0
   32.6850   25.1270   47.3510 S   0  0  0  0  0  0  0  0  0  0  0  0
   34.1700   24.4090   46.6150 C   0  0  0  0  0  0  0  0  0  0  0  0
   34.8130   24.8600   45.5420 N   0  0  0  0  0  0  0  0  0  0  0  0
   35.8370   24.0890   45.3070 O   0  0  0  0  0  0  0  0  0  0  0  0
   35.8710   23.1470   46.2010 C   0  0  0  0  0  0  0  0  0  0  0  0
   36.6900   22.4500   46.0910 H   0  0  0  0  0  0  0  0  0  0  0  0
   34.8490   23.3200   47.0260 N   0  0  0  0  0  0  0  0  0  0  0  0
  1  6  2  0  0  0  0
  1  2  1  0  0  0  0
  2  3  2  0  0  0  0
  3  4  1  0  0  0  0
  3  8  1  0  0  0  0
  5 26  1  0  0  0  0
  5  4  2  0  0  0  0
  6  5  1  0  0  0  0
  7  1  1  0  0  0  0
  9  2  1  0  0  0  0
  9 10  1  0  0  0  0
 10 11  2  0  0  0  0
 10 19  1  0  0  0  0
 11 20  1  0  0  0  0
 12 21  1  0  0  0  0
 12 11  1  0  0  0  0
 13 12  2  0  0  0  0
 14 22  1  0  0  0  0
 14 13  1  0  0  0  0
 15 14  2  0  0  0  0
 16 15  1  0  0  0  0
 16 17  2  0  0  0  0
 17 18  1  0  0  0  0
 18 13  1  0  0  0  0
 18  9  2  0  0  0  0
 23 15  1  0  0  0  0
 24 16  1  0  0  0  0
 25 17  1  0  0  0  0
 26 29  1  1  0  0  0
 27 26  1  0  0  0  0
 27 31  1  0  0  0  0
 28 32  1  6  0  0  0
 28 27  1  0  0  0  0
 28 26  1  0  0  0  0
 30 27  1  0  0  0  0
 33 28  1  0  0  0  0
 34 39  1  0  0  0  0
 34 33  1  0  0  0  0
 35 34  2  0  0  0  0
 36 35  1  0  0  0  0
 36 37  1  0  0  0  0
 37 39  2  0  0  0  0
 38 37  1  0  0  0  0
M  END
>  <minimizedAffinity>
-6.47058725

>  <minimizedRMSD>
0.309677899

$$$$
