
 OpenBabel03252514063D

 26 28  0  0  0  0  0  0  0  0999 V2000
   36.4150   30.9660   48.7490 N   0  0  0  0  0  0  0  0  0  0  0  0
   36.3900   31.7330   49.8670 C   0  0  0  0  0  0  0  0  0  0  0  0
   37.3690   32.6630   49.7780 N   0  0  0  0  0  0  0  0  0  0  0  0
   37.9880   32.4590   48.6070 C   0  0  0  0  0  0  0  0  0  0  0  0
   39.0470   33.0780   47.9670 C   0  0  0  0  0  0  0  0  0  0  0  0
   39.4800   32.6670   46.7690 N   0  0  0  0  0  0  0  0  0  0  0  0
   38.8980   31.6190   46.1220 C   0  0  0  0  0  0  0  0  0  0  0  0
   37.8700   31.0240   46.7510 N   0  0  0  0  0  0  0  0  0  0  0  0
   37.4020   31.3990   47.9480 C   0  0  0  0  0  0  0  0  0  0  0  0
   39.6890   34.1730   48.5940 N   0  0  0  0  0  0  0  0  0  0  0  0
   35.6900   31.6010   50.6810 H   0  0  0  0  0  0  0  0  0  0  0  0
   39.2840   31.3310   45.1650 H   0  0  0  0  0  0  0  0  0  0  0  0
   39.0240   34.9820   48.7040 H   0  0  0  0  0  0  0  0  0  0  0  0
   40.6830   34.2610   48.9350 H   0  0  0  0  0  0  0  0  0  0  0  0
   34.6550   29.9850   47.3990 C   0  0  0  0  0  0  0  0  0  0  0  0
   35.5220   29.8880   48.5030 C   0  0  0  0  0  0  0  0  0  0  0  0
   35.4300   28.7300   49.2700 C   0  0  0  0  0  0  0  0  0  0  0  0
   34.5340   27.7740   48.9290 N   0  0  0  0  0  0  0  0  0  0  0  0
   33.7200   27.8930   47.8700 C   0  0  0  0  0  0  0  0  0  0  0  0
   33.7860   28.9970   47.1130 N   0  0  0  0  0  0  0  0  0  0  0  0
   34.6410   30.8540   46.7240 H   0  0  0  0  0  0  0  0  0  0  0  0
   36.0980   28.6590   50.1180 H   0  0  0  0  0  0  0  0  0  0  0  0
   32.7350   26.8440   47.4930 C   0  0  0  0  0  0  0  0  0  0  0  0
   31.5370   26.9070   48.4440 C   0  0  0  0  0  1  0  0  0  0  0  0
   32.1620   27.1110   46.1060 C   0  0  0  0  0  1  0  0  0  0  0  0
   33.3270   25.4670   47.4530 C   0  0  0  0  0  1  0  0  0  0  0  0
  1  2  1  0  0  0  0
  2 11  1  0  0  0  0
  3  2  2  0  0  0  0
  4  3  1  0  0  0  0
  5 10  1  0  0  0  0
  5  4  1  0  0  0  0
  6  5  2  0  0  0  0
  7  8  2  0  0  0  0
  7  6  1  0  0  0  0
  8  9  1  0  0  0  0
  9  4  2  0  0  0  0
  9  1  1  0  0  0  0
 10 13  1  0  0  0  0
 10 14  1  0  0  0  0
 12  7  1  0  0  0  0
 15 16  1  0  0  0  0
 16  1  1  0  0  0  0
 16 17  2  0  0  0  0
 17 22  1  0  0  0  0
 18 17  1  0  0  0  0
 19 18  2  0  0  0  0
 20 15  2  0  0  0  0
 20 19  1  0  0  0  0
 21 15  1  0  0  0  0
 23 19  1  0  0  0  0
 23 24  1  0  0  0  0
 25 23  1  0  0  0  0
 26 23  1  0  0  0  0
M  END
>  <minimizedAffinity>
-5.53963423

>  <minimizedRMSD>
3.2059927

$$$$
