
 OpenBabel03252514063D

 26 28  0  0  0  0  0  0  0  0999 V2000
   36.4170   30.9820   48.7410 N   0  0  0  0  0  0  0  0  0  0  0  0
   36.3980   31.7400   49.8650 C   0  0  0  0  0  0  0  0  0  0  0  0
   37.3820   32.6660   49.7800 N   0  0  0  0  0  0  0  0  0  0  0  0
   37.9950   32.4680   48.6050 C   0  0  0  0  0  0  0  0  0  0  0  0
   39.0550   33.0880   47.9670 C   0  0  0  0  0  0  0  0  0  0  0  0
   39.4820   32.6840   46.7630 N   0  0  0  0  0  0  0  0  0  0  0  0
   38.8930   31.6450   46.1100 C   0  0  0  0  0  0  0  0  0  0  0  0
   37.8640   31.0490   46.7380 N   0  0  0  0  0  0  0  0  0  0  0  0
   37.4020   31.4160   47.9400 C   0  0  0  0  0  0  0  0  0  0  0  0
   39.7050   34.1750   48.6000 N   0  0  0  0  0  0  0  0  0  0  0  0
   35.7010   31.6040   50.6810 H   0  0  0  0  0  0  0  0  0  0  0  0
   39.2740   31.3630   45.1490 H   0  0  0  0  0  0  0  0  0  0  0  0
   39.0440   34.9860   48.7190 H   0  0  0  0  0  0  0  0  0  0  0  0
   40.7010   34.2550   48.9380 H   0  0  0  0  0  0  0  0  0  0  0  0
   34.6410   30.0230   47.3940 C   0  0  0  0  0  0  0  0  0  0  0  0
   35.5180   29.9090   48.4890 C   0  0  0  0  0  0  0  0  0  0  0  0
   35.4280   28.7420   49.2420 C   0  0  0  0  0  0  0  0  0  0  0  0
   34.5260   27.7950   48.8980 N   0  0  0  0  0  0  0  0  0  0  0  0
   33.7030   27.9290   47.8470 C   0  0  0  0  0  0  0  0  0  0  0  0
   33.7660   29.0420   47.1040 N   0  0  0  0  0  0  0  0  0  0  0  0
   34.6240   30.9010   46.7300 H   0  0  0  0  0  0  0  0  0  0  0  0
   36.1020   28.6590   50.0840 H   0  0  0  0  0  0  0  0  0  0  0  0
   32.7100   26.8880   47.4660 C   0  0  0  0  0  0  0  0  0  0  0  0
   32.2360   27.1400   46.0320 C   0  0  0  0  0  1  0  0  0  0  0  0
   33.3550   25.5080   47.4400 C   0  0  0  0  0  1  0  0  0  0  0  0
   31.5530   26.8030   48.4160 C   0  0  0  0  0  1  0  0  0  0  0  0
  1  2  1  0  0  0  0
  2 11  1  0  0  0  0
  3  2  2  0  0  0  0
  4  3  1  0  0  0  0
  5 10  1  0  0  0  0
  5  4  1  0  0  0  0
  6  5  2  0  0  0  0
  7  8  2  0  0  0  0
  7  6  1  0  0  0  0
  8  9  1  0  0  0  0
  9  4  2  0  0  0  0
  9  1  1  0  0  0  0
 10 13  1  0  0  0  0
 10 14  1  0  0  0  0
 12  7  1  0  0  0  0
 15 16  1  0  0  0  0
 16  1  1  0  0  0  0
 16 17  2  0  0  0  0
 17 22  1  0  0  0  0
 18 17  1  0  0  0  0
 19 18  2  0  0  0  0
 20 15  2  0  0  0  0
 20 19  1  0  0  0  0
 21 15  1  0  0  0  0
 23 19  1  0  0  0  0
 23 26  1  0  0  0  0
 24 23  1  0  0  0  0
 25 23  1  0  0  0  0
M  END
>  <minimizedAffinity>
-5.51504612

>  <minimizedRMSD>
3.20023394

$$$$
