
 OpenBabel03252514033D

 33 35  0  0  1  0  0  0  0  0999 V2000
   35.4080   29.4630   48.8900 C   0  0  2  0  0  0  0  0  0  0  0  0
   34.2720   29.4080   49.8030 C   0  0  0  0  0  0  0  0  0  0  0  0
   34.6440   28.1430   49.2380 C   0  0  1  0  0  0  0  0  0  0  0  0
   35.3830   29.6680   47.8220 H   0  0  0  0  0  0  0  0  0  0  0  0
   33.3340   29.9300   49.4640 H   0  0  0  0  0  0  0  0  0  0  0  0
   34.4820   29.6990   50.8660 H   0  0  0  0  0  0  0  0  0  0  0  0
   35.2910   27.3800   49.6670 H   0  0  0  0  0  0  0  0  0  0  0  0
   36.8030   29.4560   49.5340 C   0  0  0  0  0  0  0  0  0  0  0  0
   37.3500   28.5660   49.1640 H   0  0  0  0  0  0  0  0  0  0  0  0
   36.6930   29.3570   50.6180 H   0  0  0  0  0  0  0  0  0  0  0  0
   38.1310   32.8570   49.4550 C   0  0  0  0  0  0  0  0  0  0  0  0
   38.8330   32.8870   48.2350 C   0  0  0  0  0  0  0  0  0  0  0  0
   38.8350   31.7120   47.4490 C   0  0  0  0  0  0  0  0  0  0  0  0
   38.1580   30.6170   47.9170 N   0  0  0  0  0  0  0  0  0  0  0  0
   37.5050   30.6490   49.0940 C   0  0  0  0  0  0  0  0  0  0  0  0
   37.5010   31.7730   49.8480 N   0  0  0  0  0  0  0  0  0  0  0  0
   38.2000   33.8080   49.9670 H   0  0  0  0  0  0  0  0  0  0  0  0
   39.3900   33.6640   47.7680 H   0  0  0  0  0  0  0  0  0  0  0  0
   39.3420   31.6280   46.4970 H   0  0  0  0  0  0  0  0  0  0  0  0
   33.7180   27.6160   48.1600 C   0  0  0  0  0  0  0  0  0  0  0  0
   34.0390   26.4440   47.7310 O   0  0  0  0  0  0  0  0  0  0  0  0
   32.6050   28.2610   47.6350 O   0  0  0  0  0  0  0  0  0  0  0  0
   31.3250   28.0620   48.0760 C   0  0  0  0  0  0  0  0  0  0  0  0
   30.9420   27.7690   49.4790 C   0  0  0  0  0  0  0  0  0  0  0  0
   29.6310   27.6010   49.7540 C   0  0  0  0  0  0  0  0  0  0  0  0
   28.6470   27.6960   48.7530 C   0  0  0  0  0  0  0  0  0  0  0  0
   29.6310   28.0640   47.2240 S   0  0  0  0  0  0  0  0  0  0  0  0
   31.7350   27.7090   50.2000 H   0  0  0  0  0  0  0  0  0  0  0  0
   29.2580   27.3860   50.7400 H   0  0  0  0  0  0  0  0  0  0  0  0
   27.2860   27.5980   48.6260 C   0  0  0  0  0  0  0  0  0  0  0  0
   26.8140   26.1770   48.8240 C   0  0  0  0  0  1  0  0  0  0  0  0
   26.5440   28.4350   49.6720 C   0  0  0  0  0  1  0  0  0  0  0  0
   26.7840   28.0550   47.2710 C   0  0  0  0  0  1  0  0  0  0  0  0
  1  4  1  6  0  0  0
  1  3  1  0  0  0  0
  1  8  1  0  0  0  0
  1  2  1  0  0  0  0
  2  6  1  0  0  0  0
  3  7  1  1  0  0  0
  3  2  1  0  0  0  0
  5  2  1  0  0  0  0
  8 10  1  0  0  0  0
  9  8  1  0  0  0  0
 11 16  1  0  0  0  0
 11 17  1  0  0  0  0
 12 11  2  0  0  0  0
 13 14  2  0  0  0  0
 13 12  1  0  0  0  0
 14 15  1  0  0  0  0
 15  8  1  0  0  0  0
 15 16  2  0  0  0  0
 18 12  1  0  0  0  0
 19 13  1  0  0  0  0
 20  3  1  0  0  0  0
 21 20  2  0  0  0  0
 22 23  1  0  0  0  0
 22 20  1  0  0  0  0
 23 24  2  0  0  0  0
 24 25  1  0  0  0  0
 24 28  1  0  0  0  0
 25 29  1  0  0  0  0
 26 25  2  0  0  0  0
 27 23  1  0  0  0  0
 27 26  1  0  0  0  0
 30 26  1  0  0  0  0
 30 31  1  0  0  0  0
 30 32  1  0  0  0  0
 33 30  1  0  0  0  0
M  END
>  <minimizedAffinity>
-5.69430399

>  <minimizedRMSD>
0.590551198

$$$$
