
 OpenBabel03252513513D

 35 36  0  0  1  0  0  0  0  0999 V2000
   38.2700   31.5270   45.1580 C   0  0  0  0  0  0  0  0  0  0  0  0
   38.7210   32.6890   45.3360 O   0  0  0  0  0  0  0  0  0  0  0  0
   38.6710   30.9460   43.9310 N   0  0  0  0  0  0  0  0  0  0  0  0
   39.1180   29.5590   44.0270 C   0  0  0  0  0  0  0  0  0  0  0  0
   39.9380   29.1430   42.8350 C   0  0  0  0  0  0  0  0  0  0  0  0
   40.6290   30.2610   42.3810 O   0  0  0  0  0  0  0  0  0  0  0  0
   39.6770   31.0350   41.6990 C   0  0  0  0  0  0  0  0  0  0  0  0
   38.6620   31.6170   42.6460 C   0  0  1  0  0  0  0  0  0  0  0  0
   38.2510   28.8690   44.1530 H   0  0  0  0  0  0  0  0  0  0  0  0
   39.7530   29.4800   44.9220 H   0  0  0  0  0  0  0  0  0  0  0  0
   40.7470   28.4340   43.1810 H   0  0  0  0  0  0  0  0  0  0  0  0
   39.3910   28.5910   42.0630 H   0  0  0  0  0  0  0  0  0  0  0  0
   40.1620   31.8320   41.0960 H   0  0  0  0  0  0  0  0  0  0  0  0
   39.1970   30.3150   40.9930 H   0  0  0  0  0  0  0  0  0  0  0  0
   38.9700   32.6670   42.8350 H   0  0  0  0  0  0  0  0  0  0  0  0
   37.0400   30.0690   48.4080 C   0  0  0  0  0  0  0  0  0  0  0  0
   37.9210   30.6690   47.4420 C   0  0  0  0  0  0  0  0  0  0  0  0
   37.4270   30.9240   46.1710 C   0  0  0  0  0  0  0  0  0  0  0  0
   36.1330   30.5840   45.9280 N   0  0  0  0  0  0  0  0  0  0  0  0
   35.3330   30.0280   46.8420 C   0  0  0  0  0  0  0  0  0  0  0  0
   35.7780   29.7760   48.0560 N   0  0  0  0  0  0  0  0  0  0  0  0
   38.9450   30.9210   47.6840 H   0  0  0  0  0  0  0  0  0  0  0  0
   33.9500   29.7320   46.3810 C   0  0  0  0  0  0  0  0  0  0  0  0
   33.9570   29.4210   45.0070 F   0  0  0  0  0  0  0  0  0  0  0  0
   33.4850   28.6070   47.0250 F   0  0  0  0  0  0  0  0  0  0  0  0
   33.0730   30.7660   46.6430 F   0  0  0  0  0  0  0  0  0  0  0  0
   37.5510   29.8240   49.6660 O   0  0  0  0  0  0  0  0  0  0  0  0
   37.7250   30.7960   50.6480 C   0  0  0  0  0  0  0  0  0  0  0  0
   38.9730   31.3870   50.6410 F   0  0  0  0  0  0  0  0  0  0  0  0
   36.7530   31.7560   50.6850 F   0  0  0  0  0  0  0  0  0  0  0  0
   37.6400   30.0900   51.8660 F   0  0  0  0  0  0  0  0  0  0  0  0
   37.2790   31.6780   42.0500 C   0  0  0  0  0  0  0  0  0  0  0  0
   37.2760   31.9060   40.5640 C   0  0  0  0  0  0  0  0  0  0  0  0
   36.5220   30.3960   42.3250 C   0  0  0  0  0  0  0  0  0  0  0  0
   36.4560   32.7960   42.6510 C   0  0  0  0  0  0  0  0  0  0  0  0
  1  2  2  0  0  0  0
  1 18  1  0  0  0  0
  3  4  1  0  0  0  0
  3  1  1  0  0  0  0
  4  9  1  0  0  0  0
  4 10  1  0  0  0  0
  5 11  1  0  0  0  0
  5  4  1  0  0  0  0
  6  5  1  0  0  0  0
  7  6  1  0  0  0  0
  7  8  1  0  0  0  0
  8 15  1  1  0  0  0
  8  3  1  0  0  0  0
 12  5  1  0  0  0  0
 13  7  1  0  0  0  0
 14  7  1  0  0  0  0
 16 27  1  0  0  0  0
 17 22  1  0  0  0  0
 17 16  2  0  0  0  0
 18 17  1  0  0  0  0
 19 18  2  0  0  0  0
 19 20  1  0  0  0  0
 20 21  2  0  0  0  0
 21 16  1  0  0  0  0
 23 26  1  0  0  0  0
 23 20  1  0  0  0  0
 23 25  1  0  0  0  0
 24 23  1  0  0  0  0
 27 28  1  0  0  0  0
 28 30  1  0  0  0  0
 28 31  1  0  0  0  0
 29 28  1  0  0  0  0
 32 34  1  0  0  0  0
 32  8  1  0  0  0  0
 32 35  1  0  0  0  0
 33 32  1  0  0  0  0
M  END
>  <minimizedAffinity>
-6.00678587

>  <minimizedRMSD>
3.19744086

$$$$
