
 OpenBabel03252512003D

 29 31  0  0  0  0  0  0  0  0999 V2000
   37.9760   32.9180   48.9550 C   0  0  0  0  0  0  0  0  0  0  0  0
   36.9080   32.9400   48.7540 H   0  0  0  0  0  0  0  0  0  0  0  0
   38.2940   33.8430   49.4580 H   0  0  0  0  0  0  0  0  0  0  0  0
   38.7300   32.8790   47.6930 N   0  0  0  0  0  0  0  0  0  0  0  0
   39.8910   33.5230   47.4330 C   0  0  0  0  0  0  0  0  0  0  0  0
   40.3230   33.2860   46.1960 N   0  0  0  0  0  0  0  0  0  0  0  0
   39.4130   32.4580   45.6310 C   0  0  0  0  0  0  0  0  0  0  0  0
   39.2680   31.8520   44.4070 C   0  0  0  0  0  0  0  0  0  0  0  0
   40.1360   32.0430   43.5160 O   0  0  0  0  0  0  0  0  0  0  0  0
   38.2420   31.0550   44.0910 N   0  0  0  0  0  0  0  0  0  0  0  0
   37.3090   30.8480   45.0440 C   0  0  0  0  0  0  0  0  0  0  0  0
   36.1960   29.9970   44.7340 N   0  0  0  0  0  0  0  0  0  0  0  0
   37.3480   31.3910   46.2790 N   0  0  0  0  0  0  0  0  0  0  0  0
   38.4100   32.1950   46.5560 C   0  0  0  0  0  0  0  0  0  0  0  0
   38.1280   30.5870   43.1530 H   0  0  0  0  0  0  0  0  0  0  0  0
   35.4180   30.5320   44.2710 H   0  0  0  0  0  0  0  0  0  0  0  0
   36.0770   28.9660   44.9060 H   0  0  0  0  0  0  0  0  0  0  0  0
   38.4420   31.6800   49.7220 C   0  0  0  0  0  0  0  0  0  0  0  0
   39.1240   31.0650   49.1100 H   0  0  0  0  0  0  0  0  0  0  0  0
   38.9300   32.0650   50.6440 H   0  0  0  0  0  0  0  0  0  0  0  0
   37.3420   30.0690   51.2150 C   0  0  0  0  0  0  0  0  0  0  0  0
   37.2720   30.9090   50.0760 C   0  0  0  0  0  0  0  0  0  0  0  0
   36.0710   30.9330   49.3730 C   0  0  0  0  0  0  0  0  0  0  0  0
   35.0440   30.1550   49.8140 N   0  0  0  0  0  0  0  0  0  0  0  0
   35.1450   29.3640   50.9070 C   0  0  0  0  0  0  0  0  0  0  0  0
   36.3010   29.3230   51.6070 N   0  0  0  0  0  0  0  0  0  0  0  0
   38.2780   30.0450   51.7720 H   0  0  0  0  0  0  0  0  0  0  0  0
   35.9610   31.5420   48.5120 H   0  0  0  0  0  0  0  0  0  0  0  0
   34.2920   28.7710   51.2050 H   0  0  0  0  0  0  0  0  0  0  0  0
  1  3  1  0  0  0  0
  1 18  1  0  0  0  0
  2  1  1  0  0  0  0
  4  1  1  0  0  0  0
  5  4  1  0  0  0  0
  6  5  2  0  0  0  0
  7  6  1  0  0  0  0
  7 14  2  0  0  0  0
  8  7  1  0  0  0  0
  9  8  2  0  0  0  0
 10  8  1  0  0  0  0
 10 11  1  0  0  0  0
 11 13  2  0  0  0  0
 12 17  1  0  0  0  0
 12 11  1  0  0  0  0
 13 14  1  0  0  0  0
 14  4  1  0  0  0  0
 15 10  1  0  0  0  0
 16 12  1  0  0  0  0
 18 22  1  0  0  0  0
 18 20  1  0  0  0  0
 19 18  1  0  0  0  0
 21 26  1  0  0  0  0
 21 27  1  0  0  0  0
 22 21  2  0  0  0  0
 23 24  2  0  0  0  0
 23 22  1  0  0  0  0
 24 25  1  0  0  0  0
 25 29  1  0  0  0  0
 25 26  2  0  0  0  0
 28 23  1  0  0  0  0
M  END
>  <minimizedAffinity>
-5.16357851

>  <minimizedRMSD>
3.49096823

$$$$
