
 OpenBabel03252514083D

 48 52  0  0  0  0  0  0  0  0999 V2000
   33.3180   28.3640   46.8530 C   0  0  0  0  0  0  0  0  0  0  0  0
   32.2010   31.7010   45.7970 C   0  0  0  0  0  0  0  0  0  0  0  0
   32.0080   31.5850   44.4160 C   0  0  0  0  0  0  0  0  0  0  0  0
   32.2700   30.3430   43.8690 C   0  0  0  0  0  0  0  0  0  0  0  0
   32.6850   29.3390   44.6690 N   0  0  0  0  0  0  0  0  0  0  0  0
   32.8620   29.4750   45.9850 C   0  0  0  0  0  0  0  0  0  0  0  0
   32.6180   30.6590   46.5360 N   0  0  0  0  0  0  0  0  0  0  0  0
   32.0100   32.6560   46.2750 H   0  0  0  0  0  0  0  0  0  0  0  0
   32.1240   30.2390   42.8010 H   0  0  0  0  0  0  0  0  0  0  0  0
   31.5660   32.7320   43.6940 N   0  0  0  0  0  0  0  0  0  0  0  0
   32.3640   33.7540   43.3270 C   0  0  0  0  0  0  0  0  0  0  0  0
   31.6200   34.6650   42.6640 N   0  0  0  0  0  0  0  0  0  0  0  0
   30.3640   34.1960   42.6260 C   0  0  0  0  0  0  0  0  0  0  0  0
   29.1870   34.6770   42.0950 C   0  0  0  0  0  0  0  0  0  0  0  0
   28.0360   33.9850   42.2030 N   0  0  0  0  0  0  0  0  0  0  0  0
   27.9890   32.7880   42.8390 C   0  0  0  0  0  0  0  0  0  0  0  0
   29.1450   32.3340   43.3510 N   0  0  0  0  0  0  0  0  0  0  0  0
   30.3160   32.9820   43.2710 C   0  0  0  0  0  0  0  0  0  0  0  0
   33.4340   33.8210   43.5370 H   0  0  0  0  0  0  0  0  0  0  0  0
   27.0800   32.2090   42.9420 H   0  0  0  0  0  0  0  0  0  0  0  0
   29.1740   35.9150   41.4230 N   0  0  0  0  0  0  0  0  0  0  0  0
   29.1040   35.6470   40.4240 H   0  0  0  0  0  0  0  0  0  0  0  0
   29.2300   36.8000   41.9590 H   0  0  0  0  0  0  0  0  0  0  0  0
   33.8690   27.2230   45.9770 C   0  0  0  0  0  0  0  0  0  0  0  0
   34.2060   26.4410   46.6680 H   0  0  0  0  0  0  0  0  0  0  0  0
   33.1130   26.8900   45.2410 H   0  0  0  0  0  0  0  0  0  0  0  0
   34.7550   27.6170   45.4490 H   0  0  0  0  0  0  0  0  0  0  0  0
   34.5080   28.8010   47.6960 C   0  0  0  0  0  0  0  0  0  0  0  0
   34.7550   28.0520   48.4480 H   0  0  0  0  0  0  0  0  0  0  0  0
   35.3680   29.0870   47.0540 H   0  0  0  0  0  0  0  0  0  0  0  0
   34.2060   29.7390   48.2070 H   0  0  0  0  0  0  0  0  0  0  0  0
   32.2690   27.8490   47.7750 C   0  0  0  0  0  0  0  0  0  0  0  0
   31.9090   28.7040   48.3770 H   0  0  0  0  0  0  0  0  0  0  0  0
   32.7450   27.1120   48.4640 H   0  0  0  0  0  0  0  0  0  0  0  0
   31.2040   27.2290   47.0560 N   0  0  0  0  0  0  0  0  0  0  0  0
   31.1450   25.9130   46.7920 C   0  0  0  0  0  3  0  0  0  0  0  0
   30.0170   25.6110   46.0930 N   0  0  0  0  0  0  0  0  0  0  0  0
   29.3140   26.7480   45.8890 C   0  0  0  0  0  0  0  0  0  0  0  0
   28.1250   27.0620   45.2640 C   0  0  0  0  0  0  0  0  0  0  0  0
   27.5330   26.0930   44.7550 O   0  0  0  0  0  0  0  0  0  0  0  0
   27.7050   28.3420   45.2480 N   0  0  0  0  0  0  0  0  0  0  0  0
   28.4710   29.2490   45.8480 C   0  0  0  0  0  0  0  0  0  0  0  0
   27.9940   30.5900   45.8100 N   0  0  0  0  0  0  0  0  0  0  0  0
   29.6200   28.9810   46.4580 N   0  0  0  0  0  0  0  0  0  0  0  0
   30.0770   27.7130   46.4960 C   0  0  0  0  0  0  0  0  0  0  0  0
   26.7990   28.4920   44.7570 H   0  0  0  0  0  0  0  0  0  0  0  0
   27.2330   30.9290   45.1800 H   0  0  0  0  0  0  0  0  0  0  0  0
   28.2670   31.4420   46.3460 H   0  0  0  0  0  0  0  0  0  0  0  0
  1 28  1  0  0  0  0
  1 32  1  0  0  0  0
  2  8  1  0  0  0  0
  2  7  1  0  0  0  0
  3  2  2  0  0  0  0
  4  3  1  0  0  0  0
  4  5  2  0  0  0  0
  5  6  1  0  0  0  0
  6  7  2  0  0  0  0
  6  1  1  0  0  0  0
  9  4  1  0  0  0  0
 10  3  1  0  0  0  0
 11 19  1  0  0  0  0
 11 10  1  0  0  0  0
 12 11  2  0  0  0  0
 13 12  1  0  0  0  0
 13 18  1  0  0  0  0
 14 15  1  0  0  0  0
 14 13  2  0  0  0  0
 15 16  2  0  0  0  0
 16 20  1  0  0  0  0
 16 17  1  0  0  0  0
 18 17  2  0  0  0  0
 18 10  1  0  0  0  0
 21 23  1  0  0  0  0
 21 14  1  0  0  0  0
 22 21  1  0  0  0  0
 24 25  1  0  0  0  0
 24  1  1  0  0  0  0
 26 24  1  0  0  0  0
 27 24  1  0  0  0  0
 28 31  1  0  0  0  0
 28 29  1  0  0  0  0
 30 28  1  0  0  0  0
 32 33  1  0  0  0  0
 32 34  1  0  0  0  0
 35 32  1  0  0  0  0
 36 35  1  0  0  0  0
 37 36  2  0  0  0  0
 38 37  1  0  0  0  0
 38 45  2  0  0  0  0
 39 38  1  0  0  0  0
 40 39  2  0  0  0  0
 41 39  1  0  0  0  0
 41 42  1  0  0  0  0
 42 44  2  0  0  0  0
 43 42  1  0  0  0  0
 43 48  1  0  0  0  0
 44 45  1  0  0  0  0
 45 35  1  0  0  0  0
 46 41  1  0  0  0  0
 47 43  1  0  0  0  0
M  END
>  <minimizedAffinity>
-4.27316093

>  <minimizedRMSD>
7.46344805

$$$$
