
 OpenBabel03252513043D

 32 34  0  0  0  0  0  0  0  0999 V2000
   38.2180   31.8850   45.8890 N   0  0  0  0  0  0  0  0  0  0  0  0
   39.3420   32.5630   45.8290 C   0  0  0  0  0  0  0  0  0  0  0  0
   39.8440   33.1800   44.7180 C   0  0  0  0  0  0  0  0  0  0  0  0
   39.1450   33.1140   43.5340 C   0  0  0  0  0  0  0  0  0  0  0  0
   39.5360   33.6510   42.4770 O   0  0  0  0  0  0  0  0  0  0  0  0
   38.0150   32.4450   43.5580 N   0  0  0  0  0  0  0  0  0  0  0  0
   37.5570   31.8520   44.6760 C   0  0  0  0  0  0  0  0  0  0  0  0
   36.4540   31.2290   44.5900 O   0  0  0  0  0  0  0  0  0  0  0  0
   39.9090   32.6230   46.7630 H   0  0  0  0  0  0  0  0  0  0  0  0
   40.7820   33.7130   44.7740 H   0  0  0  0  0  0  0  0  0  0  0  0
   36.1750   31.8210   39.4130 H   0  0  0  0  0  0  0  0  0  0  0  0
   36.3260   32.0850   40.4120 N   0  0  0  0  0  0  0  0  0  0  0  0
   37.4240   31.8880   41.1210 N   0  0  0  0  0  0  0  0  0  0  0  0
   37.2560   32.3500   42.3530 C   0  0  0  0  0  0  0  0  0  0  0  0
   35.9730   32.8740   42.4340 C   0  0  0  0  0  0  0  0  0  0  0  0
   35.3900   32.6940   41.1770 C   0  0  0  0  0  0  0  0  0  0  0  0
   34.3810   32.9760   40.8370 H   0  0  0  0  0  0  0  0  0  0  0  0
   37.6030   31.2180   46.9640 C   0  0  0  0  0  0  0  0  0  0  0  0
   37.4370   30.1380   46.6710 H   0  0  0  0  0  0  0  0  0  0  0  0
   36.5620   31.6410   47.0700 H   0  0  0  0  0  0  0  0  0  0  0  0
   38.2430   31.2150   48.2860 C   0  0  0  0  0  0  0  0  0  0  0  0
   38.4820   32.2390   48.6110 H   0  0  0  0  0  0  0  0  0  0  0  0
   39.2400   30.6930   48.1930 H   0  0  0  0  0  0  0  0  0  0  0  0
   35.6870   29.1910   50.1870 C   0  0  0  0  0  0  0  0  0  0  0  0
   36.3650   29.8100   49.1100 C   0  0  0  0  0  0  0  0  0  0  0  0
   37.4930   30.5480   49.3560 C   0  0  0  0  0  0  0  0  0  0  0  0
   37.9120   30.6530   50.6420 N   0  0  0  0  0  0  0  0  0  0  0  0
   37.2890   30.0780   51.6670 C   0  0  0  0  0  0  0  0  0  0  0  0
   36.1840   29.3520   51.4490 N   0  0  0  0  0  0  0  0  0  0  0  0
   34.8100   28.6290   49.9130 H   0  0  0  0  0  0  0  0  0  0  0  0
   36.0340   29.7300   48.0830 H   0  0  0  0  0  0  0  0  0  0  0  0
   37.6250   30.1630   52.6920 H   0  0  0  0  0  0  0  0  0  0  0  0
  1 18  1  0  0  0  0
  2  1  1  0  0  0  0
  2  9  1  0  0  0  0
  3 10  1  0  0  0  0
  3  2  2  0  0  0  0
  4  6  1  0  0  0  0
  4  3  1  0  0  0  0
  5  4  2  0  0  0  0
  6  7  1  0  0  0  0
  7  1  1  0  0  0  0
  8  7  2  0  0  0  0
 11 12  1  0  0  0  0
 12 13  1  0  0  0  0
 12 16  1  0  0  0  0
 13 14  2  0  0  0  0
 14 15  1  0  0  0  0
 14  6  1  0  0  0  0
 16 15  2  0  0  0  0
 17 16  1  0  0  0  0
 18 20  1  0  0  0  0
 18 21  1  0  0  0  0
 19 18  1  0  0  0  0
 21 22  1  0  0  0  0
 21 26  1  0  0  0  0
 23 21  1  0  0  0  0
 24 29  1  0  0  0  0
 25 26  1  0  0  0  0
 25 24  2  0  0  0  0
 26 27  2  0  0  0  0
 27 28  1  0  0  0  0
 28 32  1  0  0  0  0
 29 28  2  0  0  0  0
 30 24  1  0  0  0  0
 31 25  1  0  0  0  0
M  END
>  <minimizedAffinity>
-5.39516973

>  <minimizedRMSD>
1.21665382

$$$$
