
 OpenBabel03252514003D

 34 37  0  0  1  0  0  0  0  0999 V2000
   35.4830   29.4160   49.0040 C   0  0  2  0  0  0  0  0  0  0  0  0
   34.4100   29.6090   49.9880 C   0  0  0  0  0  0  0  0  0  0  0  0
   34.6450   28.2420   49.5460 C   0  0  1  0  0  0  0  0  0  0  0  0
   35.3380   29.6840   47.9530 H   0  0  0  0  0  0  0  0  0  0  0  0
   33.4740   30.1400   49.6610 H   0  0  0  0  0  0  0  0  0  0  0  0
   34.6900   29.9460   51.0150 H   0  0  0  0  0  0  0  0  0  0  0  0
   35.2700   27.4680   50.0100 H   0  0  0  0  0  0  0  0  0  0  0  0
   36.9210   29.3590   49.5210 C   0  0  0  0  0  0  0  0  0  0  0  0
   36.8690   29.3660   50.6190 H   0  0  0  0  0  0  0  0  0  0  0  0
   37.3450   28.4160   49.1520 H   0  0  0  0  0  0  0  0  0  0  0  0
   38.4060   32.7070   49.3780 C   0  0  0  0  0  0  0  0  0  0  0  0
   38.9190   32.7700   48.0730 C   0  0  0  0  0  0  0  0  0  0  0  0
   38.7450   31.6410   47.2530 C   0  0  0  0  0  0  0  0  0  0  0  0
   38.0920   30.5560   47.7630 N   0  0  0  0  0  0  0  0  0  0  0  0
   37.6180   30.5480   49.0240 C   0  0  0  0  0  0  0  0  0  0  0  0
   37.7820   31.6270   49.8160 N   0  0  0  0  0  0  0  0  0  0  0  0
   38.5930   33.6220   49.9230 H   0  0  0  0  0  0  0  0  0  0  0  0
   39.4430   33.5620   47.5770 H   0  0  0  0  0  0  0  0  0  0  0  0
   39.0930   31.5580   46.2250 H   0  0  0  0  0  0  0  0  0  0  0  0
   33.5940   27.6830   48.6280 C   0  0  0  0  0  0  0  0  0  0  0  0
   33.9860   26.7170   47.8590 O   0  0  0  0  0  0  0  0  0  0  0  0
   32.2700   28.0900   48.5400 O   0  0  0  0  0  0  0  0  0  0  0  0
   31.5550   27.8590   47.3800 C   0  0  0  0  0  0  0  0  0  0  0  0
   30.7700   26.7480   47.2740 N   0  0  0  0  0  0  0  0  0  0  0  0
   30.0740   26.5110   46.1610 C   0  0  0  0  0  3  0  0  0  0  0  0
   30.1330   27.3730   45.1090 N   0  0  0  0  0  0  0  0  0  0  0  0
   30.9040   28.4640   45.2140 C   0  0  0  0  0  0  0  0  0  0  0  0
   30.9660   29.3430   44.1490 C   0  0  0  0  0  3  0  0  0  0  0  0
   31.7380   30.5030   44.1610 C   0  0  0  0  0  0  0  0  0  0  0  0
   31.7770   31.1820   43.3180 H   0  0  0  0  0  0  0  0  0  0  0  0
   32.4650   30.7670   45.3010 C   0  0  0  0  0  0  0  0  0  0  0  0
   33.0760   31.6610   45.3450 H   0  0  0  0  0  0  0  0  0  0  0  0
   32.4000   29.8820   46.3690 C   0  0  0  0  0  3  0  0  0  0  0  0
   31.6350   28.7460   46.3390 C   0  0  0  0  0  0  0  0  0  0  0  0
  1  4  1  6  0  0  0
  1  8  1  0  0  0  0
  1  3  1  0  0  0  0
  1  2  1  0  0  0  0
  2  6  1  0  0  0  0
  3  2  1  0  0  0  0
  3  7  1  1  0  0  0
  5  2  1  0  0  0  0
  8  9  1  0  0  0  0
 10  8  1  0  0  0  0
 11 16  1  0  0  0  0
 11 17  1  0  0  0  0
 12 11  2  0  0  0  0
 13 14  2  0  0  0  0
 13 12  1  0  0  0  0
 14 15  1  0  0  0  0
 15  8  1  0  0  0  0
 15 16  2  0  0  0  0
 18 12  1  0  0  0  0
 19 13  1  0  0  0  0
 20  3  1  0  0  0  0
 21 20  2  0  0  0  0
 22 20  1  0  0  0  0
 23 22  1  0  0  0  0
 24 23  1  0  0  0  0
 25 24  2  0  0  0  0
 26 27  2  0  0  0  0
 26 25  1  0  0  0  0
 27 34  1  0  0  0  0
 28 29  2  0  0  0  0
 28 27  1  0  0  0  0
 29 31  1  0  0  0  0
 30 29  1  0  0  0  0
 31 32  1  0  0  0  0
 31 33  2  0  0  0  0
 34 33  1  0  0  0  0
 34 23  2  0  0  0  0
M  END
>  <minimizedAffinity>
-5.18180323

>  <minimizedRMSD>
0.782813251

$$$$
