
 OpenBabel03252514013D

 34 37  0  0  1  0  0  0  0  0999 V2000
   35.2800   29.4150   49.0450 C   0  0  2  0  0  0  0  0  0  0  0  0
   34.2320   29.3850   50.0740 C   0  0  0  0  0  0  0  0  0  0  0  0
   34.4800   28.1370   49.3650 C   0  0  1  0  0  0  0  0  0  0  0  0
   35.0990   29.8800   48.0710 H   0  0  0  0  0  0  0  0  0  0  0  0
   33.2780   29.9470   49.8810 H   0  0  0  0  0  0  0  0  0  0  0  0
   34.5360   29.5210   51.1400 H   0  0  0  0  0  0  0  0  0  0  0  0
   35.1320   27.3030   49.6530 H   0  0  0  0  0  0  0  0  0  0  0  0
   36.7320   29.2910   49.5030 C   0  0  0  0  0  0  0  0  0  0  0  0
   36.7190   29.2280   50.6010 H   0  0  0  0  0  0  0  0  0  0  0  0
   37.1200   28.3650   49.0590 H   0  0  0  0  0  0  0  0  0  0  0  0
   38.1190   32.6840   49.4510 C   0  0  0  0  0  0  0  0  0  0  0  0
   38.7670   32.7420   48.2070 C   0  0  0  0  0  0  0  0  0  0  0  0
   38.7160   31.5940   47.3960 C   0  0  0  0  0  0  0  0  0  0  0  0
   38.0470   30.4970   47.8560 N   0  0  0  0  0  0  0  0  0  0  0  0
   37.4410   30.4950   49.0590 C   0  0  0  0  0  0  0  0  0  0  0  0
   37.4870   31.5920   49.8420 N   0  0  0  0  0  0  0  0  0  0  0  0
   38.2180   33.6140   49.9930 H   0  0  0  0  0  0  0  0  0  0  0  0
   39.3150   33.5420   47.7530 H   0  0  0  0  0  0  0  0  0  0  0  0
   39.1740   31.5050   46.4130 H   0  0  0  0  0  0  0  0  0  0  0  0
   33.4130   27.7450   48.3830 C   0  0  0  0  0  0  0  0  0  0  0  0
   33.5460   26.5670   47.8610 O   0  0  0  0  0  0  0  0  0  0  0  0
   32.3170   28.5060   48.0010 O   0  0  0  0  0  0  0  0  0  0  0  0
   31.1890   27.8850   47.4980 C   0  0  0  0  0  0  0  0  0  0  0  0
   31.1130   27.5840   46.1690 N   0  0  0  0  0  0  0  0  0  0  0  0
   30.0310   26.9850   45.6680 C   0  0  0  0  0  3  0  0  0  0  0  0
   28.9810   26.6630   46.4740 N   0  0  0  0  0  0  0  0  0  0  0  0
   29.0580   26.9600   47.7790 C   0  0  0  0  0  0  0  0  0  0  0  0
   27.9940   26.6340   48.5990 C   0  0  0  0  0  3  0  0  0  0  0  0
   27.9780   26.9010   49.9670 C   0  0  0  0  0  0  0  0  0  0  0  0
   27.1360   26.6400   50.5980 H   0  0  0  0  0  0  0  0  0  0  0  0
   29.0860   27.5180   50.5040 C   0  0  0  0  0  0  0  0  0  0  0  0
   29.1060   27.7410   51.5650 H   0  0  0  0  0  0  0  0  0  0  0  0
   30.1500   27.8440   49.6770 C   0  0  0  0  0  3  0  0  0  0  0  0
   30.1490   27.5740   48.3340 C   0  0  0  0  0  0  0  0  0  0  0  0
  1  4  1  6  0  0  0
  1  3  1  0  0  0  0
  1  8  1  0  0  0  0
  1  2  1  0  0  0  0
  2  6  1  0  0  0  0
  3  7  1  1  0  0  0
  3  2  1  0  0  0  0
  5  2  1  0  0  0  0
  8  9  1  0  0  0  0
 10  8  1  0  0  0  0
 11 16  1  0  0  0  0
 11 17  1  0  0  0  0
 12 11  2  0  0  0  0
 13 14  2  0  0  0  0
 13 12  1  0  0  0  0
 14 15  1  0  0  0  0
 15  8  1  0  0  0  0
 15 16  2  0  0  0  0
 18 12  1  0  0  0  0
 19 13  1  0  0  0  0
 20  3  1  0  0  0  0
 21 20  2  0  0  0  0
 22 20  1  0  0  0  0
 23 22  1  0  0  0  0
 23 34  1  0  0  0  0
 24 23  2  0  0  0  0
 25 24  1  0  0  0  0
 25 26  2  0  0  0  0
 26 27  1  0  0  0  0
 27 34  2  0  0  0  0
 27 28  1  0  0  0  0
 28 29  2  0  0  0  0
 29 31  1  0  0  0  0
 29 30  1  0  0  0  0
 31 32  1  0  0  0  0
 33 31  2  0  0  0  0
 34 33  1  0  0  0  0
M  END
>  <minimizedAffinity>
-6.02773523

>  <minimizedRMSD>
0.835956156

$$$$
