
 OpenBabel03252512483D

 45 49  0  0  1  0  0  0  0  0999 V2000
   38.6190   32.6250   44.6060 C   0  0  0  0  0  0  0  0  0  0  0  0
   37.9620   33.3450   45.1480 H   0  0  0  0  0  0  0  0  0  0  0  0
   39.1670   33.1930   43.8350 H   0  0  0  0  0  0  0  0  0  0  0  0
   37.8430   31.6070   43.9590 N   0  0  0  0  0  0  0  0  0  0  0  0
   36.5130   31.4310   43.8290 C   0  0  0  0  0  0  0  0  0  0  0  0
   36.3180   30.3020   43.1210 N   0  0  0  0  0  0  0  0  0  0  0  0
   37.4980   29.7430   42.7890 C   0  0  0  0  0  0  0  0  0  0  0  0
   37.8000   28.5970   42.0800 C   0  0  0  0  0  0  0  0  0  0  0  0
   36.9190   27.8390   41.5920 O   0  0  0  0  0  0  0  0  0  0  0  0
   39.0730   28.2640   41.8930 N   0  0  0  0  0  0  0  0  0  0  0  0
   40.0110   29.0720   42.4120 C   0  0  0  0  0  0  0  0  0  0  0  0
   41.3990   28.7610   42.2370 N   0  0  0  0  0  0  0  0  0  0  0  0
   39.7380   30.1970   43.1080 N   0  0  0  0  0  0  0  0  0  0  0  0
   38.4710   30.5720   43.3220 C   0  0  0  0  0  0  0  0  0  0  0  0
   35.8030   32.1290   44.2540 H   0  0  0  0  0  0  0  0  0  0  0  0
   41.6340   29.1790   41.2950 H   0  0  0  0  0  0  0  0  0  0  0  0
   42.0430   28.2470   42.8750 H   0  0  0  0  0  0  0  0  0  0  0  0
   39.6300   23.9330   40.7720 H   0  0  0  0  0  0  0  0  0  0  0  0
   39.7430   24.9850   40.6900 N   0  0  0  0  0  0  0  0  0  0  0  0
   39.2120   25.8420   41.5110 N   0  0  0  0  0  0  0  0  0  0  0  0
   39.5120   27.1120   41.1810 C   0  0  0  0  0  0  0  0  0  0  0  0
   40.2900   26.9640   40.0660 C   0  0  0  0  0  0  0  0  0  0  0  0
   40.4490   25.6340   39.7370 C   0  0  0  0  0  0  0  0  0  0  0  0
   40.9990   25.1860   38.9230 H   0  0  0  0  0  0  0  0  0  0  0  0
   39.6120   32.0610   45.6360 C   0  0  2  0  0  0  0  0  0  0  0  0
   39.7390   30.9850   45.4520 H   0  0  0  0  0  0  0  0  0  0  0  0
   37.7100   31.7020   48.7570 C   0  0  0  0  0  0  0  0  0  0  0  0
   38.1540   32.8900   49.3880 C   0  0  0  0  0  0  0  0  0  0  0  0
   39.3010   33.6430   48.1830 S   0  0  0  0  0  0  0  0  0  0  0  0
   38.9700   32.1660   46.9920 C   0  0  0  0  0  0  0  0  0  0  0  0
   38.2520   31.5570   47.5760 N   0  0  0  0  0  0  0  0  0  0  0  0
   37.8520   33.2680   50.4100 H   0  0  0  0  0  0  0  0  0  0  0  0
   37.0720   30.2840   50.6770 C   0  0  0  0  0  0  0  0  0  0  0  0
   36.7600   30.8390   49.4450 C   0  0  0  0  0  0  0  0  0  0  0  0
   35.4960   30.5190   48.9330 C   0  0  0  0  0  0  0  0  0  0  0  0
   34.6720   29.7190   49.6310 N   0  0  0  0  0  0  0  0  0  0  0  0
   35.0270   29.2040   50.8280 C   0  0  0  0  0  0  0  0  0  0  0  0
   36.2270   29.4910   51.3430 N   0  0  0  0  0  0  0  0  0  0  0  0
   38.0430   30.4930   51.1340 H   0  0  0  0  0  0  0  0  0  0  0  0
   35.2490   30.9540   47.9690 H   0  0  0  0  0  0  0  0  0  0  0  0
   34.3370   28.5630   51.3600 H   0  0  0  0  0  0  0  0  0  0  0  0
   40.8570   32.8570   45.6630 C   0  0  0  0  0  0  0  0  0  0  0  0
   41.6640   32.3160   46.1720 H   0  0  0  0  0  0  0  0  0  0  0  0
   40.6500   33.7770   46.2830 H   0  0  0  0  0  0  0  0  0  0  0  0
   41.2090   33.1390   44.6410 H   0  0  0  0  0  0  0  0  0  0  0  0
  1  2  1  0  0  0  0
  1 25  1  0  0  0  0
  3  1  1  0  0  0  0
  4  1  1  0  0  0  0
  5  4  1  0  0  0  0
  5 15  1  0  0  0  0
  6  5  2  0  0  0  0
  7  6  1  0  0  0  0
  7 14  2  0  0  0  0
  8  7  1  0  0  0  0
  9  8  2  0  0  0  0
 10  8  1  0  0  0  0
 10 11  1  0  0  0  0
 11 13  2  0  0  0  0
 12 11  1  0  0  0  0
 12 17  1  0  0  0  0
 13 14  1  0  0  0  0
 14  4  1  0  0  0  0
 16 12  1  0  0  0  0
 19 18  1  0  0  0  0
 19 20  1  0  0  0  0
 21 20  2  0  0  0  0
 21 10  1  0  0  0  0
 22 21  1  0  0  0  0
 23 22  2  0  0  0  0
 23 19  1  0  0  0  0
 24 23  1  0  0  0  0
 25 26  1  6  0  0  0
 25 42  1  0  0  0  0
 25 30  1  0  0  0  0
 27 28  2  0  0  0  0
 27 34  1  0  0  0  0
 28 32  1  0  0  0  0
 29 28  1  0  0  0  0
 30 31  2  0  0  0  0
 30 29  1  0  0  0  0
 31 27  1  0  0  0  0
 33 39  1  0  0  0  0
 33 38  1  0  0  0  0
 34 33  2  0  0  0  0
 35 34  1  0  0  0  0
 35 36  2  0  0  0  0
 36 37  1  0  0  0  0
 37 38  2  0  0  0  0
 37 41  1  0  0  0  0
 40 35  1  0  0  0  0
 42 43  1  0  0  0  0
 42 44  1  0  0  0  0
 45 42  1  0  0  0  0
M  END
>  <minimizedAffinity>
-6.60162401

>  <minimizedRMSD>
0.76134032

$$$$
