
     RDKit          3D

 42 45  0  0  0  0  0  0  0  0999 V2000
   36.4284   30.9567   48.7439 N   0  0  0  0  0  0  0  0  0  0  0  0
   36.3935   31.7270   49.8709 C   0  0  0  0  0  0  0  0  0  0  0  0
   37.3638   32.6628   49.7850 N   0  0  0  0  0  0  0  0  0  0  0  0
   37.9849   32.4618   48.6117 C   0  0  0  0  0  0  0  0  0  0  0  0
   39.0383   33.0854   47.9698 C   0  0  0  0  0  0  0  0  0  0  0  0
   39.4737   32.6697   46.7632 N   0  0  0  0  0  0  0  0  0  0  0  0
   38.8979   31.6211   46.1245 C   0  0  0  0  0  0  0  0  0  0  0  0
   37.8774   31.0205   46.7513 N   0  0  0  0  0  0  0  0  0  0  0  0
   37.4097   31.3963   47.9487 C   0  0  0  0  0  0  0  0  0  0  0  0
   39.6761   34.1801   48.5836 N   0  0  0  0  0  0  0  0  0  0  0  0
   34.6632   29.9812   47.4024 C   0  0  0  0  0  0  0  0  0  0  0  0
   35.5362   29.8741   48.5124 C   0  0  0  0  0  0  0  0  0  0  0  0
   35.4358   28.7214   49.2674 C   0  0  0  0  0  0  0  0  0  0  0  0
   34.5322   27.7729   48.9211 N   0  0  0  0  0  0  0  0  0  0  0  0
   33.7122   27.9035   47.8556 C   0  0  0  0  0  0  0  0  0  0  0  0
   33.7857   29.0031   47.1091 N   0  0  0  0  0  0  0  0  0  0  0  0
   32.7326   26.8575   47.4938 C   0  0  0  0  0  0  0  0  0  0  0  0
   31.5369   26.9080   48.4334 C   0  0  0  0  0  0  0  0  0  0  0  0
   32.1677   27.1108   46.1037 C   0  0  0  0  0  0  0  0  0  0  0  0
   33.3147   25.4662   47.4785 C   0  0  0  0  0  0  0  0  0  0  0  0
   35.7193   31.6413   50.7198 H   0  0  0  0  0  0  0  0  0  0  0  0
   39.2823   31.3247   45.1578 H   0  0  0  0  0  0  0  0  0  0  0  0
   40.1321   34.1253   49.5198 H   0  0  0  0  0  0  0  0  0  0  0  0
   39.8023   35.1650   48.2484 H   0  0  0  0  0  0  0  0  0  0  0  0
   34.6828   30.8626   46.7576 H   0  0  0  0  0  0  0  0  0  0  0  0
   36.1023   28.6561   50.1025 H   0  0  0  0  0  0  0  0  0  0  0  0
   30.7431   26.2862   47.9633 H   0  0  0  0  0  0  0  0  0  0  0  0
   31.8919   26.4110   49.3729 H   0  0  0  0  0  0  0  0  0  0  0  0
   31.2279   27.9542   48.6103 H   0  0  0  0  0  0  0  0  0  0  0  0
   32.1262   26.1839   45.4918 H   0  0  0  0  0  0  0  0  0  0  0  0
   32.7647   27.9252   45.6078 H   0  0  0  0  0  0  0  0  0  0  0  0
   31.1318   27.4985   46.1167 H   0  0  0  0  0  0  0  0  0  0  0  0
   33.6037   25.2397   48.5213 H   0  0  0  0  0  0  0  0  0  0  0  0
   32.4842   24.7828   47.2280 H   0  0  0  0  0  0  0  0  0  0  0  0
   34.3919   25.3418   46.5344 N   0  0  0  0  0  0  0  0  0  0  0  0
   35.0526   24.1942   46.3558 N   0  0  0  0  0  0  0  0  0  0  0  0
   35.9943   24.3397   45.4354 C   0  0  0  0  0  0  0  0  0  0  0  0
   36.6790   23.5494   45.1011 H   0  0  0  0  0  0  0  0  0  0  0  0
   35.9538   25.6606   44.9790 C   0  0  0  0  0  0  0  0  0  0  0  0
   34.9371   26.2446   45.6957 C   0  0  0  0  0  0  0  0  0  0  0  0
   34.6098   27.2694   45.6137 H   0  0  0  0  0  0  0  0  0  0  0  0
   36.5932   26.1013   44.2263 H   0  0  0  0  0  0  0  0  0  0  0  0
  1  2  1  0
  3  2  2  0
  4  3  1  0
  5 10  1  0
  5  4  2  0
  6  5  1  0
  7  8  1  0
  7  6  2  0
  8  9  2  0
  9  4  1  0
  9  1  1  0
 11 12  2  0
 12  1  1  0
 12 13  1  0
 14 13  2  0
 15 14  1  0
 16 11  1  0
 16 15  2  0
 17 15  1  0
 17 18  1  0
 19 17  1  0
 20 17  1  0
  2 21  1  0
  7 22  1  0
 10 23  1  0
 10 24  1  0
 11 25  1  0
 13 26  1  0
 18 27  1  0
 18 28  1  0
 18 29  1  0
 19 30  1  0
 19 31  1  0
 19 32  1  0
 20 33  1  0
 20 34  1  0
 35 36  1  0
 36 37  2  0
 37 38  1  0
 37 39  1  0
 39 40  2  0
 40 41  1  0
 40 35  1  0
 39 42  1  0
 20 35  1  0
M  ISO  8  21  14  22  14  25  14  26  14  27   8  28   8  29   8  30   8
M  ISO  6  31   8  32   8  33   8  34   8  38  14  41  14
M  END
>  <DihAtoms>  (1) 
16,19,34,35

>  <DihDeg>  (1) 
-90.0001696331517

$$$$
