
 OpenBabel03252512563D

 33 37  0  0  0  0  0  0  0  0999 V2000
   37.5760   33.0630   49.8380 C   0  0  0  0  0  0  0  0  0  0  0  0
   38.4150   33.2800   48.7420 C   0  0  0  0  0  0  0  0  0  0  0  0
   38.4160   32.3110   47.7420 C   0  0  0  0  0  0  0  0  0  0  0  0
   37.6190   31.2230   47.8700 N   0  0  0  0  0  0  0  0  0  0  0  0
   36.8280   31.0560   48.9420 C   0  0  0  0  0  0  0  0  0  0  0  0
   36.7990   31.9770   49.9370 N   0  0  0  0  0  0  0  0  0  0  0  0
   37.5780   33.8240   50.6170 H   0  0  0  0  0  0  0  0  0  0  0  0
   39.0590   34.1390   48.6140 H   0  0  0  0  0  0  0  0  0  0  0  0
   36.0020   29.8830   49.0310 N   0  0  0  0  0  0  0  0  0  0  0  0
   36.0210   28.7710   49.7890 C   0  0  0  0  0  0  0  0  0  0  0  0
   34.9720   28.0090   49.4160 N   0  0  0  0  0  0  0  0  0  0  0  0
   34.3030   28.6390   48.4330 C   0  0  0  0  0  0  0  0  0  0  0  0
   33.1720   28.2310   47.7550 C   0  0  0  0  0  0  0  0  0  0  0  0
   32.6830   29.0330   46.8080 N   0  0  0  0  0  0  0  0  0  0  0  0
   33.2950   30.2060   46.5400 C   0  0  0  0  0  0  0  0  0  0  0  0
   34.3980   30.6020   47.2010 N   0  0  0  0  0  0  0  0  0  0  0  0
   34.9470   29.8390   48.1720 C   0  0  0  0  0  0  0  0  0  0  0  0
   39.2690   32.4580   46.5520 C   0  0  0  0  0  0  0  0  0  0  0  0
   40.2330   33.3220   46.1990 N   0  0  0  0  0  0  0  0  0  0  0  0
   40.6920   33.0190   45.0180 O   0  0  0  0  0  0  0  0  0  0  0  0
   40.0450   31.9670   44.5890 C   0  0  0  0  0  0  0  0  0  0  0  0
   39.1310   31.5670   45.5180 N   0  0  0  0  0  0  0  0  0  0  0  0
   40.2150   31.2840   43.3420 N   0  0  0  0  0  0  0  0  0  0  0  0
   39.8940   31.8560   42.1680 N   0  0  0  0  0  0  0  0  0  0  0  0
   40.1670   30.9710   41.1850 C   0  0  0  0  0  0  0  0  0  0  0  0
   40.6700   29.8240   41.7930 C   0  0  0  0  0  0  0  0  0  0  0  0
   40.6970   30.0340   43.1700 C   0  0  0  0  0  0  0  0  0  0  0  0
   40.0560   31.0340   40.1210 H   0  0  0  0  0  0  0  0  0  0  0  0
   40.9960   28.9070   41.3180 H   0  0  0  0  0  0  0  0  0  0  0  0
   41.0280   29.3540   43.9290 H   0  0  0  0  0  0  0  0  0  0  0  0
   32.4880   27.0150   47.9900 N   0  0  0  0  0  0  0  0  0  0  0  0
   32.4080   26.0670   47.5680 H   0  0  0  0  0  0  0  0  0  0  0  0
   31.9790   27.3290   48.8440 H   0  0  0  0  0  0  0  0  0  0  0  0
  1  6  1  0  0  0  0
  1  7  1  0  0  0  0
  2  1  2  0  0  0  0
  3  4  2  0  0  0  0
  3  2  1  0  0  0  0
  4  5  1  0  0  0  0
  5  9  1  0  0  0  0
  5  6  2  0  0  0  0
  8  2  1  0  0  0  0
  9 10  1  0  0  0  0
 11 10  2  0  0  0  0
 12 11  1  0  0  0  0
 13 31  1  0  0  0  0
 13 12  2  0  0  0  0
 14 13  1  0  0  0  0
 15 14  2  0  0  0  0
 15 16  1  0  0  0  0
 16 17  2  0  0  0  0
 17 12  1  0  0  0  0
 17  9  1  0  0  0  0
 18  3  1  0  0  0  0
 19 18  2  0  0  0  0
 20 19  1  0  0  0  0
 21 20  1  0  0  0  0
 21 22  2  0  0  0  0
 22 18  1  0  0  0  0
 23 21  1  0  0  0  0
 24 23  1  0  0  0  0
 25 26  1  0  0  0  0
 25 24  2  0  0  0  0
 26 27  2  0  0  0  0
 27 23  1  0  0  0  0
 27 30  1  0  0  0  0
 28 25  1  0  0  0  0
 29 26  1  0  0  0  0
 31 33  1  0  0  0  0
 32 31  1  0  0  0  0
M  END
>  <minimizedAffinity>
-7.3048377

>  <minimizedRMSD>
2.09809875

$$$$
