
 OpenBabel03252510523D

 39 44  0  0  1  0  0  0  0  0999 V2000
   35.0330   30.4120   47.3760 C   0  0  0  0  0  0  0  0  0  0  0  0
   36.1830   30.2620   48.1220 C   0  0  0  0  0  0  0  0  0  0  0  0
   36.1890   29.3220   49.1540 C   0  0  0  0  0  0  0  0  0  0  0  0
   35.0310   28.6090   49.3520 N   0  0  0  0  0  0  0  0  0  0  0  0
   33.9420   28.7770   48.6190 C   0  0  0  0  0  0  0  0  0  0  0  0
   33.9400   29.6760   47.6300 N   0  0  0  0  0  0  0  0  0  0  0  0
   35.0440   31.1460   46.5770 H   0  0  0  0  0  0  0  0  0  0  0  0
   37.0380   29.1390   49.7830 H   0  0  0  0  0  0  0  0  0  0  0  0
   37.3340   31.0250   47.8630 N   0  0  0  0  0  0  0  0  0  0  0  0
   37.8330   32.0030   48.6370 C   0  0  0  0  0  0  0  0  0  0  0  0
   38.9450   32.5330   48.1030 N   0  0  0  0  0  0  0  0  0  0  0  0
   39.1780   31.8800   46.9460 C   0  0  0  0  0  0  0  0  0  0  0  0
   40.1300   31.9570   45.9750 C   0  0  0  0  0  0  0  0  0  0  0  0
   40.1510   31.1720   44.8790 N   0  0  0  0  0  0  0  0  0  0  0  0
   39.1390   30.2590   44.7760 C   0  0  0  0  0  0  0  0  0  0  0  0
   38.2080   30.1880   45.7300 N   0  0  0  0  0  0  0  0  0  0  0  0
   38.1560   30.9440   46.8210 C   0  0  0  0  0  0  0  0  0  0  0  0
   37.3900   32.3250   49.5780 H   0  0  0  0  0  0  0  0  0  0  0  0
   40.8980   32.7030   46.1270 H   0  0  0  0  0  0  0  0  0  0  0  0
   39.0740   29.5840   43.9280 H   0  0  0  0  0  0  0  0  0  0  0  0
   32.7270   27.9480   48.9270 C   0  0  2  0  0  0  0  0  0  0  0  0
   32.4850   26.8360   47.8490 C   0  0  0  0  0  0  0  0  0  0  0  0
   31.5620   27.9600   48.0280 C   0  0  1  0  0  0  0  0  0  0  0  0
   32.6860   27.5370   49.9490 H   0  0  0  0  0  0  0  0  0  0  0  0
   33.1730   26.8070   46.9950 H   0  0  0  0  0  0  0  0  0  0  0  0
   32.1970   25.8430   48.2100 H   0  0  0  0  0  0  0  0  0  0  0  0
   31.5870   28.7290   47.2070 H   0  0  0  0  0  0  0  0  0  0  0  0
   30.2690   27.7980   48.6640 N   0  0  0  0  0  0  0  0  0  0  0  0
   30.0870   26.9490   49.7120 C   0  0  0  0  0  0  0  0  0  0  0  0
   28.7780   27.0320   50.0720 N   0  0  0  0  0  0  0  0  0  0  0  0
   28.1650   27.9220   49.2540 C   0  0  0  0  0  0  0  0  0  0  0  0
   26.8810   28.4140   49.1320 C   0  0  0  0  0  0  0  0  0  0  0  0
   26.5700   29.3310   48.1770 N   0  0  0  0  0  0  0  0  0  0  0  0
   27.5150   29.7790   47.3300 C   0  0  0  0  0  0  0  0  0  0  0  0
   28.7770   29.3180   47.4250 N   0  0  0  0  0  0  0  0  0  0  0  0
   29.1160   28.4050   48.3640 C   0  0  0  0  0  0  0  0  0  0  0  0
   25.8930   27.9300   50.0350 N   0  0  0  0  0  0  0  0  0  0  0  0
   25.0600   27.2960   50.0250 H   0  0  0  0  0  0  0  0  0  0  0  0
   26.0650   28.3390   50.9940 H   0  0  0  0  0  0  0  0  0  0  0  0
  1  6  2  0  0  0  0
  1  2  1  0  0  0  0
  2  3  2  0  0  0  0
  3  4  1  0  0  0  0
  3  8  1  0  0  0  0
  5 21  1  0  0  0  0
  5  4  2  0  0  0  0
  6  5  1  0  0  0  0
  7  1  1  0  0  0  0
  9  2  1  0  0  0  0
  9 10  1  0  0  0  0
 10 18  1  0  0  0  0
 11 10  2  0  0  0  0
 12 11  1  0  0  0  0
 13 19  1  0  0  0  0
 13 12  2  0  0  0  0
 14 13  1  0  0  0  0
 15 14  2  0  0  0  0
 15 16  1  0  0  0  0
 16 17  2  0  0  0  0
 17 12  1  0  0  0  0
 17  9  1  0  0  0  0
 20 15  1  0  0  0  0
 21 24  1  1  0  0  0
 22 23  1  0  0  0  0
 22 26  1  0  0  0  0
 22 21  1  0  0  0  0
 23 27  1  6  0  0  0
 23 28  1  0  0  0  0
 23 21  1  0  0  0  0
 25 22  1  0  0  0  0
 28 29  1  0  0  0  0
 29 30  2  0  0  0  0
 31 30  1  0  0  0  0
 32 31  1  0  0  0  0
 32 37  1  0  0  0  0
 33 32  2  0  0  0  0
 34 35  2  0  0  0  0
 34 33  1  0  0  0  0
 35 36  1  0  0  0  0
 36 28  1  0  0  0  0
 36 31  2  0  0  0  0
 37 39  1  0  0  0  0
 38 37  1  0  0  0  0
M  END
>  <minimizedAffinity>
-7.3817482

>  <minimizedRMSD>
1.30232394

$$$$
