
 OpenBabel03252510413D

 41 45  0  0  0  0  0  0  0  0999 V2000
   37.1840   29.3120   49.9990 C   0  0  0  0  0  0  0  0  0  0  0  0
   38.0790   30.2140   49.3860 C   0  0  0  0  0  0  0  0  0  0  0  0
   37.5230   31.2710   48.5870 C   0  0  0  0  0  0  0  0  0  0  0  0
   36.1400   31.2920   48.5020 N   0  0  0  0  0  0  0  0  0  0  0  0
   35.3370   30.4220   49.0970 C   0  0  0  0  0  0  0  0  0  0  0  0
   35.8380   29.4390   49.8400 N   0  0  0  0  0  0  0  0  0  0  0  0
   38.3260   32.2140   47.9410 N   0  0  0  0  0  0  0  0  0  0  0  0
   38.9250   33.2900   48.7610 C   0  0  0  0  0  0  0  0  0  0  0  0
   40.1100   33.8650   48.0860 C   0  0  0  0  0  0  0  0  0  0  0  0
   39.8950   34.1290   46.6580 N   0  0  0  0  0  0  0  0  0  0  0  0
   39.3300   33.0810   45.9050 C   0  0  0  0  0  0  0  0  0  0  0  0
   38.5030   32.0650   46.5650 C   0  0  0  0  0  0  0  0  0  0  0  0
   37.6680   28.5250   50.5990 H   0  0  0  0  0  0  0  0  0  0  0  0
   39.1330   30.1490   49.4870 H   0  0  0  0  0  0  0  0  0  0  0  0
   34.2660   30.5330   48.9630 H   0  0  0  0  0  0  0  0  0  0  0  0
   39.2900   32.7620   49.6800 H   0  0  0  0  0  0  0  0  0  0  0  0
   38.1700   34.0170   49.0650 H   0  0  0  0  0  0  0  0  0  0  0  0
   41.0310   33.2840   48.2520 H   0  0  0  0  0  0  0  0  0  0  0  0
   40.2910   34.8870   48.5250 H   0  0  0  0  0  0  0  0  0  0  0  0
   40.1070   35.0000   46.1210 H   0  0  0  0  0  0  0  0  0  0  0  0
   39.4780   32.9880   44.8600 H   0  0  0  0  0  0  0  0  0  0  0  0
   38.0250   31.1040   45.6710 N   0  0  0  0  0  0  0  0  0  0  0  0
   36.8050   30.5950   45.6520 C   0  0  0  0  0  0  0  0  0  0  0  0
   36.6120   29.6730   44.6670 C   0  0  0  0  0  0  0  0  0  0  0  0
   37.7890   29.5930   44.0180 N   0  0  0  0  0  0  0  0  0  0  0  0
   38.6520   30.4790   44.6460 C   0  0  0  0  0  0  0  0  0  0  0  0
   35.9730   30.8410   46.3310 H   0  0  0  0  0  0  0  0  0  0  0  0
   35.7400   29.0930   44.4000 H   0  0  0  0  0  0  0  0  0  0  0  0
   39.9800   30.6990   44.2770 O   0  0  0  0  0  0  0  0  0  0  0  0
   40.3630   30.4710   42.9710 C   0  0  0  0  0  0  0  0  0  0  0  0
   41.1940   29.4540   42.6760 N   0  0  0  0  0  0  0  0  0  0  0  0
   41.5980   29.1860   41.4160 C   0  0  0  0  0  0  0  0  0  0  0  0
   41.1410   29.9840   40.4210 N   0  0  0  0  0  0  0  0  0  0  0  0
   40.3050   31.0190   40.6690 C   0  0  0  0  0  0  0  0  0  0  0  0
   39.8380   31.8340   39.6570 C   0  0  0  0  0  0  0  0  0  0  0  0
   38.9840   32.8920   39.8930 C   0  0  0  0  0  0  0  0  0  0  0  0
   38.7000   33.4430   39.0040 H   0  0  0  0  0  0  0  0  0  0  0  0
   38.5990   33.1270   41.1830 C   0  0  0  0  0  0  0  0  0  0  0  0
   37.9300   33.9670   41.3210 H   0  0  0  0  0  0  0  0  0  0  0  0
   39.0450   32.3350   42.2260 C   0  0  0  0  0  0  0  0  0  0  0  0
   39.9020   31.2770   41.9620 C   0  0  0  0  0  0  0  0  0  0  0  0
  1 13  1  0  0  0  0
  2 14  1  0  0  0  0
  2  1  2  0  0  0  0
  3  2  1  0  0  0  0
  4  3  2  0  0  0  0
  4  5  1  0  0  0  0
  5  6  2  0  0  0  0
  6  1  1  0  0  0  0
  7  3  1  0  0  0  0
  7  8  1  0  0  0  0
  8 17  1  0  0  0  0
  8 16  1  0  0  0  0
  9 18  1  0  0  0  0
  9 19  1  0  0  0  0
  9  8  1  0  0  0  0
 10  9  1  0  0  0  0
 11 12  2  0  0  0  0
 11 10  1  0  0  0  0
 12  7  1  0  0  0  0
 15  5  1  0  0  0  0
 20 10  1  0  0  0  0
 21 11  1  0  0  0  0
 22 12  1  0  0  0  0
 23 22  1  0  0  0  0
 23 27  1  0  0  0  0
 24 23  2  0  0  0  0
 25 26  2  0  0  0  0
 25 24  1  0  0  0  0
 26 22  1  0  0  0  0
 28 24  1  0  0  0  0
 29 26  1  0  0  0  0
 30 29  1  0  0  0  0
 31 30  1  0  0  0  0
 32 31  2  0  0  0  0
 33 34  2  0  0  0  0
 33 32  1  0  0  0  0
 34 41  1  0  0  0  0
 35 36  2  0  0  0  0
 35 34  1  0  0  0  0
 36 38  1  0  0  0  0
 37 36  1  0  0  0  0
 38 39  1  0  0  0  0
 38 40  2  0  0  0  0
 41 40  1  0  0  0  0
 41 30  2  0  0  0  0
M  END
>  <minimizedAffinity>
-5.47187281

>  <minimizedRMSD>
2.59100509

$$$$
