
 OpenBabel03252513573D

 31 34  0  0  1  0  0  0  0  0999 V2000
   35.3010   29.4140   49.1010 C   0  0  2  0  0  0  0  0  0  0  0  0
   34.1900   29.5760   50.0870 C   0  0  0  0  0  0  0  0  0  0  0  0
   34.4100   28.2510   49.4560 C   0  0  1  0  0  0  0  0  0  0  0  0
   35.1960   29.8260   48.0680 H   0  0  0  0  0  0  0  0  0  0  0  0
   34.5310   29.7400   51.1370 H   0  0  0  0  0  0  0  0  0  0  0  0
   33.4150   30.2830   49.7980 H   0  0  0  0  0  0  0  0  0  0  0  0
   34.8280   27.4740   50.1590 H   0  0  0  0  0  0  0  0  0  0  0  0
   33.4750   27.7670   48.4490 N   0  0  0  0  0  0  0  0  0  0  0  0
   33.8950   27.3500   47.2260 C   0  0  0  0  0  3  0  0  0  0  0  0
   32.8080   26.9610   46.5130 N   0  0  0  0  0  0  0  0  0  0  0  0
   31.7410   27.1390   47.2920 C   0  0  0  0  0  0  0  0  0  0  0  0
   30.3820   26.9420   47.1650 C   0  0  0  0  0  0  0  0  0  0  0  0
   29.4870   27.2190   48.1560 N   0  0  0  0  0  0  0  0  0  0  0  0
   29.9460   27.7180   49.3410 C   0  0  0  0  0  3  0  0  0  0  0  0
   31.2710   27.9180   49.4860 N   0  0  0  0  0  0  0  0  0  0  0  0
   32.1290   27.6440   48.5130 C   0  0  0  0  0  0  0  0  0  0  0  0
   29.8510   26.4230   45.9500 N   0  0  0  0  0  0  0  0  0  0  0  0
   29.9940   25.3720   46.0120 H   0  0  0  0  0  0  0  0  0  0  0  0
   29.3970   26.6240   45.0510 H   0  0  0  0  0  0  0  0  0  0  0  0
   36.7240   29.3000   49.6120 C   0  0  0  0  0  0  0  0  0  0  0  0
   36.7180   29.2280   50.7160 H   0  0  0  0  0  0  0  0  0  0  0  0
   37.1780   28.4000   49.1460 H   0  0  0  0  0  0  0  0  0  0  0  0
   38.3030   32.6180   49.4220 C   0  0  0  0  0  0  0  0  0  0  0  0
   38.8450   32.6440   48.1210 C   0  0  0  0  0  0  0  0  0  0  0  0
   38.6530   31.5040   47.3310 C   0  0  0  0  0  0  0  0  0  0  0  0
   37.9610   30.4490   47.8550 N   0  0  0  0  0  0  0  0  0  0  0  0
   37.4580   30.4770   49.1190 C   0  0  0  0  0  0  0  0  0  0  0  0
   37.6310   31.5630   49.9000 N   0  0  0  0  0  0  0  0  0  0  0  0
   38.4280   33.4740   50.0650 H   0  0  0  0  0  0  0  0  0  0  0  0
   39.3840   33.5020   47.7540 H   0  0  0  0  0  0  0  0  0  0  0  0
   39.0460   31.4610   46.3190 H   0  0  0  0  0  0  0  0  0  0  0  0
  1  4  1  6  0  0  0
  1  3  1  0  0  0  0
  1 20  1  0  0  0  0
  1  2  1  0  0  0  0
  2  5  1  0  0  0  0
  3  2  1  0  0  0  0
  3  7  1  1  0  0  0
  6  2  1  0  0  0  0
  8 16  1  0  0  0  0
  8  3  1  0  0  0  0
  9  8  1  0  0  0  0
 10  9  2  0  0  0  0
 10 11  1  0  0  0  0
 11 16  1  0  0  0  0
 12 11  2  0  0  0  0
 12 13  1  0  0  0  0
 13 14  2  0  0  0  0
 14 15  1  0  0  0  0
 16 15  2  0  0  0  0
 17 18  1  0  0  0  0
 17 12  1  0  0  0  0
 19 17  1  0  0  0  0
 20 21  1  0  0  0  0
 22 20  1  0  0  0  0
 23 28  1  0  0  0  0
 23 29  1  0  0  0  0
 24 23  2  0  0  0  0
 25 26  2  0  0  0  0
 25 24  1  0  0  0  0
 26 27  1  0  0  0  0
 27 20  1  0  0  0  0
 27 28  2  0  0  0  0
 30 24  1  0  0  0  0
 31 25  1  0  0  0  0
M  END
>  <minimizedAffinity>
-5.40741396

>  <minimizedRMSD>
0.588271558

$$$$
