REMARK  Name = 
REMARK  7 active torsions:
REMARK  status: ('A' for Active; 'I' for Inactive)
REMARK    1  A    between atoms: N_1  and  C_12
REMARK    2  A    between atoms: C_5  and  N_10
REMARK    3  A    between atoms: C_15  and  C_17
REMARK    4  A    between atoms: C_17  and  C_18
REMARK    5  A    between atoms: C_17  and  C_19
REMARK    6  A    between atoms: C_17  and  C_20
REMARK    7  A    between atoms: C_20  and  N_35
REMARK                            x       y       z     vdW  Elec       q    Type
REMARK                         _______ _______ _______ _____ _____    ______ ____
ROOT
ATOM      1  C   UNL     1      34.663  29.981  47.402  0.00  0.00    +0.000 A 
ATOM      2  C   UNL     1      35.536  29.874  48.512  0.00  0.00    +0.000 A 
ATOM      3  C   UNL     1      35.436  28.721  49.267  0.00  0.00    +0.000 A 
ATOM      4  N   UNL     1      34.532  27.773  48.921  0.00  0.00    +0.000 NA
ATOM      5  C   UNL     1      33.712  27.904  47.856  0.00  0.00    +0.000 A 
ATOM      6  N   UNL     1      33.786  29.003  47.109  0.00  0.00    +0.000 NA
ATOM      7  H   UNL     1      34.683  30.863  46.758  0.00  0.00    +0.000 HD
ATOM      8  H   UNL     1      36.102  28.656  50.102  0.00  0.00    +0.000 HD
ENDROOT
BRANCH   2   9
ATOM      9  N   UNL     1      36.428  30.957  48.744  0.00  0.00    +0.000 N 
ATOM     10  C   UNL     1      36.394  31.727  49.871  0.00  0.00    +0.000 A 
ATOM     11  N   UNL     1      37.364  32.663  49.785  0.00  0.00    +0.000 NA
ATOM     12  C   UNL     1      37.985  32.462  48.612  0.00  0.00    +0.000 A 
ATOM     13  C   UNL     1      39.038  33.085  47.970  0.00  0.00    +0.000 A 
ATOM     14  N   UNL     1      39.474  32.670  46.763  0.00  0.00    +0.000 NA
ATOM     15  C   UNL     1      38.898  31.621  46.124  0.00  0.00    +0.000 A 
ATOM     16  N   UNL     1      37.877  31.020  46.751  0.00  0.00    +0.000 NA
ATOM     17  C   UNL     1      37.410  31.396  47.949  0.00  0.00    +0.000 A 
ATOM     18  H   UNL     1      35.719  31.641  50.720  0.00  0.00    +0.000 HD
ATOM     19  H   UNL     1      39.282  31.325  45.158  0.00  0.00    +0.000 HD
BRANCH  13  20
ATOM     20  N   UNL     1      39.676  34.180  48.584  0.00  0.00    +0.000 N 
ATOM     21  H   UNL     1      40.132  34.125  49.520  0.00  0.00    +0.000 HD
ATOM     22  H   UNL     1      39.802  35.165  48.248  0.00  0.00    +0.000 HD
ENDBRANCH  13  20
ENDBRANCH   2   9
BRANCH   5  23
ATOM     23  C   UNL     1      32.733  26.858  47.494  0.00  0.00    +0.000 C 
BRANCH  23  24
ATOM     24  C   UNL     1      31.537  26.908  48.433  0.00  0.00    +0.000 C 
ATOM     25  H   UNL     1      30.743  26.286  47.963  0.00  0.00    +0.000 HD
ATOM     26  H   UNL     1      31.892  26.411  49.373  0.00  0.00    +0.000 HD
ATOM     27  H   UNL     1      31.228  27.954  48.610  0.00  0.00    +0.000 HD
ENDBRANCH  23  24
BRANCH  23  28
ATOM     28  C   UNL     1      32.168  27.111  46.104  0.00  0.00    +0.000 C 
ATOM     29  H   UNL     1      32.126  26.184  45.492  0.00  0.00    +0.000 HD
ATOM     30  H   UNL     1      32.765  27.925  45.608  0.00  0.00    +0.000 HD
ATOM     31  H   UNL     1      31.132  27.498  46.117  0.00  0.00    +0.000 HD
ENDBRANCH  23  28
BRANCH  23  32
ATOM     32  C   UNL     1      33.315  25.466  47.478  0.00  0.00    +0.000 C 
ATOM     33  H   UNL     1      33.604  25.240  48.521  0.00  0.00    +0.000 HD
ATOM     34  H   UNL     1      32.484  24.783  47.228  0.00  0.00    +0.000 HD
BRANCH  32  35
ATOM     35  N   UNL     1      34.392  25.342  46.534  0.00  0.00    +0.000 N 
ATOM     36  N   UNL     1      34.350  24.477  45.516  0.00  0.00    +0.000 NA
ATOM     37  C   UNL     1      35.458  24.556  44.795  0.00  0.00    +0.000 A 
ATOM     38  H   UNL     1      35.676  23.953  43.904  0.00  0.00    +0.000 HD
ATOM     39  C   UNL     1      36.281  25.529  45.370  0.00  0.00    +0.000 A 
ATOM     40  C   UNL     1      35.571  25.989  46.452  0.00  0.00    +0.000 A 
ATOM     41  H   UNL     1      35.891  26.753  47.144  0.00  0.00    +0.000 HD
ENDBRANCH  32  35
ENDBRANCH  23  32
ENDBRANCH   5  23
TORSDOF 7
