
 OpenBabel03252514083D

 41 44  0  0  0  0  0  0  0  0999 V2000
   34.1500   30.0870   47.5400 C   0  0  0  0  0  0  0  0  0  0  0  0
   35.1370   29.8490   48.5280 C   0  0  0  0  0  0  0  0  0  0  0  0
   34.9850   28.7060   49.2890 C   0  0  0  0  0  0  0  0  0  0  0  0
   33.9280   27.8890   49.0630 N   0  0  0  0  0  0  0  0  0  0  0  0
   33.0030   28.1430   48.1120 C   0  0  0  0  0  0  0  0  0  0  0  0
   33.1230   29.2350   47.3620 N   0  0  0  0  0  0  0  0  0  0  0  0
   34.2030   30.9690   46.8980 H   0  0  0  0  0  0  0  0  0  0  0  0
   35.7380   28.5410   50.0310 H   0  0  0  0  0  0  0  0  0  0  0  0
   36.1850   30.8030   48.6430 N   0  0  0  0  0  0  0  0  0  0  0  0
   36.4790   31.4560   49.8050 C   0  0  0  0  0  0  0  0  0  0  0  0
   37.5190   32.2890   49.5830 N   0  0  0  0  0  0  0  0  0  0  0  0
   37.8560   32.1420   48.2920 C   0  0  0  0  0  0  0  0  0  0  0  0
   38.8230   32.7110   47.4860 C   0  0  0  0  0  0  0  0  0  0  0  0
   38.9470   32.3750   46.1860 N   0  0  0  0  0  0  0  0  0  0  0  0
   38.1260   31.4620   45.6090 C   0  0  0  0  0  0  0  0  0  0  0  0
   37.1900   30.9120   46.3950 N   0  0  0  0  0  0  0  0  0  0  0  0
   37.0290   31.2140   47.6900 C   0  0  0  0  0  0  0  0  0  0  0  0
   35.9870   31.3580   50.7710 H   0  0  0  0  0  0  0  0  0  0  0  0
   38.2640   31.2250   44.5640 H   0  0  0  0  0  0  0  0  0  0  0  0
   39.7040   33.6670   48.0290 N   0  0  0  0  0  0  0  0  0  0  0  0
   40.3330   33.4710   48.8380 H   0  0  0  0  0  0  0  0  0  0  0  0
   39.8800   34.6610   47.7490 H   0  0  0  0  0  0  0  0  0  0  0  0
   31.8570   27.2380   47.8800 C   0  0  0  0  0  0  0  0  0  0  0  0
   30.8320   27.3890   48.9930 C   0  0  0  0  0  0  0  0  0  0  0  0
   29.9050   26.8880   48.6360 H   0  0  0  0  0  0  0  0  0  0  0  0
   31.2590   26.8130   49.8540 H   0  0  0  0  0  0  0  0  0  0  0  0
   30.6860   28.4560   49.2420 H   0  0  0  0  0  0  0  0  0  0  0  0
   31.1260   27.6180   46.6010 C   0  0  0  0  0  0  0  0  0  0  0  0
   30.8770   26.7300   45.9790 H   0  0  0  0  0  0  0  0  0  0  0  0
   31.7390   28.3760   46.0390 H   0  0  0  0  0  0  0  0  0  0  0  0
   30.1600   28.1250   46.7830 H   0  0  0  0  0  0  0  0  0  0  0  0
   32.2520   25.7890   47.7390 C   0  0  0  0  0  0  0  0  0  0  0  0
   32.8880   25.5550   48.6130 H   0  0  0  0  0  0  0  0  0  0  0  0
   31.3250   25.2000   47.8590 H   0  0  0  0  0  0  0  0  0  0  0  0
   32.8780   25.5200   46.4730 N   0  0  0  0  0  0  0  0  0  0  0  0
   32.2520   24.8580   45.4950 N   0  0  0  0  0  0  0  0  0  0  0  0
   33.0390   24.7420   44.4370 C   0  0  0  0  0  0  0  0  0  0  0  0
   32.7660   24.2410   43.4990 H   0  0  0  0  0  0  0  0  0  0  0  0
   34.2570   25.3610   44.7320 C   0  0  0  0  0  3  0  0  0  0  0  0
   34.1060   25.8300   46.0140 C   0  0  0  0  0  0  0  0  0  0  0  0
   34.8470   26.3690   46.5850 H   0  0  0  0  0  0  0  0  0  0  0  0
  1  2  1  0  0  0  0
  2  9  1  0  0  0  0
  2  3  2  0  0  0  0
  3  8  1  0  0  0  0
  4  3  1  0  0  0  0
  5  4  2  0  0  0  0
  6  1  2  0  0  0  0
  6  5  1  0  0  0  0
  7  1  1  0  0  0  0
  9 10  1  0  0  0  0
 10 18  1  0  0  0  0
 11 10  2  0  0  0  0
 12 11  1  0  0  0  0
 13 20  1  0  0  0  0
 13 12  2  0  0  0  0
 14 13  1  0  0  0  0
 15 14  2  0  0  0  0
 15 16  1  0  0  0  0
 16 17  2  0  0  0  0
 17 12  1  0  0  0  0
 17  9  1  0  0  0  0
 19 15  1  0  0  0  0
 20 21  1  0  0  0  0
 22 20  1  0  0  0  0
 23  5  1  0  0  0  0
 23 24  1  0  0  0  0
 24 27  1  0  0  0  0
 24 26  1  0  0  0  0
 25 24  1  0  0  0  0
 28 31  1  0  0  0  0
 28 23  1  0  0  0  0
 29 28  1  0  0  0  0
 30 28  1  0  0  0  0
 32 34  1  0  0  0  0
 32 23  1  0  0  0  0
 32 33  1  0  0  0  0
 35 32  1  0  0  0  0
 36 35  1  0  0  0  0
 37 39  1  0  0  0  0
 37 36  2  0  0  0  0
 38 37  1  0  0  0  0
 39 40  2  0  0  0  0
 40 35  1  0  0  0  0
 40 41  1  0  0  0  0
M  END
>  <minimizedAffinity>
-5.20829868

>  <minimizedRMSD>
1.11454976

$$$$
