
 OpenBabel03252513513D

 43 46  0  0  1  0  0  0  0  0999 V2000
   34.1410   29.7440   45.7710 C   0  0  0  0  0  0  0  0  0  0  0  0
   34.7010   29.7170   46.8840 O   0  0  0  0  0  0  0  0  0  0  0  0
   35.0110   29.6240   44.6610 N   0  0  0  0  0  0  0  0  0  0  0  0
   34.5940   28.7050   43.6240 C   0  0  0  0  0  0  0  0  0  0  0  0
   35.7240   28.3460   42.6850 C   0  0  0  0  0  0  0  0  0  0  0  0
   36.8710   28.2640   43.4870 O   0  0  0  0  0  0  0  0  0  0  0  0
   37.2760   29.5910   43.6890 C   0  0  0  0  0  0  0  0  0  0  0  0
   36.2630   30.3540   44.5150 C   0  0  2  0  0  0  0  0  0  0  0  0
   33.7420   29.0920   43.0300 H   0  0  0  0  0  0  0  0  0  0  0  0
   34.3110   27.7590   44.1300 H   0  0  0  0  0  0  0  0  0  0  0  0
   35.8130   29.1950   41.9480 H   0  0  0  0  0  0  0  0  0  0  0  0
   35.4930   27.4340   42.1350 H   0  0  0  0  0  0  0  0  0  0  0  0
   38.2440   29.5080   44.2600 H   0  0  0  0  0  0  0  0  0  0  0  0
   37.4870   30.0350   42.7140 H   0  0  0  0  0  0  0  0  0  0  0  0
   35.9780   31.2400   43.8770 H   0  0  0  0  0  0  0  0  0  0  0  0
   36.8100   30.8340   45.7450 N   0  0  0  0  0  0  0  0  0  0  0  0
   36.4400   30.5180   47.0010 C   0  0  0  0  0  0  0  0  0  0  0  0
   37.1960   31.1780   47.9190 N   0  0  0  0  0  0  0  0  0  0  0  0
   38.0820   31.9470   47.2610 C   0  0  0  0  0  0  0  0  0  0  0  0
   39.1040   32.8350   47.5660 C   0  0  0  0  0  0  0  0  0  0  0  0
   39.8290   33.4620   46.6200 N   0  0  0  0  0  0  0  0  0  0  0  0
   39.5200   33.1890   45.3200 C   0  0  0  0  0  0  0  0  0  0  0  0
   38.5440   32.3390   44.9390 N   0  0  0  0  0  0  0  0  0  0  0  0
   37.8270   31.7190   45.9100 C   0  0  0  0  0  0  0  0  0  0  0  0
   39.3680   33.0710   48.9480 N   0  0  0  0  0  0  0  0  0  0  0  0
   40.3490   33.2030   49.3060 H   0  0  0  0  0  0  0  0  0  0  0  0
   38.6470   33.1330   49.7100 H   0  0  0  0  0  0  0  0  0  0  0  0
   30.4440   29.1130   46.1710 C   0  0  0  0  0  0  0  0  0  0  0  0
   31.8580   28.9340   46.2620 C   0  0  0  0  0  0  0  0  0  0  0  0
   32.6940   29.8920   45.6980 C   0  0  0  0  0  0  0  0  0  0  0  0
   32.0950   30.9490   45.0910 N   0  0  0  0  0  0  0  0  0  0  0  0
   30.7690   31.0920   45.0200 C   0  0  0  0  0  0  0  0  0  0  0  0
   29.9650   30.1950   45.5480 N   0  0  0  0  0  0  0  0  0  0  0  0
   32.2520   28.0550   46.7670 H   0  0  0  0  0  0  0  0  0  0  0  0
   30.2970   32.3170   44.3150 C   0  0  0  0  0  0  0  0  0  0  0  0
   30.7460   33.4530   44.9790 F   0  0  0  0  0  0  0  0  0  0  0  0
   30.8710   32.3700   43.0550 F   0  0  0  0  0  0  0  0  0  0  0  0
   28.9260   32.3270   44.1200 F   0  0  0  0  0  0  0  0  0  0  0  0
   29.6340   28.1480   46.7370 O   0  0  0  0  0  0  0  0  0  0  0  0
   29.9290   27.4820   47.9250 C   0  0  0  0  0  0  0  0  0  0  0  0
   30.7960   26.4050   47.7580 F   0  0  0  0  0  0  0  0  0  0  0  0
   30.3590   28.2820   48.9420 F   0  0  0  0  0  0  0  0  0  0  0  0
   28.6970   26.9280   48.3250 F   0  0  0  0  0  0  0  0  0  0  0  0
  1  2  2  0  0  0  0
  3  1  1  0  0  0  0
  4 10  1  0  0  0  0
  4  3  1  0  0  0  0
  5  6  1  0  0  0  0
  5  4  1  0  0  0  0
  6  7  1  0  0  0  0
  7 13  1  0  0  0  0
  7  8  1  0  0  0  0
  8 15  1  6  0  0  0
  8  3  1  0  0  0  0
  8 16  1  0  0  0  0
  9  4  1  0  0  0  0
 11  5  1  0  0  0  0
 12  5  1  0  0  0  0
 14  7  1  0  0  0  0
 16 24  1  0  0  0  0
 16 17  1  0  0  0  0
 17 18  2  0  0  0  0
 19 20  1  0  0  0  0
 19 18  1  0  0  0  0
 20 25  1  0  0  0  0
 21 20  2  0  0  0  0
 22 21  1  0  0  0  0
 23 22  2  0  0  0  0
 23 24  1  0  0  0  0
 24 19  2  0  0  0  0
 25 26  1  0  0  0  0
 25 27  1  0  0  0  0
 28 29  1  0  0  0  0
 28 39  1  0  0  0  0
 29 34  1  0  0  0  0
 30  1  1  0  0  0  0
 30 29  2  0  0  0  0
 31 30  1  0  0  0  0
 32 31  2  0  0  0  0
 32 33  1  0  0  0  0
 33 28  2  0  0  0  0
 35 36  1  0  0  0  0
 35 32  1  0  0  0  0
 37 35  1  0  0  0  0
 38 35  1  0  0  0  0
 39 40  1  0  0  0  0
 40 43  1  0  0  0  0
 40 42  1  0  0  0  0
 41 40  1  0  0  0  0
M  END
>  <minimizedAffinity>
-5.02953672

>  <minimizedRMSD>
4.75301886

$$$$
