
 OpenBabel03252514083D

 41 44  0  0  0  0  0  0  0  0999 V2000
   34.1230   30.0490   47.5220 C   0  0  0  0  0  0  0  0  0  0  0  0
   35.1030   29.8180   48.5180 C   0  0  0  0  0  0  0  0  0  0  0  0
   34.9440   28.6830   49.2900 C   0  0  0  0  0  0  0  0  0  0  0  0
   33.8860   27.8670   49.0670 N   0  0  0  0  0  0  0  0  0  0  0  0
   32.9660   28.1140   48.1090 C   0  0  0  0  0  0  0  0  0  0  0  0
   33.0940   29.1990   47.3480 N   0  0  0  0  0  0  0  0  0  0  0  0
   34.1810   30.9250   46.8720 H   0  0  0  0  0  0  0  0  0  0  0  0
   35.6930   28.5240   50.0370 H   0  0  0  0  0  0  0  0  0  0  0  0
   36.1530   30.7710   48.6280 N   0  0  0  0  0  0  0  0  0  0  0  0
   36.4570   31.4190   49.7910 C   0  0  0  0  0  0  0  0  0  0  0  0
   37.4970   32.2510   49.5630 N   0  0  0  0  0  0  0  0  0  0  0  0
   37.8240   32.1080   48.2690 C   0  0  0  0  0  0  0  0  0  0  0  0
   38.7860   32.6790   47.4590 C   0  0  0  0  0  0  0  0  0  0  0  0
   38.8990   32.3480   46.1560 N   0  0  0  0  0  0  0  0  0  0  0  0
   38.0730   31.4370   45.5820 C   0  0  0  0  0  0  0  0  0  0  0  0
   37.1410   30.8860   46.3730 N   0  0  0  0  0  0  0  0  0  0  0  0
   36.9910   31.1830   47.6700 C   0  0  0  0  0  0  0  0  0  0  0  0
   35.9730   31.3170   50.7600 H   0  0  0  0  0  0  0  0  0  0  0  0
   38.2020   31.2040   44.5350 H   0  0  0  0  0  0  0  0  0  0  0  0
   39.6730   33.6310   47.9980 N   0  0  0  0  0  0  0  0  0  0  0  0
   40.3070   33.4310   48.8010 H   0  0  0  0  0  0  0  0  0  0  0  0
   39.8480   34.6260   47.7200 H   0  0  0  0  0  0  0  0  0  0  0  0
   31.8190   27.2110   47.8800 C   0  0  0  0  0  0  0  0  0  0  0  0
   30.7980   27.3610   48.9980 C   0  0  0  0  0  0  0  0  0  0  0  0
   29.8690   26.8610   48.6440 H   0  0  0  0  0  0  0  0  0  0  0  0
   31.2280   26.7830   49.8560 H   0  0  0  0  0  0  0  0  0  0  0  0
   30.6540   28.4280   49.2480 H   0  0  0  0  0  0  0  0  0  0  0  0
   31.0830   27.5930   46.6040 C   0  0  0  0  0  0  0  0  0  0  0  0
   30.8310   26.7060   45.9830 H   0  0  0  0  0  0  0  0  0  0  0  0
   31.6940   28.3510   46.0410 H   0  0  0  0  0  0  0  0  0  0  0  0
   30.1190   28.1000   46.7910 H   0  0  0  0  0  0  0  0  0  0  0  0
   32.2120   25.7610   47.7360 C   0  0  0  0  0  0  0  0  0  0  0  0
   32.8280   25.5180   48.6210 H   0  0  0  0  0  0  0  0  0  0  0  0
   31.2810   25.1740   47.8310 H   0  0  0  0  0  0  0  0  0  0  0  0
   32.8650   25.5010   46.4820 N   0  0  0  0  0  0  0  0  0  0  0  0
   32.2510   24.8680   45.4790 N   0  0  0  0  0  0  0  0  0  0  0  0
   33.0640   24.7530   44.4370 C   0  0  0  0  0  0  0  0  0  0  0  0
   32.8040   24.2730   43.4850 H   0  0  0  0  0  0  0  0  0  0  0  0
   34.2850   25.3430   44.7740 C   0  0  0  0  0  3  0  0  0  0  0  0
   34.1100   25.7940   46.0590 C   0  0  0  0  0  0  0  0  0  0  0  0
   34.8470   26.3090   46.6570 H   0  0  0  0  0  0  0  0  0  0  0  0
  1  2  1  0  0  0  0
  2  9  1  0  0  0  0
  2  3  2  0  0  0  0
  3  8  1  0  0  0  0
  4  3  1  0  0  0  0
  5  4  2  0  0  0  0
  6  1  2  0  0  0  0
  6  5  1  0  0  0  0
  7  1  1  0  0  0  0
  9 10  1  0  0  0  0
 10 18  1  0  0  0  0
 11 10  2  0  0  0  0
 12 11  1  0  0  0  0
 13 20  1  0  0  0  0
 13 12  2  0  0  0  0
 14 13  1  0  0  0  0
 15 14  2  0  0  0  0
 15 16  1  0  0  0  0
 16 17  2  0  0  0  0
 17 12  1  0  0  0  0
 17  9  1  0  0  0  0
 19 15  1  0  0  0  0
 20 21  1  0  0  0  0
 22 20  1  0  0  0  0
 23  5  1  0  0  0  0
 23 24  1  0  0  0  0
 24 27  1  0  0  0  0
 24 26  1  0  0  0  0
 25 24  1  0  0  0  0
 28 31  1  0  0  0  0
 28 23  1  0  0  0  0
 29 28  1  0  0  0  0
 30 28  1  0  0  0  0
 32 34  1  0  0  0  0
 32 23  1  0  0  0  0
 32 33  1  0  0  0  0
 35 32  1  0  0  0  0
 36 35  1  0  0  0  0
 37 39  1  0  0  0  0
 37 36  2  0  0  0  0
 38 37  1  0  0  0  0
 39 40  2  0  0  0  0
 40 35  1  0  0  0  0
 40 41  1  0  0  0  0
M  END
>  <minimizedAffinity>
-5.21907616

>  <minimizedRMSD>
1.12145114

$$$$
