
     RDKit          3D

 30 32  0  0  0  0  0  0  0  0999 V2000
   36.8890   29.4390   49.6570 C   0  0  0  0  0  0  0  0  0  0  0  0
   38.4397   32.7434   49.3825 C   0  0  0  0  0  0  0  0  0  0  0  0
   38.9438   32.7508   48.0725 C   0  0  0  0  0  0  0  0  0  0  0  0
   38.7388   31.6012   47.2920 C   0  0  0  0  0  0  0  0  0  0  0  0
   38.0630   30.5450   47.8502 N   0  0  0  0  0  0  0  0  0  0  0  0
   37.6033   30.5914   49.1057 C   0  0  0  0  0  0  0  0  0  0  0  0
   37.7967   31.6914   49.8596 N   0  0  0  0  0  0  0  0  0  0  0  0
   35.4284   29.5422   49.2152 C   0  0  2  0  0  0  0  0  0  0  0  0
   34.3991   29.4747   50.2636 C   0  0  0  0  0  0  0  0  0  0  0  0
   34.6500   28.2477   49.5198 C   0  0  1  0  0  0  0  0  0  0  0  0
   33.5735   27.8529   48.5460 C   0  0  0  0  0  0  0  0  0  0  0  0
   33.8885   26.8521   47.7848 O   0  0  0  0  0  0  0  0  0  0  0  0
   32.3292   28.4463   48.4180 O   0  0  0  0  0  0  0  0  0  0  0  0
   36.9198   29.4151   50.7489 H   0  0  0  0  0  0  0  0  0  0  0  0
   37.2871   28.4657   49.3094 H   0  0  0  0  0  0  0  0  0  0  0  0
   38.6035   33.6294   49.9685 H   0  0  0  0  0  0  0  0  0  0  0  0
   39.4698   33.6202   47.6929 H   0  0  0  0  0  0  0  0  0  0  0  0
   39.1151   31.5840   46.2877 H   0  0  0  0  0  0  0  0  0  0  0  0
   35.2713   30.0020   48.2308 H   0  0  0  0  0  0  0  0  0  0  0  0
   34.7651   29.6209   51.3030 H   0  0  0  0  0  0  0  0  0  0  0  0
   33.4840   30.1005   50.0813 H   0  0  0  0  0  0  0  0  0  0  0  0
   35.3293   27.4319   49.7823 H   0  0  0  0  0  0  0  0  0  0  0  0
   31.4409   27.9557   47.4736 C   0  0  0  0  0  0  0  0  0  0  0  0
   31.2366   28.2826   46.1528 C   0  0  0  0  0  0  0  0  0  0  0  0
   30.2375   27.4773   45.7266 N   0  0  0  0  0  0  0  0  0  0  0  0
   29.8244   26.6744   46.7301 C   0  0  0  0  0  0  0  0  0  0  0  0
   30.5736   26.9686   47.8265 N   0  0  0  0  0  0  0  0  0  0  0  0
   31.8036   29.0435   45.6319 H   0  0  0  0  0  0  0  0  0  0  0  0
   29.0324   25.9215   46.6794 H   0  0  0  0  0  0  0  0  0  0  0  0
   30.4318   26.4644   48.7445 H   0  0  0  0  0  0  0  0  0  0  0  0
  2  7  2  0
  3  2  1  0
  4  5  1  0
  4  3  2  0
  5  6  2  0
  6  1  1  0
  6  7  1  0
  8 10  1  0
  8  1  1  0
  8  9  1  0
 10  9  1  0
 11 10  1  0
 12 11  2  0
 13 11  1  0
  1 14  1  0
  1 15  1  0
  2 16  1  0
  3 17  1  0
  4 18  1  0
  8 19  1  6
  9 20  1  0
  9 21  1  0
 10 22  1  1
 23 24  2  0
 24 25  1  0
 25 26  2  0
 26 27  1  0
 27 23  1  0
 24 28  1  0
 26 29  1  0
 27 30  1  0
 13 23  1  0
M  ISO  8  14   8  15   8  16  14  17  14  18  14  19  13  20  13  21  13
M  ISO  1  22  13
M  END
>  <DihAtoms>  (1) 
10,12,22,23

>  <DihDeg>  (1) 
-90.00008808765706

$$$$
