
 OpenBabel03252510073D

 36 38  0  0  0  0  0  0  0  0999 V2000
   39.2150   32.3610   46.1410 C   0  0  0  0  0  0  0  0  0  0  0  0
   37.6910   32.5700   49.6140 C   0  0  0  0  0  0  0  0  0  0  0  0
   38.5340   32.8630   48.5360 C   0  0  0  0  0  0  0  0  0  0  0  0
   38.3950   32.1530   47.3490 C   0  0  0  0  0  0  0  0  0  0  0  0
   37.4110   31.1830   47.3040 N   0  0  0  0  0  0  0  0  0  0  0  0
   36.6200   30.9280   48.3550 C   0  0  0  0  0  0  0  0  0  0  0  0
   36.7400   31.6000   49.5040 N   0  0  0  0  0  0  0  0  0  0  0  0
   37.9040   33.1950   50.4810 H   0  0  0  0  0  0  0  0  0  0  0  0
   39.3040   33.6230   48.5740 H   0  0  0  0  0  0  0  0  0  0  0  0
   35.8500   30.1680   48.3200 H   0  0  0  0  0  0  0  0  0  0  0  0
   40.0690   31.1060   45.9710 C   0  0  0  0  0  0  0  0  0  0  0  0
   40.5740   31.1320   44.9610 H   0  0  0  0  0  0  0  0  0  0  0  0
   39.3660   30.2470   46.0360 H   0  0  0  0  0  0  0  0  0  0  0  0
   40.8490   31.0650   46.7640 H   0  0  0  0  0  0  0  0  0  0  0  0
   40.1170   33.5380   46.2090 C   0  0  0  0  0  0  0  0  0  0  0  0
   39.6060   34.5120   46.0660 H   0  0  0  0  0  0  0  0  0  0  0  0
   40.7140   33.5230   47.1460 H   0  0  0  0  0  0  0  0  0  0  0  0
   40.8540   33.4550   45.3750 H   0  0  0  0  0  0  0  0  0  0  0  0
   38.2990   32.4980   44.9660 C   0  0  0  0  0  0  0  0  0  0  0  0
   38.1660   33.5930   44.7890 H   0  0  0  0  0  0  0  0  0  0  0  0
   37.2700   32.1420   45.2250 H   0  0  0  0  0  0  0  0  0  0  0  0
   38.8120   31.8070   43.7410 C   0  0  0  0  0  0  0  0  0  0  0  0
   39.4660   32.5790   42.7270 C   0  0  0  0  0  0  0  0  0  0  0  0
   39.8760   31.2810   41.4980 S   0  0  0  0  0  0  0  0  0  0  0  0
   39.0930   29.9280   42.5720 C   0  0  0  0  0  0  0  0  0  0  0  0
   38.7370   30.5230   43.4610 N   0  0  0  0  0  0  0  0  0  0  0  0
   39.6440   33.6190   42.7240 H   0  0  0  0  0  0  0  0  0  0  0  0
   38.9850   28.4900   42.3030 N   0  0  0  0  0  0  0  0  0  0  0  0
   37.7260   28.0280   42.4120 C   0  0  0  0  0  0  0  0  0  0  0  0
   37.5770   26.6690   42.1660 C   0  0  0  0  0  0  0  0  0  0  0  0
   38.6690   25.8740   41.8340 C   0  0  0  0  0  0  0  0  0  0  0  0
   38.5740   24.6380   41.6030 O   0  0  0  0  0  0  0  0  0  0  0  0
   39.9010   26.4480   41.7520 N   0  0  0  0  0  0  0  0  0  0  0  0
   40.0450   27.7640   41.9900 C   0  0  0  0  0  0  0  0  0  0  0  0
   41.1350   28.3880   41.9410 O   0  0  0  0  0  0  0  0  0  0  0  0
   40.7580   25.9090   41.5080 H   0  0  0  0  0  0  0  0  0  0  0  0
  1 15  1  0  0  0  0
  1  4  1  0  0  0  0
  2  8  1  0  0  0  0
  3  9  1  0  0  0  0
  3  2  2  0  0  0  0
  4  3  1  0  0  0  0
  5  4  2  0  0  0  0
  5  6  1  0  0  0  0
  6  7  2  0  0  0  0
  7  2  1  0  0  0  0
 10  6  1  0  0  0  0
 11 13  1  0  0  0  0
 11  1  1  0  0  0  0
 11 14  1  0  0  0  0
 12 11  1  0  0  0  0
 15 17  1  0  0  0  0
 16 15  1  0  0  0  0
 18 15  1  0  0  0  0
 19 21  1  0  0  0  0
 19  1  1  0  0  0  0
 20 19  1  0  0  0  0
 22 19  1  0  0  0  0
 23 22  2  0  0  0  0
 24 25  1  0  0  0  0
 24 23  1  0  0  0  0
 25 26  2  0  0  0  0
 26 22  1  0  0  0  0
 27 23  1  0  0  0  0
 28 29  1  0  0  0  0
 28 25  1  0  0  0  0
 30 29  2  0  0  0  0
 31 30  1  0  0  0  0
 32 31  2  0  0  0  0
 33 31  1  0  0  0  0
 33 34  1  0  0  0  0
 34 28  1  0  0  0  0
 35 34  2  0  0  0  0
 36 33  1  0  0  0  0
M  END
>  <minimizedAffinity>
-5.75404215

>  <minimizedRMSD>
0.67086488

$$$$
