
 OpenBabel03252514043D

 38 41  0  0  1  0  0  0  0  0999 V2000
   35.4590   29.2890   48.6920 C   0  0  2  0  0  0  0  0  0  0  0  0
   34.2360   29.2900   49.4930 C   0  0  0  0  0  0  0  0  0  0  0  0
   34.6910   27.9880   49.1050 C   0  0  1  0  0  0  0  0  0  0  0  0
   35.5080   29.4030   47.6090 H   0  0  0  0  0  0  0  0  0  0  0  0
   33.3370   29.7900   49.0290 H   0  0  0  0  0  0  0  0  0  0  0  0
   34.3320   29.6290   50.5640 H   0  0  0  0  0  0  0  0  0  0  0  0
   35.2960   27.3190   49.7120 H   0  0  0  0  0  0  0  0  0  0  0  0
   36.7760   29.3930   49.4810 C   0  0  0  0  0  0  0  0  0  0  0  0
   36.5630   29.4300   50.5640 H   0  0  0  0  0  0  0  0  0  0  0  0
   37.3860   28.4890   49.2810 H   0  0  0  0  0  0  0  0  0  0  0  0
   37.9330   32.8570   49.4230 C   0  0  0  0  0  0  0  0  0  0  0  0
   38.7090   32.9050   48.2410 C   0  0  0  0  0  0  0  0  0  0  0  0
   38.8130   31.7140   47.4830 C   0  0  0  0  0  0  0  0  0  0  0  0
   38.1610   30.5960   47.9390 N   0  0  0  0  0  0  0  0  0  0  0  0
   37.4370   30.6210   49.0770 C   0  0  0  0  0  0  0  0  0  0  0  0
   37.3330   31.7630   49.8100 N   0  0  0  0  0  0  0  0  0  0  0  0
   37.8040   33.7300   50.0620 H   0  0  0  0  0  0  0  0  0  0  0  0
   39.1890   33.8310   47.9590 H   0  0  0  0  0  0  0  0  0  0  0  0
   39.3960   31.7330   46.5850 H   0  0  0  0  0  0  0  0  0  0  0  0
   33.8960   27.3160   48.0050 C   0  0  0  0  0  0  0  0  0  0  0  0
   34.2570   26.0970   47.7820 O   0  0  0  0  0  0  0  0  0  0  0  0
   32.8650   27.8770   47.2720 O   0  0  0  0  0  0  0  0  0  0  0  0
   31.5930   28.0380   47.7280 C   0  0  0  0  0  0  0  0  0  0  0  0
   31.1140   27.5990   49.0480 C   0  0  0  0  0  0  0  0  0  0  0  0
   29.8270   27.8090   49.4110 C   0  0  0  0  0  0  0  0  0  0  0  0
   28.9390   28.4550   48.5110 C   0  0  0  0  0  0  0  0  0  0  0  0
   30.0150   28.7940   47.0240 S   0  0  0  0  0  0  0  0  0  0  0  0
   31.8320   27.1120   49.6910 H   0  0  0  0  0  0  0  0  0  0  0  0
   29.4310   27.5080   50.3650 H   0  0  0  0  0  0  0  0  0  0  0  0
   27.5950   28.7610   48.6950 N   0  0  0  0  0  0  0  0  0  0  0  0
   27.3010   30.0390   48.8930 C   0  0  0  0  0  3  0  0  0  0  0  0
   25.9680   30.4140   49.0850 C   0  0  0  0  0  3  0  0  0  0  0  0
   25.0160   29.4160   49.0570 C   0  0  0  0  0  0  0  0  0  0  0  0
   23.8020   29.6840   49.2210 O   0  0  0  0  0  0  0  0  0  0  0  0
   25.3920   28.1380   48.8500 N   0  0  0  0  0  0  0  0  0  0  0  0
   26.6930   27.7670   48.6620 C   0  0  0  0  0  0  0  0  0  0  0  0
   26.9610   26.5520   48.4760 O   0  0  0  0  0  0  0  0  0  0  0  0
   24.6840   27.3670   48.8250 H   0  0  0  0  0  0  0  0  0  0  0  0
  1  4  1  6  0  0  0
  1  3  1  0  0  0  0
  1  8  1  0  0  0  0
  1  2  1  0  0  0  0
  2  6  1  0  0  0  0
  3  2  1  0  0  0  0
  3  7  1  1  0  0  0
  5  2  1  0  0  0  0
  8  9  1  0  0  0  0
 10  8  1  0  0  0  0
 11 16  1  0  0  0  0
 11 17  1  0  0  0  0
 12 11  2  0  0  0  0
 13 14  2  0  0  0  0
 13 12  1  0  0  0  0
 14 15  1  0  0  0  0
 15  8  1  0  0  0  0
 15 16  2  0  0  0  0
 18 12  1  0  0  0  0
 19 13  1  0  0  0  0
 20  3  1  0  0  0  0
 21 20  2  0  0  0  0
 22 23  1  0  0  0  0
 22 20  1  0  0  0  0
 23 24  2  0  0  0  0
 24 25  1  0  0  0  0
 24 28  1  0  0  0  0
 25 29  1  0  0  0  0
 26 30  1  0  0  0  0
 26 25  2  0  0  0  0
 27 23  1  0  0  0  0
 27 26  1  0  0  0  0
 30 31  1  0  0  0  0
 31 32  2  0  0  0  0
 33 32  1  0  0  0  0
 33 34  2  0  0  0  0
 35 33  1  0  0  0  0
 36 30  1  0  0  0  0
 36 35  1  0  0  0  0
 37 36  2  0  0  0  0
 38 35  1  0  0  0  0
M  END
>  <minimizedAffinity>
-6.95861864

>  <minimizedRMSD>
1.83080101

$$$$
