
 OpenBabel03252511403D

 33 35  0  0  1  0  0  0  0  0999 V2000
   34.8090   28.9740   48.8160 C   0  0  0  0  0  0  0  0  0  0  0  0
   34.5590   28.0330   49.3920 H   0  0  0  0  0  0  0  0  0  0  0  0
   35.7630   28.6340   48.2880 H   0  0  0  0  0  0  0  0  0  0  0  0
   33.8870   29.2850   47.7830 C   0  0  0  0  0  0  0  0  0  0  0  0
   33.7400   30.2390   46.8020 C   0  0  0  0  0  0  0  0  0  0  0  0
   32.6240   30.0400   46.0570 N   0  0  0  0  0  0  0  0  0  0  0  0
   32.0230   28.9480   46.5470 C   0  0  0  0  0  0  0  0  0  0  0  0
   32.8030   28.5080   47.5870 N   0  0  0  0  0  0  0  0  0  0  0  0
   34.4930   31.0390   46.7020 H   0  0  0  0  0  0  0  0  0  0  0  0
   31.1110   28.5420   46.1590 H   0  0  0  0  0  0  0  0  0  0  0  0
   32.3790   27.3030   48.3050 C   0  0  0  0  0  0  0  0  0  0  0  0
   32.4880   26.3860   47.6570 H   0  0  0  0  0  0  0  0  0  0  0  0
   33.1020   27.0660   49.1420 H   0  0  0  0  0  0  0  0  0  0  0  0
   31.0240   27.3550   48.7690 N   0  0  0  0  0  0  0  0  0  0  0  0
   29.8900   26.7750   48.3330 C   0  0  0  0  0  0  0  0  0  0  0  0
   28.8370   27.1020   49.0760 N   0  0  0  0  0  0  0  0  0  0  0  0
   29.3280   27.9300   50.0280 C   0  0  0  0  0  0  0  0  0  0  0  0
   30.6510   28.0800   49.8390 N   0  0  0  0  0  0  0  0  0  0  0  0
   35.2370   29.9980   49.7570 C   0  0  2  0  0  0  0  0  0  0  0  0
   34.5090   30.7640   50.0110 H   0  0  0  0  0  0  0  0  0  0  0  0
   36.4610   30.7430   49.2620 C   0  0  0  0  0  0  0  0  0  0  0  0
   36.7800   31.9370   49.9310 C   0  0  0  0  0  0  0  0  0  0  0  0
   37.9140   32.6160   49.4320 C   0  0  0  0  0  0  0  0  0  0  0  0
   38.5980   32.0970   48.3810 N   0  0  0  0  0  0  0  0  0  0  0  0
   38.2400   30.9210   47.7630 C   0  0  0  0  0  0  0  0  0  0  0  0
   37.1530   30.2380   48.2160 N   0  0  0  0  0  0  0  0  0  0  0  0
   36.1820   32.2770   50.7570 H   0  0  0  0  0  0  0  0  0  0  0  0
   38.1990   33.5290   49.9060 H   0  0  0  0  0  0  0  0  0  0  0  0
   38.8170   30.5630   46.9420 H   0  0  0  0  0  0  0  0  0  0  0  0
   35.6290   29.2890   51.0970 C   0  0  0  0  0  0  0  0  0  0  0  0
   35.5910   28.1870   50.9570 H   0  0  0  0  0  0  0  0  0  0  0  0
   36.6340   29.6490   51.3300 H   0  0  0  0  0  0  0  0  0  0  0  0
   34.9260   29.6510   51.8460 H   0  0  0  0  0  0  0  0  0  0  0  0
  1  2  1  0  0  0  0
  1 19  1  0  0  0  0
  3  1  1  0  0  0  0
  4  1  1  0  0  0  0
  5  4  2  0  0  0  0
  6  7  2  0  0  0  0
  6  5  1  0  0  0  0
  7  8  1  0  0  0  0
  8  4  1  0  0  0  0
  8 11  1  0  0  0  0
  9  5  1  0  0  0  0
 10  7  1  0  0  0  0
 11 14  1  0  0  0  0
 11 13  1  0  0  0  0
 12 11  1  0  0  0  0
 14 18  1  0  0  0  0
 15 14  1  0  0  0  0
 15 16  2  0  0  0  0
 16 17  1  0  0  0  0
 18 17  2  0  0  0  0
 19 20  1  1  0  0  0
 19 30  1  0  0  0  0
 21 19  1  0  0  0  0
 21 22  1  0  0  0  0
 22 27  1  0  0  0  0
 23 28  1  0  0  0  0
 23 22  2  0  0  0  0
 24 23  1  0  0  0  0
 25 26  1  0  0  0  0
 25 24  2  0  0  0  0
 26 21  2  0  0  0  0
 29 25  1  0  0  0  0
 30 32  1  0  0  0  0
 30 33  1  0  0  0  0
 31 30  1  0  0  0  0
M  END
>  <minimizedAffinity>
-5.22110796

>  <minimizedRMSD>
1.89513457

$$$$
