
 OpenBabel03252514003D

 28 30  0  0  1  0  0  0  0  0999 V2000
   35.5760   29.5640   49.2450 C   0  0  2  0  0  0  0  0  0  0  0  0
   34.6150   29.4840   50.3560 C   0  0  0  0  0  0  0  0  0  0  0  0
   34.8470   28.2560   49.6060 C   0  0  1  0  0  0  0  0  0  0  0  0
   35.3500   30.0120   48.2690 H   0  0  0  0  0  0  0  0  0  0  0  0
   35.0410   29.6460   51.3690 H   0  0  0  0  0  0  0  0  0  0  0  0
   33.6780   30.0890   50.2250 H   0  0  0  0  0  0  0  0  0  0  0  0
   35.5580   27.4570   49.8320 H   0  0  0  0  0  0  0  0  0  0  0  0
   37.0640   29.4950   49.5970 C   0  0  0  0  0  0  0  0  0  0  0  0
   37.1600   29.4160   50.6830 H   0  0  0  0  0  0  0  0  0  0  0  0
   37.4750   28.5580   49.1750 H   0  0  0  0  0  0  0  0  0  0  0  0
   38.3170   32.9250   49.3550 C   0  0  0  0  0  0  0  0  0  0  0  0
   38.9010   32.9620   48.0780 C   0  0  0  0  0  0  0  0  0  0  0  0
   38.8540   31.7870   47.3100 C   0  0  0  0  0  0  0  0  0  0  0  0
   38.2440   30.6810   47.8450 N   0  0  0  0  0  0  0  0  0  0  0  0
   37.7020   30.7010   49.0690 C   0  0  0  0  0  0  0  0  0  0  0  0
   37.7450   31.8250   49.8120 N   0  0  0  0  0  0  0  0  0  0  0  0
   38.3600   33.8310   49.9320 H   0  0  0  0  0  0  0  0  0  0  0  0
   39.3680   33.8710   47.7160 H   0  0  0  0  0  0  0  0  0  0  0  0
   39.2930   31.7920   46.3320 H   0  0  0  0  0  0  0  0  0  0  0  0
   33.7220   27.8300   48.7030 C   0  0  0  0  0  0  0  0  0  0  0  0
   34.1070   27.2070   47.6340 O   0  0  0  0  0  0  0  0  0  0  0  0
   32.3710   28.0370   48.9270 O   0  0  0  0  0  0  0  0  0  0  0  0
   31.4540   27.5780   47.9950 C   0  0  0  0  0  0  0  0  0  0  0  0
   30.6190   28.2440   47.1270 C   0  0  0  0  0  3  0  0  0  0  0  0
   29.9470   27.2820   46.4540 N   0  0  0  0  0  0  0  0  0  0  0  0
   30.3350   26.0600   46.8750 C   0  0  0  0  0  3  0  0  0  0  0  0
   31.2780   26.2380   47.8390 N   0  0  0  0  0  0  0  0  0  0  0  0
   31.7360   25.4170   48.3220 H   0  0  0  0  0  0  0  0  0  0  0  0
  1  4  1  6  0  0  0
  1  8  1  0  0  0  0
  1  3  1  0  0  0  0
  1  2  1  0  0  0  0
  2  5  1  0  0  0  0
  3  7  1  1  0  0  0
  3  2  1  0  0  0  0
  6  2  1  0  0  0  0
  8  9  1  0  0  0  0
 10  8  1  0  0  0  0
 11 16  1  0  0  0  0
 11 17  1  0  0  0  0
 12 11  2  0  0  0  0
 13 14  2  0  0  0  0
 13 12  1  0  0  0  0
 14 15  1  0  0  0  0
 15  8  1  0  0  0  0
 15 16  2  0  0  0  0
 18 12  1  0  0  0  0
 19 13  1  0  0  0  0
 20 22  1  0  0  0  0
 20  3  1  0  0  0  0
 21 20  2  0  0  0  0
 23 22  1  0  0  0  0
 24 23  2  0  0  0  0
 25 26  2  0  0  0  0
 25 24  1  0  0  0  0
 26 27  1  0  0  0  0
 27 23  1  0  0  0  0
 27 28  1  0  0  0  0
M  END
>  <minimizedAffinity>
-4.83567858

>  <minimizedRMSD>
0.609844983

$$$$
