
 OpenBabel03252511143D

 36 39  0  0  1  0  0  0  0  0999 V2000
   38.4510   32.1470   48.0250 C   0  0  2  0  0  0  0  0  0  0  0  0
   39.5400   32.2020   48.4810 H   0  0  0  0  0  0  0  0  0  0  0  0
   38.9150   31.9990   46.6740 C   0  0  0  0  0  0  0  0  0  0  0  0
   39.8830   32.9660   46.3680 C   0  0  0  0  0  0  0  0  0  0  0  0
   40.5730   32.8980   45.1120 C   0  0  0  0  0  0  0  0  0  0  0  0
   40.2260   31.8740   44.2940 N   0  0  0  0  0  0  0  0  0  0  0  0
   39.2780   30.9620   44.6320 C   0  0  0  0  0  0  0  0  0  0  0  0
   38.6360   31.0180   45.7880 N   0  0  0  0  0  0  0  0  0  0  0  0
   40.2330   33.8100   46.9350 H   0  0  0  0  0  0  0  0  0  0  0  0
   41.3170   33.5930   44.8120 H   0  0  0  0  0  0  0  0  0  0  0  0
   38.9640   29.9080   43.7100 N   0  0  0  0  0  0  0  0  0  0  0  0
   37.7900   29.2860   43.6400 C   0  0  0  0  0  0  0  0  0  0  0  0
   37.5730   28.2740   42.7130 C   0  0  0  0  0  0  0  0  0  0  0  0
   38.6120   27.9240   41.8610 C   0  0  0  0  0  0  0  0  0  0  0  0
   38.4370   27.0100   41.0160 O   0  0  0  0  0  0  0  0  0  0  0  0
   39.7710   28.5880   41.9810 N   0  0  0  0  0  0  0  0  0  0  0  0
   39.9840   29.5700   42.8780 C   0  0  0  0  0  0  0  0  0  0  0  0
   41.1390   30.1070   42.8720 O   0  0  0  0  0  0  0  0  0  0  0  0
   40.5290   28.3020   41.3290 H   0  0  0  0  0  0  0  0  0  0  0  0
   37.8160   31.2280   48.9700 C   0  0  0  0  0  0  0  0  0  0  0  0
   38.3580   31.0700   50.1740 N   0  0  0  0  0  0  0  0  0  0  0  0
   37.8430   30.2400   51.1160 C   0  0  0  0  0  0  0  0  0  0  0  0
   36.7450   29.5180   50.8990 N   0  0  0  0  0  0  0  0  0  0  0  0
   36.1070   29.6050   49.7040 C   0  0  0  0  0  0  0  0  0  0  0  0
   34.9800   28.8780   49.4490 C   0  0  0  0  0  0  0  0  0  0  0  0
   34.3350   28.9570   48.2550 C   0  0  0  0  0  0  0  0  0  0  0  0
   34.8820   29.8110   47.3180 C   0  0  0  0  0  0  0  0  0  0  0  0
   36.0160   30.5280   47.6060 C   0  0  0  0  0  0  0  0  0  0  0  0
   36.6790   30.4620   48.7990 C   0  0  0  0  0  0  0  0  0  0  0  0
   38.3770   30.1830   52.0840 H   0  0  0  0  0  0  0  0  0  0  0  0
   34.5910   28.2220   50.2190 H   0  0  0  0  0  0  0  0  0  0  0  0
   33.4450   28.3820   48.0530 H   0  0  0  0  0  0  0  0  0  0  0  0
   34.3760   29.8900   46.3470 H   0  0  0  0  0  0  0  0  0  0  0  0
   36.4350   31.2060   46.8370 H   0  0  0  0  0  0  0  0  0  0  0  0
   38.1030   33.3400   48.5010 O   0  0  0  0  0  0  0  0  0  0  0  0
   38.6950   34.1000   48.4850 H   0  0  0  0  0  0  0  0  0  0  0  0
  1  2  1  1  0  0  0
  1 35  1  0  0  0  0
  1 20  1  0  0  0  0
  3  1  1  0  0  0  0
  4  3  1  0  0  0  0
  4  9  1  0  0  0  0
  5  4  2  0  0  0  0
  6  7  2  0  0  0  0
  6  5  1  0  0  0  0
  7  8  1  0  0  0  0
  8  3  2  0  0  0  0
 10  5  1  0  0  0  0
 11  7  1  0  0  0  0
 12 11  1  0  0  0  0
 13 12  2  0  0  0  0
 14 16  1  0  0  0  0
 14 13  1  0  0  0  0
 15 14  2  0  0  0  0
 16 17  1  0  0  0  0
 17 11  1  0  0  0  0
 18 17  2  0  0  0  0
 19 16  1  0  0  0  0
 20 21  1  0  0  0  0
 21 22  2  0  0  0  0
 22 30  1  0  0  0  0
 23 22  1  0  0  0  0
 24 23  2  0  0  0  0
 25 24  1  0  0  0  0
 25 31  1  0  0  0  0
 26 25  2  0  0  0  0
 27 28  2  0  0  0  0
 27 26  1  0  0  0  0
 28 29  1  0  0  0  0
 29 20  2  0  0  0  0
 29 24  1  0  0  0  0
 32 26  1  0  0  0  0
 33 27  1  0  0  0  0
 34 28  1  0  0  0  0
 36 35  1  0  0  0  0
M  END
>  <minimizedAffinity>
-7.6013732

>  <minimizedRMSD>
1.05168056

$$$$
