
     RDKit          3D

 40 43  0  0  0  0  0  0  0  0999 V2000
   35.2971   29.4119   48.9767 C   0  0  2  0  0  0  0  0  0  0  0  0
   34.1933   29.3537   49.9339 C   0  0  0  0  0  0  0  0  0  0  0  0
   34.5320   28.0951   49.3407 C   0  0  1  0  0  0  0  0  0  0  0  0
   36.7109   29.3817   49.5828 C   0  0  0  0  0  0  0  0  0  0  0  0
   38.0605   32.7729   49.4341 C   0  0  0  0  0  0  0  0  0  0  0  0
   38.7513   32.7774   48.2000 C   0  0  0  0  0  0  0  0  0  0  0  0
   38.7321   31.5835   47.4399 C   0  0  0  0  0  0  0  0  0  0  0  0
   38.0499   30.5052   47.9440 N   0  0  0  0  0  0  0  0  0  0  0  0
   37.4117   30.5699   49.1299 C   0  0  0  0  0  0  0  0  0  0  0  0
   37.4263   31.7154   49.8663 N   0  0  0  0  0  0  0  0  0  0  0  0
   33.5666   27.5836   48.2923 C   0  0  0  0  0  0  0  0  0  0  0  0
   33.9093   26.4439   47.7913 O   0  0  0  0  0  0  0  0  0  0  0  0
   32.4085   28.2070   47.8628 O   0  0  0  0  0  0  0  0  0  0  0  0
   31.1496   27.8215   48.2125 C   0  0  0  0  0  0  0  0  0  0  0  0
   30.6313   27.8069   49.5883 C   0  0  0  0  0  0  0  0  0  0  0  0
   29.3597   27.4092   49.8334 C   0  0  0  0  0  0  0  0  0  0  0  0
   28.5301   27.0050   48.7547 C   0  0  0  0  0  0  0  0  0  0  0  0
   29.6397   27.2031   47.2676 S   0  0  0  0  0  0  0  0  0  0  0  0
   35.2057   29.6538   47.9181 H   0  0  0  0  0  0  0  0  0  0  0  0
   33.2638   29.9330   49.6598 H   0  0  0  0  0  0  0  0  0  0  0  0
   34.4469   29.5598   51.0136 H   0  0  0  0  0  0  0  0  0  0  0  0
   35.1815   27.3399   49.7782 H   0  0  0  0  0  0  0  0  0  0  0  0
   36.6468   29.3914   50.6857 H   0  0  0  0  0  0  0  0  0  0  0  0
   37.2115   28.4417   49.2761 H   0  0  0  0  0  0  0  0  0  0  0  0
   38.0269   33.6513   50.0786 H   0  0  0  0  0  0  0  0  0  0  0  0
   39.2626   33.6754   47.8820 H   0  0  0  0  0  0  0  0  0  0  0  0
   39.2504   31.5701   46.5029 H   0  0  0  0  0  0  0  0  0  0  0  0
   31.3064   28.1233   50.3687 H   0  0  0  0  0  0  0  0  0  0  0  0
   28.9351   27.3822   50.8211 H   0  0  0  0  0  0  0  0  0  0  0  0
   27.2100   26.5682   48.7983 N   0  0  0  0  0  0  0  0  0  0  0  0
   26.9338   25.4527   48.1357 C   0  0  0  0  0  0  0  0  0  0  0  0
   25.6253   24.9603   48.1400 C   0  0  0  0  0  0  0  0  0  0  0  0
   24.6782   25.6743   48.8450 C   0  0  0  0  0  0  0  0  0  0  0  0
   23.4859   25.2868   48.8891 O   0  0  0  0  0  0  0  0  0  0  0  0
   25.0361   26.8003   49.4940 N   0  0  0  0  0  0  0  0  0  0  0  0
   26.3128   27.2851   49.4929 C   0  0  0  0  0  0  0  0  0  0  0  0
   26.5637   28.3440   50.1246 O   0  0  0  0  0  0  0  0  0  0  0  0
   27.6800   24.8960   47.5841 H   0  0  0  0  0  0  0  0  0  0  0  0
   25.3376   24.0564   47.6191 H   0  0  0  0  0  0  0  0  0  0  0  0
   24.3313   27.3548   50.0340 H   0  0  0  0  0  0  0  0  0  0  0  0
  1  3  1  0
  1  4  1  0
  1  2  1  0
  3  2  1  0
  5 10  2  0
  6  5  1  0
  7  8  1  0
  7  6  2  0
  8  9  2  0
  9  4  1  0
  9 10  1  0
 11  3  1  0
 12 11  2  0
 13 14  1  0
 13 11  1  0
 14 15  2  0
 15 16  1  0
 17 16  2  0
 18 14  1  0
 18 17  1  0
  1 19  1  6
  2 20  1  0
  2 21  1  0
  3 22  1  1
  4 23  1  0
  4 24  1  0
  5 25  1  0
  6 26  1  0
  7 27  1  0
 15 28  1  0
 16 29  1  0
 30 31  1  0
 31 32  2  0
 32 33  1  0
 33 34  2  0
 33 35  1  0
 35 36  1  0
 36 37  2  0
 36 30  1  0
 31 38  1  0
 32 39  1  0
 35 40  1  0
 17 30  1  0
M  ISO  8  19  13  20  13  21  13  22  13  23   8  24   8  25  14  26  14
M  ISO  3  27  14  28  14  29  14
M  END
>  <DihAtoms>  (1) 
15,16,29,30

>  <DihDeg>  (1) 
-41.37285566722529

$$$$
