
 OpenBabel03252514033D

 38 41  0  0  1  0  0  0  0  0999 V2000
   35.4500   29.2710   48.7080 C   0  0  2  0  0  0  0  0  0  0  0  0
   34.2180   29.2610   49.4950 C   0  0  0  0  0  0  0  0  0  0  0  0
   34.6910   27.9640   49.1150 C   0  0  1  0  0  0  0  0  0  0  0  0
   35.5100   29.3850   47.6250 H   0  0  0  0  0  0  0  0  0  0  0  0
   33.3190   29.7510   49.0210 H   0  0  0  0  0  0  0  0  0  0  0  0
   34.2990   29.6030   50.5670 H   0  0  0  0  0  0  0  0  0  0  0  0
   35.2960   27.3020   49.7300 H   0  0  0  0  0  0  0  0  0  0  0  0
   36.7570   29.3910   49.5110 C   0  0  0  0  0  0  0  0  0  0  0  0
   36.5310   29.4430   50.5910 H   0  0  0  0  0  0  0  0  0  0  0  0
   37.3710   28.4860   49.3310 H   0  0  0  0  0  0  0  0  0  0  0  0
   37.9230   32.8520   49.4280 C   0  0  0  0  0  0  0  0  0  0  0  0
   38.6940   32.8900   48.2430 C   0  0  0  0  0  0  0  0  0  0  0  0
   38.7920   31.6950   47.4920 C   0  0  0  0  0  0  0  0  0  0  0  0
   38.1390   30.5820   47.9570 N   0  0  0  0  0  0  0  0  0  0  0  0
   37.4200   30.6150   49.0970 C   0  0  0  0  0  0  0  0  0  0  0  0
   37.3210   31.7620   49.8240 N   0  0  0  0  0  0  0  0  0  0  0  0
   37.7980   33.7290   50.0630 H   0  0  0  0  0  0  0  0  0  0  0  0
   39.1750   33.8140   47.9530 H   0  0  0  0  0  0  0  0  0  0  0  0
   39.3720   31.7070   46.5920 H   0  0  0  0  0  0  0  0  0  0  0  0
   33.9150   27.2820   48.0080 C   0  0  0  0  0  0  0  0  0  0  0  0
   34.2990   26.0690   47.7830 O   0  0  0  0  0  0  0  0  0  0  0  0
   32.8800   27.8270   47.2690 O   0  0  0  0  0  0  0  0  0  0  0  0
   31.6080   27.9900   47.7260 C   0  0  0  0  0  0  0  0  0  0  0  0
   31.0870   27.4150   48.9750 C   0  0  0  0  0  0  0  0  0  0  0  0
   29.8040   27.6380   49.3460 C   0  0  0  0  0  0  0  0  0  0  0  0
   28.9630   28.4310   48.5230 C   0  0  0  0  0  0  0  0  0  0  0  0
   30.0790   28.9000   47.1030 S   0  0  0  0  0  0  0  0  0  0  0  0
   31.7710   26.8190   49.5620 H   0  0  0  0  0  0  0  0  0  0  0  0
   29.3790   27.2400   50.2510 H   0  0  0  0  0  0  0  0  0  0  0  0
   27.6300   28.7740   48.7270 N   0  0  0  0  0  0  0  0  0  0  0  0
   26.7270   28.0430   48.0890 C   0  0  0  0  0  3  0  0  0  0  0  0
   25.3690   28.3370   48.2530 C   0  0  0  0  0  3  0  0  0  0  0  0
   25.0410   29.3890   49.0830 C   0  0  0  0  0  0  0  0  0  0  0  0
   23.8410   29.7040   49.2720 O   0  0  0  0  0  0  0  0  0  0  0  0
   26.0170   30.0860   49.6980 N   0  0  0  0  0  0  0  0  0  0  0  0
   27.3430   29.8020   49.5420 C   0  0  0  0  0  0  0  0  0  0  0  0
   28.1930   30.5020   50.1510 O   0  0  0  0  0  0  0  0  0  0  0  0
   25.7860   30.8860   50.3310 H   0  0  0  0  0  0  0  0  0  0  0  0
  1  4  1  6  0  0  0
  1  3  1  0  0  0  0
  1  2  1  0  0  0  0
  1  8  1  0  0  0  0
  2  6  1  0  0  0  0
  3  2  1  0  0  0  0
  3  7  1  1  0  0  0
  5  2  1  0  0  0  0
  8  9  1  0  0  0  0
 10  8  1  0  0  0  0
 11 16  1  0  0  0  0
 11 17  1  0  0  0  0
 12 11  2  0  0  0  0
 13 14  2  0  0  0  0
 13 12  1  0  0  0  0
 14 15  1  0  0  0  0
 15  8  1  0  0  0  0
 15 16  2  0  0  0  0
 18 12  1  0  0  0  0
 19 13  1  0  0  0  0
 20  3  1  0  0  0  0
 21 20  2  0  0  0  0
 22 23  1  0  0  0  0
 22 20  1  0  0  0  0
 23 24  2  0  0  0  0
 24 25  1  0  0  0  0
 24 28  1  0  0  0  0
 25 29  1  0  0  0  0
 26 30  1  0  0  0  0
 26 25  2  0  0  0  0
 27 23  1  0  0  0  0
 27 26  1  0  0  0  0
 30 36  1  0  0  0  0
 31 32  2  0  0  0  0
 31 30  1  0  0  0  0
 32 33  1  0  0  0  0
 33 34  2  0  0  0  0
 33 35  1  0  0  0  0
 35 38  1  0  0  0  0
 36 35  1  0  0  0  0
 36 37  2  0  0  0  0
M  END
>  <minimizedAffinity>
-5.94209957

>  <minimizedRMSD>
1.91437507

$$$$
