REMARK  Name = 
REMARK  5 active torsions:
REMARK  status: ('A' for Active; 'I' for Inactive)
REMARK    1  A    between atoms: C_1  and  C_6
REMARK    2  A    between atoms: C_1  and  C_8
REMARK    3  A    between atoms: C_10  and  C_11
REMARK    4  A    between atoms: C_11  and  O_13
REMARK    5  A    between atoms: O_13  and  C_23
REMARK                            x       y       z     vdW  Elec       q    Type
REMARK                         _______ _______ _______ _____ _____    ______ ____
ROOT
ATOM      1  C   UNL     1      35.428  29.542  49.215  0.00  0.00    +0.000 C 
ATOM      2  C   UNL     1      34.399  29.475  50.264  0.00  0.00    +0.000 C 
ATOM      3  C   UNL     1      34.650  28.248  49.520  0.00  0.00    +0.000 C 
ATOM      4  H   UNL     1      35.271  30.002  48.231  0.00  0.00    +0.000 HD
ATOM      5  H   UNL     1      34.765  29.621  51.303  0.00  0.00    +0.000 HD
ATOM      6  H   UNL     1      33.484  30.101  50.081  0.00  0.00    +0.000 HD
ATOM      7  H   UNL     1      35.329  27.432  49.782  0.00  0.00    +0.000 HD
ENDROOT
BRANCH   1   8
ATOM      8  C   UNL     1      36.889  29.439  49.657  0.00  0.00    +0.000 C 
ATOM      9  H   UNL     1      36.920  29.415  50.749  0.00  0.00    +0.000 HD
ATOM     10  H   UNL     1      37.287  28.466  49.309  0.00  0.00    +0.000 HD
BRANCH   8  15
ATOM     11  C   UNL     1      38.440  32.743  49.383  0.00  0.00    +0.000 A 
ATOM     12  C   UNL     1      38.944  32.751  48.072  0.00  0.00    +0.000 A 
ATOM     13  C   UNL     1      38.739  31.601  47.292  0.00  0.00    +0.000 A 
ATOM     14  N   UNL     1      38.063  30.545  47.850  0.00  0.00    +0.000 NA
ATOM     15  C   UNL     1      37.603  30.591  49.106  0.00  0.00    +0.000 A 
ATOM     16  N   UNL     1      37.797  31.691  49.860  0.00  0.00    +0.000 NA
ATOM     17  H   UNL     1      38.603  33.629  49.968  0.00  0.00    +0.000 HD
ATOM     18  H   UNL     1      39.470  33.620  47.693  0.00  0.00    +0.000 HD
ATOM     19  H   UNL     1      39.115  31.584  46.288  0.00  0.00    +0.000 HD
ENDBRANCH   8  15
ENDBRANCH   1   8
BRANCH   3  20
ATOM     20  C   UNL     1      33.574  27.853  48.546  0.00  0.00    +0.000 C 
ATOM     21  O   UNL     1      33.889  26.852  47.785  0.00  0.00    +0.000 OA
BRANCH  20  22
ATOM     22  O   UNL     1      32.329  28.446  48.418  0.00  0.00    +0.000 OA
BRANCH  22  23
ATOM     23  C   UNL     1      31.441  27.956  47.474  0.00  0.00    +0.000 A 
ATOM     24  C   UNL     1      31.613  27.592  46.158  0.00  0.00    +0.000 A 
ATOM     25  N   UNL     1      30.397  27.185  45.729  0.00  0.00    +0.000 NA
ATOM     26  C   UNL     1      29.492  27.285  46.726  0.00  0.00    +0.000 A 
ATOM     27  N   UNL     1      30.139  27.767  47.821  0.00  0.00    +0.000 N 
ATOM     28  H   UNL     1      29.633  27.931  48.734  0.00  0.00    +0.000 HD
ENDBRANCH  22  23
ENDBRANCH  20  22
ENDBRANCH   3  20
TORSDOF 5
