
 OpenBabel03252514033D

 38 41  0  0  1  0  0  0  0  0999 V2000
   35.3210   29.4290   48.9820 C   0  0  2  0  0  0  0  0  0  0  0  0
   34.2570   29.4770   49.9840 C   0  0  0  0  0  0  0  0  0  0  0  0
   34.4730   28.1830   49.4080 C   0  0  1  0  0  0  0  0  0  0  0  0
   35.2040   29.6560   47.9220 H   0  0  0  0  0  0  0  0  0  0  0  0
   33.3640   30.1200   49.7340 H   0  0  0  0  0  0  0  0  0  0  0  0
   34.5710   29.6850   51.0480 H   0  0  0  0  0  0  0  0  0  0  0  0
   35.0800   27.3900   49.8360 H   0  0  0  0  0  0  0  0  0  0  0  0
   36.7530   29.3020   49.5310 C   0  0  0  0  0  0  0  0  0  0  0  0
   36.7360   29.3390   50.6350 H   0  0  0  0  0  0  0  0  0  0  0  0
   37.1670   28.3200   49.2260 H   0  0  0  0  0  0  0  0  0  0  0  0
   38.3500   32.5750   49.2480 C   0  0  0  0  0  0  0  0  0  0  0  0
   38.9860   32.5000   47.9870 C   0  0  0  0  0  0  0  0  0  0  0  0
   38.8440   31.2970   47.2570 C   0  0  0  0  0  0  0  0  0  0  0  0
   38.1030   30.2840   47.8130 N   0  0  0  0  0  0  0  0  0  0  0  0
   37.5230   30.4230   49.0220 C   0  0  0  0  0  0  0  0  0  0  0  0
   37.6550   31.5780   49.7300 N   0  0  0  0  0  0  0  0  0  0  0  0
   38.4110   33.4660   49.8730 H   0  0  0  0  0  0  0  0  0  0  0  0
   39.5520   33.3490   47.6270 H   0  0  0  0  0  0  0  0  0  0  0  0
   39.3190   31.2240   46.3000 H   0  0  0  0  0  0  0  0  0  0  0  0
   33.4280   27.7270   48.4110 C   0  0  0  0  0  0  0  0  0  0  0  0
   33.6200   26.5250   47.9800 O   0  0  0  0  0  0  0  0  0  0  0  0
   32.3410   28.4570   47.9630 O   0  0  0  0  0  0  0  0  0  0  0  0
   31.0670   28.3000   48.4160 C   0  0  0  0  0  0  0  0  0  0  0  0
   30.6390   28.5240   49.8050 C   0  0  0  0  0  0  0  0  0  0  0  0
   29.3440   28.3440   50.1570 C   0  0  0  0  0  0  0  0  0  0  0  0
   28.4000   27.9380   49.1790 C   0  0  0  0  0  0  0  0  0  0  0  0
   29.4300   27.7960   47.6290 S   0  0  0  0  0  0  0  0  0  0  0  0
   31.3990   28.8310   50.5080 H   0  0  0  0  0  0  0  0  0  0  0  0
   28.9830   28.4960   51.1590 H   0  0  0  0  0  0  0  0  0  0  0  0
   27.0380   27.7030   49.3380 N   0  0  0  0  0  0  0  0  0  0  0  0
   26.4040   28.4710   50.2150 C   0  0  0  0  0  3  0  0  0  0  0  0
   25.0340   28.2860   50.4220 C   0  0  0  0  0  3  0  0  0  0  0  0
   24.4070   27.2970   49.6900 C   0  0  0  0  0  0  0  0  0  0  0  0
   23.1790   27.0800   49.8290 O   0  0  0  0  0  0  0  0  0  0  0  0
   25.1190   26.5580   48.8180 N   0  0  0  0  0  0  0  0  0  0  0  0
   26.4570   26.7350   48.6120 C   0  0  0  0  0  0  0  0  0  0  0  0
   27.0490   26.0010   47.7780 O   0  0  0  0  0  0  0  0  0  0  0  0
   24.6610   25.8040   48.2540 H   0  0  0  0  0  0  0  0  0  0  0  0
  1  4  1  6  0  0  0
  1  3  1  0  0  0  0
  1  8  1  0  0  0  0
  1  2  1  0  0  0  0
  2  6  1  0  0  0  0
  3  7  1  1  0  0  0
  3  2  1  0  0  0  0
  5  2  1  0  0  0  0
  8  9  1  0  0  0  0
 10  8  1  0  0  0  0
 11 16  1  0  0  0  0
 11 17  1  0  0  0  0
 12 11  2  0  0  0  0
 13 14  2  0  0  0  0
 13 12  1  0  0  0  0
 14 15  1  0  0  0  0
 15  8  1  0  0  0  0
 15 16  2  0  0  0  0
 18 12  1  0  0  0  0
 19 13  1  0  0  0  0
 20  3  1  0  0  0  0
 21 20  2  0  0  0  0
 22 20  1  0  0  0  0
 22 23  1  0  0  0  0
 23 24  2  0  0  0  0
 24 25  1  0  0  0  0
 24 28  1  0  0  0  0
 25 29  1  0  0  0  0
 26 30  1  0  0  0  0
 26 25  2  0  0  0  0
 27 23  1  0  0  0  0
 27 26  1  0  0  0  0
 30 31  1  0  0  0  0
 31 32  2  0  0  0  0
 33 34  2  0  0  0  0
 33 32  1  0  0  0  0
 35 33  1  0  0  0  0
 36 35  1  0  0  0  0
 36 30  1  0  0  0  0
 37 36  2  0  0  0  0
 38 35  1  0  0  0  0
M  END
>  <minimizedAffinity>
3.12458396

>  <minimizedRMSD>
0.950418591

$$$$
