
 OpenBabel03252513213D

 22 23  0  0  0  0  0  0  0  0999 V2000
   35.3820   29.1390   50.3630 C   0  0  0  0  0  0  0  0  0  0  0  0
   36.1320   30.1660   49.7740 C   0  0  0  0  0  0  0  0  0  0  0  0
   35.8080   30.5030   48.4630 C   0  0  0  0  0  0  0  0  0  0  0  0
   34.7960   29.8360   47.8190 N   0  0  0  0  0  0  0  0  0  0  0  0
   34.1060   28.8500   48.4430 C   0  0  0  0  0  0  0  0  0  0  0  0
   34.4090   28.5190   49.7020 N   0  0  0  0  0  0  0  0  0  0  0  0
   35.6530   28.9030   51.3710 H   0  0  0  0  0  0  0  0  0  0  0  0
   36.3230   31.2810   47.9130 H   0  0  0  0  0  0  0  0  0  0  0  0
   33.0520   28.1380   47.8060 N   0  0  0  0  0  0  0  0  0  0  0  0
   32.1040   27.6920   48.6680 C   0  0  0  0  0  0  0  0  0  0  0  0
   31.0100   26.9830   48.2300 C   0  0  0  0  0  0  0  0  0  0  0  0
   30.9030   26.7360   46.8680 C   0  0  0  0  0  0  0  0  0  0  0  0
   29.7940   26.0100   46.3760 N   0  0  0  0  0  0  0  0  0  0  0  0
   31.8570   27.1930   46.0510 N   0  0  0  0  0  0  0  0  0  0  0  0
   32.9250   27.8860   46.4850 C   0  0  0  0  0  0  0  0  0  0  0  0
   33.8530   28.3400   45.7600 O   0  0  0  0  0  0  0  0  0  0  0  0
   29.0310   26.5500   45.8750 H   0  0  0  0  0  0  0  0  0  0  0  0
   29.6580   24.9790   46.4630 H   0  0  0  0  0  0  0  0  0  0  0  0
   37.2310   30.8900   50.4740 C   0  0  0  0  0  0  0  0  0  0  0  0
   38.4670   30.6560   49.9560 F   0  0  0  0  0  0  0  0  0  0  0  0
   37.2690   30.5780   51.8030 F   0  0  0  0  0  0  0  0  0  0  0  0
   37.0080   32.2620   50.3630 F   0  0  0  0  0  0  0  0  0  0  0  0
  1  7  1  0  0  0  0
  2  1  1  0  0  0  0
  2 19  1  0  0  0  0
  3  2  2  0  0  0  0
  4  5  2  0  0  0  0
  4  3  1  0  0  0  0
  5  6  1  0  0  0  0
  6  1  2  0  0  0  0
  8  3  1  0  0  0  0
  9  5  1  0  0  0  0
  9 10  1  0  0  0  0
 11 10  2  0  0  0  0
 12 11  1  0  0  0  0
 13 18  1  0  0  0  0
 13 12  1  0  0  0  0
 14 15  1  0  0  0  0
 14 12  2  0  0  0  0
 15  9  1  0  0  0  0
 16 15  2  0  0  0  0
 17 13  1  0  0  0  0
 19 21  1  0  0  0  0
 20 19  1  0  0  0  0
 22 19  1  0  0  0  0
M  END
>  <minimizedAffinity>
-5.50931692

>  <minimizedRMSD>
0.66800034

$$$$
