
 OpenBabel03252514013D

 28 30  0  0  1  0  0  0  0  0999 V2000
   35.6270   29.5780   49.2890 C   0  0  2  0  0  0  0  0  0  0  0  0
   34.6940   29.4830   50.4200 C   0  0  0  0  0  0  0  0  0  0  0  0
   34.9090   28.2660   49.6440 C   0  0  1  0  0  0  0  0  0  0  0  0
   35.3330   30.1340   48.3960 H   0  0  0  0  0  0  0  0  0  0  0  0
   35.0760   29.4580   51.4820 H   0  0  0  0  0  0  0  0  0  0  0  0
   33.7220   30.0170   50.3840 H   0  0  0  0  0  0  0  0  0  0  0  0
   35.6030   27.4360   49.7590 H   0  0  0  0  0  0  0  0  0  0  0  0
   37.1210   29.4970   49.5860 C   0  0  0  0  0  0  0  0  0  0  0  0
   37.5600   28.5580   49.2050 H   0  0  0  0  0  0  0  0  0  0  0  0
   37.2200   29.4620   50.6890 H   0  0  0  0  0  0  0  0  0  0  0  0
   38.3690   32.9360   49.3580 C   0  0  0  0  0  0  0  0  0  0  0  0
   38.9170   32.9860   48.0680 C   0  0  0  0  0  0  0  0  0  0  0  0
   38.8500   31.8230   47.2820 C   0  0  0  0  0  0  0  0  0  0  0  0
   38.2510   30.7020   47.8280 N   0  0  0  0  0  0  0  0  0  0  0  0
   37.7420   30.7220   49.0800 C   0  0  0  0  0  0  0  0  0  0  0  0
   37.8080   31.8440   49.8360 N   0  0  0  0  0  0  0  0  0  0  0  0
   38.4750   33.8820   49.8710 H   0  0  0  0  0  0  0  0  0  0  0  0
   39.3990   33.8100   47.5670 H   0  0  0  0  0  0  0  0  0  0  0  0
   39.2180   31.6870   46.2780 H   0  0  0  0  0  0  0  0  0  0  0  0
   33.7440   27.8750   48.7730 C   0  0  0  0  0  0  0  0  0  0  0  0
   34.0570   27.1780   47.7290 O   0  0  0  0  0  0  0  0  0  0  0  0
   32.4060   28.1720   48.9750 O   0  0  0  0  0  0  0  0  0  0  0  0
   31.4480   27.5530   48.1860 C   0  0  0  0  0  0  0  0  0  0  0  0
   30.9200   28.2880   47.1750 N   0  0  0  0  0  0  0  0  0  0  0  0
   30.0370   27.5920   46.5140 O   0  0  0  0  0  0  0  0  0  0  0  0
   29.9830   26.4140   47.0790 C   0  0  0  0  0  0  0  0  0  0  0  0
   29.3020   25.6850   46.6720 H   0  0  0  0  0  0  0  0  0  0  0  0
   30.8480   26.3710   48.1140 N   0  0  0  0  0  0  0  0  0  0  0  0
  1  4  1  6  0  0  0
  1  8  1  0  0  0  0
  1  3  1  0  0  0  0
  1  2  1  0  0  0  0
  2  5  1  0  0  0  0
  3  7  1  1  0  0  0
  3  2  1  0  0  0  0
  6  2  1  0  0  0  0
  8 10  1  0  0  0  0
  9  8  1  0  0  0  0
 11 16  1  0  0  0  0
 11 17  1  0  0  0  0
 12 11  2  0  0  0  0
 13 14  2  0  0  0  0
 13 12  1  0  0  0  0
 14 15  1  0  0  0  0
 15  8  1  0  0  0  0
 15 16  2  0  0  0  0
 18 12  1  0  0  0  0
 19 13  1  0  0  0  0
 20 22  1  0  0  0  0
 20  3  1  0  0  0  0
 21 20  2  0  0  0  0
 23 22  1  0  0  0  0
 24 23  2  0  0  0  0
 25 26  1  0  0  0  0
 25 24  1  0  0  0  0
 26 28  2  0  0  0  0
 27 26  1  0  0  0  0
 28 23  1  0  0  0  0
M  END
>  <minimizedAffinity>
-4.82627821

>  <minimizedRMSD>
0.587825477

$$$$
