
 OpenBabel03252512563D

 31 34  0  0  0  0  0  0  0  0999 V2000
   37.6800   32.4740   49.5860 C   0  0  0  0  0  0  0  0  0  0  0  0
   38.5630   32.7350   48.5240 C   0  0  0  0  0  0  0  0  0  0  0  0
   38.3640   32.0280   47.3420 C   0  0  0  0  0  0  0  0  0  0  0  0
   37.3440   31.1180   47.2400 N   0  0  0  0  0  0  0  0  0  0  0  0
   36.5250   30.9140   48.3070 C   0  0  0  0  0  0  0  0  0  0  0  0
   36.6900   31.5870   49.4740 N   0  0  0  0  0  0  0  0  0  0  0  0
   37.8690   33.0450   50.4860 H   0  0  0  0  0  0  0  0  0  0  0  0
   39.3820   33.4470   48.5640 H   0  0  0  0  0  0  0  0  0  0  0  0
   35.4410   29.9750   48.2600 N   0  0  0  0  0  0  0  0  0  0  0  0
   34.4210   30.1560   47.4080 C   0  0  0  0  0  0  0  0  0  0  0  0
   33.4030   29.2220   47.4050 C   0  0  0  0  0  0  0  0  0  0  0  0
   33.5430   28.1800   48.2950 C   0  0  0  0  0  0  0  0  0  0  0  0
   32.5590   27.1580   48.3820 N   0  0  0  0  0  0  0  0  0  0  0  0
   34.5800   28.0280   49.1370 N   0  0  0  0  0  0  0  0  0  0  0  0
   35.5620   28.9510   49.1230 C   0  0  0  0  0  0  0  0  0  0  0  0
   36.5390   28.8230   49.9060 O   0  0  0  0  0  0  0  0  0  0  0  0
   31.6590   26.7520   48.6490 H   0  0  0  0  0  0  0  0  0  0  0  0
   32.8780   26.2790   47.9280 H   0  0  0  0  0  0  0  0  0  0  0  0
   39.2250   32.2200   46.1680 C   0  0  0  0  0  0  0  0  0  0  0  0
   40.1600   33.1620   45.8650 N   0  0  0  0  0  0  0  0  0  0  0  0
   40.6680   32.9110   44.6900 O   0  0  0  0  0  0  0  0  0  0  0  0
   40.0960   31.8390   44.2220 C   0  0  0  0  0  0  0  0  0  0  0  0
   39.1750   31.3640   45.1220 N   0  0  0  0  0  0  0  0  0  0  0  0
   40.3330   31.1830   42.9640 N   0  0  0  0  0  0  0  0  0  0  0  0
   40.0240   31.7750   41.8020 N   0  0  0  0  0  0  0  0  0  0  0  0
   40.3510   30.9380   40.7890 C   0  0  0  0  0  0  0  0  0  0  0  0
   40.8780   29.7960   41.3930 C   0  0  0  0  0  0  0  0  0  0  0  0
   40.8590   29.9700   42.7640 C   0  0  0  0  0  0  0  0  0  0  0  0
   40.2590   31.0470   39.7180 H   0  0  0  0  0  0  0  0  0  0  0  0
   41.2600   28.8850   40.9200 H   0  0  0  0  0  0  0  0  0  0  0  0
   41.1760   29.3240   43.5490 H   0  0  0  0  0  0  0  0  0  0  0  0
  1  7  1  0  0  0  0
  2  8  1  0  0  0  0
  2  1  2  0  0  0  0
  3  2  1  0  0  0  0
  4  3  2  0  0  0  0
  4  5  1  0  0  0  0
  5  6  2  0  0  0  0
  6  1  1  0  0  0  0
  9  5  1  0  0  0  0
  9 15  1  0  0  0  0
 10  9  1  0  0  0  0
 11 10  2  0  0  0  0
 11 12  1  0  0  0  0
 12 13  1  0  0  0  0
 12 14  2  0  0  0  0
 13 17  1  0  0  0  0
 15 14  1  0  0  0  0
 15 16  2  0  0  0  0
 18 13  1  0  0  0  0
 19  3  1  0  0  0  0
 20 19  2  0  0  0  0
 21 20  1  0  0  0  0
 22 21  1  0  0  0  0
 22 23  2  0  0  0  0
 23 19  1  0  0  0  0
 24 22  1  0  0  0  0
 25 24  1  0  0  0  0
 26 27  1  0  0  0  0
 26 25  2  0  0  0  0
 27 28  2  0  0  0  0
 28 24  1  0  0  0  0
 28 31  1  0  0  0  0
 29 26  1  0  0  0  0
 30 27  1  0  0  0  0
M  END
>  <minimizedAffinity>
-7.37965155

>  <minimizedRMSD>
2.36240077

$$$$
