
 OpenBabel03252514013D

 28 30  0  0  1  0  0  0  0  0999 V2000
   35.3760   29.3970   49.0060 C   0  0  2  0  0  0  0  0  0  0  0  0
   34.2370   29.4460   49.9340 C   0  0  0  0  0  0  0  0  0  0  0  0
   34.5780   28.1370   49.3830 C   0  0  1  0  0  0  0  0  0  0  0  0
   35.2730   29.8260   48.0080 H   0  0  0  0  0  0  0  0  0  0  0  0
   34.4040   29.5650   51.0440 H   0  0  0  0  0  0  0  0  0  0  0  0
   33.3020   29.9620   49.6370 H   0  0  0  0  0  0  0  0  0  0  0  0
   35.2200   27.3360   49.7410 H   0  0  0  0  0  0  0  0  0  0  0  0
   36.7810   29.3670   49.6000 C   0  0  0  0  0  0  0  0  0  0  0  0
   37.2920   28.4120   49.3870 H   0  0  0  0  0  0  0  0  0  0  0  0
   36.6580   29.4160   50.7000 H   0  0  0  0  0  0  0  0  0  0  0  0
   38.2060   32.7410   49.4640 C   0  0  0  0  0  0  0  0  0  0  0  0
   38.8160   32.7740   48.2010 C   0  0  0  0  0  0  0  0  0  0  0  0
   38.7300   31.6210   47.4020 C   0  0  0  0  0  0  0  0  0  0  0  0
   38.0500   30.5280   47.9090 N   0  0  0  0  0  0  0  0  0  0  0  0
   37.4850   30.5640   49.1350 C   0  0  0  0  0  0  0  0  0  0  0  0
   37.5700   31.6760   49.9040 N   0  0  0  0  0  0  0  0  0  0  0  0
   38.3340   33.6780   49.9900 H   0  0  0  0  0  0  0  0  0  0  0  0
   39.3610   33.5760   47.7310 H   0  0  0  0  0  0  0  0  0  0  0  0
   39.1380   31.4750   46.4150 H   0  0  0  0  0  0  0  0  0  0  0  0
   33.6000   27.6250   48.3590 C   0  0  0  0  0  0  0  0  0  0  0  0
   33.9330   26.5060   47.8020 O   0  0  0  0  0  0  0  0  0  0  0  0
   32.4060   28.2110   47.9700 O   0  0  0  0  0  0  0  0  0  0  0  0
   31.2230   27.7980   48.5650 C   0  0  0  0  0  0  0  0  0  0  0  0
   30.3540   27.1080   47.7840 N   0  0  0  0  0  0  0  0  0  0  0  0
   29.2880   26.7810   48.4620 O   0  0  0  0  0  0  0  0  0  0  0  0
   29.4530   27.2480   49.6730 C   0  0  0  0  0  0  0  0  0  0  0  0
   28.6700   27.0770   50.3940 H   0  0  0  0  0  0  0  0  0  0  0  0
   30.6420   27.8790   49.7570 N   0  0  0  0  0  0  0  0  0  0  0  0
  1  4  1  6  0  0  0
  1  3  1  0  0  0  0
  1  8  1  0  0  0  0
  1  2  1  0  0  0  0
  2  5  1  0  0  0  0
  3  7  1  1  0  0  0
  3  2  1  0  0  0  0
  6  2  1  0  0  0  0
  8 10  1  0  0  0  0
  9  8  1  0  0  0  0
 11 16  1  0  0  0  0
 11 17  1  0  0  0  0
 12 11  2  0  0  0  0
 13 14  2  0  0  0  0
 13 12  1  0  0  0  0
 14 15  1  0  0  0  0
 15  8  1  0  0  0  0
 15 16  2  0  0  0  0
 18 12  1  0  0  0  0
 19 13  1  0  0  0  0
 20  3  1  0  0  0  0
 21 20  2  0  0  0  0
 22 20  1  0  0  0  0
 22 23  1  0  0  0  0
 23 28  1  0  0  0  0
 24 25  1  0  0  0  0
 24 23  2  0  0  0  0
 25 26  1  0  0  0  0
 26 28  2  0  0  0  0
 26 27  1  0  0  0  0
M  END
>  <minimizedAffinity>
-5.11282015

>  <minimizedRMSD>
1.44131041

$$$$
