REMARK  Name = 
REMARK  5 active torsions:
REMARK  status: ('A' for Active; 'I' for Inactive)
REMARK    1  A    between atoms: C_1  and  C_6
REMARK    2  A    between atoms: C_1  and  C_8
REMARK    3  A    between atoms: C_10  and  C_11
REMARK    4  A    between atoms: C_11  and  O_13
REMARK    5  A    between atoms: O_13  and  C_23
REMARK                            x       y       z     vdW  Elec       q    Type
REMARK                         _______ _______ _______ _____ _____    ______ ____
ROOT
ATOM      1  C   UNL     1      35.438  29.535  49.223  0.00  0.00    +0.000 C 
ATOM      2  C   UNL     1      34.405  29.465  50.266  0.00  0.00    +0.000 C 
ATOM      3  C   UNL     1      34.667  28.238  49.519  0.00  0.00    +0.000 C 
ATOM      4  H   UNL     1      35.236  30.089  48.304  0.00  0.00    +0.000 HD
ATOM      5  H   UNL     1      34.690  29.441  51.358  0.00  0.00    +0.000 HD
ATOM      6  H   UNL     1      33.451  30.016  50.139  0.00  0.00    +0.000 HD
ATOM      7  H   UNL     1      35.332  27.397  49.701  0.00  0.00    +0.000 HD
ENDROOT
BRANCH   1   8
ATOM      8  C   UNL     1      36.898  29.429  49.654  0.00  0.00    +0.000 C 
ATOM      9  H   UNL     1      37.333  28.453  49.377  0.00  0.00    +0.000 HD
ATOM     10  H   UNL     1      36.901  29.468  50.761  0.00  0.00    +0.000 HD
BRANCH   8  15
ATOM     11  C   UNL     1      38.422  32.750  49.370  0.00  0.00    +0.000 A 
ATOM     12  C   UNL     1      38.933  32.750  48.064  0.00  0.00    +0.000 A 
ATOM     13  C   UNL     1      38.746  31.594  47.287  0.00  0.00    +0.000 A 
ATOM     14  N   UNL     1      38.071  30.530  47.857  0.00  0.00    +0.000 NA
ATOM     15  C   UNL     1      37.604  30.596  49.123  0.00  0.00    +0.000 A 
ATOM     16  N   UNL     1      37.786  31.711  49.870  0.00  0.00    +0.000 NA
ATOM     17  H   UNL     1      38.622  33.686  49.874  0.00  0.00    +0.000 HD
ATOM     18  H   UNL     1      39.467  33.529  47.544  0.00  0.00    +0.000 HD
ATOM     19  H   UNL     1      39.071  31.425  46.273  0.00  0.00    +0.000 HD
ENDBRANCH   8  15
ENDBRANCH   1   8
BRANCH   3  20
ATOM     20  C   UNL     1      33.578  27.862  48.549  0.00  0.00    +0.000 C 
ATOM     21  O   UNL     1      33.861  26.864  47.776  0.00  0.00    +0.000 OA
BRANCH  20  22
ATOM     22  O   UNL     1      32.334  28.456  48.410  0.00  0.00    +0.000 OA
BRANCH  22  23
ATOM     23  C   UNL     1      31.451  27.963  47.460  0.00  0.00    +0.000 A 
ATOM     24  N   UNL     1      31.714  28.268  46.165  0.00  0.00    +0.000 NA
ATOM     25  O   UNL     1      30.813  27.747  45.378  0.00  0.00    +0.000 OA
ATOM     26  C   UNL     1      29.967  27.106  46.144  0.00  0.00    +0.000 A 
ATOM     27  H   UNL     1      29.139  26.602  45.675  0.00  0.00    +0.000 HD
ATOM     28  N   UNL     1      30.345  27.229  47.434  0.00  0.00    +0.000 NA
ENDBRANCH  22  23
ENDBRANCH  20  22
ENDBRANCH   3  20
TORSDOF 5
