
     RDKit          3D

 28 30  0  0  0  0  0  0  0  0999 V2000
   36.8976   29.4287   49.6541 C   0  0  0  0  0  0  0  0  0  0  0  0
   38.4221   32.7501   49.3703 C   0  0  0  0  0  0  0  0  0  0  0  0
   38.9329   32.7497   48.0636 C   0  0  0  0  0  0  0  0  0  0  0  0
   38.7459   31.5940   47.2874 C   0  0  0  0  0  0  0  0  0  0  0  0
   38.0711   30.5296   47.8572 N   0  0  0  0  0  0  0  0  0  0  0  0
   37.6039   30.5956   49.1232 C   0  0  0  0  0  0  0  0  0  0  0  0
   37.7856   31.7106   49.8697 N   0  0  0  0  0  0  0  0  0  0  0  0
   35.4382   29.5345   49.2229 C   0  0  2  0  0  0  0  0  0  0  0  0
   34.4054   29.4655   50.2659 C   0  0  0  0  0  0  0  0  0  0  0  0
   34.6667   28.2377   49.5185 C   0  0  1  0  0  0  0  0  0  0  0  0
   33.5784   27.8624   48.5487 C   0  0  0  0  0  0  0  0  0  0  0  0
   33.8612   26.8637   47.7759 O   0  0  0  0  0  0  0  0  0  0  0  0
   32.3339   28.4560   48.4095 O   0  0  0  0  0  0  0  0  0  0  0  0
   37.3325   28.4525   49.3775 H   0  0  0  0  0  0  0  0  0  0  0  0
   36.9010   29.4681   50.7614 H   0  0  0  0  0  0  0  0  0  0  0  0
   38.6223   33.6860   49.8744 H   0  0  0  0  0  0  0  0  0  0  0  0
   39.4670   33.5293   47.5441 H   0  0  0  0  0  0  0  0  0  0  0  0
   39.0708   31.4247   46.2729 H   0  0  0  0  0  0  0  0  0  0  0  0
   35.2362   30.0890   48.3045 H   0  0  0  0  0  0  0  0  0  0  0  0
   34.6896   29.4413   51.3577 H   0  0  0  0  0  0  0  0  0  0  0  0
   33.4511   30.0163   50.1389 H   0  0  0  0  0  0  0  0  0  0  0  0
   35.3316   27.3974   49.7009 H   0  0  0  0  0  0  0  0  0  0  0  0
   31.4512   27.9632   47.4596 C   0  0  0  0  0  0  0  0  0  0  0  0
   31.2923   28.7000   46.3324 N   0  0  0  0  0  0  0  0  0  0  0  0
   30.4402   28.1287   45.5260 O   0  0  0  0  0  0  0  0  0  0  0  0
   30.0425   27.0294   46.1140 C   0  0  0  0  0  0  0  0  0  0  0  0
   29.3274   26.4092   45.6005 H   0  0  0  0  0  0  0  0  0  0  0  0
   30.6561   26.9099   47.3097 N   0  0  0  0  0  0  0  0  0  0  0  0
  2  7  2  0
  3  2  1  0
  4  5  1  0
  4  3  2  0
  5  6  2  0
  6  1  1  0
  6  7  1  0
  8 10  1  0
  8  1  1  0
  8  9  1  0
 10  9  1  0
 11 10  1  0
 12 11  2  0
 13 11  1  0
  1 14  1  0
  1 15  1  0
  2 16  1  0
  3 17  1  0
  4 18  1  0
  8 19  1  6
  9 20  1  0
  9 21  1  0
 10 22  1  1
 23 24  2  0
 24 25  1  0
 25 26  1  0
 26 27  1  0
 26 28  2  0
 28 23  1  0
 13 23  1  0
M  ISO  8  14   8  15   8  16  14  17  14  18  14  19  13  20  13  21  13
M  ISO  2  22  13  27  14
M  END
>  <DihAtoms>  (1) 
10,12,22,23

>  <DihDeg>  (1) 
90.01206730491474

$$$$
