
 OpenBabel03252514003D

 28 30  0  0  1  0  0  0  0  0999 V2000
   35.4700   29.4800   49.1600 C   0  0  2  0  0  0  0  0  0  0  0  0
   34.4090   29.4770   50.1760 C   0  0  0  0  0  0  0  0  0  0  0  0
   34.6950   28.2030   49.5230 C   0  0  1  0  0  0  0  0  0  0  0  0
   35.2920   29.9690   48.2000 H   0  0  0  0  0  0  0  0  0  0  0  0
   34.6630   29.5290   51.2750 H   0  0  0  0  0  0  0  0  0  0  0  0
   33.4570   30.0130   49.9860 H   0  0  0  0  0  0  0  0  0  0  0  0
   35.3570   27.3790   49.7800 H   0  0  0  0  0  0  0  0  0  0  0  0
   36.9180   29.4110   49.6370 C   0  0  0  0  0  0  0  0  0  0  0  0
   37.3810   28.4400   49.3880 H   0  0  0  0  0  0  0  0  0  0  0  0
   36.8860   29.4660   50.7430 H   0  0  0  0  0  0  0  0  0  0  0  0
   38.4320   32.7370   49.3700 C   0  0  0  0  0  0  0  0  0  0  0  0
   38.9300   32.7510   48.0590 C   0  0  0  0  0  0  0  0  0  0  0  0
   38.7380   31.6020   47.2720 C   0  0  0  0  0  0  0  0  0  0  0  0
   38.0710   30.5310   47.8390 N   0  0  0  0  0  0  0  0  0  0  0  0
   37.6160   30.5840   49.1100 C   0  0  0  0  0  0  0  0  0  0  0  0
   37.8030   31.6920   49.8660 N   0  0  0  0  0  0  0  0  0  0  0  0
   38.6350   33.6690   49.8810 H   0  0  0  0  0  0  0  0  0  0  0  0
   39.4570   33.5360   47.5410 H   0  0  0  0  0  0  0  0  0  0  0  0
   39.0530   31.4440   46.2540 H   0  0  0  0  0  0  0  0  0  0  0  0
   33.6340   27.7560   48.5510 C   0  0  0  0  0  0  0  0  0  0  0  0
   33.9690   26.7540   47.8060 O   0  0  0  0  0  0  0  0  0  0  0  0
   32.3670   28.2910   48.3860 O   0  0  0  0  0  0  0  0  0  0  0  0
   31.4570   27.6360   47.5670 C   0  0  0  0  0  0  0  0  0  0  0  0
   30.5790   26.8010   48.1750 N   0  0  0  0  0  0  0  0  0  0  0  0
   29.7840   26.2530   47.2970 O   0  0  0  0  0  0  0  0  0  0  0  0
   30.1340   26.7200   46.1260 C   0  0  0  0  0  0  0  0  0  0  0  0
   29.5890   26.3810   45.2610 H   0  0  0  0  0  0  0  0  0  0  0  0
   31.1670   27.5760   46.2730 N   0  0  0  0  0  0  0  0  0  0  0  0
  1  4  1  6  0  0  0
  1  3  1  0  0  0  0
  1  8  1  0  0  0  0
  1  2  1  0  0  0  0
  2  5  1  0  0  0  0
  3  7  1  1  0  0  0
  3  2  1  0  0  0  0
  6  2  1  0  0  0  0
  8 10  1  0  0  0  0
  9  8  1  0  0  0  0
 11 16  1  0  0  0  0
 11 17  1  0  0  0  0
 12 11  2  0  0  0  0
 13 14  2  0  0  0  0
 13 12  1  0  0  0  0
 14 15  1  0  0  0  0
 15  8  1  0  0  0  0
 15 16  2  0  0  0  0
 18 12  1  0  0  0  0
 19 13  1  0  0  0  0
 20  3  1  0  0  0  0
 21 20  2  0  0  0  0
 22 20  1  0  0  0  0
 23 24  2  0  0  0  0
 23 22  1  0  0  0  0
 25 24  1  0  0  0  0
 26 28  2  0  0  0  0
 26 25  1  0  0  0  0
 27 26  1  0  0  0  0
 28 23  1  0  0  0  0
M  END
>  <minimizedAffinity>
-4.74117088

>  <minimizedRMSD>
0.324216038

$$$$
