
 OpenBabel03252511543D

 29 32  0  0  0  0  0  0  0  0999 V2000
   36.0920   30.3370   46.9590 N   0  0  0  0  0  0  0  0  0  0  0  0
   34.8890   29.9260   46.4990 C   0  0  0  0  0  0  0  0  0  0  0  0
   34.6330   29.9430   45.1420 C   0  0  0  0  0  0  0  0  0  0  0  0
   35.6600   30.3900   44.3550 C   0  0  0  0  0  0  0  0  0  0  0  0
   35.4540   30.4160   43.1010 O   0  0  0  0  0  0  0  0  0  0  0  0
   36.8630   30.8050   44.7650 N   0  0  0  0  0  0  0  0  0  0  0  0
   37.0420   30.7610   46.1130 C   0  0  0  0  0  0  0  0  0  0  0  0
   38.1480   31.1350   46.5780 O   0  0  0  0  0  0  0  0  0  0  0  0
   34.1190   29.5820   47.1900 H   0  0  0  0  0  0  0  0  0  0  0  0
   33.7070   29.6320   44.7150 H   0  0  0  0  0  0  0  0  0  0  0  0
   41.2480   29.7490   41.4210 H   0  0  0  0  0  0  0  0  0  0  0  0
   40.4250   29.6890   42.0900 N   0  0  0  0  0  0  0  0  0  0  0  0
   39.9080   28.5930   42.6740 C   0  0  0  0  0  0  0  0  0  0  0  0
   38.8570   28.9540   43.4580 N   0  0  0  0  0  0  0  0  0  0  0  0
   38.7340   30.2920   43.3490 C   0  0  0  0  0  0  0  0  0  0  0  0
   37.8820   31.2570   43.8800 C   0  0  0  0  0  0  0  0  0  0  0  0
   38.0440   32.5640   43.5470 N   0  0  0  0  0  0  0  0  0  0  0  0
   39.0220   32.9720   42.7010 C   0  0  0  0  0  0  0  0  0  0  0  0
   39.8650   32.0690   42.1670 N   0  0  0  0  0  0  0  0  0  0  0  0
   39.7150   30.7620   42.4900 C   0  0  0  0  0  0  0  0  0  0  0  0
   37.6540   30.1170   48.7350 C   0  0  0  0  0  0  0  0  0  0  0  0
   36.3080   30.3010   48.3600 C   0  0  0  0  0  0  0  0  0  0  0  0
   35.3490   30.4270   49.3520 C   0  0  0  0  0  0  0  0  0  0  0  0
   35.7320   30.3700   50.6470 N   0  0  0  0  0  0  0  0  0  0  0  0
   37.0380   30.1910   50.9940 C   0  0  0  0  0  0  0  0  0  0  0  0
   37.9670   30.0690   50.0400 N   0  0  0  0  0  0  0  0  0  0  0  0
   38.4320   30.0140   48.0170 H   0  0  0  0  0  0  0  0  0  0  0  0
   34.3630   30.5630   48.9850 H   0  0  0  0  0  0  0  0  0  0  0  0
   37.1630   30.1700   52.0680 H   0  0  0  0  0  0  0  0  0  0  0  0
  1 22  1  0  0  0  0
  2  1  1  0  0  0  0
  2  9  1  0  0  0  0
  3  2  2  0  0  0  0
  4  6  1  0  0  0  0
  4  3  1  0  0  0  0
  5  4  2  0  0  0  0
  6  7  1  0  0  0  0
  7  8  2  0  0  0  0
  7  1  1  0  0  0  0
 10  3  1  0  0  0  0
 11 12  1  0  0  0  0
 12 20  1  0  0  0  0
 12 13  1  0  0  0  0
 13 14  2  0  0  0  0
 15 14  1  0  0  0  0
 15 16  1  0  0  0  0
 16  6  1  0  0  0  0
 17 16  2  0  0  0  0
 18 17  1  0  0  0  0
 19 20  1  0  0  0  0
 19 18  2  0  0  0  0
 20 15  2  0  0  0  0
 21 26  1  0  0  0  0
 22 21  2  0  0  0  0
 22 23  1  0  0  0  0
 23 24  2  0  0  0  0
 24 25  1  0  0  0  0
 25 29  1  0  0  0  0
 26 25  2  0  0  0  0
 27 21  1  0  0  0  0
 28 23  1  0  0  0  0
M  END
>  <minimizedAffinity>
-5.12761402

>  <minimizedRMSD>
5.45693588

$$$$
