
 OpenBabel03252514083D

 44 48  0  0  0  0  0  0  0  0999 V2000
   33.9740   29.9960   47.2610 C   0  0  0  0  0  0  0  0  0  0  0  0
   35.0390   29.7420   48.1600 C   0  0  0  0  0  0  0  0  0  0  0  0
   34.8910   28.6540   48.9970 C   0  0  0  0  0  0  0  0  0  0  0  0
   33.7640   27.9030   48.9180 N   0  0  0  0  0  0  0  0  0  0  0  0
   32.7660   28.1570   48.0630 C   0  0  0  0  0  0  0  0  0  0  0  0
   32.8870   29.2000   47.2460 N   0  0  0  0  0  0  0  0  0  0  0  0
   34.0740   30.8510   46.5940 H   0  0  0  0  0  0  0  0  0  0  0  0
   35.6960   28.4590   49.6780 H   0  0  0  0  0  0  0  0  0  0  0  0
   36.1520   30.6220   48.1190 N   0  0  0  0  0  0  0  0  0  0  0  0
   36.6410   31.2680   49.2170 C   0  0  0  0  0  0  0  0  0  0  0  0
   37.6930   32.0260   48.8450 N   0  0  0  0  0  0  0  0  0  0  0  0
   37.8380   31.8360   47.5190 C   0  0  0  0  0  0  0  0  0  0  0  0
   38.7290   32.3320   46.5730 C   0  0  0  0  0  0  0  0  0  0  0  0
   38.6600   31.9800   45.2930 N   0  0  0  0  0  0  0  0  0  0  0  0
   37.7130   31.1150   44.8430 C   0  0  0  0  0  0  0  0  0  0  0  0
   36.8510   30.6370   45.7650 N   0  0  0  0  0  0  0  0  0  0  0  0
   36.8780   30.9580   47.0540 C   0  0  0  0  0  0  0  0  0  0  0  0
   36.3250   31.2530   50.2540 H   0  0  0  0  0  0  0  0  0  0  0  0
   37.6740   30.8400   43.7930 H   0  0  0  0  0  0  0  0  0  0  0  0
   39.7350   33.2400   46.9830 N   0  0  0  0  0  0  0  0  0  0  0  0
   39.6520   34.2960   46.9820 H   0  0  0  0  0  0  0  0  0  0  0  0
   40.7170   33.0860   47.3530 H   0  0  0  0  0  0  0  0  0  0  0  0
   31.5470   27.3250   47.9940 C   0  0  0  0  0  0  0  0  0  0  0  0
   30.7100   27.5300   49.2460 C   0  0  0  0  0  0  0  0  0  0  0  0
   29.6880   27.1540   49.0250 H   0  0  0  0  0  0  0  0  0  0  0  0
   31.1590   26.9780   50.0900 H   0  0  0  0  0  0  0  0  0  0  0  0
   30.6830   28.6180   49.4730 H   0  0  0  0  0  0  0  0  0  0  0  0
   30.6500   27.7950   46.8440 C   0  0  0  0  0  0  0  0  0  0  0  0
   31.1890   27.9650   45.9140 H   0  0  0  0  0  0  0  0  0  0  0  0
   30.2920   28.8100   47.1730 H   0  0  0  0  0  0  0  0  0  0  0  0
   29.7690   27.1360   46.7850 H   0  0  0  0  0  0  0  0  0  0  0  0
   31.8330   25.8740   47.7610 C   0  0  0  0  0  0  0  0  0  0  0  0
   31.0350   25.3060   48.2890 H   0  0  0  0  0  0  0  0  0  0  0  0
   32.8520   25.5860   48.1040 H   0  0  0  0  0  0  0  0  0  0  0  0
   31.8130   25.6060   46.3370 N   0  0  0  0  0  0  0  0  0  0  0  0
   32.7590   25.8850   45.4210 C   0  0  0  0  0  3  0  0  0  0  0  0
   32.4100   25.4950   44.1830 N   0  0  0  0  0  0  0  0  0  0  0  0
   31.1940   24.9360   44.2670 C   0  0  0  0  0  0  0  0  0  0  0  0
   30.3260   24.3590   43.3500 C   0  0  0  0  0  0  0  0  0  0  0  0
   30.5990   24.2990   42.3110 H   0  0  0  0  0  0  0  0  0  0  0  0
   29.1350   23.8630   43.7230 N   0  0  0  0  0  0  0  0  0  0  0  0
   28.8100   23.9470   45.0240 C   0  0  0  0  0  3  0  0  0  0  0  0
   29.6450   24.5060   45.9280 N   0  0  0  0  0  0  0  0  0  0  0  0
   30.8450   25.0140   45.5990 C   0  0  0  0  0  0  0  0  0  0  0  0
  1  2  1  0  0  0  0
  2  3  2  0  0  0  0
  3  8  1  0  0  0  0
  4  3  1  0  0  0  0
  5  4  2  0  0  0  0
  6  1  2  0  0  0  0
  6  5  1  0  0  0  0
  7  1  1  0  0  0  0
  9  2  1  0  0  0  0
  9 10  1  0  0  0  0
 10 18  1  0  0  0  0
 11 10  2  0  0  0  0
 12 11  1  0  0  0  0
 13 20  1  0  0  0  0
 13 12  2  0  0  0  0
 14 13  1  0  0  0  0
 15 14  2  0  0  0  0
 15 16  1  0  0  0  0
 16 17  2  0  0  0  0
 17 12  1  0  0  0  0
 17  9  1  0  0  0  0
 19 15  1  0  0  0  0
 20 22  1  0  0  0  0
 21 20  1  0  0  0  0
 23  5  1  0  0  0  0
 23 24  1  0  0  0  0
 24 27  1  0  0  0  0
 24 26  1  0  0  0  0
 25 24  1  0  0  0  0
 28 30  1  0  0  0  0
 28 23  1  0  0  0  0
 29 28  1  0  0  0  0
 31 28  1  0  0  0  0
 32 23  1  0  0  0  0
 32 34  1  0  0  0  0
 32 33  1  0  0  0  0
 35 32  1  0  0  0  0
 36 35  1  0  0  0  0
 37 38  1  0  0  0  0
 37 36  2  0  0  0  0
 38 44  1  0  0  0  0
 39 41  1  0  0  0  0
 39 38  2  0  0  0  0
 40 39  1  0  0  0  0
 41 42  2  0  0  0  0
 42 43  1  0  0  0  0
 44 43  2  0  0  0  0
 44 35  1  0  0  0  0
M  END
>  <minimizedAffinity>
-5.29224205

>  <minimizedRMSD>
2.98003268

$$$$
