
 OpenBabel03252513263D

 33 35  0  0  0  0  0  0  0  0999 V2000
   32.8060   27.8850   48.6880 C   0  0  0  0  0  0  0  0  0  0  0  0
   31.7170   28.3260   49.3710 C   0  0  0  0  0  0  0  0  0  0  0  0
   30.4820   27.7010   49.3400 C   0  0  0  0  0  0  0  0  0  0  0  0
   30.4020   26.5650   48.5520 C   0  0  0  0  0  0  0  0  0  0  0  0
   31.4890   26.0970   47.8500 C   0  0  0  0  0  0  0  0  0  0  0  0
   32.7010   26.7540   47.9110 C   0  0  0  0  0  0  0  0  0  0  0  0
   31.7850   29.2100   49.9830 H   0  0  0  0  0  0  0  0  0  0  0  0
   29.6550   28.0810   49.8920 H   0  0  0  0  0  0  0  0  0  0  0  0
   29.4420   26.0620   48.5150 H   0  0  0  0  0  0  0  0  0  0  0  0
   31.3610   25.2030   47.2520 H   0  0  0  0  0  0  0  0  0  0  0  0
   36.1750   28.9670   49.6820 C   0  0  0  0  0  0  0  0  0  0  0  0
   36.4510   29.9930   48.7680 C   0  0  0  0  0  0  0  0  0  0  0  0
   35.4670   30.2880   47.8290 C   0  0  0  0  0  0  0  0  0  0  0  0
   34.2880   29.5750   47.8370 N   0  0  0  0  0  0  0  0  0  0  0  0
   34.0850   28.5850   48.7580 C   0  0  0  0  0  0  0  0  0  0  0  0
   35.0210   28.3020   49.6540 N   0  0  0  0  0  0  0  0  0  0  0  0
   36.9560   28.7730   50.3850 H   0  0  0  0  0  0  0  0  0  0  0  0
   35.5770   31.0580   47.0810 H   0  0  0  0  0  0  0  0  0  0  0  0
   37.7230   30.7570   48.7660 C   0  0  0  0  0  0  0  0  0  0  0  0
   38.5120   30.4980   47.6800 F   0  0  0  0  0  0  0  0  0  0  0  0
   38.4710   30.5010   49.8870 F   0  0  0  0  0  0  0  0  0  0  0  0
   37.4370   32.1350   48.7310 F   0  0  0  0  0  0  0  0  0  0  0  0
   33.8770   26.2970   47.1880 C   0  0  0  0  0  0  0  0  0  0  0  0
   34.0220   26.8400   46.2370 H   0  0  0  0  0  0  0  0  0  0  0  0
   34.7830   26.5140   47.7940 H   0  0  0  0  0  0  0  0  0  0  0  0
   33.9410   24.8190   46.9080 C   0  0  0  0  0  0  0  0  0  0  0  0
   34.1570   24.2310   47.8220 H   0  0  0  0  0  0  0  0  0  0  0  0
   32.9030   24.5080   46.5890 H   0  0  0  0  0  0  0  0  0  0  0  0
   34.8960   24.5090   45.8630 C   0  0  0  0  0  0  0  0  0  0  0  0
   36.0130   23.6270   45.7430 C   0  0  0  0  0  0  0  0  0  0  0  0
   36.7040   23.5980   44.5680 C   0  0  0  0  0  0  0  0  0  0  0  0
   36.3310   24.4190   43.4870 C   0  0  0  0  0  0  0  0  0  0  0  0
   34.8280   25.3580   44.1710 S   0  0  0  0  0  0  0  0  0  0  0  0
  1 15  1  0  0  0  0
  1  2  1  0  0  0  0
  2  7  1  0  0  0  0
  3  2  2  0  0  0  0
  3  8  1  0  0  0  0
  4  3  1  0  0  0  0
  5  6  1  0  0  0  0
  5  4  2  0  0  0  0
  6  1  2  0  0  0  0
  9  4  1  0  0  0  0
 10  5  1  0  0  0  0
 11 17  1  0  0  0  0
 12 11  2  0  0  0  0
 13 14  2  0  0  0  0
 13 12  1  0  0  0  0
 14 15  1  0  0  0  0
 15 16  2  0  0  0  0
 16 11  1  0  0  0  0
 18 13  1  0  0  0  0
 19 12  1  0  0  0  0
 19 21  1  0  0  0  0
 20 19  1  0  0  0  0
 22 19  1  0  0  0  0
 23 25  1  0  0  0  0
 23  6  1  0  0  0  0
 24 23  1  0  0  0  0
 26 23  1  0  0  0  0
 26 27  1  0  0  0  0
 28 26  1  0  0  0  0
 29 26  1  0  0  0  0
 30 29  2  0  0  0  0
 31 30  1  0  0  0  0
 32 33  1  0  0  0  0
 32 31  2  0  0  0  0
 33 29  1  0  0  0  0
M  END
>  <minimizedAffinity>
-5.20290565

>  <minimizedRMSD>
0.557438433

$$$$
