
 OpenBabel03252514013D

 29 31  0  0  1  0  0  0  0  0999 V2000
   35.3680   29.3910   49.0130 C   0  0  2  0  0  0  0  0  0  0  0  0
   34.2290   29.4280   49.9400 C   0  0  0  0  0  0  0  0  0  0  0  0
   34.5690   28.1260   49.3670 C   0  0  1  0  0  0  0  0  0  0  0  0
   35.2620   29.8480   48.0270 H   0  0  0  0  0  0  0  0  0  0  0  0
   33.2710   29.9270   49.6690 H   0  0  0  0  0  0  0  0  0  0  0  0
   34.4070   29.5050   51.0490 H   0  0  0  0  0  0  0  0  0  0  0  0
   35.2210   27.3240   49.7050 H   0  0  0  0  0  0  0  0  0  0  0  0
   36.7700   29.3620   49.6160 C   0  0  0  0  0  0  0  0  0  0  0  0
   37.2610   28.3970   49.4600 H   0  0  0  0  0  0  0  0  0  0  0  0
   36.6450   29.4810   50.7110 H   0  0  0  0  0  0  0  0  0  0  0  0
   38.3570   32.6550   49.4100 C   0  0  0  0  0  0  0  0  0  0  0  0
   38.8860   32.6760   48.1110 C   0  0  0  0  0  0  0  0  0  0  0  0
   38.6820   31.5350   47.3140 C   0  0  0  0  0  0  0  0  0  0  0  0
   37.9860   30.4800   47.8450 N   0  0  0  0  0  0  0  0  0  0  0  0
   37.5040   30.5190   49.0970 C   0  0  0  0  0  0  0  0  0  0  0  0
   37.6930   31.6060   49.8680 N   0  0  0  0  0  0  0  0  0  0  0  0
   38.5160   33.5310   50.0170 H   0  0  0  0  0  0  0  0  0  0  0  0
   39.4300   33.4850   47.6750 H   0  0  0  0  0  0  0  0  0  0  0  0
   39.0450   31.4460   46.3000 H   0  0  0  0  0  0  0  0  0  0  0  0
   33.5940   27.6200   48.3370 C   0  0  0  0  0  0  0  0  0  0  0  0
   33.9340   26.4880   47.8000 O   0  0  0  0  0  0  0  0  0  0  0  0
   32.4160   28.2300   47.9420 O   0  0  0  0  0  0  0  0  0  0  0  0
   28.4040   26.3090   47.7920 H   0  0  0  0  0  0  0  0  0  0  0  0
   29.2870   26.7970   48.0600 N   0  0  0  0  0  0  0  0  0  0  0  0
   30.4320   27.1800   47.5040 N   0  0  0  0  0  0  0  0  0  0  0  0
   31.1960   27.7950   48.4340 C   0  0  0  0  0  0  0  0  0  0  0  0
   30.5130   27.8050   49.6330 C   0  0  0  0  0  0  0  0  0  0  0  0
   29.3020   27.1650   49.3680 C   0  0  0  0  0  0  0  0  0  0  0  0
   28.6030   27.0680   50.2040 H   0  0  0  0  0  0  0  0  0  0  0  0
  1  4  1  6  0  0  0
  1  3  1  0  0  0  0
  1  8  1  0  0  0  0
  1  2  1  0  0  0  0
  2  6  1  0  0  0  0
  3  7  1  1  0  0  0
  3  2  1  0  0  0  0
  5  2  1  0  0  0  0
  8 10  1  0  0  0  0
  9  8  1  0  0  0  0
 11 16  1  0  0  0  0
 11 17  1  0  0  0  0
 12 11  2  0  0  0  0
 13 14  2  0  0  0  0
 13 12  1  0  0  0  0
 14 15  1  0  0  0  0
 15  8  1  0  0  0  0
 15 16  2  0  0  0  0
 18 12  1  0  0  0  0
 19 13  1  0  0  0  0
 20  3  1  0  0  0  0
 21 20  2  0  0  0  0
 22 20  1  0  0  0  0
 22 26  1  0  0  0  0
 23 24  1  0  0  0  0
 24 28  1  0  0  0  0
 25 24  1  0  0  0  0
 25 26  2  0  0  0  0
 26 27  1  0  0  0  0
 28 27  2  0  0  0  0
 28 29  1  0  0  0  0
M  END
>  <minimizedAffinity>
-5.10122061

>  <minimizedRMSD>
1.35187912

$$$$
