
 OpenBabel03252513083D

 39 41  0  0  0  0  0  0  0  0999 V2000
   37.9330   32.9330   42.8350 C   0  0  0  0  0  0  0  0  0  0  0  0
   38.1910   33.9950   43.1250 H   0  0  0  0  0  0  0  0  0  0  0  0
   38.5560   32.7570   41.9280 H   0  0  0  0  0  0  0  0  0  0  0  0
   39.0550   29.9370   44.8110 C   0  0  0  0  0  0  0  0  0  0  0  0
   38.6110   30.7600   43.7400 C   0  0  0  0  0  0  0  0  0  0  0  0
   38.3840   32.0900   43.9180 C   0  0  0  0  0  0  0  0  0  0  0  0
   38.6050   32.5840   45.1820 N   0  0  0  0  0  0  0  0  0  0  0  0
   39.0150   31.8340   46.1780 C   0  0  0  0  0  0  0  0  0  0  0  0
   39.2470   30.5220   46.0330 N   0  0  0  0  0  0  0  0  0  0  0  0
   39.2460   28.8810   44.7090 H   0  0  0  0  0  0  0  0  0  0  0  0
   38.4870   30.2080   42.8220 H   0  0  0  0  0  0  0  0  0  0  0  0
   39.2430   32.3970   47.5310 C   0  0  0  0  0  0  0  0  0  0  0  0
   39.7420   33.3890   47.3990 H   0  0  0  0  0  0  0  0  0  0  0  0
   39.9020   31.7870   48.1430 H   0  0  0  0  0  0  0  0  0  0  0  0
   37.8950   32.6510   48.2010 C   0  0  0  0  0  0  0  0  0  0  0  0
   37.1180   32.8860   47.4510 H   0  0  0  0  0  0  0  0  0  0  0  0
   37.9270   33.4840   48.9060 H   0  0  0  0  0  0  0  0  0  0  0  0
   37.5310   31.4000   48.9100 C   0  0  0  0  0  0  0  0  0  0  0  0
   38.0720   30.8020   49.9800 C   0  0  0  0  0  0  0  0  0  0  0  0
   37.5940   29.6480   50.4860 C   0  0  0  0  0  0  0  0  0  0  0  0
   36.4060   29.1410   49.7060 C   0  0  0  0  0  0  0  0  0  0  0  0
   36.1770   30.4400   48.3510 S   0  0  0  0  0  0  0  0  0  0  0  0
   36.4840   32.9120   42.5690 C   0  0  0  0  0  0  0  0  0  0  0  0
   35.9310   33.1070   43.4990 H   0  0  0  0  0  0  0  0  0  0  0  0
   36.2260   31.8330   42.3360 H   0  0  0  0  0  0  0  0  0  0  0  0
   35.9580   33.6700   41.5070 N   0  0  0  0  0  0  0  0  0  0  0  0
   36.4420   33.8200   40.2800 C   0  0  0  0  0  0  0  0  0  0  0  0
   35.8730   34.5750   39.2810 C   0  0  0  0  0  0  0  0  0  0  0  0
   34.7070   35.2430   39.5370 C   0  0  0  0  0  0  0  0  0  0  0  0
   34.1320   35.9440   38.6880 O   0  0  0  0  0  0  0  0  0  0  0  0
   34.2140   35.1080   40.7410 N   0  0  0  0  0  0  0  0  0  0  0  0
   34.7840   34.3720   41.6890 C   0  0  0  0  0  0  0  0  0  0  0  0
   34.2250   34.3020   42.8320 O   0  0  0  0  0  0  0  0  0  0  0  0
   37.3800   33.2880   40.0600 H   0  0  0  0  0  0  0  0  0  0  0  0
   36.3570   34.6290   38.3070 H   0  0  0  0  0  0  0  0  0  0  0  0
   32.9690   35.8100   41.0430 C   0  0  0  0  0  0  0  0  0  0  0  0
   32.4280   35.3550   42.2280 F   0  0  0  0  0  0  0  0  0  0  0  0
   32.0870   35.5420   40.0150 F   0  0  0  0  0  0  0  0  0  0  0  0
   33.2490   37.1510   41.1250 F   0  0  0  0  0  0  0  0  0  0  0  0
  1  2  1  0  0  0  0
  1  6  1  0  0  0  0
  3  1  1  0  0  0  0
  4  9  1  0  0  0  0
  5  6  1  0  0  0  0
  5  4  2  0  0  0  0
  6  7  2  0  0  0  0
  7  8  1  0  0  0  0
  8 12  1  0  0  0  0
  9  8  2  0  0  0  0
 10  4  1  0  0  0  0
 11  5  1  0  0  0  0
 12 14  1  0  0  0  0
 12 15  1  0  0  0  0
 13 12  1  0  0  0  0
 15 17  1  0  0  0  0
 15 18  1  0  0  0  0
 16 15  1  0  0  0  0
 18 19  2  0  0  0  0
 19 20  1  0  0  0  0
 21 20  2  0  0  0  0
 22 18  1  0  0  0  0
 22 21  1  0  0  0  0
 23  1  1  0  0  0  0
 23 24  1  0  0  0  0
 25 23  1  0  0  0  0
 26 32  1  0  0  0  0
 26 23  1  0  0  0  0
 27 26  1  0  0  0  0
 28 29  1  0  0  0  0
 28 27  2  0  0  0  0
 29 31  1  0  0  0  0
 30 29  2  0  0  0  0
 31 36  1  0  0  0  0
 31 32  1  0  0  0  0
 32 33  2  0  0  0  0
 34 27  1  0  0  0  0
 35 28  1  0  0  0  0
 36 39  1  0  0  0  0
 36 37  1  0  0  0  0
 38 36  1  0  0  0  0
M  END
>  <minimizedAffinity>
-5.1917243

>  <minimizedRMSD>
4.32294083

$$$$
