REMARK  Name = 
REMARK  6 active torsions:
REMARK  status: ('A' for Active; 'I' for Inactive)
REMARK    1  A    between atoms: C_1  and  C_4
REMARK    2  A    between atoms: C_3  and  C_11
REMARK    3  A    between atoms: C_4  and  C_9
REMARK    4  A    between atoms: C_11  and  O_13
REMARK    5  A    between atoms: O_13  and  C_14
REMARK    6  A    between atoms: C_17  and  N_30
REMARK                            x       y       z     vdW  Elec       q    Type
REMARK                         _______ _______ _______ _____ _____    ______ ____
ROOT
ATOM      1  C   UNL     1      35.295  29.411  48.983  0.00  0.00    +0.000 C 
ATOM      2  C   UNL     1      34.188  29.364  49.933  0.00  0.00    +0.000 C 
ATOM      3  C   UNL     1      34.527  28.098  49.347  0.00  0.00    +0.000 C 
ATOM      4  H   UNL     1      35.239  29.726  47.939  0.00  0.00    +0.000 HD
ATOM      5  H   UNL     1      33.222  29.893  49.720  0.00  0.00    +0.000 HD
ATOM      6  H   UNL     1      34.447  29.505  51.022  0.00  0.00    +0.000 HD
ATOM      7  H   UNL     1      35.176  27.324  49.752  0.00  0.00    +0.000 HD
ENDROOT
BRANCH   1   8
ATOM      8  C   UNL     1      36.710  29.385  49.585  0.00  0.00    +0.000 C 
ATOM      9  H   UNL     1      37.201  28.419  49.341  0.00  0.00    +0.000 HD
ATOM     10  H   UNL     1      36.626  29.444  50.688  0.00  0.00    +0.000 HD
BRANCH   8  15
ATOM     11  C   UNL     1      38.077  32.771  49.434  0.00  0.00    +0.000 A 
ATOM     12  C   UNL     1      38.752  32.779  48.209  0.00  0.00    +0.000 A 
ATOM     13  C   UNL     1      38.726  31.593  47.440  0.00  0.00    +0.000 A 
ATOM     14  N   UNL     1      38.044  30.509  47.936  0.00  0.00    +0.000 NA
ATOM     15  C   UNL     1      37.418  30.563  49.112  0.00  0.00    +0.000 A 
ATOM     16  N   UNL     1      37.440  31.702  49.857  0.00  0.00    +0.000 NA
ATOM     17  H   UNL     1      38.042  33.631  50.090  0.00  0.00    +0.000 HD
ATOM     18  H   UNL     1      39.256  33.673  47.909  0.00  0.00    +0.000 HD
ATOM     19  H   UNL     1      39.243  31.607  46.509  0.00  0.00    +0.000 HD
ENDBRANCH   8  15
ENDBRANCH   1   8
BRANCH   3  20
ATOM     20  C   UNL     1      33.562  27.587  48.297  0.00  0.00    +0.000 C 
ATOM     21  O   UNL     1      33.909  26.439  47.811  0.00  0.00    +0.000 OA
BRANCH  20  22
ATOM     22  O   UNL     1      32.402  28.223  47.854  0.00  0.00    +0.000 OA
BRANCH  22  23
ATOM     23  C   UNL     1      31.144  27.830  48.225  0.00  0.00    +0.000 A 
ATOM     24  C   UNL     1      30.631  27.810  49.621  0.00  0.00    +0.000 A 
ATOM     25  C   UNL     1      29.360  27.393  49.809  0.00  0.00    +0.000 A 
ATOM     26  C   UNL     1      28.538  26.990  48.736  0.00  0.00    +0.000 A 
ATOM     27  S   UNL     1      29.637  27.202  47.260  0.00  0.00    +0.000 S 
ATOM     28  H   UNL     1      31.310  28.130  50.387  0.00  0.00    +0.000 HD
ATOM     29  H   UNL     1      28.917  27.349  50.789  0.00  0.00    +0.000 HD
BRANCH  26  30
ATOM     30  N   UNL     1      27.288  26.552  48.661  0.00  0.00    +0.000 N 
ATOM     31  C   UNL     1      26.354  26.972  47.785  0.00  0.00    +0.000 A 
ATOM     32  C   UNL     1      25.160  26.280  48.014  0.00  0.00    +0.000 A 
ATOM     33  N   UNL     1      25.422  25.437  49.054  0.00  0.00    +0.000 NA
ATOM     34  C   UNL     1      26.717  25.612  49.438  0.00  0.00    +0.000 A 
ENDBRANCH  26  30
ENDBRANCH  22  23
ENDBRANCH  20  22
ENDBRANCH   3  20
TORSDOF 6
