
     RDKit          3D

 37 40  0  0  0  0  0  0  0  0999 V2000
   35.2947   29.4108   48.9832 C   0  0  2  0  0  0  0  0  0  0  0  0
   34.1879   29.3636   49.9332 C   0  0  0  0  0  0  0  0  0  0  0  0
   34.5272   28.0984   49.3473 C   0  0  1  0  0  0  0  0  0  0  0  0
   36.7102   29.3847   49.5853 C   0  0  0  0  0  0  0  0  0  0  0  0
   38.0767   32.7710   49.4344 C   0  0  0  0  0  0  0  0  0  0  0  0
   38.7525   32.7785   48.2091 C   0  0  0  0  0  0  0  0  0  0  0  0
   38.7263   31.5927   47.4400 C   0  0  0  0  0  0  0  0  0  0  0  0
   38.0440   30.5090   47.9357 N   0  0  0  0  0  0  0  0  0  0  0  0
   37.4180   30.5628   49.1122 C   0  0  0  0  0  0  0  0  0  0  0  0
   37.4403   31.7022   49.8567 N   0  0  0  0  0  0  0  0  0  0  0  0
   33.5615   27.5872   48.2966 C   0  0  0  0  0  0  0  0  0  0  0  0
   33.9090   26.4390   47.8112 O   0  0  0  0  0  0  0  0  0  0  0  0
   32.4019   28.2226   47.8541 O   0  0  0  0  0  0  0  0  0  0  0  0
   31.1437   27.8297   48.2254 C   0  0  0  0  0  0  0  0  0  0  0  0
   30.6311   27.8097   49.6210 C   0  0  0  0  0  0  0  0  0  0  0  0
   29.3601   27.3928   49.8090 C   0  0  0  0  0  0  0  0  0  0  0  0
   28.5377   26.9899   48.7364 C   0  0  0  0  0  0  0  0  0  0  0  0
   29.6373   27.2024   47.2602 S   0  0  0  0  0  0  0  0  0  0  0  0
   35.2385   29.7255   47.9387 H   0  0  0  0  0  0  0  0  0  0  0  0
   33.2218   29.8929   49.7199 H   0  0  0  0  0  0  0  0  0  0  0  0
   34.4468   29.5054   51.0222 H   0  0  0  0  0  0  0  0  0  0  0  0
   35.1765   27.3240   49.7519 H   0  0  0  0  0  0  0  0  0  0  0  0
   37.2011   28.4191   49.3408 H   0  0  0  0  0  0  0  0  0  0  0  0
   36.6258   29.4438   50.6879 H   0  0  0  0  0  0  0  0  0  0  0  0
   38.0422   33.6311   50.0899 H   0  0  0  0  0  0  0  0  0  0  0  0
   39.2558   33.6731   47.9090 H   0  0  0  0  0  0  0  0  0  0  0  0
   39.2430   31.6066   46.5092 H   0  0  0  0  0  0  0  0  0  0  0  0
   31.3100   28.1298   50.3871 H   0  0  0  0  0  0  0  0  0  0  0  0
   28.9171   27.3493   50.7890 H   0  0  0  0  0  0  0  0  0  0  0  0
   27.2879   26.5520   48.6610 N   0  0  0  0  0  0  0  0  0  0  0  0
   26.2792   27.1488   47.9958 C   0  0  0  0  0  0  0  0  0  0  0  0
   25.1127   26.3918   48.1470 C   0  0  0  0  0  0  0  0  0  0  0  0
   25.4680   25.3277   48.9243 N   0  0  0  0  0  0  0  0  0  0  0  0
   26.7910   25.4373   49.2292 C   0  0  0  0  0  0  0  0  0  0  0  0
   26.2726   28.0686   47.4091 H   0  0  0  0  0  0  0  0  0  0  0  0
   24.1273   26.5866   47.7441 H   0  0  0  0  0  0  0  0  0  0  0  0
   27.2970   24.6930   49.8458 H   0  0  0  0  0  0  0  0  0  0  0  0
  1  3  1  0
  1  4  1  0
  1  2  1  0
  3  2  1  0
  5 10  2  0
  6  5  1  0
  7  8  1  0
  7  6  2  0
  8  9  2  0
  9  4  1  0
  9 10  1  0
 11  3  1  0
 12 11  2  0
 13 14  1  0
 13 11  1  0
 14 15  2  0
 15 16  1  0
 17 16  2  0
 18 14  1  0
 18 17  1  0
  1 19  1  6
  2 20  1  0
  2 21  1  0
  3 22  1  1
  4 23  1  0
  4 24  1  0
  5 25  1  0
  6 26  1  0
  7 27  1  0
 15 28  1  0
 16 29  1  0
 30 31  1  0
 31 32  2  0
 32 33  1  0
 33 34  2  0
 34 30  1  0
 31 35  1  0
 32 36  1  0
 34 37  1  0
 17 30  1  0
M  ISO  8  19  13  20  13  21  13  22  13  23   8  24   8  25  14  26  14
M  ISO  3  27  14  28  14  29  14
M  END
>  <DihAtoms>  (1) 
15,16,29,30

>  <DihDeg>  (1) 
-31.35364324935917

$$$$
