
 OpenBabel03252509453D

 14 15  0  0  0  0  0  0  0  0999 V2000
   38.8390   32.9610   48.4170 C   0  0  0  0  0  0  0  0  0  0  0  0
   39.2490   32.5100   47.1550 C   0  0  0  0  0  0  0  0  0  0  0  0
   38.8150   31.2470   46.7270 C   0  0  0  0  0  0  0  0  0  0  0  0
   38.0200   30.5250   47.5570 N   0  0  0  0  0  0  0  0  0  0  0  0
   37.6380   30.9830   48.7680 C   0  0  0  0  0  0  0  0  0  0  0  0
   38.0430   32.1900   49.1950 N   0  0  0  0  0  0  0  0  0  0  0  0
   39.1660   33.9340   48.7590 H   0  0  0  0  0  0  0  0  0  0  0  0
   39.8800   33.1020   46.5160 H   0  0  0  0  0  0  0  0  0  0  0  0
   39.0940   30.8400   45.7670 H   0  0  0  0  0  0  0  0  0  0  0  0
   36.8050   30.2490   49.6580 N   0  0  0  0  0  0  0  0  0  0  0  0
   35.8090   29.5340   49.0680 C   0  0  0  0  0  0  0  0  0  0  0  0
   35.1110   28.8930   50.0920 C   0  0  0  0  0  0  0  0  0  0  0  0
   35.6830   29.2250   51.2490 N   0  0  0  0  0  0  0  0  0  0  0  0
   36.7100   30.0480   50.9870 C   0  0  0  0  0  0  0  0  0  0  0  0
  1  7  1  0  0  0  0
  1  6  1  0  0  0  0
  2  1  2  0  0  0  0
  3  2  1  0  0  0  0
  3  4  2  0  0  0  0
  4  5  1  0  0  0  0
  5  6  2  0  0  0  0
  5 10  1  0  0  0  0
  8  2  1  0  0  0  0
  9  3  1  0  0  0  0
 10 14  1  0  0  0  0
 11 10  1  0  0  0  0
 11 12  2  0  0  0  0
 12 13  1  0  0  0  0
 14 13  2  0  0  0  0
M  END
>  <minimizedAffinity>
-4.0737009

>  <minimizedRMSD>
3.26021647

$$$$
