
 OpenBabel03252514083D

 39 42  0  0  0  0  0  0  0  0999 V2000
   34.0820   29.8890   47.5460 C   0  0  0  0  0  0  0  0  0  0  0  0
   35.0560   29.6630   48.5220 C   0  0  0  0  0  0  0  0  0  0  0  0
   34.9690   28.4660   49.2420 C   0  0  0  0  0  0  0  0  0  0  0  0
   33.9600   27.6110   48.9530 N   0  0  0  0  0  0  0  0  0  0  0  0
   33.0380   27.8380   48.0200 C   0  0  0  0  0  0  0  0  0  0  0  0
   33.1100   28.9800   47.3240 N   0  0  0  0  0  0  0  0  0  0  0  0
   34.1050   30.8110   46.9530 H   0  0  0  0  0  0  0  0  0  0  0  0
   35.7150   28.2910   49.9910 H   0  0  0  0  0  0  0  0  0  0  0  0
   36.0530   30.6530   48.7120 N   0  0  0  0  0  0  0  0  0  0  0  0
   36.2710   31.2950   49.8990 C   0  0  0  0  0  0  0  0  0  0  0  0
   37.2840   32.1720   49.7390 N   0  0  0  0  0  0  0  0  0  0  0  0
   37.6820   32.0670   48.4710 C   0  0  0  0  0  0  0  0  0  0  0  0
   38.6620   32.6930   47.7220 C   0  0  0  0  0  0  0  0  0  0  0  0
   38.8610   32.3980   46.4390 N   0  0  0  0  0  0  0  0  0  0  0  0
   38.1030   31.4580   45.7870 C   0  0  0  0  0  0  0  0  0  0  0  0
   37.1530   30.8540   46.5190 N   0  0  0  0  0  0  0  0  0  0  0  0
   36.9210   31.1170   47.8050 C   0  0  0  0  0  0  0  0  0  0  0  0
   35.7520   31.1680   50.8430 H   0  0  0  0  0  0  0  0  0  0  0  0
   38.2770   31.2310   44.7460 H   0  0  0  0  0  0  0  0  0  0  0  0
   39.4830   33.6710   48.3190 N   0  0  0  0  0  0  0  0  0  0  0  0
   39.3310   34.7120   48.2870 H   0  0  0  0  0  0  0  0  0  0  0  0
   40.3070   33.3030   48.8290 H   0  0  0  0  0  0  0  0  0  0  0  0
   31.9340   26.9100   47.7050 C   0  0  0  0  0  0  0  0  0  0  0  0
   30.7870   27.1210   48.6810 C   0  0  0  0  0  0  0  0  0  0  0  0
   30.4450   28.1590   48.6460 H   0  0  0  0  0  0  0  0  0  0  0  0
   29.9420   26.4750   48.3710 H   0  0  0  0  0  0  0  0  0  0  0  0
   31.0760   26.7860   49.7010 H   0  0  0  0  0  0  0  0  0  0  0  0
   31.3500   27.1870   46.3290 C   0  0  0  0  0  0  0  0  0  0  0  0
   31.1950   26.2970   45.7210 H   0  0  0  0  0  0  0  0  0  0  0  0
   30.3790   27.7190   46.3690 H   0  0  0  0  0  0  0  0  0  0  0  0
   32.0360   27.8890   45.8020 H   0  0  0  0  0  0  0  0  0  0  0  0
   32.3750   25.4690   47.7170 C   0  0  0  0  0  0  0  0  0  0  0  0
   32.9880   25.3220   48.6400 H   0  0  0  0  0  0  0  0  0  0  0  0
   31.5220   24.7710   47.8380 H   0  0  0  0  0  0  0  0  0  0  0  0
   33.0940   25.0910   46.4810 C   0  0  0  0  0  0  0  0  0  0  0  0
   34.2930   25.4310   45.9850 C   0  0  0  0  0  3  0  0  0  0  0  0
   34.7530   24.9510   44.8050 C   0  0  0  0  0  3  0  0  0  0  0  0
   33.8610   24.0670   44.1510 C   0  0  0  0  0  3  0  0  0  0  0  0
   32.4180   24.0030   45.3060 S   0  0  0  0  0  0  0  0  0  0  0  0
  1  2  1  0  0  0  0
  2  9  1  0  0  0  0
  2  3  2  0  0  0  0
  3  8  1  0  0  0  0
  4  3  1  0  0  0  0
  5  4  2  0  0  0  0
  6  1  2  0  0  0  0
  6  5  1  0  0  0  0
  7  1  1  0  0  0  0
  9 10  1  0  0  0  0
 10 18  1  0  0  0  0
 11 10  2  0  0  0  0
 12 11  1  0  0  0  0
 13 20  1  0  0  0  0
 13 12  2  0  0  0  0
 14 13  1  0  0  0  0
 15 14  2  0  0  0  0
 15 16  1  0  0  0  0
 16 17  2  0  0  0  0
 17 12  1  0  0  0  0
 17  9  1  0  0  0  0
 19 15  1  0  0  0  0
 20 22  1  0  0  0  0
 21 20  1  0  0  0  0
 23 32  1  0  0  0  0
 23  5  1  0  0  0  0
 23 24  1  0  0  0  0
 24 27  1  0  0  0  0
 25 24  1  0  0  0  0
 26 24  1  0  0  0  0
 28 30  1  0  0  0  0
 28 23  1  0  0  0  0
 29 28  1  0  0  0  0
 31 28  1  0  0  0  0
 32 34  1  0  0  0  0
 32 33  1  0  0  0  0
 35 32  1  0  0  0  0
 36 35  2  0  0  0  0
 37 36  1  0  0  0  0
 38 37  2  0  0  0  0
 38 39  1  0  0  0  0
 39 35  1  0  0  0  0
M  END
>  <minimizedAffinity>
-5.33801413

>  <minimizedRMSD>
1.17376876

$$$$
