
     RDKit          3D

 42 45  0  0  0  0  0  0  0  0999 V2000
   36.4160   30.9633   48.7354 N   0  0  0  0  0  0  0  0  0  0  0  0
   36.3866   31.7360   49.8616 C   0  0  0  0  0  0  0  0  0  0  0  0
   37.3634   32.6641   49.7772 N   0  0  0  0  0  0  0  0  0  0  0  0
   37.9818   32.4614   48.6145 C   0  0  0  0  0  0  0  0  0  0  0  0
   39.0424   33.0790   47.9755 C   0  0  0  0  0  0  0  0  0  0  0  0
   39.4778   32.6712   46.7848 N   0  0  0  0  0  0  0  0  0  0  0  0
   38.8994   31.6159   46.1245 C   0  0  0  0  0  0  0  0  0  0  0  0
   37.8715   31.0208   46.7487 N   0  0  0  0  0  0  0  0  0  0  0  0
   37.4031   31.3952   47.9397 C   0  0  0  0  0  0  0  0  0  0  0  0
   39.6902   34.1697   48.5867 N   0  0  0  0  0  0  0  0  0  0  0  0
   34.6593   29.9838   47.3990 C   0  0  0  0  0  0  0  0  0  0  0  0
   35.5243   29.8877   48.4923 C   0  0  0  0  0  0  0  0  0  0  0  0
   35.4400   28.7262   49.2693 C   0  0  0  0  0  0  0  0  0  0  0  0
   34.5377   27.7799   48.9187 N   0  0  0  0  0  0  0  0  0  0  0  0
   33.7192   27.8843   47.8743 C   0  0  0  0  0  0  0  0  0  0  0  0
   33.7899   28.9899   47.1232 N   0  0  0  0  0  0  0  0  0  0  0  0
   32.7321   26.8559   47.4915 C   0  0  0  0  0  0  0  0  0  0  0  0
   31.5452   26.9011   48.4413 C   0  0  0  0  0  0  0  0  0  0  0  0
   32.1546   27.1242   46.1112 C   0  0  0  0  0  0  0  0  0  0  0  0
   33.3265   25.4705   47.4608 C   0  0  0  0  0  0  0  0  0  0  0  0
   35.7192   31.6670   50.7126 H   0  0  0  0  0  0  0  0  0  0  0  0
   39.2648   31.2989   45.1605 H   0  0  0  0  0  0  0  0  0  0  0  0
   39.4888   35.1879   48.4134 H   0  0  0  0  0  0  0  0  0  0  0  0
   40.4309   33.9175   49.2671 H   0  0  0  0  0  0  0  0  0  0  0  0
   34.6848   30.8730   46.7578 H   0  0  0  0  0  0  0  0  0  0  0  0
   36.1023   28.6505   50.1078 H   0  0  0  0  0  0  0  0  0  0  0  0
   31.0918   27.8956   48.4357 H   0  0  0  0  0  0  0  0  0  0  0  0
   30.7830   26.1799   48.0820 H   0  0  0  0  0  0  0  0  0  0  0  0
   31.8434   26.5572   49.4558 H   0  0  0  0  0  0  0  0  0  0  0  0
   32.1141   26.2485   45.4645 H   0  0  0  0  0  0  0  0  0  0  0  0
   31.1314   27.5455   46.1428 H   0  0  0  0  0  0  0  0  0  0  0  0
   32.7732   27.9174   45.6307 H   0  0  0  0  0  0  0  0  0  0  0  0
   33.6307   25.2232   48.5084 H   0  0  0  0  0  0  0  0  0  0  0  0
   32.5758   24.6985   47.2013 H   0  0  0  0  0  0  0  0  0  0  0  0
   34.4412   25.3605   46.4951 C   0  0  0  0  0  0  0  0  0  0  0  0
   35.2432   24.3445   46.1422 C   0  0  0  0  0  0  0  0  0  0  0  0
   36.2183   24.4797   45.2128 C   0  0  0  0  0  0  0  0  0  0  0  0
   36.3128   25.7773   44.6541 C   0  0  0  0  0  0  0  0  0  0  0  0
   34.9708   26.7029   45.5272 S   0  0  0  0  0  0  0  0  0  0  0  0
   35.0572   23.3882   46.6590 H   0  0  0  0  0  0  0  0  0  0  0  0
   36.8869   23.6887   44.8982 H   0  0  0  0  0  0  0  0  0  0  0  0
   37.1097   26.0200   43.8464 H   0  0  0  0  0  0  0  0  0  0  0  0
  1  2  1  0
  3  2  2  0
  4  3  1  0
  5 10  1  0
  5  4  2  0
  6  5  1  0
  7  8  1  0
  7  6  2  0
  8  9  2  0
  9  4  1  0
  9  1  1  0
 11 12  2  0
 12  1  1  0
 12 13  1  0
 14 13  2  0
 15 14  1  0
 16 11  1  0
 16 15  2  0
 17 15  1  0
 17 18  1  0
 19 17  1  0
 20 17  1  0
  2 21  1  0
  7 22  1  0
 10 23  1  0
 10 24  1  0
 11 25  1  0
 13 26  1  0
 18 27  1  0
 18 28  1  0
 18 29  1  0
 19 30  1  0
 19 31  1  0
 19 32  1  0
 20 33  1  0
 20 34  1  0
 35 36  2  0
 36 37  1  0
 37 38  2  0
 38 39  1  0
 39 35  1  0
 36 40  1  0
 37 41  1  0
 38 42  1  0
 20 35  1  0
M  ISO  8  21  14  22  14  25  14  26  14  27   8  28   8  29   8  30   8
M  ISO  4  31   8  32   8  33   8  34   8
M  END
>  <DihAtoms>  (1) 
16,19,34,35

>  <DihDeg>  (1) 
90.00237353801744

$$$$
