REMARK  Name = 
REMARK  7 active torsions:
REMARK  status: ('A' for Active; 'I' for Inactive)
REMARK    1  A    between atoms: C_1  and  C_4
REMARK    2  A    between atoms: C_3  and  C_11
REMARK    3  A    between atoms: C_4  and  C_9
REMARK    4  A    between atoms: C_11  and  O_13
REMARK    5  A    between atoms: O_13  and  C_14
REMARK    6  A    between atoms: C_17  and  N_30
REMARK    7  A    between atoms: C_32  and  C_33
REMARK                            x       y       z     vdW  Elec       q    Type
REMARK                         _______ _______ _______ _____ _____    ______ ____
ROOT
ATOM      1  C   UNL     1      33.562  27.589  48.297  0.00  0.00    +0.000 C 
ATOM      2  O   UNL     1      33.910  26.440  47.805  0.00  0.00    +0.000 OA
ENDROOT
BRANCH   1   5
ATOM      3  C   UNL     1      35.294  29.412  48.986  0.00  0.00    +0.000 C 
ATOM      4  C   UNL     1      34.191  29.355  49.938  0.00  0.00    +0.000 C 
ATOM      5  C   UNL     1      34.535  28.092  49.347  0.00  0.00    +0.000 C 
ATOM      6  H   UNL     1      35.129  29.816  47.991  0.00  0.00    +0.000 HD
ATOM      7  H   UNL     1      33.220  29.865  49.702  0.00  0.00    +0.000 HD
ATOM      8  H   UNL     1      34.401  29.474  51.042  0.00  0.00    +0.000 HD
ATOM      9  H   UNL     1      35.192  27.314  49.731  0.00  0.00    +0.000 HD
BRANCH   3  10
ATOM     10  C   UNL     1      36.710  29.389  49.587  0.00  0.00    +0.000 C 
ATOM     11  H   UNL     1      36.637  29.348  50.693  0.00  0.00    +0.000 HD
ATOM     12  H   UNL     1      37.179  28.457  49.215  0.00  0.00    +0.000 HD
BRANCH  10  17
ATOM     13  C   UNL     1      38.079  32.773  49.442  0.00  0.00    +0.000 A 
ATOM     14  C   UNL     1      38.755  32.777  48.202  0.00  0.00    +0.000 A 
ATOM     15  C   UNL     1      38.722  31.591  47.432  0.00  0.00    +0.000 A 
ATOM     16  N   UNL     1      38.042  30.511  47.927  0.00  0.00    +0.000 NA
ATOM     17  C   UNL     1      37.415  30.570  49.120  0.00  0.00    +0.000 A 
ATOM     18  N   UNL     1      37.441  31.700  49.864  0.00  0.00    +0.000 NA
ATOM     19  H   UNL     1      38.103  33.676  50.029  0.00  0.00    +0.000 HD
ATOM     20  H   UNL     1      39.289  33.624  47.813  0.00  0.00    +0.000 HD
ATOM     21  H   UNL     1      39.214  31.512  46.472  0.00  0.00    +0.000 HD
ENDBRANCH  10  17
ENDBRANCH   3  10
ENDBRANCH   1   5
BRANCH   1  22
ATOM     22  O   UNL     1      32.403  28.218  47.859  0.00  0.00    +0.000 OA
BRANCH  22  23
ATOM     23  C   UNL     1      31.145  27.828  48.222  0.00  0.00    +0.000 A 
ATOM     24  C   UNL     1      30.627  27.815  49.612  0.00  0.00    +0.000 A 
ATOM     25  C   UNL     1      29.355  27.401  49.812  0.00  0.00    +0.000 A 
ATOM     26  C   UNL     1      28.537  26.992  48.733  0.00  0.00    +0.000 A 
ATOM     27  S   UNL     1      29.638  27.195  47.264  0.00  0.00    +0.000 S 
ATOM     28  H   UNL     1      31.310  28.141  50.376  0.00  0.00    +0.000 HD
ATOM     29  H   UNL     1      28.936  27.375  50.805  0.00  0.00    +0.000 HD
BRANCH  26  30
ATOM     30  N   UNL     1      27.234  26.549  48.768  0.00  0.00    +0.000 N 
ATOM     31  C   UNL     1      26.892  25.330  49.251  0.00  0.00    +0.000 A 
ATOM     32  C   UNL     1      25.570  24.934  49.263  0.00  0.00    +0.000 A 
ATOM     33  C   UNL     1      25.199  23.577  49.802  0.00  0.00    +0.000 C 
ATOM     34  C   UNL     1      24.588  25.792  48.777  0.00  0.00    +0.000 A 
ATOM     35  O   UNL     1      23.374  25.427  48.789  0.00  0.00    +0.000 OA
ATOM     36  N   UNL     1      24.971  27.012  48.299  0.00  0.00    +0.000 N 
ATOM     37  C   UNL     1      26.282  27.377  48.298  0.00  0.00    +0.000 A 
ATOM     38  O   UNL     1      26.454  28.531  47.823  0.00  0.00    +0.000 OA
ATOM     39  H   UNL     1      24.170  27.583  47.958  0.00  0.00    +0.000 HD
ENDBRANCH  26  30
ENDBRANCH  22  23
ENDBRANCH   1  22
TORSDOF 6
