
 OpenBabel03252512113D

 33 36  0  0  0  0  0  0  0  0999 V2000
   32.4230   29.8770   46.1750 C   0  0  0  0  0  0  0  0  0  0  0  0
   32.2230   28.5010   46.1240 C   0  0  0  0  0  0  0  0  0  0  0  0
   33.2150   27.6640   46.6580 C   0  0  0  0  0  0  0  0  0  0  0  0
   34.3260   28.2520   47.2010 N   0  0  0  0  0  0  0  0  0  0  0  0
   34.4900   29.6010   47.2350 C   0  0  0  0  0  0  0  0  0  0  0  0
   33.5450   30.4050   46.7260 N   0  0  0  0  0  0  0  0  0  0  0  0
   31.6480   30.4950   45.7590 H   0  0  0  0  0  0  0  0  0  0  0  0
   31.3810   28.0020   45.7140 H   0  0  0  0  0  0  0  0  0  0  0  0
   35.7130   30.1030   47.8380 C   0  0  0  0  0  0  0  0  0  0  0  0
   36.6910   30.7740   47.1490 C   0  0  0  0  0  0  0  0  0  0  0  0
   37.7020   31.1110   47.9820 N   0  0  0  0  0  0  0  0  0  0  0  0
   37.3820   30.6570   49.2210 C   0  0  0  0  0  0  0  0  0  0  0  0
   38.0390   30.7190   50.4440 C   0  0  0  0  0  0  0  0  0  0  0  0
   37.4600   30.1590   51.5560 C   0  0  0  0  0  0  0  0  0  0  0  0
   36.2390   29.5460   51.4430 C   0  0  0  0  0  0  0  0  0  0  0  0
   35.5380   29.4580   50.2350 C   0  0  0  0  0  0  0  0  0  0  0  0
   36.1540   30.0350   49.1340 C   0  0  0  0  0  0  0  0  0  0  0  0
   36.7430   31.0440   46.1030 H   0  0  0  0  0  0  0  0  0  0  0  0
   38.5810   31.6230   47.7570 H   0  0  0  0  0  0  0  0  0  0  0  0
   39.0040   31.2020   50.5430 H   0  0  0  0  0  0  0  0  0  0  0  0
   37.8990   30.1600   52.5450 H   0  0  0  0  0  0  0  0  0  0  0  0
   35.7130   29.0750   52.2840 H   0  0  0  0  0  0  0  0  0  0  0  0
   34.5730   28.9720   50.1460 H   0  0  0  0  0  0  0  0  0  0  0  0
   33.1810   26.2410   46.6930 N   0  0  0  0  0  0  0  0  0  0  0  0
   33.9580   25.4690   45.9020 C   0  0  0  0  0  0  0  0  0  0  0  0
   33.8230   24.0920   46.0410 C   0  0  0  0  0  0  0  0  0  0  0  0
   34.7130   23.2900   45.1340 C   0  0  0  0  0  0  0  0  0  0  0  0
   32.9280   23.5230   46.9530 C   0  0  0  0  0  0  0  0  0  0  0  0
   32.8740   22.2680   47.0090 O   0  0  0  0  0  0  0  0  0  0  0  0
   32.2000   24.3790   47.6950 N   0  0  0  0  0  0  0  0  0  0  0  0
   32.3160   25.7140   47.5770 C   0  0  0  0  0  0  0  0  0  0  0  0
   31.5800   26.4140   48.3250 O   0  0  0  0  0  0  0  0  0  0  0  0
   31.5270   23.9460   48.3820 H   0  0  0  0  0  0  0  0  0  0  0  0
  1  6  1  0  0  0  0
  2  1  2  0  0  0  0
  2  3  1  0  0  0  0
  3 24  1  0  0  0  0
  3  4  2  0  0  0  0
  4  5  1  0  0  0  0
  5  9  1  0  0  0  0
  6  5  2  0  0  0  0
  7  1  1  0  0  0  0
  8  2  1  0  0  0  0
  9 17  1  0  0  0  0
 10  9  2  0  0  0  0
 10 11  1  0  0  0  0
 11 12  1  0  0  0  0
 12 13  1  0  0  0  0
 13 20  1  0  0  0  0
 13 14  2  0  0  0  0
 14 21  1  0  0  0  0
 15 14  1  0  0  0  0
 15 22  1  0  0  0  0
 16 15  2  0  0  0  0
 17 12  2  0  0  0  0
 17 16  1  0  0  0  0
 18 10  1  0  0  0  0
 19 11  1  0  0  0  0
 23 16  1  0  0  0  0
 24 31  1  0  0  0  0
 25 26  2  0  0  0  0
 25 24  1  0  0  0  0
 26 28  1  0  0  0  0
 27 26  1  0  0  0  0
 28 29  2  0  0  0  0
 28 30  1  0  0  0  0
 30 33  1  0  0  0  0
 31 30  1  0  0  0  0
 31 32  2  0  0  0  0
M  END
>  <minimizedAffinity>
-6.02166176

>  <minimizedRMSD>
0.856604874

$$$$
