
 OpenBabel03252514013D

 29 31  0  0  1  0  0  0  0  0999 V2000
   35.5800   29.5550   49.2330 C   0  0  2  0  0  0  0  0  0  0  0  0
   34.6070   29.4830   50.3340 C   0  0  0  0  0  0  0  0  0  0  0  0
   34.8440   28.2520   49.6000 C   0  0  1  0  0  0  0  0  0  0  0  0
   35.3400   30.0050   48.2700 H   0  0  0  0  0  0  0  0  0  0  0  0
   35.0030   29.6160   51.3790 H   0  0  0  0  0  0  0  0  0  0  0  0
   33.6490   30.0510   50.2190 H   0  0  0  0  0  0  0  0  0  0  0  0
   35.5580   27.4710   49.8890 H   0  0  0  0  0  0  0  0  0  0  0  0
   37.0630   29.4900   49.5940 C   0  0  0  0  0  0  0  0  0  0  0  0
   37.1910   29.3600   50.6870 H   0  0  0  0  0  0  0  0  0  0  0  0
   37.4480   28.5890   49.0830 H   0  0  0  0  0  0  0  0  0  0  0  0
   38.3130   32.9260   49.3560 C   0  0  0  0  0  0  0  0  0  0  0  0
   38.8960   32.9620   48.0800 C   0  0  0  0  0  0  0  0  0  0  0  0
   38.8510   31.7880   47.3100 C   0  0  0  0  0  0  0  0  0  0  0  0
   38.2430   30.6760   47.8440 N   0  0  0  0  0  0  0  0  0  0  0  0
   37.7020   30.6990   49.0700 C   0  0  0  0  0  0  0  0  0  0  0  0
   37.7440   31.8270   49.8150 N   0  0  0  0  0  0  0  0  0  0  0  0
   38.4010   33.8720   49.8630 H   0  0  0  0  0  0  0  0  0  0  0  0
   39.3870   33.7640   47.5780 H   0  0  0  0  0  0  0  0  0  0  0  0
   39.2430   31.6400   46.3230 H   0  0  0  0  0  0  0  0  0  0  0  0
   33.7320   27.8200   48.6880 C   0  0  0  0  0  0  0  0  0  0  0  0
   34.1150   27.1540   47.6430 O   0  0  0  0  0  0  0  0  0  0  0  0
   32.3780   28.0590   48.8730 O   0  0  0  0  0  0  0  0  0  0  0  0
   31.4640   27.7020   47.8940 C   0  0  0  0  0  0  0  0  0  0  0  0
   30.7840   26.4930   47.9060 C   0  0  0  0  0  3  0  0  0  0  0  0
   29.8880   26.2250   46.8780 C   0  0  0  0  0  0  0  0  0  0  0  0
   29.3730   25.2780   46.9130 H   0  0  0  0  0  0  0  0  0  0  0  0
   29.6970   27.1310   45.9040 N   0  0  0  0  0  0  0  0  0  0  0  0
   30.3600   28.3210   45.8850 C   0  0  0  0  0  3  0  0  0  0  0  0
   31.2280   28.5750   46.8820 N   0  0  0  0  0  0  0  0  0  0  0  0
  1  4  1  6  0  0  0
  1  8  1  0  0  0  0
  1  3  1  0  0  0  0
  1  2  1  0  0  0  0
  2  5  1  0  0  0  0
  3  7  1  1  0  0  0
  3  2  1  0  0  0  0
  6  2  1  0  0  0  0
  8  9  1  0  0  0  0
 10  8  1  0  0  0  0
 11 16  1  0  0  0  0
 11 17  1  0  0  0  0
 12 11  2  0  0  0  0
 13 14  2  0  0  0  0
 13 12  1  0  0  0  0
 14 15  1  0  0  0  0
 15  8  1  0  0  0  0
 15 16  2  0  0  0  0
 18 12  1  0  0  0  0
 19 13  1  0  0  0  0
 20 22  1  0  0  0  0
 20  3  1  0  0  0  0
 21 20  2  0  0  0  0
 23 24  1  0  0  0  0
 23 22  1  0  0  0  0
 25 26  1  0  0  0  0
 25 24  2  0  0  0  0
 27 25  1  0  0  0  0
 28 27  2  0  0  0  0
 28 29  1  0  0  0  0
 29 23  2  0  0  0  0
M  END
>  <minimizedAffinity>
-4.91655254

>  <minimizedRMSD>
0.339910746

$$$$
