
 OpenBabel03252513483D

 26 27  0  0  0  0  0  0  0  0999 V2000
   35.3420   30.2520   48.1030 C   0  0  0  0  0  0  0  0  0  0  0  0
   35.6630   30.1290   46.7130 C   0  0  0  0  0  0  0  0  0  0  0  0
   36.8250   30.7420   46.2780 C   0  0  0  0  0  0  0  0  0  0  0  0
   37.5880   31.4190   47.1800 N   0  0  0  0  0  0  0  0  0  0  0  0
   37.2470   31.5080   48.4720 C   0  0  0  0  0  0  0  0  0  0  0  0
   36.1380   30.9290   48.9180 N   0  0  0  0  0  0  0  0  0  0  0  0
   35.0410   29.5830   46.0060 H   0  0  0  0  0  0  0  0  0  0  0  0
   37.2280   30.6780   44.9270 N   0  0  0  0  0  0  0  0  0  0  0  0
   38.5830   30.6350   44.8040 C   0  0  0  0  0  0  0  0  0  0  0  0
   39.1720   30.5690   43.5490 C   0  0  0  0  0  0  0  0  0  0  0  0
   40.6520   30.5210   43.3630 C   0  0  0  0  0  0  0  0  0  0  0  0
   38.3240   30.5490   42.4600 C   0  0  0  0  0  0  0  0  0  0  0  0
   38.7790   30.4900   41.2710 O   0  0  0  0  0  0  0  0  0  0  0  0
   36.9800   30.5930   42.6030 N   0  0  0  0  0  0  0  0  0  0  0  0
   36.4280   30.6570   43.8450 C   0  0  0  0  0  0  0  0  0  0  0  0
   35.2100   30.6990   44.0690 O   0  0  0  0  0  0  0  0  0  0  0  0
   36.3470   30.5770   41.7820 H   0  0  0  0  0  0  0  0  0  0  0  0
   38.1860   32.2820   49.3270 C   0  0  0  0  0  0  0  0  0  0  0  0
   38.7400   31.4570   50.2960 F   0  0  0  0  0  0  0  0  0  0  0  0
   39.2330   32.7410   48.5550 F   0  0  0  0  0  0  0  0  0  0  0  0
   37.5810   33.3870   49.9060 F   0  0  0  0  0  0  0  0  0  0  0  0
   34.1800   29.6390   48.5370 O   0  0  0  0  0  0  0  0  0  0  0  0
   34.1040   28.3810   49.1230 C   0  0  0  0  0  0  0  0  0  0  0  0
   34.3900   27.3510   48.2320 F   0  0  0  0  0  0  0  0  0  0  0  0
   34.8540   28.2450   50.2640 F   0  0  0  0  0  0  0  0  0  0  0  0
   32.7680   28.2180   49.4730 F   0  0  0  0  0  0  0  0  0  0  0  0
  1 22  1  0  0  0  0
  1  6  1  0  0  0  0
  2  1  2  0  0  0  0
  3  2  1  0  0  0  0
  3  4  2  0  0  0  0
  4  5  1  0  0  0  0
  5  6  2  0  0  0  0
  5 18  1  0  0  0  0
  7  2  1  0  0  0  0
  8  3  1  0  0  0  0
  9  8  1  0  0  0  0
 10  9  2  0  0  0  0
 11 10  1  0  0  0  0
 12 14  1  0  0  0  0
 12 10  1  0  0  0  0
 13 12  2  0  0  0  0
 14 15  1  0  0  0  0
 15 16  2  0  0  0  0
 15  8  1  0  0  0  0
 17 14  1  0  0  0  0
 18 21  1  0  0  0  0
 18 19  1  0  0  0  0
 20 18  1  0  0  0  0
 22 23  1  0  0  0  0
 23 26  1  0  0  0  0
 23 25  1  0  0  0  0
 24 23  1  0  0  0  0
M  END
>  <minimizedAffinity>
-6.42217588

>  <minimizedRMSD>
6.34733343

$$$$
