
 OpenBabel03252514013D

 29 31  0  0  1  0  0  0  0  0999 V2000
   35.5780   29.5540   49.2310 C   0  0  2  0  0  0  0  0  0  0  0  0
   34.6050   29.4830   50.3310 C   0  0  0  0  0  0  0  0  0  0  0  0
   34.8420   28.2510   49.5990 C   0  0  1  0  0  0  0  0  0  0  0  0
   35.3390   30.0030   48.2670 H   0  0  0  0  0  0  0  0  0  0  0  0
   35.0000   29.6170   51.3760 H   0  0  0  0  0  0  0  0  0  0  0  0
   33.6470   30.0510   50.2150 H   0  0  0  0  0  0  0  0  0  0  0  0
   35.5550   27.4710   49.8880 H   0  0  0  0  0  0  0  0  0  0  0  0
   37.0610   29.4890   49.5930 C   0  0  0  0  0  0  0  0  0  0  0  0
   37.1880   29.3580   50.6860 H   0  0  0  0  0  0  0  0  0  0  0  0
   37.4460   28.5870   49.0810 H   0  0  0  0  0  0  0  0  0  0  0  0
   38.3090   32.9250   49.3560 C   0  0  0  0  0  0  0  0  0  0  0  0
   38.8950   32.9610   48.0810 C   0  0  0  0  0  0  0  0  0  0  0  0
   38.8520   31.7880   47.3110 C   0  0  0  0  0  0  0  0  0  0  0  0
   38.2440   30.6750   47.8440 N   0  0  0  0  0  0  0  0  0  0  0  0
   37.7000   30.6980   49.0690 C   0  0  0  0  0  0  0  0  0  0  0  0
   37.7400   31.8270   49.8130 N   0  0  0  0  0  0  0  0  0  0  0  0
   38.3950   33.8720   49.8630 H   0  0  0  0  0  0  0  0  0  0  0  0
   39.3860   33.7630   47.5800 H   0  0  0  0  0  0  0  0  0  0  0  0
   39.2460   31.6390   46.3250 H   0  0  0  0  0  0  0  0  0  0  0  0
   33.7300   27.8190   48.6860 C   0  0  0  0  0  0  0  0  0  0  0  0
   34.1120   27.1530   47.6420 O   0  0  0  0  0  0  0  0  0  0  0  0
   32.3760   28.0580   48.8720 O   0  0  0  0  0  0  0  0  0  0  0  0
   31.4620   27.7000   47.8920 C   0  0  0  0  0  0  0  0  0  0  0  0
   30.7850   26.4900   47.9020 C   0  0  0  0  0  3  0  0  0  0  0  0
   29.8870   26.2230   46.8740 C   0  0  0  0  0  0  0  0  0  0  0  0
   29.3740   25.2760   46.9080 H   0  0  0  0  0  0  0  0  0  0  0  0
   29.6950   27.1300   45.9010 N   0  0  0  0  0  0  0  0  0  0  0  0
   30.3570   28.3210   45.8840 C   0  0  0  0  0  3  0  0  0  0  0  0
   31.2240   28.5750   46.8810 N   0  0  0  0  0  0  0  0  0  0  0  0
  1  4  1  6  0  0  0
  1  8  1  0  0  0  0
  1  3  1  0  0  0  0
  1  2  1  0  0  0  0
  2  5  1  0  0  0  0
  3  7  1  1  0  0  0
  3  2  1  0  0  0  0
  6  2  1  0  0  0  0
  8  9  1  0  0  0  0
 10  8  1  0  0  0  0
 11 16  1  0  0  0  0
 11 17  1  0  0  0  0
 12 11  2  0  0  0  0
 13 14  2  0  0  0  0
 13 12  1  0  0  0  0
 14 15  1  0  0  0  0
 15  8  1  0  0  0  0
 15 16  2  0  0  0  0
 18 12  1  0  0  0  0
 19 13  1  0  0  0  0
 20 22  1  0  0  0  0
 20  3  1  0  0  0  0
 21 20  2  0  0  0  0
 23 24  1  0  0  0  0
 23 22  1  0  0  0  0
 25 26  1  0  0  0  0
 25 24  2  0  0  0  0
 27 25  1  0  0  0  0
 28 27  2  0  0  0  0
 28 29  1  0  0  0  0
 29 23  2  0  0  0  0
M  END
>  <minimizedAffinity>
-4.91705179

>  <minimizedRMSD>
0.47924909

$$$$
