
 OpenBabel03252514013D

 29 31  0  0  1  0  0  0  0  0999 V2000
   35.6260   29.6230   49.3590 C   0  0  2  0  0  0  0  0  0  0  0  0
   34.6520   29.5110   50.4550 C   0  0  0  0  0  0  0  0  0  0  0  0
   34.9160   28.2990   49.7000 C   0  0  1  0  0  0  0  0  0  0  0  0
   35.3800   30.0850   48.4030 H   0  0  0  0  0  0  0  0  0  0  0  0
   35.0410   29.6340   51.5030 H   0  0  0  0  0  0  0  0  0  0  0  0
   33.6820   30.0610   50.3460 H   0  0  0  0  0  0  0  0  0  0  0  0
   35.6450   27.5280   49.9770 H   0  0  0  0  0  0  0  0  0  0  0  0
   37.1090   29.5820   49.7240 C   0  0  0  0  0  0  0  0  0  0  0  0
   37.2380   29.5900   50.8240 H   0  0  0  0  0  0  0  0  0  0  0  0
   37.4790   28.6160   49.3320 H   0  0  0  0  0  0  0  0  0  0  0  0
   38.5810   32.8810   49.1170 C   0  0  0  0  0  0  0  0  0  0  0  0
   38.9890   32.8030   47.7770 C   0  0  0  0  0  0  0  0  0  0  0  0
   38.7500   31.6010   47.0920 C   0  0  0  0  0  0  0  0  0  0  0  0
   38.1330   30.5730   47.7670 N   0  0  0  0  0  0  0  0  0  0  0  0
   37.7650   30.7040   49.0490 C   0  0  0  0  0  0  0  0  0  0  0  0
   37.9940   31.8600   49.7110 N   0  0  0  0  0  0  0  0  0  0  0  0
   38.8100   33.8410   49.5500 H   0  0  0  0  0  0  0  0  0  0  0  0
   39.4700   33.5340   47.1670 H   0  0  0  0  0  0  0  0  0  0  0  0
   38.9930   31.3700   46.0730 H   0  0  0  0  0  0  0  0  0  0  0  0
   33.8160   27.8600   48.7760 C   0  0  0  0  0  0  0  0  0  0  0  0
   34.2130   27.2010   47.7330 O   0  0  0  0  0  0  0  0  0  0  0  0
   32.4580   28.0870   48.9510 O   0  0  0  0  0  0  0  0  0  0  0  0
   31.5540   27.7030   47.9730 C   0  0  0  0  0  0  0  0  0  0  0  0
   30.8930   26.4840   47.9980 C   0  0  0  0  0  3  0  0  0  0  0  0
   30.0030   26.1900   46.9700 C   0  0  0  0  0  0  0  0  0  0  0  0
   29.5030   25.2360   47.0150 H   0  0  0  0  0  0  0  0  0  0  0  0
   29.8020   27.0820   45.9840 N   0  0  0  0  0  0  0  0  0  0  0  0
   30.4470   28.2800   45.9520 C   0  0  0  0  0  3  0  0  0  0  0  0
   31.3080   28.5600   46.9480 N   0  0  0  0  0  0  0  0  0  0  0  0
  1  4  1  6  0  0  0
  1  3  1  0  0  0  0
  1  8  1  0  0  0  0
  1  2  1  0  0  0  0
  2  5  1  0  0  0  0
  3  7  1  1  0  0  0
  3  2  1  0  0  0  0
  6  2  1  0  0  0  0
  8  9  1  0  0  0  0
 10  8  1  0  0  0  0
 11 17  1  0  0  0  0
 11 16  1  0  0  0  0
 12 11  2  0  0  0  0
 13 14  2  0  0  0  0
 13 12  1  0  0  0  0
 14 15  1  0  0  0  0
 15 16  2  0  0  0  0
 15  8  1  0  0  0  0
 18 12  1  0  0  0  0
 19 13  1  0  0  0  0
 20 22  1  0  0  0  0
 20  3  1  0  0  0  0
 21 20  2  0  0  0  0
 23 24  1  0  0  0  0
 23 22  1  0  0  0  0
 25 26  1  0  0  0  0
 25 24  2  0  0  0  0
 27 25  1  0  0  0  0
 28 27  2  0  0  0  0
 28 29  1  0  0  0  0
 29 23  2  0  0  0  0
M  END
>  <minimizedAffinity>
-4.92581224

>  <minimizedRMSD>
0.625986755

$$$$
