
 OpenBabel03252513203D

 22 23  0  0  0  0  0  0  0  0999 V2000
   35.6250   29.2080   50.4530 C   0  0  0  0  0  0  0  0  0  0  0  0
   36.1400   30.2740   49.7060 C   0  0  0  0  0  0  0  0  0  0  0  0
   35.5280   30.5550   48.4710 C   0  0  0  0  0  0  0  0  0  0  0  0
   34.4700   29.7790   48.0650 N   0  0  0  0  0  0  0  0  0  0  0  0
   34.0130   28.7620   48.8260 C   0  0  0  0  0  0  0  0  0  0  0  0
   34.5880   28.4930   49.9940 N   0  0  0  0  0  0  0  0  0  0  0  0
   36.0950   28.9960   51.3970 H   0  0  0  0  0  0  0  0  0  0  0  0
   35.9010   31.3710   47.8690 H   0  0  0  0  0  0  0  0  0  0  0  0
   32.9140   28.0660   48.2560 N   0  0  0  0  0  0  0  0  0  0  0  0
   31.8820   27.9320   49.1070 C   0  0  0  0  0  0  0  0  0  0  0  0
   30.7310   27.2750   48.7020 C   0  0  0  0  0  0  0  0  0  0  0  0
   29.5680   27.1030   49.6080 C   0  0  0  0  0  0  0  0  0  0  0  0
   30.7170   26.7830   47.4070 C   0  0  0  0  0  0  0  0  0  0  0  0
   29.6910   26.1850   47.0120 O   0  0  0  0  0  0  0  0  0  0  0  0
   31.7700   26.9470   46.6100 N   0  0  0  0  0  0  0  0  0  0  0  0
   32.8960   27.5870   47.0000 C   0  0  0  0  0  0  0  0  0  0  0  0
   33.9250   27.7780   46.3030 O   0  0  0  0  0  0  0  0  0  0  0  0
   31.7760   26.5860   45.6380 H   0  0  0  0  0  0  0  0  0  0  0  0
   37.2920   31.1240   50.1390 C   0  0  0  0  0  0  0  0  0  0  0  0
   38.3440   31.1130   49.2960 F   0  0  0  0  0  0  0  0  0  0  0  0
   37.7360   30.7290   51.3880 F   0  0  0  0  0  0  0  0  0  0  0  0
   36.8530   32.4510   50.2550 F   0  0  0  0  0  0  0  0  0  0  0  0
  1  7  1  0  0  0  0
  2 19  1  0  0  0  0
  2  1  2  0  0  0  0
  3  2  1  0  0  0  0
  4  3  2  0  0  0  0
  4  5  1  0  0  0  0
  5  6  2  0  0  0  0
  6  1  1  0  0  0  0
  8  3  1  0  0  0  0
  9  5  1  0  0  0  0
  9 10  1  0  0  0  0
 11 10  2  0  0  0  0
 11 12  1  0  0  0  0
 13 11  1  0  0  0  0
 14 13  2  0  0  0  0
 15 16  1  0  0  0  0
 15 13  1  0  0  0  0
 16  9  1  0  0  0  0
 17 16  2  0  0  0  0
 18 15  1  0  0  0  0
 19 22  1  0  0  0  0
 19 21  1  0  0  0  0
 20 19  1  0  0  0  0
M  END
>  <minimizedAffinity>
-5.68240023

>  <minimizedRMSD>
1.34990203

$$$$
