
 OpenBabel03252512253D

 32 34  0  0  1  0  0  0  0  0999 V2000
   35.2210   29.8550   48.3120 C   0  0  0  0  0  0  0  0  0  0  0  0
   35.0060   28.8110   49.2220 C   0  0  0  0  0  0  0  0  0  0  0  0
   33.8900   28.0770   49.0510 C   0  0  0  0  0  0  0  0  0  0  0  0
   33.0580   28.3620   48.0520 C   0  0  0  0  0  0  0  0  0  0  0  0
   33.7920   29.7640   47.2020 S   0  0  0  0  0  0  0  0  0  0  0  0
   35.7510   28.6500   50.0180 H   0  0  0  0  0  0  0  0  0  0  0  0
   33.6180   27.2460   49.6920 H   0  0  0  0  0  0  0  0  0  0  0  0
   37.7260   32.3190   49.4450 C   0  0  0  0  0  0  0  0  0  0  0  0
   38.4810   32.5150   48.2410 C   0  0  0  0  0  0  0  0  0  0  0  0
   38.1220   31.8090   47.0820 C   0  0  0  0  0  0  0  0  0  0  0  0
   37.0640   30.9760   47.1910 N   0  0  0  0  0  0  0  0  0  0  0  0
   36.3680   30.7950   48.3020 C   0  0  0  0  0  0  0  0  0  0  0  0
   36.6840   31.4550   49.4290 N   0  0  0  0  0  0  0  0  0  0  0  0
   38.0180   32.8730   50.3340 H   0  0  0  0  0  0  0  0  0  0  0  0
   39.3250   33.2120   48.2480 H   0  0  0  0  0  0  0  0  0  0  0  0
   38.6800   31.9480   46.1720 H   0  0  0  0  0  0  0  0  0  0  0  0
   31.7760   27.7660   47.5980 C   0  0  2  0  0  0  0  0  0  0  0  0
   32.0460   26.8880   46.9660 H   0  0  0  0  0  0  0  0  0  0  0  0
   31.0560   28.7560   46.7290 C   0  0  0  0  0  0  0  0  0  0  0  0
   30.0980   29.1050   47.1870 H   0  0  0  0  0  0  0  0  0  0  0  0
   31.6860   29.6310   46.4720 H   0  0  0  0  0  0  0  0  0  0  0  0
   30.7500   28.2920   45.7690 H   0  0  0  0  0  0  0  0  0  0  0  0
   31.0160   27.2840   48.7870 C   0  0  0  0  0  0  0  0  0  0  0  0
   31.2000   26.1780   48.9260 H   0  0  0  0  0  0  0  0  0  0  0  0
   31.4700   27.7430   49.6860 H   0  0  0  0  0  0  0  0  0  0  0  0
   29.5700   27.4850   48.7460 C   0  0  0  0  0  0  0  0  0  0  0  0
   28.6160   26.8840   47.9730 C   0  0  0  0  0  0  0  0  0  0  0  0
   27.2750   27.1970   48.0660 C   0  0  0  0  0  0  0  0  0  0  0  0
   26.9130   28.1450   48.9710 N   0  0  0  0  0  0  0  0  0  0  0  0
   27.8420   28.7510   49.7450 C   0  0  0  0  0  0  0  0  0  0  0  0
   27.5030   29.5040   50.4560 H   0  0  0  0  0  0  0  0  0  0  0  0
   29.1620   28.4300   49.6410 N   0  0  0  0  0  0  0  0  0  0  0  0
  1  2  2  0  0  0  0
  2  6  1  0  0  0  0
  3  2  1  0  0  0  0
  3  7  1  0  0  0  0
  4  3  2  0  0  0  0
  5  4  1  0  0  0  0
  5  1  1  0  0  0  0
  8 14  1  0  0  0  0
  9 15  1  0  0  0  0
  9  8  2  0  0  0  0
 10 11  2  0  0  0  0
 10  9  1  0  0  0  0
 11 12  1  0  0  0  0
 12  1  1  0  0  0  0
 12 13  2  0  0  0  0
 13  8  1  0  0  0  0
 16 10  1  0  0  0  0
 17 18  1  6  0  0  0
 17  4  1  0  0  0  0
 17 23  1  0  0  0  0
 19 20  1  0  0  0  0
 19 17  1  0  0  0  0
 21 19  1  0  0  0  0
 22 19  1  0  0  0  0
 23 24  1  0  0  0  0
 23 25  1  0  0  0  0
 26 23  1  0  0  0  0
 26 32  1  0  0  0  0
 27 28  1  0  0  0  0
 27 26  2  0  0  0  0
 28 29  2  0  0  0  0
 29 30  1  0  0  0  0
 30 31  1  0  0  0  0
 32 30  2  0  0  0  0
M  END
>  <minimizedAffinity>
-5.51414537

>  <minimizedRMSD>
1.74905455

$$$$
