
 OpenBabel03252513073D

 41 43  0  0  0  0  0  0  0  0999 V2000
   36.8220   30.9670   44.5550 C   0  0  0  0  0  0  0  0  0  0  0  0
   37.8030   30.9520   43.5290 C   0  0  0  0  0  0  0  0  0  0  0  0
   39.1220   31.1260   43.8220 C   0  0  0  0  0  0  0  0  0  0  0  0
   39.4450   31.3160   45.1470 N   0  0  0  0  0  0  0  0  0  0  0  0
   38.5150   31.3280   46.0950 C   0  0  0  0  0  0  0  0  0  0  0  0
   37.2320   31.1610   45.8380 N   0  0  0  0  0  0  0  0  0  0  0  0
   35.7670   30.8260   44.3300 H   0  0  0  0  0  0  0  0  0  0  0  0
   37.3920   30.7990   42.5660 H   0  0  0  0  0  0  0  0  0  0  0  0
   40.1430   31.1150   42.7980 C   0  0  0  0  0  0  0  0  0  0  0  0
   39.6400   31.1570   41.7950 H   0  0  0  0  0  0  0  0  0  0  0  0
   40.7380   32.0690   42.8430 H   0  0  0  0  0  0  0  0  0  0  0  0
   41.0360   29.9420   42.7950 C   0  0  0  0  0  0  0  0  0  0  0  0
   42.0850   30.3550   42.6640 H   0  0  0  0  0  0  0  0  0  0  0  0
   41.0640   29.4980   43.8020 H   0  0  0  0  0  0  0  0  0  0  0  0
   40.8830   28.9510   41.8150 N   0  0  0  0  0  0  0  0  0  0  0  0
   41.4260   28.8930   40.5940 C   0  0  0  0  0  0  0  0  0  0  0  0
   41.2370   27.8850   39.6920 C   0  0  0  0  0  0  0  0  0  0  0  0
   40.4410   26.8290   40.0140 C   0  0  0  0  0  0  0  0  0  0  0  0
   40.2230   25.8760   39.2480 O   0  0  0  0  0  0  0  0  0  0  0  0
   39.8890   26.8580   41.2190 N   0  0  0  0  0  0  0  0  0  0  0  0
   40.0940   27.8550   42.0690 C   0  0  0  0  0  0  0  0  0  0  0  0
   39.5190   27.7920   43.2030 O   0  0  0  0  0  0  0  0  0  0  0  0
   42.0670   29.7480   40.3430 H   0  0  0  0  0  0  0  0  0  0  0  0
   41.7110   27.8900   38.7010 H   0  0  0  0  0  0  0  0  0  0  0  0
   39.0350   25.7430   41.5910 C   0  0  0  0  0  0  0  0  0  0  0  0
   39.1750   25.4680   42.9380 F   0  0  0  0  0  0  0  0  0  0  0  0
   39.4390   24.6430   40.8720 F   0  0  0  0  0  0  0  0  0  0  0  0
   37.7410   26.0870   41.2970 F   0  0  0  0  0  0  0  0  0  0  0  0
   38.9230   31.5420   47.5230 C   0  0  0  0  0  0  0  0  0  0  0  0
   39.3430   30.6060   47.9630 H   0  0  0  0  0  0  0  0  0  0  0  0
   39.7560   32.2640   47.4900 H   0  0  0  0  0  0  0  0  0  0  0  0
   37.7590   32.0480   48.3240 C   0  0  0  0  0  0  0  0  0  0  0  0
   36.8930   32.1460   47.6100 H   0  0  0  0  0  0  0  0  0  0  0  0
   37.9700   33.0970   48.6270 H   0  0  0  0  0  0  0  0  0  0  0  0
   37.3750   31.1860   49.4360 C   0  0  0  0  0  0  0  0  0  0  0  0
   36.1110   30.6140   49.2620 C   0  0  0  0  0  0  0  0  0  0  0  0
   35.5210   29.7740   50.1700 C   0  0  0  0  0  0  0  0  0  0  0  0
   36.1980   29.4830   51.2900 N   0  0  0  0  0  0  0  0  0  0  0  0
   37.4160   30.0050   51.5040 C   0  0  0  0  0  0  0  0  0  0  0  0
   38.1030   29.8910   52.3270 H   0  0  0  0  0  0  0  0  0  0  0  0
   37.9590   30.8250   50.5910 N   0  0  0  0  0  0  0  0  0  0  0  0
  1  6  1  0  0  0  0
  2  3  1  0  0  0  0
  2  1  2  0  0  0  0
  3  4  2  0  0  0  0
  4  5  1  0  0  0  0
  5 29  1  0  0  0  0
  6  5  2  0  0  0  0
  7  1  1  0  0  0  0
  8  2  1  0  0  0  0
  9 11  1  0  0  0  0
  9  3  1  0  0  0  0
 10  9  1  0  0  0  0
 12  9  1  0  0  0  0
 12 14  1  0  0  0  0
 13 12  1  0  0  0  0
 15 21  1  0  0  0  0
 15 12  1  0  0  0  0
 16 15  1  0  0  0  0
 17 18  1  0  0  0  0
 17 16  2  0  0  0  0
 18 20  1  0  0  0  0
 19 18  2  0  0  0  0
 20 25  1  0  0  0  0
 20 21  1  0  0  0  0
 21 22  2  0  0  0  0
 23 16  1  0  0  0  0
 24 17  1  0  0  0  0
 25 26  1  0  0  0  0
 27 25  1  0  0  0  0
 28 25  1  0  0  0  0
 29 30  1  0  0  0  0
 29 32  1  0  0  0  0
 31 29  1  0  0  0  0
 32 34  1  0  0  0  0
 32 35  1  0  0  0  0
 33 32  1  0  0  0  0
 35 41  1  0  0  0  0
 36 35  2  0  0  0  0
 36 37  1  0  0  0  0
 37 38  2  0  0  0  0
 38 39  1  0  0  0  0
 39 40  1  0  0  0  0
 41 39  2  0  0  0  0
M  END
>  <minimizedAffinity>
-5.36647081

>  <minimizedRMSD>
5.65879393

$$$$
