
 OpenBabel03252514013D

 29 31  0  0  1  0  0  0  0  0999 V2000
   35.5370   29.5470   49.2410 C   0  0  2  0  0  0  0  0  0  0  0  0
   34.5460   29.4850   50.3260 C   0  0  0  0  0  0  0  0  0  0  0  0
   34.7940   28.2480   49.6070 C   0  0  1  0  0  0  0  0  0  0  0  0
   35.3150   29.9890   48.2710 H   0  0  0  0  0  0  0  0  0  0  0  0
   34.9240   29.6270   51.3760 H   0  0  0  0  0  0  0  0  0  0  0  0
   33.5900   30.0530   50.1900 H   0  0  0  0  0  0  0  0  0  0  0  0
   35.5020   27.4690   49.9140 H   0  0  0  0  0  0  0  0  0  0  0  0
   37.0140   29.4840   49.6280 C   0  0  0  0  0  0  0  0  0  0  0  0
   37.1240   29.4080   50.7280 H   0  0  0  0  0  0  0  0  0  0  0  0
   37.3960   28.5520   49.1700 H   0  0  0  0  0  0  0  0  0  0  0  0
   38.3900   32.8600   49.2690 C   0  0  0  0  0  0  0  0  0  0  0  0
   38.9120   32.8510   47.9660 C   0  0  0  0  0  0  0  0  0  0  0  0
   38.7820   31.6680   47.2200 C   0  0  0  0  0  0  0  0  0  0  0  0
   38.1560   30.5910   47.8030 N   0  0  0  0  0  0  0  0  0  0  0  0
   37.6760   30.6560   49.0520 C   0  0  0  0  0  0  0  0  0  0  0  0
   37.7990   31.7930   49.7740 N   0  0  0  0  0  0  0  0  0  0  0  0
   38.5410   33.8100   49.7540 H   0  0  0  0  0  0  0  0  0  0  0  0
   39.4100   33.6240   47.4270 H   0  0  0  0  0  0  0  0  0  0  0  0
   39.1200   31.4880   46.2190 H   0  0  0  0  0  0  0  0  0  0  0  0
   33.6970   27.8090   48.6790 C   0  0  0  0  0  0  0  0  0  0  0  0
   34.0990   27.1670   47.6270 O   0  0  0  0  0  0  0  0  0  0  0  0
   32.3370   28.0200   48.8580 O   0  0  0  0  0  0  0  0  0  0  0  0
   31.4380   27.6630   47.8660 C   0  0  0  0  0  0  0  0  0  0  0  0
   30.7930   26.4350   47.8420 C   0  0  0  0  0  3  0  0  0  0  0  0
   29.9080   26.1700   46.8040 C   0  0  0  0  0  0  0  0  0  0  0  0
   29.4210   25.2070   46.8110 H   0  0  0  0  0  0  0  0  0  0  0  0
   29.6940   27.0960   45.8540 N   0  0  0  0  0  0  0  0  0  0  0  0
   30.3230   28.3030   45.8700 C   0  0  0  0  0  3  0  0  0  0  0  0
   31.1780   28.5560   46.8760 N   0  0  0  0  0  0  0  0  0  0  0  0
  1  4  1  6  0  0  0
  1  3  1  0  0  0  0
  1  8  1  0  0  0  0
  1  2  1  0  0  0  0
  2  5  1  0  0  0  0
  3  7  1  1  0  0  0
  3  2  1  0  0  0  0
  6  2  1  0  0  0  0
  8  9  1  0  0  0  0
 10  8  1  0  0  0  0
 11 17  1  0  0  0  0
 11 16  1  0  0  0  0
 12 11  2  0  0  0  0
 13 14  2  0  0  0  0
 13 12  1  0  0  0  0
 14 15  1  0  0  0  0
 15  8  1  0  0  0  0
 15 16  2  0  0  0  0
 18 12  1  0  0  0  0
 19 13  1  0  0  0  0
 20 22  1  0  0  0  0
 20  3  1  0  0  0  0
 21 20  2  0  0  0  0
 23 22  1  0  0  0  0
 24 23  1  0  0  0  0
 25 26  1  0  0  0  0
 25 24  2  0  0  0  0
 27 28  2  0  0  0  0
 27 25  1  0  0  0  0
 28 29  1  0  0  0  0
 29 23  2  0  0  0  0
M  END
>  <minimizedAffinity>
-4.93191385

>  <minimizedRMSD>
0.363138378

$$$$
