
 OpenBabel03252512383D

 42 45  0  0  1  0  0  0  0  0999 V2000
   39.2660   30.8370   46.3410 C   0  0  2  0  0  0  0  0  0  0  0  0
   40.1890   31.8200   45.8170 C   0  0  0  0  0  0  0  0  0  0  0  0
   41.0150   31.3470   44.6690 C   0  0  0  0  0  0  0  0  0  0  0  0
   40.2490   30.6230   43.6400 C   0  0  0  0  0  0  0  0  0  0  0  0
   39.2180   29.7220   44.1490 C   0  0  0  0  0  0  0  0  0  0  0  0
   38.3420   30.3690   45.2830 C   0  0  2  0  0  0  0  0  0  0  0  0
   39.8290   29.9300   46.6690 H   0  0  0  0  0  0  0  0  0  0  0  0
   39.8890   32.8420   45.6280 H   0  0  0  0  0  0  0  0  0  0  0  0
   40.9560   31.9540   46.6470 H   0  0  0  0  0  0  0  0  0  0  0  0
   41.5800   32.1980   44.2270 H   0  0  0  0  0  0  0  0  0  0  0  0
   41.8200   30.6440   45.0360 H   0  0  0  0  0  0  0  0  0  0  0  0
   39.7950   31.3740   42.9460 H   0  0  0  0  0  0  0  0  0  0  0  0
   40.9420   30.0380   43.0170 H   0  0  0  0  0  0  0  0  0  0  0  0
   39.5880   28.7420   44.5160 H   0  0  0  0  0  0  0  0  0  0  0  0
   38.4840   29.4950   43.3500 H   0  0  0  0  0  0  0  0  0  0  0  0
   37.6570   29.5300   45.5460 H   0  0  0  0  0  0  0  0  0  0  0  0
   38.6770   32.5640   48.1530 C   0  0  0  0  0  0  0  0  0  0  0  0
   38.5180   31.2870   47.5120 C   0  0  0  0  0  0  0  0  0  0  0  0
   37.6040   30.4170   47.9950 C   0  0  0  0  0  0  0  0  0  0  0  0
   36.8660   30.8070   49.0890 N   0  0  0  0  0  0  0  0  0  0  0  0
   37.0410   32.0390   49.6840 C   0  0  0  0  0  0  0  0  0  0  0  0
   37.9630   32.9220   49.1990 N   0  0  0  0  0  0  0  0  0  0  0  0
   39.4170   33.1960   47.7160 H   0  0  0  0  0  0  0  0  0  0  0  0
   37.3940   29.4320   47.6010 H   0  0  0  0  0  0  0  0  0  0  0  0
   36.3830   32.2060   50.5420 H   0  0  0  0  0  0  0  0  0  0  0  0
   37.6040   31.4410   44.6260 C   0  0  0  0  0  0  0  0  0  0  0  0
   37.6320   32.6850   44.9380 O   0  0  0  0  0  0  0  0  0  0  0  0
   36.8250   31.0290   43.5960 O   0  0  0  0  0  0  0  0  0  0  0  0
   35.9410   31.9660   42.9950 C   0  0  0  0  0  0  0  0  0  0  0  0
   34.5460   31.8690   43.1210 C   0  0  0  0  0  0  0  0  0  0  0  0
   34.0650   32.9400   42.4140 C   0  0  0  0  0  0  0  0  0  0  0  0
   35.0990   33.6520   41.8840 N   0  0  0  0  0  0  0  0  0  0  0  0
   36.2140   33.0440   42.2500 N   0  0  0  0  0  0  0  0  0  0  0  0
   34.0160   31.0960   43.6710 H   0  0  0  0  0  0  0  0  0  0  0  0
   33.0150   33.1770   42.2980 H   0  0  0  0  0  0  0  0  0  0  0  0
   33.5630   37.5760   38.9440 H   0  0  0  0  0  0  0  0  0  0  0  0
   34.1250   36.8600   39.4720 N   0  0  0  0  0  0  0  0  0  0  0  0
   33.6830   35.5250   39.0790 C   0  0  0  0  0  0  0  0  0  0  0  0
   34.7640   34.5920   39.6380 C   0  0  0  0  0  0  0  0  0  0  0  0
   35.0500   34.8520   41.0690 C   0  0  0  0  0  0  0  0  0  0  0  0
   34.1460   35.8410   41.7270 C   0  0  0  0  0  0  0  0  0  0  0  0
   33.7640   37.0050   40.8660 C   0  0  0  0  0  0  0  0  0  0  0  0
  1  7  1  1  0  0  0
  1 18  1  0  0  0  0
  2  1  1  0  0  0  0
  2  9  1  0  0  0  0
  3 11  1  0  0  0  0
  3  2  1  0  0  0  0
  4  5  1  0  0  0  0
  4  3  1  0  0  0  0
  5 14  1  0  0  0  0
  5  6  1  0  0  0  0
  6 16  1  1  0  0  0
  6  1  1  0  0  0  0
  8  2  1  0  0  0  0
 10  3  1  0  0  0  0
 12  4  1  0  0  0  0
 13  4  1  0  0  0  0
 15  5  1  0  0  0  0
 17 22  1  0  0  0  0
 18 19  1  0  0  0  0
 18 17  2  0  0  0  0
 19 20  2  0  0  0  0
 20 21  1  0  0  0  0
 21 25  1  0  0  0  0
 22 21  2  0  0  0  0
 23 17  1  0  0  0  0
 24 19  1  0  0  0  0
 26 27  2  0  0  0  0
 26  6  1  0  0  0  0
 28 26  1  0  0  0  0
 29 30  1  0  0  0  0
 29 28  1  0  0  0  0
 30 34  1  0  0  0  0
 31 30  2  0  0  0  0
 32 33  1  0  0  0  0
 32 31  1  0  0  0  0
 33 29  2  0  0  0  0
 35 31  1  0  0  0  0
 36 37  1  0  0  0  0
 37 42  1  0  0  0  0
 38 37  1  0  0  0  0
 38 39  1  0  0  0  0
 39 40  1  0  0  0  0
 40 41  1  0  0  0  0
 40 32  1  0  0  0  0
 42 41  1  0  0  0  0
M  END
>  <minimizedAffinity>
-5.62096834

>  <minimizedRMSD>
1.00138366

$$$$
