REMARK  Name = 
REMARK  5 active torsions:
REMARK  status: ('A' for Active; 'I' for Inactive)
REMARK    1  A    between atoms: C_1  and  C_6
REMARK    2  A    between atoms: C_1  and  C_8
REMARK    3  A    between atoms: C_10  and  C_11
REMARK    4  A    between atoms: C_11  and  O_13
REMARK    5  A    between atoms: O_13  and  C_23
REMARK                            x       y       z     vdW  Elec       q    Type
REMARK                         _______ _______ _______ _____ _____    ______ ____
ROOT
ATOM      1  C   UNL     1      35.433  29.538  49.214  0.00  0.00    +0.000 C 
ATOM      2  C   UNL     1      34.401  29.477  50.260  0.00  0.00    +0.000 C 
ATOM      3  C   UNL     1      34.648  28.249  49.525  0.00  0.00    +0.000 C 
ATOM      4  H   UNL     1      35.256  30.004  48.245  0.00  0.00    +0.000 HD
ATOM      5  H   UNL     1      34.743  29.589  51.326  0.00  0.00    +0.000 HD
ATOM      6  H   UNL     1      33.464  30.069  50.101  0.00  0.00    +0.000 HD
ATOM      7  H   UNL     1      35.327  27.448  49.842  0.00  0.00    +0.000 HD
ENDROOT
BRANCH   1   8
ATOM      8  C   UNL     1      36.893  29.433  49.653  0.00  0.00    +0.000 C 
ATOM      9  H   UNL     1      36.961  29.351  50.756  0.00  0.00    +0.000 HD
ATOM     10  H   UNL     1      37.265  28.493  49.205  0.00  0.00    +0.000 HD
BRANCH   8  15
ATOM     11  C   UNL     1      38.435  32.745  49.384  0.00  0.00    +0.000 A 
ATOM     12  C   UNL     1      38.939  32.753  48.074  0.00  0.00    +0.000 A 
ATOM     13  C   UNL     1      38.739  31.604  47.292  0.00  0.00    +0.000 A 
ATOM     14  N   UNL     1      38.066  30.541  47.848  0.00  0.00    +0.000 NA
ATOM     15  C   UNL     1      37.606  30.589  49.106  0.00  0.00    +0.000 A 
ATOM     16  N   UNL     1      37.797  31.694  49.862  0.00  0.00    +0.000 NA
ATOM     17  H   UNL     1      38.640  33.670  49.897  0.00  0.00    +0.000 HD
ATOM     18  H   UNL     1      39.469  33.517  47.553  0.00  0.00    +0.000 HD
ATOM     19  H   UNL     1      39.054  31.440  46.280  0.00  0.00    +0.000 HD
ENDBRANCH   8  15
ENDBRANCH   1   8
BRANCH   3  20
ATOM     20  C   UNL     1      33.577  27.854  48.549  0.00  0.00    +0.000 C 
ATOM     21  O   UNL     1      33.879  26.849  47.788  0.00  0.00    +0.000 OA
BRANCH  20  22
ATOM     22  O   UNL     1      32.332  28.451  48.411  0.00  0.00    +0.000 OA
BRANCH  22  23
ATOM     23  C   UNL     1      31.429  27.976  47.472  0.00  0.00    +0.000 A 
ATOM     24  C   UNL     1      30.175  27.491  47.813  0.00  0.00    +0.000 A 
ATOM     25  C   UNL     1      29.341  27.036  46.799  0.00  0.00    +0.000 A 
ATOM     26  H   UNL     1      28.372  26.665  47.093  0.00  0.00    +0.000 HD
ATOM     27  N   UNL     1      29.759  27.073  45.521  0.00  0.00    +0.000 NA
ATOM     28  C   UNL     1      30.988  27.548  45.178  0.00  0.00    +0.000 A 
ATOM     29  N   UNL     1      31.792  27.987  46.163  0.00  0.00    +0.000 NA
ENDBRANCH  22  23
ENDBRANCH  20  22
ENDBRANCH   3  20
TORSDOF 5
