
 OpenBabel03252514013D

 29 31  0  0  1  0  0  0  0  0999 V2000
   35.4920   29.4630   49.1370 C   0  0  2  0  0  0  0  0  0  0  0  0
   34.4540   29.5530   50.1750 C   0  0  0  0  0  0  0  0  0  0  0  0
   34.6890   28.2360   49.6100 C   0  0  1  0  0  0  0  0  0  0  0  0
   35.3270   29.7990   48.1140 H   0  0  0  0  0  0  0  0  0  0  0  0
   34.7920   29.8000   51.2190 H   0  0  0  0  0  0  0  0  0  0  0  0
   33.5260   30.1300   49.9320 H   0  0  0  0  0  0  0  0  0  0  0  0
   35.3560   27.4750   50.0340 H   0  0  0  0  0  0  0  0  0  0  0  0
   36.9490   29.3990   49.5960 C   0  0  0  0  0  0  0  0  0  0  0  0
   37.0030   29.3150   50.7000 H   0  0  0  0  0  0  0  0  0  0  0  0
   37.3540   28.4710   49.1510 H   0  0  0  0  0  0  0  0  0  0  0  0
   38.4130   32.7480   49.3670 C   0  0  0  0  0  0  0  0  0  0  0  0
   38.9190   32.7830   48.0580 C   0  0  0  0  0  0  0  0  0  0  0  0
   38.7470   31.6380   47.2630 C   0  0  0  0  0  0  0  0  0  0  0  0
   38.0980   30.5530   47.8060 N   0  0  0  0  0  0  0  0  0  0  0  0
   37.6350   30.5770   49.0630 C   0  0  0  0  0  0  0  0  0  0  0  0
   37.7990   31.6780   49.8320 N   0  0  0  0  0  0  0  0  0  0  0  0
   38.5960   33.6720   49.8900 H   0  0  0  0  0  0  0  0  0  0  0  0
   39.4320   33.5640   47.5460 H   0  0  0  0  0  0  0  0  0  0  0  0
   39.0670   31.4920   46.2490 H   0  0  0  0  0  0  0  0  0  0  0  0
   33.6180   27.7290   48.6860 C   0  0  0  0  0  0  0  0  0  0  0  0
   34.0470   26.9920   47.7100 O   0  0  0  0  0  0  0  0  0  0  0  0
   32.2560   27.9680   48.8000 O   0  0  0  0  0  0  0  0  0  0  0  0
   31.4100   27.7110   47.7320 C   0  0  0  0  0  0  0  0  0  0  0  0
   31.2600   28.5840   46.6640 C   0  0  0  0  0  3  0  0  0  0  0  0
   30.3870   28.2350   45.6400 C   0  0  0  0  0  0  0  0  0  0  0  0
   30.2890   28.9320   44.8230 H   0  0  0  0  0  0  0  0  0  0  0  0
   29.7110   27.0750   45.7020 N   0  0  0  0  0  0  0  0  0  0  0  0
   29.8540   26.2130   46.7460 C   0  0  0  0  0  3  0  0  0  0  0  0
   30.7000   26.5530   47.7360 N   0  0  0  0  0  0  0  0  0  0  0  0
  1  4  1  6  0  0  0
  1  8  1  0  0  0  0
  1  3  1  0  0  0  0
  1  2  1  0  0  0  0
  2  5  1  0  0  0  0
  3  7  1  1  0  0  0
  3  2  1  0  0  0  0
  6  2  1  0  0  0  0
  8  9  1  0  0  0  0
 10  8  1  0  0  0  0
 11 16  1  0  0  0  0
 11 17  1  0  0  0  0
 12 11  2  0  0  0  0
 13 14  2  0  0  0  0
 13 12  1  0  0  0  0
 14 15  1  0  0  0  0
 15  8  1  0  0  0  0
 15 16  2  0  0  0  0
 18 12  1  0  0  0  0
 19 13  1  0  0  0  0
 20 22  1  0  0  0  0
 20  3  1  0  0  0  0
 21 20  2  0  0  0  0
 23 29  1  0  0  0  0
 23 22  1  0  0  0  0
 24 23  2  0  0  0  0
 25 27  2  0  0  0  0
 25 24  1  0  0  0  0
 26 25  1  0  0  0  0
 27 28  1  0  0  0  0
 28 29  2  0  0  0  0
M  END
>  <minimizedAffinity>
-4.8875556

>  <minimizedRMSD>
0.724680305

$$$$
