
 OpenBabel03252514053D

 24 26  0  0  0  0  0  0  0  0999 V2000
   38.2150   31.8430   48.4240 N   0  0  0  0  0  0  0  0  0  0  0  0
   38.7420   33.0600   48.7080 C   0  0  0  0  0  0  0  0  0  0  0  0
   39.4650   33.4730   47.6500 N   0  0  0  0  0  0  0  0  0  0  0  0
   39.3900   32.5240   46.7190 C   0  0  0  0  0  0  0  0  0  0  0  0
   39.9120   32.3730   45.4430 C   0  0  0  0  0  0  0  0  0  0  0  0
   39.6580   31.2680   44.7100 N   0  0  0  0  0  0  0  0  0  0  0  0
   38.8930   30.2610   45.1740 C   0  0  0  0  0  0  0  0  0  0  0  0
   38.3900   30.4160   46.4150 N   0  0  0  0  0  0  0  0  0  0  0  0
   38.6030   31.4810   47.1880 C   0  0  0  0  0  0  0  0  0  0  0  0
   40.7200   33.3930   44.9040 N   0  0  0  0  0  0  0  0  0  0  0  0
   38.6630   33.6820   49.5880 H   0  0  0  0  0  0  0  0  0  0  0  0
   38.7020   29.3860   44.5710 H   0  0  0  0  0  0  0  0  0  0  0  0
   40.8320   34.3130   45.3980 H   0  0  0  0  0  0  0  0  0  0  0  0
   41.2340   33.2810   44.0040 H   0  0  0  0  0  0  0  0  0  0  0  0
   36.0550   30.8580   48.9210 C   0  0  0  0  0  0  0  0  0  0  0  0
   37.3960   31.1050   49.3110 C   0  0  0  0  0  0  0  0  0  0  0  0
   37.8010   30.5940   50.5490 C   0  0  0  0  0  0  0  0  0  0  0  0
   36.8990   29.8980   51.2990 N   0  0  0  0  0  0  0  0  0  0  0  0
   35.6420   29.6840   50.9010 C   0  0  0  0  0  0  0  0  0  0  0  0
   35.2220   30.1620   49.7160 N   0  0  0  0  0  0  0  0  0  0  0  0
   35.6270   31.2040   47.9830 H   0  0  0  0  0  0  0  0  0  0  0  0
   38.8260   30.7850   50.8400 H   0  0  0  0  0  0  0  0  0  0  0  0
   34.9320   28.9560   51.8380 O   0  0  0  0  0  0  0  0  0  0  0  0
   34.1290   28.3730   51.5650 H   0  0  0  0  0  0  0  0  0  0  0  0
  1  2  1  0  0  0  0
  1 16  1  0  0  0  0
  2 11  1  0  0  0  0
  3  2  2  0  0  0  0
  4  9  1  0  0  0  0
  4  3  1  0  0  0  0
  5  4  2  0  0  0  0
  6  7  2  0  0  0  0
  6  5  1  0  0  0  0
  7  8  1  0  0  0  0
  8  9  2  0  0  0  0
  9  1  1  0  0  0  0
 10 13  1  0  0  0  0
 10  5  1  0  0  0  0
 12  7  1  0  0  0  0
 14 10  1  0  0  0  0
 15 16  2  0  0  0  0
 15 20  1  0  0  0  0
 16 17  1  0  0  0  0
 17 22  1  0  0  0  0
 17 18  2  0  0  0  0
 19 18  1  0  0  0  0
 19 23  1  0  0  0  0
 20 19  2  0  0  0  0
 21 15  1  0  0  0  0
 24 23  1  0  0  0  0
M  END
>  <minimizedAffinity>
-4.93180799

>  <minimizedRMSD>
0.774595976

$$$$
