
 OpenBabel03252513403D

 15 15  0  0  0  0  0  0  0  0999 V2000
   37.9790   30.6240   49.0730 C   0  0  0  0  0  0  0  0  0  0  0  0
   38.5890   31.9060   49.2040 C   0  0  0  0  0  0  0  0  0  0  0  0
   38.5840   32.7300   48.0640 C   0  0  0  0  0  0  0  0  0  0  0  0
   38.0060   32.2570   46.9320 N   0  0  0  0  0  0  0  0  0  0  0  0
   37.4410   31.0400   46.8530 C   0  0  0  0  0  0  0  0  0  0  0  0
   37.4280   30.2230   47.9220 N   0  0  0  0  0  0  0  0  0  0  0  0
   39.0420   32.2740   50.0910 H   0  0  0  0  0  0  0  0  0  0  0  0
   39.0310   33.7200   48.0900 H   0  0  0  0  0  0  0  0  0  0  0  0
   36.9770   30.6530   45.9530 H   0  0  0  0  0  0  0  0  0  0  0  0
   37.9820   29.8130   50.1850 O   0  0  0  0  0  0  0  0  0  0  0  0
   36.9900   29.7270   51.1360 C   0  0  0  0  0  0  0  0  0  0  0  0
   35.6410   29.3780   50.7670 N   0  0  0  0  0  0  0  0  0  0  0  0
   37.2820   29.9610   52.3440 O   0  0  0  0  0  0  0  0  0  0  0  0
   35.3980   29.3810   49.7540 H   0  0  0  0  0  0  0  0  0  0  0  0
   34.9690   29.1400   51.5490 H   0  0  0  0  0  0  0  0  0  0  0  0
  1  2  1  0  0  0  0
  1 10  1  0  0  0  0
  2  7  1  0  0  0  0
  3  8  1  0  0  0  0
  3  2  2  0  0  0  0
  4  3  1  0  0  0  0
  5  4  2  0  0  0  0
  5  6  1  0  0  0  0
  6  1  2  0  0  0  0
  9  5  1  0  0  0  0
 10 11  1  0  0  0  0
 11 13  2  0  0  0  0
 12 11  1  0  0  0  0
 12 15  1  0  0  0  0
 14 12  1  0  0  0  0
M  END
>  <minimizedAffinity>
-3.58453965

>  <minimizedRMSD>
2.37358499

$$$$
