
 OpenBabel03252511573D

 42 46  0  0  0  0  0  0  0  0999 V2000
   37.9760   31.3040   44.3590 C   0  0  0  0  0  0  0  0  0  0  0  0
   38.3830   32.6100   44.1430 C   0  0  0  0  0  0  0  0  0  0  0  0
   39.3050   32.9690   43.2070 C   0  0  0  0  0  0  0  0  0  0  0  0
   39.8760   31.9970   42.4210 C   0  0  0  0  0  0  0  0  0  0  0  0
   39.4590   30.6760   42.6440 C   0  0  0  0  0  0  0  0  0  0  0  0
   38.5460   30.3580   43.5770 N   0  0  0  0  0  0  0  0  0  0  0  0
   37.8940   33.3460   44.8000 H   0  0  0  0  0  0  0  0  0  0  0  0
   39.5210   34.0270   43.1550 H   0  0  0  0  0  0  0  0  0  0  0  0
   40.5940   32.2800   41.6920 H   0  0  0  0  0  0  0  0  0  0  0  0
   40.0280   29.6370   41.8510 N   0  0  0  0  0  0  0  0  0  0  0  0
   40.0250   28.3180   42.1630 C   0  0  0  0  0  0  0  0  0  0  0  0
   40.6410   27.5940   41.2090 N   0  0  0  0  0  0  0  0  0  0  0  0
   41.0570   28.4540   40.2530 C   0  0  0  0  0  0  0  0  0  0  0  0
   41.7340   28.2300   39.0720 C   0  0  0  0  0  0  0  0  0  0  0  0
   42.0780   27.0700   38.7160 O   0  0  0  0  0  0  0  0  0  0  0  0
   42.0220   29.3030   38.2990 N   0  0  0  0  0  0  0  0  0  0  0  0
   41.6200   30.5270   38.7440 C   0  0  0  0  0  0  0  0  0  0  0  0
   41.9370   31.6380   37.9090 N   0  0  0  0  0  0  0  0  0  0  0  0
   40.9590   30.7640   39.8930 N   0  0  0  0  0  0  0  0  0  0  0  0
   40.6670   29.7120   40.6700 C   0  0  0  0  0  0  0  0  0  0  0  0
   42.5290   29.2190   37.3950 H   0  0  0  0  0  0  0  0  0  0  0  0
   42.1200   32.6240   38.2360 H   0  0  0  0  0  0  0  0  0  0  0  0
   42.0170   31.5570   36.8550 H   0  0  0  0  0  0  0  0  0  0  0  0
   36.3790   30.3040   47.5110 N   0  0  0  0  0  0  0  0  0  0  0  0
   35.1290   29.9820   47.0910 C   0  0  0  0  0  0  0  0  0  0  0  0
   34.7810   30.0840   45.7570 C   0  0  0  0  0  0  0  0  0  0  0  0
   35.7880   30.5250   44.9390 C   0  0  0  0  0  0  0  0  0  0  0  0
   35.5110   30.6350   43.6980 O   0  0  0  0  0  0  0  0  0  0  0  0
   37.0430   30.8590   45.2940 N   0  0  0  0  0  0  0  0  0  0  0  0
   37.2790   30.7230   46.6250 C   0  0  0  0  0  0  0  0  0  0  0  0
   38.4250   31.0110   47.0330 O   0  0  0  0  0  0  0  0  0  0  0  0
   34.4020   29.6430   47.8180 H   0  0  0  0  0  0  0  0  0  0  0  0
   33.8070   29.8400   45.3810 H   0  0  0  0  0  0  0  0  0  0  0  0
   36.8580   31.3940   49.5370 C   0  0  0  0  0  0  0  0  0  0  0  0
   36.6670   30.1790   48.8710 C   0  0  0  0  0  0  0  0  0  0  0  0
   36.7900   29.0030   49.6080 C   0  0  0  0  0  0  0  0  0  0  0  0
   37.0850   29.0550   50.9240 N   0  0  0  0  0  0  0  0  0  0  0  0
   37.2680   30.2580   51.5450 C   0  0  0  0  0  0  0  0  0  0  0  0
   37.1510   31.4270   50.8390 N   0  0  0  0  0  0  0  0  0  0  0  0
   36.8170   32.4350   49.2560 H   0  0  0  0  0  0  0  0  0  0  0  0
   36.6290   28.1030   49.0330 H   0  0  0  0  0  0  0  0  0  0  0  0
   37.4960   30.1140   52.5920 H   0  0  0  0  0  0  0  0  0  0  0  0
  1 29  1  0  0  0  0
  2  1  1  0  0  0  0
  2  7  1  0  0  0  0
  3  2  2  0  0  0  0
  4  5  2  0  0  0  0
  4  3  1  0  0  0  0
  5  6  1  0  0  0  0
  6  1  2  0  0  0  0
  8  3  1  0  0  0  0
  9  4  1  0  0  0  0
 10 11  1  0  0  0  0
 10  5  1  0  0  0  0
 12 11  2  0  0  0  0
 13 20  2  0  0  0  0
 13 12  1  0  0  0  0
 14 13  1  0  0  0  0
 15 14  2  0  0  0  0
 16 17  1  0  0  0  0
 16 14  1  0  0  0  0
 17 19  2  0  0  0  0
 18 22  1  0  0  0  0
 18 17  1  0  0  0  0
 19 20  1  0  0  0  0
 20 10  1  0  0  0  0
 21 16  1  0  0  0  0
 23 18  1  0  0  0  0
 24 35  1  0  0  0  0
 25 24  1  0  0  0  0
 25 32  1  0  0  0  0
 26 25  2  0  0  0  0
 27 29  1  0  0  0  0
 27 26  1  0  0  0  0
 28 27  2  0  0  0  0
 29 30  1  0  0  0  0
 30 31  2  0  0  0  0
 30 24  1  0  0  0  0
 33 26  1  0  0  0  0
 34 39  1  0  0  0  0
 35 34  2  0  0  0  0
 35 36  1  0  0  0  0
 36 37  2  0  0  0  0
 37 38  1  0  0  0  0
 38 42  1  0  0  0  0
 39 38  2  0  0  0  0
 40 34  1  0  0  0  0
 41 36  1  0  0  0  0
M  END
>  <minimizedAffinity>
-6.31272364

>  <minimizedRMSD>
0.861705422

$$$$
