
 OpenBabel03252513443D

 27 29  0  0  0  0  0  0  0  0999 V2000
   37.5610   30.3450   49.1630 C   0  0  0  0  0  0  0  0  0  0  0  0
   37.8090   31.4470   50.0140 C   0  0  0  0  0  0  0  0  0  0  0  0
   38.5040   32.5450   49.5060 C   0  0  0  0  0  0  0  0  0  0  0  0
   38.9150   32.5040   48.2120 N   0  0  0  0  0  0  0  0  0  0  0  0
   38.6610   31.4410   47.4330 C   0  0  0  0  0  0  0  0  0  0  0  0
   37.9990   30.3730   47.8830 N   0  0  0  0  0  0  0  0  0  0  0  0
   37.4300   31.3730   51.0450 H   0  0  0  0  0  0  0  0  0  0  0  0
   38.6590   33.3510   50.2100 H   0  0  0  0  0  0  0  0  0  0  0  0
   39.1320   31.4920   46.0900 N   0  0  0  0  0  0  0  0  0  0  0  0
   40.4090   31.0930   45.8220 C   0  0  0  0  0  0  0  0  0  0  0  0
   40.6630   31.2150   44.5060 N   0  0  0  0  0  0  0  0  0  0  0  0
   39.5740   31.6870   43.9120 C   0  0  0  0  0  0  0  0  0  0  0  0
   39.1780   32.0290   42.6270 C   0  0  0  0  0  0  0  0  0  0  0  0
   40.0580   31.8690   41.7270 O   0  0  0  0  0  0  0  0  0  0  0  0
   37.9330   32.4940   42.4200 N   0  0  0  0  0  0  0  0  0  0  0  0
   37.0520   32.6400   43.4160 C   0  0  0  0  0  0  0  0  0  0  0  0
   35.8000   33.1460   42.9600 N   0  0  0  0  0  0  0  0  0  0  0  0
   37.3930   32.3170   44.6930 N   0  0  0  0  0  0  0  0  0  0  0  0
   38.6420   31.8510   44.9060 C   0  0  0  0  0  0  0  0  0  0  0  0
   37.7710   32.7120   41.4100 H   0  0  0  0  0  0  0  0  0  0  0  0
   35.2980   34.0490   43.1230 H   0  0  0  0  0  0  0  0  0  0  0  0
   35.2600   32.4910   42.3310 H   0  0  0  0  0  0  0  0  0  0  0  0
   36.8770   29.2730   49.6700 O   0  0  0  0  0  0  0  0  0  0  0  0
   35.5830   29.3150   50.2000 C   0  0  0  0  0  0  0  0  0  0  0  0
   35.5540   29.2860   51.5790 F   0  0  0  0  0  0  0  0  0  0  0  0
   34.8180   30.3530   49.7210 F   0  0  0  0  0  0  0  0  0  0  0  0
   34.9520   28.1450   49.7650 F   0  0  0  0  0  0  0  0  0  0  0  0
  1 23  1  0  0  0  0
  1  2  1  0  0  0  0
  2  7  1  0  0  0  0
  3  2  2  0  0  0  0
  3  8  1  0  0  0  0
  4  3  1  0  0  0  0
  5  6  1  0  0  0  0
  5  4  2  0  0  0  0
  6  1  2  0  0  0  0
  9  5  1  0  0  0  0
 10  9  1  0  0  0  0
 11 10  2  0  0  0  0
 12 11  1  0  0  0  0
 12 19  2  0  0  0  0
 13 12  1  0  0  0  0
 14 13  2  0  0  0  0
 15 13  1  0  0  0  0
 15 16  1  0  0  0  0
 16 18  2  0  0  0  0
 17 21  1  0  0  0  0
 17 16  1  0  0  0  0
 18 19  1  0  0  0  0
 19  9  1  0  0  0  0
 20 15  1  0  0  0  0
 22 17  1  0  0  0  0
 23 24  1  0  0  0  0
 24 25  1  0  0  0  0
 26 24  1  0  0  0  0
 27 24  1  0  0  0  0
M  END
>  <minimizedAffinity>
-7.21832895

>  <minimizedRMSD>
1.53095865

$$$$
