
 OpenBabel03252512043D

 43 46  0  0  0  0  0  0  0  0999 V2000
   35.9860   28.6890   49.9710 C   0  0  0  0  0  0  0  0  0  0  0  0
   35.9790   30.0920   49.9240 C   0  0  0  0  0  0  0  0  0  0  0  0
   34.8550   30.6990   49.4460 C   0  0  0  0  0  0  0  0  0  0  0  0
   33.7730   29.9550   49.0280 N   0  0  0  0  0  0  0  0  0  0  0  0
   33.8020   28.6250   49.0820 C   0  0  0  0  0  0  0  0  0  0  0  0
   34.8980   28.0110   49.5480 N   0  0  0  0  0  0  0  0  0  0  0  0
   36.8470   28.1460   50.3400 H   0  0  0  0  0  0  0  0  0  0  0  0
   34.6490   31.7490   49.3220 H   0  0  0  0  0  0  0  0  0  0  0  0
   32.6840   27.8440   48.6510 N   0  0  0  0  0  0  0  0  0  0  0  0
   31.4560   27.8340   49.1980 C   0  0  0  0  0  0  0  0  0  0  0  0
   30.7130   26.9490   48.4700 N   0  0  0  0  0  0  0  0  0  0  0  0
   31.5010   26.4550   47.5150 C   0  0  0  0  0  0  0  0  0  0  0  0
   31.2590   25.5220   46.5010 C   0  0  0  0  0  0  0  0  0  0  0  0
   30.1430   24.9650   46.3380 O   0  0  0  0  0  0  0  0  0  0  0  0
   32.2990   25.2360   45.6810 N   0  0  0  0  0  0  0  0  0  0  0  0
   33.5250   25.7830   45.7820 C   0  0  0  0  0  0  0  0  0  0  0  0
   34.5490   25.4050   44.8570 N   0  0  0  0  0  0  0  0  0  0  0  0
   33.7800   26.6890   46.7570 N   0  0  0  0  0  0  0  0  0  0  0  0
   32.7800   27.0080   47.5980 C   0  0  0  0  0  0  0  0  0  0  0  0
   32.1170   24.5330   44.9170 H   0  0  0  0  0  0  0  0  0  0  0  0
   35.4960   25.1560   45.2520 H   0  0  0  0  0  0  0  0  0  0  0  0
   34.3190   25.3900   43.8370 H   0  0  0  0  0  0  0  0  0  0  0  0
   37.0940   30.8490   50.3660 C   0  0  0  0  0  0  0  0  0  0  0  0
   38.0890   30.3390   50.4200 H   0  0  0  0  0  0  0  0  0  0  0  0
   36.9170   31.1180   51.4550 H   0  0  0  0  0  0  0  0  0  0  0  0
   37.2370   32.1570   49.6640 C   0  0  0  0  0  0  0  0  0  0  0  0
   37.9680   32.8200   50.2340 H   0  0  0  0  0  0  0  0  0  0  0  0
   36.3530   32.7630   49.5460 H   0  0  0  0  0  0  0  0  0  0  0  0
   37.9800   31.8610   48.3950 C   0  0  0  0  0  0  0  0  0  0  0  0
   37.9030   30.6460   47.7810 C   0  0  0  0  0  0  0  0  0  0  0  0
   38.6130   30.4010   46.6260 C   0  0  0  0  0  0  0  0  0  0  0  0
   39.3820   31.3790   46.1180 N   0  0  0  0  0  0  0  0  0  0  0  0
   39.4620   32.5780   46.7200 C   0  0  0  0  0  0  0  0  0  0  0  0
   38.7760   32.8400   47.8490 N   0  0  0  0  0  0  0  0  0  0  0  0
   37.3060   29.8480   48.1440 H   0  0  0  0  0  0  0  0  0  0  0  0
   38.5880   29.4470   46.0920 H   0  0  0  0  0  0  0  0  0  0  0  0
   40.3150   33.6670   46.1560 C   0  0  0  0  0  0  0  0  0  0  0  0
   41.3890   33.5010   46.3250 H   0  0  0  0  0  0  0  0  0  0  0  0
   39.9790   34.6620   46.5540 H   0  0  0  0  0  0  0  0  0  0  0  0
   40.1280   33.7380   44.6300 C   0  0  0  0  0  0  0  0  0  0  0  0
   41.0990   33.9780   44.1240 H   0  0  0  0  0  0  0  0  0  0  0  0
   39.3370   34.4610   44.3690 H   0  0  0  0  0  0  0  0  0  0  0  0
   39.8870   32.6950   44.3320 H   0  0  0  0  0  0  0  0  0  0  0  0
  1  7  1  0  0  0  0
  2  1  1  0  0  0  0
  2 23  1  0  0  0  0
  3  2  2  0  0  0  0
  4  5  2  0  0  0  0
  4  3  1  0  0  0  0
  5  6  1  0  0  0  0
  6  1  2  0  0  0  0
  8  3  1  0  0  0  0
  9  5  1  0  0  0  0
  9 10  1  0  0  0  0
 11 10  2  0  0  0  0
 12 19  2  0  0  0  0
 12 11  1  0  0  0  0
 13 12  1  0  0  0  0
 14 13  2  0  0  0  0
 15 16  1  0  0  0  0
 15 13  1  0  0  0  0
 16 18  2  0  0  0  0
 17 21  1  0  0  0  0
 17 16  1  0  0  0  0
 18 19  1  0  0  0  0
 19  9  1  0  0  0  0
 20 15  1  0  0  0  0
 22 17  1  0  0  0  0
 23 24  1  0  0  0  0
 23 25  1  0  0  0  0
 26 27  1  0  0  0  0
 26 23  1  0  0  0  0
 28 26  1  0  0  0  0
 29 26  1  0  0  0  0
 30 35  1  0  0  0  0
 30 29  2  0  0  0  0
 31 30  1  0  0  0  0
 32 31  2  0  0  0  0
 32 33  1  0  0  0  0
 33 34  2  0  0  0  0
 34 29  1  0  0  0  0
 36 31  1  0  0  0  0
 37 38  1  0  0  0  0
 37 39  1  0  0  0  0
 37 33  1  0  0  0  0
 40 37  1  0  0  0  0
 41 40  1  0  0  0  0
 42 40  1  0  0  0  0
 43 40  1  0  0  0  0
M  END
>  <minimizedAffinity>
-5.90054703

>  <minimizedRMSD>
2.54210401

$$$$
