
 OpenBabel03252514043D

 43 47  0  0  1  0  0  0  0  0999 V2000
   33.0230   28.1550   47.3000 O   0  0  0  0  0  0  0  0  0  0  0  0
   31.7460   28.1850   47.7740 C   0  0  0  0  0  0  0  0  0  0  0  0
   31.3310   27.6780   49.0890 C   0  0  0  0  0  0  0  0  0  0  0  0
   30.0340   27.7570   49.4710 C   0  0  0  0  0  0  0  0  0  0  0  0
   29.0750   28.3310   48.5980 C   0  0  0  0  0  0  0  0  0  0  0  0
   30.1000   28.8030   47.0920 S   0  0  0  0  0  0  0  0  0  0  0  0
   32.0980   27.2490   49.7160 H   0  0  0  0  0  0  0  0  0  0  0  0
   29.6690   27.4100   50.4070 H   0  0  0  0  0  0  0  0  0  0  0  0
   27.7250   28.5210   48.7560 N   0  0  0  0  0  0  0  0  0  0  0  0
   26.9250   27.4320   48.9490 C   0  0  0  0  0  3  0  0  0  0  0  0
   25.6460   27.7690   49.0860 N   0  0  0  0  0  0  0  0  0  0  0  0
   25.5750   29.1210   48.9840 C   0  0  0  0  0  0  0  0  0  0  0  0
   24.6090   30.1150   49.0260 C   0  0  0  0  0  0  0  0  0  0  0  0
   23.4200   29.7290   49.2110 O   0  0  0  0  0  0  0  0  0  0  0  0
   24.9500   31.4140   48.8750 N   0  0  0  0  0  0  0  0  0  0  0  0
   26.2260   31.8090   48.6780 C   0  0  0  0  0  0  0  0  0  0  0  0
   26.4030   33.2140   48.5400 N   0  0  0  0  0  0  0  0  0  0  0  0
   27.1980   30.8530   48.6320 N   0  0  0  0  0  0  0  0  0  0  0  0
   26.8680   29.5590   48.7810 C   0  0  0  0  0  0  0  0  0  0  0  0
   24.1130   32.0550   48.9300 H   0  0  0  0  0  0  0  0  0  0  0  0
   26.1250   33.4390   47.5490 H   0  0  0  0  0  0  0  0  0  0  0  0
   26.7420   33.8890   49.2730 H   0  0  0  0  0  0  0  0  0  0  0  0
   34.0900   27.5600   47.9540 C   0  0  0  0  0  0  0  0  0  0  0  0
   34.4320   26.3540   47.6510 O   0  0  0  0  0  0  0  0  0  0  0  0
   35.6970   29.4920   48.6470 C   0  0  2  0  0  0  0  0  0  0  0  0
   34.5140   29.4690   49.4990 C   0  0  0  0  0  0  0  0  0  0  0  0
   34.9390   28.1820   49.0400 C   0  0  1  0  0  0  0  0  0  0  0  0
   35.6690   29.7810   47.5950 H   0  0  0  0  0  0  0  0  0  0  0  0
   34.6690   29.7610   50.5790 H   0  0  0  0  0  0  0  0  0  0  0  0
   33.5410   29.9230   49.1490 H   0  0  0  0  0  0  0  0  0  0  0  0
   35.5730   27.4910   49.6080 H   0  0  0  0  0  0  0  0  0  0  0  0
   37.0530   29.5570   49.3680 C   0  0  0  0  0  0  0  0  0  0  0  0
   36.9060   29.5640   50.4650 H   0  0  0  0  0  0  0  0  0  0  0  0
   37.6630   28.6720   49.1210 H   0  0  0  0  0  0  0  0  0  0  0  0
   38.3740   32.9620   49.3740 C   0  0  0  0  0  0  0  0  0  0  0  0
   39.0090   33.0480   48.1180 C   0  0  0  0  0  0  0  0  0  0  0  0
   38.9670   31.9100   47.2810 C   0  0  0  0  0  0  0  0  0  0  0  0
   38.3150   30.7980   47.7430 N   0  0  0  0  0  0  0  0  0  0  0  0
   37.7300   30.7690   48.9420 C   0  0  0  0  0  0  0  0  0  0  0  0
   37.7630   31.8490   49.7490 N   0  0  0  0  0  0  0  0  0  0  0  0
   38.4090   33.8420   50.0140 H   0  0  0  0  0  0  0  0  0  0  0  0
   39.5170   33.9590   47.7930 H   0  0  0  0  0  0  0  0  0  0  0  0
   39.4490   31.9550   46.3110 H   0  0  0  0  0  0  0  0  0  0  0  0
  1  2  1  0  0  0  0
  1 23  1  0  0  0  0
  2  3  2  0  0  0  0
  3  4  1  0  0  0  0
  3  7  1  0  0  0  0
  4  8  1  0  0  0  0
  5  9  1  0  0  0  0
  5  4  2  0  0  0  0
  6  2  1  0  0  0  0
  6  5  1  0  0  0  0
  9 19  1  0  0  0  0
  9 10  1  0  0  0  0
 10 11  2  0  0  0  0
 12 13  1  0  0  0  0
 12 11  1  0  0  0  0
 13 14  2  0  0  0  0
 15 20  1  0  0  0  0
 15 13  1  0  0  0  0
 16 15  1  0  0  0  0
 17 16  1  0  0  0  0
 17 22  1  0  0  0  0
 18 16  2  0  0  0  0
 18 19  1  0  0  0  0
 19 12  2  0  0  0  0
 21 17  1  0  0  0  0
 23 27  1  0  0  0  0
 24 23  2  0  0  0  0
 25 28  1  6  0  0  0
 25 27  1  0  0  0  0
 25 32  1  0  0  0  0
 25 26  1  0  0  0  0
 26 29  1  0  0  0  0
 27 26  1  0  0  0  0
 27 31  1  1  0  0  0
 30 26  1  0  0  0  0
 32 33  1  0  0  0  0
 34 32  1  0  0  0  0
 35 40  1  0  0  0  0
 35 41  1  0  0  0  0
 36 35  2  0  0  0  0
 37 38  2  0  0  0  0
 37 36  1  0  0  0  0
 38 39  1  0  0  0  0
 39 32  1  0  0  0  0
 39 40  2  0  0  0  0
 42 36  1  0  0  0  0
 43 37  1  0  0  0  0
M  END
>  <minimizedAffinity>
-6.36527681

>  <minimizedRMSD>
2.24672604

$$$$
