
 OpenBabel03252514013D

 32 35  0  0  1  0  0  0  0  0999 V2000
   35.4750   29.4760   49.1680 C   0  0  2  0  0  0  0  0  0  0  0  0
   34.4490   29.4790   50.2210 C   0  0  0  0  0  0  0  0  0  0  0  0
   34.6960   28.2050   49.5560 C   0  0  1  0  0  0  0  0  0  0  0  0
   35.2540   29.9160   48.1910 H   0  0  0  0  0  0  0  0  0  0  0  0
   33.4920   30.0360   50.0670 H   0  0  0  0  0  0  0  0  0  0  0  0
   34.7560   29.5110   51.3030 H   0  0  0  0  0  0  0  0  0  0  0  0
   35.3400   27.3770   49.8320 H   0  0  0  0  0  0  0  0  0  0  0  0
   36.9350   29.3990   49.6110 C   0  0  0  0  0  0  0  0  0  0  0  0
   36.9280   29.3640   50.7170 H   0  0  0  0  0  0  0  0  0  0  0  0
   37.3930   28.4190   49.2940 H   0  0  0  0  0  0  0  0  0  0  0  0
   38.4160   32.7420   49.3690 C   0  0  0  0  0  0  0  0  0  0  0  0
   38.9220   32.7680   48.0610 C   0  0  0  0  0  0  0  0  0  0  0  0
   38.7440   31.6190   47.2710 C   0  0  0  0  0  0  0  0  0  0  0  0
   38.0890   30.5430   47.8220 N   0  0  0  0  0  0  0  0  0  0  0  0
   37.6250   30.5750   49.0770 C   0  0  0  0  0  0  0  0  0  0  0  0
   37.7940   31.6780   49.8420 N   0  0  0  0  0  0  0  0  0  0  0  0
   38.6080   33.6740   49.8820 H   0  0  0  0  0  0  0  0  0  0  0  0
   39.4390   33.6070   47.6200 H   0  0  0  0  0  0  0  0  0  0  0  0
   39.1030   31.5540   46.2550 H   0  0  0  0  0  0  0  0  0  0  0  0
   33.6080   27.7540   48.6190 C   0  0  0  0  0  0  0  0  0  0  0  0
   34.0090   26.9330   47.6980 O   0  0  0  0  0  0  0  0  0  0  0  0
   32.2740   28.1260   48.6700 O   0  0  0  0  0  0  0  0  0  0  0  0
   29.8010   29.0900   43.7500 H   0  0  0  0  0  0  0  0  0  0  0  0
   30.3450   29.0730   44.6510 N   0  0  0  0  0  0  0  0  0  0  0  0
   31.1750   30.0720   45.0680 C   0  0  0  0  0  3  0  0  0  0  0  0
   31.7000   29.7160   46.2530 N   0  0  0  0  0  0  0  0  0  0  0  0
   31.2330   28.5040   46.6260 C   0  0  0  0  0  0  0  0  0  0  0  0
   31.4040   27.6530   47.6990 C   0  0  0  0  0  0  0  0  0  0  0  0
   30.7460   26.4680   47.7330 N   0  0  0  0  0  0  0  0  0  0  0  0
   29.9210   26.1120   46.7270 C   0  0  0  0  0  3  0  0  0  0  0  0
   29.7230   26.9200   45.6490 N   0  0  0  0  0  0  0  0  0  0  0  0
   30.3800   28.1070   45.6090 C   0  0  0  0  0  0  0  0  0  0  0  0
  1  4  1  6  0  0  0
  1  3  1  0  0  0  0
  1  8  1  0  0  0  0
  1  2  1  0  0  0  0
  2  6  1  0  0  0  0
  3  7  1  1  0  0  0
  3  2  1  0  0  0  0
  5  2  1  0  0  0  0
  8  9  1  0  0  0  0
 10  8  1  0  0  0  0
 11 16  1  0  0  0  0
 11 17  1  0  0  0  0
 12 11  2  0  0  0  0
 13 14  2  0  0  0  0
 13 12  1  0  0  0  0
 14 15  1  0  0  0  0
 15  8  1  0  0  0  0
 15 16  2  0  0  0  0
 18 12  1  0  0  0  0
 19 13  1  0  0  0  0
 20 22  1  0  0  0  0
 20  3  1  0  0  0  0
 21 20  2  0  0  0  0
 23 24  1  0  0  0  0
 24 25  1  0  0  0  0
 24 32  1  0  0  0  0
 25 26  2  0  0  0  0
 26 27  1  0  0  0  0
 27 28  1  0  0  0  0
 28 29  2  0  0  0  0
 28 22  1  0  0  0  0
 30 29  1  0  0  0  0
 31 30  2  0  0  0  0
 32 31  1  0  0  0  0
 32 27  2  0  0  0  0
M  END
>  <minimizedAffinity>
-5.16106892

>  <minimizedRMSD>
0.940742195

$$$$
