
 OpenBabel03252512383D

 38 41  0  0  1  0  0  0  0  0999 V2000
   39.3950   31.2400   46.6280 C   0  0  2  0  0  0  0  0  0  0  0  0
   40.0220   32.4330   46.1040 C   0  0  0  0  0  0  0  0  0  0  0  0
   40.9870   32.1870   44.9910 C   0  0  0  0  0  0  0  0  0  0  0  0
   40.4720   31.2680   43.9550 C   0  0  0  0  0  0  0  0  0  0  0  0
   39.7290   30.1190   44.4660 C   0  0  0  0  0  0  0  0  0  0  0  0
   38.6730   30.5110   45.5630 C   0  0  2  0  0  0  0  0  0  0  0  0
   40.1810   30.5350   46.9960 H   0  0  0  0  0  0  0  0  0  0  0  0
   39.4550   33.3250   45.8740 H   0  0  0  0  0  0  0  0  0  0  0  0
   40.6870   32.8000   46.9540 H   0  0  0  0  0  0  0  0  0  0  0  0
   41.9040   31.6900   45.4270 H   0  0  0  0  0  0  0  0  0  0  0  0
   41.3620   33.1240   44.5300 H   0  0  0  0  0  0  0  0  0  0  0  0
   41.2910   30.9200   43.3290 H   0  0  0  0  0  0  0  0  0  0  0  0
   39.7970   31.8590   43.2820 H   0  0  0  0  0  0  0  0  0  0  0  0
   39.1210   29.6410   43.6670 H   0  0  0  0  0  0  0  0  0  0  0  0
   40.3720   29.3160   44.9110 H   0  0  0  0  0  0  0  0  0  0  0  0
   38.2600   29.5140   45.8560 H   0  0  0  0  0  0  0  0  0  0  0  0
   38.3950   32.7280   48.4730 C   0  0  0  0  0  0  0  0  0  0  0  0
   38.5190   31.4780   47.7720 C   0  0  0  0  0  0  0  0  0  0  0  0
   37.7710   30.4260   48.1680 C   0  0  0  0  0  0  0  0  0  0  0  0
   36.9210   30.6110   49.2330 N   0  0  0  0  0  0  0  0  0  0  0  0
   36.8230   31.8190   49.8880 C   0  0  0  0  0  0  0  0  0  0  0  0
   37.5780   32.8880   49.4900 N   0  0  0  0  0  0  0  0  0  0  0  0
   39.0450   33.5130   48.0720 H   0  0  0  0  0  0  0  0  0  0  0  0
   37.7560   29.4480   47.7470 H   0  0  0  0  0  0  0  0  0  0  0  0
   36.1290   31.8760   50.7160 H   0  0  0  0  0  0  0  0  0  0  0  0
   37.6820   31.3230   44.8650 C   0  0  0  0  0  0  0  0  0  0  0  0
   37.4890   32.5800   45.0160 O   0  0  0  0  0  0  0  0  0  0  0  0
   36.9160   30.6300   43.9880 O   0  0  0  0  0  0  0  0  0  0  0  0
   35.7220   31.2330   43.5030 C   0  0  0  0  0  0  0  0  0  0  0  0
   34.4520   30.7290   43.8270 C   0  0  0  0  0  0  0  0  0  0  0  0
   33.5800   31.5680   43.1820 C   0  0  0  0  0  0  0  0  0  0  0  0
   34.2730   32.5250   42.5040 N   0  0  0  0  0  0  0  0  0  0  0  0
   35.5560   32.2940   42.7180 N   0  0  0  0  0  0  0  0  0  0  0  0
   34.1520   29.8810   44.4390 H   0  0  0  0  0  0  0  0  0  0  0  0
   32.4940   31.5800   43.1340 H   0  0  0  0  0  0  0  0  0  0  0  0
   33.7970   33.6330   41.6740 C   0  0  0  0  0  0  0  0  0  0  0  0
   33.5780   34.9380   42.4020 C   0  0  0  0  0  0  0  0  0  0  0  0
   34.6990   34.7820   41.4280 C   0  0  0  0  0  0  0  0  0  0  0  0
  1  7  1  1  0  0  0
  1 18  1  0  0  0  0
  2  1  1  0  0  0  0
  2  9  1  0  0  0  0
  3 10  1  0  0  0  0
  3  2  1  0  0  0  0
  4  5  1  0  0  0  0
  4  3  1  0  0  0  0
  5 15  1  0  0  0  0
  5  6  1  0  0  0  0
  6 16  1  1  0  0  0
  6  1  1  0  0  0  0
  8  2  1  0  0  0  0
 11  3  1  0  0  0  0
 12  4  1  0  0  0  0
 13  4  1  0  0  0  0
 14  5  1  0  0  0  0
 17 22  1  0  0  0  0
 18 19  1  0  0  0  0
 18 17  2  0  0  0  0
 19 20  2  0  0  0  0
 20 21  1  0  0  0  0
 21 25  1  0  0  0  0
 22 21  2  0  0  0  0
 23 17  1  0  0  0  0
 24 19  1  0  0  0  0
 26 27  2  0  0  0  0
 26  6  1  0  0  0  0
 28 26  1  0  0  0  0
 29 30  1  0  0  0  0
 29 28  1  0  0  0  0
 30 34  1  0  0  0  0
 31 30  2  0  0  0  0
 32 33  1  0  0  0  0
 32 31  1  0  0  0  0
 33 29  2  0  0  0  0
 35 31  1  0  0  0  0
 36 37  1  0  0  0  0
 36 32  1  0  0  0  0
 38 36  1  0  0  0  0
 38 37  1  0  0  0  0
M  END
>  <minimizedAffinity>
-5.26616669

>  <minimizedRMSD>
1.5998466

$$$$
