
 OpenBabel03252512083D

 42 45  0  0  0  0  0  0  0  0999 V2000
   37.0140   30.5560   50.1620 C   0  0  0  0  0  0  0  0  0  0  0  0
   37.0820   30.6410   51.2860 H   0  0  0  0  0  0  0  0  0  0  0  0
   37.9120   29.9640   49.8880 H   0  0  0  0  0  0  0  0  0  0  0  0
   35.7560   28.4840   49.7950 C   0  0  0  0  0  0  0  0  0  0  0  0
   35.8240   29.8860   49.8150 C   0  0  0  0  0  0  0  0  0  0  0  0
   34.6870   30.5660   49.4580 C   0  0  0  0  0  0  0  0  0  0  0  0
   33.5550   29.8990   49.1040 N   0  0  0  0  0  0  0  0  0  0  0  0
   33.5180   28.5630   49.0910 C   0  0  0  0  0  0  0  0  0  0  0  0
   34.5940   27.9000   49.4310 N   0  0  0  0  0  0  0  0  0  0  0  0
   36.6410   27.9460   50.0740 H   0  0  0  0  0  0  0  0  0  0  0  0
   34.5500   31.6330   49.4180 H   0  0  0  0  0  0  0  0  0  0  0  0
   32.3000   27.8420   48.7080 C   0  0  0  0  0  0  0  0  0  0  0  0
   32.1880   27.3080   47.5760 O   0  0  0  0  0  0  0  0  0  0  0  0
   31.2290   27.7230   49.5770 O   0  0  0  0  0  0  0  0  0  0  0  0
   25.6780   27.5880   50.3850 H   0  0  0  0  0  0  0  0  0  0  0  0
   26.7260   27.5390   50.3850 N   0  0  0  0  0  0  0  0  0  0  0  0
   27.4030   26.9960   51.4140 C   0  0  0  0  0  0  0  0  0  0  0  0
   28.7370   27.0510   51.1740 N   0  0  0  0  0  0  0  0  0  0  0  0
   28.9040   27.6430   49.9630 C   0  0  0  0  0  0  0  0  0  0  0  0
   29.9410   28.0000   49.1400 C   0  0  0  0  0  0  0  0  0  0  0  0
   29.7020   28.5880   47.9760 N   0  0  0  0  0  0  0  0  0  0  0  0
   28.4830   28.8810   47.5020 C   0  0  0  0  0  0  0  0  0  0  0  0
   27.4700   28.5400   48.2900 N   0  0  0  0  0  0  0  0  0  0  0  0
   27.6310   27.9480   49.4710 C   0  0  0  0  0  0  0  0  0  0  0  0
   37.1360   31.8790   49.5110 C   0  0  0  0  0  0  0  0  0  0  0  0
   36.2360   32.4780   49.3950 H   0  0  0  0  0  0  0  0  0  0  0  0
   37.8250   32.4920   50.1760 H   0  0  0  0  0  0  0  0  0  0  0  0
   37.9030   31.7020   48.2570 C   0  0  0  0  0  0  0  0  0  0  0  0
   37.8490   30.5260   47.5920 C   0  0  0  0  0  0  0  0  0  0  0  0
   38.6110   30.3520   46.4340 C   0  0  0  0  0  0  0  0  0  0  0  0
   39.3830   31.3900   46.0190 N   0  0  0  0  0  0  0  0  0  0  0  0
   39.4180   32.5330   46.6860 C   0  0  0  0  0  0  0  0  0  0  0  0
   38.6950   32.7260   47.8060 N   0  0  0  0  0  0  0  0  0  0  0  0
   37.3580   29.5940   47.6820 H   0  0  0  0  0  0  0  0  0  0  0  0
   38.7180   29.5070   45.7580 H   0  0  0  0  0  0  0  0  0  0  0  0
   40.2500   33.6600   46.2030 C   0  0  0  0  0  0  0  0  0  0  0  0
   39.8060   34.6310   46.5630 H   0  0  0  0  0  0  0  0  0  0  0  0
   41.2870   33.6390   46.5490 H   0  0  0  0  0  0  0  0  0  0  0  0
   40.1490   33.7580   44.6640 C   0  0  0  0  0  0  0  0  0  0  0  0
   39.9260   32.7150   44.3370 H   0  0  0  0  0  0  0  0  0  0  0  0
   41.1170   34.0320   44.2300 H   0  0  0  0  0  0  0  0  0  0  0  0
   39.3000   34.3860   44.3510 H   0  0  0  0  0  0  0  0  0  0  0  0
  1  2  1  0  0  0  0
  3  1  1  0  0  0  0
  4  5  1  0  0  0  0
  4 10  1  0  0  0  0
  5  1  1  0  0  0  0
  6  5  2  0  0  0  0
  7  6  1  0  0  0  0
  8  7  2  0  0  0  0
  8  9  1  0  0  0  0
  9  4  2  0  0  0  0
 11  6  1  0  0  0  0
 12  8  1  0  0  0  0
 12 14  1  0  0  0  0
 13 12  2  0  0  0  0
 16 15  1  0  0  0  0
 16 17  1  0  0  0  0
 18 17  2  0  0  0  0
 19 18  1  0  0  0  0
 20 14  1  0  0  0  0
 20 19  2  0  0  0  0
 21 20  1  0  0  0  0
 22 21  2  0  0  0  0
 22 23  1  0  0  0  0
 23 24  2  0  0  0  0
 24 19  1  0  0  0  0
 24 16  1  0  0  0  0
 25  1  1  0  0  0  0
 25 27  1  0  0  0  0
 26 25  1  0  0  0  0
 28 25  1  0  0  0  0
 29 34  1  0  0  0  0
 29 28  2  0  0  0  0
 30 29  1  0  0  0  0
 31 30  2  0  0  0  0
 31 32  1  0  0  0  0
 32 33  2  0  0  0  0
 33 28  1  0  0  0  0
 35 30  1  0  0  0  0
 36 38  1  0  0  0  0
 36 37  1  0  0  0  0
 36 32  1  0  0  0  0
 39 36  1  0  0  0  0
 40 39  1  0  0  0  0
 41 39  1  0  0  0  0
 42 39  1  0  0  0  0
M  END
>  <minimizedAffinity>
-6.3720026

>  <minimizedRMSD>
1.73201215

$$$$
