
 OpenBabel03252511143D

 41 45  0  0  1  0  0  0  0  0999 V2000
   39.1120   31.9460   46.5470 C   0  0  0  0  0  0  0  0  0  0  0  0
   39.9020   33.0410   46.1620 C   0  0  0  0  0  0  0  0  0  0  0  0
   40.6200   32.9780   44.9170 C   0  0  0  0  0  0  0  0  0  0  0  0
   40.4720   31.8410   44.1970 N   0  0  0  0  0  0  0  0  0  0  0  0
   39.6910   30.8080   44.6110 C   0  0  0  0  0  0  0  0  0  0  0  0
   39.0300   30.8600   45.7520 N   0  0  0  0  0  0  0  0  0  0  0  0
   40.0610   33.9580   46.6740 H   0  0  0  0  0  0  0  0  0  0  0  0
   41.2360   33.7840   44.5780 H   0  0  0  0  0  0  0  0  0  0  0  0
   39.5740   29.6370   43.8070 N   0  0  0  0  0  0  0  0  0  0  0  0
   38.7720   28.5810   44.0370 C   0  0  0  0  0  0  0  0  0  0  0  0
   38.8820   27.6420   43.1110 N   0  0  0  0  0  0  0  0  0  0  0  0
   39.7870   28.0660   42.2180 C   0  0  0  0  0  0  0  0  0  0  0  0
   40.2860   27.4970   41.0650 C   0  0  0  0  0  0  0  0  0  0  0  0
   39.8570   26.3680   40.7210 O   0  0  0  0  0  0  0  0  0  0  0  0
   41.2120   28.2020   40.3750 N   0  0  0  0  0  0  0  0  0  0  0  0
   41.6290   29.4260   40.8110 C   0  0  0  0  0  0  0  0  0  0  0  0
   42.6070   30.0060   39.9480 N   0  0  0  0  0  0  0  0  0  0  0  0
   41.1300   29.9680   41.9430 N   0  0  0  0  0  0  0  0  0  0  0  0
   40.2100   29.3130   42.6670 C   0  0  0  0  0  0  0  0  0  0  0  0
   41.5590   27.7300   39.5090 H   0  0  0  0  0  0  0  0  0  0  0  0
   42.1000   30.3020   39.0630 H   0  0  0  0  0  0  0  0  0  0  0  0
   43.6360   30.1680   40.0430 H   0  0  0  0  0  0  0  0  0  0  0  0
   38.6030   32.1270   47.8760 C   0  0  2  0  0  0  0  0  0  0  0  0
   39.6770   32.1950   48.3710 H   0  0  0  0  0  0  0  0  0  0  0  0
   37.9280   31.2410   48.8220 C   0  0  0  0  0  0  0  0  0  0  0  0
   38.4300   31.1090   50.0500 N   0  0  0  0  0  0  0  0  0  0  0  0
   37.8760   30.3020   50.9880 C   0  0  0  0  0  0  0  0  0  0  0  0
   36.7810   29.5760   50.7560 N   0  0  0  0  0  0  0  0  0  0  0  0
   36.1900   29.6410   49.5380 C   0  0  0  0  0  0  0  0  0  0  0  0
   35.0740   28.9000   49.2560 C   0  0  0  0  0  0  0  0  0  0  0  0
   34.4780   28.9500   48.0200 C   0  0  0  0  0  0  0  0  0  0  0  0
   35.0590   29.7760   47.0970 C   0  0  0  0  0  0  0  0  0  0  0  0
   36.1790   30.5040   47.4150 C   0  0  0  0  0  0  0  0  0  0  0  0
   36.7950   30.4770   48.6280 C   0  0  0  0  0  0  0  0  0  0  0  0
   38.3440   30.2360   51.9900 H   0  0  0  0  0  0  0  0  0  0  0  0
   34.6330   28.2550   50.0040 H   0  0  0  0  0  0  0  0  0  0  0  0
   33.5980   28.3810   47.7570 H   0  0  0  0  0  0  0  0  0  0  0  0
   34.6410   29.8740   46.0840 H   0  0  0  0  0  0  0  0  0  0  0  0
   36.6260   31.1640   46.6450 H   0  0  0  0  0  0  0  0  0  0  0  0
   38.2590   33.3360   48.3180 O   0  0  0  0  0  0  0  0  0  0  0  0
   37.5920   33.8500   47.7930 H   0  0  0  0  0  0  0  0  0  0  0  0
  1 23  1  0  0  0  0
  2  1  1  0  0  0  0
  2  7  1  0  0  0  0
  3  2  2  0  0  0  0
  4  5  2  0  0  0  0
  4  3  1  0  0  0  0
  5  6  1  0  0  0  0
  6  1  2  0  0  0  0
  8  3  1  0  0  0  0
  9 10  1  0  0  0  0
  9  5  1  0  0  0  0
 11 10  2  0  0  0  0
 12 19  2  0  0  0  0
 12 11  1  0  0  0  0
 13 12  1  0  0  0  0
 14 13  2  0  0  0  0
 15 16  1  0  0  0  0
 15 13  1  0  0  0  0
 16 18  2  0  0  0  0
 17 22  1  0  0  0  0
 17 16  1  0  0  0  0
 18 19  1  0  0  0  0
 19  9  1  0  0  0  0
 20 15  1  0  0  0  0
 21 17  1  0  0  0  0
 23 40  1  0  0  0  0
 23 24  1  1  0  0  0
 23 25  1  0  0  0  0
 25 26  1  0  0  0  0
 26 27  2  0  0  0  0
 27 35  1  0  0  0  0
 28 27  1  0  0  0  0
 29 28  2  0  0  0  0
 30 29  1  0  0  0  0
 30 36  1  0  0  0  0
 31 30  2  0  0  0  0
 32 33  2  0  0  0  0
 32 31  1  0  0  0  0
 33 34  1  0  0  0  0
 34 25  2  0  0  0  0
 34 29  1  0  0  0  0
 37 31  1  0  0  0  0
 38 32  1  0  0  0  0
 39 33  1  0  0  0  0
 41 40  1  0  0  0  0
M  END
>  <minimizedAffinity>
-8.47643948

>  <minimizedRMSD>
0.77849555

$$$$
