
 OpenBabel03252514013D

 32 35  0  0  1  0  0  0  0  0999 V2000
   35.3430   29.4390   49.0690 C   0  0  2  0  0  0  0  0  0  0  0  0
   34.2480   29.4000   50.0470 C   0  0  0  0  0  0  0  0  0  0  0  0
   34.5610   28.1470   49.3690 C   0  0  1  0  0  0  0  0  0  0  0  0
   35.1830   29.9010   48.0900 H   0  0  0  0  0  0  0  0  0  0  0  0
   33.2940   29.9460   49.8420 H   0  0  0  0  0  0  0  0  0  0  0  0
   34.4790   29.4080   51.1490 H   0  0  0  0  0  0  0  0  0  0  0  0
   35.1980   27.3220   49.6690 H   0  0  0  0  0  0  0  0  0  0  0  0
   36.7700   29.3720   49.6090 C   0  0  0  0  0  0  0  0  0  0  0  0
   36.6890   29.3370   50.7120 H   0  0  0  0  0  0  0  0  0  0  0  0
   37.2560   28.3960   49.3250 H   0  0  0  0  0  0  0  0  0  0  0  0
   38.2410   32.7260   49.4660 C   0  0  0  0  0  0  0  0  0  0  0  0
   38.8350   32.7550   48.1970 C   0  0  0  0  0  0  0  0  0  0  0  0
   38.7190   31.6050   47.3970 C   0  0  0  0  0  0  0  0  0  0  0  0
   38.0350   30.5250   47.9020 N   0  0  0  0  0  0  0  0  0  0  0  0
   37.4870   30.5530   49.1230 C   0  0  0  0  0  0  0  0  0  0  0  0
   37.5950   31.6570   49.8970 N   0  0  0  0  0  0  0  0  0  0  0  0
   38.3910   33.6590   49.9910 H   0  0  0  0  0  0  0  0  0  0  0  0
   39.3740   33.5980   47.7910 H   0  0  0  0  0  0  0  0  0  0  0  0
   39.1460   31.5420   46.4080 H   0  0  0  0  0  0  0  0  0  0  0  0
   33.5480   27.7050   48.3490 C   0  0  0  0  0  0  0  0  0  0  0  0
   33.7600   26.5170   47.8720 O   0  0  0  0  0  0  0  0  0  0  0  0
   32.4530   28.4320   47.9080 O   0  0  0  0  0  0  0  0  0  0  0  0
   27.4880   26.4870   49.5850 H   0  0  0  0  0  0  0  0  0  0  0  0
   28.4390   26.9130   49.4420 N   0  0  0  0  0  0  0  0  0  0  0  0
   29.1520   27.5490   50.4160 C   0  0  0  0  0  3  0  0  0  0  0  0
   30.3160   27.9640   49.8850 N   0  0  0  0  0  0  0  0  0  0  0  0
   30.3840   27.6150   48.5820 C   0  0  0  0  0  0  0  0  0  0  0  0
   31.2940   27.7590   47.5540 C   0  0  0  0  0  0  0  0  0  0  0  0
   31.0110   27.2590   46.3270 N   0  0  0  0  0  0  0  0  0  0  0  0
   29.8460   26.6190   46.0970 C   0  0  0  0  0  3  0  0  0  0  0  0
   28.9200   26.4540   47.0810 N   0  0  0  0  0  0  0  0  0  0  0  0
   29.1970   26.9530   48.3120 C   0  0  0  0  0  0  0  0  0  0  0  0
  1  4  1  6  0  0  0
  1  3  1  0  0  0  0
  1  8  1  0  0  0  0
  1  2  1  0  0  0  0
  2  6  1  0  0  0  0
  3  7  1  1  0  0  0
  3  2  1  0  0  0  0
  5  2  1  0  0  0  0
  8  9  1  0  0  0  0
 10  8  1  0  0  0  0
 11 16  1  0  0  0  0
 11 17  1  0  0  0  0
 12 11  2  0  0  0  0
 13 14  2  0  0  0  0
 13 12  1  0  0  0  0
 14 15  1  0  0  0  0
 15  8  1  0  0  0  0
 15 16  2  0  0  0  0
 18 12  1  0  0  0  0
 19 13  1  0  0  0  0
 20  3  1  0  0  0  0
 21 20  2  0  0  0  0
 22 20  1  0  0  0  0
 24 23  1  0  0  0  0
 24 25  1  0  0  0  0
 26 25  2  0  0  0  0
 27 26  1  0  0  0  0
 28 22  1  0  0  0  0
 28 27  2  0  0  0  0
 29 28  1  0  0  0  0
 30 29  2  0  0  0  0
 30 31  1  0  0  0  0
 31 32  2  0  0  0  0
 32 27  1  0  0  0  0
 32 24  1  0  0  0  0
M  END
>  <minimizedAffinity>
-5.79434729

>  <minimizedRMSD>
0.837821484

$$$$
