
 OpenBabel03252509493D

 22 24  0  0  0  0  0  0  0  0999 V2000
   36.0540   30.1510   48.7310 C   0  0  0  0  0  0  0  0  0  0  0  0
   35.9730   29.3240   49.8610 C   0  0  0  0  0  0  0  0  0  0  0  0
   34.9610   28.4060   49.6590 C   0  0  0  0  0  0  0  0  0  0  0  0
   34.4550   28.6850   48.4390 N   0  0  0  0  0  0  0  0  0  0  0  0
   35.0930   29.6960   47.9090 N   0  0  0  0  0  0  0  0  0  0  0  0
   36.5840   29.3580   50.7690 H   0  0  0  0  0  0  0  0  0  0  0  0
   34.6740   27.6560   50.3480 H   0  0  0  0  0  0  0  0  0  0  0  0
   38.0870   33.1740   49.3930 C   0  0  0  0  0  0  0  0  0  0  0  0
   39.0140   33.0980   48.3570 C   0  0  0  0  0  0  0  0  0  0  0  0
   38.9210   32.0250   47.4660 C   0  0  0  0  0  0  0  0  0  0  0  0
   37.9200   31.1120   47.6700 N   0  0  0  0  0  0  0  0  0  0  0  0
   37.0490   31.2180   48.6760 C   0  0  0  0  0  0  0  0  0  0  0  0
   37.1230   32.2420   49.5400 N   0  0  0  0  0  0  0  0  0  0  0  0
   38.1930   34.0160   50.0580 H   0  0  0  0  0  0  0  0  0  0  0  0
   39.8040   33.8280   48.2050 H   0  0  0  0  0  0  0  0  0  0  0  0
   39.6040   31.8920   46.6310 H   0  0  0  0  0  0  0  0  0  0  0  0
   33.3670   27.9250   47.8790 C   0  0  0  0  0  0  0  0  0  0  0  0
   32.1760   27.8670   48.8050 C   0  0  0  0  0  0  0  0  0  0  0  0
   31.1340   26.9510   48.2400 C   0  0  0  0  0  0  0  0  0  0  0  0
   31.6790   25.6110   47.8270 C   0  0  0  0  0  0  0  0  0  0  0  0
   32.7500   25.8540   46.7690 C   0  0  0  0  0  0  0  0  0  0  0  0
   33.8710   26.5770   47.4780 C   0  0  0  0  0  0  0  0  0  0  0  0
  1  2  1  0  0  0  0
  2  6  1  0  0  0  0
  3  2  2  0  0  0  0
  3  7  1  0  0  0  0
  4  3  1  0  0  0  0
  5  4  1  0  0  0  0
  5  1  2  0  0  0  0
  8 13  1  0  0  0  0
  8 14  1  0  0  0  0
  9  8  2  0  0  0  0
 10 11  2  0  0  0  0
 10  9  1  0  0  0  0
 11 12  1  0  0  0  0
 12  1  1  0  0  0  0
 12 13  2  0  0  0  0
 15  9  1  0  0  0  0
 16 10  1  0  0  0  0
 17  4  1  0  0  0  0
 17 18  1  0  0  0  0
 19 18  1  0  0  0  0
 20 19  1  0  0  0  0
 21 22  1  0  0  0  0
 21 20  1  0  0  0  0
 22 17  1  0  0  0  0
M  END
>  <minimizedAffinity>
-5.22680855

>  <minimizedRMSD>
1.1844728

$$$$
