
 OpenBabel03252514033D

 36 39  0  0  1  0  0  0  0  0999 V2000
   36.1170   29.9270   49.4670 C   0  0  2  0  0  0  0  0  0  0  0  0
   35.3900   29.5480   50.6740 C   0  0  0  0  0  0  0  0  0  0  0  0
   35.5030   28.5070   49.6980 C   0  0  1  0  0  0  0  0  0  0  0  0
   35.7040   30.4560   48.5990 H   0  0  0  0  0  0  0  0  0  0  0  0
   34.3990   30.0530   50.8610 H   0  0  0  0  0  0  0  0  0  0  0  0
   35.9790   29.5330   51.6290 H   0  0  0  0  0  0  0  0  0  0  0  0
   36.2510   27.7160   49.6790 H   0  0  0  0  0  0  0  0  0  0  0  0
   37.6530   29.8610   49.5510 C   0  0  0  0  0  0  0  0  0  0  0  0
   37.9420   29.6830   50.5950 H   0  0  0  0  0  0  0  0  0  0  0  0
   37.9900   29.0340   48.8650 H   0  0  0  0  0  0  0  0  0  0  0  0
   38.8110   33.3230   49.4500 C   0  0  0  0  0  0  0  0  0  0  0  0
   39.1710   33.4920   48.1070 C   0  0  0  0  0  0  0  0  0  0  0  0
   39.0070   32.3870   47.2400 C   0  0  0  0  0  0  0  0  0  0  0  0
   38.5070   31.2230   47.7620 N   0  0  0  0  0  0  0  0  0  0  0  0
   38.1800   31.1190   49.0510 C   0  0  0  0  0  0  0  0  0  0  0  0
   38.3340   32.1740   49.8920 N   0  0  0  0  0  0  0  0  0  0  0  0
   38.9560   34.2000   50.0720 H   0  0  0  0  0  0  0  0  0  0  0  0
   39.5630   34.3870   47.6730 H   0  0  0  0  0  0  0  0  0  0  0  0
   39.2740   32.4830   46.2050 H   0  0  0  0  0  0  0  0  0  0  0  0
   34.2390   28.2000   48.9180 C   0  0  0  0  0  0  0  0  0  0  0  0
   33.1630   28.5400   49.5480 O   0  0  0  0  0  0  0  0  0  0  0  0
   34.1700   27.6220   47.6510 O   0  0  0  0  0  0  0  0  0  0  0  0
   33.3550   26.5610   47.3540 C   0  0  0  0  0  0  0  0  0  0  0  0
   31.9210   26.6590   46.9820 C   0  0  0  0  0  0  0  0  0  0  0  0
   31.2680   25.5080   46.7190 C   0  0  0  0  0  0  0  0  0  0  0  0
   31.9030   24.2530   46.7890 C   0  0  0  0  0  0  0  0  0  0  0  0
   33.6420   24.6890   47.2850 S   0  0  0  0  0  0  0  0  0  0  0  0
   31.5010   27.6440   46.9470 H   0  0  0  0  0  0  0  0  0  0  0  0
   30.2280   25.4930   46.4430 H   0  0  0  0  0  0  0  0  0  0  0  0
   31.5040   23.0080   46.5850 N   0  0  0  0  0  0  0  0  0  0  0  0
   31.8340   21.8920   47.2520 N   0  0  0  0  0  0  0  0  0  0  0  0
   31.2270   20.8220   46.7500 C   0  0  0  0  0  0  0  0  0  0  0  0
   31.3390   19.8110   47.1230 H   0  0  0  0  0  0  0  0  0  0  0  0
   30.4450   21.2310   45.6910 C   0  0  0  0  0  3  0  0  0  0  0  0
   30.6410   22.5940   45.6150 C   0  0  0  0  0  0  0  0  0  0  0  0
   30.1410   23.2090   44.8560 H   0  0  0  0  0  0  0  0  0  0  0  0
  1  4  1  6  0  0  0
  1  8  1  0  0  0  0
  1  3  1  0  0  0  0
  1  2  1  0  0  0  0
  2  5  1  0  0  0  0
  2  6  1  0  0  0  0
  3  7  1  1  0  0  0
  3  2  1  0  0  0  0
  8  9  1  0  0  0  0
 10  8  1  0  0  0  0
 11 16  1  0  0  0  0
 11 17  1  0  0  0  0
 12 11  2  0  0  0  0
 13 14  2  0  0  0  0
 13 12  1  0  0  0  0
 14 15  1  0  0  0  0
 15  8  1  0  0  0  0
 15 16  2  0  0  0  0
 18 12  1  0  0  0  0
 19 13  1  0  0  0  0
 20 21  2  0  0  0  0
 20  3  1  0  0  0  0
 22 20  1  0  0  0  0
 23 22  1  0  0  0  0
 24 23  2  0  0  0  0
 25 26  2  0  0  0  0
 25 24  1  0  0  0  0
 26 27  1  0  0  0  0
 27 23  1  0  0  0  0
 28 24  1  0  0  0  0
 29 25  1  0  0  0  0
 30 26  1  0  0  0  0
 30 31  1  0  0  0  0
 32 33  1  0  0  0  0
 32 31  2  0  0  0  0
 34 32  1  0  0  0  0
 35 34  2  0  0  0  0
 35 30  1  0  0  0  0
 36 35  1  0  0  0  0
M  END
>  <minimizedAffinity>
-4.79306078

>  <minimizedRMSD>
3.88314986

$$$$
