
 OpenBabel03252512293D

 33 35  0  0  1  0  0  0  0  0999 V2000
   31.7680   28.1290   46.5090 C   0  0  2  0  0  0  0  0  0  0  0  0
   32.1650   27.6000   45.6160 H   0  0  0  0  0  0  0  0  0  0  0  0
   35.0670   29.3700   48.5790 C   0  0  0  0  0  0  0  0  0  0  0  0
   34.5490   28.1490   49.0220 C   0  0  0  0  0  0  0  0  0  0  0  0
   33.4580   27.6790   48.3880 C   0  0  0  0  0  0  0  0  0  0  0  0
   32.9420   28.3810   47.3960 C   0  0  0  0  0  0  0  0  0  0  0  0
   33.9720   29.8610   47.2230 S   0  0  0  0  0  0  0  0  0  0  0  0
   35.0780   27.6660   49.8620 H   0  0  0  0  0  0  0  0  0  0  0  0
   32.9930   26.7430   48.6690 H   0  0  0  0  0  0  0  0  0  0  0  0
   37.6830   30.5520   50.8690 C   0  0  0  0  0  0  0  0  0  0  0  0
   38.4370   31.4240   50.0690 C   0  0  0  0  0  0  0  0  0  0  0  0
   38.0350   31.5940   48.7620 C   0  0  0  0  0  0  0  0  0  0  0  0
   36.9450   30.9120   48.3300 N   0  0  0  0  0  0  0  0  0  0  0  0
   36.2660   30.1030   49.1080 C   0  0  0  0  0  0  0  0  0  0  0  0
   36.5800   29.8620   50.4300 N   0  0  0  0  0  0  0  0  0  0  0  0
   37.9510   30.3750   51.9130 H   0  0  0  0  0  0  0  0  0  0  0  0
   39.2810   31.9160   50.5010 H   0  0  0  0  0  0  0  0  0  0  0  0
   38.5830   32.2550   48.1050 H   0  0  0  0  0  0  0  0  0  0  0  0
   31.1530   29.4030   46.1330 C   0  0  0  0  0  0  0  0  0  0  0  0
   31.7270   29.8520   45.2720 H   0  0  0  0  0  0  0  0  0  0  0  0
   30.0640   29.3630   45.8930 H   0  0  0  0  0  0  0  0  0  0  0  0
   31.2350   30.1390   46.9660 H   0  0  0  0  0  0  0  0  0  0  0  0
   30.8570   27.1500   47.2120 C   0  0  0  0  0  0  0  0  0  0  0  0
   31.4560   26.3390   47.6760 H   0  0  0  0  0  0  0  0  0  0  0  0
   30.3890   27.7030   48.0730 H   0  0  0  0  0  0  0  0  0  0  0  0
   29.8850   26.6520   46.4280 O   0  0  0  0  0  0  0  0  0  0  0  0
   29.5030   25.3880   46.0960 C   0  0  0  0  0  0  0  0  0  0  0  0
   30.6390   24.5710   46.0110 C   0  0  0  0  0  0  0  0  0  0  0  0
   30.2280   23.2770   45.6690 C   0  0  0  0  0  0  0  0  0  0  0  0
   30.7040   22.3230   45.4910 H   0  0  0  0  0  0  0  0  0  0  0  0
   28.8870   23.3410   45.5590 N   0  0  0  0  0  0  0  0  0  0  0  0
   28.4890   24.5540   45.8070 N   0  0  0  0  0  0  0  0  0  0  0  0
   28.1210   22.6520   45.3270 H   0  0  0  0  0  0  0  0  0  0  0  0
  1  2  1  6  0  0  0
  1 23  1  0  0  0  0
  1  6  1  0  0  0  0
  3  4  2  0  0  0  0
  3 14  1  0  0  0  0
  4  8  1  0  0  0  0
  5  9  1  0  0  0  0
  5  4  1  0  0  0  0
  6  5  2  0  0  0  0
  7  6  1  0  0  0  0
  7  3  1  0  0  0  0
 10 16  1  0  0  0  0
 11 17  1  0  0  0  0
 11 10  2  0  0  0  0
 12 11  1  0  0  0  0
 13 12  2  0  0  0  0
 13 14  1  0  0  0  0
 14 15  2  0  0  0  0
 15 10  1  0  0  0  0
 18 12  1  0  0  0  0
 19  1  1  0  0  0  0
 19 22  1  0  0  0  0
 20 19  1  0  0  0  0
 21 19  1  0  0  0  0
 23 24  1  0  0  0  0
 23 25  1  0  0  0  0
 26 23  1  0  0  0  0
 27 26  1  0  0  0  0
 28 27  1  0  0  0  0
 29 28  2  0  0  0  0
 30 29  1  0  0  0  0
 31 29  1  0  0  0  0
 31 32  1  0  0  0  0
 32 27  2  0  0  0  0
 33 31  1  0  0  0  0
M  END
>  <minimizedAffinity>
-4.37469578

>  <minimizedRMSD>
1.42213809

$$$$
