
 OpenBabel03252514013D

 29 31  0  0  1  0  0  0  0  0999 V2000
   35.6250   29.6210   49.3620 C   0  0  2  0  0  0  0  0  0  0  0  0
   34.6670   29.5180   50.4710 C   0  0  0  0  0  0  0  0  0  0  0  0
   34.9190   28.2980   49.7080 C   0  0  1  0  0  0  0  0  0  0  0  0
   35.3490   30.1640   48.4550 H   0  0  0  0  0  0  0  0  0  0  0  0
   33.6760   30.0250   50.4140 H   0  0  0  0  0  0  0  0  0  0  0  0
   35.1070   29.5570   51.4940 H   0  0  0  0  0  0  0  0  0  0  0  0
   35.6250   27.4790   49.8480 H   0  0  0  0  0  0  0  0  0  0  0  0
   37.1120   29.5700   49.7080 C   0  0  0  0  0  0  0  0  0  0  0  0
   37.2090   29.6960   50.8030 H   0  0  0  0  0  0  0  0  0  0  0  0
   37.5190   28.5960   49.4110 H   0  0  0  0  0  0  0  0  0  0  0  0
   38.5820   32.8760   49.1240 C   0  0  0  0  0  0  0  0  0  0  0  0
   38.9860   32.8060   47.7810 C   0  0  0  0  0  0  0  0  0  0  0  0
   38.7460   31.6080   47.0850 C   0  0  0  0  0  0  0  0  0  0  0  0
   38.1310   30.5770   47.7550 N   0  0  0  0  0  0  0  0  0  0  0  0
   37.7660   30.6960   49.0380 C   0  0  0  0  0  0  0  0  0  0  0  0
   37.9940   31.8480   49.7120 N   0  0  0  0  0  0  0  0  0  0  0  0
   38.8180   33.8350   49.5460 H   0  0  0  0  0  0  0  0  0  0  0  0
   39.4630   33.5590   47.2060 H   0  0  0  0  0  0  0  0  0  0  0  0
   39.0240   31.4700   46.0510 H   0  0  0  0  0  0  0  0  0  0  0  0
   33.7850   27.8760   48.8120 C   0  0  0  0  0  0  0  0  0  0  0  0
   34.1630   27.2900   47.7180 O   0  0  0  0  0  0  0  0  0  0  0  0
   32.4310   28.0460   49.0530 O   0  0  0  0  0  0  0  0  0  0  0  0
   31.5120   27.7480   48.0700 C   0  0  0  0  0  0  0  0  0  0  0  0
   30.9800   28.2990   46.9240 C   0  0  0  0  0  3  0  0  0  0  0  0
   30.0710   27.3740   46.4560 C   0  0  0  0  0  0  0  0  0  0  0  0
   29.5180   27.5880   45.5490 H   0  0  0  0  0  0  0  0  0  0  0  0
   30.0470   26.3090   47.2750 N   0  0  0  0  0  0  0  0  0  0  0  0
   30.9200   26.5320   48.2560 N   0  0  0  0  0  0  0  0  0  0  0  0
   29.4320   25.4620   47.1360 H   0  0  0  0  0  0  0  0  0  0  0  0
  1  4  1  6  0  0  0
  1  8  1  0  0  0  0
  1  3  1  0  0  0  0
  1  2  1  0  0  0  0
  2  6  1  0  0  0  0
  3  7  1  1  0  0  0
  3  2  1  0  0  0  0
  5  2  1  0  0  0  0
  8  9  1  0  0  0  0
 10  8  1  0  0  0  0
 11 17  1  0  0  0  0
 11 16  1  0  0  0  0
 12 11  2  0  0  0  0
 13 14  2  0  0  0  0
 13 12  1  0  0  0  0
 14 15  1  0  0  0  0
 15  8  1  0  0  0  0
 15 16  2  0  0  0  0
 18 12  1  0  0  0  0
 19 13  1  0  0  0  0
 20 22  1  0  0  0  0
 20  3  1  0  0  0  0
 21 20  2  0  0  0  0
 23 28  2  0  0  0  0
 23 22  1  0  0  0  0
 24 23  1  0  0  0  0
 25 24  2  0  0  0  0
 25 27  1  0  0  0  0
 26 25  1  0  0  0  0
 27 28  1  0  0  0  0
 29 27  1  0  0  0  0
M  END
>  <minimizedAffinity>
-4.86483812

>  <minimizedRMSD>
0.716673315

$$$$
