
 OpenBabel03252514083D

 40 43  0  0  0  0  0  0  0  0999 V2000
   34.4040   30.1670   47.5890 C   0  0  0  0  0  0  0  0  0  0  0  0
   35.4170   29.9430   48.5530 C   0  0  0  0  0  0  0  0  0  0  0  0
   35.4140   28.7260   49.2070 C   0  0  0  0  0  0  0  0  0  0  0  0
   34.4520   27.8210   48.8940 N   0  0  0  0  0  0  0  0  0  0  0  0
   33.5010   28.0350   47.9870 C   0  0  0  0  0  0  0  0  0  0  0  0
   33.4930   29.2060   47.3480 N   0  0  0  0  0  0  0  0  0  0  0  0
   34.3800   31.1130   47.0590 H   0  0  0  0  0  0  0  0  0  0  0  0
   36.1890   28.5570   49.9450 H   0  0  0  0  0  0  0  0  0  0  0  0
   36.3520   30.9910   48.7690 N   0  0  0  0  0  0  0  0  0  0  0  0
   36.3780   31.7660   49.8930 C   0  0  0  0  0  0  0  0  0  0  0  0
   37.3820   32.6620   49.7800 N   0  0  0  0  0  0  0  0  0  0  0  0
   37.9640   32.4410   48.6010 C   0  0  0  0  0  0  0  0  0  0  0  0
   39.0230   33.0220   47.9330 C   0  0  0  0  0  0  0  0  0  0  0  0
   39.4110   32.5960   46.7290 N   0  0  0  0  0  0  0  0  0  0  0  0
   38.7900   31.5750   46.0990 C   0  0  0  0  0  0  0  0  0  0  0  0
   37.7550   31.0070   46.7530 N   0  0  0  0  0  0  0  0  0  0  0  0
   37.3340   31.3990   47.9530 C   0  0  0  0  0  0  0  0  0  0  0  0
   35.7310   31.7290   50.7770 H   0  0  0  0  0  0  0  0  0  0  0  0
   39.1430   31.2640   45.1210 H   0  0  0  0  0  0  0  0  0  0  0  0
   39.7170   34.1000   48.5530 N   0  0  0  0  0  0  0  0  0  0  0  0
   40.6470   34.4300   48.2100 H   0  0  0  0  0  0  0  0  0  0  0  0
   39.3430   34.6110   49.3710 H   0  0  0  0  0  0  0  0  0  0  0  0
   32.4620   27.0370   47.6580 C   0  0  0  0  0  0  0  0  0  0  0  0
   31.3580   27.0770   48.6960 C   0  0  0  0  0  0  0  0  0  0  0  0
   30.6030   27.8390   48.4340 H   0  0  0  0  0  0  0  0  0  0  0  0
   30.8550   26.0910   48.6480 H   0  0  0  0  0  0  0  0  0  0  0  0
   31.8140   27.2230   49.6940 H   0  0  0  0  0  0  0  0  0  0  0  0
   31.7690   27.4020   46.3370 C   0  0  0  0  0  0  0  0  0  0  0  0
   32.5000   27.6770   45.5790 H   0  0  0  0  0  0  0  0  0  0  0  0
   31.2030   28.3500   46.5690 H   0  0  0  0  0  0  0  0  0  0  0  0
   31.0680   26.6050   46.0790 H   0  0  0  0  0  0  0  0  0  0  0  0
   33.0130   25.6560   47.4840 C   0  0  0  0  0  0  0  0  0  0  0  0
   32.2850   24.9190   47.8130 H   0  0  0  0  0  0  0  0  0  0  0  0
   33.9430   25.5610   48.0920 H   0  0  0  0  0  0  0  0  0  0  0  0
   33.3580   25.5150   46.0210 C   0  0  0  0  0  0  0  0  0  0  0  0
   32.6230   24.6130   45.2490 C   0  0  0  0  0  3  0  0  0  0  0  0
   33.3240   24.7420   43.6280 S   0  0  0  0  0  0  0  0  0  0  0  0
   34.5790   26.0620   44.2380 C   0  0  0  0  0  0  0  0  0  0  0  0
   35.4800   26.7500   43.8370 H   0  0  0  0  0  0  0  0  0  0  0  0
   34.2900   26.1460   45.3490 N   0  0  0  0  0  0  0  0  0  0  0  0
  1  2  1  0  0  0  0
  2  9  1  0  0  0  0
  2  3  2  0  0  0  0
  3  8  1  0  0  0  0
  4  3  1  0  0  0  0
  5  4  2  0  0  0  0
  6  1  2  0  0  0  0
  6  5  1  0  0  0  0
  7  1  1  0  0  0  0
  9 10  1  0  0  0  0
 10 18  1  0  0  0  0
 11 10  2  0  0  0  0
 12 11  1  0  0  0  0
 13 20  1  0  0  0  0
 13 12  2  0  0  0  0
 14 13  1  0  0  0  0
 15 14  2  0  0  0  0
 15 16  1  0  0  0  0
 16 17  2  0  0  0  0
 17 12  1  0  0  0  0
 17  9  1  0  0  0  0
 19 15  1  0  0  0  0
 20 22  1  0  0  0  0
 21 20  1  0  0  0  0
 23  5  1  0  0  0  0
 23 24  1  0  0  0  0
 24 27  1  0  0  0  0
 25 24  1  0  0  0  0
 26 24  1  0  0  0  0
 28 30  1  0  0  0  0
 28 23  1  0  0  0  0
 29 28  1  0  0  0  0
 31 28  1  0  0  0  0
 32 23  1  0  0  0  0
 32 33  1  0  0  0  0
 32 34  1  0  0  0  0
 35 32  1  0  0  0  0
 36 35  2  0  0  0  0
 37 38  1  0  0  0  0
 37 36  1  0  0  0  0
 38 40  2  0  0  0  0
 39 38  1  0  0  0  0
 40 35  1  0  0  0  0
M  END
>  <minimizedAffinity>
-5.24187803

>  <minimizedRMSD>
0.897329032

$$$$
