
 OpenBabel03252514083D

 40 43  0  0  0  0  0  0  0  0999 V2000
   34.2020   30.0650   47.5700 C   0  0  0  0  0  0  0  0  0  0  0  0
   35.2230   29.8050   48.5170 C   0  0  0  0  0  0  0  0  0  0  0  0
   35.1920   28.5870   49.1680 C   0  0  0  0  0  0  0  0  0  0  0  0
   34.1970   27.7140   48.8680 N   0  0  0  0  0  0  0  0  0  0  0  0
   33.2380   27.9610   47.9770 C   0  0  0  0  0  0  0  0  0  0  0  0
   33.2560   29.1330   47.3410 N   0  0  0  0  0  0  0  0  0  0  0  0
   34.1990   31.0120   47.0420 H   0  0  0  0  0  0  0  0  0  0  0  0
   35.9730   28.3910   49.8920 H   0  0  0  0  0  0  0  0  0  0  0  0
   36.1950   30.8220   48.7190 N   0  0  0  0  0  0  0  0  0  0  0  0
   36.3190   31.5330   49.8790 C   0  0  0  0  0  0  0  0  0  0  0  0
   37.3320   32.4160   49.7410 N   0  0  0  0  0  0  0  0  0  0  0  0
   37.8220   32.2490   48.5120 C   0  0  0  0  0  0  0  0  0  0  0  0
   38.8430   32.8470   47.8010 C   0  0  0  0  0  0  0  0  0  0  0  0
   39.1340   32.4810   46.5500 N   0  0  0  0  0  0  0  0  0  0  0  0
   38.4460   31.5080   45.9140 C   0  0  0  0  0  0  0  0  0  0  0  0
   37.4490   30.9240   46.6100 N   0  0  0  0  0  0  0  0  0  0  0  0
   37.1240   31.2560   47.8570 C   0  0  0  0  0  0  0  0  0  0  0  0
   35.7360   31.4590   50.8040 H   0  0  0  0  0  0  0  0  0  0  0  0
   38.7210   31.2450   44.8960 H   0  0  0  0  0  0  0  0  0  0  0  0
   39.6040   33.8750   48.4260 N   0  0  0  0  0  0  0  0  0  0  0  0
   40.5140   34.2070   48.0330 H   0  0  0  0  0  0  0  0  0  0  0  0
   39.3020   34.3470   49.2940 H   0  0  0  0  0  0  0  0  0  0  0  0
   32.1620   26.9980   47.6630 C   0  0  0  0  0  0  0  0  0  0  0  0
   31.0940   27.0450   48.7370 C   0  0  0  0  0  0  0  0  0  0  0  0
   30.3520   27.8320   48.5150 H   0  0  0  0  0  0  0  0  0  0  0  0
   30.5630   26.0740   48.6860 H   0  0  0  0  0  0  0  0  0  0  0  0
   31.5860   27.1580   49.7220 H   0  0  0  0  0  0  0  0  0  0  0  0
   31.4370   27.4080   46.3730 C   0  0  0  0  0  0  0  0  0  0  0  0
   32.1500   27.6790   45.5970 H   0  0  0  0  0  0  0  0  0  0  0  0
   30.9040   28.3660   46.6420 H   0  0  0  0  0  0  0  0  0  0  0  0
   30.7060   26.6340   46.1230 H   0  0  0  0  0  0  0  0  0  0  0  0
   32.6700   25.6060   47.4440 C   0  0  0  0  0  0  0  0  0  0  0  0
   31.8880   24.8840   47.6640 H   0  0  0  0  0  0  0  0  0  0  0  0
   33.5410   25.4320   48.1170 H   0  0  0  0  0  0  0  0  0  0  0  0
   33.1300   25.5410   46.0070 C   0  0  0  0  0  0  0  0  0  0  0  0
   32.4700   24.6720   45.1370 C   0  0  0  0  0  3  0  0  0  0  0  0
   33.2920   24.8900   43.5840 S   0  0  0  0  0  0  0  0  0  0  0  0
   34.4780   26.1900   44.3540 C   0  0  0  0  0  0  0  0  0  0  0  0
   35.3970   26.9060   44.0590 H   0  0  0  0  0  0  0  0  0  0  0  0
   34.1020   26.2150   45.4410 N   0  0  0  0  0  0  0  0  0  0  0  0
  1  2  1  0  0  0  0
  2  9  1  0  0  0  0
  2  3  2  0  0  0  0
  3  8  1  0  0  0  0
  4  3  1  0  0  0  0
  5  4  2  0  0  0  0
  6  1  2  0  0  0  0
  6  5  1  0  0  0  0
  7  1  1  0  0  0  0
  9 10  1  0  0  0  0
 10 18  1  0  0  0  0
 11 10  2  0  0  0  0
 12 11  1  0  0  0  0
 13 20  1  0  0  0  0
 13 12  2  0  0  0  0
 14 13  1  0  0  0  0
 15 14  2  0  0  0  0
 15 16  1  0  0  0  0
 16 17  2  0  0  0  0
 17 12  1  0  0  0  0
 17  9  1  0  0  0  0
 19 15  1  0  0  0  0
 20 22  1  0  0  0  0
 21 20  1  0  0  0  0
 23  5  1  0  0  0  0
 23 24  1  0  0  0  0
 24 27  1  0  0  0  0
 25 24  1  0  0  0  0
 26 24  1  0  0  0  0
 28 30  1  0  0  0  0
 28 23  1  0  0  0  0
 29 28  1  0  0  0  0
 31 28  1  0  0  0  0
 32 23  1  0  0  0  0
 32 33  1  0  0  0  0
 32 34  1  0  0  0  0
 35 32  1  0  0  0  0
 36 35  2  0  0  0  0
 37 38  1  0  0  0  0
 37 36  1  0  0  0  0
 38 40  2  0  0  0  0
 39 38  1  0  0  0  0
 40 35  1  0  0  0  0
M  END
>  <minimizedAffinity>
-5.22654009

>  <minimizedRMSD>
1.17252648

$$$$
