
 OpenBabel03252512163D

 38 42  0  0  0  0  0  0  0  0999 V2000
   32.3810   29.9350   46.1580 C   0  0  0  0  0  0  0  0  0  0  0  0
   32.0970   28.5620   46.1700 C   0  0  0  0  0  0  0  0  0  0  0  0
   33.0610   27.7130   46.7550 C   0  0  0  0  0  0  0  0  0  0  0  0
   34.1840   28.2510   47.2640 N   0  0  0  0  0  0  0  0  0  0  0  0
   34.4210   29.5930   47.2330 C   0  0  0  0  0  0  0  0  0  0  0  0
   33.5240   30.4150   46.6840 N   0  0  0  0  0  0  0  0  0  0  0  0
   31.7040   30.6570   45.7330 H   0  0  0  0  0  0  0  0  0  0  0  0
   31.1740   28.1930   45.7430 H   0  0  0  0  0  0  0  0  0  0  0  0
   35.6660   30.0680   47.8120 C   0  0  0  0  0  0  0  0  0  0  0  0
   36.6660   30.7060   47.1050 C   0  0  0  0  0  0  0  0  0  0  0  0
   37.6810   31.0220   47.9050 N   0  0  0  0  0  0  0  0  0  0  0  0
   37.3680   30.5950   49.1610 C   0  0  0  0  0  0  0  0  0  0  0  0
   38.0680   30.6730   50.3510 C   0  0  0  0  0  0  0  0  0  0  0  0
   37.4730   30.1320   51.5000 C   0  0  0  0  0  0  0  0  0  0  0  0
   36.2320   29.5510   51.4170 C   0  0  0  0  0  0  0  0  0  0  0  0
   35.5100   29.4640   50.2240 C   0  0  0  0  0  0  0  0  0  0  0  0
   36.1240   30.0050   49.1070 C   0  0  0  0  0  0  0  0  0  0  0  0
   36.7270   30.9690   46.0440 H   0  0  0  0  0  0  0  0  0  0  0  0
   38.5910   31.5080   47.6930 H   0  0  0  0  0  0  0  0  0  0  0  0
   39.0500   31.1340   50.4100 H   0  0  0  0  0  0  0  0  0  0  0  0
   37.9800   30.1680   52.4570 H   0  0  0  0  0  0  0  0  0  0  0  0
   35.7570   29.1300   52.2930 H   0  0  0  0  0  0  0  0  0  0  0  0
   34.5340   29.0110   50.1360 H   0  0  0  0  0  0  0  0  0  0  0  0
   32.8090   26.2750   46.7890 C   0  0  0  0  0  0  0  0  0  0  0  0
   33.7610   25.4610   47.3810 C   0  0  0  0  0  0  0  0  0  0  0  0
   33.4550   24.1220   47.3760 C   0  0  0  0  0  0  0  0  0  0  0  0
   32.3200   23.6160   46.8410 N   0  0  0  0  0  0  0  0  0  0  0  0
   31.4120   24.4540   46.2690 C   0  0  0  0  0  0  0  0  0  0  0  0
   31.6960   25.7860   46.2650 N   0  0  0  0  0  0  0  0  0  0  0  0
   34.6610   25.8550   47.8040 H   0  0  0  0  0  0  0  0  0  0  0  0
   34.1540   23.3970   47.8230 H   0  0  0  0  0  0  0  0  0  0  0  0
   30.2100   23.9500   45.7000 N   0  0  0  0  0  0  0  0  0  0  0  0
   29.7280   22.7340   45.5400 N   0  0  0  0  0  0  0  0  0  0  0  0
   28.5120   22.8070   44.9250 C   0  0  0  0  0  0  0  0  0  0  0  0
   27.8710   21.9610   44.6600 H   0  0  0  0  0  0  0  0  0  0  0  0
   28.2610   24.1630   44.7080 C   0  0  0  0  0  0  0  0  0  0  0  0
   29.3530   24.8740   45.2080 C   0  0  0  0  0  0  0  0  0  0  0  0
   29.2870   25.9360   45.1030 H   0  0  0  0  0  0  0  0  0  0  0  0
  1  2  2  0  0  0  0
  1  6  1  0  0  0  0
  2  3  1  0  0  0  0
  3 24  1  0  0  0  0
  3  4  2  0  0  0  0
  5  4  1  0  0  0  0
  5  9  1  0  0  0  0
  6  5  2  0  0  0  0
  7  1  1  0  0  0  0
  8  2  1  0  0  0  0
  9 17  1  0  0  0  0
 10  9  2  0  0  0  0
 10 11  1  0  0  0  0
 11 12  1  0  0  0  0
 12 13  1  0  0  0  0
 13 20  1  0  0  0  0
 13 14  2  0  0  0  0
 14 21  1  0  0  0  0
 15 14  1  0  0  0  0
 15 22  1  0  0  0  0
 16 15  2  0  0  0  0
 17 12  2  0  0  0  0
 17 16  1  0  0  0  0
 18 10  1  0  0  0  0
 19 11  1  0  0  0  0
 23 16  1  0  0  0  0
 24 25  1  0  0  0  0
 25 30  1  0  0  0  0
 26 25  2  0  0  0  0
 26 31  1  0  0  0  0
 27 26  1  0  0  0  0
 28 27  2  0  0  0  0
 29 28  1  0  0  0  0
 29 24  2  0  0  0  0
 32 28  1  0  0  0  0
 33 32  1  0  0  0  0
 34 33  2  0  0  0  0
 35 34  1  0  0  0  0
 36 34  1  0  0  0  0
 36 37  2  0  0  0  0
 37 32  1  0  0  0  0
 38 37  1  0  0  0  0
M  END
>  <minimizedAffinity>
-6.46600246

>  <minimizedRMSD>
0.154049769

$$$$
