
 OpenBabel03252514043D

 34 37  0  0  1  0  0  0  0  0999 V2000
   35.2480   29.1750   48.5860 C   0  0  2  0  0  0  0  0  0  0  0  0
   34.0210   29.3320   49.3610 C   0  0  0  0  0  0  0  0  0  0  0  0
   34.3710   27.9730   49.0680 C   0  0  1  0  0  0  0  0  0  0  0  0
   35.2870   29.3600   47.5020 H   0  0  0  0  0  0  0  0  0  0  0  0
   33.1260   29.8360   48.9080 H   0  0  0  0  0  0  0  0  0  0  0  0
   34.1320   29.6590   50.4330 H   0  0  0  0  0  0  0  0  0  0  0  0
   34.9210   27.2680   49.6910 H   0  0  0  0  0  0  0  0  0  0  0  0
   36.5640   29.2240   49.3820 C   0  0  0  0  0  0  0  0  0  0  0  0
   37.2090   28.3760   49.0200 H   0  0  0  0  0  0  0  0  0  0  0  0
   36.3460   29.0710   50.4560 H   0  0  0  0  0  0  0  0  0  0  0  0
   37.5940   32.7230   49.5810 C   0  0  0  0  0  0  0  0  0  0  0  0
   38.4750   32.8470   48.4850 C   0  0  0  0  0  0  0  0  0  0  0  0
   38.6980   31.7000   47.6900 C   0  0  0  0  0  0  0  0  0  0  0  0
   38.0480   30.5390   48.0250 N   0  0  0  0  0  0  0  0  0  0  0  0
   37.2250   30.4810   49.0750 C   0  0  0  0  0  0  0  0  0  0  0  0
   37.0050   31.5800   49.8480 N   0  0  0  0  0  0  0  0  0  0  0  0
   37.3700   33.5520   50.2410 H   0  0  0  0  0  0  0  0  0  0  0  0
   38.9450   33.7980   48.2910 H   0  0  0  0  0  0  0  0  0  0  0  0
   39.3670   31.7840   46.8510 H   0  0  0  0  0  0  0  0  0  0  0  0
   33.5310   27.3010   47.9990 C   0  0  0  0  0  0  0  0  0  0  0  0
   33.8750   26.0770   47.7740 O   0  0  0  0  0  0  0  0  0  0  0  0
   32.4790   27.8680   47.2910 O   0  0  0  0  0  0  0  0  0  0  0  0
   31.2280   28.0640   47.8110 C   0  0  0  0  0  0  0  0  0  0  0  0
   30.7770   27.6070   49.1490 C   0  0  0  0  0  0  0  0  0  0  0  0
   29.5070   27.8840   49.5140 C   0  0  0  0  0  0  0  0  0  0  0  0
   28.6250   28.5850   48.6640 C   0  0  0  0  0  0  0  0  0  0  0  0
   29.6660   28.9130   47.1570 S   0  0  0  0  0  0  0  0  0  0  0  0
   31.4970   27.0820   49.7420 H   0  0  0  0  0  0  0  0  0  0  0  0
   29.1110   27.5830   50.4690 H   0  0  0  0  0  0  0  0  0  0  0  0
   27.3500   28.9690   48.8050 N   0  0  0  0  0  0  0  0  0  0  0  0
   26.7630   30.1980   48.7760 C   0  0  0  0  0  3  0  0  0  0  0  0
   25.4300   30.0440   48.9720 N   0  0  0  0  0  0  0  0  0  0  0  0
   25.1790   28.7240   49.1210 C   0  0  0  0  0  3  0  0  0  0  0  0
   26.3790   28.0870   49.0140 N   0  0  0  0  0  0  0  0  0  0  0  0
  1  4  1  6  0  0  0
  1  3  1  0  0  0  0
  1  2  1  0  0  0  0
  1  8  1  0  0  0  0
  2  6  1  0  0  0  0
  3  2  1  0  0  0  0
  3  7  1  1  0  0  0
  5  2  1  0  0  0  0
  8 10  1  0  0  0  0
  9  8  1  0  0  0  0
 11 16  1  0  0  0  0
 11 17  1  0  0  0  0
 12 11  2  0  0  0  0
 13 14  2  0  0  0  0
 13 12  1  0  0  0  0
 14 15  1  0  0  0  0
 15  8  1  0  0  0  0
 15 16  2  0  0  0  0
 18 12  1  0  0  0  0
 19 13  1  0  0  0  0
 20  3  1  0  0  0  0
 21 20  2  0  0  0  0
 22 23  1  0  0  0  0
 22 20  1  0  0  0  0
 23 24  2  0  0  0  0
 24 25  1  0  0  0  0
 24 28  1  0  0  0  0
 25 29  1  0  0  0  0
 26 30  1  0  0  0  0
 26 25  2  0  0  0  0
 27 23  1  0  0  0  0
 27 26  1  0  0  0  0
 30 34  1  0  0  0  0
 31 30  1  0  0  0  0
 31 32  2  0  0  0  0
 32 33  1  0  0  0  0
 34 33  2  0  0  0  0
M  END
>  <minimizedAffinity>
-6.1662221

>  <minimizedRMSD>
1.60954928

$$$$
