
 OpenBabel03252514043D

 34 37  0  0  1  0  0  0  0  0999 V2000
   35.2850   29.2650   48.6900 C   0  0  2  0  0  0  0  0  0  0  0  0
   34.1100   29.3090   49.5540 C   0  0  0  0  0  0  0  0  0  0  0  0
   34.4760   27.9950   49.1110 C   0  0  1  0  0  0  0  0  0  0  0  0
   35.2450   29.5510   47.6270 H   0  0  0  0  0  0  0  0  0  0  0  0
   33.1730   29.8230   49.2100 H   0  0  0  0  0  0  0  0  0  0  0  0
   34.2850   29.5390   50.6430 H   0  0  0  0  0  0  0  0  0  0  0  0
   35.0860   27.2540   49.6270 H   0  0  0  0  0  0  0  0  0  0  0  0
   36.6510   29.2830   49.3980 C   0  0  0  0  0  0  0  0  0  0  0  0
   37.2550   28.4280   48.9880 H   0  0  0  0  0  0  0  0  0  0  0  0
   36.5000   29.1230   50.4820 H   0  0  0  0  0  0  0  0  0  0  0  0
   37.7240   32.7720   49.5410 C   0  0  0  0  0  0  0  0  0  0  0  0
   38.5640   32.8820   48.4130 C   0  0  0  0  0  0  0  0  0  0  0  0
   38.7440   31.7290   47.6150 C   0  0  0  0  0  0  0  0  0  0  0  0
   38.0960   30.5760   47.9800 N   0  0  0  0  0  0  0  0  0  0  0  0
   37.3130   30.5310   49.0610 C   0  0  0  0  0  0  0  0  0  0  0  0
   37.1330   31.6360   49.8370 N   0  0  0  0  0  0  0  0  0  0  0  0
   37.5340   33.6060   50.2060 H   0  0  0  0  0  0  0  0  0  0  0  0
   39.0370   33.8270   48.1960 H   0  0  0  0  0  0  0  0  0  0  0  0
   39.3820   31.8020   46.7510 H   0  0  0  0  0  0  0  0  0  0  0  0
   33.5820   27.3980   48.0400 C   0  0  0  0  0  0  0  0  0  0  0  0
   33.9320   26.2060   47.6900 O   0  0  0  0  0  0  0  0  0  0  0  0
   32.4790   28.0000   47.4470 O   0  0  0  0  0  0  0  0  0  0  0  0
   31.2350   28.0390   48.0170 C   0  0  0  0  0  0  0  0  0  0  0  0
   30.8940   27.5170   49.3630 C   0  0  0  0  0  0  0  0  0  0  0  0
   29.6150   27.6350   49.7780 C   0  0  0  0  0  0  0  0  0  0  0  0
   28.6230   28.2330   48.9730 C   0  0  0  0  0  0  0  0  0  0  0  0
   29.5580   28.7000   47.4340 S   0  0  0  0  0  0  0  0  0  0  0  0
   31.6940   27.0750   49.9210 H   0  0  0  0  0  0  0  0  0  0  0  0
   29.2950   27.2780   50.7430 H   0  0  0  0  0  0  0  0  0  0  0  0
   27.3170   28.4600   49.1660 N   0  0  0  0  0  0  0  0  0  0  0  0
   26.5090   28.2540   50.2410 C   0  0  0  0  0  3  0  0  0  0  0  0
   25.2530   28.6550   49.9210 N   0  0  0  0  0  0  0  0  0  0  0  0
   25.2720   29.1120   48.6500 C   0  0  0  0  0  3  0  0  0  0  0  0
   26.5560   28.9800   48.2090 N   0  0  0  0  0  0  0  0  0  0  0  0
  1  4  1  6  0  0  0
  1  3  1  0  0  0  0
  1  8  1  0  0  0  0
  1  2  1  0  0  0  0
  2  6  1  0  0  0  0
  3  2  1  0  0  0  0
  3  7  1  1  0  0  0
  5  2  1  0  0  0  0
  8 10  1  0  0  0  0
  9  8  1  0  0  0  0
 11 16  1  0  0  0  0
 11 17  1  0  0  0  0
 12 11  2  0  0  0  0
 13 14  2  0  0  0  0
 13 12  1  0  0  0  0
 14 15  1  0  0  0  0
 15  8  1  0  0  0  0
 15 16  2  0  0  0  0
 18 12  1  0  0  0  0
 19 13  1  0  0  0  0
 20  3  1  0  0  0  0
 21 20  2  0  0  0  0
 22 23  1  0  0  0  0
 22 20  1  0  0  0  0
 23 24  2  0  0  0  0
 24 25  1  0  0  0  0
 24 28  1  0  0  0  0
 25 29  1  0  0  0  0
 26 30  1  0  0  0  0
 26 25  2  0  0  0  0
 27 23  1  0  0  0  0
 27 26  1  0  0  0  0
 30 31  1  0  0  0  0
 32 31  2  0  0  0  0
 33 32  1  0  0  0  0
 34 33  2  0  0  0  0
 34 30  1  0  0  0  0
M  END
>  <minimizedAffinity>
-6.08559227

>  <minimizedRMSD>
1.42167985

$$$$
