
 OpenBabel03252513503D

 26 27  0  0  0  0  0  0  0  0999 V2000
   33.6370   28.2280   48.2360 C   0  0  0  0  0  0  0  0  0  0  0  0
   34.7600   28.6210   49.0230 C   0  0  0  0  0  0  0  0  0  0  0  0
   35.7030   29.4870   48.4550 C   0  0  0  0  0  0  0  0  0  0  0  0
   35.4700   29.8870   47.1900 N   0  0  0  0  0  0  0  0  0  0  0  0
   34.4120   29.5100   46.4600 C   0  0  0  0  0  0  0  0  0  0  0  0
   33.5020   28.6870   46.9810 N   0  0  0  0  0  0  0  0  0  0  0  0
   34.8960   28.2680   50.0360 H   0  0  0  0  0  0  0  0  0  0  0  0
   34.3370   30.0620   45.0930 C   0  0  0  0  0  0  0  0  0  0  0  0
   35.5270   30.7270   44.7790 F   0  0  0  0  0  0  0  0  0  0  0  0
   34.2380   29.0480   44.1850 F   0  0  0  0  0  0  0  0  0  0  0  0
   33.2440   30.9070   44.9160 F   0  0  0  0  0  0  0  0  0  0  0  0
   36.8670   29.9220   49.2180 C   0  0  0  0  0  0  0  0  0  0  0  0
   37.2210   29.2260   50.2180 O   0  0  0  0  0  0  0  0  0  0  0  0
   37.6400   31.1150   48.8910 C   0  0  0  0  0  0  0  0  0  0  0  0
   37.6300   32.2580   49.6870 C   0  0  0  0  0  0  0  0  0  0  0  0
   38.3630   33.3940   49.3820 C   0  0  0  0  0  0  0  0  0  0  0  0
   38.3650   34.2860   49.9970 H   0  0  0  0  0  0  0  0  0  0  0  0
   39.1530   33.4070   48.2270 C   0  0  0  0  0  0  0  0  0  0  0  0
   39.1530   32.2580   47.4470 C   0  0  0  0  0  0  0  0  0  0  0  0
   39.7720   32.2580   46.5370 H   0  0  0  0  0  0  0  0  0  0  0  0
   38.4280   31.1210   47.7350 C   0  0  0  0  0  0  0  0  0  0  0  0
   32.7140   27.3750   48.7990 O   0  0  0  0  0  0  0  0  0  0  0  0
   31.3370   27.5550   48.7600 C   0  0  0  0  0  0  0  0  0  0  0  0
   30.8050   28.0650   49.9420 F   0  0  0  0  0  0  0  0  0  0  0  0
   30.8880   28.3040   47.6950 F   0  0  0  0  0  0  0  0  0  0  0  0
   30.8010   26.2730   48.6080 F   0  0  0  0  0  0  0  0  0  0  0  0
  1 22  1  0  0  0  0
  1  2  1  0  0  0  0
  2  7  1  0  0  0  0
  3  2  2  0  0  0  0
  3 12  1  0  0  0  0
  4  3  1  0  0  0  0
  5  6  1  0  0  0  0
  5  4  2  0  0  0  0
  6  1  2  0  0  0  0
  8  5  1  0  0  0  0
  9  8  1  0  0  0  0
 10  8  1  0  0  0  0
 11  8  1  0  0  0  0
 12 13  2  0  0  0  0
 14 12  1  0  0  0  0
 14 15  1  0  0  0  0
 16 15  2  0  0  0  0
 16 17  1  0  0  0  0
 18 16  1  0  0  0  0
 19 21  1  0  0  0  0
 19 18  2  0  0  0  0
 20 19  1  0  0  0  0
 21 14  2  0  0  0  0
 23 22  1  0  0  0  0
 23 24  1  0  0  0  0
 25 23  1  0  0  0  0
 26 23  1  0  0  0  0
M  END
>  <minimizedAffinity>
-5.80657053

>  <minimizedRMSD>
4.62916613

$$$$
