
 OpenBabel03252512463D

 30 32  0  0  1  0  0  0  0  0999 V2000
   38.3790   31.1030   47.7980 C   0  0  0  0  0  0  0  0  0  0  0  0
   38.8540   32.4380   47.8770 C   0  0  0  0  0  0  0  0  0  0  0  0
   39.6360   32.7180   46.2310 S   0  0  0  0  0  0  0  0  0  0  0  0
   39.1610   30.9330   45.7310 C   0  0  0  0  0  0  0  0  0  0  0  0
   38.6470   30.5580   46.6390 N   0  0  0  0  0  0  0  0  0  0  0  0
   38.7650   33.1220   48.7300 H   0  0  0  0  0  0  0  0  0  0  0  0
   38.0880   30.8380   50.2400 C   0  0  0  0  0  0  0  0  0  0  0  0
   37.6790   30.5210   48.9400 C   0  0  0  0  0  0  0  0  0  0  0  0
   36.5960   29.6510   48.8230 C   0  0  0  0  0  0  0  0  0  0  0  0
   36.0130   29.1720   49.9430 N   0  0  0  0  0  0  0  0  0  0  0  0
   36.4380   29.5020   51.1690 C   0  0  0  0  0  0  0  0  0  0  0  0
   37.4860   30.3430   51.3200 N   0  0  0  0  0  0  0  0  0  0  0  0
   38.9290   31.5130   50.3600 H   0  0  0  0  0  0  0  0  0  0  0  0
   36.2560   29.3870   47.8490 H   0  0  0  0  0  0  0  0  0  0  0  0
   35.8550   29.0280   51.9650 H   0  0  0  0  0  0  0  0  0  0  0  0
   39.4800   30.3650   44.3810 C   0  0  2  0  0  0  0  0  0  0  0  0
   39.9060   29.3670   44.5930 H   0  0  0  0  0  0  0  0  0  0  0  0
   40.4310   31.2900   43.6990 C   0  0  0  0  0  0  0  0  0  0  0  0
   40.8510   30.7900   42.7950 H   0  0  0  0  0  0  0  0  0  0  0  0
   39.8150   32.1660   43.3490 H   0  0  0  0  0  0  0  0  0  0  0  0
   41.2130   31.6780   44.3590 H   0  0  0  0  0  0  0  0  0  0  0  0
   38.1850   30.2400   43.5880 C   0  0  0  0  0  0  0  0  0  0  0  0
   38.3310   30.8610   42.6610 H   0  0  0  0  0  0  0  0  0  0  0  0
   37.3460   30.6930   44.1460 H   0  0  0  0  0  0  0  0  0  0  0  0
   37.9740   28.8170   43.2370 C   0  0  0  0  0  0  0  0  0  0  0  0
   39.1610   28.0870   43.2690 C   0  0  0  0  0  0  0  0  0  0  0  0
   38.8810   26.7700   42.9300 C   0  0  0  0  0  0  0  0  0  0  0  0
   37.5020   26.7810   42.7060 C   0  0  0  0  0  0  0  0  0  0  0  0
   36.8050   26.0030   42.4190 H   0  0  0  0  0  0  0  0  0  0  0  0
   37.0150   27.9850   42.8940 O   0  0  0  0  0  0  0  0  0  0  0  0
  1  2  2  0  0  0  0
  1  8  1  0  0  0  0
  2  6  1  0  0  0  0
  3  2  1  0  0  0  0
  4  3  1  0  0  0  0
  4  5  2  0  0  0  0
  5  1  1  0  0  0  0
  7 13  1  0  0  0  0
  7 12  1  0  0  0  0
  8  7  2  0  0  0  0
  9  8  1  0  0  0  0
  9 10  2  0  0  0  0
 10 11  1  0  0  0  0
 11 12  2  0  0  0  0
 11 15  1  0  0  0  0
 14  9  1  0  0  0  0
 16 17  1  1  0  0  0
 16  4  1  0  0  0  0
 18 21  1  0  0  0  0
 18 16  1  0  0  0  0
 19 18  1  0  0  0  0
 20 18  1  0  0  0  0
 22 24  1  0  0  0  0
 22 16  1  0  0  0  0
 23 22  1  0  0  0  0
 25 26  2  0  0  0  0
 25 22  1  0  0  0  0
 27 26  1  0  0  0  0
 28 30  1  0  0  0  0
 28 27  2  0  0  0  0
 29 28  1  0  0  0  0
 30 25  1  0  0  0  0
M  END
>  <minimizedAffinity>
-5.13000774

>  <minimizedRMSD>
1.61915362

$$$$
