
 OpenBabel03252513433D

 18 19  0  0  0  0  0  0  0  0999 V2000
   37.3720   30.5980   49.0070 C   0  0  0  0  0  0  0  0  0  0  0  0
   37.2060   31.6840   49.9000 C   0  0  0  0  0  0  0  0  0  0  0  0
   37.8310   32.8810   49.5880 C   0  0  0  0  0  0  0  0  0  0  0  0
   38.5780   32.9720   48.4460 N   0  0  0  0  0  0  0  0  0  0  0  0
   38.6980   31.8980   47.6330 C   0  0  0  0  0  0  0  0  0  0  0  0
   38.1170   30.7270   47.8880 N   0  0  0  0  0  0  0  0  0  0  0  0
   36.6350   31.6540   50.7980 H   0  0  0  0  0  0  0  0  0  0  0  0
   37.7510   33.7640   50.2280 H   0  0  0  0  0  0  0  0  0  0  0  0
   39.4990   32.1160   46.4770 N   0  0  0  0  0  0  0  0  0  0  0  0
   39.8820   33.1290   45.6740 C   0  0  0  0  0  0  0  0  0  0  0  0
   40.6840   32.6160   44.7160 N   0  0  0  0  0  0  0  0  0  0  0  0
   40.8060   31.3040   44.9080 C   0  0  0  0  0  0  0  0  0  0  0  0
   40.0680   30.9960   46.0050 N   0  0  0  0  0  0  0  0  0  0  0  0
   36.7550   29.4180   49.3130 O   0  0  0  0  0  0  0  0  0  0  0  0
   35.5550   29.2690   50.0040 C   0  0  0  0  0  0  0  0  0  0  0  0
   35.7040   29.2270   51.3750 F   0  0  0  0  0  0  0  0  0  0  0  0
   34.6100   30.1980   49.6480 F   0  0  0  0  0  0  0  0  0  0  0  0
   35.0460   28.0190   49.6070 F   0  0  0  0  0  0  0  0  0  0  0  0
  1 14  1  0  0  0  0
  1  2  1  0  0  0  0
  2  7  1  0  0  0  0
  3  2  2  0  0  0  0
  3  8  1  0  0  0  0
  4  3  1  0  0  0  0
  5  6  1  0  0  0  0
  5  4  2  0  0  0  0
  6  1  2  0  0  0  0
  9  5  1  0  0  0  0
 10  9  1  0  0  0  0
 11 12  1  0  0  0  0
 11 10  2  0  0  0  0
 12 13  2  0  0  0  0
 13  9  1  0  0  0  0
 14 15  1  0  0  0  0
 15 16  1  0  0  0  0
 17 15  1  0  0  0  0
 18 15  1  0  0  0  0
M  END
>  <minimizedAffinity>
-5.97451353

>  <minimizedRMSD>
1.6646179

$$$$
