
 OpenBabel03252514043D

 34 37  0  0  1  0  0  0  0  0999 V2000
   35.2610   29.2680   48.7180 C   0  0  2  0  0  0  0  0  0  0  0  0
   34.0930   29.3100   49.5900 C   0  0  0  0  0  0  0  0  0  0  0  0
   34.4530   27.9970   49.1390 C   0  0  1  0  0  0  0  0  0  0  0  0
   35.2150   29.5590   47.6570 H   0  0  0  0  0  0  0  0  0  0  0  0
   33.1540   29.8270   49.2560 H   0  0  0  0  0  0  0  0  0  0  0  0
   34.2760   29.5340   50.6790 H   0  0  0  0  0  0  0  0  0  0  0  0
   35.0650   27.2520   49.6470 H   0  0  0  0  0  0  0  0  0  0  0  0
   36.6320   29.2800   49.4170 C   0  0  0  0  0  0  0  0  0  0  0  0
   37.2300   28.4220   49.0030 H   0  0  0  0  0  0  0  0  0  0  0  0
   36.4880   29.1210   50.5020 H   0  0  0  0  0  0  0  0  0  0  0  0
   37.7120   32.7670   49.5450 C   0  0  0  0  0  0  0  0  0  0  0  0
   38.5540   32.8700   48.4170 C   0  0  0  0  0  0  0  0  0  0  0  0
   38.7340   31.7130   47.6260 C   0  0  0  0  0  0  0  0  0  0  0  0
   38.0820   30.5630   47.9950 N   0  0  0  0  0  0  0  0  0  0  0  0
   37.2970   30.5250   49.0750 C   0  0  0  0  0  0  0  0  0  0  0  0
   37.1180   31.6340   49.8450 N   0  0  0  0  0  0  0  0  0  0  0  0
   37.5220   33.6050   50.2050 H   0  0  0  0  0  0  0  0  0  0  0  0
   39.0290   33.8130   48.1970 H   0  0  0  0  0  0  0  0  0  0  0  0
   39.3730   31.7810   46.7630 H   0  0  0  0  0  0  0  0  0  0  0  0
   33.5510   27.4070   48.0710 C   0  0  0  0  0  0  0  0  0  0  0  0
   33.8540   26.1900   47.7640 O   0  0  0  0  0  0  0  0  0  0  0  0
   32.4850   28.0370   47.4420 O   0  0  0  0  0  0  0  0  0  0  0  0
   31.2130   28.0700   47.9470 C   0  0  0  0  0  0  0  0  0  0  0  0
   30.8070   27.5490   49.2750 C   0  0  0  0  0  0  0  0  0  0  0  0
   29.5070   27.6600   49.6240 C   0  0  0  0  0  0  0  0  0  0  0  0
   28.5550   28.2520   48.7680 C   0  0  0  0  0  0  0  0  0  0  0  0
   29.5650   28.7210   47.2780 S   0  0  0  0  0  0  0  0  0  0  0  0
   31.5800   27.1120   49.8740 H   0  0  0  0  0  0  0  0  0  0  0  0
   29.1410   27.3030   50.5720 H   0  0  0  0  0  0  0  0  0  0  0  0
   27.2400   28.4710   48.8940 N   0  0  0  0  0  0  0  0  0  0  0  0
   26.2750   28.7550   47.9760 C   0  0  0  0  0  3  0  0  0  0  0  0
   25.0900   28.8880   48.6220 N   0  0  0  0  0  0  0  0  0  0  0  0
   25.3090   28.6890   49.9410 C   0  0  0  0  0  3  0  0  0  0  0  0
   26.6420   28.4340   50.0790 N   0  0  0  0  0  0  0  0  0  0  0  0
  1  4  1  6  0  0  0
  1  3  1  0  0  0  0
  1  8  1  0  0  0  0
  1  2  1  0  0  0  0
  2  6  1  0  0  0  0
  3  2  1  0  0  0  0
  3  7  1  1  0  0  0
  5  2  1  0  0  0  0
  8 10  1  0  0  0  0
  9  8  1  0  0  0  0
 11 16  1  0  0  0  0
 11 17  1  0  0  0  0
 12 11  2  0  0  0  0
 13 14  2  0  0  0  0
 13 12  1  0  0  0  0
 14 15  1  0  0  0  0
 15  8  1  0  0  0  0
 15 16  2  0  0  0  0
 18 12  1  0  0  0  0
 19 13  1  0  0  0  0
 20  3  1  0  0  0  0
 21 20  2  0  0  0  0
 22 23  1  0  0  0  0
 22 20  1  0  0  0  0
 23 24  2  0  0  0  0
 24 25  1  0  0  0  0
 24 28  1  0  0  0  0
 25 29  1  0  0  0  0
 26 30  1  0  0  0  0
 26 25  2  0  0  0  0
 27 23  1  0  0  0  0
 27 26  1  0  0  0  0
 30 34  1  0  0  0  0
 31 32  2  0  0  0  0
 31 30  1  0  0  0  0
 32 33  1  0  0  0  0
 33 34  2  0  0  0  0
M  END
>  <minimizedAffinity>
-6.07296944

>  <minimizedRMSD>
1.29913568

$$$$
