REMARK  Name = 
REMARK  5 active torsions:
REMARK  status: ('A' for Active; 'I' for Inactive)
REMARK    1  A    between atoms: C_1  and  C_6
REMARK    2  A    between atoms: C_1  and  C_8
REMARK    3  A    between atoms: C_10  and  C_11
REMARK    4  A    between atoms: C_11  and  O_13
REMARK    5  A    between atoms: O_13  and  C_23
REMARK                            x       y       z     vdW  Elec       q    Type
REMARK                         _______ _______ _______ _____ _____    ______ ____
ROOT
ATOM      1  C   UNL     1      35.431  29.539  49.219  0.00  0.00    +0.000 C 
ATOM      2  C   UNL     1      34.398  29.474  50.262  0.00  0.00    +0.000 C 
ATOM      3  C   UNL     1      34.652  28.244  49.522  0.00  0.00    +0.000 C 
ATOM      4  H   UNL     1      35.284  29.927  48.205  0.00  0.00    +0.000 HD
ATOM      5  H   UNL     1      34.728  29.508  51.324  0.00  0.00    +0.000 HD
ATOM      6  H   UNL     1      33.460  30.058  50.060  0.00  0.00    +0.000 HD
ATOM      7  H   UNL     1      35.337  27.415  49.768  0.00  0.00    +0.000 HD
ENDROOT
BRANCH   1   8
ATOM      8  C   UNL     1      36.892  29.436  49.659  0.00  0.00    +0.000 C 
ATOM      9  H   UNL     1      36.902  29.496  50.763  0.00  0.00    +0.000 HD
ATOM     10  H   UNL     1      37.347  28.492  49.330  0.00  0.00    +0.000 HD
BRANCH   8  15
ATOM     11  C   UNL     1      38.436  32.748  49.383  0.00  0.00    +0.000 A 
ATOM     12  C   UNL     1      38.938  32.749  48.072  0.00  0.00    +0.000 A 
ATOM     13  C   UNL     1      38.740  31.600  47.289  0.00  0.00    +0.000 A 
ATOM     14  N   UNL     1      38.067  30.546  47.853  0.00  0.00    +0.000 NA
ATOM     15  C   UNL     1      37.606  30.588  49.104  0.00  0.00    +0.000 A 
ATOM     16  N   UNL     1      37.797  31.695  49.859  0.00  0.00    +0.000 NA
ATOM     17  H   UNL     1      38.587  33.631  49.988  0.00  0.00    +0.000 HD
ATOM     18  H   UNL     1      39.460  33.568  47.634  0.00  0.00    +0.000 HD
ATOM     19  H   UNL     1      39.109  31.565  46.284  0.00  0.00    +0.000 HD
ENDBRANCH   8  15
ENDBRANCH   1   8
BRANCH   3  20
ATOM     20  C   UNL     1      33.575  27.855  48.547  0.00  0.00    +0.000 C 
ATOM     21  O   UNL     1      33.881  26.855  47.785  0.00  0.00    +0.000 OA
BRANCH  20  22
ATOM     22  O   UNL     1      32.331  28.449  48.412  0.00  0.00    +0.000 OA
BRANCH  22  23
ATOM     23  C   UNL     1      31.404  27.995  47.476  0.00  0.00    +0.000 C 
ATOM     24  C   UNL     1      31.729  27.836  46.048  0.00  0.00    +0.000 C 
ATOM     25  C   UNL     1      31.396  26.620  46.943  0.00  0.00    +0.000 C 
ENDBRANCH  22  23
ENDBRANCH  20  22
ENDBRANCH   3  20
TORSDOF 5
