
     RDKit          3D

 41 45  0  0  0  0  0  0  0  0999 V2000
   35.3005   29.4086   48.9690 C   0  0  2  0  0  0  0  0  0  0  0  0
   34.1866   29.3687   49.9159 C   0  0  0  0  0  0  0  0  0  0  0  0
   34.5271   28.1003   49.3477 C   0  0  1  0  0  0  0  0  0  0  0  0
   36.7099   29.3821   49.5821 C   0  0  0  0  0  0  0  0  0  0  0  0
   38.0822   32.7662   49.4547 C   0  0  0  0  0  0  0  0  0  0  0  0
   38.7493   32.7791   48.2154 C   0  0  0  0  0  0  0  0  0  0  0  0
   38.7154   31.6039   47.4349 C   0  0  0  0  0  0  0  0  0  0  0  0
   38.0360   30.5220   47.9293 N   0  0  0  0  0  0  0  0  0  0  0  0
   37.4186   30.5630   49.1139 C   0  0  0  0  0  0  0  0  0  0  0  0
   37.4437   31.6914   49.8775 N   0  0  0  0  0  0  0  0  0  0  0  0
   33.5655   27.5824   48.2980 C   0  0  0  0  0  0  0  0  0  0  0  0
   33.9032   26.4437   47.7966 O   0  0  0  0  0  0  0  0  0  0  0  0
   32.4111   28.1927   47.8607 O   0  0  0  0  0  0  0  0  0  0  0  0
   31.1498   27.8113   48.2112 C   0  0  0  0  0  0  0  0  0  0  0  0
   30.6243   27.8283   49.5816 C   0  0  0  0  0  0  0  0  0  0  0  0
   29.3537   27.4342   49.8323 C   0  0  0  0  0  0  0  0  0  0  0  0
   28.5319   27.0024   48.7618 C   0  0  0  0  0  0  0  0  0  0  0  0
   29.6513   27.1665   47.2687 S   0  0  0  0  0  0  0  0  0  0  0  0
   35.2502   29.6314   47.9073 H   0  0  0  0  0  0  0  0  0  0  0  0
   34.4171   29.6205   50.9849 H   0  0  0  0  0  0  0  0  0  0  0  0
   33.2525   29.9124   49.6028 H   0  0  0  0  0  0  0  0  0  0  0  0
   35.1754   27.3499   49.7985 H   0  0  0  0  0  0  0  0  0  0  0  0
   37.1982   28.4707   49.1605 H   0  0  0  0  0  0  0  0  0  0  0  0
   36.6431   29.2723   50.6664 H   0  0  0  0  0  0  0  0  0  0  0  0
   38.1694   33.7165   49.9743 H   0  0  0  0  0  0  0  0  0  0  0  0
   39.3052   33.5529   47.7304 H   0  0  0  0  0  0  0  0  0  0  0  0
   39.1782   31.4846   46.4834 H   0  0  0  0  0  0  0  0  0  0  0  0
   31.2998   28.1664   50.3538 H   0  0  0  0  0  0  0  0  0  0  0  0
   28.9386   27.4363   50.8249 H   0  0  0  0  0  0  0  0  0  0  0  0
   27.1765   26.5611   48.8771 N   0  0  0  0  0  0  0  0  0  0  0  0
   26.1458   27.3927   48.7828 C   0  0  0  0  0  0  0  0  0  0  0  0
   25.0619   26.6151   48.9412 N   0  0  0  0  0  0  0  0  0  0  0  0
   25.4412   25.3378   49.1274 C   0  0  0  0  0  0  0  0  0  0  0  0
   24.6788   24.1826   49.3337 C   0  0  0  0  0  0  0  0  0  0  0  0
   23.5840   24.2184   49.3657 H   0  0  0  0  0  0  0  0  0  0  0  0
   25.3580   23.0099   49.4933 N   0  0  0  0  0  0  0  0  0  0  0  0
   26.7043   22.9835   49.4512 C   0  0  0  0  0  0  0  0  0  0  0  0
   27.4315   24.1032   49.2516 N   0  0  0  0  0  0  0  0  0  0  0  0
   26.8306   25.2870   49.0877 C   0  0  0  0  0  0  0  0  0  0  0  0
   26.1868   28.4696   48.6135 H   0  0  0  0  0  0  0  0  0  0  0  0
   27.2531   22.0404   49.5795 H   0  0  0  0  0  0  0  0  0  0  0  0
  1  3  1  0
  1  4  1  0
  1  2  1  0
  3  2  1  0
  5 10  2  0
  6  5  1  0
  7  8  1  0
  7  6  2  0
  8  9  2  0
  9  4  1  0
  9 10  1  0
 11  3  1  0
 12 11  2  0
 13 14  1  0
 13 11  1  0
 14 15  2  0
 15 16  1  0
 17 16  2  0
 18 14  1  0
 18 17  1  0
  1 19  1  6
  2 20  1  0
  2 21  1  0
  3 22  1  1
  4 23  1  0
  4 24  1  0
  5 25  1  0
  6 26  1  0
  7 27  1  0
 15 28  1  0
 16 29  1  0
 30 31  1  0
 31 32  2  0
 32 33  1  0
 33 34  2  0
 34 35  1  0
 34 36  1  0
 36 37  2  0
 37 38  1  0
 38 39  2  0
 39 30  1  0
 39 33  1  0
 31 40  1  0
 37 41  1  0
 17 30  1  0
M  ISO  8  19  13  20  13  21  13  22  13  23   8  24   8  25  14  26  14
M  ISO  4  27  14  28  14  29  14  35  14
M  END
>  <DihAtoms>  (1) 
15,16,29,30

>  <DihDeg>  (1) 
-59.9847176409797

$$$$
