
 OpenBabel03252514043D

 39 43  0  0  1  0  0  0  0  0999 V2000
   34.0890   28.1420   47.3400 C   0  0  0  0  0  0  0  0  0  0  0  0
   34.5500   28.8040   48.3440 O   0  0  0  0  0  0  0  0  0  0  0  0
   32.6640   26.0760   46.6340 C   0  0  2  0  0  0  0  0  0  0  0  0
   34.0660   25.7070   46.8270 C   0  0  0  0  0  0  0  0  0  0  0  0
   33.6050   26.7510   47.6910 C   0  0  1  0  0  0  0  0  0  0  0  0
   32.2660   26.7870   45.9160 H   0  0  0  0  0  0  0  0  0  0  0  0
   34.2730   24.6720   47.2070 H   0  0  0  0  0  0  0  0  0  0  0  0
   34.7580   25.9290   45.9670 H   0  0  0  0  0  0  0  0  0  0  0  0
   33.2430   26.6260   48.7090 H   0  0  0  0  0  0  0  0  0  0  0  0
   31.6280   25.1900   47.3450 C   0  0  0  0  0  0  0  0  0  0  0  0
   31.3550   25.7430   48.2750 H   0  0  0  0  0  0  0  0  0  0  0  0
   32.0820   24.2370   47.6250 H   0  0  0  0  0  0  0  0  0  0  0  0
   29.1970   23.8990   44.9420 C   0  0  0  0  0  0  0  0  0  0  0  0
   28.2600   24.9470   44.8620 C   0  0  0  0  0  0  0  0  0  0  0  0
   28.4850   26.0950   45.6510 C   0  0  0  0  0  0  0  0  0  0  0  0
   29.6000   26.1220   46.4460 N   0  0  0  0  0  0  0  0  0  0  0  0
   30.4590   25.0990   46.4840 C   0  0  0  0  0  0  0  0  0  0  0  0
   30.2540   23.9850   45.7270 N   0  0  0  0  0  0  0  0  0  0  0  0
   28.9320   23.0660   44.2960 H   0  0  0  0  0  0  0  0  0  0  0  0
   27.3640   25.0390   44.2870 H   0  0  0  0  0  0  0  0  0  0  0  0
   27.8530   26.9520   45.6820 H   0  0  0  0  0  0  0  0  0  0  0  0
   34.0860   28.7290   46.0930 O   0  0  0  0  0  0  0  0  0  0  0  0
   33.0850   29.5180   45.6090 C   0  0  0  0  0  0  0  0  0  0  0  0
   32.8140   30.8900   46.0560 C   0  0  0  0  0  0  0  0  0  0  0  0
   31.7990   31.5990   45.5120 C   0  0  0  0  0  0  0  0  0  0  0  0
   30.9940   31.0090   44.5060 C   0  0  0  0  0  0  0  0  0  0  0  0
   31.7370   29.3010   44.3100 S   0  0  0  0  0  0  0  0  0  0  0  0
   33.4610   31.2830   46.8270 H   0  0  0  0  0  0  0  0  0  0  0  0
   31.5750   32.6070   45.8170 H   0  0  0  0  0  0  0  0  0  0  0  0
   29.8940   31.6370   43.8430 N   0  0  0  0  0  0  0  0  0  0  0  0
   29.9990   32.1670   42.6300 C   0  0  0  0  0  3  0  0  0  0  0  0
   28.7750   32.6510   42.3590 N   0  0  0  0  0  0  0  0  0  0  0  0
   27.9520   32.4120   43.3950 C   0  0  0  0  0  0  0  0  0  0  0  0
   26.6000   32.7240   43.5740 C   0  0  0  0  0  0  0  0  0  0  0  0
   26.0270   33.2490   42.8010 H   0  0  0  0  0  0  0  0  0  0  0  0
   26.0240   32.3460   44.7520 N   0  0  0  0  0  0  0  0  0  0  0  0
   26.7430   31.7020   45.6920 C   0  0  0  0  0  3  0  0  0  0  0  0
   28.0470   31.4040   45.5110 N   0  0  0  0  0  0  0  0  0  0  0  0
   28.6730   31.7450   44.3800 C   0  0  0  0  0  0  0  0  0  0  0  0
  1  5  1  0  0  0  0
  1  2  2  0  0  0  0
  3  6  1  6  0  0  0
  3  4  1  0  0  0  0
  3 10  1  0  0  0  0
  3  5  1  0  0  0  0
  4  7  1  0  0  0  0
  4  5  1  0  0  0  0
  5  9  1  1  0  0  0
  8  4  1  0  0  0  0
 10 12  1  0  0  0  0
 10 11  1  0  0  0  0
 13 18  1  0  0  0  0
 14 13  2  0  0  0  0
 14 15  1  0  0  0  0
 15 21  1  0  0  0  0
 15 16  2  0  0  0  0
 16 17  1  0  0  0  0
 17 10  1  0  0  0  0
 18 17  2  0  0  0  0
 19 13  1  0  0  0  0
 20 14  1  0  0  0  0
 22  1  1  0  0  0  0
 23 24  2  0  0  0  0
 23 22  1  0  0  0  0
 24 28  1  0  0  0  0
 25 29  1  0  0  0  0
 25 24  1  0  0  0  0
 26 25  2  0  0  0  0
 27 26  1  0  0  0  0
 27 23  1  0  0  0  0
 30 39  1  0  0  0  0
 30 26  1  0  0  0  0
 31 30  1  0  0  0  0
 32 31  2  0  0  0  0
 32 33  1  0  0  0  0
 33 34  2  0  0  0  0
 33 39  1  0  0  0  0
 34 36  1  0  0  0  0
 35 34  1  0  0  0  0
 36 37  2  0  0  0  0
 38 37  1  0  0  0  0
 39 38  2  0  0  0  0
M  END
>  <minimizedAffinity>
-3.58018446

>  <minimizedRMSD>
8.11731815

$$$$
