
 OpenBabel03252512263D

 37 40  0  0  1  0  0  0  0  0999 V2000
   32.5420   27.9260   47.3460 C   0  0  2  0  0  0  0  0  0  0  0  0
   32.8800   27.1180   46.6840 H   0  0  0  0  0  0  0  0  0  0  0  0
   35.8050   30.1880   48.3210 C   0  0  0  0  0  0  0  0  0  0  0  0
   35.6230   29.0920   49.1770 C   0  0  0  0  0  0  0  0  0  0  0  0
   34.5680   28.2910   48.9280 C   0  0  0  0  0  0  0  0  0  0  0  0
   33.7630   28.5790   47.8930 C   0  0  0  0  0  0  0  0  0  0  0  0
   34.4360   30.0630   47.1390 S   0  0  0  0  0  0  0  0  0  0  0  0
   36.3360   28.9340   50.0020 H   0  0  0  0  0  0  0  0  0  0  0  0
   34.3130   27.4140   49.5100 H   0  0  0  0  0  0  0  0  0  0  0  0
   38.0740   32.7990   49.6170 C   0  0  0  0  0  0  0  0  0  0  0  0
   38.9220   33.0300   48.5120 C   0  0  0  0  0  0  0  0  0  0  0  0
   38.7050   32.2900   47.3470 C   0  0  0  0  0  0  0  0  0  0  0  0
   37.6860   31.4000   47.3700 N   0  0  0  0  0  0  0  0  0  0  0  0
   36.8990   31.1970   48.4180 C   0  0  0  0  0  0  0  0  0  0  0  0
   37.0630   31.8810   49.5650 N   0  0  0  0  0  0  0  0  0  0  0  0
   38.2520   33.3730   50.5050 H   0  0  0  0  0  0  0  0  0  0  0  0
   39.7060   33.7660   48.6060 H   0  0  0  0  0  0  0  0  0  0  0  0
   39.3390   32.4470   46.4880 H   0  0  0  0  0  0  0  0  0  0  0  0
   31.8340   28.9190   46.4530 C   0  0  0  0  0  0  0  0  0  0  0  0
   31.1080   28.3720   45.8510 H   0  0  0  0  0  0  0  0  0  0  0  0
   32.5980   29.4510   45.8650 H   0  0  0  0  0  0  0  0  0  0  0  0
   31.3230   29.6700   47.1010 H   0  0  0  0  0  0  0  0  0  0  0  0
   31.7000   27.4480   48.4700 C   0  0  0  0  0  0  0  0  0  0  0  0
   31.4740   28.3230   49.1290 H   0  0  0  0  0  0  0  0  0  0  0  0
   32.1280   26.6230   49.0460 H   0  0  0  0  0  0  0  0  0  0  0  0
   30.3920   26.9770   47.9540 C   0  0  0  0  0  0  0  0  0  0  0  0
   30.3000   26.1350   46.9130 N   0  0  0  0  0  0  0  0  0  0  0  0
   29.1680   25.6550   46.4110 C   0  0  0  0  0  0  0  0  0  0  0  0
   28.0100   26.0350   46.9820 N   0  0  0  0  0  0  0  0  0  0  0  0
   28.0290   26.8900   48.0460 C   0  0  0  0  0  0  0  0  0  0  0  0
   26.8460   27.2890   48.6320 C   0  0  0  0  0  0  0  0  0  0  0  0
   26.7460   28.1570   49.7080 C   0  0  0  0  0  0  0  0  0  0  0  0
   25.8190   28.4490   50.1400 H   0  0  0  0  0  0  0  0  0  0  0  0
   27.9760   28.6220   50.1810 C   0  0  0  0  0  0  0  0  0  0  0  0
   27.9280   29.3150   51.0360 H   0  0  0  0  0  0  0  0  0  0  0  0
   29.1770   28.2450   49.6210 C   0  0  0  0  0  0  0  0  0  0  0  0
   29.2160   27.3770   48.5530 C   0  0  0  0  0  0  0  0  0  0  0  0
  1  2  1  6  0  0  0
  1  6  1  0  0  0  0
  1 23  1  0  0  0  0
  3 14  1  0  0  0  0
  3  4  2  0  0  0  0
  4  8  1  0  0  0  0
  5  4  1  0  0  0  0
  5  9  1  0  0  0  0
  6  5  2  0  0  0  0
  7  6  1  0  0  0  0
  7  3  1  0  0  0  0
 10 16  1  0  0  0  0
 11 17  1  0  0  0  0
 11 10  2  0  0  0  0
 12 13  2  0  0  0  0
 12 11  1  0  0  0  0
 13 14  1  0  0  0  0
 14 15  2  0  0  0  0
 15 10  1  0  0  0  0
 18 12  1  0  0  0  0
 19 22  1  0  0  0  0
 19  1  1  0  0  0  0
 20 19  1  0  0  0  0
 21 19  1  0  0  0  0
 23 25  1  0  0  0  0
 23 24  1  0  0  0  0
 26 23  1  0  0  0  0
 26 37  1  0  0  0  0
 27 26  2  0  0  0  0
 28 27  1  0  0  0  0
 28 29  2  0  0  0  0
 29 30  1  0  0  0  0
 30 37  2  0  0  0  0
 30 31  1  0  0  0  0
 31 32  2  0  0  0  0
 32 33  1  0  0  0  0
 32 34  1  0  0  0  0
 34 35  1  0  0  0  0
 36 34  2  0  0  0  0
 37 36  1  0  0  0  0
M  END
>  <minimizedAffinity>
-6.56250572

>  <minimizedRMSD>
2.31591654

$$$$
