
 OpenBabel03252513413D

 13 14  0  0  0  0  0  0  0  0999 V2000
   37.1570   31.6620   49.0070 C   0  0  0  0  0  0  0  0  0  0  0  0
   38.0580   32.6650   49.4270 C   0  0  0  0  0  0  0  0  0  0  0  0
   38.9770   33.1260   48.4680 C   0  0  0  0  0  0  0  0  0  0  0  0
   38.9630   32.6090   47.2210 N   0  0  0  0  0  0  0  0  0  0  0  0
   38.0700   31.6420   46.8690 C   0  0  0  0  0  0  0  0  0  0  0  0
   37.1710   31.1660   47.7490 N   0  0  0  0  0  0  0  0  0  0  0  0
   38.0130   33.0350   50.4480 H   0  0  0  0  0  0  0  0  0  0  0  0
   39.6550   33.8920   48.8140 H   0  0  0  0  0  0  0  0  0  0  0  0
   38.0950   31.2540   45.8560 H   0  0  0  0  0  0  0  0  0  0  0  0
   36.2520   31.1970   49.9280 O   0  0  0  0  0  0  0  0  0  0  0  0
   36.3520   30.0550   50.7250 C   0  0  0  0  0  0  0  0  0  0  0  0
   37.4910   29.1010   50.6010 C   0  0  0  0  0  0  0  0  0  0  0  0
   37.3120   29.9660   51.8540 C   0  0  0  0  0  0  0  0  0  0  0  0
  1  2  1  0  0  0  0
  1 10  1  0  0  0  0
  2  7  1  0  0  0  0
  3  8  1  0  0  0  0
  3  2  2  0  0  0  0
  4  3  1  0  0  0  0
  5  4  2  0  0  0  0
  5  6  1  0  0  0  0
  6  1  2  0  0  0  0
  9  5  1  0  0  0  0
 10 11  1  0  0  0  0
 11 13  1  0  0  0  0
 12 11  1  0  0  0  0
 12 13  1  0  0  0  0
M  END
>  <minimizedAffinity>
-3.96259689

>  <minimizedRMSD>
2.87017179

$$$$
