
 OpenBabel03252514013D

 25 27  0  0  1  0  0  0  0  0999 V2000
   35.3250   29.4460   49.0560 C   0  0  2  0  0  0  0  0  0  0  0  0
   34.2220   29.4410   50.0270 C   0  0  0  0  0  0  0  0  0  0  0  0
   34.5580   28.1600   49.4170 C   0  0  1  0  0  0  0  0  0  0  0  0
   35.2420   29.7410   48.0040 H   0  0  0  0  0  0  0  0  0  0  0  0
   34.4750   29.5760   51.1020 H   0  0  0  0  0  0  0  0  0  0  0  0
   33.2880   29.9770   49.7100 H   0  0  0  0  0  0  0  0  0  0  0  0
   35.2430   27.3760   49.7810 H   0  0  0  0  0  0  0  0  0  0  0  0
   36.7530   29.4250   49.6030 C   0  0  0  0  0  0  0  0  0  0  0  0
   36.6770   29.4590   50.7050 H   0  0  0  0  0  0  0  0  0  0  0  0
   37.2920   28.5200   49.2910 H   0  0  0  0  0  0  0  0  0  0  0  0
   37.9380   32.8880   49.4240 C   0  0  0  0  0  0  0  0  0  0  0  0
   38.6910   32.8990   48.2390 C   0  0  0  0  0  0  0  0  0  0  0  0
   38.7860   31.7040   47.5080 C   0  0  0  0  0  0  0  0  0  0  0  0
   38.1360   30.5980   47.9950 N   0  0  0  0  0  0  0  0  0  0  0  0
   37.4300   30.6330   49.1260 C   0  0  0  0  0  0  0  0  0  0  0  0
   37.3390   31.7850   49.8320 N   0  0  0  0  0  0  0  0  0  0  0  0
   37.8630   33.8070   49.9890 H   0  0  0  0  0  0  0  0  0  0  0  0
   39.1950   33.7580   47.8610 H   0  0  0  0  0  0  0  0  0  0  0  0
   39.3520   31.6740   46.5980 H   0  0  0  0  0  0  0  0  0  0  0  0
   33.5630   27.6560   48.4080 C   0  0  0  0  0  0  0  0  0  0  0  0
   33.9930   26.6800   47.6760 O   0  0  0  0  0  0  0  0  0  0  0  0
   32.2740   28.1270   48.2140 O   0  0  0  0  0  0  0  0  0  0  0  0
   31.1620   27.4000   48.6330 C   0  0  0  0  0  3  0  0  0  0  0  0
   30.2780   27.8560   49.7200 C   0  0  0  0  0  2  0  0  0  0  0  0
   29.7780   27.7470   48.2610 C   0  0  0  0  0  2  0  0  0  0  0  0
  1  4  1  6  0  0  0
  1  3  1  0  0  0  0
  1  8  1  0  0  0  0
  1  2  1  0  0  0  0
  2  5  1  0  0  0  0
  3  7  1  1  0  0  0
  3  2  1  0  0  0  0
  6  2  1  0  0  0  0
  8  9  1  0  0  0  0
 10  8  1  0  0  0  0
 11 16  1  0  0  0  0
 11 17  1  0  0  0  0
 12 11  2  0  0  0  0
 13 14  2  0  0  0  0
 13 12  1  0  0  0  0
 14 15  1  0  0  0  0
 15  8  1  0  0  0  0
 15 16  2  0  0  0  0
 18 12  1  0  0  0  0
 19 13  1  0  0  0  0
 20  3  1  0  0  0  0
 21 20  2  0  0  0  0
 22 20  1  0  0  0  0
 22 23  1  0  0  0  0
 23 24  1  0  0  0  0
 25 23  1  0  0  0  0
 25 24  1  0  0  0  0
M  END
>  <minimizedAffinity>
-4.87773085

>  <minimizedRMSD>
0.822041452

$$$$
