
 OpenBabel03252514043D

 39 43  0  0  1  0  0  0  0  0999 V2000
   33.7580   27.4140   48.0000 C   0  0  0  0  0  0  0  0  0  0  0  0
   34.0680   26.1980   47.7120 O   0  0  0  0  0  0  0  0  0  0  0  0
   35.3960   29.3140   48.7070 C   0  0  2  0  0  0  0  0  0  0  0  0
   34.1950   29.3200   49.5410 C   0  0  0  0  0  0  0  0  0  0  0  0
   34.6040   28.0210   49.1000 C   0  0  1  0  0  0  0  0  0  0  0  0
   35.4490   29.4610   47.6320 H   0  0  0  0  0  0  0  0  0  0  0  0
   34.3150   29.6480   50.6070 H   0  0  0  0  0  0  0  0  0  0  0  0
   33.2890   29.8230   49.1000 H   0  0  0  0  0  0  0  0  0  0  0  0
   35.2120   27.3160   49.6630 H   0  0  0  0  0  0  0  0  0  0  0  0
   36.7380   29.3550   49.4560 C   0  0  0  0  0  0  0  0  0  0  0  0
   37.2960   28.4520   49.1120 H   0  0  0  0  0  0  0  0  0  0  0  0
   36.5680   29.2720   50.5310 H   0  0  0  0  0  0  0  0  0  0  0  0
   38.0910   32.7490   49.4170 C   0  0  0  0  0  0  0  0  0  0  0  0
   38.7860   32.7870   48.1930 C   0  0  0  0  0  0  0  0  0  0  0  0
   38.7770   31.6250   47.3930 C   0  0  0  0  0  0  0  0  0  0  0  0
   38.0940   30.5310   47.8530 N   0  0  0  0  0  0  0  0  0  0  0  0
   37.4500   30.5480   49.0240 C   0  0  0  0  0  0  0  0  0  0  0  0
   37.4510   31.6630   49.8060 N   0  0  0  0  0  0  0  0  0  0  0  0
   38.1610   33.6920   49.9540 H   0  0  0  0  0  0  0  0  0  0  0  0
   39.3480   33.5730   47.7340 H   0  0  0  0  0  0  0  0  0  0  0  0
   39.2620   31.5250   46.4490 H   0  0  0  0  0  0  0  0  0  0  0  0
   32.7260   28.0230   47.3190 O   0  0  0  0  0  0  0  0  0  0  0  0
   31.4380   28.0930   47.7620 C   0  0  0  0  0  0  0  0  0  0  0  0
   30.9730   27.5830   49.0580 C   0  0  0  0  0  0  0  0  0  0  0  0
   29.6730   27.7020   49.4130 C   0  0  0  0  0  0  0  0  0  0  0  0
   28.7590   28.3220   48.5260 C   0  0  0  0  0  0  0  0  0  0  0  0
   29.8300   28.7770   47.0580 S   0  0  0  0  0  0  0  0  0  0  0  0
   31.7170   27.1190   49.6890 H   0  0  0  0  0  0  0  0  0  0  0  0
   29.3020   27.3400   50.3560 H   0  0  0  0  0  0  0  0  0  0  0  0
   27.3640   28.5180   48.7680 N   0  0  0  0  0  0  0  0  0  0  0  0
   26.5620   27.5320   49.1510 C   0  0  0  0  0  3  0  0  0  0  0  0
   25.3510   28.1010   49.2720 N   0  0  0  0  0  0  0  0  0  0  0  0
   25.4300   29.4080   48.9660 C   0  0  0  0  0  0  0  0  0  0  0  0
   24.4430   30.4000   48.9470 C   0  0  0  0  0  0  0  0  0  0  0  0
   23.4030   30.1760   49.2100 H   0  0  0  0  0  0  0  0  0  0  0  0
   24.8320   31.6570   48.5880 N   0  0  0  0  0  0  0  0  0  0  0  0
   26.1150   31.9150   48.2700 C   0  0  0  0  0  3  0  0  0  0  0  0
   27.0600   30.9530   48.2890 N   0  0  0  0  0  0  0  0  0  0  0  0
   26.7490   29.6980   48.6320 C   0  0  0  0  0  0  0  0  0  0  0  0
  1  5  1  0  0  0  0
  2  1  2  0  0  0  0
  3  6  1  6  0  0  0
  3  5  1  0  0  0  0
  3 10  1  0  0  0  0
  3  4  1  0  0  0  0
  4  7  1  0  0  0  0
  5  4  1  0  0  0  0
  5  9  1  1  0  0  0
  8  4  1  0  0  0  0
 10 12  1  0  0  0  0
 11 10  1  0  0  0  0
 13 18  1  0  0  0  0
 13 19  1  0  0  0  0
 14 13  2  0  0  0  0
 15 16  2  0  0  0  0
 15 14  1  0  0  0  0
 16 17  1  0  0  0  0
 17 10  1  0  0  0  0
 17 18  2  0  0  0  0
 20 14  1  0  0  0  0
 21 15  1  0  0  0  0
 22 23  1  0  0  0  0
 22  1  1  0  0  0  0
 23 24  2  0  0  0  0
 24 25  1  0  0  0  0
 24 28  1  0  0  0  0
 25 29  1  0  0  0  0
 26 30  1  0  0  0  0
 26 25  2  0  0  0  0
 27 23  1  0  0  0  0
 27 26  1  0  0  0  0
 30 31  1  0  0  0  0
 31 32  2  0  0  0  0
 33 32  1  0  0  0  0
 34 33  1  0  0  0  0
 34 35  1  0  0  0  0
 36 34  2  0  0  0  0
 37 38  2  0  0  0  0
 37 36  1  0  0  0  0
 38 39  1  0  0  0  0
 39 30  1  0  0  0  0
 39 33  2  0  0  0  0
M  END
>  <minimizedAffinity>
-6.69107199

>  <minimizedRMSD>
1.73821771

$$$$
