REMARK  Name = 
REMARK  6 active torsions:
REMARK  status: ('A' for Active; 'I' for Inactive)
REMARK    1  A    between atoms: C_1  and  C_4
REMARK    2  A    between atoms: C_3  and  C_11
REMARK    3  A    between atoms: C_4  and  C_9
REMARK    4  A    between atoms: C_11  and  O_13
REMARK    5  A    between atoms: O_13  and  C_14
REMARK    6  A    between atoms: C_17  and  N_30
REMARK                            x       y       z     vdW  Elec       q    Type
REMARK                         _______ _______ _______ _____ _____    ______ ____
ROOT
ATOM      1  C   UNL     1      33.566  27.582  48.298  0.00  0.00    +0.000 C 
ATOM      2  O   UNL     1      33.903  26.444  47.797  0.00  0.00    +0.000 OA
ENDROOT
BRANCH   1   5
ATOM      3  C   UNL     1      35.300  29.409  48.969  0.00  0.00    +0.000 C 
ATOM      4  C   UNL     1      34.187  29.369  49.916  0.00  0.00    +0.000 C 
ATOM      5  C   UNL     1      34.527  28.100  49.348  0.00  0.00    +0.000 C 
ATOM      6  H   UNL     1      35.250  29.631  47.907  0.00  0.00    +0.000 HD
ATOM      7  H   UNL     1      34.417  29.620  50.985  0.00  0.00    +0.000 HD
ATOM      8  H   UNL     1      33.252  29.912  49.603  0.00  0.00    +0.000 HD
ATOM      9  H   UNL     1      35.175  27.350  49.798  0.00  0.00    +0.000 HD
BRANCH   3  10
ATOM     10  C   UNL     1      36.710  29.382  49.582  0.00  0.00    +0.000 C 
ATOM     11  H   UNL     1      37.198  28.471  49.160  0.00  0.00    +0.000 HD
ATOM     12  H   UNL     1      36.643  29.272  50.666  0.00  0.00    +0.000 HD
BRANCH  10  17
ATOM     13  C   UNL     1      38.082  32.766  49.455  0.00  0.00    +0.000 A 
ATOM     14  C   UNL     1      38.749  32.779  48.215  0.00  0.00    +0.000 A 
ATOM     15  C   UNL     1      38.715  31.604  47.435  0.00  0.00    +0.000 A 
ATOM     16  N   UNL     1      38.036  30.522  47.929  0.00  0.00    +0.000 NA
ATOM     17  C   UNL     1      37.419  30.563  49.114  0.00  0.00    +0.000 A 
ATOM     18  N   UNL     1      37.444  31.691  49.877  0.00  0.00    +0.000 NA
ATOM     19  H   UNL     1      38.169  33.717  49.974  0.00  0.00    +0.000 HD
ATOM     20  H   UNL     1      39.305  33.553  47.730  0.00  0.00    +0.000 HD
ATOM     21  H   UNL     1      39.178  31.485  46.483  0.00  0.00    +0.000 HD
ENDBRANCH  10  17
ENDBRANCH   3  10
ENDBRANCH   1   5
BRANCH   1  22
ATOM     22  O   UNL     1      32.411  28.193  47.861  0.00  0.00    +0.000 OA
BRANCH  22  23
ATOM     23  C   UNL     1      31.150  27.811  48.211  0.00  0.00    +0.000 A 
ATOM     24  C   UNL     1      30.624  27.828  49.582  0.00  0.00    +0.000 A 
ATOM     25  C   UNL     1      29.354  27.434  49.832  0.00  0.00    +0.000 A 
ATOM     26  C   UNL     1      28.532  27.002  48.762  0.00  0.00    +0.000 A 
ATOM     27  S   UNL     1      29.651  27.166  47.269  0.00  0.00    +0.000 S 
ATOM     28  H   UNL     1      31.300  28.166  50.354  0.00  0.00    +0.000 HD
ATOM     29  H   UNL     1      28.939  27.436  50.825  0.00  0.00    +0.000 HD
BRANCH  26  30
ATOM     30  N   UNL     1      27.177  26.561  48.877  0.00  0.00    +0.000 N 
ATOM     31  C   UNL     1      26.790  25.344  48.513  0.00  0.00    +0.000 A 
ATOM     32  N   UNL     1      25.472  25.312  48.770  0.00  0.00    +0.000 NA
ATOM     33  C   UNL     1      25.078  26.493  49.280  0.00  0.00    +0.000 A 
ATOM     34  C   UNL     1      23.815  26.930  49.696  0.00  0.00    +0.000 A 
ATOM     35  H   UNL     1      22.937  26.277  49.637  0.00  0.00    +0.000 HD
ATOM     36  N   UNL     1      23.725  28.203  50.177  0.00  0.00    +0.000 NA
ATOM     37  C   UNL     1      24.815  28.992  50.243  0.00  0.00    +0.000 A 
ATOM     38  N   UNL     1      26.030  28.562  49.839  0.00  0.00    +0.000 NA
ATOM     39  C   UNL     1      26.190  27.325  49.356  0.00  0.00    +0.000 A 
ENDBRANCH  26  30
ENDBRANCH  22  23
ENDBRANCH   1  22
TORSDOF 6
