
 OpenBabel03252514063D

 24 26  0  0  0  0  0  0  0  0999 V2000
   38.4670   31.9120   47.8900 N   0  0  0  0  0  0  0  0  0  0  0  0
   39.0270   33.0970   48.1520 C   0  0  0  0  0  0  0  0  0  0  0  0
   39.7630   33.4750   47.0730 N   0  0  0  0  0  0  0  0  0  0  0  0
   39.6440   32.5150   46.1640 C   0  0  0  0  0  0  0  0  0  0  0  0
   40.1460   32.3190   44.8820 C   0  0  0  0  0  0  0  0  0  0  0  0
   39.8550   31.2210   44.1630 N   0  0  0  0  0  0  0  0  0  0  0  0
   39.0590   30.2470   44.6510 C   0  0  0  0  0  0  0  0  0  0  0  0
   38.5730   30.4330   45.8880 N   0  0  0  0  0  0  0  0  0  0  0  0
   38.8320   31.5150   46.6510 C   0  0  0  0  0  0  0  0  0  0  0  0
   40.9900   33.3050   44.3260 N   0  0  0  0  0  0  0  0  0  0  0  0
   38.8950   33.6380   49.0790 H   0  0  0  0  0  0  0  0  0  0  0  0
   38.8610   29.3920   44.0330 H   0  0  0  0  0  0  0  0  0  0  0  0
   41.9040   32.9620   43.9170 H   0  0  0  0  0  0  0  0  0  0  0  0
   40.5640   34.2730   44.4050 H   0  0  0  0  0  0  0  0  0  0  0  0
   36.3180   30.8940   48.3820 C   0  0  0  0  0  0  0  0  0  0  0  0
   37.6200   31.1950   48.7940 C   0  0  0  0  0  0  0  0  0  0  0  0
   38.0160   30.7690   50.0750 C   0  0  0  0  0  0  0  0  0  0  0  0
   37.1000   30.0930   50.8260 N   0  0  0  0  0  0  0  0  0  0  0  0
   35.8620   29.8180   50.4120 C   0  0  0  0  0  0  0  0  0  0  0  0
   35.4720   30.2230   49.1790 N   0  0  0  0  0  0  0  0  0  0  0  0
   35.9900   31.2150   47.3920 H   0  0  0  0  0  0  0  0  0  0  0  0
   39.0180   31.0050   50.3820 H   0  0  0  0  0  0  0  0  0  0  0  0
   34.7070   28.9250   51.4490 S   0  0  0  0  0  0  0  0  0  0  0  0
   33.8490   29.8460   52.1200 H   0  0  0  0  0  0  0  0  0  0  0  0
  1  2  1  0  0  0  0
  1 16  1  0  0  0  0
  2 11  1  0  0  0  0
  3  2  2  0  0  0  0
  4  9  1  0  0  0  0
  4  3  1  0  0  0  0
  5  4  2  0  0  0  0
  6  7  2  0  0  0  0
  6  5  1  0  0  0  0
  7  8  1  0  0  0  0
  8  9  2  0  0  0  0
  9  1  1  0  0  0  0
 10 14  1  0  0  0  0
 10  5  1  0  0  0  0
 12  7  1  0  0  0  0
 13 10  1  0  0  0  0
 15 16  2  0  0  0  0
 15 20  1  0  0  0  0
 16 17  1  0  0  0  0
 17 22  1  0  0  0  0
 17 18  2  0  0  0  0
 19 18  1  0  0  0  0
 19 23  1  0  0  0  0
 20 19  2  0  0  0  0
 21 15  1  0  0  0  0
 23 24  1  0  0  0  0
M  END
>  <minimizedAffinity>
-3.57870317

>  <minimizedRMSD>
1.33554351

$$$$
