
 OpenBabel03252512463D

 30 32  0  0  1  0  0  0  0  0999 V2000
   38.3640   31.1240   47.8260 C   0  0  0  0  0  0  0  0  0  0  0  0
   38.9370   32.4140   47.9160 C   0  0  0  0  0  0  0  0  0  0  0  0
   39.6150   32.7080   46.2350 S   0  0  0  0  0  0  0  0  0  0  0  0
   38.9850   30.9820   45.7030 C   0  0  0  0  0  0  0  0  0  0  0  0
   38.5070   30.5930   46.6250 N   0  0  0  0  0  0  0  0  0  0  0  0
   38.9520   33.0590   48.7990 H   0  0  0  0  0  0  0  0  0  0  0  0
   38.1240   30.8800   50.2710 C   0  0  0  0  0  0  0  0  0  0  0  0
   37.6970   30.5350   48.9870 C   0  0  0  0  0  0  0  0  0  0  0  0
   36.6360   29.6390   48.9100 C   0  0  0  0  0  0  0  0  0  0  0  0
   36.0730   29.1490   50.0320 N   0  0  0  0  0  0  0  0  0  0  0  0
   36.5170   29.5090   51.2500 C   0  0  0  0  0  0  0  0  0  0  0  0
   37.5440   30.3760   51.3640 N   0  0  0  0  0  0  0  0  0  0  0  0
   38.9380   31.5640   50.4580 H   0  0  0  0  0  0  0  0  0  0  0  0
   36.2820   29.3520   47.9320 H   0  0  0  0  0  0  0  0  0  0  0  0
   36.0650   29.1160   52.1540 H   0  0  0  0  0  0  0  0  0  0  0  0
   39.1780   30.4600   44.3140 C   0  0  2  0  0  0  0  0  0  0  0  0
   39.1150   29.3640   44.4170 H   0  0  0  0  0  0  0  0  0  0  0  0
   40.5190   30.8890   43.8280 C   0  0  0  0  0  0  0  0  0  0  0  0
   41.3200   30.7440   44.5470 H   0  0  0  0  0  0  0  0  0  0  0  0
   40.7090   30.4390   42.8130 H   0  0  0  0  0  0  0  0  0  0  0  0
   40.4610   31.9960   43.6220 H   0  0  0  0  0  0  0  0  0  0  0  0
   38.0770   31.0050   43.4280 C   0  0  0  0  0  0  0  0  0  0  0  0
   37.9250   32.0830   43.7020 H   0  0  0  0  0  0  0  0  0  0  0  0
   38.3640   30.9090   42.3830 H   0  0  0  0  0  0  0  0  0  0  0  0
   36.8260   30.2990   43.7620 C   0  0  0  0  0  0  0  0  0  0  0  0
   36.2970   29.0690   43.4760 C   0  0  0  0  0  0  0  0  0  0  0  0
   35.0810   28.9810   44.0830 N   0  0  0  0  0  0  0  0  0  0  0  0
   34.8380   30.1290   44.7410 C   0  0  0  0  0  0  0  0  0  0  0  0
   35.9010   30.9290   44.5430 N   0  0  0  0  0  0  0  0  0  0  0  0
   35.8880   31.8820   44.9890 H   0  0  0  0  0  0  0  0  0  0  0  0
  1  2  2  0  0  0  0
  1  8  1  0  0  0  0
  2  6  1  0  0  0  0
  3  2  1  0  0  0  0
  4  3  1  0  0  0  0
  4  5  2  0  0  0  0
  5  1  1  0  0  0  0
  7 13  1  0  0  0  0
  7 12  1  0  0  0  0
  8  7  2  0  0  0  0
  9  8  1  0  0  0  0
  9 10  2  0  0  0  0
 10 11  1  0  0  0  0
 11 12  2  0  0  0  0
 11 15  1  0  0  0  0
 14  9  1  0  0  0  0
 16 17  1  1  0  0  0
 16  4  1  0  0  0  0
 18 16  1  0  0  0  0
 18 19  1  0  0  0  0
 20 18  1  0  0  0  0
 21 18  1  0  0  0  0
 22 23  1  0  0  0  0
 22 25  1  0  0  0  0
 22 16  1  0  0  0  0
 24 22  1  0  0  0  0
 25 29  1  0  0  0  0
 26 25  2  0  0  0  0
 26 27  1  0  0  0  0
 27 28  2  0  0  0  0
 29 28  1  0  0  0  0
 29 30  1  0  0  0  0
M  END
>  <minimizedAffinity>
-5.01060772

>  <minimizedRMSD>
0.625189304

$$$$
