
 OpenBabel03252513053D

 35 37  0  0  0  0  0  0  0  0999 V2000
   38.8850   31.9130   46.2460 N   0  0  0  0  0  0  0  0  0  0  0  0
   40.0380   32.4420   45.9050 C   0  0  0  0  0  0  0  0  0  0  0  0
   40.7630   32.1370   44.7860 C   0  0  0  0  0  0  0  0  0  0  0  0
   40.2810   31.1970   43.9090 C   0  0  0  0  0  0  0  0  0  0  0  0
   40.8760   30.8570   42.8600 O   0  0  0  0  0  0  0  0  0  0  0  0
   39.1260   30.6470   44.2190 N   0  0  0  0  0  0  0  0  0  0  0  0
   38.4480   30.9760   45.3290 C   0  0  0  0  0  0  0  0  0  0  0  0
   37.3460   30.3870   45.5350 O   0  0  0  0  0  0  0  0  0  0  0  0
   40.4320   33.1990   46.6050 H   0  0  0  0  0  0  0  0  0  0  0  0
   41.7060   32.6300   44.5940 H   0  0  0  0  0  0  0  0  0  0  0  0
   37.5190   27.7990   41.6130 C   0  0  0  0  0  0  0  0  0  0  0  0
   37.1850   29.1430   41.5290 C   0  0  0  0  0  0  0  0  0  0  0  0
   37.6980   30.1060   42.3740 C   0  0  0  0  0  0  0  0  0  0  0  0
   38.5840   29.6620   43.3340 C   0  0  0  0  0  0  0  0  0  0  0  0
   38.9660   28.3410   43.4820 C   0  0  0  0  0  0  0  0  0  0  0  0
   38.4130   27.4210   42.5980 C   0  0  0  0  0  0  0  0  0  0  0  0
   35.4930   26.9730   40.3310 H   0  0  0  0  0  0  0  0  0  0  0  0
   36.8150   26.6520   40.4960 S   0  0  0  0  0  0  0  0  0  0  0  0
   37.0010   25.2670   41.0390 O   0  0  0  0  0  0  0  0  0  0  0  0
   37.5430   26.7390   39.1650 O   0  0  0  0  0  0  0  0  0  0  0  0
   38.0620   32.1530   47.3600 C   0  0  0  0  0  0  0  0  0  0  0  0
   37.0870   31.5930   47.2510 H   0  0  0  0  0  0  0  0  0  0  0  0
   37.7420   33.2350   47.3130 H   0  0  0  0  0  0  0  0  0  0  0  0
   38.5750   31.8970   48.7130 C   0  0  0  0  0  0  0  0  0  0  0  0
   38.6420   32.8320   49.3040 H   0  0  0  0  0  0  0  0  0  0  0  0
   39.6430   31.5450   48.6320 H   0  0  0  0  0  0  0  0  0  0  0  0
   36.2450   29.0940   49.7350 C   0  0  0  0  0  0  0  0  0  0  0  0
   36.9480   30.0050   48.9270 C   0  0  0  0  0  0  0  0  0  0  0  0
   37.8070   30.9150   49.4930 C   0  0  0  0  0  0  0  0  0  0  0  0
   37.9310   30.8790   50.8430 N   0  0  0  0  0  0  0  0  0  0  0  0
   37.2780   30.0290   51.6180 C   0  0  0  0  0  0  0  0  0  0  0  0
   36.4380   29.1400   51.0730 N   0  0  0  0  0  0  0  0  0  0  0  0
   35.5760   28.3970   49.2150 H   0  0  0  0  0  0  0  0  0  0  0  0
   36.8050   29.9820   47.8540 H   0  0  0  0  0  0  0  0  0  0  0  0
   37.4390   30.0750   52.6870 H   0  0  0  0  0  0  0  0  0  0  0  0
  1 21  1  0  0  0  0
  2  1  1  0  0  0  0
  2  9  1  0  0  0  0
  3  2  2  0  0  0  0
  4  6  1  0  0  0  0
  4  3  1  0  0  0  0
  5  4  2  0  0  0  0
  6  7  1  0  0  0  0
  7  8  2  0  0  0  0
  7  1  1  0  0  0  0
 10  3  1  0  0  0  0
 11 16  1  0  0  0  0
 12 11  2  0  0  0  0
 12 13  1  0  0  0  0
 13 14  2  0  0  0  0
 14 15  1  0  0  0  0
 14  6  1  0  0  0  0
 16 15  2  0  0  0  0
 17 18  1  0  0  0  0
 18 19  2  0  0  0  0
 18 11  1  0  0  0  0
 20 18  2  0  0  0  0
 21 24  1  0  0  0  0
 22 21  1  0  0  0  0
 23 21  1  0  0  0  0
 24 25  1  0  0  0  0
 24 29  1  0  0  0  0
 26 24  1  0  0  0  0
 27 32  1  0  0  0  0
 28 29  1  0  0  0  0
 28 27  2  0  0  0  0
 29 30  2  0  0  0  0
 30 31  1  0  0  0  0
 31 35  1  0  0  0  0
 32 31  2  0  0  0  0
 33 27  1  0  0  0  0
 34 28  1  0  0  0  0
M  END
>  <minimizedAffinity>
-5.32876444

>  <minimizedRMSD>
3.83018374

$$$$
