REMARK  Name = 
REMARK  7 active torsions:
REMARK  status: ('A' for Active; 'I' for Inactive)
REMARK    1  A    between atoms: N_1  and  C_12
REMARK    2  A    between atoms: C_5  and  N_10
REMARK    3  A    between atoms: C_15  and  C_17
REMARK    4  A    between atoms: C_17  and  C_18
REMARK    5  A    between atoms: C_17  and  C_19
REMARK    6  A    between atoms: C_17  and  C_20
REMARK    7  A    between atoms: C_20  and  C_35
REMARK                            x       y       z     vdW  Elec       q    Type
REMARK                         _______ _______ _______ _____ _____    ______ ____
ROOT
ATOM      1  C   UNL     1      34.655  29.985  47.398  0.00  0.00    +0.000 A 
ATOM      2  C   UNL     1      35.520  29.888  48.494  0.00  0.00    +0.000 A 
ATOM      3  C   UNL     1      35.434  28.732  49.267  0.00  0.00    +0.000 A 
ATOM      4  N   UNL     1      34.538  27.777  48.930  0.00  0.00    +0.000 NA
ATOM      5  C   UNL     1      33.717  27.889  47.876  0.00  0.00    +0.000 A 
ATOM      6  N   UNL     1      33.786  28.995  47.120  0.00  0.00    +0.000 NA
ATOM      7  H   UNL     1      34.682  30.860  46.768  0.00  0.00    +0.000 HD
ATOM      8  H   UNL     1      36.098  28.668  50.101  0.00  0.00    +0.000 HD
ENDROOT
BRANCH   2   9
ATOM      9  N   UNL     1      36.416  30.964  48.739  0.00  0.00    +0.000 N 
ATOM     10  C   UNL     1      36.393  31.733  49.867  0.00  0.00    +0.000 A 
ATOM     11  N   UNL     1      37.370  32.661  49.787  0.00  0.00    +0.000 NA
ATOM     12  C   UNL     1      37.986  32.460  48.615  0.00  0.00    +0.000 A 
ATOM     13  C   UNL     1      39.048  33.077  47.968  0.00  0.00    +0.000 A 
ATOM     14  N   UNL     1      39.477  32.663  46.764  0.00  0.00    +0.000 NA
ATOM     15  C   UNL     1      38.892  31.620  46.119  0.00  0.00    +0.000 A 
ATOM     16  N   UNL     1      37.864  31.025  46.747  0.00  0.00    +0.000 NA
ATOM     17  C   UNL     1      37.401  31.401  47.947  0.00  0.00    +0.000 A 
ATOM     18  H   UNL     1      35.721  31.662  50.731  0.00  0.00    +0.000 HD
ATOM     19  H   UNL     1      39.282  31.334  45.152  0.00  0.00    +0.000 HD
BRANCH  13  20
ATOM     20  N   UNL     1      39.694  34.171  48.600  0.00  0.00    +0.000 N 
ATOM     21  H   UNL     1      40.701  34.230  48.878  0.00  0.00    +0.000 HD
ATOM     22  H   UNL     1      39.174  35.028  48.836  0.00  0.00    +0.000 HD
ENDBRANCH  13  20
ENDBRANCH   2   9
BRANCH   5  23
ATOM     23  C   UNL     1      32.732  26.858  47.493  0.00  0.00    +0.000 C 
BRANCH  23  24
ATOM     24  C   UNL     1      31.538  26.903  48.433  0.00  0.00    +0.000 C 
ATOM     25  H   UNL     1      30.697  27.485  48.018  0.00  0.00    +0.000 HD
ATOM     26  H   UNL     1      31.860  27.380  49.402  0.00  0.00    +0.000 HD
ATOM     27  H   UNL     1      31.228  25.861  48.691  0.00  0.00    +0.000 HD
ENDBRANCH  23  24
BRANCH  23  28
ATOM     28  C   UNL     1      32.171  27.106  46.097  0.00  0.00    +0.000 C 
ATOM     29  H   UNL     1      32.986  27.189  45.347  0.00  0.00    +0.000 HD
ATOM     30  H   UNL     1      31.448  26.323  45.869  0.00  0.00    +0.000 HD
ATOM     31  H   UNL     1      31.599  28.068  46.165  0.00  0.00    +0.000 HD
ENDBRANCH  23  28
BRANCH  23  32
ATOM     32  C   UNL     1      33.330  25.471  47.468  0.00  0.00    +0.000 C 
ATOM     33  H   UNL     1      32.555  24.738  47.238  0.00  0.00    +0.000 HD
ATOM     34  H   UNL     1      33.782  25.223  48.456  0.00  0.00    +0.000 HD
BRANCH  32  35
ATOM     35  C   UNL     1      34.444  25.407  46.492  0.00  0.00    +0.000 A 
ATOM     36  C   UNL     1      35.607  24.670  46.409  0.00  0.00    +0.000 A 
ATOM     37  N   UNL     1      36.274  25.019  45.284  0.00  0.00    +0.000 NA
ATOM     38  C   UNL     1      35.550  25.965  44.654  0.00  0.00    +0.000 A 
ATOM     39  N   UNL     1      34.439  26.201  45.386  0.00  0.00    +0.000 N 
ATOM     40  H   UNL     1      33.712  26.908  45.095  0.00  0.00    +0.000 HD
ENDBRANCH  32  35
ENDBRANCH  23  32
ENDBRANCH   5  23
TORSDOF 7
