
 OpenBabel03252512123D

 28 31  0  0  0  0  0  0  0  0999 V2000
   35.6660   30.0550   47.8490 C   0  0  0  0  0  0  0  0  0  0  0  0
   36.6480   30.7070   47.1130 C   0  0  0  0  0  0  0  0  0  0  0  0
   37.6750   31.0390   47.9170 N   0  0  0  0  0  0  0  0  0  0  0  0
   37.3800   30.6130   49.1730 C   0  0  0  0  0  0  0  0  0  0  0  0
   38.0700   30.6880   50.3780 C   0  0  0  0  0  0  0  0  0  0  0  0
   37.5070   30.1570   51.5120 C   0  0  0  0  0  0  0  0  0  0  0  0
   36.2770   29.5620   51.4360 C   0  0  0  0  0  0  0  0  0  0  0  0
   35.5460   29.4610   50.2540 C   0  0  0  0  0  0  0  0  0  0  0  0
   36.1350   30.0010   49.1400 C   0  0  0  0  0  0  0  0  0  0  0  0
   36.6730   30.9530   46.0670 H   0  0  0  0  0  0  0  0  0  0  0  0
   38.5730   31.5420   47.6660 H   0  0  0  0  0  0  0  0  0  0  0  0
   39.0490   31.1610   50.4380 H   0  0  0  0  0  0  0  0  0  0  0  0
   37.9990   30.1870   52.4780 H   0  0  0  0  0  0  0  0  0  0  0  0
   35.8080   29.1340   52.3170 H   0  0  0  0  0  0  0  0  0  0  0  0
   34.5610   28.9780   50.2260 H   0  0  0  0  0  0  0  0  0  0  0  0
   32.3810   29.8460   46.1900 C   0  0  0  0  0  0  0  0  0  0  0  0
   32.1260   28.4660   46.2320 C   0  0  0  0  0  0  0  0  0  0  0  0
   33.0910   27.6500   46.8290 C   0  0  0  0  0  0  0  0  0  0  0  0
   34.2190   28.2170   47.3360 N   0  0  0  0  0  0  0  0  0  0  0  0
   34.4200   29.5620   47.2720 C   0  0  0  0  0  0  0  0  0  0  0  0
   33.5170   30.3530   46.7090 N   0  0  0  0  0  0  0  0  0  0  0  0
   31.6490   30.4860   45.7350 H   0  0  0  0  0  0  0  0  0  0  0  0
   31.2040   28.1180   45.8030 H   0  0  0  0  0  0  0  0  0  0  0  0
   32.8620   26.2360   46.8880 C   0  0  0  0  0  0  0  0  0  0  0  0
   33.6450   25.1820   47.2550 C   0  0  0  0  0  0  0  0  0  0  0  0
   33.1920   23.9160   47.2250 C   0  0  0  0  0  0  0  0  0  0  0  0
   31.7990   23.7780   46.7670 C   0  0  0  0  0  0  0  0  0  0  0  0
   31.3170   25.5520   46.4330 S   0  0  0  0  0  0  0  0  0  0  0  0
  1  9  1  0  0  0  0
  2  1  2  0  0  0  0
  2  3  1  0  0  0  0
  3  4  1  0  0  0  0
  4  5  1  0  0  0  0
  5 12  1  0  0  0  0
  5  6  2  0  0  0  0
  6 13  1  0  0  0  0
  7  6  1  0  0  0  0
  7 14  1  0  0  0  0
  8  7  2  0  0  0  0
  9  4  2  0  0  0  0
  9  8  1  0  0  0  0
 10  2  1  0  0  0  0
 11  3  1  0  0  0  0
 15  8  1  0  0  0  0
 16 17  2  0  0  0  0
 16 21  1  0  0  0  0
 17 18  1  0  0  0  0
 18 24  1  0  0  0  0
 18 19  2  0  0  0  0
 20 19  1  0  0  0  0
 20  1  1  0  0  0  0
 21 20  2  0  0  0  0
 22 16  1  0  0  0  0
 23 17  1  0  0  0  0
 24 25  2  0  0  0  0
 26 25  1  0  0  0  0
 27 26  2  0  0  0  0
 28 27  1  0  0  0  0
 28 24  1  0  0  0  0
M  END
>  <minimizedAffinity>
-5.692729

>  <minimizedRMSD>
0.219529778

$$$$
