
 OpenBabel03252514013D

 27 29  0  0  1  0  0  0  0  0999 V2000
   35.3930   29.4250   48.9710 C   0  0  2  0  0  0  0  0  0  0  0  0
   34.2480   29.4500   49.8910 C   0  0  0  0  0  0  0  0  0  0  0  0
   34.5980   28.1530   49.3330 C   0  0  1  0  0  0  0  0  0  0  0  0
   35.3300   29.6880   47.9130 H   0  0  0  0  0  0  0  0  0  0  0  0
   34.4860   29.7450   50.9400 H   0  0  0  0  0  0  0  0  0  0  0  0
   33.3010   29.9650   49.5510 H   0  0  0  0  0  0  0  0  0  0  0  0
   35.2430   27.4070   49.8200 H   0  0  0  0  0  0  0  0  0  0  0  0
   36.7890   29.4210   49.5990 C   0  0  0  0  0  0  0  0  0  0  0  0
   37.3100   28.4670   49.3820 H   0  0  0  0  0  0  0  0  0  0  0  0
   36.6580   29.4990   50.6900 H   0  0  0  0  0  0  0  0  0  0  0  0
   38.1750   32.8090   49.4500 C   0  0  0  0  0  0  0  0  0  0  0  0
   38.8230   32.8310   48.2060 C   0  0  0  0  0  0  0  0  0  0  0  0
   38.7740   31.6630   47.4250 C   0  0  0  0  0  0  0  0  0  0  0  0
   38.0930   30.5700   47.9250 N   0  0  0  0  0  0  0  0  0  0  0  0
   37.4950   30.6090   49.1180 C   0  0  0  0  0  0  0  0  0  0  0  0
   37.5410   31.7330   49.8720 N   0  0  0  0  0  0  0  0  0  0  0  0
   38.2040   33.6940   50.0600 H   0  0  0  0  0  0  0  0  0  0  0  0
   39.3280   33.7120   47.8870 H   0  0  0  0  0  0  0  0  0  0  0  0
   39.2620   31.6420   46.4590 H   0  0  0  0  0  0  0  0  0  0  0  0
   33.6610   27.6110   48.2930 C   0  0  0  0  0  0  0  0  0  0  0  0
   33.9350   26.4150   47.8900 O   0  0  0  0  0  0  0  0  0  0  0  0
   32.5660   28.2840   47.7740 O   0  0  0  0  0  0  0  0  0  0  0  0
   32.3610   28.4350   46.4010 C   0  0  0  0  0  3  0  0  0  0  0  0
   30.9690   28.1190   45.9460 C   0  0  0  0  0  2  0  0  0  0  0  0
   30.2370   29.3990   46.2910 C   0  0  0  0  0  2  0  0  0  0  0  0
   31.1490   30.4350   45.7010 C   0  0  0  0  0  2  0  0  0  0  0  0
   32.5250   29.8920   46.0200 C   0  0  0  0  0  2  0  0  0  0  0  0
  1  4  1  6  0  0  0
  1  3  1  0  0  0  0
  1  8  1  0  0  0  0
  1  2  1  0  0  0  0
  2  5  1  0  0  0  0
  3  7  1  1  0  0  0
  3  2  1  0  0  0  0
  6  2  1  0  0  0  0
  8 10  1  0  0  0  0
  9  8  1  0  0  0  0
 11 16  1  0  0  0  0
 11 17  1  0  0  0  0
 12 11  2  0  0  0  0
 13 14  2  0  0  0  0
 13 12  1  0  0  0  0
 14 15  1  0  0  0  0
 15  8  1  0  0  0  0
 15 16  2  0  0  0  0
 18 12  1  0  0  0  0
 19 13  1  0  0  0  0
 20  3  1  0  0  0  0
 21 20  2  0  0  0  0
 22 20  1  0  0  0  0
 23 22  1  0  0  0  0
 24 25  1  0  0  0  0
 24 23  1  0  0  0  0
 26 27  1  0  0  0  0
 26 25  1  0  0  0  0
 27 23  1  0  0  0  0
M  END
>  <minimizedAffinity>
-4.814219

>  <minimizedRMSD>
1.29777718

$$$$
