
 OpenBabel03252513383D

 24 25  0  0  0  0  0  0  0  0999 V2000
   36.9290   29.9220   49.8690 C   0  0  0  0  0  0  0  0  0  0  0  0
   38.0170   30.6650   49.4400 C   0  0  0  0  0  0  0  0  0  0  0  0
   38.0080   31.1160   48.1090 C   0  0  0  0  0  0  0  0  0  0  0  0
   36.9430   30.7990   47.3280 N   0  0  0  0  0  0  0  0  0  0  0  0
   35.9130   30.0720   47.8040 C   0  0  0  0  0  0  0  0  0  0  0  0
   35.9100   29.6350   49.0740 N   0  0  0  0  0  0  0  0  0  0  0  0
   39.0790   31.8770   47.6020 N   0  0  0  0  0  0  0  0  0  0  0  0
   38.9600   32.6050   46.3920 C   0  0  0  0  0  0  0  0  0  0  0  0
   37.9220   32.4000   45.6670 N   0  0  0  0  0  0  0  0  0  0  0  0
   39.9840   33.5230   46.0320 N   0  0  0  0  0  0  0  0  0  0  0  0
   37.8090   32.9920   44.8010 H   0  0  0  0  0  0  0  0  0  0  0  0
   38.8540   30.9170   50.0460 H   0  0  0  0  0  0  0  0  0  0  0  0
   39.9840   31.9160   48.1150 H   0  0  0  0  0  0  0  0  0  0  0  0
   39.9250   34.3460   46.6980 H   0  0  0  0  0  0  0  0  0  0  0  0
   40.6430   33.3580   45.2420 H   0  0  0  0  0  0  0  0  0  0  0  0
   34.7760   29.7490   46.9290 C   0  0  0  0  0  0  0  0  0  0  0  0
   33.5870   29.1960   47.3990 C   0  0  0  0  0  0  0  0  0  0  0  0
   32.5750   28.9230   46.5220 C   0  0  0  0  0  0  0  0  0  0  0  0
   32.7670   29.2180   45.1180 C   0  0  0  0  0  0  0  0  0  0  0  0
   34.5430   29.9280   45.1650 S   0  0  0  0  0  0  0  0  0  0  0  0
   36.9310   29.4360   51.2950 C   0  0  0  0  0  0  0  0  0  0  0  0
   35.6150   29.1650   51.6890 F   0  0  0  0  0  0  0  0  0  0  0  0
   37.7840   28.4070   51.4220 F   0  0  0  0  0  0  0  0  0  0  0  0
   37.3390   30.5230   52.0920 F   0  0  0  0  0  0  0  0  0  0  0  0
  1 21  1  0  0  0  0
  2  1  1  0  0  0  0
  2 12  1  0  0  0  0
  3  2  2  0  0  0  0
  4  5  2  0  0  0  0
  4  3  1  0  0  0  0
  5  6  1  0  0  0  0
  6  1  2  0  0  0  0
  7  3  1  0  0  0  0
  7 13  1  0  0  0  0
  8  7  1  0  0  0  0
  9  8  2  0  0  0  0
 10  8  1  0  0  0  0
 10 14  1  0  0  0  0
 11  9  1  0  0  0  0
 15 10  1  0  0  0  0
 16 17  2  0  0  0  0
 16  5  1  0  0  0  0
 18 17  1  0  0  0  0
 19 20  1  0  0  0  0
 19 18  2  0  0  0  0
 20 16  1  0  0  0  0
 21 23  1  0  0  0  0
 21 22  1  0  0  0  0
 21 24  1  0  0  0  0
M  END
>  <minimizedAffinity>
-6.45434761

>  <minimizedRMSD>
0.219583794

$$$$
