
 OpenBabel03252514023D

 27 29  0  0  1  0  0  0  0  0999 V2000
   35.3340   29.4340   49.0270 C   0  0  2  0  0  0  0  0  0  0  0  0
   34.2200   29.4080   49.9830 C   0  0  0  0  0  0  0  0  0  0  0  0
   34.5440   28.1460   49.3390 C   0  0  1  0  0  0  0  0  0  0  0  0
   35.2390   29.7600   47.9890 H   0  0  0  0  0  0  0  0  0  0  0  0
   34.4930   29.6390   51.0400 H   0  0  0  0  0  0  0  0  0  0  0  0
   33.2650   29.9460   49.7060 H   0  0  0  0  0  0  0  0  0  0  0  0
   35.1990   27.3690   49.7590 H   0  0  0  0  0  0  0  0  0  0  0  0
   36.7500   29.3870   49.6080 C   0  0  0  0  0  0  0  0  0  0  0  0
   37.2400   28.4250   49.3580 H   0  0  0  0  0  0  0  0  0  0  0  0
   36.6570   29.4480   50.7040 H   0  0  0  0  0  0  0  0  0  0  0  0
   38.1960   32.7490   49.4630 C   0  0  0  0  0  0  0  0  0  0  0  0
   38.8170   32.7720   48.2050 C   0  0  0  0  0  0  0  0  0  0  0  0
   38.7280   31.6140   47.4130 C   0  0  0  0  0  0  0  0  0  0  0  0
   38.0370   30.5290   47.9180 N   0  0  0  0  0  0  0  0  0  0  0  0
   37.4670   30.5660   49.1240 C   0  0  0  0  0  0  0  0  0  0  0  0
   37.5520   31.6800   49.8880 N   0  0  0  0  0  0  0  0  0  0  0  0
   38.2560   33.6270   50.0810 H   0  0  0  0  0  0  0  0  0  0  0  0
   39.3320   33.6470   47.8840 H   0  0  0  0  0  0  0  0  0  0  0  0
   39.1940   31.5950   46.4360 H   0  0  0  0  0  0  0  0  0  0  0  0
   33.5700   27.6710   48.2980 C   0  0  0  0  0  0  0  0  0  0  0  0
   33.9400   26.6120   47.6560 O   0  0  0  0  0  0  0  0  0  0  0  0
   32.3530   28.2670   48.0090 O   0  0  0  0  0  0  0  0  0  0  0  0
   31.1940   27.5260   47.7730 C   0  0  0  0  0  3  0  0  0  0  0  0
   30.6800   26.7860   48.9710 C   0  0  0  0  0  2  0  0  0  0  0  0
   29.9410   27.8810   49.7130 C   0  0  0  0  0  2  0  0  0  0  0  0
   29.1100   28.4770   48.6130 C   0  0  0  0  0  2  0  0  0  0  0  0
   30.0520   28.4600   47.4320 C   0  0  0  0  0  2  0  0  0  0  0  0
  1  4  1  6  0  0  0
  1  3  1  0  0  0  0
  1  8  1  0  0  0  0
  1  2  1  0  0  0  0
  2  5  1  0  0  0  0
  3  7  1  1  0  0  0
  3  2  1  0  0  0  0
  6  2  1  0  0  0  0
  8 10  1  0  0  0  0
  9  8  1  0  0  0  0
 11 16  1  0  0  0  0
 11 17  1  0  0  0  0
 12 11  2  0  0  0  0
 13 14  2  0  0  0  0
 13 12  1  0  0  0  0
 14 15  1  0  0  0  0
 15  8  1  0  0  0  0
 15 16  2  0  0  0  0
 18 12  1  0  0  0  0
 19 13  1  0  0  0  0
 20  3  1  0  0  0  0
 21 20  2  0  0  0  0
 22 20  1  0  0  0  0
 23 22  1  0  0  0  0
 23 24  1  0  0  0  0
 24 25  1  0  0  0  0
 26 25  1  0  0  0  0
 27 23  1  0  0  0  0
 27 26  1  0  0  0  0
M  END
>  <minimizedAffinity>
-5.22511005

>  <minimizedRMSD>
0.475992084

$$$$
