REMARK  Name = 
REMARK  7 active torsions:
REMARK  status: ('A' for Active; 'I' for Inactive)
REMARK    1  A    between atoms: N_1  and  C_12
REMARK    2  A    between atoms: C_5  and  N_10
REMARK    3  A    between atoms: C_15  and  C_17
REMARK    4  A    between atoms: C_17  and  C_18
REMARK    5  A    between atoms: C_17  and  C_19
REMARK    6  A    between atoms: C_17  and  C_20
REMARK    7  A    between atoms: C_20  and  C_35
REMARK                            x       y       z     vdW  Elec       q    Type
REMARK                         _______ _______ _______ _____ _____    ______ ____
ROOT
ATOM      1  C   UNL     1      34.661  29.983  47.402  0.00  0.00    +0.000 A 
ATOM      2  C   UNL     1      35.521  29.886  48.502  0.00  0.00    +0.000 A 
ATOM      3  C   UNL     1      35.426  28.735  49.262  0.00  0.00    +0.000 A 
ATOM      4  N   UNL     1      34.537  27.779  48.927  0.00  0.00    +0.000 NA
ATOM      5  C   UNL     1      33.723  27.883  47.878  0.00  0.00    +0.000 A 
ATOM      6  N   UNL     1      33.791  28.991  47.118  0.00  0.00    +0.000 NA
ATOM      7  H   UNL     1      34.685  30.852  46.771  0.00  0.00    +0.000 HD
ATOM      8  H   UNL     1      36.086  28.648  50.115  0.00  0.00    +0.000 HD
ENDROOT
BRANCH   2   9
ATOM      9  N   UNL     1      36.411  30.961  48.747  0.00  0.00    +0.000 N 
ATOM     10  C   UNL     1      36.387  31.735  49.867  0.00  0.00    +0.000 A 
ATOM     11  N   UNL     1      37.364  32.662  49.777  0.00  0.00    +0.000 NA
ATOM     12  C   UNL     1      37.989  32.456  48.598  0.00  0.00    +0.000 A 
ATOM     13  C   UNL     1      39.045  33.079  47.969  0.00  0.00    +0.000 A 
ATOM     14  N   UNL     1      39.483  32.665  46.764  0.00  0.00    +0.000 NA
ATOM     15  C   UNL     1      38.900  31.622  46.130  0.00  0.00    +0.000 A 
ATOM     16  N   UNL     1      37.871  31.024  46.755  0.00  0.00    +0.000 NA
ATOM     17  C   UNL     1      37.402  31.396  47.945  0.00  0.00    +0.000 A 
ATOM     18  H   UNL     1      35.688  31.614  50.691  0.00  0.00    +0.000 HD
ATOM     19  H   UNL     1      39.267  31.296  45.150  0.00  0.00    +0.000 HD
BRANCH  13  20
ATOM     20  N   UNL     1      39.685  34.174  48.595  0.00  0.00    +0.000 N 
ATOM     21  H   UNL     1      39.888  34.145  49.620  0.00  0.00    +0.000 HD
ATOM     22  H   UNL     1      39.965  35.020  48.059  0.00  0.00    +0.000 HD
ENDBRANCH  13  20
ENDBRANCH   2   9
BRANCH   5  23
ATOM     23  C   UNL     1      32.732  26.855  47.476  0.00  0.00    +0.000 C 
BRANCH  23  24
ATOM     24  C   UNL     1      31.547  26.904  48.455  0.00  0.00    +0.000 C 
ATOM     25  H   UNL     1      31.870  26.507  49.431  0.00  0.00    +0.000 HD
ATOM     26  H   UNL     1      30.740  26.311  48.011  0.00  0.00    +0.000 HD
ATOM     27  H   UNL     1      31.202  27.955  48.501  0.00  0.00    +0.000 HD
ENDBRANCH  23  24
BRANCH  23  28
ATOM     28  C   UNL     1      32.155  27.122  46.105  0.00  0.00    +0.000 C 
ATOM     29  H   UNL     1      32.578  28.089  45.734  0.00  0.00    +0.000 HD
ATOM     30  H   UNL     1      31.057  27.277  46.113  0.00  0.00    +0.000 HD
ATOM     31  H   UNL     1      32.345  26.316  45.374  0.00  0.00    +0.000 HD
ENDBRANCH  23  28
BRANCH  23  32
ATOM     32  C   UNL     1      33.330  25.470  47.456  0.00  0.00    +0.000 C 
ATOM     33  H   UNL     1      32.504  24.783  47.182  0.00  0.00    +0.000 HD
ATOM     34  H   UNL     1      33.734  25.270  48.470  0.00  0.00    +0.000 HD
BRANCH  32  35
ATOM     35  C   UNL     1      34.438  25.491  46.485  0.00  0.00    +0.000 A 
ATOM     36  N   UNL     1      35.188  26.596  46.211  0.00  0.00    +0.000 NA
ATOM     37  O   UNL     1      36.085  26.305  45.317  0.00  0.00    +0.000 OA
ATOM     38  C   UNL     1      35.960  25.048  44.986  0.00  0.00    +0.000 A 
ATOM     39  H   UNL     1      36.654  24.673  44.241  0.00  0.00    +0.000 HD
ATOM     40  N   UNL     1      34.946  24.522  45.697  0.00  0.00    +0.000 NA
ENDBRANCH  32  35
ENDBRANCH  23  32
ENDBRANCH   5  23
TORSDOF 7
