
 OpenBabel03252513223D

 17 18  0  0  0  0  0  0  0  0999 V2000
   35.3850   29.1300   50.4150 C   0  0  0  0  0  0  0  0  0  0  0  0
   36.1220   30.1530   49.7990 C   0  0  0  0  0  0  0  0  0  0  0  0
   35.7850   30.5130   48.4810 C   0  0  0  0  0  0  0  0  0  0  0  0
   34.7510   29.8410   47.8700 N   0  0  0  0  0  0  0  0  0  0  0  0
   34.0720   28.8640   48.5080 C   0  0  0  0  0  0  0  0  0  0  0  0
   34.3890   28.5210   49.7540 N   0  0  0  0  0  0  0  0  0  0  0  0
   35.7300   28.9430   51.4160 H   0  0  0  0  0  0  0  0  0  0  0  0
   36.3270   31.2960   47.9670 H   0  0  0  0  0  0  0  0  0  0  0  0
   33.0140   28.1960   47.8440 C   0  0  0  0  0  0  0  0  0  0  0  0
   32.0300   27.6470   48.6050 C   0  0  0  0  0  0  0  0  0  0  0  0
   30.9100   26.9600   48.2670 C   0  0  0  0  0  0  0  0  0  0  0  0
   30.9160   26.8840   46.7620 C   0  0  0  0  0  0  0  0  0  0  0  0
   32.4790   27.7880   46.1760 S   0  0  0  0  0  0  0  0  0  0  0  0
   37.2420   30.8830   50.4570 C   0  0  0  0  0  0  0  0  0  0  0  0
   38.4680   30.6110   49.9510 F   0  0  0  0  0  0  0  0  0  0  0  0
   37.2880   30.5810   51.8000 F   0  0  0  0  0  0  0  0  0  0  0  0
   37.0340   32.2570   50.3260 F   0  0  0  0  0  0  0  0  0  0  0  0
  1  7  1  0  0  0  0
  2  1  1  0  0  0  0
  2 14  1  0  0  0  0
  3  2  2  0  0  0  0
  4  3  1  0  0  0  0
  4  5  2  0  0  0  0
  5  6  1  0  0  0  0
  6  1  2  0  0  0  0
  8  3  1  0  0  0  0
  9  5  1  0  0  0  0
  9 10  2  0  0  0  0
 11 10  1  0  0  0  0
 12 11  2  0  0  0  0
 13 12  1  0  0  0  0
 13  9  1  0  0  0  0
 14 16  1  0  0  0  0
 15 14  1  0  0  0  0
 17 14  1  0  0  0  0
M  END
>  <minimizedAffinity>
-4.91876888

>  <minimizedRMSD>
0.686983049

$$$$
