
 OpenBabel03252514023D

 27 29  0  0  1  0  0  0  0  0999 V2000
   35.1830   29.3700   48.9860 C   0  0  2  0  0  0  0  0  0  0  0  0
   34.0770   29.2310   49.9420 C   0  0  0  0  0  0  0  0  0  0  0  0
   34.4360   28.0360   49.1970 C   0  0  1  0  0  0  0  0  0  0  0  0
   35.0700   29.7750   47.9780 H   0  0  0  0  0  0  0  0  0  0  0  0
   34.3490   29.3840   51.0130 H   0  0  0  0  0  0  0  0  0  0  0  0
   33.1030   29.7590   49.7130 H   0  0  0  0  0  0  0  0  0  0  0  0
   35.1190   27.2490   49.5500 H   0  0  0  0  0  0  0  0  0  0  0  0
   36.6030   29.3220   49.5560 C   0  0  0  0  0  0  0  0  0  0  0  0
   37.1190   28.3940   49.2360 H   0  0  0  0  0  0  0  0  0  0  0  0
   36.5160   29.3030   50.6540 H   0  0  0  0  0  0  0  0  0  0  0  0
   37.7470   32.8010   49.5230 C   0  0  0  0  0  0  0  0  0  0  0  0
   38.5690   32.8540   48.3870 C   0  0  0  0  0  0  0  0  0  0  0  0
   38.7200   31.6740   47.6380 C   0  0  0  0  0  0  0  0  0  0  0  0
   38.0530   30.5400   48.0620 N   0  0  0  0  0  0  0  0  0  0  0  0
   37.2840   30.5520   49.1530 C   0  0  0  0  0  0  0  0  0  0  0  0
   37.1370   31.6870   49.8760 N   0  0  0  0  0  0  0  0  0  0  0  0
   37.6210   33.6960   50.1070 H   0  0  0  0  0  0  0  0  0  0  0  0
   39.0500   33.7650   48.1230 H   0  0  0  0  0  0  0  0  0  0  0  0
   39.3450   31.6750   46.7540 H   0  0  0  0  0  0  0  0  0  0  0  0
   33.4710   27.6150   48.1260 C   0  0  0  0  0  0  0  0  0  0  0  0
   33.8450   26.5880   47.4360 O   0  0  0  0  0  0  0  0  0  0  0  0
   32.2580   28.2280   47.8550 O   0  0  0  0  0  0  0  0  0  0  0  0
   31.0720   27.5080   47.7070 C   0  0  0  0  0  3  0  0  0  0  0  0
   30.6340   26.7800   48.9410 C   0  0  0  0  0  2  0  0  0  0  0  0
   29.9690   27.8900   49.7310 C   0  0  0  0  0  2  0  0  0  0  0  0
   29.0720   28.4990   48.6930 C   0  0  0  0  0  2  0  0  0  0  0  0
   29.9250   28.4620   47.4450 C   0  0  0  0  0  2  0  0  0  0  0  0
  1  4  1  6  0  0  0
  1  3  1  0  0  0  0
  1  8  1  0  0  0  0
  1  2  1  0  0  0  0
  2  5  1  0  0  0  0
  3  7  1  1  0  0  0
  3  2  1  0  0  0  0
  6  2  1  0  0  0  0
  8 10  1  0  0  0  0
  9  8  1  0  0  0  0
 11 16  1  0  0  0  0
 11 17  1  0  0  0  0
 12 11  2  0  0  0  0
 13 14  2  0  0  0  0
 13 12  1  0  0  0  0
 14 15  1  0  0  0  0
 15  8  1  0  0  0  0
 15 16  2  0  0  0  0
 18 12  1  0  0  0  0
 19 13  1  0  0  0  0
 20  3  1  0  0  0  0
 21 20  2  0  0  0  0
 22 20  1  0  0  0  0
 23 22  1  0  0  0  0
 23 24  1  0  0  0  0
 24 25  1  0  0  0  0
 26 25  1  0  0  0  0
 27 23  1  0  0  0  0
 27 26  1  0  0  0  0
M  END
>  <minimizedAffinity>
-5.176332

>  <minimizedRMSD>
1.45755446

$$$$
