
 OpenBabel03252514043D

 34 37  0  0  1  0  0  0  0  0999 V2000
   35.2530   29.1370   48.5220 C   0  0  2  0  0  0  0  0  0  0  0  0
   33.9980   29.3810   49.2250 C   0  0  0  0  0  0  0  0  0  0  0  0
   34.3210   27.9930   49.0420 C   0  0  1  0  0  0  0  0  0  0  0  0
   35.4010   29.2160   47.4470 H   0  0  0  0  0  0  0  0  0  0  0  0
   34.0790   29.8230   50.2620 H   0  0  0  0  0  0  0  0  0  0  0  0
   33.1800   29.8780   48.6410 H   0  0  0  0  0  0  0  0  0  0  0  0
   34.8240   27.3130   49.7270 H   0  0  0  0  0  0  0  0  0  0  0  0
   36.5340   29.2030   49.3670 C   0  0  0  0  0  0  0  0  0  0  0  0
   37.1520   28.3140   49.1970 H   0  0  0  0  0  0  0  0  0  0  0  0
   36.2520   29.1830   50.4380 H   0  0  0  0  0  0  0  0  0  0  0  0
   37.5580   32.7040   49.6030 C   0  0  0  0  0  0  0  0  0  0  0  0
   38.4470   32.8360   48.5230 C   0  0  0  0  0  0  0  0  0  0  0  0
   38.6810   31.6990   47.7190 C   0  0  0  0  0  0  0  0  0  0  0  0
   38.0330   30.5330   48.0360 N   0  0  0  0  0  0  0  0  0  0  0  0
   37.1890   30.4700   49.0900 C   0  0  0  0  0  0  0  0  0  0  0  0
   36.9630   31.5590   49.8620 N   0  0  0  0  0  0  0  0  0  0  0  0
   37.4560   33.6340   50.1480 H   0  0  0  0  0  0  0  0  0  0  0  0
   38.9910   33.7210   48.2150 H   0  0  0  0  0  0  0  0  0  0  0  0
   39.3300   31.6610   46.8700 H   0  0  0  0  0  0  0  0  0  0  0  0
   33.5050   27.2790   47.9790 C   0  0  0  0  0  0  0  0  0  0  0  0
   33.8930   26.0610   47.7840 O   0  0  0  0  0  0  0  0  0  0  0  0
   32.4370   27.8030   47.2540 O   0  0  0  0  0  0  0  0  0  0  0  0
   31.2070   28.0520   47.7950 C   0  0  0  0  0  0  0  0  0  0  0  0
   30.7600   27.6150   49.1370 C   0  0  0  0  0  0  0  0  0  0  0  0
   29.5110   27.9390   49.5350 C   0  0  0  0  0  0  0  0  0  0  0  0
   28.6480   28.6750   48.7010 C   0  0  0  0  0  0  0  0  0  0  0  0
   29.6640   28.9600   47.1840 S   0  0  0  0  0  0  0  0  0  0  0  0
   31.4470   27.0650   49.7240 H   0  0  0  0  0  0  0  0  0  0  0  0
   29.0860   27.6730   50.4850 H   0  0  0  0  0  0  0  0  0  0  0  0
   27.3410   29.1510   48.8220 C   0  0  0  0  0  0  0  0  0  0  0  0
   26.9530   30.4310   48.6920 C   0  0  0  0  0  3  0  0  0  0  0  0
   25.6370   30.7720   48.8330 C   0  0  0  0  0  3  0  0  0  0  0  0
   24.7340   29.6690   49.1270 C   0  0  0  0  0  3  0  0  0  0  0  0
   25.9500   28.2130   49.1620 S   0  0  0  0  0  0  0  0  0  0  0  0
  1  4  1  6  0  0  0
  1  3  1  0  0  0  0
  1  2  1  0  0  0  0
  1  8  1  0  0  0  0
  2  5  1  0  0  0  0
  3  2  1  0  0  0  0
  3  7  1  1  0  0  0
  6  2  1  0  0  0  0
  8 10  1  0  0  0  0
  9  8  1  0  0  0  0
 11 16  1  0  0  0  0
 11 17  1  0  0  0  0
 12 11  2  0  0  0  0
 13 14  2  0  0  0  0
 13 12  1  0  0  0  0
 14 15  1  0  0  0  0
 15  8  1  0  0  0  0
 15 16  2  0  0  0  0
 18 12  1  0  0  0  0
 19 13  1  0  0  0  0
 20  3  1  0  0  0  0
 21 20  2  0  0  0  0
 22 23  1  0  0  0  0
 22 20  1  0  0  0  0
 23 24  2  0  0  0  0
 24 25  1  0  0  0  0
 24 28  1  0  0  0  0
 25 29  1  0  0  0  0
 26 30  1  0  0  0  0
 26 25  2  0  0  0  0
 27 23  1  0  0  0  0
 27 26  1  0  0  0  0
 30 34  1  0  0  0  0
 31 30  2  0  0  0  0
 31 32  1  0  0  0  0
 32 33  2  0  0  0  0
 33 34  1  0  0  0  0
M  END
>  <minimizedAffinity>
-6.16601133

>  <minimizedRMSD>
1.83993125

$$$$
