
 OpenBabel03252510043D

 28 29  0  0  0  0  0  0  0  0999 V2000
   39.2390   32.2920   46.0470 C   0  0  0  0  0  0  0  0  0  0  0  0
   38.0080   32.7360   49.6150 C   0  0  0  0  0  0  0  0  0  0  0  0
   38.7840   32.9460   48.4640 C   0  0  0  0  0  0  0  0  0  0  0  0
   38.5130   32.1870   47.3250 C   0  0  0  0  0  0  0  0  0  0  0  0
   37.4890   31.2690   47.4000 N   0  0  0  0  0  0  0  0  0  0  0  0
   36.7660   31.0930   48.5130 C   0  0  0  0  0  0  0  0  0  0  0  0
   37.0110   31.8150   49.6260 N   0  0  0  0  0  0  0  0  0  0  0  0
   38.3180   33.3810   50.4190 H   0  0  0  0  0  0  0  0  0  0  0  0
   39.5840   33.6560   48.3950 H   0  0  0  0  0  0  0  0  0  0  0  0
   35.9630   30.3620   48.5410 H   0  0  0  0  0  0  0  0  0  0  0  0
   40.0020   30.9980   45.8470 C   0  0  0  0  0  0  0  0  0  0  0  0
   39.4100   30.0970   46.1160 H   0  0  0  0  0  0  0  0  0  0  0  0
   40.4900   30.9230   44.8590 H   0  0  0  0  0  0  0  0  0  0  0  0
   40.8570   31.0240   46.5820 H   0  0  0  0  0  0  0  0  0  0  0  0
   40.2040   33.4350   46.0020 C   0  0  0  0  0  0  0  0  0  0  0  0
   40.7820   33.3540   45.0570 H   0  0  0  0  0  0  0  0  0  0  0  0
   40.9510   33.3420   46.8270 H   0  0  0  0  0  0  0  0  0  0  0  0
   39.7050   34.4180   46.0630 H   0  0  0  0  0  0  0  0  0  0  0  0
   38.2340   32.4650   44.9470 C   0  0  0  0  0  0  0  0  0  0  0  0
   38.0210   33.5620   44.8190 H   0  0  0  0  0  0  0  0  0  0  0  0
   37.2280   32.0410   45.2260 H   0  0  0  0  0  0  0  0  0  0  0  0
   38.6120   31.8250   43.6790 C   0  0  0  0  0  0  0  0  0  0  0  0
   37.9750   30.6460   43.2840 C   0  0  0  0  0  0  0  0  0  0  0  0
   38.2790   29.9810   42.0960 C   0  0  0  0  0  0  0  0  0  0  0  0
   37.7570   29.0680   41.8320 H   0  0  0  0  0  0  0  0  0  0  0  0
   39.2340   30.5070   41.2940 N   0  0  0  0  0  0  0  0  0  0  0  0
   39.8530   31.6430   41.6660 C   0  0  0  0  0  0  0  0  0  0  0  0
   39.5440   32.2660   42.8160 N   0  0  0  0  0  0  0  0  0  0  0  0
  1  4  1  0  0  0  0
  2  7  1  0  0  0  0
  2  8  1  0  0  0  0
  3  2  2  0  0  0  0
  4  5  2  0  0  0  0
  4  3  1  0  0  0  0
  5  6  1  0  0  0  0
  6 10  1  0  0  0  0
  6  7  2  0  0  0  0
  9  3  1  0  0  0  0
 11  1  1  0  0  0  0
 11 12  1  0  0  0  0
 11 14  1  0  0  0  0
 13 11  1  0  0  0  0
 15  1  1  0  0  0  0
 15 18  1  0  0  0  0
 15 17  1  0  0  0  0
 16 15  1  0  0  0  0
 19 21  1  0  0  0  0
 19  1  1  0  0  0  0
 20 19  1  0  0  0  0
 22 19  1  0  0  0  0
 23 22  1  0  0  0  0
 24 23  2  0  0  0  0
 25 24  1  0  0  0  0
 26 27  2  0  0  0  0
 26 24  1  0  0  0  0
 27 28  1  0  0  0  0
 28 22  2  0  0  0  0
M  END
>  <minimizedAffinity>
-4.61355448

>  <minimizedRMSD>
1.06982243

$$$$
