
 OpenBabel03252514013D

 31 33  0  0  1  0  0  0  0  0999 V2000
   35.5150   29.5270   49.2070 C   0  0  2  0  0  0  0  0  0  0  0  0
   34.5070   29.4980   50.2740 C   0  0  0  0  0  0  0  0  0  0  0  0
   34.7680   28.2370   49.5920 C   0  0  1  0  0  0  0  0  0  0  0  0
   35.2710   29.9100   48.2170 H   0  0  0  0  0  0  0  0  0  0  0  0
   34.9020   29.5640   51.3250 H   0  0  0  0  0  0  0  0  0  0  0  0
   33.5120   29.9840   50.2020 H   0  0  0  0  0  0  0  0  0  0  0  0
   35.4750   27.4320   49.8640 H   0  0  0  0  0  0  0  0  0  0  0  0
   36.9820   29.4770   49.6290 C   0  0  0  0  0  0  0  0  0  0  0  0
   36.9960   29.5520   50.7340 H   0  0  0  0  0  0  0  0  0  0  0  0
   37.3920   28.5170   49.2920 H   0  0  0  0  0  0  0  0  0  0  0  0
   38.3810   32.8460   49.2720 C   0  0  0  0  0  0  0  0  0  0  0  0
   38.9080   32.8290   47.9710 C   0  0  0  0  0  0  0  0  0  0  0  0
   38.7750   31.6480   47.2260 C   0  0  0  0  0  0  0  0  0  0  0  0
   38.1370   30.5770   47.8140 N   0  0  0  0  0  0  0  0  0  0  0  0
   37.6530   30.6460   49.0550 C   0  0  0  0  0  0  0  0  0  0  0  0
   37.7780   31.7830   49.7780 N   0  0  0  0  0  0  0  0  0  0  0  0
   38.4790   33.7520   49.8540 H   0  0  0  0  0  0  0  0  0  0  0  0
   39.3950   33.7230   47.5940 H   0  0  0  0  0  0  0  0  0  0  0  0
   39.1760   31.6400   46.2430 H   0  0  0  0  0  0  0  0  0  0  0  0
   33.6740   27.7820   48.6640 C   0  0  0  0  0  0  0  0  0  0  0  0
   34.0760   27.0260   47.6910 O   0  0  0  0  0  0  0  0  0  0  0  0
   32.3240   28.0830   48.7660 O   0  0  0  0  0  0  0  0  0  0  0  0
   31.4280   27.5950   47.8260 C   0  0  0  0  0  0  0  0  0  0  0  0
   30.7970   26.3680   47.7900 C   0  0  0  0  0  0  0  0  0  0  0  0
   31.0470   25.7240   48.6070 H   0  0  0  0  0  0  0  0  0  0  0  0
   29.9280   26.0830   46.7470 C   0  0  0  0  0  3  0  0  0  0  0  0
   29.7020   27.0200   45.7570 C   0  0  0  0  0  0  0  0  0  0  0  0
   29.0120   26.7840   44.9350 H   0  0  0  0  0  0  0  0  0  0  0  0
   30.3260   28.2610   45.7720 C   0  0  0  0  0  0  0  0  0  0  0  0
   30.1250   28.9790   44.9730 H   0  0  0  0  0  0  0  0  0  0  0  0
   31.2010   28.5440   46.8250 C   0  0  0  0  0  3  0  0  0  0  0  0
  1  4  1  6  0  0  0
  1  3  1  0  0  0  0
  1  8  1  0  0  0  0
  1  2  1  0  0  0  0
  2  5  1  0  0  0  0
  3  7  1  1  0  0  0
  3  2  1  0  0  0  0
  6  2  1  0  0  0  0
  8  9  1  0  0  0  0
 10  8  1  0  0  0  0
 11 16  1  0  0  0  0
 11 17  1  0  0  0  0
 12 11  2  0  0  0  0
 13 14  2  0  0  0  0
 13 12  1  0  0  0  0
 14 15  1  0  0  0  0
 15  8  1  0  0  0  0
 15 16  2  0  0  0  0
 18 12  1  0  0  0  0
 19 13  1  0  0  0  0
 20 22  1  0  0  0  0
 20  3  1  0  0  0  0
 21 20  2  0  0  0  0
 23 22  1  0  0  0  0
 24 23  1  0  0  0  0
 24 25  1  0  0  0  0
 26 24  2  0  0  0  0
 27 29  2  0  0  0  0
 27 26  1  0  0  0  0
 28 27  1  0  0  0  0
 29 31  1  0  0  0  0
 30 29  1  0  0  0  0
 31 23  2  0  0  0  0
M  END
>  <minimizedAffinity>
-4.90467358

>  <minimizedRMSD>
0.492858618

$$$$
