
 OpenBabel03252514043D

 36 39  0  0  1  0  0  0  0  0999 V2000
   36.5470   30.3650   50.1300 C   0  0  2  0  0  0  0  0  0  0  0  0
   36.1170   29.5350   51.2510 C   0  0  0  0  0  0  0  0  0  0  0  0
   35.7140   29.0500   49.9650 C   0  0  1  0  0  0  0  0  0  0  0  0
   36.0260   31.2780   49.8450 H   0  0  0  0  0  0  0  0  0  0  0  0
   35.4070   29.9940   51.9970 H   0  0  0  0  0  0  0  0  0  0  0  0
   36.9090   28.9670   51.8020 H   0  0  0  0  0  0  0  0  0  0  0  0
   36.2310   28.2980   49.3690 H   0  0  0  0  0  0  0  0  0  0  0  0
   37.9890   30.1420   49.6410 C   0  0  0  0  0  0  0  0  0  0  0  0
   37.9180   29.2820   48.9430 H   0  0  0  0  0  0  0  0  0  0  0  0
   38.6400   29.8960   50.4970 H   0  0  0  0  0  0  0  0  0  0  0  0
   38.9900   33.6330   49.2660 C   0  0  0  0  0  0  0  0  0  0  0  0
   39.3240   33.7110   47.8950 C   0  0  0  0  0  0  0  0  0  0  0  0
   39.1950   32.5350   47.1180 C   0  0  0  0  0  0  0  0  0  0  0  0
   38.7530   31.3970   47.7430 N   0  0  0  0  0  0  0  0  0  0  0  0
   38.4520   31.3810   49.0420 C   0  0  0  0  0  0  0  0  0  0  0  0
   38.5750   32.5070   49.7930 N   0  0  0  0  0  0  0  0  0  0  0  0
   39.1210   34.5800   49.7780 H   0  0  0  0  0  0  0  0  0  0  0  0
   39.6680   34.6300   47.4400 H   0  0  0  0  0  0  0  0  0  0  0  0
   39.4460   32.5770   46.0670 H   0  0  0  0  0  0  0  0  0  0  0  0
   34.2510   29.2320   49.6220 C   0  0  0  0  0  0  0  0  0  0  0  0
   33.5240   29.5370   50.6470 O   0  0  0  0  0  0  0  0  0  0  0  0
   33.6800   29.1120   48.3620 O   0  0  0  0  0  0  0  0  0  0  0  0
   32.8280   28.1120   48.0020 C   0  0  0  0  0  0  0  0  0  0  0  0
   31.6470   27.7000   48.7820 C   0  0  0  0  0  0  0  0  0  0  0  0
   30.8560   26.6930   48.3380 C   0  0  0  0  0  0  0  0  0  0  0  0
   31.1770   26.0410   47.1180 C   0  0  0  0  0  0  0  0  0  0  0  0
   32.7180   26.9170   46.5490 S   0  0  0  0  0  0  0  0  0  0  0  0
   31.4510   28.2290   49.7010 H   0  0  0  0  0  0  0  0  0  0  0  0
   29.9820   26.3450   48.8560 H   0  0  0  0  0  0  0  0  0  0  0  0
   30.5800   25.0240   46.4430 C   0  0  0  0  0  0  0  0  0  0  0  0
   31.2260   23.8360   46.1560 C   0  0  0  0  0  3  0  0  0  0  0  0
   30.6280   22.7960   45.4700 C   0  0  0  0  0  3  0  0  0  0  0  0
   29.3450   22.9900   45.0780 N   0  0  0  0  0  0  0  0  0  0  0  0
   28.6850   24.1360   45.3400 C   0  0  0  0  0  0  0  0  0  0  0  0
   27.6660   24.2330   45.0050 H   0  0  0  0  0  0  0  0  0  0  0  0
   29.3100   25.1250   46.0140 N   0  0  0  0  0  0  0  0  0  0  0  0
  1  4  1  6  0  0  0
  1  2  1  0  0  0  0
  2  6  1  0  0  0  0
  2  5  1  0  0  0  0
  3  7  1  6  0  0  0
  3  1  1  0  0  0  0
  3  2  1  0  0  0  0
  8  1  1  0  0  0  0
  8 10  1  0  0  0  0
  9  8  1  0  0  0  0
 11 17  1  0  0  0  0
 11 16  1  0  0  0  0
 12 11  2  0  0  0  0
 13 14  2  0  0  0  0
 13 12  1  0  0  0  0
 14 15  1  0  0  0  0
 15  8  1  0  0  0  0
 15 16  2  0  0  0  0
 18 12  1  0  0  0  0
 19 13  1  0  0  0  0
 20  3  1  0  0  0  0
 20 21  2  0  0  0  0
 22 20  1  0  0  0  0
 23 22  1  0  0  0  0
 23 24  2  0  0  0  0
 24 28  1  0  0  0  0
 25 24  1  0  0  0  0
 25 29  1  0  0  0  0
 26 25  2  0  0  0  0
 27 26  1  0  0  0  0
 27 23  1  0  0  0  0
 30 26  1  0  0  0  0
 31 30  1  0  0  0  0
 32 31  2  0  0  0  0
 33 34  2  0  0  0  0
 33 32  1  0  0  0  0
 34 36  1  0  0  0  0
 35 34  1  0  0  0  0
 36 30  2  0  0  0  0
M  END
>  <minimizedAffinity>
-5.20781136

>  <minimizedRMSD>
3.2900157

$$$$
