
 OpenBabel03252513023D

 22 23  0  0  0  0  0  0  0  0999 V2000
   37.6160   32.5190   49.1610 C   0  0  0  0  0  0  0  0  0  0  0  0
   37.8120   33.3320   49.8810 H   0  0  0  0  0  0  0  0  0  0  0  0
   36.8850   32.8630   48.3740 H   0  0  0  0  0  0  0  0  0  0  0  0
   35.2280   29.7590   50.2190 C   0  0  0  0  0  0  0  0  0  0  0  0
   35.7440   30.8450   49.4800 C   0  0  0  0  0  0  0  0  0  0  0  0
   36.9620   31.3870   49.8410 C   0  0  0  0  0  0  0  0  0  0  0  0
   37.5920   30.8360   50.8940 N   0  0  0  0  0  0  0  0  0  0  0  0
   37.1050   29.8070   51.5980 C   0  0  0  0  0  0  0  0  0  0  0  0
   35.9110   29.2610   51.2580 N   0  0  0  0  0  0  0  0  0  0  0  0
   34.2600   29.3970   49.8600 H   0  0  0  0  0  0  0  0  0  0  0  0
   35.2330   31.2880   48.6290 H   0  0  0  0  0  0  0  0  0  0  0  0
   37.6100   29.3730   52.4340 H   0  0  0  0  0  0  0  0  0  0  0  0
   38.8510   32.0970   48.4220 C   0  0  0  0  0  0  0  0  0  0  0  0
   39.7580   32.6170   48.7930 H   0  0  0  0  0  0  0  0  0  0  0  0
   38.9340   30.9830   48.5860 H   0  0  0  0  0  0  0  0  0  0  0  0
   38.7280   32.2690   46.9550 C   0  0  0  0  0  0  0  0  0  0  0  0
   37.8100   31.8790   46.0230 C   0  0  0  0  0  0  0  0  0  0  0  0
   38.0030   32.2100   44.7030 C   0  0  0  0  0  0  0  0  0  0  0  0
   37.2340   31.8660   44.0290 H   0  0  0  0  0  0  0  0  0  0  0  0
   39.0660   32.9110   44.2750 N   0  0  0  0  0  0  0  0  0  0  0  0
   39.9750   33.2950   45.2080 C   0  0  0  0  0  0  0  0  0  0  0  0
   39.8070   32.9810   46.5180 N   0  0  0  0  0  0  0  0  0  0  0  0
  1  6  1  0  0  0  0
  1  2  1  0  0  0  0
  3  1  1  0  0  0  0
  4  9  1  0  0  0  0
  5  6  1  0  0  0  0
  5  4  2  0  0  0  0
  6  7  2  0  0  0  0
  7  8  1  0  0  0  0
  8 12  1  0  0  0  0
  9  8  2  0  0  0  0
 10  4  1  0  0  0  0
 11  5  1  0  0  0  0
 13 15  1  0  0  0  0
 13 14  1  0  0  0  0
 13  1  1  0  0  0  0
 16 13  1  0  0  0  0
 17 16  2  0  0  0  0
 18 17  1  0  0  0  0
 19 18  1  0  0  0  0
 20 18  2  0  0  0  0
 20 21  1  0  0  0  0
 21 22  2  0  0  0  0
 22 16  1  0  0  0  0
M  END
>  <minimizedAffinity>
-4.88663435

>  <minimizedRMSD>
3.47486973

$$$$
