
 OpenBabel03252514023D

 31 33  0  0  1  0  0  0  0  0999 V2000
   35.5150   29.5260   49.2060 C   0  0  2  0  0  0  0  0  0  0  0  0
   34.5050   29.4990   50.2730 C   0  0  0  0  0  0  0  0  0  0  0  0
   34.7660   28.2370   49.5920 C   0  0  1  0  0  0  0  0  0  0  0  0
   35.2710   29.9090   48.2160 H   0  0  0  0  0  0  0  0  0  0  0  0
   34.9000   29.5660   51.3240 H   0  0  0  0  0  0  0  0  0  0  0  0
   33.5110   29.9850   50.2000 H   0  0  0  0  0  0  0  0  0  0  0  0
   35.4740   27.4320   49.8650 H   0  0  0  0  0  0  0  0  0  0  0  0
   36.9810   29.4760   49.6290 C   0  0  0  0  0  0  0  0  0  0  0  0
   36.9950   29.5520   50.7340 H   0  0  0  0  0  0  0  0  0  0  0  0
   37.3910   28.5160   49.2930 H   0  0  0  0  0  0  0  0  0  0  0  0
   38.3810   32.8450   49.2720 C   0  0  0  0  0  0  0  0  0  0  0  0
   38.9080   32.8280   47.9710 C   0  0  0  0  0  0  0  0  0  0  0  0
   38.7740   31.6470   47.2250 C   0  0  0  0  0  0  0  0  0  0  0  0
   38.1350   30.5760   47.8130 N   0  0  0  0  0  0  0  0  0  0  0  0
   37.6520   30.6460   49.0550 C   0  0  0  0  0  0  0  0  0  0  0  0
   37.7790   31.7820   49.7790 N   0  0  0  0  0  0  0  0  0  0  0  0
   38.4810   33.7510   49.8540 H   0  0  0  0  0  0  0  0  0  0  0  0
   39.3950   33.7220   47.5940 H   0  0  0  0  0  0  0  0  0  0  0  0
   39.1740   31.6400   46.2420 H   0  0  0  0  0  0  0  0  0  0  0  0
   33.6720   27.7810   48.6640 C   0  0  0  0  0  0  0  0  0  0  0  0
   34.0750   27.0240   47.6920 O   0  0  0  0  0  0  0  0  0  0  0  0
   32.3230   28.0830   48.7650 O   0  0  0  0  0  0  0  0  0  0  0  0
   31.4270   27.5950   47.8250 C   0  0  0  0  0  0  0  0  0  0  0  0
   30.7970   26.3680   47.7900 C   0  0  0  0  0  0  0  0  0  0  0  0
   31.0470   25.7240   48.6060 H   0  0  0  0  0  0  0  0  0  0  0  0
   29.9280   26.0830   46.7450 C   0  0  0  0  0  3  0  0  0  0  0  0
   29.7010   27.0190   45.7560 C   0  0  0  0  0  0  0  0  0  0  0  0
   29.0130   26.7830   44.9330 H   0  0  0  0  0  0  0  0  0  0  0  0
   30.3250   28.2600   45.7710 C   0  0  0  0  0  0  0  0  0  0  0  0
   30.1240   28.9790   44.9730 H   0  0  0  0  0  0  0  0  0  0  0  0
   31.2000   28.5440   46.8240 C   0  0  0  0  0  3  0  0  0  0  0  0
  1  4  1  6  0  0  0
  1  3  1  0  0  0  0
  1  8  1  0  0  0  0
  1  2  1  0  0  0  0
  2  5  1  0  0  0  0
  3  7  1  1  0  0  0
  3  2  1  0  0  0  0
  6  2  1  0  0  0  0
  8  9  1  0  0  0  0
 10  8  1  0  0  0  0
 11 16  1  0  0  0  0
 11 17  1  0  0  0  0
 12 11  2  0  0  0  0
 13 14  2  0  0  0  0
 13 12  1  0  0  0  0
 14 15  1  0  0  0  0
 15  8  1  0  0  0  0
 15 16  2  0  0  0  0
 18 12  1  0  0  0  0
 19 13  1  0  0  0  0
 20 22  1  0  0  0  0
 20  3  1  0  0  0  0
 21 20  2  0  0  0  0
 23 22  1  0  0  0  0
 24 23  1  0  0  0  0
 24 25  1  0  0  0  0
 26 24  2  0  0  0  0
 27 29  2  0  0  0  0
 27 26  1  0  0  0  0
 28 27  1  0  0  0  0
 29 31  1  0  0  0  0
 30 29  1  0  0  0  0
 31 23  2  0  0  0  0
M  END
>  <minimizedAffinity>
-4.9048233

>  <minimizedRMSD>
0.592496336

$$$$
