
 OpenBabel03252512123D

 30 33  0  0  0  0  0  0  0  0999 V2000
   35.6460   30.0570   47.8110 C   0  0  0  0  0  0  0  0  0  0  0  0
   36.6480   30.6860   47.0830 C   0  0  0  0  0  0  0  0  0  0  0  0
   37.6720   30.9940   47.8900 N   0  0  0  0  0  0  0  0  0  0  0  0
   37.3600   30.5780   49.1400 C   0  0  0  0  0  0  0  0  0  0  0  0
   38.0630   30.6520   50.3360 C   0  0  0  0  0  0  0  0  0  0  0  0
   37.4720   30.1260   51.4820 C   0  0  0  0  0  0  0  0  0  0  0  0
   36.2220   29.5520   51.4090 C   0  0  0  0  0  0  0  0  0  0  0  0
   35.4980   29.4680   50.2190 C   0  0  0  0  0  0  0  0  0  0  0  0
   36.1080   29.9970   49.0980 C   0  0  0  0  0  0  0  0  0  0  0  0
   36.6580   30.9200   46.0180 H   0  0  0  0  0  0  0  0  0  0  0  0
   38.5730   31.4660   47.6710 H   0  0  0  0  0  0  0  0  0  0  0  0
   39.0350   31.1030   50.3690 H   0  0  0  0  0  0  0  0  0  0  0  0
   37.9700   30.1530   52.4430 H   0  0  0  0  0  0  0  0  0  0  0  0
   35.7890   29.1520   52.3200 H   0  0  0  0  0  0  0  0  0  0  0  0
   34.5260   29.0130   50.2040 H   0  0  0  0  0  0  0  0  0  0  0  0
   32.3540   29.9510   46.1540 C   0  0  0  0  0  0  0  0  0  0  0  0
   32.0650   28.5830   46.1780 C   0  0  0  0  0  0  0  0  0  0  0  0
   33.0120   27.7300   46.7650 C   0  0  0  0  0  0  0  0  0  0  0  0
   34.1500   28.2540   47.2770 N   0  0  0  0  0  0  0  0  0  0  0  0
   34.3990   29.5930   47.2360 C   0  0  0  0  0  0  0  0  0  0  0  0
   33.5070   30.4290   46.6800 N   0  0  0  0  0  0  0  0  0  0  0  0
   31.6570   30.6510   45.7140 H   0  0  0  0  0  0  0  0  0  0  0  0
   31.1450   28.2030   45.7590 H   0  0  0  0  0  0  0  0  0  0  0  0
   32.7510   26.2960   46.8120 C   0  0  0  0  0  0  0  0  0  0  0  0
   33.7220   25.4620   47.3190 C   0  0  0  0  0  0  0  0  0  0  0  0
   33.4080   24.1210   47.3320 C   0  0  0  0  0  0  0  0  0  0  0  0
   32.2230   23.6470   46.8780 N   0  0  0  0  0  0  0  0  0  0  0  0
   31.2840   24.5000   46.3810 C   0  0  0  0  0  0  0  0  0  0  0  0
   30.3600   24.0650   46.0350 H   0  0  0  0  0  0  0  0  0  0  0  0
   31.5850   25.8280   46.3640 N   0  0  0  0  0  0  0  0  0  0  0  0
  1  9  1  0  0  0  0
  2  1  2  0  0  0  0
  2  3  1  0  0  0  0
  3  4  1  0  0  0  0
  4  5  1  0  0  0  0
  5 12  1  0  0  0  0
  5  6  2  0  0  0  0
  6 13  1  0  0  0  0
  7  6  1  0  0  0  0
  7 14  1  0  0  0  0
  8  7  2  0  0  0  0
  9  4  2  0  0  0  0
  9  8  1  0  0  0  0
 10  2  1  0  0  0  0
 11  3  1  0  0  0  0
 15  8  1  0  0  0  0
 16 17  2  0  0  0  0
 16 21  1  0  0  0  0
 17 18  1  0  0  0  0
 18 24  1  0  0  0  0
 18 19  2  0  0  0  0
 20 19  1  0  0  0  0
 20  1  1  0  0  0  0
 21 20  2  0  0  0  0
 22 16  1  0  0  0  0
 23 17  1  0  0  0  0
 24 25  1  0  0  0  0
 25 26  2  0  0  0  0
 27 26  1  0  0  0  0
 28 27  2  0  0  0  0
 29 28  1  0  0  0  0
 30 28  1  0  0  0  0
 30 24  2  0  0  0  0
M  END
>  <minimizedAffinity>
-5.7785182

>  <minimizedRMSD>
0.202948704

$$$$
