
 OpenBabel03252514043D

 36 39  0  0  1  0  0  0  0  0999 V2000
   35.2500   29.1410   48.5260 C   0  0  2  0  0  0  0  0  0  0  0  0
   34.0020   29.3770   49.2440 C   0  0  0  0  0  0  0  0  0  0  0  0
   34.3200   27.9950   49.0460 C   0  0  1  0  0  0  0  0  0  0  0  0
   35.3240   29.2180   47.4410 H   0  0  0  0  0  0  0  0  0  0  0  0
   33.1770   29.9150   48.6940 H   0  0  0  0  0  0  0  0  0  0  0  0
   34.0780   29.7900   50.2820 H   0  0  0  0  0  0  0  0  0  0  0  0
   34.8190   27.3410   49.7590 H   0  0  0  0  0  0  0  0  0  0  0  0
   36.5350   29.2030   49.3700 C   0  0  0  0  0  0  0  0  0  0  0  0
   37.1070   28.2980   49.0760 H   0  0  0  0  0  0  0  0  0  0  0  0
   36.2800   29.1720   50.4420 H   0  0  0  0  0  0  0  0  0  0  0  0
   37.5520   32.7010   49.6100 C   0  0  0  0  0  0  0  0  0  0  0  0
   38.4480   32.8360   48.5250 C   0  0  0  0  0  0  0  0  0  0  0  0
   38.6850   31.6950   47.7230 C   0  0  0  0  0  0  0  0  0  0  0  0
   38.0310   30.5340   48.0460 N   0  0  0  0  0  0  0  0  0  0  0  0
   37.1950   30.4640   49.0830 C   0  0  0  0  0  0  0  0  0  0  0  0
   36.9640   31.5560   49.8580 N   0  0  0  0  0  0  0  0  0  0  0  0
   37.4340   33.6250   50.1660 H   0  0  0  0  0  0  0  0  0  0  0  0
   38.9430   33.7710   48.3030 H   0  0  0  0  0  0  0  0  0  0  0  0
   39.3670   31.7800   46.8880 H   0  0  0  0  0  0  0  0  0  0  0  0
   33.5020   27.2770   47.9920 C   0  0  0  0  0  0  0  0  0  0  0  0
   33.8670   26.0490   47.8170 O   0  0  0  0  0  0  0  0  0  0  0  0
   32.4510   27.8140   47.2600 O   0  0  0  0  0  0  0  0  0  0  0  0
   31.2140   28.0630   47.7720 C   0  0  0  0  0  0  0  0  0  0  0  0
   30.7580   27.6280   49.1040 C   0  0  0  0  0  0  0  0  0  0  0  0
   29.5050   27.9290   49.5260 C   0  0  0  0  0  0  0  0  0  0  0  0
   28.6400   28.6630   48.6730 C   0  0  0  0  0  0  0  0  0  0  0  0
   29.6740   28.9550   47.1520 S   0  0  0  0  0  0  0  0  0  0  0  0
   31.4560   27.0730   49.7100 H   0  0  0  0  0  0  0  0  0  0  0  0
   29.1110   27.6440   50.4840 H   0  0  0  0  0  0  0  0  0  0  0  0
   27.3620   29.0980   48.8250 C   0  0  0  0  0  0  0  0  0  0  0  0
   26.3310   28.2660   49.2180 C   0  0  0  0  0  3  0  0  0  0  0  0
   25.0270   28.6990   49.3760 C   0  0  0  0  0  3  0  0  0  0  0  0
   24.7920   30.0100   49.1240 N   0  0  0  0  0  0  0  0  0  0  0  0
   25.7740   30.8500   48.7400 C   0  0  0  0  0  0  0  0  0  0  0  0
   25.5270   31.8820   48.5530 H   0  0  0  0  0  0  0  0  0  0  0  0
   27.0310   30.3820   48.5980 N   0  0  0  0  0  0  0  0  0  0  0  0
  1  4  1  6  0  0  0
  1  3  1  0  0  0  0
  1  2  1  0  0  0  0
  1  8  1  0  0  0  0
  2  6  1  0  0  0  0
  3  2  1  0  0  0  0
  3  7  1  1  0  0  0
  5  2  1  0  0  0  0
  8 10  1  0  0  0  0
  9  8  1  0  0  0  0
 11 16  1  0  0  0  0
 11 17  1  0  0  0  0
 12 11  2  0  0  0  0
 13 14  2  0  0  0  0
 13 12  1  0  0  0  0
 14 15  1  0  0  0  0
 15  8  1  0  0  0  0
 15 16  2  0  0  0  0
 18 12  1  0  0  0  0
 19 13  1  0  0  0  0
 20  3  1  0  0  0  0
 21 20  2  0  0  0  0
 22 23  1  0  0  0  0
 22 20  1  0  0  0  0
 23 24  2  0  0  0  0
 24 25  1  0  0  0  0
 24 28  1  0  0  0  0
 25 29  1  0  0  0  0
 26 30  1  0  0  0  0
 26 25  2  0  0  0  0
 27 23  1  0  0  0  0
 27 26  1  0  0  0  0
 30 31  1  0  0  0  0
 31 32  2  0  0  0  0
 33 32  1  0  0  0  0
 34 33  2  0  0  0  0
 35 34  1  0  0  0  0
 36 34  1  0  0  0  0
 36 30  2  0  0  0  0
M  END
>  <minimizedAffinity>
-6.50100756

>  <minimizedRMSD>
1.89891016

$$$$
