
 OpenBabel03252513343D

 19 20  0  0  0  0  0  0  0  0999 V2000
   36.7400   29.8680   49.4810 C   0  0  0  0  0  0  0  0  0  0  0  0
   37.8130   30.4450   48.7840 C   0  0  0  0  0  0  0  0  0  0  0  0
   37.6310   30.8010   47.4470 C   0  0  0  0  0  0  0  0  0  0  0  0
   36.4250   30.5700   46.8860 N   0  0  0  0  0  0  0  0  0  0  0  0
   35.4020   30.0050   47.5970 C   0  0  0  0  0  0  0  0  0  0  0  0
   35.5660   29.6620   48.8770 N   0  0  0  0  0  0  0  0  0  0  0  0
   38.7590   30.6130   49.2640 H   0  0  0  0  0  0  0  0  0  0  0  0
   34.4600   29.8490   47.0870 H   0  0  0  0  0  0  0  0  0  0  0  0
   38.7430   31.4000   46.7170 C   0  0  0  0  0  0  0  0  0  0  0  0
   39.4270   30.6410   45.7910 C   0  0  0  0  0  0  0  0  0  0  0  0
   40.4780   31.1780   45.0880 C   0  0  0  0  0  0  0  0  0  0  0  0
   40.7680   32.4620   45.3740 N   0  0  0  0  0  0  0  0  0  0  0  0
   40.0880   33.1890   46.2830 C   0  0  0  0  0  0  0  0  0  0  0  0
   40.4840   34.1860   46.3550 H   0  0  0  0  0  0  0  0  0  0  0  0
   39.0500   32.6720   46.9830 N   0  0  0  0  0  0  0  0  0  0  0  0
   36.9430   29.4910   50.9150 C   0  0  0  0  0  0  0  0  0  0  0  0
   35.7170   29.1820   51.4900 F   0  0  0  0  0  0  0  0  0  0  0  0
   37.8570   28.4970   50.9760 F   0  0  0  0  0  0  0  0  0  0  0  0
   37.4120   30.6300   51.5830 F   0  0  0  0  0  0  0  0  0  0  0  0
  1 16  1  0  0  0  0
  2  7  1  0  0  0  0
  2  1  2  0  0  0  0
  3  2  1  0  0  0  0
  4  3  2  0  0  0  0
  4  5  1  0  0  0  0
  5  6  2  0  0  0  0
  6  1  1  0  0  0  0
  8  5  1  0  0  0  0
  9 15  1  0  0  0  0
  9  3  1  0  0  0  0
 10  9  2  0  0  0  0
 11 12  2  0  0  0  0
 11 10  1  0  0  0  0
 12 13  1  0  0  0  0
 13 14  1  0  0  0  0
 13 15  2  0  0  0  0
 16 18  1  0  0  0  0
 16 17  1  0  0  0  0
 16 19  1  0  0  0  0
M  END
>  <minimizedAffinity>
-5.7789855

>  <minimizedRMSD>
2.57366657

$$$$
