
 OpenBabel03252514053D

 36 39  0  0  1  0  0  0  0  0999 V2000
   35.3550   29.3050   48.6350 C   0  0  2  0  0  0  0  0  0  0  0  0
   34.1590   29.3110   49.4720 C   0  0  0  0  0  0  0  0  0  0  0  0
   34.5630   28.0120   49.0240 C   0  0  1  0  0  0  0  0  0  0  0  0
   35.3280   29.5590   47.5760 H   0  0  0  0  0  0  0  0  0  0  0  0
   33.2510   29.8540   49.0810 H   0  0  0  0  0  0  0  0  0  0  0  0
   34.2930   29.5580   50.5560 H   0  0  0  0  0  0  0  0  0  0  0  0
   35.1710   27.3000   49.5810 H   0  0  0  0  0  0  0  0  0  0  0  0
   36.6990   29.3460   49.3820 C   0  0  0  0  0  0  0  0  0  0  0  0
   37.2090   28.4030   49.0940 H   0  0  0  0  0  0  0  0  0  0  0  0
   36.5220   29.3770   50.4700 H   0  0  0  0  0  0  0  0  0  0  0  0
   37.9200   32.7870   49.4020 C   0  0  0  0  0  0  0  0  0  0  0  0
   38.6980   32.8440   48.2230 C   0  0  0  0  0  0  0  0  0  0  0  0
   38.7860   31.6710   47.4370 C   0  0  0  0  0  0  0  0  0  0  0  0
   38.1110   30.5570   47.8640 N   0  0  0  0  0  0  0  0  0  0  0  0
   37.3900   30.5610   48.9860 C   0  0  0  0  0  0  0  0  0  0  0  0
   37.3020   31.6840   49.7470 N   0  0  0  0  0  0  0  0  0  0  0  0
   37.9120   33.7300   49.9390 H   0  0  0  0  0  0  0  0  0  0  0  0
   39.2160   33.7440   47.9210 H   0  0  0  0  0  0  0  0  0  0  0  0
   39.3770   31.6970   46.5310 H   0  0  0  0  0  0  0  0  0  0  0  0
   33.7150   27.4010   47.9290 C   0  0  0  0  0  0  0  0  0  0  0  0
   34.1170   26.2250   47.5720 O   0  0  0  0  0  0  0  0  0  0  0  0
   32.6020   27.9790   47.3320 O   0  0  0  0  0  0  0  0  0  0  0  0
   31.3650   28.0170   47.8990 C   0  0  0  0  0  0  0  0  0  0  0  0
   31.0230   27.4130   49.1990 C   0  0  0  0  0  0  0  0  0  0  0  0
   29.7600   27.5080   49.6830 C   0  0  0  0  0  0  0  0  0  0  0  0
   28.7740   28.1920   48.9250 C   0  0  0  0  0  0  0  0  0  0  0  0
   29.6990   28.7480   47.4070 S   0  0  0  0  0  0  0  0  0  0  0  0
   31.8110   26.9050   49.7320 H   0  0  0  0  0  0  0  0  0  0  0  0
   29.4450   27.0920   50.6210 H   0  0  0  0  0  0  0  0  0  0  0  0
   27.4570   28.4390   49.1530 C   0  0  0  0  0  0  0  0  0  0  0  0
   26.8550   28.2180   50.3770 C   0  0  0  0  0  3  0  0  0  0  0  0
   25.5170   28.4660   50.6180 C   0  0  0  0  0  3  0  0  0  0  0  0
   24.7950   28.9490   49.5770 N   0  0  0  0  0  0  0  0  0  0  0  0
   25.3500   29.1760   48.3700 C   0  0  0  0  0  0  0  0  0  0  0  0
   24.7260   29.5610   47.5790 H   0  0  0  0  0  0  0  0  0  0  0  0
   26.6610   28.9200   48.1810 N   0  0  0  0  0  0  0  0  0  0  0  0
  1  4  1  6  0  0  0
  1  3  1  0  0  0  0
  1  8  1  0  0  0  0
  1  2  1  0  0  0  0
  2  6  1  0  0  0  0
  3  2  1  0  0  0  0
  3  7  1  1  0  0  0
  5  2  1  0  0  0  0
  8 10  1  0  0  0  0
  9  8  1  0  0  0  0
 11 16  1  0  0  0  0
 11 17  1  0  0  0  0
 12 11  2  0  0  0  0
 13 14  2  0  0  0  0
 13 12  1  0  0  0  0
 14 15  1  0  0  0  0
 15  8  1  0  0  0  0
 15 16  2  0  0  0  0
 18 12  1  0  0  0  0
 19 13  1  0  0  0  0
 20  3  1  0  0  0  0
 21 20  2  0  0  0  0
 22 23  1  0  0  0  0
 22 20  1  0  0  0  0
 23 24  2  0  0  0  0
 24 25  1  0  0  0  0
 24 28  1  0  0  0  0
 25 29  1  0  0  0  0
 26 30  1  0  0  0  0
 26 25  2  0  0  0  0
 27 23  1  0  0  0  0
 27 26  1  0  0  0  0
 30 31  1  0  0  0  0
 31 32  2  0  0  0  0
 33 32  1  0  0  0  0
 34 33  2  0  0  0  0
 35 34  1  0  0  0  0
 36 34  1  0  0  0  0
 36 30  2  0  0  0  0
M  END
>  <minimizedAffinity>
-5.99526548

>  <minimizedRMSD>
1.57038283

$$$$
