
     RDKit          3D

 43 46  0  0  0  0  0  0  0  0999 V2000
   36.4121   30.9682   48.7342 N   0  0  0  0  0  0  0  0  0  0  0  0
   36.3854   31.7377   49.8593 C   0  0  0  0  0  0  0  0  0  0  0  0
   37.3648   32.6614   49.7750 N   0  0  0  0  0  0  0  0  0  0  0  0
   37.9876   32.4599   48.6068 C   0  0  0  0  0  0  0  0  0  0  0  0
   39.0540   33.0733   47.9606 C   0  0  0  0  0  0  0  0  0  0  0  0
   39.4811   32.6590   46.7665 N   0  0  0  0  0  0  0  0  0  0  0  0
   38.8985   31.6214   46.1252 C   0  0  0  0  0  0  0  0  0  0  0  0
   37.8704   31.0327   46.7535 N   0  0  0  0  0  0  0  0  0  0  0  0
   37.3976   31.4026   47.9493 C   0  0  0  0  0  0  0  0  0  0  0  0
   39.6919   34.1627   48.6168 N   0  0  0  0  0  0  0  0  0  0  0  0
   34.6591   29.9847   47.3955 C   0  0  0  0  0  0  0  0  0  0  0  0
   35.5189   29.8931   48.4908 C   0  0  0  0  0  0  0  0  0  0  0  0
   35.4297   28.7321   49.2719 C   0  0  0  0  0  0  0  0  0  0  0  0
   34.5320   27.7796   48.9298 N   0  0  0  0  0  0  0  0  0  0  0  0
   33.7141   27.8944   47.8667 C   0  0  0  0  0  0  0  0  0  0  0  0
   33.7876   29.0004   47.1088 N   0  0  0  0  0  0  0  0  0  0  0  0
   32.7395   26.8450   47.5102 C   0  0  0  0  0  0  0  0  0  0  0  0
   31.5492   26.8891   48.4531 C   0  0  0  0  0  0  0  0  0  0  0  0
   32.1610   27.1141   46.1149 C   0  0  0  0  0  0  0  0  0  0  0  0
   33.3263   25.4684   47.4412 C   0  0  0  0  0  0  0  0  0  0  0  0
   35.7176   31.6675   50.7075 H   0  0  0  0  0  0  0  0  0  0  0  0
   39.3095   31.3647   45.1773 H   0  0  0  0  0  0  0  0  0  0  0  0
   40.0102   35.0620   48.2026 H   0  0  0  0  0  0  0  0  0  0  0  0
   39.9240   34.1810   49.6440 H   0  0  0  0  0  0  0  0  0  0  0  0
   34.7011   30.8721   46.7672 H   0  0  0  0  0  0  0  0  0  0  0  0
   36.0980   28.6649   50.1201 H   0  0  0  0  0  0  0  0  0  0  0  0
   31.8853   26.9178   49.5185 H   0  0  0  0  0  0  0  0  0  0  0  0
   30.8911   26.0266   48.2625 H   0  0  0  0  0  0  0  0  0  0  0  0
   31.0419   27.8627   48.2728 H   0  0  0  0  0  0  0  0  0  0  0  0
   32.9621   27.3674   45.3927 H   0  0  0  0  0  0  0  0  0  0  0  0
   31.5314   28.0334   46.2126 H   0  0  0  0  0  0  0  0  0  0  0  0
   31.5400   26.2574   45.8532 H   0  0  0  0  0  0  0  0  0  0  0  0
   33.8012   25.2747   48.4401 H   0  0  0  0  0  0  0  0  0  0  0  0
   32.5181   24.7437   47.2219 H   0  0  0  0  0  0  0  0  0  0  0  0
   34.4065   25.3702   46.4284 C   0  0  0  0  0  0  0  0  0  0  0  0
   35.1554   24.2681   46.0968 C   0  0  0  0  0  0  0  0  0  0  0  0
   36.1267   24.3544   45.1215 C   0  0  0  0  0  0  0  0  0  0  0  0
   36.7107   23.4791   44.8687 H   0  0  0  0  0  0  0  0  0  0  0  0
   36.3332   25.5280   44.4982 N   0  0  0  0  0  0  0  0  0  0  0  0
   35.6056   26.6344   44.8074 C   0  0  0  0  0  0  0  0  0  0  0  0
   34.6670   26.5226   45.7603 N   0  0  0  0  0  0  0  0  0  0  0  0
   34.9279   23.3797   46.6365 H   0  0  0  0  0  0  0  0  0  0  0  0
   35.7507   27.5930   44.3213 H   0  0  0  0  0  0  0  0  0  0  0  0
  1  2  1  0
  3  2  2  0
  4  3  1  0
  5 10  1  0
  5  4  2  0
  6  5  1  0
  7  8  1  0
  7  6  2  0
  8  9  2  0
  9  4  1  0
  9  1  1  0
 11 12  2  0
 12  1  1  0
 12 13  1  0
 14 13  2  0
 15 14  1  0
 16 11  1  0
 16 15  2  0
 17 15  1  0
 17 18  1  0
 19 17  1  0
 20 17  1  0
  2 21  1  0
  7 22  1  0
 10 23  1  0
 10 24  1  0
 11 25  1  0
 13 26  1  0
 18 27  1  0
 18 28  1  0
 18 29  1  0
 19 30  1  0
 19 31  1  0
 19 32  1  0
 20 33  1  0
 20 34  1  0
 35 36  2  0
 36 37  1  0
 37 38  1  0
 37 39  2  0
 39 40  1  0
 40 41  2  0
 41 35  1  0
 36 42  1  0
 40 43  1  0
 20 35  1  0
M  ISO  8  21  14  22  14  25  14  26  14  27   8  28   8  29   8  30   8
M  ISO  5  31   8  32   8  33   8  34   8  38  14
M  END
>  <DihAtoms>  (1) 
16,19,34,35

>  <DihDeg>  (1) 
90.19931267811411

$$$$
