
 OpenBabel03252514043D

 36 39  0  0  1  0  0  0  0  0999 V2000
   35.2540   29.1500   48.5750 C   0  0  2  0  0  0  0  0  0  0  0  0
   34.0220   29.3180   49.3390 C   0  0  0  0  0  0  0  0  0  0  0  0
   34.3680   27.9540   49.0560 C   0  0  1  0  0  0  0  0  0  0  0  0
   35.3610   29.1920   47.4910 H   0  0  0  0  0  0  0  0  0  0  0  0
   34.1230   29.7610   50.3750 H   0  0  0  0  0  0  0  0  0  0  0  0
   33.1300   29.7930   48.8380 H   0  0  0  0  0  0  0  0  0  0  0  0
   34.9190   27.2430   49.6780 H   0  0  0  0  0  0  0  0  0  0  0  0
   36.5580   29.2090   49.3900 C   0  0  0  0  0  0  0  0  0  0  0  0
   36.3470   29.1080   50.4560 H   0  0  0  0  0  0  0  0  0  0  0  0
   37.1670   28.3420   49.0050 H   0  0  0  0  0  0  0  0  0  0  0  0
   37.5550   32.7170   49.6080 C   0  0  0  0  0  0  0  0  0  0  0  0
   38.4470   32.8500   48.5250 C   0  0  0  0  0  0  0  0  0  0  0  0
   38.6900   31.7080   47.7290 C   0  0  0  0  0  0  0  0  0  0  0  0
   38.0480   30.5420   48.0550 N   0  0  0  0  0  0  0  0  0  0  0  0
   37.2120   30.4720   49.0930 C   0  0  0  0  0  0  0  0  0  0  0  0
   36.9710   31.5670   49.8660 N   0  0  0  0  0  0  0  0  0  0  0  0
   37.3100   33.5400   50.2720 H   0  0  0  0  0  0  0  0  0  0  0  0
   38.9090   33.8120   48.3430 H   0  0  0  0  0  0  0  0  0  0  0  0
   39.3670   31.8110   46.9080 H   0  0  0  0  0  0  0  0  0  0  0  0
   33.5320   27.2820   47.9860 C   0  0  0  0  0  0  0  0  0  0  0  0
   33.8580   26.0450   47.7910 O   0  0  0  0  0  0  0  0  0  0  0  0
   32.5040   27.8590   47.2550 O   0  0  0  0  0  0  0  0  0  0  0  0
   31.2540   28.0910   47.7450 C   0  0  0  0  0  0  0  0  0  0  0  0
   30.7790   27.6410   49.0640 C   0  0  0  0  0  0  0  0  0  0  0  0
   29.5200   27.9150   49.4770 C   0  0  0  0  0  0  0  0  0  0  0  0
   28.6570   28.6460   48.6170 C   0  0  0  0  0  0  0  0  0  0  0  0
   29.7100   28.9670   47.1120 S   0  0  0  0  0  0  0  0  0  0  0  0
   31.4760   27.0890   49.6760 H   0  0  0  0  0  0  0  0  0  0  0  0
   29.1180   27.6160   50.4270 H   0  0  0  0  0  0  0  0  0  0  0  0
   27.3260   29.0540   48.8060 C   0  0  0  0  0  0  0  0  0  0  0  0
   26.3260   28.1870   49.1950 C   0  0  0  0  0  0  0  0  0  0  0  0
   25.0530   28.6930   49.3500 C   0  0  0  0  0  0  0  0  0  0  0  0
   24.7900   30.0370   49.1200 C   0  0  0  0  0  0  0  0  0  0  0  0
   23.7570   30.3060   49.2760 H   0  0  0  0  0  0  0  0  0  0  0  0
   25.8180   30.8740   48.7310 C   0  0  0  0  0  0  0  0  0  0  0  0
   27.0460   30.3470   48.5890 N   0  0  0  0  0  0  0  0  0  0  0  0
  1  4  1  6  0  0  0
  1  3  1  0  0  0  0
  1  2  1  0  0  0  0
  1  8  1  0  0  0  0
  2  5  1  0  0  0  0
  3  2  1  0  0  0  0
  3  7  1  1  0  0  0
  6  2  1  0  0  0  0
  8  9  1  0  0  0  0
 10  8  1  0  0  0  0
 11 16  1  0  0  0  0
 11 17  1  0  0  0  0
 12 11  2  0  0  0  0
 13 14  2  0  0  0  0
 13 12  1  0  0  0  0
 14 15  1  0  0  0  0
 15  8  1  0  0  0  0
 15 16  2  0  0  0  0
 18 12  1  0  0  0  0
 19 13  1  0  0  0  0
 20  3  1  0  0  0  0
 21 20  2  0  0  0  0
 22 23  1  0  0  0  0
 22 20  1  0  0  0  0
 23 24  2  0  0  0  0
 24 25  1  0  0  0  0
 24 28  1  0  0  0  0
 25 29  1  0  0  0  0
 26 30  1  0  0  0  0
 26 25  2  0  0  0  0
 27 23  1  0  0  0  0
 27 26  1  0  0  0  0
 30 31  1  0  0  0  0
 31 32  2  0  0  0  0
 33 34  1  0  0  0  0
 33 32  1  0  0  0  0
 35 33  2  0  0  0  0
 36 35  1  0  0  0  0
 36 30  2  0  0  0  0
M  END
>  <minimizedAffinity>
-6.68776321

>  <minimizedRMSD>
1.87374949

$$$$
