
 OpenBabel03252511253D

 32 35  0  0  0  0  0  0  0  0999 V2000
   35.5680   29.5140   49.3430 C   0  0  0  0  0  0  0  0  0  0  0  0
   35.6180   29.1700   50.7050 C   0  0  0  0  0  0  0  0  0  0  0  0
   36.5650   29.6100   51.5920 C   0  0  0  0  0  0  0  0  0  0  0  0
   37.5620   30.4580   51.1460 C   0  0  0  0  0  0  0  0  0  0  0  0
   37.5780   30.8340   49.8400 C   0  0  0  0  0  0  0  0  0  0  0  0
   38.5900   31.6740   49.4520 C   0  0  0  0  0  0  0  0  0  0  0  0
   38.6700   32.0930   48.1540 C   0  0  0  0  0  0  0  0  0  0  0  0
   37.7060   31.6420   47.2650 C   0  0  0  0  0  0  0  0  0  0  0  0
   36.7210   30.8020   47.7140 C   0  0  0  0  0  0  0  0  0  0  0  0
   36.6020   30.3620   48.9890 C   0  0  0  0  0  0  0  0  0  0  0  0
   34.8470   28.5040   51.0900 H   0  0  0  0  0  0  0  0  0  0  0  0
   36.5190   29.2900   52.6220 H   0  0  0  0  0  0  0  0  0  0  0  0
   38.2720   30.7630   51.9020 H   0  0  0  0  0  0  0  0  0  0  0  0
   39.3380   32.0210   50.1540 H   0  0  0  0  0  0  0  0  0  0  0  0
   39.4450   32.7580   47.7810 H   0  0  0  0  0  0  0  0  0  0  0  0
   37.7420   31.9570   46.2270 H   0  0  0  0  0  0  0  0  0  0  0  0
   35.9770   30.4700   46.9710 H   0  0  0  0  0  0  0  0  0  0  0  0
   33.6440   27.0170   47.6420 C   0  0  0  0  0  0  0  0  0  0  0  0
   32.7340   27.6600   46.8170 C   0  0  0  0  0  0  0  0  0  0  0  0
   32.7940   29.0360   46.8550 C   0  0  0  0  0  0  0  0  0  0  0  0
   33.6890   29.6210   47.6510 N   0  0  0  0  0  0  0  0  0  0  0  0
   34.5550   29.0310   48.4370 C   0  0  0  0  0  0  0  0  0  0  0  0
   34.4910   27.7040   48.3950 N   0  0  0  0  0  0  0  0  0  0  0  0
   33.5960   25.9170   47.6110 H   0  0  0  0  0  0  0  0  0  0  0  0
   32.0000   27.2220   46.1620 H   0  0  0  0  0  0  0  0  0  0  0  0
   31.9010   29.8520   46.0420 C   0  0  0  0  0  0  0  0  0  0  0  0
   32.3370   31.0550   45.5280 C   0  0  0  0  0  0  0  0  0  0  0  0
   31.4420   31.7800   44.7670 C   0  0  0  0  0  0  0  0  0  0  0  0
   30.1710   31.2880   44.5500 C   0  0  0  0  0  0  0  0  0  0  0  0
   29.5480   31.9370   43.9380 H   0  0  0  0  0  0  0  0  0  0  0  0
   29.7570   30.0760   45.0770 C   0  0  0  0  0  0  0  0  0  0  0  0
   30.6510   29.4150   45.8020 N   0  0  0  0  0  0  0  0  0  0  0  0
  1  2  1  0  0  0  0
  2 11  1  0  0  0  0
  2  3  2  0  0  0  0
  3 12  1  0  0  0  0
  4  3  1  0  0  0  0
  4 13  1  0  0  0  0
  5  4  2  0  0  0  0
  6  5  1  0  0  0  0
  6 14  1  0  0  0  0
  7  6  2  0  0  0  0
  8  9  2  0  0  0  0
  8  7  1  0  0  0  0
  9 10  1  0  0  0  0
 10  1  2  0  0  0  0
 10  5  1  0  0  0  0
 15  7  1  0  0  0  0
 16  8  1  0  0  0  0
 17  9  1  0  0  0  0
 18 23  1  0  0  0  0
 19 20  1  0  0  0  0
 19 18  2  0  0  0  0
 20 21  2  0  0  0  0
 21 22  1  0  0  0  0
 22  1  1  0  0  0  0
 23 22  2  0  0  0  0
 24 18  1  0  0  0  0
 25 19  1  0  0  0  0
 26 20  1  0  0  0  0
 27 26  2  0  0  0  0
 28 27  1  0  0  0  0
 29 28  2  0  0  0  0
 29 31  1  0  0  0  0
 30 29  1  0  0  0  0
 31 32  2  0  0  0  0
 32 26  1  0  0  0  0
M  END
>  <minimizedAffinity>
-6.77654552

>  <minimizedRMSD>
0.891257703

$$$$
