
 OpenBabel03252514043D

 36 39  0  0  1  0  0  0  0  0999 V2000
   35.4030   29.2930   48.5850 C   0  0  2  0  0  0  0  0  0  0  0  0
   34.1780   29.4070   49.3720 C   0  0  0  0  0  0  0  0  0  0  0  0
   34.5580   28.0600   49.0500 C   0  0  1  0  0  0  0  0  0  0  0  0
   35.4910   29.3640   47.5010 H   0  0  0  0  0  0  0  0  0  0  0  0
   34.2830   29.8270   50.4160 H   0  0  0  0  0  0  0  0  0  0  0  0
   33.2650   29.8680   48.8960 H   0  0  0  0  0  0  0  0  0  0  0  0
   35.1390   27.3500   49.6460 H   0  0  0  0  0  0  0  0  0  0  0  0
   36.7170   29.3690   49.3810 C   0  0  0  0  0  0  0  0  0  0  0  0
   36.5150   29.3530   50.4540 H   0  0  0  0  0  0  0  0  0  0  0  0
   37.2940   28.4580   49.0550 H   0  0  0  0  0  0  0  0  0  0  0  0
   37.9220   32.8180   49.4040 C   0  0  0  0  0  0  0  0  0  0  0  0
   38.7070   32.8760   48.2350 C   0  0  0  0  0  0  0  0  0  0  0  0
   38.8070   31.7050   47.4510 C   0  0  0  0  0  0  0  0  0  0  0  0
   38.1380   30.5850   47.8710 N   0  0  0  0  0  0  0  0  0  0  0  0
   37.4070   30.5850   48.9870 C   0  0  0  0  0  0  0  0  0  0  0  0
   37.3040   31.7090   49.7490 N   0  0  0  0  0  0  0  0  0  0  0  0
   37.7890   33.6690   50.0670 H   0  0  0  0  0  0  0  0  0  0  0  0
   39.2010   33.8060   47.9830 H   0  0  0  0  0  0  0  0  0  0  0  0
   39.4040   31.7510   46.5650 H   0  0  0  0  0  0  0  0  0  0  0  0
   33.7250   27.3910   47.9760 C   0  0  0  0  0  0  0  0  0  0  0  0
   34.1370   26.2000   47.6840 O   0  0  0  0  0  0  0  0  0  0  0  0
   32.6190   27.9270   47.3320 O   0  0  0  0  0  0  0  0  0  0  0  0
   31.3790   28.0140   47.8870 C   0  0  0  0  0  0  0  0  0  0  0  0
   31.0220   27.4900   49.2160 C   0  0  0  0  0  0  0  0  0  0  0  0
   29.7640   27.6200   49.6970 C   0  0  0  0  0  0  0  0  0  0  0  0
   28.7850   28.2720   48.8990 C   0  0  0  0  0  0  0  0  0  0  0  0
   29.7200   28.7330   47.3530 S   0  0  0  0  0  0  0  0  0  0  0  0
   31.8040   27.0030   49.7800 H   0  0  0  0  0  0  0  0  0  0  0  0
   29.4440   27.2610   50.6570 H   0  0  0  0  0  0  0  0  0  0  0  0
   27.4300   28.5320   49.1620 C   0  0  0  0  0  0  0  0  0  0  0  0
   26.8250   28.2060   50.3580 C   0  0  0  0  0  3  0  0  0  0  0  0
   25.4880   28.5060   50.5100 C   0  0  0  0  0  3  0  0  0  0  0  0
   24.7770   29.1200   49.4890 C   0  0  0  0  0  0  0  0  0  0  0  0
   23.7400   29.3010   49.7330 H   0  0  0  0  0  0  0  0  0  0  0  0
   25.4180   29.4310   48.3050 C   0  0  0  0  0  3  0  0  0  0  0  0
   26.7210   29.1230   48.1910 N   0  0  0  0  0  0  0  0  0  0  0  0
  1  4  1  6  0  0  0
  1  3  1  0  0  0  0
  1  2  1  0  0  0  0
  1  8  1  0  0  0  0
  2  5  1  0  0  0  0
  3  2  1  0  0  0  0
  3  7  1  1  0  0  0
  6  2  1  0  0  0  0
  8  9  1  0  0  0  0
 10  8  1  0  0  0  0
 11 16  1  0  0  0  0
 11 17  1  0  0  0  0
 12 11  2  0  0  0  0
 13 14  2  0  0  0  0
 13 12  1  0  0  0  0
 14 15  1  0  0  0  0
 15  8  1  0  0  0  0
 15 16  2  0  0  0  0
 18 12  1  0  0  0  0
 19 13  1  0  0  0  0
 20  3  1  0  0  0  0
 21 20  2  0  0  0  0
 22 23  1  0  0  0  0
 22 20  1  0  0  0  0
 23 24  2  0  0  0  0
 24 25  1  0  0  0  0
 24 28  1  0  0  0  0
 25 29  1  0  0  0  0
 26 30  1  0  0  0  0
 26 25  2  0  0  0  0
 27 23  1  0  0  0  0
 27 26  1  0  0  0  0
 30 31  1  0  0  0  0
 31 32  2  0  0  0  0
 33 34  1  0  0  0  0
 33 32  1  0  0  0  0
 35 33  2  0  0  0  0
 36 35  1  0  0  0  0
 36 30  2  0  0  0  0
M  END
>  <minimizedAffinity>
-6.19725513

>  <minimizedRMSD>
1.6614821

$$$$
