
 OpenBabel03252514053D

 36 39  0  0  1  0  0  0  0  0999 V2000
   35.2640   29.1190   48.5220 C   0  0  2  0  0  0  0  0  0  0  0  0
   34.0050   29.3710   49.2180 C   0  0  0  0  0  0  0  0  0  0  0  0
   34.3240   27.9820   49.0440 C   0  0  1  0  0  0  0  0  0  0  0  0
   35.4180   29.0830   47.4450 H   0  0  0  0  0  0  0  0  0  0  0  0
   34.0730   29.8830   50.2230 H   0  0  0  0  0  0  0  0  0  0  0  0
   33.1490   29.8320   48.6450 H   0  0  0  0  0  0  0  0  0  0  0  0
   34.8280   27.3030   49.7380 H   0  0  0  0  0  0  0  0  0  0  0  0
   36.5320   29.2020   49.3900 C   0  0  0  0  0  0  0  0  0  0  0  0
   36.2770   29.1250   50.4490 H   0  0  0  0  0  0  0  0  0  0  0  0
   37.1590   28.3300   49.0500 H   0  0  0  0  0  0  0  0  0  0  0  0
   37.5540   32.7030   49.6070 C   0  0  0  0  0  0  0  0  0  0  0  0
   38.4440   32.8310   48.5210 C   0  0  0  0  0  0  0  0  0  0  0  0
   38.6770   31.6870   47.7240 C   0  0  0  0  0  0  0  0  0  0  0  0
   38.0270   30.5260   48.0510 N   0  0  0  0  0  0  0  0  0  0  0  0
   37.1940   30.4610   49.0910 C   0  0  0  0  0  0  0  0  0  0  0  0
   36.9630   31.5570   49.8660 N   0  0  0  0  0  0  0  0  0  0  0  0
   37.3160   33.5280   50.2720 H   0  0  0  0  0  0  0  0  0  0  0  0
   38.9120   33.7900   48.3380 H   0  0  0  0  0  0  0  0  0  0  0  0
   39.3510   31.7870   46.9010 H   0  0  0  0  0  0  0  0  0  0  0  0
   33.5170   27.2590   47.9860 C   0  0  0  0  0  0  0  0  0  0  0  0
   33.8800   26.0270   47.8260 O   0  0  0  0  0  0  0  0  0  0  0  0
   32.4790   27.7860   47.2330 O   0  0  0  0  0  0  0  0  0  0  0  0
   31.2370   28.0540   47.7230 C   0  0  0  0  0  0  0  0  0  0  0  0
   30.7550   27.6290   49.0480 C   0  0  0  0  0  0  0  0  0  0  0  0
   29.5050   27.9400   49.4620 C   0  0  0  0  0  0  0  0  0  0  0  0
   28.6580   28.6840   48.5980 C   0  0  0  0  0  0  0  0  0  0  0  0
   29.7130   28.9640   47.0870 S   0  0  0  0  0  0  0  0  0  0  0  0
   31.4390   27.0650   49.6640 H   0  0  0  0  0  0  0  0  0  0  0  0
   29.0980   27.6600   50.4160 H   0  0  0  0  0  0  0  0  0  0  0  0
   27.3380   29.1280   48.7870 C   0  0  0  0  0  0  0  0  0  0  0  0
   26.9560   30.4400   48.5950 C   0  0  0  0  0  3  0  0  0  0  0  0
   25.6340   30.7680   48.8080 C   0  0  0  0  0  3  0  0  0  0  0  0
   24.7180   29.8030   49.2030 C   0  0  0  0  0  0  0  0  0  0  0  0
   23.7180   30.1880   49.3360 H   0  0  0  0  0  0  0  0  0  0  0  0
   25.1390   28.4990   49.3850 C   0  0  0  0  0  3  0  0  0  0  0  0
   26.4340   28.2150   49.1690 N   0  0  0  0  0  0  0  0  0  0  0  0
  1  4  1  6  0  0  0
  1  3  1  0  0  0  0
  1  2  1  0  0  0  0
  1  8  1  0  0  0  0
  2  5  1  0  0  0  0
  3  2  1  0  0  0  0
  3  7  1  1  0  0  0
  6  2  1  0  0  0  0
  8  9  1  0  0  0  0
 10  8  1  0  0  0  0
 11 16  1  0  0  0  0
 11 17  1  0  0  0  0
 12 11  2  0  0  0  0
 13 14  2  0  0  0  0
 13 12  1  0  0  0  0
 14 15  1  0  0  0  0
 15  8  1  0  0  0  0
 15 16  2  0  0  0  0
 18 12  1  0  0  0  0
 19 13  1  0  0  0  0
 20  3  1  0  0  0  0
 21 20  2  0  0  0  0
 22 23  1  0  0  0  0
 22 20  1  0  0  0  0
 23 24  2  0  0  0  0
 24 25  1  0  0  0  0
 24 28  1  0  0  0  0
 25 29  1  0  0  0  0
 26 30  1  0  0  0  0
 26 25  2  0  0  0  0
 27 23  1  0  0  0  0
 27 26  1  0  0  0  0
 30 36  1  0  0  0  0
 31 30  2  0  0  0  0
 31 32  1  0  0  0  0
 32 33  2  0  0  0  0
 33 34  1  0  0  0  0
 33 35  1  0  0  0  0
 36 35  2  0  0  0  0
M  END
>  <minimizedAffinity>
-6.57983255

>  <minimizedRMSD>
1.90758717

$$$$
