
 OpenBabel03252513333D

 18 19  0  0  0  0  0  0  0  0999 V2000
   36.6860   29.8720   49.4820 C   0  0  0  0  0  0  0  0  0  0  0  0
   37.7490   30.4110   48.7670 C   0  0  0  0  0  0  0  0  0  0  0  0
   37.5890   30.7630   47.4350 C   0  0  0  0  0  0  0  0  0  0  0  0
   36.3710   30.5560   46.8900 N   0  0  0  0  0  0  0  0  0  0  0  0
   35.3450   30.0290   47.6030 C   0  0  0  0  0  0  0  0  0  0  0  0
   35.5150   29.6940   48.8890 N   0  0  0  0  0  0  0  0  0  0  0  0
   38.7070   30.5670   49.2200 H   0  0  0  0  0  0  0  0  0  0  0  0
   34.3820   29.8830   47.1110 H   0  0  0  0  0  0  0  0  0  0  0  0
   38.6980   31.3400   46.6370 C   0  0  0  0  0  0  0  0  0  0  0  0
   39.3210   30.5940   45.6470 C   0  0  0  0  0  0  0  0  0  0  0  0
   40.5940   31.7590   44.9860 S   0  0  0  0  0  0  0  0  0  0  0  0
   40.0270   33.0840   46.2140 C   0  0  0  0  0  0  0  0  0  0  0  0
   40.3130   34.2200   46.5080 H   0  0  0  0  0  0  0  0  0  0  0  0
   39.1820   32.5720   46.7860 N   0  0  0  0  0  0  0  0  0  0  0  0
   36.8920   29.5030   50.9170 C   0  0  0  0  0  0  0  0  0  0  0  0
   35.6690   29.1680   51.4860 F   0  0  0  0  0  0  0  0  0  0  0  0
   37.8330   28.5240   50.9790 F   0  0  0  0  0  0  0  0  0  0  0  0
   37.3550   30.6440   51.5760 F   0  0  0  0  0  0  0  0  0  0  0  0
  1 15  1  0  0  0  0
  2  7  1  0  0  0  0
  2  1  2  0  0  0  0
  3  2  1  0  0  0  0
  4  3  2  0  0  0  0
  4  5  1  0  0  0  0
  5  6  2  0  0  0  0
  6  1  1  0  0  0  0
  8  5  1  0  0  0  0
  9 14  1  0  0  0  0
  9  3  1  0  0  0  0
 10  9  2  0  0  0  0
 11 10  1  0  0  0  0
 11 12  1  0  0  0  0
 12 13  1  0  0  0  0
 12 14  2  0  0  0  0
 15 17  1  0  0  0  0
 15 16  1  0  0  0  0
 15 18  1  0  0  0  0
M  END
>  <minimizedAffinity>
-5.41283417

>  <minimizedRMSD>
2.5314095

$$$$
