
 OpenBabel03252512263D

 28 30  0  0  1  0  0  0  0  0999 V2000
   35.0230   29.3250   48.5220 C   0  0  0  0  0  0  0  0  0  0  0  0
   34.5780   28.1210   49.0720 C   0  0  0  0  0  0  0  0  0  0  0  0
   33.4800   27.5580   48.5080 C   0  0  0  0  0  0  0  0  0  0  0  0
   32.8910   28.1850   47.4640 C   0  0  0  0  0  0  0  0  0  0  0  0
   33.8570   29.6660   47.1730 S   0  0  0  0  0  0  0  0  0  0  0  0
   35.1280   27.7060   49.9100 H   0  0  0  0  0  0  0  0  0  0  0  0
   33.0440   26.6280   48.8480 H   0  0  0  0  0  0  0  0  0  0  0  0
   37.7710   30.6360   50.6240 C   0  0  0  0  0  0  0  0  0  0  0  0
   38.3340   31.6230   49.7510 C   0  0  0  0  0  0  0  0  0  0  0  0
   37.7700   31.8160   48.4820 C   0  0  0  0  0  0  0  0  0  0  0  0
   36.7170   31.0490   48.1520 N   0  0  0  0  0  0  0  0  0  0  0  0
   36.2000   30.1360   48.9630 C   0  0  0  0  0  0  0  0  0  0  0  0
   36.7010   29.9110   50.1910 N   0  0  0  0  0  0  0  0  0  0  0  0
   38.2240   30.5120   51.5900 H   0  0  0  0  0  0  0  0  0  0  0  0
   39.1810   32.2220   50.0520 H   0  0  0  0  0  0  0  0  0  0  0  0
   38.1840   32.5570   47.8130 H   0  0  0  0  0  0  0  0  0  0  0  0
   31.7010   27.8320   46.6510 C   0  0  2  0  0  0  0  0  0  0  0  0
   31.6490   26.7200   46.5720 H   0  0  0  0  0  0  0  0  0  0  0  0
   31.9030   28.3790   45.2670 C   0  0  0  0  0  0  0  0  0  0  0  0
   31.0660   28.1640   44.5840 H   0  0  0  0  0  0  0  0  0  0  0  0
   32.7860   27.8210   44.8480 H   0  0  0  0  0  0  0  0  0  0  0  0
   32.2160   29.4400   45.2850 H   0  0  0  0  0  0  0  0  0  0  0  0
   30.4730   28.3760   47.3160 C   0  0  0  0  0  0  0  0  0  0  0  0
   30.6250   29.3560   47.7870 H   0  0  0  0  0  0  0  0  0  0  0  0
   29.7320   28.5500   46.4890 H   0  0  0  0  0  0  0  0  0  0  0  0
   29.8060   27.4010   48.2620 C   0  0  0  0  0  0  0  0  0  0  0  0
   28.6130   27.9830   49.0280 C   0  0  0  0  0  0  0  0  0  0  0  0
   29.8900   27.6500   49.7330 C   0  0  0  0  0  0  0  0  0  0  0  0
  1 12  1  0  0  0  0
  1  2  2  0  0  0  0
  2  6  1  0  0  0  0
  3  7  1  0  0  0  0
  3  2  1  0  0  0  0
  4  3  2  0  0  0  0
  5  4  1  0  0  0  0
  5  1  1  0  0  0  0
  8 14  1  0  0  0  0
  9 15  1  0  0  0  0
  9  8  2  0  0  0  0
 10  9  1  0  0  0  0
 11 10  2  0  0  0  0
 11 12  1  0  0  0  0
 12 13  2  0  0  0  0
 13  8  1  0  0  0  0
 16 10  1  0  0  0  0
 17 18  1  6  0  0  0
 17 23  1  0  0  0  0
 17  4  1  0  0  0  0
 19 22  1  0  0  0  0
 19 17  1  0  0  0  0
 20 19  1  0  0  0  0
 21 19  1  0  0  0  0
 23 24  1  0  0  0  0
 23 26  1  0  0  0  0
 25 23  1  0  0  0  0
 26 27  1  0  0  0  0
 26 28  1  0  0  0  0
 27 28  1  0  0  0  0
M  END
>  <minimizedAffinity>
-4.5286479

>  <minimizedRMSD>
1.65313721

$$$$
