REMARK  Name = 
REMARK  5 active torsions:
REMARK  status: ('A' for Active; 'I' for Inactive)
REMARK    1  A    between atoms: C_1  and  C_6
REMARK    2  A    between atoms: C_1  and  C_8
REMARK    3  A    between atoms: C_10  and  C_11
REMARK    4  A    between atoms: C_11  and  O_13
REMARK    5  A    between atoms: O_13  and  C_23
REMARK                            x       y       z     vdW  Elec       q    Type
REMARK                         _______ _______ _______ _____ _____    ______ ____
ROOT
ATOM      1  C   UNL     1      35.428  29.546  49.221  0.00  0.00    +0.000 C 
ATOM      2  C   UNL     1      34.396  29.473  50.262  0.00  0.00    +0.000 C 
ATOM      3  C   UNL     1      34.652  28.247  49.520  0.00  0.00    +0.000 C 
ATOM      4  H   UNL     1      35.249  30.012  48.244  0.00  0.00    +0.000 HD
ATOM      5  H   UNL     1      33.410  30.005  50.121  0.00  0.00    +0.000 HD
ATOM      6  H   UNL     1      34.745  29.588  51.317  0.00  0.00    +0.000 HD
ATOM      7  H   UNL     1      35.314  27.414  49.771  0.00  0.00    +0.000 HD
ENDROOT
BRANCH   1   8
ATOM      8  C   UNL     1      36.889  29.437  49.658  0.00  0.00    +0.000 C 
ATOM      9  H   UNL     1      36.893  29.492  50.763  0.00  0.00    +0.000 HD
ATOM     10  H   UNL     1      37.317  28.472  49.362  0.00  0.00    +0.000 HD
BRANCH   8  15
ATOM     11  C   UNL     1      38.437  32.747  49.383  0.00  0.00    +0.000 A 
ATOM     12  C   UNL     1      38.941  32.749  48.073  0.00  0.00    +0.000 A 
ATOM     13  C   UNL     1      38.740  31.599  47.291  0.00  0.00    +0.000 A 
ATOM     14  N   UNL     1      38.066  30.542  47.851  0.00  0.00    +0.000 NA
ATOM     15  C   UNL     1      37.604  30.589  49.105  0.00  0.00    +0.000 A 
ATOM     16  N   UNL     1      37.797  31.697  49.859  0.00  0.00    +0.000 NA
ATOM     17  H   UNL     1      38.649  33.679  49.888  0.00  0.00    +0.000 HD
ATOM     18  H   UNL     1      39.480  33.533  47.557  0.00  0.00    +0.000 HD
ATOM     19  H   UNL     1      39.099  31.518  46.267  0.00  0.00    +0.000 HD
ENDBRANCH   8  15
ENDBRANCH   1   8
BRANCH   3  20
ATOM     20  C   UNL     1      33.578  27.853  48.547  0.00  0.00    +0.000 C 
ATOM     21  O   UNL     1      33.881  26.855  47.778  0.00  0.00    +0.000 OA
BRANCH  20  22
ATOM     22  O   UNL     1      32.334  28.445  48.420  0.00  0.00    +0.000 OA
BRANCH  22  23
ATOM     23  C   UNL     1      31.384  28.020  47.503  0.00  0.00    +0.000 A 
ATOM     24  C   UNL     1      30.544  26.907  47.482  0.00  0.00    +0.000 A 
ATOM     25  N   UNL     1      29.800  26.948  46.360  0.00  0.00    +0.000 N 
ATOM     26  C   UNL     1      30.138  28.052  45.664  0.00  0.00    +0.000 A 
ATOM     27  C   UNL     1      29.624  28.498  44.441  0.00  0.00    +0.000 A 
ATOM     28  C   UNL     1      30.129  29.675  43.907  0.00  0.00    +0.000 A 
ATOM     29  C   UNL     1      31.120  30.380  44.584  0.00  0.00    +0.000 A 
ATOM     30  C   UNL     1      31.608  29.919  45.787  0.00  0.00    +0.000 A 
ATOM     31  C   UNL     1      31.120  28.739  46.348  0.00  0.00    +0.000 A 
ATOM     32  H   UNL     1      29.085  26.214  46.115  0.00  0.00    +0.000 HD
ENDBRANCH  22  23
ENDBRANCH  20  22
ENDBRANCH   3  20
TORSDOF 5
