
 OpenBabel03252512413D

 21 23  0  0  0  0  0  0  0  0999 V2000
   38.2850   31.0340   47.8900 C   0  0  0  0  0  0  0  0  0  0  0  0
   38.7520   32.3670   47.9120 C   0  0  0  0  0  0  0  0  0  0  0  0
   39.5370   32.5870   46.2660 S   0  0  0  0  0  0  0  0  0  0  0  0
   39.0860   30.8010   45.8310 C   0  0  0  0  0  0  0  0  0  0  0  0
   38.5590   30.4460   46.7630 N   0  0  0  0  0  0  0  0  0  0  0  0
   38.6520   33.0930   48.7480 H   0  0  0  0  0  0  0  0  0  0  0  0
   38.0290   30.8580   50.3500 C   0  0  0  0  0  0  0  0  0  0  0  0
   37.5960   30.4880   49.0580 C   0  0  0  0  0  0  0  0  0  0  0  0
   36.5290   29.6130   48.9910 C   0  0  0  0  0  0  0  0  0  0  0  0
   35.9530   29.1540   50.1300 N   0  0  0  0  0  0  0  0  0  0  0  0
   36.3900   29.5230   51.3370 C   0  0  0  0  0  0  0  0  0  0  0  0
   37.4200   30.3700   51.4390 N   0  0  0  0  0  0  0  0  0  0  0  0
   38.8620   31.5440   50.4120 H   0  0  0  0  0  0  0  0  0  0  0  0
   36.1930   29.3270   47.9900 H   0  0  0  0  0  0  0  0  0  0  0  0
   35.8910   29.1240   52.2170 H   0  0  0  0  0  0  0  0  0  0  0  0
   39.4870   30.2990   44.4790 C   0  0  0  0  0  0  0  0  0  0  0  0
   40.4750   31.0290   43.8440 C   0  0  0  0  0  0  0  0  0  0  0  0
   40.6870   30.0970   42.2130 S   0  0  0  0  0  0  0  0  0  0  0  0
   39.3590   28.8840   42.7490 C   0  0  0  0  0  0  0  0  0  0  0  0
   38.7720   27.9130   42.3880 H   0  0  0  0  0  0  0  0  0  0  0  0
   39.0600   29.2740   43.7810 N   0  0  0  0  0  0  0  0  0  0  0  0
  1  2  2  0  0  0  0
  1  8  1  0  0  0  0
  2  6  1  0  0  0  0
  3  2  1  0  0  0  0
  4  3  1  0  0  0  0
  4  5  2  0  0  0  0
  5  1  1  0  0  0  0
  7 13  1  0  0  0  0
  7 12  1  0  0  0  0
  8  7  2  0  0  0  0
  9  8  1  0  0  0  0
  9 10  2  0  0  0  0
 10 11  1  0  0  0  0
 11 12  2  0  0  0  0
 11 15  1  0  0  0  0
 14  9  1  0  0  0  0
 16  4  1  0  0  0  0
 17 16  2  0  0  0  0
 18 19  1  0  0  0  0
 18 17  1  0  0  0  0
 19 21  2  0  0  0  0
 20 19  1  0  0  0  0
 21 16  1  0  0  0  0
M  END
>  <minimizedAffinity>
-5.16049147

>  <minimizedRMSD>
0.433987439

$$$$
