
     RDKit          3D

 37 40  0  0  0  0  0  0  0  0999 V2000
   36.8890   29.4368   49.6578 C   0  0  0  0  0  0  0  0  0  0  0  0
   38.4374   32.7471   49.3827 C   0  0  0  0  0  0  0  0  0  0  0  0
   38.9410   32.7491   48.0726 C   0  0  0  0  0  0  0  0  0  0  0  0
   38.7403   31.5989   47.2908 C   0  0  0  0  0  0  0  0  0  0  0  0
   38.0656   30.5424   47.8509 N   0  0  0  0  0  0  0  0  0  0  0  0
   37.6044   30.5888   49.1047 C   0  0  0  0  0  0  0  0  0  0  0  0
   37.7973   31.6965   49.8588 N   0  0  0  0  0  0  0  0  0  0  0  0
   35.4279   29.5458   49.2210 C   0  0  2  0  0  0  0  0  0  0  0  0
   34.3956   29.4733   50.2623 C   0  0  0  0  0  0  0  0  0  0  0  0
   34.6518   28.2470   49.5199 C   0  0  1  0  0  0  0  0  0  0  0  0
   33.5783   27.8526   48.5468 C   0  0  0  0  0  0  0  0  0  0  0  0
   33.8807   26.8547   47.7783 O   0  0  0  0  0  0  0  0  0  0  0  0
   32.3337   28.4450   48.4204 O   0  0  0  0  0  0  0  0  0  0  0  0
   36.8933   29.4916   50.7625 H   0  0  0  0  0  0  0  0  0  0  0  0
   37.3169   28.4720   49.3618 H   0  0  0  0  0  0  0  0  0  0  0  0
   38.6491   33.6790   49.8880 H   0  0  0  0  0  0  0  0  0  0  0  0
   39.4803   33.5333   47.5567 H   0  0  0  0  0  0  0  0  0  0  0  0
   39.0985   31.5185   46.2665 H   0  0  0  0  0  0  0  0  0  0  0  0
   35.2495   30.0122   48.2436 H   0  0  0  0  0  0  0  0  0  0  0  0
   33.4105   30.0052   50.1212 H   0  0  0  0  0  0  0  0  0  0  0  0
   34.7452   29.5877   51.3172 H   0  0  0  0  0  0  0  0  0  0  0  0
   35.3142   27.4142   49.7714 H   0  0  0  0  0  0  0  0  0  0  0  0
   31.3844   28.0197   47.5032 C   0  0  0  0  0  0  0  0  0  0  0  0
   30.0140   27.7895   47.6215 C   0  0  0  0  0  0  0  0  0  0  0  0
   29.5396   27.3815   46.4287 N   0  0  0  0  0  0  0  0  0  0  0  0
   30.5638   27.3440   45.5528 C   0  0  0  0  0  0  0  0  0  0  0  0
   30.5360   26.9791   44.2015 C   0  0  0  0  0  0  0  0  0  0  0  0
   31.7251   27.0163   43.4878 C   0  0  0  0  0  0  0  0  0  0  0  0
   32.9044   27.4083   44.1148 C   0  0  0  0  0  0  0  0  0  0  0  0
   32.9037   27.7625   45.4464 C   0  0  0  0  0  0  0  0  0  0  0  0
   31.7233   27.7347   46.1891 C   0  0  0  0  0  0  0  0  0  0  0  0
   29.4892   27.9420   48.5710 H   0  0  0  0  0  0  0  0  0  0  0  0
   28.5268   27.1438   46.2623 H   0  0  0  0  0  0  0  0  0  0  0  0
   29.5837   26.6755   43.7439 H   0  0  0  0  0  0  0  0  0  0  0  0
   31.7380   26.7406   42.4427 H   0  0  0  0  0  0  0  0  0  0  0  0
   33.8513   27.4493   43.5894 H   0  0  0  0  0  0  0  0  0  0  0  0
   33.8121   28.0711   45.9543 H   0  0  0  0  0  0  0  0  0  0  0  0
  2  7  2  0
  3  2  1  0
  4  5  1  0
  4  3  2  0
  5  6  2  0
  6  1  1  0
  6  7  1  0
  8 10  1  0
  8  1  1  0
  8  9  1  0
 10  9  1  0
 11 10  1  0
 12 11  2  0
 13 11  1  0
  1 14  1  0
  1 15  1  0
  2 16  1  0
  3 17  1  0
  4 18  1  0
  8 19  1  6
  9 20  1  0
  9 21  1  0
 10 22  1  1
 23 24  2  0
 24 25  1  0
 25 26  1  0
 26 27  2  0
 27 28  1  0
 28 29  2  0
 29 30  1  0
 30 31  2  0
 31 23  1  0
 31 26  1  0
 24 32  1  0
 25 33  1  0
 27 34  1  0
 28 35  1  0
 29 36  1  0
 30 37  1  0
 13 23  1  0
M  ISO  8  14   8  15   8  16  14  17  14  18  14  19  13  20  13  21  13
M  ISO  1  22  13
M  END
>  <DihAtoms>  (1) 
10,12,22,23

>  <DihDeg>  (1) 
-89.99689956519023

$$$$
