
     RDKit          3D

 36 39  0  0  0  0  0  0  0  0999 V2000
   35.2948   29.4111   48.9833 C   0  0  2  0  0  0  0  0  0  0  0  0
   34.1881   29.3635   49.9331 C   0  0  0  0  0  0  0  0  0  0  0  0
   34.5276   28.0981   49.3502 C   0  0  1  0  0  0  0  0  0  0  0  0
   36.7099   29.3876   49.5874 C   0  0  0  0  0  0  0  0  0  0  0  0
   38.0849   32.7670   49.4437 C   0  0  0  0  0  0  0  0  0  0  0  0
   38.7525   32.7786   48.2092 C   0  0  0  0  0  0  0  0  0  0  0  0
   38.7175   31.5989   47.4325 C   0  0  0  0  0  0  0  0  0  0  0  0
   38.0368   30.5166   47.9273 N   0  0  0  0  0  0  0  0  0  0  0  0
   37.4191   30.5617   49.1090 C   0  0  0  0  0  0  0  0  0  0  0  0
   37.4466   31.6935   49.8656 N   0  0  0  0  0  0  0  0  0  0  0  0
   33.5633   27.5858   48.2989 C   0  0  0  0  0  0  0  0  0  0  0  0
   33.9077   26.4389   47.8114 O   0  0  0  0  0  0  0  0  0  0  0  0
   32.4038   28.2181   47.8542 O   0  0  0  0  0  0  0  0  0  0  0  0
   31.1442   27.8266   48.2249 C   0  0  0  0  0  0  0  0  0  0  0  0
   30.6245   27.8182   49.6139 C   0  0  0  0  0  0  0  0  0  0  0  0
   29.3557   27.4035   49.8066 C   0  0  0  0  0  0  0  0  0  0  0  0
   28.5416   26.9919   48.7414 C   0  0  0  0  0  0  0  0  0  0  0  0
   29.6416   27.1873   47.2582 S   0  0  0  0  0  0  0  0  0  0  0  0
   35.2101   29.7012   47.9342 H   0  0  0  0  0  0  0  0  0  0  0  0
   33.2375   29.9026   49.6899 H   0  0  0  0  0  0  0  0  0  0  0  0
   34.4504   29.5280   51.0197 H   0  0  0  0  0  0  0  0  0  0  0  0
   35.1789   27.3244   49.7532 H   0  0  0  0  0  0  0  0  0  0  0  0
   36.6417   29.3319   50.6925 H   0  0  0  0  0  0  0  0  0  0  0  0
   37.1811   28.4460   49.1794 H   0  0  0  0  0  0  0  0  0  0  0  0
   38.1753   33.7037   49.9440 H   0  0  0  0  0  0  0  0  0  0  0  0
   39.3047   33.5623   47.7403 H   0  0  0  0  0  0  0  0  0  0  0  0
   39.1780   31.4568   46.4741 H   0  0  0  0  0  0  0  0  0  0  0  0
   31.2987   28.1459   50.3827 H   0  0  0  0  0  0  0  0  0  0  0  0
   28.9006   27.3655   50.7806 H   0  0  0  0  0  0  0  0  0  0  0  0
   27.2493   26.5355   48.6450 C   0  0  0  0  0  0  0  0  0  0  0  0
   26.1616   27.3717   49.0898 C   0  0  0  0  0  0  0  0  0  0  0  0
   24.7163   26.3282   48.7523 S   0  0  0  0  0  0  0  0  0  0  0  0
   25.8057   24.9287   48.0644 C   0  0  0  0  0  0  0  0  0  0  0  0
   25.5188   23.8742   47.6321 H   0  0  0  0  0  0  0  0  0  0  0  0
   26.8324   25.3749   48.1770 N   0  0  0  0  0  0  0  0  0  0  0  0
   26.0363   28.3179   49.5075 H   0  0  0  0  0  0  0  0  0  0  0  0
  1  3  1  0
  1  4  1  0
  1  2  1  0
  3  2  1  0
  5 10  2  0
  6  5  1  0
  7  8  1  0
  7  6  2  0
  8  9  2  0
  9  4  1  0
  9 10  1  0
 11  3  1  0
 12 11  2  0
 13 14  1  0
 13 11  1  0
 14 15  2  0
 15 16  1  0
 17 16  2  0
 18 14  1  0
 18 17  1  0
  1 19  1  6
  2 20  1  0
  2 21  1  0
  3 22  1  1
  4 23  1  0
  4 24  1  0
  5 25  1  0
  6 26  1  0
  7 27  1  0
 15 28  1  0
 16 29  1  0
 30 31  2  0
 31 32  1  0
 32 33  1  0
 33 34  1  0
 33 35  2  0
 35 30  1  0
 31 36  1  0
 17 30  1  0
M  ISO  8  19  13  20  13  21  13  22  13  23   8  24   8  25  14  26  14
M  ISO  4  27  14  28  14  29  14  34  14
M  END
>  <DihAtoms>  (1) 
15,16,29,30

>  <DihDeg>  (1) 
179.99535445595586

$$$$
