
 OpenBabel03252513283D

 31 33  0  0  0  0  0  0  0  0999 V2000
   31.6610   26.6640   47.9200 C   0  0  0  0  0  0  0  0  0  0  0  0
   31.4770   25.3960   47.4390 C   0  0  0  0  0  0  0  0  0  0  0  0
   32.5120   24.5590   47.0720 C   0  0  0  0  0  0  0  0  0  0  0  0
   33.7830   25.0730   47.2150 C   0  0  0  0  0  0  0  0  0  0  0  0
   34.0150   26.3370   47.6930 C   0  0  0  0  0  0  0  0  0  0  0  0
   32.9540   27.1500   48.0510 C   0  0  0  0  0  0  0  0  0  0  0  0
   30.4660   25.0220   47.3380 H   0  0  0  0  0  0  0  0  0  0  0  0
   32.3230   23.5570   46.6940 H   0  0  0  0  0  0  0  0  0  0  0  0
   34.6540   24.4790   46.9490 H   0  0  0  0  0  0  0  0  0  0  0  0
   34.9840   26.7960   47.8270 H   0  0  0  0  0  0  0  0  0  0  0  0
   29.0410   28.3640   49.8600 C   0  0  0  0  0  0  0  0  0  0  0  0
   28.4130   29.1550   48.8650 C   0  0  0  0  0  0  0  0  0  0  0  0
   28.9070   29.0790   47.5720 C   0  0  0  0  0  0  0  0  0  0  0  0
   29.9720   28.2490   47.3130 N   0  0  0  0  0  0  0  0  0  0  0  0
   30.5380   27.5130   48.2950 C   0  0  0  0  0  0  0  0  0  0  0  0
   30.0770   27.5730   49.5430 N   0  0  0  0  0  0  0  0  0  0  0  0
   28.6080   28.4750   50.8250 H   0  0  0  0  0  0  0  0  0  0  0  0
   28.4750   29.6540   46.7680 H   0  0  0  0  0  0  0  0  0  0  0  0
   27.2640   30.0480   49.1540 C   0  0  0  0  0  0  0  0  0  0  0  0
   27.5680   31.0870   49.9860 F   0  0  0  0  0  0  0  0  0  0  0  0
   26.2260   29.3560   49.7520 F   0  0  0  0  0  0  0  0  0  0  0  0
   26.7770   30.5940   47.9620 F   0  0  0  0  0  0  0  0  0  0  0  0
   33.1290   28.5020   48.5640 C   0  0  0  0  0  0  0  0  0  0  0  0
   33.4050   28.4440   49.6530 H   0  0  0  0  0  0  0  0  0  0  0  0
   32.1450   29.0140   48.5400 H   0  0  0  0  0  0  0  0  0  0  0  0
   34.1980   29.3180   47.9150 C   0  0  0  0  0  0  0  0  0  0  0  0
   33.8880   30.1760   47.3330 H   0  0  0  0  0  0  0  0  0  0  0  0
   34.7870   28.6390   47.2440 H   0  0  0  0  0  0  0  0  0  0  0  0
   35.0940   29.8460   49.0250 C   0  0  0  0  0  0  0  0  0  0  0  0
   34.8980   29.3600   50.4140 C   0  0  0  0  0  0  0  0  0  0  0  0
   36.1210   28.9810   49.6330 C   0  0  0  0  0  0  0  0  0  0  0  0
  1  6  1  0  0  0  0
  1 15  1  0  0  0  0
  2  1  2  0  0  0  0
  3  4  2  0  0  0  0
  3  2  1  0  0  0  0
  4  5  1  0  0  0  0
  5 10  1  0  0  0  0
  5  6  2  0  0  0  0
  6 23  1  0  0  0  0
  7  2  1  0  0  0  0
  8  3  1  0  0  0  0
  9  4  1  0  0  0  0
 11 17  1  0  0  0  0
 12 19  1  0  0  0  0
 12 11  2  0  0  0  0
 13 12  1  0  0  0  0
 14 13  2  0  0  0  0
 14 15  1  0  0  0  0
 15 16  2  0  0  0  0
 16 11  1  0  0  0  0
 18 13  1  0  0  0  0
 19 21  1  0  0  0  0
 19 20  1  0  0  0  0
 22 19  1  0  0  0  0
 23 24  1  0  0  0  0
 25 23  1  0  0  0  0
 26 23  1  0  0  0  0
 26 29  1  0  0  0  0
 27 26  1  0  0  0  0
 28 26  1  0  0  0  0
 29 31  1  0  0  0  0
 29 30  1  0  0  0  0
 31 30  1  0  0  0  0
M  END
>  <minimizedAffinity>
-5.37179279

>  <minimizedRMSD>
6.56127453

$$$$
