
 OpenBabel03252510473D

 35 38  0  0  1  0  0  0  0  0999 V2000
   37.5350   31.3820   48.6490 N   0  0  0  0  0  0  0  0  0  0  0  0
   38.3950   31.6580   49.7940 C   0  0  0  0  0  0  0  0  0  0  0  0
   38.7370   33.0960   49.5840 C   0  0  0  0  0  0  0  0  0  0  0  0
   39.0490   33.0950   48.1070 C   0  0  0  0  0  0  0  0  0  0  0  0
   37.8820   32.2920   47.5930 C   0  0  1  0  0  0  0  0  0  0  0  0
   39.3230   31.0630   49.6480 H   0  0  0  0  0  0  0  0  0  0  0  0
   37.8960   31.4120   50.7310 H   0  0  0  0  0  0  0  0  0  0  0  0
   39.6870   33.3260   50.1460 H   0  0  0  0  0  0  0  0  0  0  0  0
   37.9690   33.8110   49.8660 H   0  0  0  0  0  0  0  0  0  0  0  0
   40.0280   32.6620   47.8910 H   0  0  0  0  0  0  0  0  0  0  0  0
   38.9620   34.1360   47.7320 H   0  0  0  0  0  0  0  0  0  0  0  0
   37.0350   32.9900   47.5060 H   0  0  0  0  0  0  0  0  0  0  0  0
   36.4230   29.2870   49.3990 C   0  0  0  0  0  0  0  0  0  0  0  0
   36.5290   30.4020   48.5530 C   0  0  0  0  0  0  0  0  0  0  0  0
   35.5690   30.5540   47.5400 C   0  0  0  0  0  0  0  0  0  0  0  0
   34.5830   29.6250   47.4200 N   0  0  0  0  0  0  0  0  0  0  0  0
   34.5210   28.5550   48.2670 C   0  0  0  0  0  0  0  0  0  0  0  0
   35.4440   28.3920   49.2560 N   0  0  0  0  0  0  0  0  0  0  0  0
   37.1810   29.1990   50.1720 H   0  0  0  0  0  0  0  0  0  0  0  0
   35.5320   31.3560   46.8280 H   0  0  0  0  0  0  0  0  0  0  0  0
   33.7240   27.8280   48.1490 H   0  0  0  0  0  0  0  0  0  0  0  0
   38.2670   31.6530   46.3370 C   0  0  0  0  0  0  0  0  0  0  0  0
   38.9810   30.4640   46.1180 C   0  0  0  0  0  0  0  0  0  0  0  0
   39.2470   30.0440   44.8450 C   0  0  0  0  0  0  0  0  0  0  0  0
   38.8210   30.7730   43.8230 N   0  0  0  0  0  0  0  0  0  0  0  0
   38.1380   31.9090   43.9910 C   0  0  0  0  0  0  0  0  0  0  0  0
   37.8790   32.3180   45.2540 N   0  0  0  0  0  0  0  0  0  0  0  0
   39.2660   29.9740   47.0370 H   0  0  0  0  0  0  0  0  0  0  0  0
   39.8040   29.1170   44.7300 H   0  0  0  0  0  0  0  0  0  0  0  0
   37.6840   32.6890   42.8130 C   0  0  0  0  0  0  0  0  0  0  0  0
   36.3400   32.9350   42.4340 C   0  0  0  0  0  0  0  0  0  0  0  0
   36.6010   33.9460   40.9130 S   0  0  0  0  0  0  0  0  0  0  0  0
   38.4910   33.8410   41.0840 C   0  0  0  0  0  0  0  0  0  0  0  0
   39.0710   34.3480   40.3230 H   0  0  0  0  0  0  0  0  0  0  0  0
   38.6420   33.1920   42.0620 N   0  0  0  0  0  0  0  0  0  0  0  0
  1  2  1  0  0  0  0
  2  7  1  0  0  0  0
  3  2  1  0  0  0  0
  3  9  1  0  0  0  0
  3  8  1  0  0  0  0
  4  3  1  0  0  0  0
  5 12  1  6  0  0  0
  5  4  1  0  0  0  0
  5  1  1  0  0  0  0
  6  2  1  0  0  0  0
 10  4  1  0  0  0  0
 11  4  1  0  0  0  0
 13 19  1  0  0  0  0
 14  1  1  0  0  0  0
 14 13  2  0  0  0  0
 15 14  1  0  0  0  0
 16 15  2  0  0  0  0
 16 17  1  0  0  0  0
 17 18  2  0  0  0  0
 18 13  1  0  0  0  0
 20 15  1  0  0  0  0
 21 17  1  0  0  0  0
 22  5  1  0  0  0  0
 23 22  1  0  0  0  0
 23 28  1  0  0  0  0
 24 23  2  0  0  0  0
 25 26  2  0  0  0  0
 25 24  1  0  0  0  0
 26 27  1  0  0  0  0
 27 22  2  0  0  0  0
 29 24  1  0  0  0  0
 30 26  1  0  0  0  0
 31 30  2  0  0  0  0
 32 33  1  0  0  0  0
 32 31  1  0  0  0  0
 33 35  2  0  0  0  0
 34 33  1  0  0  0  0
 35 30  1  0  0  0  0
M  END
>  <minimizedAffinity>
-5.7598505

>  <minimizedRMSD>
0.241391122

$$$$
