
 OpenBabel03252514023D

 32 35  0  0  1  0  0  0  0  0999 V2000
   35.1610   29.3590   48.9820 C   0  0  2  0  0  0  0  0  0  0  0  0
   34.0900   29.3150   49.9850 C   0  0  0  0  0  0  0  0  0  0  0  0
   34.3770   28.0670   49.2920 C   0  0  1  0  0  0  0  0  0  0  0  0
   35.0180   29.7940   47.9850 H   0  0  0  0  0  0  0  0  0  0  0  0
   33.1090   29.8390   49.7910 H   0  0  0  0  0  0  0  0  0  0  0  0
   34.3990   29.4630   51.0490 H   0  0  0  0  0  0  0  0  0  0  0  0
   35.0300   27.2440   49.5940 H   0  0  0  0  0  0  0  0  0  0  0  0
   36.6050   29.2680   49.4780 C   0  0  0  0  0  0  0  0  0  0  0  0
   36.5560   29.1870   50.5800 H   0  0  0  0  0  0  0  0  0  0  0  0
   37.0970   28.3680   49.0900 H   0  0  0  0  0  0  0  0  0  0  0  0
   37.7120   32.7600   49.5380 C   0  0  0  0  0  0  0  0  0  0  0  0
   38.5420   32.8450   48.4090 C   0  0  0  0  0  0  0  0  0  0  0  0
   38.7130   31.6870   47.6320 C   0  0  0  0  0  0  0  0  0  0  0  0
   38.0620   30.5420   48.0200 N   0  0  0  0  0  0  0  0  0  0  0  0
   37.2800   30.5120   49.1050 C   0  0  0  0  0  0  0  0  0  0  0  0
   37.1140   31.6280   49.8540 N   0  0  0  0  0  0  0  0  0  0  0  0
   37.6540   33.7070   50.0570 H   0  0  0  0  0  0  0  0  0  0  0  0
   39.0890   33.7010   48.0350 H   0  0  0  0  0  0  0  0  0  0  0  0
   39.3400   31.6670   46.7430 H   0  0  0  0  0  0  0  0  0  0  0  0
   33.3410   27.6400   48.2920 C   0  0  0  0  0  0  0  0  0  0  0  0
   33.5180   26.4550   47.7990 O   0  0  0  0  0  0  0  0  0  0  0  0
   32.2490   28.3830   47.8780 O   0  0  0  0  0  0  0  0  0  0  0  0
   31.0200   27.8170   47.5760 C   0  0  0  0  0  0  0  0  0  0  0  0
   30.4710   27.3750   46.3720 C   0  0  0  0  0  3  0  0  0  0  0  0
   29.2340   26.9010   46.6100 N   0  0  0  0  0  0  0  0  0  0  0  0
   28.9750   27.0250   47.9270 C   0  0  0  0  0  0  0  0  0  0  0  0
   27.8150   26.6620   48.6210 C   0  0  0  0  0  3  0  0  0  0  0  0
   27.7720   26.8850   49.9900 C   0  0  0  0  0  3  0  0  0  0  0  0
   28.8640   27.4550   50.6390 C   0  0  0  0  0  3  0  0  0  0  0  0
   29.9950   27.8020   49.9320 C   0  0  0  0  0  3  0  0  0  0  0  0
   30.0660   27.5900   48.5550 C   0  0  0  0  0  0  0  0  0  0  0  0
   28.6120   26.5090   45.8550 H   0  0  0  0  0  0  0  0  0  0  0  0
  1  4  1  6  0  0  0
  1  3  1  0  0  0  0
  1  8  1  0  0  0  0
  1  2  1  0  0  0  0
  2  6  1  0  0  0  0
  3  7  1  1  0  0  0
  3  2  1  0  0  0  0
  5  2  1  0  0  0  0
  8  9  1  0  0  0  0
 10  8  1  0  0  0  0
 11 16  1  0  0  0  0
 11 17  1  0  0  0  0
 12 11  2  0  0  0  0
 13 14  2  0  0  0  0
 13 12  1  0  0  0  0
 14 15  1  0  0  0  0
 15  8  1  0  0  0  0
 15 16  2  0  0  0  0
 18 12  1  0  0  0  0
 19 13  1  0  0  0  0
 20  3  1  0  0  0  0
 21 20  2  0  0  0  0
 22 20  1  0  0  0  0
 23 22  1  0  0  0  0
 23 31  1  0  0  0  0
 24 25  1  0  0  0  0
 24 23  2  0  0  0  0
 25 26  1  0  0  0  0
 26 31  2  0  0  0  0
 26 27  1  0  0  0  0
 27 28  2  0  0  0  0
 28 29  1  0  0  0  0
 30 29  2  0  0  0  0
 31 30  1  0  0  0  0
 32 25  1  0  0  0  0
M  END
>  <minimizedAffinity>
-6.08397913

>  <minimizedRMSD>
1.00237334

$$$$
