
     RDKit          3D

 42 45  0  0  0  0  0  0  0  0999 V2000
   36.4050   30.9709   48.7511 N   0  0  0  0  0  0  0  0  0  0  0  0
   36.3857   31.7332   49.8650 C   0  0  0  0  0  0  0  0  0  0  0  0
   37.3733   32.6611   49.7766 N   0  0  0  0  0  0  0  0  0  0  0  0
   37.9904   32.4545   48.6010 C   0  0  0  0  0  0  0  0  0  0  0  0
   39.0461   33.0740   47.9760 C   0  0  0  0  0  0  0  0  0  0  0  0
   39.4806   32.6613   46.7673 N   0  0  0  0  0  0  0  0  0  0  0  0
   38.8940   31.6180   46.1185 C   0  0  0  0  0  0  0  0  0  0  0  0
   37.8627   31.0308   46.7544 N   0  0  0  0  0  0  0  0  0  0  0  0
   37.3938   31.4003   47.9508 C   0  0  0  0  0  0  0  0  0  0  0  0
   39.6996   34.1583   48.5878 N   0  0  0  0  0  0  0  0  0  0  0  0
   34.6535   29.9891   47.3974 C   0  0  0  0  0  0  0  0  0  0  0  0
   35.5114   29.8967   48.4966 C   0  0  0  0  0  0  0  0  0  0  0  0
   35.4225   28.7372   49.2719 C   0  0  0  0  0  0  0  0  0  0  0  0
   34.5360   27.7778   48.9384 N   0  0  0  0  0  0  0  0  0  0  0  0
   33.7224   27.8853   47.8811 C   0  0  0  0  0  0  0  0  0  0  0  0
   33.7872   28.9934   47.1160 N   0  0  0  0  0  0  0  0  0  0  0  0
   32.7398   26.8452   47.4937 C   0  0  0  0  0  0  0  0  0  0  0  0
   31.5465   26.9039   48.4418 C   0  0  0  0  0  0  0  0  0  0  0  0
   32.1706   27.1126   46.1089 C   0  0  0  0  0  0  0  0  0  0  0  0
   33.3399   25.4763   47.4356 C   0  0  0  0  0  0  0  0  0  0  0  0
   35.7036   31.6472   50.7166 H   0  0  0  0  0  0  0  0  0  0  0  0
   39.2532   31.2928   45.1419 H   0  0  0  0  0  0  0  0  0  0  0  0
   40.0603   34.1137   49.5706 H   0  0  0  0  0  0  0  0  0  0  0  0
   39.7840   34.9917   47.9712 H   0  0  0  0  0  0  0  0  0  0  0  0
   34.6962   30.8706   46.7782 H   0  0  0  0  0  0  0  0  0  0  0  0
   36.0856   28.6619   50.1244 H   0  0  0  0  0  0  0  0  0  0  0  0
   31.5290   26.0553   49.1420 H   0  0  0  0  0  0  0  0  0  0  0  0
   30.5740   26.9131   47.9206 H   0  0  0  0  0  0  0  0  0  0  0  0
   31.6266   27.8102   49.0852 H   0  0  0  0  0  0  0  0  0  0  0  0
   31.4021   27.9088   46.2364 H   0  0  0  0  0  0  0  0  0  0  0  0
   32.9490   27.5912   45.4717 H   0  0  0  0  0  0  0  0  0  0  0  0
   31.7409   26.2173   45.6595 H   0  0  0  0  0  0  0  0  0  0  0  0
   32.5869   24.7905   46.9951 H   0  0  0  0  0  0  0  0  0  0  0  0
   34.1638   25.5489   46.6801 H   0  0  0  0  0  0  0  0  0  0  0  0
   33.9365   24.9317   48.6749 C   0  0  0  0  0  0  0  0  0  0  0  0
   35.4367   24.6052   48.5172 C   0  0  0  0  0  0  0  0  0  0  0  0
   34.9165   25.6130   49.5157 C   0  0  0  0  0  0  0  0  0  0  0  0
   33.3905   24.0754   49.1267 H   0  0  0  0  0  0  0  0  0  0  0  0
   35.8321   23.6624   48.9011 H   0  0  0  0  0  0  0  0  0  0  0  0
   35.9747   24.9747   47.6332 H   0  0  0  0  0  0  0  0  0  0  0  0
   34.9719   25.3146   50.5925 H   0  0  0  0  0  0  0  0  0  0  0  0
   35.2839   26.6296   49.3558 H   0  0  0  0  0  0  0  0  0  0  0  0
  1  2  1  0
  3  2  2  0
  4  3  1  0
  5 10  1  0
  5  4  2  0
  6  5  1  0
  7  8  1  0
  7  6  2  0
  8  9  2  0
  9  4  1  0
  9  1  1  0
 11 12  2  0
 12  1  1  0
 12 13  1  0
 14 13  2  0
 15 14  1  0
 16 11  1  0
 16 15  2  0
 17 15  1  0
 17 18  1  0
 19 17  1  0
 20 17  1  0
  2 21  1  0
  7 22  1  0
 10 23  1  0
 10 24  1  0
 11 25  1  0
 13 26  1  0
 18 27  1  0
 18 28  1  0
 18 29  1  0
 19 30  1  0
 19 31  1  0
 19 32  1  0
 20 33  1  0
 20 34  1  0
 35 36  1  0
 36 37  1  0
 37 35  1  0
 35 38  1  0
 36 39  1  0
 36 40  1  0
 37 41  1  0
 37 42  1  0
 20 35  1  0
M  ISO  8  21  14  22  14  25  14  26  14  27   8  28   8  29   8  30   8
M  ISO  4  31   8  32   8  33   8  34   8
M  END
>  <DihAtoms>  (1) 
16,19,34,35

>  <DihDeg>  (1) 
179.99989126973418

$$$$
