
 OpenBabel03252514053D

 35 38  0  0  1  0  0  0  0  0999 V2000
   35.2770   29.1750   48.5800 C   0  0  2  0  0  0  0  0  0  0  0  0
   34.0430   29.3110   49.3470 C   0  0  0  0  0  0  0  0  0  0  0  0
   34.4110   27.9580   49.0470 C   0  0  1  0  0  0  0  0  0  0  0  0
   35.3570   29.2780   47.4960 H   0  0  0  0  0  0  0  0  0  0  0  0
   33.1600   29.8140   48.8760 H   0  0  0  0  0  0  0  0  0  0  0  0
   34.1510   29.6590   50.4170 H   0  0  0  0  0  0  0  0  0  0  0  0
   34.9650   27.2570   49.6690 H   0  0  0  0  0  0  0  0  0  0  0  0
   36.5870   29.2360   49.3850 C   0  0  0  0  0  0  0  0  0  0  0  0
   36.3670   29.1160   50.4650 H   0  0  0  0  0  0  0  0  0  0  0  0
   37.1940   28.3590   49.0120 H   0  0  0  0  0  0  0  0  0  0  0  0
   37.6300   32.7300   49.5620 C   0  0  0  0  0  0  0  0  0  0  0  0
   38.4940   32.8530   48.4620 C   0  0  0  0  0  0  0  0  0  0  0  0
   38.7090   31.7060   47.6640 C   0  0  0  0  0  0  0  0  0  0  0  0
   38.0620   30.5480   48.0070 N   0  0  0  0  0  0  0  0  0  0  0  0
   37.2490   30.4880   49.0650 C   0  0  0  0  0  0  0  0  0  0  0  0
   37.0370   31.5870   49.8410 N   0  0  0  0  0  0  0  0  0  0  0  0
   37.5410   33.6510   50.0910 H   0  0  0  0  0  0  0  0  0  0  0  0
   39.0400   33.7010   48.1150 H   0  0  0  0  0  0  0  0  0  0  0  0
   39.3370   31.6460   46.7970 H   0  0  0  0  0  0  0  0  0  0  0  0
   33.5890   27.2850   47.9660 C   0  0  0  0  0  0  0  0  0  0  0  0
   33.9560   26.0660   47.7360 O   0  0  0  0  0  0  0  0  0  0  0  0
   32.5320   27.8460   47.2530 O   0  0  0  0  0  0  0  0  0  0  0  0
   31.2880   28.0540   47.7910 C   0  0  0  0  0  0  0  0  0  0  0  0
   30.8380   27.5720   49.1190 C   0  0  0  0  0  0  0  0  0  0  0  0
   29.5780   27.8660   49.4990 C   0  0  0  0  0  0  0  0  0  0  0  0
   28.7110   28.6030   48.6790 C   0  0  0  0  0  0  0  0  0  0  0  0
   29.7360   28.9510   47.1700 S   0  0  0  0  0  0  0  0  0  0  0  0
   31.5520   27.0150   49.6970 H   0  0  0  0  0  0  0  0  0  0  0  0
   29.1710   27.5550   50.4450 H   0  0  0  0  0  0  0  0  0  0  0  0
   27.4130   29.0380   48.8050 C   0  0  0  0  0  0  0  0  0  0  0  0
   26.3790   28.1020   49.1710 C   0  0  0  0  0  0  0  0  0  0  0  0
   24.9030   29.1590   49.1980 S   0  0  0  0  0  0  0  0  0  0  0  0
   25.9140   30.6950   48.7110 C   0  0  0  0  0  0  0  0  0  0  0  0
   25.5810   31.8080   48.5360 H   0  0  0  0  0  0  0  0  0  0  0  0
   26.9480   30.2600   48.6290 N   0  0  0  0  0  0  0  0  0  0  0  0
  1  4  1  6  0  0  0
  1  3  1  0  0  0  0
  1  2  1  0  0  0  0
  1  8  1  0  0  0  0
  2  6  1  0  0  0  0
  3  2  1  0  0  0  0
  3  7  1  1  0  0  0
  5  2  1  0  0  0  0
  8  9  1  0  0  0  0
 10  8  1  0  0  0  0
 11 16  1  0  0  0  0
 11 17  1  0  0  0  0
 12 11  2  0  0  0  0
 13 14  2  0  0  0  0
 13 12  1  0  0  0  0
 14 15  1  0  0  0  0
 15  8  1  0  0  0  0
 15 16  2  0  0  0  0
 18 12  1  0  0  0  0
 19 13  1  0  0  0  0
 20  3  1  0  0  0  0
 21 20  2  0  0  0  0
 22 23  1  0  0  0  0
 22 20  1  0  0  0  0
 23 24  2  0  0  0  0
 24 25  1  0  0  0  0
 24 28  1  0  0  0  0
 25 29  1  0  0  0  0
 26 30  1  0  0  0  0
 26 25  2  0  0  0  0
 27 23  1  0  0  0  0
 27 26  1  0  0  0  0
 30 31  2  0  0  0  0
 31 32  1  0  0  0  0
 33 32  1  0  0  0  0
 34 33  1  0  0  0  0
 35 33  2  0  0  0  0
 35 30  1  0  0  0  0
M  END
>  <minimizedAffinity>
-6.1502986

>  <minimizedRMSD>
1.71052516

$$$$
