
 OpenBabel03252514023D

 32 35  0  0  1  0  0  0  0  0999 V2000
   35.4680   29.4660   49.0990 C   0  0  2  0  0  0  0  0  0  0  0  0
   34.3800   29.5050   50.0870 C   0  0  0  0  0  0  0  0  0  0  0  0
   34.6760   28.2040   49.4960 C   0  0  1  0  0  0  0  0  0  0  0  0
   35.3340   29.8490   48.0940 H   0  0  0  0  0  0  0  0  0  0  0  0
   33.4150   30.0310   49.8490 H   0  0  0  0  0  0  0  0  0  0  0  0
   34.6090   29.6140   51.1820 H   0  0  0  0  0  0  0  0  0  0  0  0
   35.3330   27.3980   49.8410 H   0  0  0  0  0  0  0  0  0  0  0  0
   36.8980   29.4310   49.6360 C   0  0  0  0  0  0  0  0  0  0  0  0
   36.8330   29.5380   50.7300 H   0  0  0  0  0  0  0  0  0  0  0  0
   37.3950   28.4740   49.3840 H   0  0  0  0  0  0  0  0  0  0  0  0
   38.4260   32.7540   49.3680 C   0  0  0  0  0  0  0  0  0  0  0  0
   38.9310   32.7520   48.0590 C   0  0  0  0  0  0  0  0  0  0  0  0
   38.7450   31.6040   47.2760 C   0  0  0  0  0  0  0  0  0  0  0  0
   38.0730   30.5410   47.8390 N   0  0  0  0  0  0  0  0  0  0  0  0
   37.6080   30.5880   49.0880 C   0  0  0  0  0  0  0  0  0  0  0  0
   37.7900   31.6970   49.8430 N   0  0  0  0  0  0  0  0  0  0  0  0
   38.5300   33.5950   50.0230 H   0  0  0  0  0  0  0  0  0  0  0  0
   39.4430   33.6440   47.7220 H   0  0  0  0  0  0  0  0  0  0  0  0
   39.1310   31.6090   46.2870 H   0  0  0  0  0  0  0  0  0  0  0  0
   33.6540   27.7020   48.5150 C   0  0  0  0  0  0  0  0  0  0  0  0
   34.0740   26.7470   47.7510 O   0  0  0  0  0  0  0  0  0  0  0  0
   32.3550   28.1590   48.3860 O   0  0  0  0  0  0  0  0  0  0  0  0
   31.5360   27.8570   47.3380 C   0  0  0  0  0  0  0  0  0  0  0  0
   30.7260   26.7320   47.2370 C   0  0  0  0  0  3  0  0  0  0  0  0
   29.9380   26.5620   46.0950 C   0  0  0  0  0  3  0  0  0  0  0  0
   29.9580   27.4940   45.0760 C   0  0  0  0  0  3  0  0  0  0  0  0
   30.7630   28.6220   45.1620 C   0  0  0  0  0  0  0  0  0  0  0  0
   30.7540   29.5240   44.1290 C   0  0  0  0  0  3  0  0  0  0  0  0
   31.5610   30.6610   44.2090 C   0  0  0  0  0  3  0  0  0  0  0  0
   32.3610   30.8650   45.3340 C   0  0  0  0  0  3  0  0  0  0  0  0
   32.3210   29.9230   46.3310 C   0  0  0  0  0  3  0  0  0  0  0  0
   31.5370   28.7800   46.2960 C   0  0  0  0  0  0  0  0  0  0  0  0
  1  4  1  6  0  0  0
  1  3  1  0  0  0  0
  1  8  1  0  0  0  0
  1  2  1  0  0  0  0
  2  6  1  0  0  0  0
  3  7  1  1  0  0  0
  3  2  1  0  0  0  0
  5  2  1  0  0  0  0
  8  9  1  0  0  0  0
 10  8  1  0  0  0  0
 11 16  1  0  0  0  0
 11 17  1  0  0  0  0
 12 11  2  0  0  0  0
 13 14  2  0  0  0  0
 13 12  1  0  0  0  0
 14 15  1  0  0  0  0
 15  8  1  0  0  0  0
 15 16  2  0  0  0  0
 18 12  1  0  0  0  0
 19 13  1  0  0  0  0
 20  3  1  0  0  0  0
 21 20  2  0  0  0  0
 22 20  1  0  0  0  0
 23 22  1  0  0  0  0
 24 23  1  0  0  0  0
 25 24  2  0  0  0  0
 26 27  2  0  0  0  0
 26 25  1  0  0  0  0
 27 32  1  0  0  0  0
 28 29  2  0  0  0  0
 28 27  1  0  0  0  0
 29 30  1  0  0  0  0
 30 31  2  0  0  0  0
 32 31  1  0  0  0  0
 32 23  2  0  0  0  0
M  END
>  <minimizedAffinity>
-5.22424078

>  <minimizedRMSD>
0.399950832

$$$$
