
 OpenBabel03252512013D

 21 22  0  0  0  0  0  0  0  0999 V2000
   34.8660   28.3600   49.3090 C   0  0  0  0  0  0  0  0  0  0  0  0
   34.5850   27.8870   50.2460 H   0  0  0  0  0  0  0  0  0  0  0  0
   35.7120   27.8470   48.7900 H   0  0  0  0  0  0  0  0  0  0  0  0
   32.5580   27.7930   48.7260 C   0  0  0  0  0  0  0  0  0  0  0  0
   33.7510   28.4440   48.3930 C   0  0  0  0  0  0  0  0  0  0  0  0
   33.7860   29.1390   47.1880 C   0  0  0  0  0  0  0  0  0  0  0  0
   32.6900   29.1580   46.4000 N   0  0  0  0  0  0  0  0  0  0  0  0
   31.5480   28.5230   46.7400 C   0  0  0  0  0  0  0  0  0  0  0  0
   31.4840   27.8400   47.9060 N   0  0  0  0  0  0  0  0  0  0  0  0
   32.4650   27.2370   49.6460 H   0  0  0  0  0  0  0  0  0  0  0  0
   34.6690   29.6480   46.8940 H   0  0  0  0  0  0  0  0  0  0  0  0
   30.7720   28.6420   45.9970 H   0  0  0  0  0  0  0  0  0  0  0  0
   35.3670   29.7900   49.5720 C   0  0  0  0  0  0  0  0  0  0  0  0
   35.0060   30.1640   50.5310 H   0  0  0  0  0  0  0  0  0  0  0  0
   34.9080   30.3840   48.7540 H   0  0  0  0  0  0  0  0  0  0  0  0
   36.8750   29.8460   49.4580 C   0  0  0  0  0  0  0  0  0  0  0  0
   37.3960   30.8540   50.4540 C   0  0  0  0  0  0  0  0  0  0  0  0
   37.1980   32.2710   49.9360 C   0  0  0  0  0  0  0  0  0  0  0  0
   38.2420   32.4540   48.8590 C   0  0  0  0  0  0  0  0  0  0  0  0
   38.3810   31.2400   48.0010 C   0  0  0  0  0  0  0  0  0  0  0  0
   37.2160   30.2910   48.0580 C   0  0  0  0  0  0  0  0  0  0  0  0
  1 13  1  0  0  0  0
  1  2  1  0  0  0  0
  3  1  1  0  0  0  0
  4 10  1  0  0  0  0
  5  4  1  0  0  0  0
  5  1  1  0  0  0  0
  6  5  2  0  0  0  0
  7  8  2  0  0  0  0
  7  6  1  0  0  0  0
  8  9  1  0  0  0  0
  9  4  2  0  0  0  0
 11  6  1  0  0  0  0
 12  8  1  0  0  0  0
 13 14  1  0  0  0  0
 15 13  1  0  0  0  0
 16 13  1  0  0  0  0
 16 17  1  0  0  0  0
 18 17  1  0  0  0  0
 19 18  1  0  0  0  0
 20 21  1  0  0  0  0
 20 19  1  0  0  0  0
 21 16  1  0  0  0  0
M  END
>  <minimizedAffinity>
-4.93145418

>  <minimizedRMSD>
4.53072071

$$$$
