
 OpenBabel03252512463D

 30 32  0  0  1  0  0  0  0  0999 V2000
   38.3870   31.1170   47.8270 C   0  0  0  0  0  0  0  0  0  0  0  0
   38.8570   32.4500   47.9010 C   0  0  0  0  0  0  0  0  0  0  0  0
   39.6310   32.7310   46.2550 S   0  0  0  0  0  0  0  0  0  0  0  0
   39.1650   30.9410   45.7510 C   0  0  0  0  0  0  0  0  0  0  0  0
   38.6470   30.5470   46.6620 N   0  0  0  0  0  0  0  0  0  0  0  0
   38.7680   33.1280   48.7480 H   0  0  0  0  0  0  0  0  0  0  0  0
   38.1070   30.8610   50.2660 C   0  0  0  0  0  0  0  0  0  0  0  0
   37.6910   30.5280   48.9730 C   0  0  0  0  0  0  0  0  0  0  0  0
   36.6180   29.6480   48.8650 C   0  0  0  0  0  0  0  0  0  0  0  0
   36.0350   29.1610   49.9840 N   0  0  0  0  0  0  0  0  0  0  0  0
   36.4670   29.5070   51.2130 C   0  0  0  0  0  0  0  0  0  0  0  0
   37.5080   30.3610   51.3490 N   0  0  0  0  0  0  0  0  0  0  0  0
   38.9280   31.5340   50.4220 H   0  0  0  0  0  0  0  0  0  0  0  0
   36.2920   29.3870   47.8670 H   0  0  0  0  0  0  0  0  0  0  0  0
   35.9210   29.0530   52.0250 H   0  0  0  0  0  0  0  0  0  0  0  0
   39.4840   30.3560   44.4030 C   0  0  2  0  0  0  0  0  0  0  0  0
   39.9490   29.3770   44.6210 H   0  0  0  0  0  0  0  0  0  0  0  0
   40.3940   31.3150   43.7090 C   0  0  0  0  0  0  0  0  0  0  0  0
   40.0420   31.6030   42.7050 H   0  0  0  0  0  0  0  0  0  0  0  0
   40.5120   32.2820   44.2720 H   0  0  0  0  0  0  0  0  0  0  0  0
   41.4220   30.9020   43.5700 H   0  0  0  0  0  0  0  0  0  0  0  0
   38.1810   30.1930   43.6420 C   0  0  0  0  0  0  0  0  0  0  0  0
   38.0870   31.1060   42.9990 H   0  0  0  0  0  0  0  0  0  0  0  0
   37.3450   30.2280   44.3440 H   0  0  0  0  0  0  0  0  0  0  0  0
   38.1280   29.0200   42.7410 C   0  0  0  0  0  0  0  0  0  0  0  0
   39.1040   27.9840   43.3140 C   0  0  0  0  0  0  0  0  0  0  0  0
   39.4540   26.9490   42.2860 C   0  0  0  0  0  0  0  0  0  0  0  0
   40.2770   27.6110   41.2000 C   0  0  0  0  0  0  0  0  0  0  0  0
   39.7960   28.9840   40.8470 C   0  0  0  0  0  0  0  0  0  0  0  0
   38.4020   29.2940   41.3060 C   0  0  0  0  0  0  0  0  0  0  0  0
  1  2  2  0  0  0  0
  1  8  1  0  0  0  0
  2  6  1  0  0  0  0
  3  2  1  0  0  0  0
  4  3  1  0  0  0  0
  4  5  2  0  0  0  0
  5  1  1  0  0  0  0
  7 13  1  0  0  0  0
  7 12  1  0  0  0  0
  8  7  2  0  0  0  0
  9  8  1  0  0  0  0
  9 10  2  0  0  0  0
 10 11  1  0  0  0  0
 11 12  2  0  0  0  0
 11 15  1  0  0  0  0
 14  9  1  0  0  0  0
 16 17  1  1  0  0  0
 16  4  1  0  0  0  0
 18 20  1  0  0  0  0
 18 16  1  0  0  0  0
 19 18  1  0  0  0  0
 21 18  1  0  0  0  0
 22 24  1  0  0  0  0
 22 16  1  0  0  0  0
 23 22  1  0  0  0  0
 25 26  1  0  0  0  0
 25 22  1  0  0  0  0
 27 26  1  0  0  0  0
 28 27  1  0  0  0  0
 29 28  1  0  0  0  0
 29 30  1  0  0  0  0
 30 25  1  0  0  0  0
M  END
>  <minimizedAffinity>
-5.34583855

>  <minimizedRMSD>
1.23680818

$$$$
