
 OpenBabel03252514043D

 35 38  0  0  1  0  0  0  0  0999 V2000
   35.2480   29.1930   48.6010 C   0  0  2  0  0  0  0  0  0  0  0  0
   34.0300   29.3200   49.3950 C   0  0  0  0  0  0  0  0  0  0  0  0
   34.3840   27.9730   49.0610 C   0  0  1  0  0  0  0  0  0  0  0  0
   35.2350   29.4430   47.5440 H   0  0  0  0  0  0  0  0  0  0  0  0
   33.1220   29.8030   48.9290 H   0  0  0  0  0  0  0  0  0  0  0  0
   34.1490   29.6950   50.4400 H   0  0  0  0  0  0  0  0  0  0  0  0
   34.9410   27.2820   49.6950 H   0  0  0  0  0  0  0  0  0  0  0  0
   36.5730   29.2320   49.3800 C   0  0  0  0  0  0  0  0  0  0  0  0
   37.1860   28.3250   49.1410 H   0  0  0  0  0  0  0  0  0  0  0  0
   36.3510   29.1960   50.4590 H   0  0  0  0  0  0  0  0  0  0  0  0
   37.6150   32.7260   49.5710 C   0  0  0  0  0  0  0  0  0  0  0  0
   38.4880   32.8500   48.4760 C   0  0  0  0  0  0  0  0  0  0  0  0
   38.7030   31.7020   47.6770 C   0  0  0  0  0  0  0  0  0  0  0  0
   38.0530   30.5450   48.0170 N   0  0  0  0  0  0  0  0  0  0  0  0
   37.2360   30.4870   49.0690 C   0  0  0  0  0  0  0  0  0  0  0  0
   37.0250   31.5880   49.8400 N   0  0  0  0  0  0  0  0  0  0  0  0
   37.5150   33.6550   50.1190 H   0  0  0  0  0  0  0  0  0  0  0  0
   39.0380   33.7300   48.1430 H   0  0  0  0  0  0  0  0  0  0  0  0
   39.3520   31.6720   46.8080 H   0  0  0  0  0  0  0  0  0  0  0  0
   33.5390   27.3210   47.9840 C   0  0  0  0  0  0  0  0  0  0  0  0
   33.8740   26.0910   47.7570 O   0  0  0  0  0  0  0  0  0  0  0  0
   32.4920   27.9190   47.2800 O   0  0  0  0  0  0  0  0  0  0  0  0
   31.2370   28.0760   47.8060 C   0  0  0  0  0  0  0  0  0  0  0  0
   30.7940   27.5910   49.1350 C   0  0  0  0  0  0  0  0  0  0  0  0
   29.5190   27.8300   49.5000 C   0  0  0  0  0  0  0  0  0  0  0  0
   28.6190   28.5160   48.6640 C   0  0  0  0  0  0  0  0  0  0  0  0
   29.6490   28.8910   47.1630 S   0  0  0  0  0  0  0  0  0  0  0  0
   31.5280   27.0760   49.7260 H   0  0  0  0  0  0  0  0  0  0  0  0
   29.1210   27.5110   50.4480 H   0  0  0  0  0  0  0  0  0  0  0  0
   27.3000   28.8840   48.7880 C   0  0  0  0  0  0  0  0  0  0  0  0
   26.2070   28.0550   48.8970 C   0  0  0  0  0  3  0  0  0  0  0  0
   25.0800   28.8810   49.0000 C   0  0  0  0  0  3  0  0  0  0  0  0
   25.5890   30.1840   48.9440 C   0  0  0  0  0  0  0  0  0  0  0  0
   24.9940   31.1070   48.9940 H   0  0  0  0  0  0  0  0  0  0  0  0
   26.8940   30.1280   48.8190 O   0  0  0  0  0  0  0  0  0  0  0  0
  1  4  1  6  0  0  0
  1  3  1  0  0  0  0
  1  8  1  0  0  0  0
  1  2  1  0  0  0  0
  2  6  1  0  0  0  0
  3  2  1  0  0  0  0
  3  7  1  1  0  0  0
  5  2  1  0  0  0  0
  8 10  1  0  0  0  0
  9  8  1  0  0  0  0
 11 16  1  0  0  0  0
 11 17  1  0  0  0  0
 12 11  2  0  0  0  0
 13 14  2  0  0  0  0
 13 12  1  0  0  0  0
 14 15  1  0  0  0  0
 15  8  1  0  0  0  0
 15 16  2  0  0  0  0
 18 12  1  0  0  0  0
 19 13  1  0  0  0  0
 20  3  1  0  0  0  0
 21 20  2  0  0  0  0
 22 23  1  0  0  0  0
 22 20  1  0  0  0  0
 23 24  2  0  0  0  0
 24 25  1  0  0  0  0
 24 28  1  0  0  0  0
 25 29  1  0  0  0  0
 26 30  1  0  0  0  0
 26 25  2  0  0  0  0
 27 23  1  0  0  0  0
 27 26  1  0  0  0  0
 30 35  1  0  0  0  0
 30 31  2  0  0  0  0
 31 32  1  0  0  0  0
 33 34  1  0  0  0  0
 33 32  2  0  0  0  0
 35 33  1  0  0  0  0
M  END
>  <minimizedAffinity>
-6.29461575

>  <minimizedRMSD>
1.59844816

$$$$
