
 OpenBabel03252514043D

 35 38  0  0  1  0  0  0  0  0999 V2000
   35.2780   29.2500   48.6820 C   0  0  2  0  0  0  0  0  0  0  0  0
   34.1000   29.3230   49.5390 C   0  0  0  0  0  0  0  0  0  0  0  0
   34.4510   27.9980   49.1250 C   0  0  1  0  0  0  0  0  0  0  0  0
   35.2130   29.5490   47.6410 H   0  0  0  0  0  0  0  0  0  0  0  0
   33.1650   29.8170   49.1400 H   0  0  0  0  0  0  0  0  0  0  0  0
   34.2640   29.6510   50.5940 H   0  0  0  0  0  0  0  0  0  0  0  0
   35.0450   27.2860   49.6980 H   0  0  0  0  0  0  0  0  0  0  0  0
   36.6390   29.2690   49.3990 C   0  0  0  0  0  0  0  0  0  0  0  0
   37.2300   28.3560   49.1260 H   0  0  0  0  0  0  0  0  0  0  0  0
   36.4680   29.2310   50.4870 H   0  0  0  0  0  0  0  0  0  0  0  0
   37.7150   32.7550   49.5450 C   0  0  0  0  0  0  0  0  0  0  0  0
   38.5520   32.8700   48.4220 C   0  0  0  0  0  0  0  0  0  0  0  0
   38.7330   31.7180   47.6210 C   0  0  0  0  0  0  0  0  0  0  0  0
   38.0850   30.5660   47.9850 N   0  0  0  0  0  0  0  0  0  0  0  0
   37.3020   30.5180   49.0630 C   0  0  0  0  0  0  0  0  0  0  0  0
   37.1240   31.6220   49.8360 N   0  0  0  0  0  0  0  0  0  0  0  0
   37.6400   33.6860   50.0930 H   0  0  0  0  0  0  0  0  0  0  0  0
   39.0990   33.7440   48.0700 H   0  0  0  0  0  0  0  0  0  0  0  0
   39.3530   31.6800   46.7310 H   0  0  0  0  0  0  0  0  0  0  0  0
   33.5610   27.3870   48.0600 C   0  0  0  0  0  0  0  0  0  0  0  0
   33.8900   26.1690   47.7700 O   0  0  0  0  0  0  0  0  0  0  0  0
   32.4850   28.0080   47.4250 O   0  0  0  0  0  0  0  0  0  0  0  0
   31.2310   28.0660   47.9760 C   0  0  0  0  0  0  0  0  0  0  0  0
   30.8590   27.5710   49.3230 C   0  0  0  0  0  0  0  0  0  0  0  0
   29.5760   27.7050   49.7110 C   0  0  0  0  0  0  0  0  0  0  0  0
   28.6020   28.2930   48.8830 C   0  0  0  0  0  0  0  0  0  0  0  0
   29.5660   28.7260   47.3530 S   0  0  0  0  0  0  0  0  0  0  0  0
   31.6470   27.1340   49.9070 H   0  0  0  0  0  0  0  0  0  0  0  0
   29.2270   27.3710   50.6730 H   0  0  0  0  0  0  0  0  0  0  0  0
   27.2590   28.5480   49.0290 C   0  0  0  0  0  0  0  0  0  0  0  0
   26.4780   28.3100   50.1380 C   0  0  0  0  0  3  0  0  0  0  0  0
   25.1810   28.7300   49.8170 C   0  0  0  0  0  3  0  0  0  0  0  0
   25.2760   29.2050   48.5040 C   0  0  0  0  0  0  0  0  0  0  0  0
   24.4480   29.6190   47.9110 H   0  0  0  0  0  0  0  0  0  0  0  0
   26.5150   29.0740   48.0900 O   0  0  0  0  0  0  0  0  0  0  0  0
  1  4  1  6  0  0  0
  1  3  1  0  0  0  0
  1  8  1  0  0  0  0
  1  2  1  0  0  0  0
  2  6  1  0  0  0  0
  3  2  1  0  0  0  0
  3  7  1  1  0  0  0
  5  2  1  0  0  0  0
  8 10  1  0  0  0  0
  9  8  1  0  0  0  0
 11 16  1  0  0  0  0
 11 17  1  0  0  0  0
 12 11  2  0  0  0  0
 13 14  2  0  0  0  0
 13 12  1  0  0  0  0
 14 15  1  0  0  0  0
 15  8  1  0  0  0  0
 15 16  2  0  0  0  0
 18 12  1  0  0  0  0
 19 13  1  0  0  0  0
 20  3  1  0  0  0  0
 21 20  2  0  0  0  0
 22 23  1  0  0  0  0
 22 20  1  0  0  0  0
 23 24  2  0  0  0  0
 24 25  1  0  0  0  0
 24 28  1  0  0  0  0
 25 29  1  0  0  0  0
 26 30  1  0  0  0  0
 26 25  2  0  0  0  0
 27 23  1  0  0  0  0
 27 26  1  0  0  0  0
 30 31  2  0  0  0  0
 32 31  1  0  0  0  0
 33 32  2  0  0  0  0
 34 33  1  0  0  0  0
 35 33  1  0  0  0  0
 35 30  1  0  0  0  0
M  END
>  <minimizedAffinity>
-6.14710283

>  <minimizedRMSD>
1.47409916

$$$$
