
 OpenBabel03252511353D

 28 30  0  0  0  0  0  0  0  0999 V2000
   36.5170   30.6330   46.5540 C   0  0  0  0  0  0  0  0  0  0  0  0
   35.2570   30.0700   46.4700 C   0  0  0  0  0  0  0  0  0  0  0  0
   34.6400   29.7530   45.2670 C   0  0  0  0  0  0  0  0  0  0  0  0
   35.2860   29.9980   44.0950 C   0  0  0  0  0  0  0  0  0  0  0  0
   36.5460   30.5590   44.1580 C   0  0  0  0  0  0  0  0  0  0  0  0
   37.1600   30.8750   45.3630 C   0  0  0  0  0  0  0  0  0  0  0  0
   34.6870   29.8500   47.3840 H   0  0  0  0  0  0  0  0  0  0  0  0
   33.6480   29.3120   45.2550 H   0  0  0  0  0  0  0  0  0  0  0  0
   34.8670   29.7780   43.1270 H   0  0  0  0  0  0  0  0  0  0  0  0
   37.1090   30.7780   43.2760 H   0  0  0  0  0  0  0  0  0  0  0  0
   37.4330   30.3560   50.0710 C   0  0  0  0  0  0  0  0  0  0  0  0
   38.1860   31.5230   50.2870 C   0  0  0  0  0  0  0  0  0  0  0  0
   38.3740   32.4010   49.2130 C   0  0  0  0  0  0  0  0  0  0  0  0
   37.8190   32.0780   48.0250 N   0  0  0  0  0  0  0  0  0  0  0  0
   37.0940   30.9340   47.8530 C   0  0  0  0  0  0  0  0  0  0  0  0
   36.9180   30.1000   48.8800 N   0  0  0  0  0  0  0  0  0  0  0  0
   38.6250   31.7720   51.2400 H   0  0  0  0  0  0  0  0  0  0  0  0
   38.9450   33.3080   49.3330 H   0  0  0  0  0  0  0  0  0  0  0  0
   37.2400   29.4250   51.2300 C   0  0  0  0  0  0  0  0  0  0  0  0
   35.8850   29.1730   51.3950 F   0  0  0  0  0  0  0  0  0  0  0  0
   37.9760   28.3000   50.9870 F   0  0  0  0  0  0  0  0  0  0  0  0
   37.6760   30.0750   52.3800 F   0  0  0  0  0  0  0  0  0  0  0  0
   38.4910   31.4690   45.4540 C   0  0  0  0  0  0  0  0  0  0  0  0
   39.5370   30.5480   45.4950 C   0  0  0  0  0  0  0  0  0  0  0  0
   40.7230   31.2830   45.5810 C   0  0  0  0  0  0  0  0  0  0  0  0
   40.3000   32.6160   45.5850 C   0  0  0  0  0  0  0  0  0  0  0  0
   40.9760   33.4600   45.6430 H   0  0  0  0  0  0  0  0  0  0  0  0
   39.0010   32.6770   45.5100 O   0  0  0  0  0  0  0  0  0  0  0  0
  1 15  1  0  0  0  0
  2  1  1  0  0  0  0
  2  7  1  0  0  0  0
  3  2  2  0  0  0  0
  4  5  2  0  0  0  0
  4  3  1  0  0  0  0
  5  6  1  0  0  0  0
  6 23  1  0  0  0  0
  6  1  2  0  0  0  0
  8  3  1  0  0  0  0
  9  4  1  0  0  0  0
 10  5  1  0  0  0  0
 11 12  1  0  0  0  0
 11 19  1  0  0  0  0
 12 17  1  0  0  0  0
 13 18  1  0  0  0  0
 13 12  2  0  0  0  0
 14 13  1  0  0  0  0
 15 14  2  0  0  0  0
 15 16  1  0  0  0  0
 16 11  2  0  0  0  0
 19 20  1  0  0  0  0
 19 22  1  0  0  0  0
 21 19  1  0  0  0  0
 23 24  2  0  0  0  0
 23 28  1  0  0  0  0
 24 25  1  0  0  0  0
 25 26  2  0  0  0  0
 26 27  1  0  0  0  0
 28 26  1  0  0  0  0
M  END
>  <minimizedAffinity>
-6.65325499

>  <minimizedRMSD>
0.277374029

$$$$
