
 OpenBabel03252512343D

 39 42  0  0  1  0  0  0  0  0999 V2000
   31.8200   27.9020   46.9870 C   0  0  2  0  0  0  0  0  0  0  0  0
   32.0020   26.8150   46.7480 H   0  0  0  0  0  0  0  0  0  0  0  0
   35.1810   29.4960   48.6710 C   0  0  0  0  0  0  0  0  0  0  0  0
   34.7480   28.3230   49.2700 C   0  0  0  0  0  0  0  0  0  0  0  0
   33.6350   27.7380   48.7760 C   0  0  0  0  0  0  0  0  0  0  0  0
   33.0270   28.3120   47.7630 C   0  0  0  0  0  0  0  0  0  0  0  0
   33.9770   29.8140   47.3450 S   0  0  0  0  0  0  0  0  0  0  0  0
   35.3450   27.9410   50.1150 H   0  0  0  0  0  0  0  0  0  0  0  0
   33.2300   26.8170   49.1910 H   0  0  0  0  0  0  0  0  0  0  0  0
   38.0400   30.8550   50.5180 C   0  0  0  0  0  0  0  0  0  0  0  0
   38.5740   31.8160   49.6320 C   0  0  0  0  0  0  0  0  0  0  0  0
   37.9370   31.9830   48.4040 C   0  0  0  0  0  0  0  0  0  0  0  0
   36.8450   31.2220   48.1270 N   0  0  0  0  0  0  0  0  0  0  0  0
   36.3900   30.3250   49.0160 C   0  0  0  0  0  0  0  0  0  0  0  0
   36.9440   30.0830   50.2540 N   0  0  0  0  0  0  0  0  0  0  0  0
   38.5130   30.7030   51.4780 H   0  0  0  0  0  0  0  0  0  0  0  0
   39.4400   32.3610   49.9560 H   0  0  0  0  0  0  0  0  0  0  0  0
   38.3310   32.7090   47.7200 H   0  0  0  0  0  0  0  0  0  0  0  0
   31.6570   28.7470   45.8260 C   0  0  0  0  0  0  0  0  0  0  0  0
   31.1780   28.2700   44.9380 H   0  0  0  0  0  0  0  0  0  0  0  0
   31.0110   29.6290   46.0540 H   0  0  0  0  0  0  0  0  0  0  0  0
   32.6670   29.1010   45.4690 H   0  0  0  0  0  0  0  0  0  0  0  0
   30.6420   27.8620   47.9550 C   0  0  0  0  0  0  0  0  0  0  0  0
   30.0090   28.7530   47.6830 H   0  0  0  0  0  0  0  0  0  0  0  0
   30.9530   28.0450   49.0100 H   0  0  0  0  0  0  0  0  0  0  0  0
   29.9160   26.7300   47.8710 O   0  0  0  0  0  0  0  0  0  0  0  0
   29.1610   26.4240   46.7540 C   0  0  0  0  0  0  0  0  0  0  0  0
   28.9080   25.3520   45.9150 C   0  0  0  0  0  0  0  0  0  0  0  0
   28.0020   25.8420   44.9840 C   0  0  0  0  0  0  0  0  0  0  0  0
   27.7410   27.1540   45.2800 C   0  0  0  0  0  0  0  0  0  0  0  0
   28.4560   27.4480   46.3390 O   0  0  0  0  0  0  0  0  0  0  0  0
   29.4220   24.4490   46.1410 H   0  0  0  0  0  0  0  0  0  0  0  0
   27.6540   25.1630   44.2100 H   0  0  0  0  0  0  0  0  0  0  0  0
   26.8260   27.9790   44.4980 C   0  0  0  0  0  0  0  0  0  0  0  0
   25.6790   27.5090   43.8690 C   0  0  0  0  0  0  0  0  0  0  0  0
   25.1420   28.6460   43.2590 C   0  0  0  0  0  0  0  0  0  0  0  0
   25.9830   29.7190   43.5520 C   0  0  0  0  0  0  0  0  0  0  0  0
   25.6250   30.6360   43.1080 H   0  0  0  0  0  0  0  0  0  0  0  0
   26.9680   29.2470   44.2950 O   0  0  0  0  0  0  0  0  0  0  0  0
  1  2  1  6  0  0  0
  1  6  1  0  0  0  0
  1 23  1  0  0  0  0
  3 14  1  0  0  0  0
  3  4  2  0  0  0  0
  4  8  1  0  0  0  0
  5  9  1  0  0  0  0
  5  4  1  0  0  0  0
  6  5  2  0  0  0  0
  7  6  1  0  0  0  0
  7  3  1  0  0  0  0
 10 16  1  0  0  0  0
 11 17  1  0  0  0  0
 11 10  2  0  0  0  0
 12 11  1  0  0  0  0
 13 12  2  0  0  0  0
 13 14  1  0  0  0  0
 14 15  2  0  0  0  0
 15 10  1  0  0  0  0
 18 12  1  0  0  0  0
 19 21  1  0  0  0  0
 19  1  1  0  0  0  0
 20 19  1  0  0  0  0
 22 19  1  0  0  0  0
 23 25  1  0  0  0  0
 24 23  1  0  0  0  0
 26 23  1  0  0  0  0
 27 26  1  0  0  0  0
 28 32  1  0  0  0  0
 28 27  2  0  0  0  0
 29 30  2  0  0  0  0
 29 28  1  0  0  0  0
 30 31  1  0  0  0  0
 31 27  1  0  0  0  0
 33 29  1  0  0  0  0
 34 30  1  0  0  0  0
 35 34  2  0  0  0  0
 36 37  2  0  0  0  0
 36 35  1  0  0  0  0
 37 39  1  0  0  0  0
 38 37  1  0  0  0  0
 39 34  1  0  0  0  0
M  END
>  <minimizedAffinity>
-5.10753727

>  <minimizedRMSD>
0.220391661

$$$$
