
 OpenBabel03252513283D

 34 36  0  0  0  0  0  0  0  0999 V2000
   32.8050   27.9010   48.7160 C   0  0  0  0  0  0  0  0  0  0  0  0
   31.7000   28.3390   49.3840 C   0  0  0  0  0  0  0  0  0  0  0  0
   30.4640   27.7160   49.3420 C   0  0  0  0  0  0  0  0  0  0  0  0
   30.3980   26.5860   48.5590 C   0  0  0  0  0  0  0  0  0  0  0  0
   31.4850   26.1000   47.8610 C   0  0  0  0  0  0  0  0  0  0  0  0
   32.6930   26.7560   47.9370 C   0  0  0  0  0  0  0  0  0  0  0  0
   31.7920   29.2310   49.9900 H   0  0  0  0  0  0  0  0  0  0  0  0
   29.6360   28.1130   49.8910 H   0  0  0  0  0  0  0  0  0  0  0  0
   29.4310   26.0800   48.5120 H   0  0  0  0  0  0  0  0  0  0  0  0
   31.3830   25.2050   47.2570 H   0  0  0  0  0  0  0  0  0  0  0  0
   36.1650   28.9690   49.7320 C   0  0  0  0  0  0  0  0  0  0  0  0
   36.4440   30.0000   48.8250 C   0  0  0  0  0  0  0  0  0  0  0  0
   35.4610   30.3050   47.8790 C   0  0  0  0  0  0  0  0  0  0  0  0
   34.2820   29.5880   47.8830 N   0  0  0  0  0  0  0  0  0  0  0  0
   34.0760   28.5940   48.7970 C   0  0  0  0  0  0  0  0  0  0  0  0
   35.0050   28.3080   49.6890 N   0  0  0  0  0  0  0  0  0  0  0  0
   36.9360   28.7430   50.4590 H   0  0  0  0  0  0  0  0  0  0  0  0
   35.5810   31.0860   47.1350 H   0  0  0  0  0  0  0  0  0  0  0  0
   37.7080   30.7780   48.8110 C   0  0  0  0  0  0  0  0  0  0  0  0
   38.5050   30.5180   47.7360 F   0  0  0  0  0  0  0  0  0  0  0  0
   38.4530   30.5270   49.9410 F   0  0  0  0  0  0  0  0  0  0  0  0
   37.4150   32.1550   48.7810 F   0  0  0  0  0  0  0  0  0  0  0  0
   33.8930   26.3040   47.2270 C   0  0  0  0  0  0  0  0  0  0  0  0
   33.8740   26.7420   46.2080 H   0  0  0  0  0  0  0  0  0  0  0  0
   34.8040   26.6870   47.7280 H   0  0  0  0  0  0  0  0  0  0  0  0
   34.0320   24.8090   47.1140 C   0  0  0  0  0  0  0  0  0  0  0  0
   34.9040   24.4230   47.6590 H   0  0  0  0  0  0  0  0  0  0  0  0
   33.1240   24.3560   47.5660 H   0  0  0  0  0  0  0  0  0  0  0  0
   34.1310   24.3080   45.6990 C   0  0  0  0  0  0  0  0  0  0  0  0
   34.6050   25.3980   44.7730 C   0  0  0  0  0  0  0  0  0  0  0  0
   35.4120   24.8510   43.6200 C   0  0  0  0  0  0  0  0  0  0  0  0
   36.6430   24.1530   44.1200 C   0  0  0  0  0  0  0  0  0  0  0  0
   36.5050   23.5860   45.5040 C   0  0  0  0  0  0  0  0  0  0  0  0
   35.0920   23.1390   45.7080 C   0  0  0  0  0  0  0  0  0  0  0  0
  1 15  1  0  0  0  0
  1  2  1  0  0  0  0
  2  7  1  0  0  0  0
  3  2  2  0  0  0  0
  3  8  1  0  0  0  0
  4  3  1  0  0  0  0
  5  6  1  0  0  0  0
  5  4  2  0  0  0  0
  6  1  2  0  0  0  0
  9  4  1  0  0  0  0
 10  5  1  0  0  0  0
 11 17  1  0  0  0  0
 12 11  2  0  0  0  0
 13 14  2  0  0  0  0
 13 12  1  0  0  0  0
 14 15  1  0  0  0  0
 15 16  2  0  0  0  0
 16 11  1  0  0  0  0
 18 13  1  0  0  0  0
 19 12  1  0  0  0  0
 19 21  1  0  0  0  0
 20 19  1  0  0  0  0
 22 19  1  0  0  0  0
 23 25  1  0  0  0  0
 23  6  1  0  0  0  0
 24 23  1  0  0  0  0
 26 23  1  0  0  0  0
 26 28  1  0  0  0  0
 26 27  1  0  0  0  0
 29 34  1  0  0  0  0
 29 26  1  0  0  0  0
 30 29  1  0  0  0  0
 31 32  1  0  0  0  0
 31 30  1  0  0  0  0
 32 33  1  0  0  0  0
 33 34  1  0  0  0  0
M  END
>  <minimizedAffinity>
-5.4014883

>  <minimizedRMSD>
1.26391578

$$$$
