
 OpenBabel03252514043D

 35 38  0  0  1  0  0  0  0  0999 V2000
   35.2690   29.2610   48.7010 C   0  0  2  0  0  0  0  0  0  0  0  0
   34.0940   29.3130   49.5640 C   0  0  0  0  0  0  0  0  0  0  0  0
   34.4510   27.9970   49.1260 C   0  0  1  0  0  0  0  0  0  0  0  0
   35.1960   29.5770   47.6640 H   0  0  0  0  0  0  0  0  0  0  0  0
   33.1540   29.8070   49.1770 H   0  0  0  0  0  0  0  0  0  0  0  0
   34.2610   29.6240   50.6230 H   0  0  0  0  0  0  0  0  0  0  0  0
   35.0520   27.2790   49.6840 H   0  0  0  0  0  0  0  0  0  0  0  0
   36.6320   29.2770   49.4110 C   0  0  0  0  0  0  0  0  0  0  0  0
   37.2190   28.3610   49.1380 H   0  0  0  0  0  0  0  0  0  0  0  0
   36.4660   29.2410   50.5000 H   0  0  0  0  0  0  0  0  0  0  0  0
   37.7170   32.7610   49.5430 C   0  0  0  0  0  0  0  0  0  0  0  0
   38.5540   32.8690   48.4190 C   0  0  0  0  0  0  0  0  0  0  0  0
   38.7310   31.7130   47.6220 C   0  0  0  0  0  0  0  0  0  0  0  0
   38.0800   30.5650   47.9910 N   0  0  0  0  0  0  0  0  0  0  0  0
   37.2980   30.5230   49.0690 C   0  0  0  0  0  0  0  0  0  0  0  0
   37.1240   31.6300   49.8390 N   0  0  0  0  0  0  0  0  0  0  0  0
   37.6450   33.6940   50.0880 H   0  0  0  0  0  0  0  0  0  0  0  0
   39.1020   33.7400   48.0630 H   0  0  0  0  0  0  0  0  0  0  0  0
   39.3500   31.6710   46.7320 H   0  0  0  0  0  0  0  0  0  0  0  0
   33.5600   27.3980   48.0550 C   0  0  0  0  0  0  0  0  0  0  0  0
   33.8930   26.1860   47.7450 O   0  0  0  0  0  0  0  0  0  0  0  0
   32.4780   28.0240   47.4350 O   0  0  0  0  0  0  0  0  0  0  0  0
   31.2210   28.0500   47.9810 C   0  0  0  0  0  0  0  0  0  0  0  0
   30.8510   27.5160   49.3140 C   0  0  0  0  0  0  0  0  0  0  0  0
   29.5650   27.6220   49.7000 C   0  0  0  0  0  0  0  0  0  0  0  0
   28.5870   28.2170   48.8830 C   0  0  0  0  0  0  0  0  0  0  0  0
   29.5490   28.7020   47.3690 S   0  0  0  0  0  0  0  0  0  0  0  0
   31.6440   27.0750   49.8900 H   0  0  0  0  0  0  0  0  0  0  0  0
   29.2170   27.2590   50.6520 H   0  0  0  0  0  0  0  0  0  0  0  0
   27.2390   28.4490   49.0300 C   0  0  0  0  0  0  0  0  0  0  0  0
   26.3260   28.7220   48.0370 C   0  0  0  0  0  3  0  0  0  0  0  0
   25.0830   28.8850   48.6640 C   0  0  0  0  0  3  0  0  0  0  0  0
   25.3450   28.6930   50.0250 C   0  0  0  0  0  0  0  0  0  0  0  0
   24.6020   28.7450   50.8330 H   0  0  0  0  0  0  0  0  0  0  0  0
   26.6230   28.4410   50.1850 O   0  0  0  0  0  0  0  0  0  0  0  0
  1  4  1  6  0  0  0
  1  3  1  0  0  0  0
  1  8  1  0  0  0  0
  1  2  1  0  0  0  0
  2  6  1  0  0  0  0
  3  2  1  0  0  0  0
  3  7  1  1  0  0  0
  5  2  1  0  0  0  0
  8 10  1  0  0  0  0
  9  8  1  0  0  0  0
 11 16  1  0  0  0  0
 11 17  1  0  0  0  0
 12 11  2  0  0  0  0
 13 14  2  0  0  0  0
 13 12  1  0  0  0  0
 14 15  1  0  0  0  0
 15  8  1  0  0  0  0
 15 16  2  0  0  0  0
 18 12  1  0  0  0  0
 19 13  1  0  0  0  0
 20  3  1  0  0  0  0
 21 20  2  0  0  0  0
 22 23  1  0  0  0  0
 22 20  1  0  0  0  0
 23 24  2  0  0  0  0
 24 25  1  0  0  0  0
 24 28  1  0  0  0  0
 25 29  1  0  0  0  0
 26 30  1  0  0  0  0
 26 25  2  0  0  0  0
 27 23  1  0  0  0  0
 27 26  1  0  0  0  0
 30 35  1  0  0  0  0
 31 32  1  0  0  0  0
 31 30  2  0  0  0  0
 32 33  2  0  0  0  0
 33 35  1  0  0  0  0
 33 34  1  0  0  0  0
M  END
>  <minimizedAffinity>
-6.08985567

>  <minimizedRMSD>
1.32850671

$$$$
