
 OpenBabel03252514043D

 35 38  0  0  1  0  0  0  0  0999 V2000
   35.2450   29.1960   48.6070 C   0  0  2  0  0  0  0  0  0  0  0  0
   34.0300   29.3130   49.4060 C   0  0  0  0  0  0  0  0  0  0  0  0
   34.3870   27.9690   49.0610 C   0  0  1  0  0  0  0  0  0  0  0  0
   35.2290   29.4520   47.5520 H   0  0  0  0  0  0  0  0  0  0  0  0
   33.1180   29.7970   48.9450 H   0  0  0  0  0  0  0  0  0  0  0  0
   34.1510   29.6810   50.4530 H   0  0  0  0  0  0  0  0  0  0  0  0
   34.9470   27.2760   49.6890 H   0  0  0  0  0  0  0  0  0  0  0  0
   36.5720   29.2330   49.3820 C   0  0  0  0  0  0  0  0  0  0  0  0
   37.1840   28.3240   49.1420 H   0  0  0  0  0  0  0  0  0  0  0  0
   36.3540   29.2000   50.4620 H   0  0  0  0  0  0  0  0  0  0  0  0
   37.6220   32.7260   49.5630 C   0  0  0  0  0  0  0  0  0  0  0  0
   38.4910   32.8460   48.4650 C   0  0  0  0  0  0  0  0  0  0  0  0
   38.7020   31.6970   47.6680 C   0  0  0  0  0  0  0  0  0  0  0  0
   38.0510   30.5410   48.0120 N   0  0  0  0  0  0  0  0  0  0  0  0
   37.2370   30.4870   49.0660 C   0  0  0  0  0  0  0  0  0  0  0  0
   37.0310   31.5890   49.8360 N   0  0  0  0  0  0  0  0  0  0  0  0
   37.5250   33.6550   50.1100 H   0  0  0  0  0  0  0  0  0  0  0  0
   39.0420   33.7240   48.1300 H   0  0  0  0  0  0  0  0  0  0  0  0
   39.3480   31.6640   46.7970 H   0  0  0  0  0  0  0  0  0  0  0  0
   33.5390   27.3220   47.9830 C   0  0  0  0  0  0  0  0  0  0  0  0
   33.8730   26.0920   47.7530 O   0  0  0  0  0  0  0  0  0  0  0  0
   32.4940   27.9240   47.2810 O   0  0  0  0  0  0  0  0  0  0  0  0
   31.2380   28.0790   47.8060 C   0  0  0  0  0  0  0  0  0  0  0  0
   30.7950   27.5920   49.1340 C   0  0  0  0  0  0  0  0  0  0  0  0
   29.5200   27.8290   49.4990 C   0  0  0  0  0  0  0  0  0  0  0  0
   28.6200   28.5160   48.6640 C   0  0  0  0  0  0  0  0  0  0  0  0
   29.6510   28.8940   47.1640 S   0  0  0  0  0  0  0  0  0  0  0  0
   31.5290   27.0760   49.7250 H   0  0  0  0  0  0  0  0  0  0  0  0
   29.1220   27.5080   50.4460 H   0  0  0  0  0  0  0  0  0  0  0  0
   27.3010   28.8830   48.7880 C   0  0  0  0  0  0  0  0  0  0  0  0
   26.2080   28.0520   48.8950 C   0  0  0  0  0  0  0  0  0  0  0  0
   25.0800   28.8780   48.9990 C   0  0  0  0  0  0  0  0  0  0  0  0
   25.5880   30.1810   48.9430 C   0  0  0  0  0  0  0  0  0  0  0  0
   24.9930   31.1040   48.9960 H   0  0  0  0  0  0  0  0  0  0  0  0
   26.8940   30.1280   48.8200 O   0  0  0  0  0  0  0  0  0  0  0  0
  1  4  1  6  0  0  0
  1  3  1  0  0  0  0
  1  8  1  0  0  0  0
  1  2  1  0  0  0  0
  2  6  1  0  0  0  0
  3  2  1  0  0  0  0
  3  7  1  1  0  0  0
  5  2  1  0  0  0  0
  8 10  1  0  0  0  0
  9  8  1  0  0  0  0
 11 16  1  0  0  0  0
 11 17  1  0  0  0  0
 12 11  2  0  0  0  0
 13 14  2  0  0  0  0
 13 12  1  0  0  0  0
 14 15  1  0  0  0  0
 15  8  1  0  0  0  0
 15 16  2  0  0  0  0
 18 12  1  0  0  0  0
 19 13  1  0  0  0  0
 20  3  1  0  0  0  0
 21 20  2  0  0  0  0
 22 23  1  0  0  0  0
 22 20  1  0  0  0  0
 23 24  2  0  0  0  0
 24 25  1  0  0  0  0
 24 28  1  0  0  0  0
 25 29  1  0  0  0  0
 26 30  1  0  0  0  0
 26 25  2  0  0  0  0
 27 23  1  0  0  0  0
 27 26  1  0  0  0  0
 30 35  1  0  0  0  0
 30 31  2  0  0  0  0
 31 32  1  0  0  0  0
 33 34  1  0  0  0  0
 33 32  2  0  0  0  0
 35 33  1  0  0  0  0
M  END
>  <minimizedAffinity>
-6.29651403

>  <minimizedRMSD>
1.58476329

$$$$
