
 OpenBabel03252514033D

 32 34  0  0  1  0  0  0  0  0999 V2000
   35.1140   29.3010   48.8510 C   0  0  2  0  0  0  0  0  0  0  0  0
   34.0330   29.3180   49.8310 C   0  0  0  0  0  0  0  0  0  0  0  0
   34.3130   28.0260   49.2740 C   0  0  1  0  0  0  0  0  0  0  0  0
   35.0250   29.5540   47.7900 H   0  0  0  0  0  0  0  0  0  0  0  0
   34.3170   29.4870   50.9030 H   0  0  0  0  0  0  0  0  0  0  0  0
   33.0880   29.8610   49.5740 H   0  0  0  0  0  0  0  0  0  0  0  0
   34.9480   27.2380   49.6770 H   0  0  0  0  0  0  0  0  0  0  0  0
   36.5430   29.2380   49.4210 C   0  0  0  0  0  0  0  0  0  0  0  0
   37.0620   28.3270   49.0630 H   0  0  0  0  0  0  0  0  0  0  0  0
   36.4890   29.1490   50.5240 H   0  0  0  0  0  0  0  0  0  0  0  0
   37.5980   32.7320   49.5660 C   0  0  0  0  0  0  0  0  0  0  0  0
   38.4720   32.8330   48.4610 C   0  0  0  0  0  0  0  0  0  0  0  0
   38.6810   31.6730   47.6770 C   0  0  0  0  0  0  0  0  0  0  0  0
   38.0250   30.5200   48.0340 N   0  0  0  0  0  0  0  0  0  0  0  0
   37.2110   30.4850   49.0900 C   0  0  0  0  0  0  0  0  0  0  0  0
   37.0080   31.5910   49.8410 N   0  0  0  0  0  0  0  0  0  0  0  0
   37.4850   33.6520   50.1190 H   0  0  0  0  0  0  0  0  0  0  0  0
   38.9970   33.7290   48.1630 H   0  0  0  0  0  0  0  0  0  0  0  0
   39.3310   31.6800   46.8250 H   0  0  0  0  0  0  0  0  0  0  0  0
   33.3010   27.5210   48.2660 C   0  0  0  0  0  0  0  0  0  0  0  0
   33.6450   26.3830   47.7410 O   0  0  0  0  0  0  0  0  0  0  0  0
   32.1090   28.1470   47.8970 O   0  0  0  0  0  0  0  0  0  0  0  0
   30.8890   27.7890   48.3910 C   0  0  0  0  0  0  0  0  0  0  0  0
   30.4670   27.9280   49.7850 C   0  0  0  0  0  0  0  0  0  0  0  0
   29.2180   27.5300   50.1380 C   0  0  0  0  0  0  0  0  0  0  0  0
   28.3420   26.9890   49.1630 C   0  0  0  0  0  0  0  0  0  0  0  0
   29.3460   27.0340   47.6050 S   0  0  0  0  0  0  0  0  0  0  0  0
   31.1690   28.3450   50.4860 H   0  0  0  0  0  0  0  0  0  0  0  0
   28.8130   27.5850   51.1070 H   0  0  0  0  0  0  0  0  0  0  0  0
   27.1140   26.5200   49.1580 N   0  0  0  0  0  0  0  0  0  0  0  0
   26.8750   25.5250   48.9190 H   0  0  0  0  0  0  0  0  0  0  0  0
   26.2470   27.0940   49.3910 H   0  0  0  0  0  0  0  0  0  0  0  0
  1  4  1  6  0  0  0
  1  3  1  0  0  0  0
  1  8  1  0  0  0  0
  1  2  1  0  0  0  0
  2  5  1  0  0  0  0
  3  7  1  1  0  0  0
  3  2  1  0  0  0  0
  6  2  1  0  0  0  0
  8 10  1  0  0  0  0
  9  8  1  0  0  0  0
 11 16  1  0  0  0  0
 11 17  1  0  0  0  0
 12 11  2  0  0  0  0
 13 14  2  0  0  0  0
 13 12  1  0  0  0  0
 14 15  1  0  0  0  0
 15  8  1  0  0  0  0
 15 16  2  0  0  0  0
 18 12  1  0  0  0  0
 19 13  1  0  0  0  0
 20  3  1  0  0  0  0
 21 20  2  0  0  0  0
 22 20  1  0  0  0  0
 22 23  1  0  0  0  0
 23 24  2  0  0  0  0
 24 25  1  0  0  0  0
 24 28  1  0  0  0  0
 25 29  1  0  0  0  0
 26 25  2  0  0  0  0
 27 23  1  0  0  0  0
 27 26  1  0  0  0  0
 30 26  1  0  0  0  0
 30 32  1  0  0  0  0
 31 30  1  0  0  0  0
M  END
>  <minimizedAffinity>
-5.58408785

>  <minimizedRMSD>
0.349715084

$$$$
