
 OpenBabel03252512283D

 30 31  0  0  1  0  0  0  0  0999 V2000
   34.9200   29.4150   48.5860 C   0  0  0  0  0  0  0  0  0  0  0  0
   34.4240   28.2440   49.1780 C   0  0  0  0  0  0  0  0  0  0  0  0
   33.3160   27.7120   48.6140 C   0  0  0  0  0  0  0  0  0  0  0  0
   32.7700   28.3020   47.5650 C   0  0  0  0  0  0  0  0  0  0  0  0
   33.7990   29.7590   47.2190 S   0  0  0  0  0  0  0  0  0  0  0  0
   34.9670   27.8450   50.0510 H   0  0  0  0  0  0  0  0  0  0  0  0
   32.8570   26.8060   49.0010 H   0  0  0  0  0  0  0  0  0  0  0  0
   37.7400   30.6280   50.6100 C   0  0  0  0  0  0  0  0  0  0  0  0
   38.3610   31.5520   49.7580 C   0  0  0  0  0  0  0  0  0  0  0  0
   37.8040   31.7570   48.4970 C   0  0  0  0  0  0  0  0  0  0  0  0
   36.6950   31.0460   48.1780 N   0  0  0  0  0  0  0  0  0  0  0  0
   36.1320   30.1840   48.9960 C   0  0  0  0  0  0  0  0  0  0  0  0
   36.6290   29.9430   50.2400 N   0  0  0  0  0  0  0  0  0  0  0  0
   38.2010   30.4940   51.5850 H   0  0  0  0  0  0  0  0  0  0  0  0
   39.2300   32.1120   50.0030 H   0  0  0  0  0  0  0  0  0  0  0  0
   38.1630   32.4260   47.7420 H   0  0  0  0  0  0  0  0  0  0  0  0
   31.6040   27.9570   46.7310 C   0  0  2  0  0  0  0  0  0  0  0  0
   31.6940   26.8340   46.5750 H   0  0  0  0  0  0  0  0  0  0  0  0
   31.6490   28.6730   45.4560 C   0  0  0  0  0  0  0  0  0  0  0  0
   31.3450   28.0090   44.6190 H   0  0  0  0  0  0  0  0  0  0  0  0
   32.7040   28.9840   45.2300 H   0  0  0  0  0  0  0  0  0  0  0  0
   30.9810   29.5570   45.3780 H   0  0  0  0  0  0  0  0  0  0  0  0
   30.3480   28.1790   47.5450 C   0  0  0  0  0  0  0  0  0  0  0  0
   29.6540   28.7610   46.9010 H   0  0  0  0  0  0  0  0  0  0  0  0
   30.5420   28.7920   48.4440 H   0  0  0  0  0  0  0  0  0  0  0  0
   29.7350   27.0030   47.9030 O   0  0  0  0  0  0  0  0  0  0  0  0
   28.4730   26.6670   47.4350 C   0  0  0  0  0  0  0  0  0  0  0  0
   28.2760   25.8400   46.5050 O   0  0  0  0  0  0  0  0  0  0  0  0
   27.2220   27.1090   47.8300 O   0  0  0  0  0  0  0  0  0  0  0  0
   26.5060   26.4540   48.1170 H   0  0  0  0  0  0  0  0  0  0  0  0
  1 12  1  0  0  0  0
  1  2  2  0  0  0  0
  2  6  1  0  0  0  0
  3  7  1  0  0  0  0
  3  2  1  0  0  0  0
  4  3  2  0  0  0  0
  5  4  1  0  0  0  0
  5  1  1  0  0  0  0
  8 14  1  0  0  0  0
  9 15  1  0  0  0  0
  9  8  2  0  0  0  0
 10  9  1  0  0  0  0
 11 10  2  0  0  0  0
 11 12  1  0  0  0  0
 12 13  2  0  0  0  0
 13  8  1  0  0  0  0
 16 10  1  0  0  0  0
 17 18  1  6  0  0  0
 17 23  1  0  0  0  0
 17  4  1  0  0  0  0
 19 17  1  0  0  0  0
 20 19  1  0  0  0  0
 21 19  1  0  0  0  0
 22 19  1  0  0  0  0
 23 26  1  0  0  0  0
 23 25  1  0  0  0  0
 24 23  1  0  0  0  0
 27 29  1  0  0  0  0
 27 26  1  0  0  0  0
 28 27  2  0  0  0  0
 29 30  1  0  0  0  0
M  END
>  <minimizedAffinity>
-4.36785698

>  <minimizedRMSD>
1.28414977

$$$$
