
 OpenBabel03252511033D

 33 35  0  0  0  0  0  0  0  0999 V2000
   39.3300   31.8570   45.7060 C   0  0  0  0  0  0  0  0  0  0  0  0
   40.5880   31.2990   45.5450 C   0  0  0  0  0  0  0  0  0  0  0  0
   40.8630   31.2750   44.1840 C   0  0  0  0  0  0  0  0  0  0  0  0
   39.7270   31.8340   43.5900 C   0  0  0  0  0  0  0  0  0  0  0  0
   38.8700   32.1530   44.5290 O   0  0  0  0  0  0  0  0  0  0  0  0
   41.3100   30.9170   46.2580 H   0  0  0  0  0  0  0  0  0  0  0  0
   41.7540   30.9070   43.6910 H   0  0  0  0  0  0  0  0  0  0  0  0
   37.1690   31.3630   48.5950 C   0  0  0  0  0  0  0  0  0  0  0  0
   37.5480   32.4210   49.4780 C   0  0  0  0  0  0  0  0  0  0  0  0
   38.5500   33.2780   49.0380 C   0  0  0  0  0  0  0  0  0  0  0  0
   39.1000   33.0530   47.8000 N   0  0  0  0  0  0  0  0  0  0  0  0
   38.7050   32.0440   47.0130 C   0  0  0  0  0  0  0  0  0  0  0  0
   37.7330   31.1850   47.4030 N   0  0  0  0  0  0  0  0  0  0  0  0
   37.1060   32.5720   50.4320 H   0  0  0  0  0  0  0  0  0  0  0  0
   38.9180   34.1120   49.6190 H   0  0  0  0  0  0  0  0  0  0  0  0
   36.1250   30.4740   49.0580 C   0  0  0  0  0  0  0  0  0  0  0  0
   34.9200   30.7060   48.7470 O   0  0  0  0  0  0  0  0  0  0  0  0
   36.4450   29.3710   49.8400 O   0  0  0  0  0  0  0  0  0  0  0  0
   36.4910   29.4350   51.2360 C   0  0  0  0  0  0  0  0  0  0  0  0
   37.6790   29.7230   51.9520 N   0  0  0  0  0  0  0  0  0  0  0  0
   35.3800   29.2130   51.7780 O   0  0  0  0  0  0  0  0  0  0  0  0
   38.0820   30.4550   52.5510 H   0  0  0  0  0  0  0  0  0  0  0  0
   38.5970   29.2180   52.0990 H   0  0  0  0  0  0  0  0  0  0  0  0
   39.5390   32.0260   42.1600 C   0  0  0  0  0  0  0  0  0  0  0  0
   39.9900   31.1850   41.1790 C   0  0  0  0  0  0  0  0  0  0  0  0
   39.5750   31.7780   40.0090 C   0  0  0  0  0  0  0  0  0  0  0  0
   38.9080   32.9210   40.2590 N   0  0  0  0  0  0  0  0  0  0  0  0
   38.8990   33.0490   41.5780 N   0  0  0  0  0  0  0  0  0  0  0  0
   40.5430   30.2620   41.2680 H   0  0  0  0  0  0  0  0  0  0  0  0
   39.7470   31.4010   38.9950 H   0  0  0  0  0  0  0  0  0  0  0  0
   38.2990   33.8610   39.3190 C   0  0  0  0  0  0  0  0  0  0  0  0
   36.8510   34.1540   39.6550 C   0  0  0  0  0  0  0  0  0  0  0  0
   36.1870   34.0190   38.7780 H   0  0  0  0  0  0  0  0  0  0  0  0
  1 12  1  0  0  0  0
  2  1  2  0  0  0  0
  2  6  1  0  0  0  0
  3  2  1  0  0  0  0
  4  3  2  0  0  0  0
  4  5  1  0  0  0  0
  5  1  1  0  0  0  0
  7  3  1  0  0  0  0
  8 16  1  0  0  0  0
  8  9  1  0  0  0  0
  9 14  1  0  0  0  0
 10  9  2  0  0  0  0
 10 15  1  0  0  0  0
 11 10  1  0  0  0  0
 12 13  1  0  0  0  0
 12 11  2  0  0  0  0
 13  8  2  0  0  0  0
 16 18  1  0  0  0  0
 17 16  2  0  0  0  0
 18 19  1  0  0  0  0
 19 21  2  0  0  0  0
 19 20  1  0  0  0  0
 20 23  1  0  0  0  0
 20 22  1  0  0  0  0
 24  4  1  0  0  0  0
 25 29  1  0  0  0  0
 25 24  1  0  0  0  0
 26 27  1  0  0  0  0
 26 25  2  0  0  0  0
 27 28  1  0  0  0  0
 28 24  2  0  0  0  0
 30 26  1  0  0  0  0
 31 32  1  0  0  0  0
 31 27  1  0  0  0  0
 33 32  1  0  0  0  0
M  END
>  <minimizedAffinity>
-5.68767977

>  <minimizedRMSD>
0.557545245

$$$$
