REMARK  Name = 
REMARK  7 active torsions:
REMARK  status: ('A' for Active; 'I' for Inactive)
REMARK    1  A    between atoms: N_1  and  C_12
REMARK    2  A    between atoms: C_5  and  N_10
REMARK    3  A    between atoms: C_15  and  C_17
REMARK    4  A    between atoms: C_17  and  C_18
REMARK    5  A    between atoms: C_17  and  C_19
REMARK    6  A    between atoms: C_17  and  C_20
REMARK    7  A    between atoms: C_20  and  N_35
REMARK                            x       y       z     vdW  Elec       q    Type
REMARK                         _______ _______ _______ _____ _____    ______ ____
ROOT
ATOM      1  C   UNL     1      34.657  29.987  47.396  0.00  0.00    +0.000 A 
ATOM      2  C   UNL     1      35.525  29.883  48.510  0.00  0.00    +0.000 A 
ATOM      3  C   UNL     1      35.426  28.732  49.270  0.00  0.00    +0.000 A 
ATOM      4  N   UNL     1      34.530  27.783  48.927  0.00  0.00    +0.000 NA
ATOM      5  C   UNL     1      33.718  27.889  47.879  0.00  0.00    +0.000 A 
ATOM      6  N   UNL     1      33.789  28.994  47.121  0.00  0.00    +0.000 NA
ATOM      7  H   UNL     1      34.699  30.873  46.772  0.00  0.00    +0.000 HD
ATOM      8  H   UNL     1      36.093  28.659  50.118  0.00  0.00    +0.000 HD
ENDROOT
BRANCH   2   9
ATOM      9  N   UNL     1      36.417  30.961  48.749  0.00  0.00    +0.000 N 
ATOM     10  C   UNL     1      36.391  31.734  49.875  0.00  0.00    +0.000 A 
ATOM     11  N   UNL     1      37.371  32.664  49.780  0.00  0.00    +0.000 NA
ATOM     12  C   UNL     1      37.989  32.458  48.604  0.00  0.00    +0.000 A 
ATOM     13  C   UNL     1      39.046  33.078  47.962  0.00  0.00    +0.000 A 
ATOM     14  N   UNL     1      39.475  32.669  46.772  0.00  0.00    +0.000 NA
ATOM     15  C   UNL     1      38.896  31.619  46.124  0.00  0.00    +0.000 A 
ATOM     16  N   UNL     1      37.870  31.023  46.755  0.00  0.00    +0.000 NA
ATOM     17  C   UNL     1      37.406  31.396  47.944  0.00  0.00    +0.000 A 
ATOM     18  H   UNL     1      35.752  31.698  50.740  0.00  0.00    +0.000 HD
ATOM     19  H   UNL     1      39.262  31.297  45.145  0.00  0.00    +0.000 HD
BRANCH  13  20
ATOM     20  N   UNL     1      39.688  34.174  48.584  0.00  0.00    +0.000 N 
ATOM     21  H   UNL     1      39.192  34.832  49.214  0.00  0.00    +0.000 HD
ATOM     22  H   UNL     1      40.702  34.411  48.466  0.00  0.00    +0.000 HD
ENDBRANCH  13  20
ENDBRANCH   2   9
BRANCH   5  23
ATOM     23  C   UNL     1      32.733  26.857  47.494  0.00  0.00    +0.000 C 
BRANCH  23  24
ATOM     24  C   UNL     1      31.538  26.892  48.432  0.00  0.00    +0.000 C 
ATOM     25  H   UNL     1      31.897  27.000  49.455  0.00  0.00    +0.000 HD
ATOM     26  H   UNL     1      30.877  27.717  48.099  0.00  0.00    +0.000 HD
ATOM     27  H   UNL     1      31.000  25.908  48.301  0.00  0.00    +0.000 HD
ENDBRANCH  23  24
BRANCH  23  28
ATOM     28  C   UNL     1      32.164  27.116  46.098  0.00  0.00    +0.000 C 
ATOM     29  H   UNL     1      32.994  27.445  45.443  0.00  0.00    +0.000 HD
ATOM     30  H   UNL     1      31.320  27.822  46.127  0.00  0.00    +0.000 HD
ATOM     31  H   UNL     1      31.788  26.160  45.671  0.00  0.00    +0.000 HD
ENDBRANCH  23  28
BRANCH  23  32
ATOM     32  C   UNL     1      33.332  25.472  47.455  0.00  0.00    +0.000 C 
ATOM     33  H   UNL     1      32.563  24.767  47.119  0.00  0.00    +0.000 HD
ATOM     34  H   UNL     1      34.187  25.438  46.751  0.00  0.00    +0.000 HD
BRANCH  32  35
ATOM     35  N   UNL     1      33.845  25.139  48.775  0.00  0.00    +0.000 NA
ATOM     36  H   UNL     1      34.027  24.113  48.858  0.00  0.00    +0.000 HD
ATOM     37  H   UNL     1      34.706  25.629  49.037  0.00  0.00    +0.000 HD
ENDBRANCH  32  35
ENDBRANCH  23  32
ENDBRANCH   5  23
TORSDOF 7
