
 OpenBabel03252511173D

 34 36  0  0  1  0  0  0  0  0999 V2000
   38.6240   31.8570   48.1450 C   0  0  1  0  0  0  0  0  0  0  0  0
   39.6940   31.8240   48.6340 H   0  0  0  0  0  0  0  0  0  0  0  0
   37.8500   31.0610   49.1060 C   0  0  0  0  0  0  0  0  0  0  0  0
   38.3170   30.8960   50.3420 N   0  0  0  0  0  0  0  0  0  0  0  0
   37.6560   30.1780   51.2790 C   0  0  0  0  0  0  0  0  0  0  0  0
   36.4970   29.5870   51.0450 N   0  0  0  0  0  0  0  0  0  0  0  0
   35.9100   29.6840   49.8150 C   0  0  0  0  0  0  0  0  0  0  0  0
   34.7290   29.0820   49.5690 C   0  0  0  0  0  0  0  0  0  0  0  0
   34.1460   29.1760   48.3470 C   0  0  0  0  0  0  0  0  0  0  0  0
   34.8280   29.9170   47.3890 C   0  0  0  0  0  0  0  0  0  0  0  0
   36.0280   30.5100   47.6960 C   0  0  0  0  0  0  0  0  0  0  0  0
   36.6270   30.4220   48.9150 C   0  0  0  0  0  0  0  0  0  0  0  0
   38.1610   30.1210   52.2720 H   0  0  0  0  0  0  0  0  0  0  0  0
   34.2500   28.5180   50.3650 H   0  0  0  0  0  0  0  0  0  0  0  0
   33.2110   28.6940   48.1640 H   0  0  0  0  0  0  0  0  0  0  0  0
   34.3820   30.0150   46.3890 H   0  0  0  0  0  0  0  0  0  0  0  0
   36.5110   31.1020   46.9270 H   0  0  0  0  0  0  0  0  0  0  0  0
   39.0240   31.6000   46.7900 C   0  0  0  0  0  0  0  0  0  0  0  0
   39.8980   32.6190   46.3470 C   0  0  0  0  0  0  0  0  0  0  0  0
   40.5290   32.5080   45.0630 C   0  0  0  0  0  0  0  0  0  0  0  0
   40.2260   31.4120   44.3700 N   0  0  0  0  0  0  0  0  0  0  0  0
   39.3700   30.4400   44.8240 C   0  0  0  0  0  0  0  0  0  0  0  0
   38.7900   30.5420   46.0030 N   0  0  0  0  0  0  0  0  0  0  0  0
   40.1800   33.5230   46.8580 H   0  0  0  0  0  0  0  0  0  0  0  0
   41.2000   33.2670   44.7000 H   0  0  0  0  0  0  0  0  0  0  0  0
   39.0430   29.2340   44.0010 C   0  0  0  0  0  0  0  0  0  0  0  0
   38.0660   29.4780   43.4910 H   0  0  0  0  0  0  0  0  0  0  0  0
   39.7660   29.0470   43.1980 H   0  0  0  0  0  0  0  0  0  0  0  0
   38.8600   28.3800   44.6630 H   0  0  0  0  0  0  0  0  0  0  0  0
   38.3350   33.1100   48.5450 O   0  0  0  0  0  0  0  0  0  0  0  0
   39.1780   34.0410   49.0580 C   0  0  0  0  0  0  0  0  0  0  0  0
   39.6380   33.9430   50.2080 O   0  0  0  0  0  0  0  0  0  0  0  0
   39.6250   35.1870   48.3930 O   0  0  0  0  0  0  0  0  0  0  0  0
   40.5150   35.6340   48.6330 H   0  0  0  0  0  0  0  0  0  0  0  0
  1 30  1  0  0  0  0
  1  2  1  1  0  0  0
  1  3  1  0  0  0  0
  3  4  1  0  0  0  0
  4  5  2  0  0  0  0
  5 13  1  0  0  0  0
  6  5  1  0  0  0  0
  7  6  2  0  0  0  0
  8  7  1  0  0  0  0
  8 14  1  0  0  0  0
  9  8  2  0  0  0  0
 10 11  2  0  0  0  0
 10  9  1  0  0  0  0
 11 12  1  0  0  0  0
 12  3  2  0  0  0  0
 12  7  1  0  0  0  0
 15  9  1  0  0  0  0
 16 10  1  0  0  0  0
 17 11  1  0  0  0  0
 18  1  1  0  0  0  0
 19 18  1  0  0  0  0
 19 24  1  0  0  0  0
 20 19  2  0  0  0  0
 21 22  2  0  0  0  0
 21 20  1  0  0  0  0
 22 23  1  0  0  0  0
 23 18  2  0  0  0  0
 25 20  1  0  0  0  0
 26 29  1  0  0  0  0
 26 22  1  0  0  0  0
 27 26  1  0  0  0  0
 28 26  1  0  0  0  0
 30 31  1  0  0  0  0
 31 32  2  0  0  0  0
 33 34  1  0  0  0  0
 33 31  1  0  0  0  0
M  END
>  <minimizedAffinity>
-7.14609861

>  <minimizedRMSD>
0.457493544

$$$$
