
 OpenBabel03252513493D

 23 24  0  0  0  0  0  0  0  0999 V2000
   35.3010   29.4580   48.2290 C   0  0  0  0  0  0  0  0  0  0  0  0
   36.5440   30.1490   48.4470 C   0  0  0  0  0  0  0  0  0  0  0  0
   37.1470   30.7730   47.3650 C   0  0  0  0  0  0  0  0  0  0  0  0
   36.5170   30.6900   46.1590 N   0  0  0  0  0  0  0  0  0  0  0  0
   35.3570   30.0400   45.9770 C   0  0  0  0  0  0  0  0  0  0  0  0
   34.7640   29.4380   46.9970 N   0  0  0  0  0  0  0  0  0  0  0  0
   37.0140   30.1910   49.4240 H   0  0  0  0  0  0  0  0  0  0  0  0
   34.8250   30.0590   44.5960 C   0  0  0  0  0  0  0  0  0  0  0  0
   35.5400   30.9750   43.8140 F   0  0  0  0  0  0  0  0  0  0  0  0
   35.0440   28.8230   44.0120 F   0  0  0  0  0  0  0  0  0  0  0  0
   33.4680   30.3070   44.5510 F   0  0  0  0  0  0  0  0  0  0  0  0
   38.4020   31.4770   47.5290 C   0  0  0  0  0  0  0  0  0  0  0  0
   38.7730   31.8220   48.6620 O   0  0  0  0  0  0  0  0  0  0  0  0
   39.2480   31.7870   46.3310 C   0  0  0  0  0  0  0  0  0  0  0  0
   39.8970   32.9280   45.9510 C   0  0  0  0  0  0  0  0  0  0  0  0
   40.5860   32.8610   44.7860 C   0  0  0  0  0  0  0  0  0  0  0  0
   40.6080   31.6990   44.0540 C   0  0  0  0  0  0  0  0  0  0  0  0
   39.5780   30.5660   45.0630 S   0  0  0  0  0  0  0  0  0  0  0  0
   34.7120   28.8420   49.3100 O   0  0  0  0  0  0  0  0  0  0  0  0
   34.2140   29.5170   50.4220 C   0  0  0  0  0  0  0  0  0  0  0  0
   34.8920   29.2080   51.6030 F   0  0  0  0  0  0  0  0  0  0  0  0
   34.1330   30.8710   50.2770 F   0  0  0  0  0  0  0  0  0  0  0  0
   32.9030   29.0360   50.5870 F   0  0  0  0  0  0  0  0  0  0  0  0
  1  2  1  0  0  0  0
  1 19  1  0  0  0  0
  2  7  1  0  0  0  0
  3 12  1  0  0  0  0
  3  2  2  0  0  0  0
  4  3  1  0  0  0  0
  5  4  2  0  0  0  0
  5  6  1  0  0  0  0
  6  1  2  0  0  0  0
  8  5  1  0  0  0  0
  9  8  1  0  0  0  0
 10  8  1  0  0  0  0
 11  8  1  0  0  0  0
 12 13  2  0  0  0  0
 14 12  1  0  0  0  0
 15 14  2  0  0  0  0
 16 15  1  0  0  0  0
 17 16  2  0  0  0  0
 17 18  1  0  0  0  0
 18 14  1  0  0  0  0
 19 20  1  0  0  0  0
 20 23  1  0  0  0  0
 20 21  1  0  0  0  0
 22 20  1  0  0  0  0
M  END
>  <minimizedAffinity>
-5.09660721

>  <minimizedRMSD>
3.50697947

$$$$
