
     RDKit          3D

 37 39  0  0  0  0  0  0  0  0999 V2000
   36.4169   30.9607   48.7491 N   0  0  0  0  0  0  0  0  0  0  0  0
   36.3911   31.7342   49.8749 C   0  0  0  0  0  0  0  0  0  0  0  0
   37.3709   32.6640   49.7797 N   0  0  0  0  0  0  0  0  0  0  0  0
   37.9891   32.4578   48.6036 C   0  0  0  0  0  0  0  0  0  0  0  0
   39.0464   33.0785   47.9624 C   0  0  0  0  0  0  0  0  0  0  0  0
   39.4746   32.6685   46.7717 N   0  0  0  0  0  0  0  0  0  0  0  0
   38.8956   31.6188   46.1239 C   0  0  0  0  0  0  0  0  0  0  0  0
   37.8702   31.0234   46.7550 N   0  0  0  0  0  0  0  0  0  0  0  0
   37.4063   31.3958   47.9440 C   0  0  0  0  0  0  0  0  0  0  0  0
   39.6882   34.1736   48.5843 N   0  0  0  0  0  0  0  0  0  0  0  0
   34.6565   29.9873   47.3963 C   0  0  0  0  0  0  0  0  0  0  0  0
   35.5254   29.8832   48.5098 C   0  0  0  0  0  0  0  0  0  0  0  0
   35.4258   28.7317   49.2695 C   0  0  0  0  0  0  0  0  0  0  0  0
   34.5302   27.7827   48.9272 N   0  0  0  0  0  0  0  0  0  0  0  0
   33.7175   27.8891   47.8788 C   0  0  0  0  0  0  0  0  0  0  0  0
   33.7890   28.9943   47.1211 N   0  0  0  0  0  0  0  0  0  0  0  0
   32.7329   26.8573   47.4940 C   0  0  0  0  0  0  0  0  0  0  0  0
   31.5382   26.8917   48.4318 C   0  0  0  0  0  0  0  0  0  0  0  0
   32.1642   27.1156   46.0984 C   0  0  0  0  0  0  0  0  0  0  0  0
   33.3320   25.4717   47.4547 C   0  0  0  0  0  0  0  0  0  0  0  0
   35.7516   31.6979   50.7400 H   0  0  0  0  0  0  0  0  0  0  0  0
   39.2617   31.2965   45.1455 H   0  0  0  0  0  0  0  0  0  0  0  0
   39.1917   34.8318   49.2136 H   0  0  0  0  0  0  0  0  0  0  0  0
   40.7015   34.4112   48.4661 H   0  0  0  0  0  0  0  0  0  0  0  0
   34.6989   30.8726   46.7716 H   0  0  0  0  0  0  0  0  0  0  0  0
   36.0928   28.6592   50.1184 H   0  0  0  0  0  0  0  0  0  0  0  0
   31.8967   26.9996   49.4550 H   0  0  0  0  0  0  0  0  0  0  0  0
   30.8770   27.7171   48.0991 H   0  0  0  0  0  0  0  0  0  0  0  0
   30.9999   25.9083   48.3010 H   0  0  0  0  0  0  0  0  0  0  0  0
   32.9944   27.4454   45.4429 H   0  0  0  0  0  0  0  0  0  0  0  0
   31.3200   27.8223   46.1268 H   0  0  0  0  0  0  0  0  0  0  0  0
   31.7876   26.1601   45.6707 H   0  0  0  0  0  0  0  0  0  0  0  0
   32.5631   24.7672   47.1194 H   0  0  0  0  0  0  0  0  0  0  0  0
   34.1868   25.4384   46.7513 H   0  0  0  0  0  0  0  0  0  0  0  0
   33.8450   25.1387   48.7745 N   0  0  0  0  0  0  0  0  0  0  0  0
   34.8710   24.9409   48.7387 H   0  0  0  0  0  0  0  0  0  0  0  0
   33.6921   25.8581   49.4885 H   0  0  0  0  0  0  0  0  0  0  0  0
  1  2  1  0
  3  2  2  0
  4  3  1  0
  5 10  1  0
  5  4  2  0
  6  5  1  0
  7  8  1  0
  7  6  2  0
  8  9  2  0
  9  4  1  0
  9  1  1  0
 11 12  2  0
 12  1  1  0
 12 13  1  0
 14 13  2  0
 15 14  1  0
 16 11  1  0
 16 15  2  0
 17 15  1  0
 17 18  1  0
 19 17  1  0
 20 17  1  0
  2 21  1  0
  7 22  1  0
 10 23  1  0
 10 24  1  0
 11 25  1  0
 13 26  1  0
 18 27  1  0
 18 28  1  0
 18 29  1  0
 19 30  1  0
 19 31  1  0
 19 32  1  0
 20 33  1  0
 20 34  1  0
 35 36  1  0
 35 37  1  0
 20 35  1  0
M  ISO  8  21  14  22  14  25  14  26  14  27   8  28   8  29   8  30   8
M  ISO  6  31   8  32   8  33   8  34   8  36   5  37   5
M  END
>  <DihAtoms>  (1) 
16,19,34,35

>  <DihDeg>  (1) 
-105.42150307260363

$$$$
