
 OpenBabel03252513593D

 26 27  0  0  1  0  0  0  0  0999 V2000
   35.4660   29.4900   49.1570 C   0  0  2  0  0  0  0  0  0  0  0  0
   34.3910   29.4800   50.1590 C   0  0  0  0  0  0  0  0  0  0  0  0
   34.6880   28.2080   49.5130 C   0  0  1  0  0  0  0  0  0  0  0  0
   35.2530   29.8840   48.1560 H   0  0  0  0  0  0  0  0  0  0  0  0
   33.4000   29.9840   49.9850 H   0  0  0  0  0  0  0  0  0  0  0  0
   34.7250   29.6200   51.2130 H   0  0  0  0  0  0  0  0  0  0  0  0
   35.3690   27.4070   49.8560 H   0  0  0  0  0  0  0  0  0  0  0  0
   36.9070   29.4400   49.6610 C   0  0  0  0  0  0  0  0  0  0  0  0
   36.8740   29.5060   50.7650 H   0  0  0  0  0  0  0  0  0  0  0  0
   37.3500   28.4630   49.3820 H   0  0  0  0  0  0  0  0  0  0  0  0
   38.4300   32.7610   49.3610 C   0  0  0  0  0  0  0  0  0  0  0  0
   38.9350   32.7580   48.0510 C   0  0  0  0  0  0  0  0  0  0  0  0
   38.7420   31.5990   47.2800 C   0  0  0  0  0  0  0  0  0  0  0  0
   38.0750   30.5410   47.8480 N   0  0  0  0  0  0  0  0  0  0  0  0
   37.6140   30.5970   49.1050 C   0  0  0  0  0  0  0  0  0  0  0  0
   37.7980   31.7120   49.8510 N   0  0  0  0  0  0  0  0  0  0  0  0
   38.5270   33.6000   50.0320 H   0  0  0  0  0  0  0  0  0  0  0  0
   39.4470   33.6370   47.6850 H   0  0  0  0  0  0  0  0  0  0  0  0
   39.1230   31.5780   46.2690 H   0  0  0  0  0  0  0  0  0  0  0  0
   33.6590   27.7400   48.5210 C   0  0  0  0  0  0  0  0  0  0  0  0
   34.0760   26.8200   47.7080 O   0  0  0  0  0  0  0  0  0  0  0  0
   32.3500   28.1890   48.4180 O   0  0  0  0  0  0  0  0  0  0  0  0
   31.2680   27.4140   48.7700 C   0  0  0  0  0  0  0  0  0  0  0  0
   30.4130   27.8560   49.5760 O   0  0  0  0  0  0  0  0  0  0  0  0
   31.0970   26.1580   48.2590 O   0  0  0  0  0  0  0  0  0  0  0  0
   30.1740   25.7120   48.1440 H   0  0  0  0  0  0  0  0  0  0  0  0
  1  4  1  6  0  0  0
  1  3  1  0  0  0  0
  1  8  1  0  0  0  0
  1  2  1  0  0  0  0
  2  6  1  0  0  0  0
  3  7  1  1  0  0  0
  3  2  1  0  0  0  0
  5  2  1  0  0  0  0
  8  9  1  0  0  0  0
 10  8  1  0  0  0  0
 11 16  1  0  0  0  0
 11 17  1  0  0  0  0
 12 11  2  0  0  0  0
 13 14  2  0  0  0  0
 13 12  1  0  0  0  0
 14 15  1  0  0  0  0
 15  8  1  0  0  0  0
 15 16  2  0  0  0  0
 18 12  1  0  0  0  0
 19 13  1  0  0  0  0
 20  3  1  0  0  0  0
 21 20  2  0  0  0  0
 22 20  1  0  0  0  0
 22 23  1  0  0  0  0
 23 24  2  0  0  0  0
 25 23  1  0  0  0  0
 26 25  1  0  0  0  0
M  END
>  <minimizedAffinity>
-4.79117584

>  <minimizedRMSD>
1.06074059

$$$$
