
 OpenBabel03252511103D

 28 29  0  0  0  0  0  0  0  0999 V2000
   32.5830   28.3360   47.7150 C   0  0  0  0  0  0  0  0  0  0  0  0
   33.1410   29.3020   46.8950 C   0  0  0  0  0  0  0  0  0  0  0  0
   34.3040   29.9050   47.3260 C   0  0  0  0  0  0  0  0  0  0  0  0
   34.9600   29.6360   48.4980 C   0  0  0  0  0  0  0  0  0  0  0  0
   34.3470   28.6640   49.2670 C   0  0  0  0  0  0  0  0  0  0  0  0
   33.1790   28.0090   48.9080 C   0  0  0  0  0  0  0  0  0  0  0  0
   32.6570   29.5480   45.9590 H   0  0  0  0  0  0  0  0  0  0  0  0
   34.7230   30.6670   46.6550 H   0  0  0  0  0  0  0  0  0  0  0  0
   34.8020   28.3790   50.2290 H   0  0  0  0  0  0  0  0  0  0  0  0
   32.7790   27.2530   49.5920 H   0  0  0  0  0  0  0  0  0  0  0  0
   37.6560   30.8210   50.6220 C   0  0  0  0  0  0  0  0  0  0  0  0
   38.4930   31.5170   49.7000 C   0  0  0  0  0  0  0  0  0  0  0  0
   38.0920   31.5550   48.3490 C   0  0  0  0  0  0  0  0  0  0  0  0
   36.9360   30.9370   47.9780 N   0  0  0  0  0  0  0  0  0  0  0  0
   36.1750   30.2880   48.8960 C   0  0  0  0  0  0  0  0  0  0  0  0
   36.5290   30.2310   50.1980 N   0  0  0  0  0  0  0  0  0  0  0  0
   37.9870   30.8060   51.6520 H   0  0  0  0  0  0  0  0  0  0  0  0
   39.3960   31.9980   49.9900 H   0  0  0  0  0  0  0  0  0  0  0  0
   38.8940   32.2530   47.3030 C   0  0  0  0  0  0  0  0  0  0  0  0
   38.1430   32.6760   46.2430 F   0  0  0  0  0  0  0  0  0  0  0  0
   39.4950   33.3970   47.8290 F   0  0  0  0  0  0  0  0  0  0  0  0
   39.8560   31.3900   46.7970 F   0  0  0  0  0  0  0  0  0  0  0  0
   31.1020   27.5190   47.3140 S   0  0  0  0  0  0  0  0  0  0  0  0
   30.0240   28.4700   47.0890 O   0  0  0  0  0  0  0  0  0  0  0  0
   30.7510   26.5750   48.4730 O   0  0  0  0  0  0  0  0  0  0  0  0
   31.2750   26.4260   45.9200 C   0  0  0  0  0  0  0  0  0  0  0  0
   30.6460   25.0810   46.2540 C   0  0  0  0  0  0  0  0  0  0  0  0
   31.3270   24.2310   45.9580 H   0  0  0  0  0  0  0  0  0  0  0  0
  1  6  1  0  0  0  0
  2  3  1  0  0  0  0
  2  1  2  0  0  0  0
  3  4  2  0  0  0  0
  4 15  1  0  0  0  0
  4  5  1  0  0  0  0
  5  9  1  0  0  0  0
  6  5  2  0  0  0  0
  6 10  1  0  0  0  0
  7  2  1  0  0  0  0
  8  3  1  0  0  0  0
 11 17  1  0  0  0  0
 12 18  1  0  0  0  0
 12 11  2  0  0  0  0
 13 12  1  0  0  0  0
 14 13  2  0  0  0  0
 14 15  1  0  0  0  0
 15 16  2  0  0  0  0
 16 11  1  0  0  0  0
 19 21  1  0  0  0  0
 19 13  1  0  0  0  0
 20 19  1  0  0  0  0
 22 19  1  0  0  0  0
 23  1  1  0  0  0  0
 23 25  2  0  0  0  0
 24 23  2  0  0  0  0
 26 27  1  0  0  0  0
 26 23  1  0  0  0  0
 28 27  1  0  0  0  0
M  END
>  <minimizedAffinity>
-5.68098879

>  <minimizedRMSD>
0.229553431

$$$$
