
 OpenBabel03252514023D

 30 32  0  0  1  0  0  0  0  0999 V2000
   35.5320   29.5010   49.1500 C   0  0  2  0  0  0  0  0  0  0  0  0
   34.5060   29.5690   50.2020 C   0  0  0  0  0  0  0  0  0  0  0  0
   34.7460   28.2590   49.6180 C   0  0  1  0  0  0  0  0  0  0  0  0
   35.3720   29.7460   48.1140 H   0  0  0  0  0  0  0  0  0  0  0  0
   33.5790   30.1500   49.9210 H   0  0  0  0  0  0  0  0  0  0  0  0
   34.7970   29.8210   51.2540 H   0  0  0  0  0  0  0  0  0  0  0  0
   35.4180   27.4920   50.0360 H   0  0  0  0  0  0  0  0  0  0  0  0
   36.9910   29.4660   49.6080 C   0  0  0  0  0  0  0  0  0  0  0  0
   36.9930   29.5440   50.7140 H   0  0  0  0  0  0  0  0  0  0  0  0
   37.4710   28.4930   49.3630 H   0  0  0  0  0  0  0  0  0  0  0  0
   38.3880   32.8340   49.2750 C   0  0  0  0  0  0  0  0  0  0  0  0
   38.9110   32.8350   47.9720 C   0  0  0  0  0  0  0  0  0  0  0  0
   38.7720   31.6570   47.2170 C   0  0  0  0  0  0  0  0  0  0  0  0
   38.1420   30.5930   47.7950 N   0  0  0  0  0  0  0  0  0  0  0  0
   37.6590   30.6400   49.0420 C   0  0  0  0  0  0  0  0  0  0  0  0
   37.7870   31.7670   49.7780 N   0  0  0  0  0  0  0  0  0  0  0  0
   38.5140   33.7510   49.8190 H   0  0  0  0  0  0  0  0  0  0  0  0
   39.4120   33.6750   47.5070 H   0  0  0  0  0  0  0  0  0  0  0  0
   39.1400   31.5610   46.2100 H   0  0  0  0  0  0  0  0  0  0  0  0
   33.6720   27.7410   48.7070 C   0  0  0  0  0  0  0  0  0  0  0  0
   34.1010   26.9950   47.7440 O   0  0  0  0  0  0  0  0  0  0  0  0
   32.3170   27.9960   48.8390 O   0  0  0  0  0  0  0  0  0  0  0  0
   31.4520   27.8420   47.7910 C   0  0  0  0  0  0  0  0  0  0  0  0
   30.6060   26.7410   47.9610 C   0  0  0  0  0  3  0  0  0  0  0  0
   29.6550   26.4350   46.9830 C   0  0  0  0  0  0  0  0  0  0  0  0
   28.9840   25.5900   47.0820 H   0  0  0  0  0  0  0  0  0  0  0  0
   29.5570   27.2190   45.8500 C   0  0  0  0  0  3  0  0  0  0  0  0
   30.3930   28.3090   45.6800 C   0  0  0  0  0  0  0  0  0  0  0  0
   30.3860   28.9740   44.8310 H   0  0  0  0  0  0  0  0  0  0  0  0
   31.3300   28.5980   46.6630 C   0  0  0  0  0  3  0  0  0  0  0  0
  1  4  1  6  0  0  0
  1  8  1  0  0  0  0
  1  3  1  0  0  0  0
  1  2  1  0  0  0  0
  2  6  1  0  0  0  0
  3  7  1  1  0  0  0
  3  2  1  0  0  0  0
  5  2  1  0  0  0  0
  8  9  1  0  0  0  0
 10  8  1  0  0  0  0
 11 16  1  0  0  0  0
 11 17  1  0  0  0  0
 12 11  2  0  0  0  0
 13 14  2  0  0  0  0
 13 12  1  0  0  0  0
 14 15  1  0  0  0  0
 15  8  1  0  0  0  0
 15 16  2  0  0  0  0
 18 12  1  0  0  0  0
 19 13  1  0  0  0  0
 20 22  1  0  0  0  0
 20  3  1  0  0  0  0
 21 20  2  0  0  0  0
 23 24  1  0  0  0  0
 23 22  1  0  0  0  0
 25 26  1  0  0  0  0
 25 24  2  0  0  0  0
 27 25  1  0  0  0  0
 28 27  2  0  0  0  0
 28 30  1  0  0  0  0
 29 28  1  0  0  0  0
 30 23  2  0  0  0  0
M  END
>  <minimizedAffinity>
-4.93633699

>  <minimizedRMSD>
0.544248819

$$$$
