
 OpenBabel03252513343D

 24 26  0  0  0  0  0  0  0  0999 V2000
   36.2450   29.6780   49.6870 C   0  0  0  0  0  0  0  0  0  0  0  0
   37.1250   30.3370   48.8470 C   0  0  0  0  0  0  0  0  0  0  0  0
   36.8300   30.6140   47.5220 C   0  0  0  0  0  0  0  0  0  0  0  0
   35.6170   30.1900   47.1240 N   0  0  0  0  0  0  0  0  0  0  0  0
   34.7510   29.5500   47.9280 C   0  0  0  0  0  0  0  0  0  0  0  0
   35.0700   29.2970   49.2060 N   0  0  0  0  0  0  0  0  0  0  0  0
   38.0630   30.6130   49.3180 H   0  0  0  0  0  0  0  0  0  0  0  0
   33.8350   29.2820   47.4600 H   0  0  0  0  0  0  0  0  0  0  0  0
   37.9070   31.3150   46.8410 C   0  0  0  0  0  0  0  0  0  0  0  0
   38.3220   31.0020   45.5770 N   0  0  0  0  0  0  0  0  0  0  0  0
   39.3040   31.6270   44.9340 C   0  0  0  0  0  0  0  0  0  0  0  0
   39.9800   32.6440   45.4950 N   0  0  0  0  0  0  0  0  0  0  0  0
   39.6510   33.0320   46.7420 C   0  0  0  0  0  0  0  0  0  0  0  0
   40.3420   34.0740   47.3250 C   0  0  0  0  0  0  0  0  0  0  0  0
   40.0320   34.4990   48.5990 C   0  0  0  0  0  0  0  0  0  0  0  0
   40.6280   35.3190   48.9680 H   0  0  0  0  0  0  0  0  0  0  0  0
   38.9980   33.8350   49.2700 C   0  0  0  0  0  0  0  0  0  0  0  0
   38.7830   34.1950   50.2660 H   0  0  0  0  0  0  0  0  0  0  0  0
   38.3550   32.8050   48.6210 C   0  0  0  0  0  0  0  0  0  0  0  0
   38.6280   32.3600   47.3730 C   0  0  0  0  0  0  0  0  0  0  0  0
   36.6280   29.4130   51.1100 C   0  0  0  0  0  0  0  0  0  0  0  0
   35.4870   29.0960   51.8380 F   0  0  0  0  0  0  0  0  0  0  0  0
   37.6040   28.4820   51.1320 F   0  0  0  0  0  0  0  0  0  0  0  0
   37.1140   30.6210   51.6350 F   0  0  0  0  0  0  0  0  0  0  0  0
  1 21  1  0  0  0  0
  2  7  1  0  0  0  0
  2  1  2  0  0  0  0
  3  2  1  0  0  0  0
  4  3  2  0  0  0  0
  4  5  1  0  0  0  0
  5  6  2  0  0  0  0
  6  1  1  0  0  0  0
  8  5  1  0  0  0  0
  9 20  1  0  0  0  0
  9  3  1  0  0  0  0
 10  9  2  0  0  0  0
 11 12  2  0  0  0  0
 11 10  1  0  0  0  0
 12 13  1  0  0  0  0
 13 14  2  0  0  0  0
 13 20  1  0  0  0  0
 14 15  1  0  0  0  0
 15 16  1  0  0  0  0
 15 17  2  0  0  0  0
 17 18  1  0  0  0  0
 19 17  1  0  0  0  0
 20 19  2  0  0  0  0
 21 23  1  0  0  0  0
 21 24  1  0  0  0  0
 21 22  1  0  0  0  0
M  END
>  <minimizedAffinity>
-6.76927185

>  <minimizedRMSD>
3.29169297

$$$$
