
 OpenBabel03252514023D

 30 32  0  0  1  0  0  0  0  0999 V2000
   35.5510   29.4980   49.0880 C   0  0  2  0  0  0  0  0  0  0  0  0
   34.5490   29.6060   50.1600 C   0  0  0  0  0  0  0  0  0  0  0  0
   34.7570   28.2790   49.6010 C   0  0  1  0  0  0  0  0  0  0  0  0
   35.3720   29.7220   48.0500 H   0  0  0  0  0  0  0  0  0  0  0  0
   33.6250   30.1940   49.8850 H   0  0  0  0  0  0  0  0  0  0  0  0
   34.8660   29.8770   51.1990 H   0  0  0  0  0  0  0  0  0  0  0  0
   35.4270   27.5120   50.0230 H   0  0  0  0  0  0  0  0  0  0  0  0
   37.0190   29.4520   49.5160 C   0  0  0  0  0  0  0  0  0  0  0  0
   37.0410   29.4450   50.6240 H   0  0  0  0  0  0  0  0  0  0  0  0
   37.5090   28.5090   49.1880 H   0  0  0  0  0  0  0  0  0  0  0  0
   38.2300   32.9050   49.3660 C   0  0  0  0  0  0  0  0  0  0  0  0
   38.8580   32.9690   48.1120 C   0  0  0  0  0  0  0  0  0  0  0  0
   38.8540   31.8030   47.3250 C   0  0  0  0  0  0  0  0  0  0  0  0
   38.2450   30.6900   47.8280 N   0  0  0  0  0  0  0  0  0  0  0  0
   37.6590   30.6770   49.0310 C   0  0  0  0  0  0  0  0  0  0  0  0
   37.6560   31.7920   49.7960 N   0  0  0  0  0  0  0  0  0  0  0  0
   38.2550   33.8140   49.9360 H   0  0  0  0  0  0  0  0  0  0  0  0
   39.3430   33.8470   47.7070 H   0  0  0  0  0  0  0  0  0  0  0  0
   39.3090   31.7530   46.3510 H   0  0  0  0  0  0  0  0  0  0  0  0
   33.6570   27.7570   48.7250 C   0  0  0  0  0  0  0  0  0  0  0  0
   34.0570   27.0040   47.7550 O   0  0  0  0  0  0  0  0  0  0  0  0
   32.3070   28.0140   48.8950 O   0  0  0  0  0  0  0  0  0  0  0  0
   31.4090   27.8380   47.8790 C   0  0  0  0  0  0  0  0  0  0  0  0
   30.5310   26.7770   48.1250 C   0  0  0  0  0  3  0  0  0  0  0  0
   29.5450   26.4550   47.1880 C   0  0  0  0  0  0  0  0  0  0  0  0
   28.8500   25.6400   47.3480 H   0  0  0  0  0  0  0  0  0  0  0  0
   29.4400   27.1880   46.0210 C   0  0  0  0  0  3  0  0  0  0  0  0
   30.3080   28.2380   45.7760 C   0  0  0  0  0  0  0  0  0  0  0  0
   30.2990   28.8610   44.8960 H   0  0  0  0  0  0  0  0  0  0  0  0
   31.2810   28.5430   46.7180 C   0  0  0  0  0  3  0  0  0  0  0  0
  1  4  1  6  0  0  0
  1  8  1  0  0  0  0
  1  3  1  0  0  0  0
  1  2  1  0  0  0  0
  2  6  1  0  0  0  0
  3  7  1  1  0  0  0
  3  2  1  0  0  0  0
  5  2  1  0  0  0  0
  8  9  1  0  0  0  0
 10  8  1  0  0  0  0
 11 16  1  0  0  0  0
 11 17  1  0  0  0  0
 12 11  2  0  0  0  0
 13 14  2  0  0  0  0
 13 12  1  0  0  0  0
 14 15  1  0  0  0  0
 15  8  1  0  0  0  0
 15 16  2  0  0  0  0
 18 12  1  0  0  0  0
 19 13  1  0  0  0  0
 20 22  1  0  0  0  0
 20  3  1  0  0  0  0
 21 20  2  0  0  0  0
 23 24  1  0  0  0  0
 23 22  1  0  0  0  0
 25 26  1  0  0  0  0
 25 24  2  0  0  0  0
 27 25  1  0  0  0  0
 28 27  2  0  0  0  0
 28 30  1  0  0  0  0
 29 28  1  0  0  0  0
 30 23  2  0  0  0  0
M  END
>  <minimizedAffinity>
-4.96046591

>  <minimizedRMSD>
0.29941535

$$$$
