
 OpenBabel03252514023D

 30 32  0  0  1  0  0  0  0  0999 V2000
   35.5310   29.5120   49.1510 C   0  0  2  0  0  0  0  0  0  0  0  0
   34.5120   29.5660   50.2110 C   0  0  0  0  0  0  0  0  0  0  0  0
   34.7580   28.2610   49.6190 C   0  0  1  0  0  0  0  0  0  0  0  0
   35.3610   29.7600   48.1170 H   0  0  0  0  0  0  0  0  0  0  0  0
   33.5780   30.1410   49.9390 H   0  0  0  0  0  0  0  0  0  0  0  0
   34.8080   29.8150   51.2610 H   0  0  0  0  0  0  0  0  0  0  0  0
   35.4400   27.4980   50.0280 H   0  0  0  0  0  0  0  0  0  0  0  0
   36.9930   29.4870   49.5990 C   0  0  0  0  0  0  0  0  0  0  0  0
   37.0080   29.6580   50.6940 H   0  0  0  0  0  0  0  0  0  0  0  0
   37.4520   28.4880   49.4320 H   0  0  0  0  0  0  0  0  0  0  0  0
   38.5500   32.7500   49.0120 C   0  0  0  0  0  0  0  0  0  0  0  0
   38.9590   32.6710   47.6710 C   0  0  0  0  0  0  0  0  0  0  0  0
   38.6880   31.4770   46.9800 C   0  0  0  0  0  0  0  0  0  0  0  0
   38.0490   30.4750   47.6520 N   0  0  0  0  0  0  0  0  0  0  0  0
   37.6780   30.5970   48.9310 C   0  0  0  0  0  0  0  0  0  0  0  0
   37.9320   31.7400   49.6060 N   0  0  0  0  0  0  0  0  0  0  0  0
   38.7740   33.6760   49.5050 H   0  0  0  0  0  0  0  0  0  0  0  0
   39.4660   33.4610   47.1320 H   0  0  0  0  0  0  0  0  0  0  0  0
   38.9630   31.3220   45.9500 H   0  0  0  0  0  0  0  0  0  0  0  0
   33.6830   27.7380   48.7120 C   0  0  0  0  0  0  0  0  0  0  0  0
   34.1100   26.9880   47.7520 O   0  0  0  0  0  0  0  0  0  0  0  0
   32.3280   27.9940   48.8460 O   0  0  0  0  0  0  0  0  0  0  0  0
   31.4630   27.8470   47.7980 C   0  0  0  0  0  0  0  0  0  0  0  0
   30.6060   26.7540   47.9680 C   0  0  0  0  0  3  0  0  0  0  0  0
   29.6550   26.4560   46.9880 C   0  0  0  0  0  0  0  0  0  0  0  0
   28.9760   25.6170   47.0870 H   0  0  0  0  0  0  0  0  0  0  0  0
   29.5640   27.2410   45.8550 C   0  0  0  0  0  3  0  0  0  0  0  0
   30.4110   28.3220   45.6850 C   0  0  0  0  0  0  0  0  0  0  0  0
   30.4110   28.9870   44.8370 H   0  0  0  0  0  0  0  0  0  0  0  0
   31.3500   28.6040   46.6690 C   0  0  0  0  0  3  0  0  0  0  0  0
  1  4  1  6  0  0  0
  1  8  1  0  0  0  0
  1  3  1  0  0  0  0
  1  2  1  0  0  0  0
  2  6  1  0  0  0  0
  3  7  1  1  0  0  0
  3  2  1  0  0  0  0
  5  2  1  0  0  0  0
  8  9  1  0  0  0  0
 10  8  1  0  0  0  0
 11 17  1  0  0  0  0
 11 16  1  0  0  0  0
 12 11  2  0  0  0  0
 13 14  2  0  0  0  0
 13 12  1  0  0  0  0
 14 15  1  0  0  0  0
 15  8  1  0  0  0  0
 15 16  2  0  0  0  0
 18 12  1  0  0  0  0
 19 13  1  0  0  0  0
 20 22  1  0  0  0  0
 20  3  1  0  0  0  0
 21 20  2  0  0  0  0
 23 24  1  0  0  0  0
 23 22  1  0  0  0  0
 25 26  1  0  0  0  0
 25 24  2  0  0  0  0
 27 25  1  0  0  0  0
 28 27  2  0  0  0  0
 28 30  1  0  0  0  0
 29 28  1  0  0  0  0
 30 23  2  0  0  0  0
M  END
>  <minimizedAffinity>
-4.91101313

>  <minimizedRMSD>
0.682634652

$$$$
