REMARK  Name = 
REMARK  5 active torsions:
REMARK  status: ('A' for Active; 'I' for Inactive)
REMARK    1  A    between atoms: C_1  and  C_6
REMARK    2  A    between atoms: C_1  and  C_8
REMARK    3  A    between atoms: C_10  and  C_11
REMARK    4  A    between atoms: C_11  and  O_13
REMARK    5  A    between atoms: O_13  and  C_23
REMARK                            x       y       z     vdW  Elec       q    Type
REMARK                         _______ _______ _______ _____ _____    ______ ____
ROOT
ATOM      1  C   UNL     1      35.433  29.538  49.222  0.00  0.00    +0.000 C 
ATOM      2  C   UNL     1      34.405  29.460  50.271  0.00  0.00    +0.000 C 
ATOM      3  C   UNL     1      34.647  28.243  49.513  0.00  0.00    +0.000 C 
ATOM      4  H   UNL     1      35.275  29.923  48.229  0.00  0.00    +0.000 HD
ATOM      5  H   UNL     1      33.478  30.074  50.071  0.00  0.00    +0.000 HD
ATOM      6  H   UNL     1      34.694  29.565  51.348  0.00  0.00    +0.000 HD
ATOM      7  H   UNL     1      35.319  27.426  49.823  0.00  0.00    +0.000 HD
ENDROOT
BRANCH   1   8
ATOM      8  C   UNL     1      36.891  29.441  49.674  0.00  0.00    +0.000 C 
ATOM      9  H   UNL     1      36.901  29.510  50.780  0.00  0.00    +0.000 HD
ATOM     10  H   UNL     1      37.331  28.452  49.419  0.00  0.00    +0.000 HD
BRANCH   8  15
ATOM     11  C   UNL     1      38.428  32.751  49.366  0.00  0.00    +0.000 A 
ATOM     12  C   UNL     1      38.938  32.745  48.058  0.00  0.00    +0.000 A 
ATOM     13  C   UNL     1      38.742  31.583  47.291  0.00  0.00    +0.000 A 
ATOM     14  N   UNL     1      38.073  30.540  47.863  0.00  0.00    +0.000 NA
ATOM     15  C   UNL     1      37.604  30.592  49.115  0.00  0.00    +0.000 A 
ATOM     16  N   UNL     1      37.786  31.704  49.862  0.00  0.00    +0.000 NA
ATOM     17  H   UNL     1      38.598  33.655  49.919  0.00  0.00    +0.000 HD
ATOM     18  H   UNL     1      39.470  33.568  47.598  0.00  0.00    +0.000 HD
ATOM     19  H   UNL     1      39.096  31.483  46.279  0.00  0.00    +0.000 HD
ENDBRANCH   8  15
ENDBRANCH   1   8
BRANCH   3  20
ATOM     20  C   UNL     1      33.576  27.855  48.537  0.00  0.00    +0.000 C 
ATOM     21  O   UNL     1      33.892  26.877  47.756  0.00  0.00    +0.000 OA
BRANCH  20  22
ATOM     22  O   UNL     1      32.328  28.449  48.438  0.00  0.00    +0.000 OA
BRANCH  22  23
ATOM     23  C   UNL     1      31.402  28.026  47.526  0.00  0.00    +0.000 A 
ATOM     24  C   UNL     1      30.125  27.903  48.086  0.00  0.00    +0.000 A 
ATOM     25  C   UNL     1      29.054  27.482  47.294  0.00  0.00    +0.000 A 
ATOM     26  H   UNL     1      28.053  27.375  47.695  0.00  0.00    +0.000 HD
ATOM     27  C   UNL     1      29.259  27.188  45.959  0.00  0.00    +0.000 A 
ATOM     28  C   UNL     1      30.521  27.309  45.404  0.00  0.00    +0.000 A 
ATOM     29  H   UNL     1      30.772  27.102  44.376  0.00  0.00    +0.000 HD
ATOM     30  C   UNL     1      31.573  27.729  46.206  0.00  0.00    +0.000 A 
ENDBRANCH  22  23
ENDBRANCH  20  22
ENDBRANCH   3  20
TORSDOF 5
