
     RDKit          3D

 33 35  0  0  0  0  0  0  0  0999 V2000
   36.8908   29.4410   49.6744 C   0  0  0  0  0  0  0  0  0  0  0  0
   38.4282   32.7514   49.3660 C   0  0  0  0  0  0  0  0  0  0  0  0
   38.9381   32.7450   48.0581 C   0  0  0  0  0  0  0  0  0  0  0  0
   38.7424   31.5830   47.2911 C   0  0  0  0  0  0  0  0  0  0  0  0
   38.0727   30.5400   47.8631 N   0  0  0  0  0  0  0  0  0  0  0  0
   37.6039   30.5918   49.1153 C   0  0  0  0  0  0  0  0  0  0  0  0
   37.7865   31.7041   49.8618 N   0  0  0  0  0  0  0  0  0  0  0  0
   35.4329   29.5381   49.2224 C   0  0  2  0  0  0  0  0  0  0  0  0
   34.4052   29.4596   50.2709 C   0  0  0  0  0  0  0  0  0  0  0  0
   34.6473   28.2431   49.5125 C   0  0  1  0  0  0  0  0  0  0  0  0
   33.5756   27.8552   48.5370 C   0  0  0  0  0  0  0  0  0  0  0  0
   33.8919   26.8771   47.7559 O   0  0  0  0  0  0  0  0  0  0  0  0
   32.3276   28.4486   48.4385 O   0  0  0  0  0  0  0  0  0  0  0  0
   36.9010   29.5102   50.7799 H   0  0  0  0  0  0  0  0  0  0  0  0
   37.3307   28.4522   49.4188 H   0  0  0  0  0  0  0  0  0  0  0  0
   38.5976   33.6552   49.9185 H   0  0  0  0  0  0  0  0  0  0  0  0
   39.4700   33.5676   47.5976 H   0  0  0  0  0  0  0  0  0  0  0  0
   39.0965   31.4832   46.2787 H   0  0  0  0  0  0  0  0  0  0  0  0
   35.2753   29.9230   48.2289 H   0  0  0  0  0  0  0  0  0  0  0  0
   33.4776   30.0741   50.0709 H   0  0  0  0  0  0  0  0  0  0  0  0
   34.6938   29.5651   51.3478 H   0  0  0  0  0  0  0  0  0  0  0  0
   35.3195   27.4260   49.8232 H   0  0  0  0  0  0  0  0  0  0  0  0
   31.4017   28.0265   47.5255 C   0  0  0  0  0  0  0  0  0  0  0  0
   30.1249   27.9034   48.0863 C   0  0  0  0  0  0  0  0  0  0  0  0
   29.0536   27.4815   47.2935 C   0  0  0  0  0  0  0  0  0  0  0  0
   28.0527   27.3752   47.6948 H   0  0  0  0  0  0  0  0  0  0  0  0
   29.2589   27.1876   45.9595 C   0  0  0  0  0  0  0  0  0  0  0  0
   30.5206   27.3089   45.4040 C   0  0  0  0  0  0  0  0  0  0  0  0
   30.7717   27.1016   44.3755 H   0  0  0  0  0  0  0  0  0  0  0  0
   31.5731   27.7293   46.2063 C   0  0  0  0  0  0  0  0  0  0  0  0
   29.8757   28.1160   49.1344 H   0  0  0  0  0  0  0  0  0  0  0  0
   28.4865   26.8550   45.2753 H   0  0  0  0  0  0  0  0  0  0  0  0
   32.5957   27.8567   45.8711 H   0  0  0  0  0  0  0  0  0  0  0  0
  2  7  2  0
  3  2  1  0
  4  5  1  0
  4  3  2  0
  5  6  2  0
  6  1  1  0
  6  7  1  0
  8 10  1  0
  8  1  1  0
  8  9  1  0
 10  9  1  0
 11 10  1  0
 12 11  2  0
 13 11  1  0
  1 14  1  0
  1 15  1  0
  2 16  1  0
  3 17  1  0
  4 18  1  0
  8 19  1  6
  9 20  1  0
  9 21  1  0
 10 22  1  1
 23 24  2  0
 24 25  1  0
 25 26  1  0
 25 27  2  0
 27 28  1  0
 28 29  1  0
 28 30  2  0
 30 23  1  0
 24 31  1  0
 27 32  1  0
 30 33  1  0
 13 23  1  0
M  ISO  8  14   8  15   8  16  14  17  14  18  14  19  13  20  13  21  13
M  ISO  3  22  13  26  16  29  16
M  END
>  <DihAtoms>  (1) 
10,12,22,23

>  <DihDeg>  (1) 
-89.99898769464255

$$$$
