
 OpenBabel03252512473D

 29 31  0  0  1  0  0  0  0  0999 V2000
   38.3910   31.1000   47.7830 C   0  0  0  0  0  0  0  0  0  0  0  0
   38.9010   32.4170   47.8340 C   0  0  0  0  0  0  0  0  0  0  0  0
   39.6350   32.6690   46.1740 S   0  0  0  0  0  0  0  0  0  0  0  0
   39.1080   30.8940   45.6910 C   0  0  0  0  0  0  0  0  0  0  0  0
   38.6040   30.5160   46.6090 N   0  0  0  0  0  0  0  0  0  0  0  0
   38.8440   33.0890   48.6920 H   0  0  0  0  0  0  0  0  0  0  0  0
   38.1350   30.8780   50.2250 C   0  0  0  0  0  0  0  0  0  0  0  0
   37.7010   30.5180   48.9440 C   0  0  0  0  0  0  0  0  0  0  0  0
   36.6340   29.6310   48.8670 C   0  0  0  0  0  0  0  0  0  0  0  0
   36.0760   29.1690   49.9940 N   0  0  0  0  0  0  0  0  0  0  0  0
   36.5130   29.5310   51.2130 C   0  0  0  0  0  0  0  0  0  0  0  0
   37.5560   30.3980   51.3280 N   0  0  0  0  0  0  0  0  0  0  0  0
   38.9540   31.5600   50.4130 H   0  0  0  0  0  0  0  0  0  0  0  0
   36.3150   29.3670   47.8630 H   0  0  0  0  0  0  0  0  0  0  0  0
   35.9280   29.0460   51.9940 H   0  0  0  0  0  0  0  0  0  0  0  0
   39.3830   30.3030   44.3320 C   0  0  2  0  0  0  0  0  0  0  0  0
   39.9200   29.3590   44.5390 H   0  0  0  0  0  0  0  0  0  0  0  0
   40.1750   31.3040   43.5610 C   0  0  0  0  0  0  0  0  0  0  0  0
   40.7570   31.9880   44.1930 H   0  0  0  0  0  0  0  0  0  0  0  0
   40.9030   30.8080   42.8820 H   0  0  0  0  0  0  0  0  0  0  0  0
   39.5040   31.9580   42.9500 H   0  0  0  0  0  0  0  0  0  0  0  0
   38.0480   30.0270   43.6560 C   0  0  0  0  0  0  0  0  0  0  0  0
   37.2920   29.7160   44.3810 H   0  0  0  0  0  0  0  0  0  0  0  0
   37.7370   30.9100   43.0970 H   0  0  0  0  0  0  0  0  0  0  0  0
   38.2530   28.8520   42.6910 C   0  0  0  0  0  0  0  0  0  0  0  0
   37.0380   27.9680   42.6940 C   0  0  0  0  0  0  0  0  0  0  0  0
   37.5600   26.5690   42.4990 C   0  0  0  0  0  0  0  0  0  0  0  0
   38.9400   26.5560   43.1250 C   0  0  0  0  0  0  0  0  0  0  0  0
   39.3890   27.9830   43.1500 C   0  0  0  0  0  0  0  0  0  0  0  0
  1  2  2  0  0  0  0
  1  8  1  0  0  0  0
  2  6  1  0  0  0  0
  3  2  1  0  0  0  0
  4  3  1  0  0  0  0
  4  5  2  0  0  0  0
  5  1  1  0  0  0  0
  7 13  1  0  0  0  0
  7 12  1  0  0  0  0
  8  7  2  0  0  0  0
  9  8  1  0  0  0  0
  9 10  2  0  0  0  0
 10 11  1  0  0  0  0
 11 12  2  0  0  0  0
 11 15  1  0  0  0  0
 14  9  1  0  0  0  0
 16 17  1  1  0  0  0
 16  4  1  0  0  0  0
 18 19  1  0  0  0  0
 18 16  1  0  0  0  0
 20 18  1  0  0  0  0
 21 18  1  0  0  0  0
 22 16  1  0  0  0  0
 22 23  1  0  0  0  0
 24 22  1  0  0  0  0
 25 26  1  0  0  0  0
 25 29  1  0  0  0  0
 25 22  1  0  0  0  0
 27 26  1  0  0  0  0
 27 28  1  0  0  0  0
 28 29  1  0  0  0  0
M  END
>  <minimizedAffinity>
-5.18361092

>  <minimizedRMSD>
0.948566437

$$$$
