
     RDKit          3D

 48 51  0  0  0  0  0  0  0  0999 V2000
   36.4096   30.9648   48.7547 N   0  0  0  0  0  0  0  0  0  0  0  0
   36.3917   31.7267   49.8749 C   0  0  0  0  0  0  0  0  0  0  0  0
   37.3727   32.6538   49.7859 N   0  0  0  0  0  0  0  0  0  0  0  0
   37.9855   32.4545   48.6123 C   0  0  0  0  0  0  0  0  0  0  0  0
   39.0474   33.0786   47.9705 C   0  0  0  0  0  0  0  0  0  0  0  0
   39.4721   32.6731   46.7722 N   0  0  0  0  0  0  0  0  0  0  0  0
   38.8877   31.6234   46.1106 C   0  0  0  0  0  0  0  0  0  0  0  0
   37.8638   31.0290   46.7404 N   0  0  0  0  0  0  0  0  0  0  0  0
   37.3995   31.3973   47.9426 C   0  0  0  0  0  0  0  0  0  0  0  0
   39.6929   34.1630   48.5921 N   0  0  0  0  0  0  0  0  0  0  0  0
   34.6651   29.9749   47.3993 C   0  0  0  0  0  0  0  0  0  0  0  0
   35.5170   29.8882   48.5020 C   0  0  0  0  0  0  0  0  0  0  0  0
   35.4189   28.7409   49.2646 C   0  0  0  0  0  0  0  0  0  0  0  0
   34.5373   27.7798   48.9309 N   0  0  0  0  0  0  0  0  0  0  0  0
   33.7225   27.8893   47.8552 C   0  0  0  0  0  0  0  0  0  0  0  0
   33.8019   28.9873   47.1082 N   0  0  0  0  0  0  0  0  0  0  0  0
   32.7375   26.8259   47.4707 C   0  0  0  0  0  0  0  0  0  0  0  0
   31.5365   26.9184   48.4348 C   0  0  0  0  0  0  0  0  0  0  0  0
   32.1633   27.1317   46.1102 C   0  0  0  0  0  0  0  0  0  0  0  0
   33.3385   25.4793   47.4979 C   0  0  0  0  0  0  0  0  0  0  0  0
   35.7384   31.6594   50.7242 H   0  0  0  0  0  0  0  0  0  0  0  0
   39.2212   31.2840   45.1394 H   0  0  0  0  0  0  0  0  0  0  0  0
   39.2155   35.0481   48.3073 H   0  0  0  0  0  0  0  0  0  0  0  0
   40.5165   33.9126   49.2158 H   0  0  0  0  0  0  0  0  0  0  0  0
   34.6869   30.8470   46.7559 H   0  0  0  0  0  0  0  0  0  0  0  0
   36.0668   28.6513   50.1216 H   0  0  0  0  0  0  0  0  0  0  0  0
   31.8552   26.8283   49.4910 H   0  0  0  0  0  0  0  0  0  0  0  0
   31.0748   27.9039   48.2355 H   0  0  0  0  0  0  0  0  0  0  0  0
   30.8273   26.1379   48.1335 H   0  0  0  0  0  0  0  0  0  0  0  0
   32.7742   26.8050   45.2699 H   0  0  0  0  0  0  0  0  0  0  0  0
   32.1782   28.2749   46.0226 H   0  0  0  0  0  0  0  0  0  0  0  0
   31.0844   26.9033   46.0625 H   0  0  0  0  0  0  0  0  0  0  0  0
   33.8546   25.3734   48.5039 H   0  0  0  0  0  0  0  0  0  0  0  0
   34.2281   25.5269   46.7882 H   0  0  0  0  0  0  0  0  0  0  0  0
   32.5633   24.2896   47.1703 C   0  0  0  0  0  0  0  0  0  0  0  0
   33.5707   23.2605   46.6194 C   0  0  0  0  0  0  0  0  0  0  0  0
   33.8946   23.8398   45.2730 C   0  0  0  0  0  0  0  0  0  0  0  0
   32.6718   24.6259   44.8661 C   0  0  0  0  0  0  0  0  0  0  0  0
   31.6509   24.3559   45.9716 C   0  0  0  0  0  0  0  0  0  0  0  0
   32.0800   23.7785   48.0325 H   0  0  0  0  0  0  0  0  0  0  0  0
   34.4701   23.3035   47.2635 H   0  0  0  0  0  0  0  0  0  0  0  0
   33.1142   22.2559   46.5762 H   0  0  0  0  0  0  0  0  0  0  0  0
   34.7571   24.5188   45.3840 H   0  0  0  0  0  0  0  0  0  0  0  0
   34.1408   23.0496   44.5218 H   0  0  0  0  0  0  0  0  0  0  0  0
   32.2904   24.1810   43.9096 H   0  0  0  0  0  0  0  0  0  0  0  0
   32.8503   25.6836   44.6738 H   0  0  0  0  0  0  0  0  0  0  0  0
   30.8343   25.0577   46.0163 H   0  0  0  0  0  0  0  0  0  0  0  0
   31.2973   23.3058   45.7641 H   0  0  0  0  0  0  0  0  0  0  0  0
  1  2  1  0
  3  2  2  0
  4  3  1  0
  5 10  1  0
  5  4  2  0
  6  5  1  0
  7  8  1  0
  7  6  2  0
  8  9  2  0
  9  4  1  0
  9  1  1  0
 11 12  2  0
 12  1  1  0
 12 13  1  0
 14 13  2  0
 15 14  1  0
 16 11  1  0
 16 15  2  0
 17 15  1  0
 17 18  1  0
 19 17  1  0
 20 17  1  0
  2 21  1  0
  7 22  1  0
 10 23  1  0
 10 24  1  0
 11 25  1  0
 13 26  1  0
 18 27  1  0
 18 28  1  0
 18 29  1  0
 19 30  1  0
 19 31  1  0
 19 32  1  0
 20 33  1  0
 20 34  1  0
 35 36  1  0
 36 37  1  0
 37 38  1  0
 38 39  1  0
 39 35  1  0
 35 40  1  0
 36 41  1  0
 36 42  1  0
 37 43  1  0
 37 44  1  0
 38 45  1  0
 38 46  1  0
 39 47  1  0
 39 48  1  0
 20 35  1  0
M  ISO  8  21  14  22  14  25  14  26  14  27   8  28   8  29   8  30   8
M  ISO  4  31   8  32   8  33   8  34   8
M  END
>  <DihAtoms>  (1) 
16,19,34,35

>  <DihDeg>  (1) 
-177.8188231617511

$$$$
