
 OpenBabel03252514043D

 41 45  0  0  1  0  0  0  0  0999 V2000
   33.2170   27.4930   47.9710 C   0  0  0  0  0  0  0  0  0  0  0  0
   33.7590   26.3240   47.8430 O   0  0  0  0  0  0  0  0  0  0  0  0
   35.2720   29.0720   48.2780 C   0  0  2  0  0  0  0  0  0  0  0  0
   34.0220   29.7860   48.5180 C   0  0  0  0  0  0  0  0  0  0  0  0
   33.9980   28.4070   48.8970 C   0  0  1  0  0  0  0  0  0  0  0  0
   35.5500   28.7420   47.2730 H   0  0  0  0  0  0  0  0  0  0  0  0
   34.0460   30.5940   49.3050 H   0  0  0  0  0  0  0  0  0  0  0  0
   33.4230   30.1490   47.6310 H   0  0  0  0  0  0  0  0  0  0  0  0
   34.1720   28.0090   49.8930 H   0  0  0  0  0  0  0  0  0  0  0  0
   36.3620   29.2320   49.3530 C   0  0  0  0  0  0  0  0  0  0  0  0
   37.0430   28.3400   49.3290 H   0  0  0  0  0  0  0  0  0  0  0  0
   35.8920   29.2690   50.3480 H   0  0  0  0  0  0  0  0  0  0  0  0
   37.5470   32.6780   49.6020 C   0  0  0  0  0  0  0  0  0  0  0  0
   38.4520   32.7700   48.5210 C   0  0  0  0  0  0  0  0  0  0  0  0
   38.6370   31.6200   47.7160 C   0  0  0  0  0  0  0  0  0  0  0  0
   37.9300   30.4870   48.0320 N   0  0  0  0  0  0  0  0  0  0  0  0
   37.0810   30.4640   49.0780 C   0  0  0  0  0  0  0  0  0  0  0  0
   36.9010   31.5630   49.8500 N   0  0  0  0  0  0  0  0  0  0  0  0
   37.3730   33.5290   50.2420 H   0  0  0  0  0  0  0  0  0  0  0  0
   38.9820   33.6680   48.3090 H   0  0  0  0  0  0  0  0  0  0  0  0
   39.3270   31.6750   46.8860 H   0  0  0  0  0  0  0  0  0  0  0  0
   32.0350   27.7970   47.2990 O   0  0  0  0  0  0  0  0  0  0  0  0
   30.8540   28.0620   47.9320 C   0  0  0  0  0  0  0  0  0  0  0  0
   30.5970   27.8540   49.3880 C   0  0  0  0  0  0  0  0  0  0  0  0
   29.3720   28.1690   49.8590 C   0  0  0  0  0  0  0  0  0  0  0  0
   28.3630   28.6760   49.0300 C   0  0  0  0  0  0  0  0  0  0  0  0
   29.1860   28.7320   47.3760 S   0  0  0  0  0  0  0  0  0  0  0  0
   31.4520   27.4620   49.9160 H   0  0  0  0  0  0  0  0  0  0  0  0
   29.2510   27.9590   50.9000 H   0  0  0  0  0  0  0  0  0  0  0  0
   27.0500   29.0500   49.0870 C   0  0  0  0  0  0  0  0  0  0  0  0
   26.1440   28.3070   49.8000 N   0  0  0  0  0  0  0  0  0  0  0  0
   24.8760   28.6190   50.0090 C   0  0  0  0  0  3  0  0  0  0  0  0
   24.3580   29.7410   49.5160 N   0  0  0  0  0  0  0  0  0  0  0  0
   25.1070   30.5900   48.7870 C   0  0  0  0  0  0  0  0  0  0  0  0
   24.5900   31.7370   48.2400 C   0  0  0  0  0  3  0  0  0  0  0  0
   25.3720   32.5680   47.4680 C   0  0  0  0  0  0  0  0  0  0  0  0
   24.8480   33.4270   47.1030 H   0  0  0  0  0  0  0  0  0  0  0  0
   26.6840   32.1790   47.2830 C   0  0  0  0  0  0  0  0  0  0  0  0
   27.2550   32.8760   46.6600 H   0  0  0  0  0  0  0  0  0  0  0  0
   27.1660   31.0230   47.8470 C   0  0  0  0  0  3  0  0  0  0  0  0
   26.4090   30.1770   48.6240 C   0  0  0  0  0  0  0  0  0  0  0  0
  1  5  1  0  0  0  0
  2  1  2  0  0  0  0
  3  6  1  6  0  0  0
  3  4  1  0  0  0  0
  3  5  1  0  0  0  0
  3 10  1  0  0  0  0
  4  5  1  0  0  0  0
  4  7  1  0  0  0  0
  5  9  1  1  0  0  0
  8  4  1  0  0  0  0
 10 12  1  0  0  0  0
 11 10  1  0  0  0  0
 13 18  1  0  0  0  0
 13 19  1  0  0  0  0
 14 13  2  0  0  0  0
 15 16  2  0  0  0  0
 15 14  1  0  0  0  0
 16 17  1  0  0  0  0
 17 10  1  0  0  0  0
 17 18  2  0  0  0  0
 20 14  1  0  0  0  0
 21 15  1  0  0  0  0
 22 23  1  0  0  0  0
 22  1  1  0  0  0  0
 23 24  2  0  0  0  0
 24 25  1  0  0  0  0
 24 28  1  0  0  0  0
 25 29  1  0  0  0  0
 26 30  1  0  0  0  0
 26 25  2  0  0  0  0
 27 23  1  0  0  0  0
 27 26  1  0  0  0  0
 30 31  1  0  0  0  0
 31 32  2  0  0  0  0
 33 32  1  0  0  0  0
 34 33  2  0  0  0  0
 35 34  1  0  0  0  0
 36 35  2  0  0  0  0
 37 36  1  0  0  0  0
 38 36  1  0  0  0  0
 38 40  2  0  0  0  0
 39 38  1  0  0  0  0
 40 41  1  0  0  0  0
 41 34  1  0  0  0  0
 41 30  2  0  0  0  0
M  END
>  <minimizedAffinity>
-6.33117771

>  <minimizedRMSD>
2.38572526

$$$$
