
 OpenBabel03252514023D

 30 32  0  0  1  0  0  0  0  0999 V2000
   35.5720   29.4850   48.9740 C   0  0  2  0  0  0  0  0  0  0  0  0
   34.5250   29.7930   49.9590 C   0  0  0  0  0  0  0  0  0  0  0  0
   34.7120   28.3880   49.6330 C   0  0  1  0  0  0  0  0  0  0  0  0
   35.4520   29.5420   47.9050 H   0  0  0  0  0  0  0  0  0  0  0  0
   33.6360   30.3550   49.5440 H   0  0  0  0  0  0  0  0  0  0  0  0
   34.8010   30.2210   50.9560 H   0  0  0  0  0  0  0  0  0  0  0  0
   35.3320   27.6810   50.2080 H   0  0  0  0  0  0  0  0  0  0  0  0
   37.0150   29.4680   49.4810 C   0  0  0  0  0  0  0  0  0  0  0  0
   36.9780   29.4840   50.5880 H   0  0  0  0  0  0  0  0  0  0  0  0
   37.5340   28.5260   49.2000 H   0  0  0  0  0  0  0  0  0  0  0  0
   38.2530   32.9130   49.3570 C   0  0  0  0  0  0  0  0  0  0  0  0
   38.8820   32.9810   48.1040 C   0  0  0  0  0  0  0  0  0  0  0  0
   38.8690   31.8210   47.3090 C   0  0  0  0  0  0  0  0  0  0  0  0
   38.2520   30.7090   47.8030 N   0  0  0  0  0  0  0  0  0  0  0  0
   37.6650   30.6920   49.0050 C   0  0  0  0  0  0  0  0  0  0  0  0
   37.6700   31.8010   49.7780 N   0  0  0  0  0  0  0  0  0  0  0  0
   38.2840   33.8180   49.9340 H   0  0  0  0  0  0  0  0  0  0  0  0
   39.3740   33.8590   47.7060 H   0  0  0  0  0  0  0  0  0  0  0  0
   39.3240   31.7750   46.3340 H   0  0  0  0  0  0  0  0  0  0  0  0
   33.6370   27.7610   48.7960 C   0  0  0  0  0  0  0  0  0  0  0  0
   34.0610   26.8790   47.9530 O   0  0  0  0  0  0  0  0  0  0  0  0
   32.2850   28.0520   48.8770 O   0  0  0  0  0  0  0  0  0  0  0  0
   31.4080   27.6690   47.9000 C   0  0  0  0  0  0  0  0  0  0  0  0
   31.4030   28.5570   46.8170 C   0  0  0  0  0  3  0  0  0  0  0  0
   30.5620   28.3190   45.7270 C   0  0  0  0  0  0  0  0  0  0  0  0
   30.5330   28.9850   44.8720 H   0  0  0  0  0  0  0  0  0  0  0  0
   29.7390   27.2100   45.7210 C   0  0  0  0  0  3  0  0  0  0  0  0
   29.7430   26.3320   46.7900 C   0  0  0  0  0  0  0  0  0  0  0  0
   29.1350   25.4450   46.8700 H   0  0  0  0  0  0  0  0  0  0  0  0
   30.5840   26.5840   47.8660 C   0  0  0  0  0  3  0  0  0  0  0  0
  1  4  1  6  0  0  0
  1  8  1  0  0  0  0
  1  3  1  0  0  0  0
  1  2  1  0  0  0  0
  2  6  1  0  0  0  0
  3  2  1  0  0  0  0
  3  7  1  1  0  0  0
  5  2  1  0  0  0  0
  8  9  1  0  0  0  0
 10  8  1  0  0  0  0
 11 16  1  0  0  0  0
 11 17  1  0  0  0  0
 12 11  2  0  0  0  0
 13 14  2  0  0  0  0
 13 12  1  0  0  0  0
 14 15  1  0  0  0  0
 15  8  1  0  0  0  0
 15 16  2  0  0  0  0
 18 12  1  0  0  0  0
 19 13  1  0  0  0  0
 20 22  1  0  0  0  0
 20  3  1  0  0  0  0
 21 20  2  0  0  0  0
 23 22  1  0  0  0  0
 24 23  2  0  0  0  0
 25 24  1  0  0  0  0
 26 25  1  0  0  0  0
 27 25  2  0  0  0  0
 27 28  1  0  0  0  0
 28 29  1  0  0  0  0
 28 30  2  0  0  0  0
 30 23  1  0  0  0  0
M  END
>  <minimizedAffinity>
-4.89237356

>  <minimizedRMSD>
0.815897822

$$$$
