
 OpenBabel03252513543D

 21 22  0  0  0  0  0  0  0  0999 V2000
   33.7680   29.2050   47.6150 C   0  0  0  0  0  0  0  0  0  0  0  0
   34.8510   29.2410   47.8270 H   0  0  0  0  0  0  0  0  0  0  0  0
   33.2780   29.8010   48.4210 H   0  0  0  0  0  0  0  0  0  0  0  0
   34.1360   30.4660   44.1620 C   0  0  0  0  0  0  0  0  0  0  0  0
   32.9850   31.2610   43.9880 C   0  0  0  0  0  0  0  0  0  0  0  0
   32.0980   31.3510   45.0630 C   0  0  0  0  0  0  0  0  0  0  0  0
   32.4050   30.6650   46.2070 N   0  0  0  0  0  0  0  0  0  0  0  0
   33.5060   29.9160   46.3480 C   0  0  0  0  0  0  0  0  0  0  0  0
   34.3770   29.8160   45.3210 N   0  0  0  0  0  0  0  0  0  0  0  0
   34.8750   30.3550   43.3550 H   0  0  0  0  0  0  0  0  0  0  0  0
   32.8130   31.7690   43.0620 H   0  0  0  0  0  0  0  0  0  0  0  0
   31.1980   31.9470   44.9830 H   0  0  0  0  0  0  0  0  0  0  0  0
   33.2160   27.8370   47.6470 C   0  0  0  0  0  0  0  0  0  0  0  0
   31.9480   27.7490   48.2070 C   0  0  0  0  0  0  0  0  0  0  0  0
   31.3980   28.5990   48.5920 H   0  0  0  0  0  0  0  0  0  0  0  0
   31.2870   26.5360   48.3130 C   0  0  0  0  0  3  0  0  0  0  0  0
   31.9350   25.4150   47.8400 C   0  0  0  0  0  0  0  0  0  0  0  0
   31.3990   24.4680   47.9320 H   0  0  0  0  0  0  0  0  0  0  0  0
   33.1830   25.5130   47.2910 C   0  0  0  0  0  0  0  0  0  0  0  0
   33.6700   24.6120   46.9260 H   0  0  0  0  0  0  0  0  0  0  0  0
   33.8570   26.7090   47.1760 C   0  0  0  0  0  3  0  0  0  0  0  0
  1 13  1  0  0  0  0
  1  2  1  0  0  0  0
  1  3  1  0  0  0  0
  4  9  1  0  0  0  0
  5  4  2  0  0  0  0
  5  6  1  0  0  0  0
  6  7  2  0  0  0  0
  7  8  1  0  0  0  0
  8  1  1  0  0  0  0
  9  8  2  0  0  0  0
 10  4  1  0  0  0  0
 11  5  1  0  0  0  0
 12  6  1  0  0  0  0
 13 14  1  0  0  0  0
 14 16  2  0  0  0  0
 14 15  1  0  0  0  0
 17 18  1  0  0  0  0
 17 16  1  0  0  0  0
 19 17  2  0  0  0  0
 20 19  1  0  0  0  0
 21 19  1  0  0  0  0
 21 13  2  0  0  0  0
M  END
>  <minimizedAffinity>
-2.78657293

>  <minimizedRMSD>
5.19465351

$$$$
