
 OpenBabel03252514043D

 35 38  0  0  1  0  0  0  0  0999 V2000
   35.2740   29.2130   48.6340 C   0  0  2  0  0  0  0  0  0  0  0  0
   34.0600   29.3100   49.4410 C   0  0  0  0  0  0  0  0  0  0  0  0
   34.4290   27.9730   49.0760 C   0  0  1  0  0  0  0  0  0  0  0  0
   35.3220   29.3300   47.5480 H   0  0  0  0  0  0  0  0  0  0  0  0
   34.1890   29.6970   50.4930 H   0  0  0  0  0  0  0  0  0  0  0  0
   33.1870   29.8250   48.9620 H   0  0  0  0  0  0  0  0  0  0  0  0
   35.0150   27.2510   49.6560 H   0  0  0  0  0  0  0  0  0  0  0  0
   36.6040   29.2550   49.4030 C   0  0  0  0  0  0  0  0  0  0  0  0
   37.2170   28.3810   49.0620 H   0  0  0  0  0  0  0  0  0  0  0  0
   36.4180   29.0880   50.4670 H   0  0  0  0  0  0  0  0  0  0  0  0
   37.6860   32.7410   49.5500 C   0  0  0  0  0  0  0  0  0  0  0  0
   38.5290   32.8500   48.4310 C   0  0  0  0  0  0  0  0  0  0  0  0
   38.7150   31.7000   47.6320 C   0  0  0  0  0  0  0  0  0  0  0  0
   38.0640   30.5510   47.9940 N   0  0  0  0  0  0  0  0  0  0  0  0
   37.2720   30.5020   49.0690 C   0  0  0  0  0  0  0  0  0  0  0  0
   37.0860   31.6040   49.8460 N   0  0  0  0  0  0  0  0  0  0  0  0
   37.5130   33.5880   50.1880 H   0  0  0  0  0  0  0  0  0  0  0  0
   39.0160   33.7640   48.1870 H   0  0  0  0  0  0  0  0  0  0  0  0
   39.3510   31.7260   46.7620 H   0  0  0  0  0  0  0  0  0  0  0  0
   33.5840   27.3300   48.0000 C   0  0  0  0  0  0  0  0  0  0  0  0
   33.8990   26.1030   47.7590 O   0  0  0  0  0  0  0  0  0  0  0  0
   32.5530   27.9220   47.2980 O   0  0  0  0  0  0  0  0  0  0  0  0
   31.2880   28.0840   47.7740 C   0  0  0  0  0  0  0  0  0  0  0  0
   30.8310   27.6020   49.0920 C   0  0  0  0  0  0  0  0  0  0  0  0
   29.5490   27.8130   49.4820 C   0  0  0  0  0  0  0  0  0  0  0  0
   28.6620   28.4990   48.6110 C   0  0  0  0  0  0  0  0  0  0  0  0
   29.7030   28.8750   47.1330 S   0  0  0  0  0  0  0  0  0  0  0  0
   31.5420   27.0860   49.7160 H   0  0  0  0  0  0  0  0  0  0  0  0
   29.1370   27.4980   50.4220 H   0  0  0  0  0  0  0  0  0  0  0  0
   27.3380   28.8550   48.7240 C   0  0  0  0  0  0  0  0  0  0  0  0
   26.2490   28.0420   48.7280 C   0  0  0  0  0  3  0  0  0  0  0  0
   25.1350   28.8240   48.8610 N   0  0  0  0  0  0  0  0  0  0  0  0
   25.5500   30.1220   48.9380 C   0  0  0  0  0  3  0  0  0  0  0  0
   26.9120   30.1030   48.8500 N   0  0  0  0  0  0  0  0  0  0  0  0
   27.4640   30.9850   48.8840 H   0  0  0  0  0  0  0  0  0  0  0  0
  1  4  1  6  0  0  0
  1  3  1  0  0  0  0
  1  8  1  0  0  0  0
  1  2  1  0  0  0  0
  2  5  1  0  0  0  0
  3  2  1  0  0  0  0
  3  7  1  1  0  0  0
  6  2  1  0  0  0  0
  8 10  1  0  0  0  0
  9  8  1  0  0  0  0
 11 16  1  0  0  0  0
 11 17  1  0  0  0  0
 12 11  2  0  0  0  0
 13 14  2  0  0  0  0
 13 12  1  0  0  0  0
 14 15  1  0  0  0  0
 15  8  1  0  0  0  0
 15 16  2  0  0  0  0
 18 12  1  0  0  0  0
 19 13  1  0  0  0  0
 20  3  1  0  0  0  0
 21 20  2  0  0  0  0
 22 23  1  0  0  0  0
 22 20  1  0  0  0  0
 23 24  2  0  0  0  0
 24 25  1  0  0  0  0
 24 28  1  0  0  0  0
 25 29  1  0  0  0  0
 26 30  1  0  0  0  0
 26 25  2  0  0  0  0
 27 23  1  0  0  0  0
 27 26  1  0  0  0  0
 30 31  2  0  0  0  0
 30 34  1  0  0  0  0
 31 32  1  0  0  0  0
 32 33  2  0  0  0  0
 34 35  1  0  0  0  0
 34 33  1  0  0  0  0
M  END
>  <minimizedAffinity>
-6.17524767

>  <minimizedRMSD>
1.56455231

$$$$
