
     RDKit          3D

 23 24  0  0  0  0  0  0  0  0999 V2000
   37.2816   30.1834   51.4169 C   0  0  0  0  0  0  0  0  0  0  0  0
   38.1018   30.7360   50.4123 C   0  0  0  0  0  0  0  0  0  0  0  0
   37.7712   30.4508   49.0852 C   0  0  0  0  0  0  0  0  0  0  0  0
   36.6796   29.6585   48.8524 N   0  0  0  0  0  0  0  0  0  0  0  0
   35.9156   29.1451   49.8249 C   0  0  0  0  0  0  0  0  0  0  0  0
   36.2185   29.4092   51.1154 N   0  0  0  0  0  0  0  0  0  0  0  0
   34.7526   28.2981   49.4930 C   0  0  0  0  0  0  0  0  0  0  0  0
   37.4875   30.3696   52.4811 H   0  0  0  0  0  0  0  0  0  0  0  0
   38.9402   31.3474   50.6727 H   0  0  0  0  0  0  0  0  0  0  0  0
   38.3665   30.8489   48.2737 H   0  0  0  0  0  0  0  0  0  0  0  0
   33.9386   28.5138   50.2070 H   0  0  0  0  0  0  0  0  0  0  0  0
   34.3845   28.6403   48.4974 H   0  0  0  0  0  0  0  0  0  0  0  0
   35.0784   26.8620   49.4005 C   0  0  0  0  0  0  0  0  0  0  0  0
   35.1345   26.3755   48.1010 C   0  0  0  0  0  0  0  0  0  0  0  0
   34.9578   26.9810   47.2209 H   0  0  0  0  0  0  0  0  0  0  0  0
   35.4287   25.0459   47.8402 C   0  0  0  0  0  0  0  0  0  0  0  0
   35.6641   24.2221   48.9186 C   0  0  0  0  0  0  0  0  0  0  0  0
   35.8939   23.1792   48.6940 H   0  0  0  0  0  0  0  0  0  0  0  0
   35.6061   24.7125   50.1937 C   0  0  0  0  0  0  0  0  0  0  0  0
   35.7963   24.0392   51.0260 H   0  0  0  0  0  0  0  0  0  0  0  0
   35.3155   26.0303   50.4760 C   0  0  0  0  0  0  0  0  0  0  0  0
   35.4736   24.6601   46.8189 H   0  0  0  0  0  0  0  0  0  0  0  0
   35.2586   26.4619   51.4638 H   0  0  0  0  0  0  0  0  0  0  0  0
  2  1  2  0
  3  2  1  0
  4  3  2  0
  4  5  1  0
  5  6  2  0
  6  1  1  0
  7  5  1  0
  1  8  1  0
  2  9  1  0
  3 10  1  0
  7 11  1  0
  7 12  1  0
 13 14  2  0
 14 15  1  0
 14 16  1  0
 16 17  2  0
 17 18  1  0
 17 19  1  0
 19 20  1  0
 19 21  2  0
 21 13  1  0
 16 22  1  0
 21 23  1  0
  7 13  1  0
M  ISO  8   8  14   9  14  10  14  11   8  12   8  15  16  18  16  20  16
M  END
>  <DihAtoms>  (1) 
4,6,12,13

>  <DihDeg>  (1) 
89.99822302993665

$$$$
