REMARK  Name = 
REMARK  4 active torsions:
REMARK  status: ('A' for Active; 'I' for Inactive)
REMARK    1  A    between atoms: C_1  and  O_11
REMARK    2  A    between atoms: C_3  and  C_17
REMARK    3  A    between atoms: C_5  and  C_7
REMARK    4  A    between atoms: O_11  and  C_12
REMARK                            x       y       z     vdW  Elec       q    Type
REMARK                         _______ _______ _______ _____ _____    ______ ____
ROOT
ATOM      1  C   UNL     1      37.496  30.325  49.166  0.00  0.00    +0.000 A 
ATOM      2  C   UNL     1      37.778  31.403  50.072  0.00  0.00    +0.000 A 
ATOM      3  C   UNL     1      38.469  32.485  49.556  0.00  0.00    +0.000 A 
ATOM      4  N   UNL     1      38.834  32.470  48.257  0.00  0.00    +0.000 NA
ATOM      5  C   UNL     1      38.554  31.445  47.440  0.00  0.00    +0.000 A 
ATOM      6  N   UNL     1      37.894  30.390  47.893  0.00  0.00    +0.000 NA
ATOM      7  H   UNL     1      37.462  31.360  51.100  0.00  0.00    +0.000 HD
ENDROOT
BRANCH   3   8
ATOM      8  C   UNL     1      38.797  33.623  50.408  0.00  0.00    +0.000 A 
ATOM      9  C   UNL     1      38.052  34.049  51.486  0.00  0.00    +0.000 A 
ATOM     10  N   UNL     1      38.682  35.128  52.014  0.00  0.00    +0.000 NA
ATOM     11  C   UNL     1      39.772  35.319  51.252  0.00  0.00    +0.000 A 
ATOM     12  N   UNL     1      39.867  34.420  50.270  0.00  0.00    +0.000 N 
ATOM     13  H   UNL     1      40.632  34.397  49.578  0.00  0.00    +0.000 HD
ENDBRANCH   3   8
BRANCH   5  14
ATOM     14  C   UNL     1      39.032  31.595  46.033  0.00  0.00    +0.000 C 
ATOM     15  F   UNL     1      38.313  32.603  45.390  0.00  0.00    +0.000 F 
ATOM     16  F   UNL     1      40.340  32.011  46.032  0.00  0.00    +0.000 F 
ATOM     17  F   UNL     1      38.957  30.396  45.332  0.00  0.00    +0.000 F 
ENDBRANCH   5  14
BRANCH   1  18
ATOM     18  O   UNL     1      36.807  29.237  49.663  0.00  0.00    +0.000 OA
BRANCH  18  19
ATOM     19  C   UNL     1      35.532  29.285  50.227  0.00  0.00    +0.000 C 
ATOM     20  F   UNL     1      35.527  29.233  51.607  0.00  0.00    +0.000 F 
ATOM     21  F   UNL     1      34.772  30.338  49.792  0.00  0.00    +0.000 F 
ATOM     22  F   UNL     1      34.905  28.118  49.792  0.00  0.00    +0.000 F 
ENDBRANCH  18  19
ENDBRANCH   1  18
TORSDOF 4
