REMARK  Name = 
REMARK  2 active torsions:
REMARK  status: ('A' for Active; 'I' for Inactive)
REMARK    1  A    between atoms: C_5  and  C_7
REMARK    2  A    between atoms: C_7  and  C_13
REMARK                            x       y       z     vdW  Elec       q    Type
REMARK                         _______ _______ _______ _____ _____    ______ ____
ROOT
ATOM      1  C   UNL     1      34.753  28.298  49.493  0.00  0.00    +0.000 C 
ATOM      2  H   UNL     1      33.939  28.514  50.207  0.00  0.00    +0.000 HD
ATOM      3  H   UNL     1      34.385  28.640  48.497  0.00  0.00    +0.000 HD
ENDROOT
BRANCH   1   8
ATOM      4  C   UNL     1      37.282  30.183  51.417  0.00  0.00    +0.000 A 
ATOM      5  C   UNL     1      38.102  30.736  50.412  0.00  0.00    +0.000 A 
ATOM      6  C   UNL     1      37.771  30.451  49.085  0.00  0.00    +0.000 A 
ATOM      7  N   UNL     1      36.680  29.659  48.852  0.00  0.00    +0.000 NA
ATOM      8  C   UNL     1      35.916  29.145  49.825  0.00  0.00    +0.000 A 
ATOM      9  N   UNL     1      36.218  29.409  51.115  0.00  0.00    +0.000 NA
ATOM     10  H   UNL     1      37.487  30.370  52.481  0.00  0.00    +0.000 HD
ATOM     11  H   UNL     1      38.940  31.347  50.673  0.00  0.00    +0.000 HD
ATOM     12  H   UNL     1      38.367  30.849  48.274  0.00  0.00    +0.000 HD
ENDBRANCH   1   8
BRANCH   1  13
ATOM     13  C   UNL     1      35.078  26.862  49.401  0.00  0.00    +0.000 A 
ATOM     14  C   UNL     1      35.135  26.375  48.101  0.00  0.00    +0.000 A 
ATOM     15  H   UNL     1      34.958  26.981  47.221  0.00  0.00    +0.000 HD
ATOM     16  C   UNL     1      35.429  25.046  47.840  0.00  0.00    +0.000 A 
ATOM     17  C   UNL     1      35.664  24.222  48.919  0.00  0.00    +0.000 A 
ATOM     18  H   UNL     1      35.894  23.179  48.694  0.00  0.00    +0.000 HD
ATOM     19  C   UNL     1      35.606  24.712  50.194  0.00  0.00    +0.000 A 
ATOM     20  H   UNL     1      35.796  24.039  51.026  0.00  0.00    +0.000 HD
ATOM     21  C   UNL     1      35.316  26.030  50.476  0.00  0.00    +0.000 A 
ENDBRANCH   1  13
TORSDOF 2
