
     RDKit          3D

 24 25  0  0  0  0  0  0  0  0999 V2000
   37.4964   30.3253   49.1663 C   0  0  0  0  0  0  0  0  0  0  0  0
   37.7782   31.4033   50.0725 C   0  0  0  0  0  0  0  0  0  0  0  0
   38.4695   32.4848   49.5562 C   0  0  0  0  0  0  0  0  0  0  0  0
   38.8344   32.4698   48.2571 N   0  0  0  0  0  0  0  0  0  0  0  0
   38.5538   31.4448   47.4395 C   0  0  0  0  0  0  0  0  0  0  0  0
   37.8941   30.3903   47.8927 N   0  0  0  0  0  0  0  0  0  0  0  0
   39.0320   31.5945   46.0335 C   0  0  0  0  0  0  0  0  0  0  0  0
   38.3126   32.6029   45.3896 F   0  0  0  0  0  0  0  0  0  0  0  0
   40.3397   32.0107   46.0323 F   0  0  0  0  0  0  0  0  0  0  0  0
   38.9568   30.3959   45.3324 F   0  0  0  0  0  0  0  0  0  0  0  0
   36.8074   29.2371   49.6627 O   0  0  0  0  0  0  0  0  0  0  0  0
   35.5324   29.2851   50.2271 C   0  0  0  0  0  0  0  0  0  0  0  0
   35.5274   29.2330   51.6066 F   0  0  0  0  0  0  0  0  0  0  0  0
   34.7723   30.3378   49.7917 F   0  0  0  0  0  0  0  0  0  0  0  0
   34.9052   28.1176   49.7917 F   0  0  0  0  0  0  0  0  0  0  0  0
   37.4621   31.3604   51.1000 H   0  0  0  0  0  0  0  0  0  0  0  0
   38.7972   33.6230   50.4080 C   0  0  0  0  0  0  0  0  0  0  0  0
   38.0516   34.0487   51.4859 C   0  0  0  0  0  0  0  0  0  0  0  0
   38.6822   35.1282   52.0142 N   0  0  0  0  0  0  0  0  0  0  0  0
   39.7724   35.3190   51.2515 C   0  0  0  0  0  0  0  0  0  0  0  0
   39.8669   34.4202   50.2699 N   0  0  0  0  0  0  0  0  0  0  0  0
   37.1322   33.6037   51.8450 H   0  0  0  0  0  0  0  0  0  0  0  0
   40.4067   36.1629   51.5410 H   0  0  0  0  0  0  0  0  0  0  0  0
   40.6318   34.3972   49.5779 H   0  0  0  0  0  0  0  0  0  0  0  0
  1 11  1  0
  1  2  2  0
  3  2  1  0
  4  3  2  0
  5  6  2  0
  5  4  1  0
  6  1  1  0
  7  5  1  0
  8  7  1  0
  9  7  1  0
 10  7  1  0
 11 12  1  0
 12 13  1  0
 14 12  1  0
 15 12  1  0
  2 16  1  0
 17 18  2  0
 18 19  1  0
 19 20  2  0
 20 21  1  0
 21 17  1  0
 18 22  1  0
 20 23  1  0
 21 24  1  0
  3 17  1  0
M  ISO  1  16  14
M  END
>  <DihAtoms>  (1) 
1,2,16,17

>  <DihDeg>  (1) 
-179.99844947442006

$$$$
