
 OpenBabel03252514043D

 35 38  0  0  1  0  0  0  0  0999 V2000
   35.2930   29.2640   48.6920 C   0  0  2  0  0  0  0  0  0  0  0  0
   34.1170   29.3230   49.5570 C   0  0  0  0  0  0  0  0  0  0  0  0
   34.4730   28.0030   49.1230 C   0  0  1  0  0  0  0  0  0  0  0  0
   35.2910   29.4240   47.6100 H   0  0  0  0  0  0  0  0  0  0  0  0
   34.2930   29.6680   50.6160 H   0  0  0  0  0  0  0  0  0  0  0  0
   33.2210   29.8520   49.1390 H   0  0  0  0  0  0  0  0  0  0  0  0
   35.0860   27.2620   49.6450 H   0  0  0  0  0  0  0  0  0  0  0  0
   36.6570   29.2810   49.4000 C   0  0  0  0  0  0  0  0  0  0  0  0
   37.2470   28.4100   49.0150 H   0  0  0  0  0  0  0  0  0  0  0  0
   36.5170   29.0940   50.4690 H   0  0  0  0  0  0  0  0  0  0  0  0
   37.7300   32.7700   49.5390 C   0  0  0  0  0  0  0  0  0  0  0  0
   38.5650   32.8810   48.4130 C   0  0  0  0  0  0  0  0  0  0  0  0
   38.7470   31.7320   47.6130 C   0  0  0  0  0  0  0  0  0  0  0  0
   38.1020   30.5810   47.9800 N   0  0  0  0  0  0  0  0  0  0  0  0
   37.3190   30.5300   49.0610 C   0  0  0  0  0  0  0  0  0  0  0  0
   37.1360   31.6310   49.8400 N   0  0  0  0  0  0  0  0  0  0  0  0
   37.5610   33.6170   50.1780 H   0  0  0  0  0  0  0  0  0  0  0  0
   39.0460   33.7970   48.1660 H   0  0  0  0  0  0  0  0  0  0  0  0
   39.3760   31.7590   46.7380 H   0  0  0  0  0  0  0  0  0  0  0  0
   33.5810   27.4000   48.0610 C   0  0  0  0  0  0  0  0  0  0  0  0
   33.9120   26.1970   47.7310 O   0  0  0  0  0  0  0  0  0  0  0  0
   32.4960   28.0020   47.4560 O   0  0  0  0  0  0  0  0  0  0  0  0
   31.2460   28.0570   47.9920 C   0  0  0  0  0  0  0  0  0  0  0  0
   30.8970   27.5500   49.3340 C   0  0  0  0  0  0  0  0  0  0  0  0
   29.6210   27.6520   49.7840 C   0  0  0  0  0  0  0  0  0  0  0  0
   28.6360   28.2480   48.9530 C   0  0  0  0  0  0  0  0  0  0  0  0
   29.5690   28.6990   47.4240 S   0  0  0  0  0  0  0  0  0  0  0  0
   31.6800   27.1050   49.9250 H   0  0  0  0  0  0  0  0  0  0  0  0
   29.2840   27.3120   50.7450 H   0  0  0  0  0  0  0  0  0  0  0  0
   27.2940   28.4880   49.1280 C   0  0  0  0  0  0  0  0  0  0  0  0
   26.5370   28.2560   50.2330 C   0  0  0  0  0  3  0  0  0  0  0  0
   25.2550   28.6450   49.9620 N   0  0  0  0  0  0  0  0  0  0  0  0
   25.2310   29.1170   48.6810 C   0  0  0  0  0  3  0  0  0  0  0  0
   26.5030   29.0060   48.2000 N   0  0  0  0  0  0  0  0  0  0  0  0
   26.7370   29.3050   47.2300 H   0  0  0  0  0  0  0  0  0  0  0  0
  1  4  1  6  0  0  0
  1  3  1  0  0  0  0
  1  8  1  0  0  0  0
  1  2  1  0  0  0  0
  2  5  1  0  0  0  0
  3  2  1  0  0  0  0
  3  7  1  1  0  0  0
  6  2  1  0  0  0  0
  8 10  1  0  0  0  0
  9  8  1  0  0  0  0
 11 16  1  0  0  0  0
 11 17  1  0  0  0  0
 12 11  2  0  0  0  0
 13 14  2  0  0  0  0
 13 12  1  0  0  0  0
 14 15  1  0  0  0  0
 15  8  1  0  0  0  0
 15 16  2  0  0  0  0
 18 12  1  0  0  0  0
 19 13  1  0  0  0  0
 20  3  1  0  0  0  0
 21 20  2  0  0  0  0
 22 23  1  0  0  0  0
 22 20  1  0  0  0  0
 23 24  2  0  0  0  0
 24 25  1  0  0  0  0
 24 28  1  0  0  0  0
 25 29  1  0  0  0  0
 26 30  1  0  0  0  0
 26 25  2  0  0  0  0
 27 23  1  0  0  0  0
 27 26  1  0  0  0  0
 30 31  2  0  0  0  0
 32 31  1  0  0  0  0
 33 32  2  0  0  0  0
 34 33  1  0  0  0  0
 34 30  1  0  0  0  0
 35 34  1  0  0  0  0
M  END
>  <minimizedAffinity>
-6.1107955

>  <minimizedRMSD>
1.44933963

$$$$
