
 OpenBabel03252511573D

 34 37  0  0  0  0  0  0  0  0999 V2000
   36.3760   30.2930   47.5010 N   0  0  0  0  0  0  0  0  0  0  0  0
   35.1190   29.9800   47.0960 C   0  0  0  0  0  0  0  0  0  0  0  0
   34.7570   30.0820   45.7650 C   0  0  0  0  0  0  0  0  0  0  0  0
   35.7560   30.5140   44.9330 C   0  0  0  0  0  0  0  0  0  0  0  0
   35.4650   30.6220   43.6980 O   0  0  0  0  0  0  0  0  0  0  0  0
   37.0170   30.8390   45.2740 N   0  0  0  0  0  0  0  0  0  0  0  0
   37.2740   30.7050   46.6030 C   0  0  0  0  0  0  0  0  0  0  0  0
   38.4210   30.9840   46.9990 O   0  0  0  0  0  0  0  0  0  0  0  0
   34.3860   29.6450   47.8180 H   0  0  0  0  0  0  0  0  0  0  0  0
   33.7770   29.8410   45.4270 H   0  0  0  0  0  0  0  0  0  0  0  0
   36.9220   31.3920   49.5040 C   0  0  0  0  0  0  0  0  0  0  0  0
   36.6710   30.1660   48.8640 C   0  0  0  0  0  0  0  0  0  0  0  0
   36.7490   28.9920   49.6100 C   0  0  0  0  0  0  0  0  0  0  0  0
   37.0640   29.0770   50.9250 N   0  0  0  0  0  0  0  0  0  0  0  0
   37.3050   30.2740   51.5330 C   0  0  0  0  0  0  0  0  0  0  0  0
   37.2290   31.4310   50.8050 N   0  0  0  0  0  0  0  0  0  0  0  0
   36.9200   32.4270   49.2000 H   0  0  0  0  0  0  0  0  0  0  0  0
   36.5490   28.1030   49.0660 H   0  0  0  0  0  0  0  0  0  0  0  0
   37.5410   30.1550   52.5810 H   0  0  0  0  0  0  0  0  0  0  0  0
   37.9460   31.2740   44.3280 C   0  0  0  0  0  0  0  0  0  0  0  0
   38.3030   32.5850   44.0570 C   0  0  0  0  0  0  0  0  0  0  0  0
   39.2210   32.9440   43.1140 C   0  0  0  0  0  0  0  0  0  0  0  0
   39.8400   31.9620   42.3790 C   0  0  0  0  0  0  0  0  0  0  0  0
   39.4780   30.6590   42.6550 C   0  0  0  0  0  0  0  0  0  0  0  0
   38.5620   30.3140   43.5960 N   0  0  0  0  0  0  0  0  0  0  0  0
   37.7910   33.3240   44.6590 H   0  0  0  0  0  0  0  0  0  0  0  0
   39.4860   33.9720   42.9180 H   0  0  0  0  0  0  0  0  0  0  0  0
   40.5780   32.1640   41.6140 H   0  0  0  0  0  0  0  0  0  0  0  0
   40.1090   29.5820   41.8990 C   0  0  0  0  0  0  0  0  0  0  0  0
   41.3710   29.5780   41.3420 C   0  0  0  0  0  0  0  0  0  0  0  0
   41.6230   28.3970   40.7070 N   0  0  0  0  0  0  0  0  0  0  0  0
   40.4970   27.6850   40.8850 C   0  0  0  0  0  0  0  0  0  0  0  0
   39.5960   28.3800   41.5900 N   0  0  0  0  0  0  0  0  0  0  0  0
   38.6470   28.0080   41.8420 H   0  0  0  0  0  0  0  0  0  0  0  0
  1 12  1  0  0  0  0
  2  1  1  0  0  0  0
  2  9  1  0  0  0  0
  3  2  2  0  0  0  0
  4  6  1  0  0  0  0
  4  3  1  0  0  0  0
  5  4  2  0  0  0  0
  6  7  1  0  0  0  0
  7  8  2  0  0  0  0
  7  1  1  0  0  0  0
 10  3  1  0  0  0  0
 11 16  1  0  0  0  0
 12 11  2  0  0  0  0
 12 13  1  0  0  0  0
 13 14  2  0  0  0  0
 14 15  1  0  0  0  0
 15 19  1  0  0  0  0
 16 15  2  0  0  0  0
 17 11  1  0  0  0  0
 18 13  1  0  0  0  0
 20  6  1  0  0  0  0
 21 20  1  0  0  0  0
 21 26  1  0  0  0  0
 22 21  2  0  0  0  0
 23 24  2  0  0  0  0
 23 22  1  0  0  0  0
 24 25  1  0  0  0  0
 25 20  2  0  0  0  0
 27 22  1  0  0  0  0
 28 23  1  0  0  0  0
 29 24  1  0  0  0  0
 30 29  2  0  0  0  0
 31 32  2  0  0  0  0
 31 30  1  0  0  0  0
 32 33  1  0  0  0  0
 33 34  1  0  0  0  0
 33 29  1  0  0  0  0
M  END
>  <minimizedAffinity>
-5.39473915

>  <minimizedRMSD>
0.658232987

$$$$
