REMARK  Name = 
REMARK  7 active torsions:
REMARK  status: ('A' for Active; 'I' for Inactive)
REMARK    1  A    between atoms: N_1  and  C_12
REMARK    2  A    between atoms: C_5  and  N_10
REMARK    3  A    between atoms: C_15  and  C_17
REMARK    4  A    between atoms: C_17  and  C_18
REMARK    5  A    between atoms: C_17  and  C_19
REMARK    6  A    between atoms: C_17  and  C_20
REMARK    7  A    between atoms: C_20  and  C_35
REMARK                            x       y       z     vdW  Elec       q    Type
REMARK                         _______ _______ _______ _____ _____    ______ ____
ROOT
ATOM      1  C   UNL     1      34.665  29.984  47.403  0.00  0.00    +0.000 A 
ATOM      2  C   UNL     1      35.525  29.889  48.514  0.00  0.00    +0.000 A 
ATOM      3  C   UNL     1      35.419  28.740  49.270  0.00  0.00    +0.000 A 
ATOM      4  N   UNL     1      34.523  27.785  48.922  0.00  0.00    +0.000 NA
ATOM      5  C   UNL     1      33.716  27.895  47.862  0.00  0.00    +0.000 A 
ATOM      6  N   UNL     1      33.795  28.992  47.114  0.00  0.00    +0.000 NA
ATOM      7  H   UNL     1      34.728  30.867  46.799  0.00  0.00    +0.000 HD
ATOM      8  H   UNL     1      36.078  28.666  50.125  0.00  0.00    +0.000 HD
ENDROOT
BRANCH   2   9
ATOM      9  N   UNL     1      36.416  30.970  48.760  0.00  0.00    +0.000 N 
ATOM     10  C   UNL     1      36.393  31.733  49.869  0.00  0.00    +0.000 A 
ATOM     11  N   UNL     1      37.366  32.663  49.784  0.00  0.00    +0.000 NA
ATOM     12  C   UNL     1      37.985  32.456  48.607  0.00  0.00    +0.000 A 
ATOM     13  C   UNL     1      39.048  33.074  47.956  0.00  0.00    +0.000 A 
ATOM     14  N   UNL     1      39.476  32.663  46.764  0.00  0.00    +0.000 NA
ATOM     15  C   UNL     1      38.899  31.619  46.120  0.00  0.00    +0.000 A 
ATOM     16  N   UNL     1      37.869  31.023  46.755  0.00  0.00    +0.000 NA
ATOM     17  C   UNL     1      37.401  31.399  47.955  0.00  0.00    +0.000 A 
ATOM     18  H   UNL     1      35.744  31.697  50.745  0.00  0.00    +0.000 HD
ATOM     19  H   UNL     1      39.238  31.273  45.149  0.00  0.00    +0.000 HD
BRANCH  13  20
ATOM     20  N   UNL     1      39.689  34.171  48.582  0.00  0.00    +0.000 N 
ATOM     21  H   UNL     1      40.378  33.949  49.331  0.00  0.00    +0.000 HD
ATOM     22  H   UNL     1      39.584  35.192  48.414  0.00  0.00    +0.000 HD
ENDBRANCH  13  20
ENDBRANCH   2   9
BRANCH   5  23
ATOM     23  C   UNL     1      32.743  26.845  47.492  0.00  0.00    +0.000 C 
BRANCH  23  24
ATOM     24  C   UNL     1      31.552  26.884  48.437  0.00  0.00    +0.000 C 
ATOM     25  H   UNL     1      30.660  26.410  47.971  0.00  0.00    +0.000 HD
ATOM     26  H   UNL     1      31.344  27.954  48.688  0.00  0.00    +0.000 HD
ATOM     27  H   UNL     1      31.872  26.360  49.372  0.00  0.00    +0.000 HD
ENDBRANCH  23  24
BRANCH  23  28
ATOM     28  C   UNL     1      32.158  27.129  46.106  0.00  0.00    +0.000 C 
ATOM     29  H   UNL     1      32.890  27.076  45.302  0.00  0.00    +0.000 HD
ATOM     30  H   UNL     1      31.739  28.172  46.088  0.00  0.00    +0.000 HD
ATOM     31  H   UNL     1      31.311  26.474  45.881  0.00  0.00    +0.000 HD
ENDBRANCH  23  28
BRANCH  23  32
ATOM     32  C   UNL     1      33.324  25.466  47.454  0.00  0.00    +0.000 C 
ATOM     33  H   UNL     1      33.649  25.146  48.486  0.00  0.00    +0.000 HD
ATOM     34  H   UNL     1      32.492  24.776  47.206  0.00  0.00    +0.000 HD
BRANCH  32  35
ATOM     35  C   UNL     1      34.420  25.302  46.500  0.00  0.00    +0.000 A 
ATOM     36  C   UNL     1      34.777  26.438  45.760  0.00  0.00    +0.000 A 
ATOM     37  H   UNL     1      34.309  27.419  45.840  0.00  0.00    +0.000 HD
ATOM     38  C   UNL     1      35.790  26.414  44.831  0.00  0.00    +0.000 A 
ATOM     39  C   UNL     1      36.480  25.243  44.613  0.00  0.00    +0.000 A 
ATOM     40  H   UNL     1      37.285  25.173  43.894  0.00  0.00    +0.000 HD
ATOM     41  C   UNL     1      36.161  24.117  45.315  0.00  0.00    +0.000 A 
ATOM     42  H   UNL     1      36.705  23.181  45.148  0.00  0.00    +0.000 HD
ATOM     43  C   UNL     1      35.150  24.158  46.236  0.00  0.00    +0.000 A 
ENDBRANCH  32  35
ENDBRANCH  23  32
ENDBRANCH   5  23
TORSDOF 7
