
 OpenBabel03252513343D

 18 19  0  0  0  0  0  0  0  0999 V2000
   36.7500   29.9010   49.6080 C   0  0  0  0  0  0  0  0  0  0  0  0
   37.8070   30.5390   48.9570 C   0  0  0  0  0  0  0  0  0  0  0  0
   37.6380   30.9340   47.6290 C   0  0  0  0  0  0  0  0  0  0  0  0
   36.4510   30.6720   47.0420 N   0  0  0  0  0  0  0  0  0  0  0  0
   35.4400   30.0490   47.7020 C   0  0  0  0  0  0  0  0  0  0  0  0
   35.5940   29.6670   48.9770 N   0  0  0  0  0  0  0  0  0  0  0  0
   38.7440   30.7440   49.4240 H   0  0  0  0  0  0  0  0  0  0  0  0
   34.5460   29.8900   47.1490 H   0  0  0  0  0  0  0  0  0  0  0  0
   38.7110   31.6040   46.9040 C   0  0  0  0  0  0  0  0  0  0  0  0
   39.5820   30.9780   46.0420 C   0  0  0  0  0  0  0  0  0  0  0  0
   40.4010   31.9450   45.5940 N   0  0  0  0  0  0  0  0  0  0  0  0
   40.0220   33.1090   46.1770 C   0  0  0  0  0  0  0  0  0  0  0  0
   38.9640   32.9190   47.0040 N   0  0  0  0  0  0  0  0  0  0  0  0
   38.5070   33.6790   47.5560 H   0  0  0  0  0  0  0  0  0  0  0  0
   36.9300   29.4780   51.0340 C   0  0  0  0  0  0  0  0  0  0  0  0
   35.6870   29.1820   51.5850 F   0  0  0  0  0  0  0  0  0  0  0  0
   37.8340   28.4730   51.0920 F   0  0  0  0  0  0  0  0  0  0  0  0
   37.4080   30.5860   51.7360 F   0  0  0  0  0  0  0  0  0  0  0  0
  1 15  1  0  0  0  0
  2  7  1  0  0  0  0
  2  1  2  0  0  0  0
  3  2  1  0  0  0  0
  4  3  2  0  0  0  0
  4  5  1  0  0  0  0
  5  6  2  0  0  0  0
  6  1  1  0  0  0  0
  8  5  1  0  0  0  0
  9 13  1  0  0  0  0
  9  3  1  0  0  0  0
 10  9  2  0  0  0  0
 11 10  1  0  0  0  0
 11 12  2  0  0  0  0
 12 13  1  0  0  0  0
 13 14  1  0  0  0  0
 15 17  1  0  0  0  0
 15 16  1  0  0  0  0
 15 18  1  0  0  0  0
M  END
>  <minimizedAffinity>
-5.59313536

>  <minimizedRMSD>
2.15676665

$$$$
