
 OpenBabel03252511013D

 29 31  0  0  0  0  0  0  0  0999 V2000
   37.2620   31.4350   48.5220 C   0  0  0  0  0  0  0  0  0  0  0  0
   37.7680   32.3580   49.4520 C   0  0  0  0  0  0  0  0  0  0  0  0
   38.7380   33.2530   49.0260 C   0  0  0  0  0  0  0  0  0  0  0  0
   39.1390   33.1690   47.7060 N   0  0  0  0  0  0  0  0  0  0  0  0
   38.6310   32.2750   46.8560 C   0  0  0  0  0  0  0  0  0  0  0  0
   37.6810   31.3910   47.2540 N   0  0  0  0  0  0  0  0  0  0  0  0
   37.4310   32.3950   50.4760 H   0  0  0  0  0  0  0  0  0  0  0  0
   39.1890   34.0000   49.6650 H   0  0  0  0  0  0  0  0  0  0  0  0
   39.0890   32.2300   45.4740 C   0  0  0  0  0  0  0  0  0  0  0  0
   40.2710   31.5920   45.0930 C   0  0  0  0  0  0  0  0  0  0  0  0
   40.3790   31.7580   43.7000 C   0  0  0  0  0  0  0  0  0  0  0  0
   39.2610   32.4800   43.3430 C   0  0  0  0  0  0  0  0  0  0  0  0
   38.5230   32.7420   44.4070 O   0  0  0  0  0  0  0  0  0  0  0  0
   40.9510   31.0780   45.7580 H   0  0  0  0  0  0  0  0  0  0  0  0
   41.2080   31.3530   43.1720 H   0  0  0  0  0  0  0  0  0  0  0  0
   39.0710   32.8250   41.9390 C   0  0  0  0  0  0  0  0  0  0  0  0
   38.7540   34.0260   41.3820 N   0  0  0  0  0  0  0  0  0  0  0  0
   38.6830   33.8800   40.0820 O   0  0  0  0  0  0  0  0  0  0  0  0
   38.9360   32.6390   39.7370 C   0  0  0  0  0  0  0  0  0  0  0  0
   38.9430   32.2460   38.7140 H   0  0  0  0  0  0  0  0  0  0  0  0
   39.1810   31.9660   40.8890 N   0  0  0  0  0  0  0  0  0  0  0  0
   36.2410   30.5040   48.9970 C   0  0  0  0  0  0  0  0  0  0  0  0
   35.0300   30.6850   48.6890 O   0  0  0  0  0  0  0  0  0  0  0  0
   36.6180   29.4240   49.7900 O   0  0  0  0  0  0  0  0  0  0  0  0
   36.5730   29.4640   51.1840 C   0  0  0  0  0  0  0  0  0  0  0  0
   37.6920   29.7610   51.9870 N   0  0  0  0  0  0  0  0  0  0  0  0
   35.4420   29.2140   51.6550 O   0  0  0  0  0  0  0  0  0  0  0  0
   37.7070   30.5140   52.7080 H   0  0  0  0  0  0  0  0  0  0  0  0
   38.6680   29.3560   52.0600 H   0  0  0  0  0  0  0  0  0  0  0  0
  1 22  1  0  0  0  0
  1  2  1  0  0  0  0
  2  7  1  0  0  0  0
  3  2  2  0  0  0  0
  3  8  1  0  0  0  0
  4  3  1  0  0  0  0
  5  6  1  0  0  0  0
  5  4  2  0  0  0  0
  6  1  2  0  0  0  0
  9  5  1  0  0  0  0
 10  9  2  0  0  0  0
 10 14  1  0  0  0  0
 11 10  1  0  0  0  0
 12 11  2  0  0  0  0
 12 13  1  0  0  0  0
 13  9  1  0  0  0  0
 15 11  1  0  0  0  0
 16 12  1  0  0  0  0
 17 16  2  0  0  0  0
 18 17  1  0  0  0  0
 19 18  1  0  0  0  0
 19 21  2  0  0  0  0
 20 19  1  0  0  0  0
 21 16  1  0  0  0  0
 22 24  1  0  0  0  0
 23 22  2  0  0  0  0
 24 25  1  0  0  0  0
 25 27  2  0  0  0  0
 25 26  1  0  0  0  0
 26 29  1  0  0  0  0
 26 28  1  0  0  0  0
M  END
>  <minimizedAffinity>
-5.81599522

>  <minimizedRMSD>
0.88858819

$$$$
