
 OpenBabel03252514043D

 35 38  0  0  1  0  0  0  0  0999 V2000
   35.2540   29.1930   48.6050 C   0  0  2  0  0  0  0  0  0  0  0  0
   34.0360   29.3280   49.3990 C   0  0  0  0  0  0  0  0  0  0  0  0
   34.3920   27.9760   49.0780 C   0  0  1  0  0  0  0  0  0  0  0  0
   35.3050   29.3360   47.5210 H   0  0  0  0  0  0  0  0  0  0  0  0
   33.1760   29.8640   48.9190 H   0  0  0  0  0  0  0  0  0  0  0  0
   34.1450   29.6860   50.4650 H   0  0  0  0  0  0  0  0  0  0  0  0
   34.9630   27.2670   49.6860 H   0  0  0  0  0  0  0  0  0  0  0  0
   36.5770   29.2370   49.3900 C   0  0  0  0  0  0  0  0  0  0  0  0
   36.3720   29.1370   50.4750 H   0  0  0  0  0  0  0  0  0  0  0  0
   37.2420   28.4060   49.1020 H   0  0  0  0  0  0  0  0  0  0  0  0
   37.6290   32.7290   49.5660 C   0  0  0  0  0  0  0  0  0  0  0  0
   38.4990   32.8450   48.4590 C   0  0  0  0  0  0  0  0  0  0  0  0
   38.7080   31.6960   47.6620 C   0  0  0  0  0  0  0  0  0  0  0  0
   38.0530   30.5420   48.0160 N   0  0  0  0  0  0  0  0  0  0  0  0
   37.2420   30.4900   49.0740 C   0  0  0  0  0  0  0  0  0  0  0  0
   37.0370   31.5950   49.8440 N   0  0  0  0  0  0  0  0  0  0  0  0
   37.5030   33.6360   50.1410 H   0  0  0  0  0  0  0  0  0  0  0  0
   38.9750   33.7910   48.2510 H   0  0  0  0  0  0  0  0  0  0  0  0
   39.3680   31.7660   46.8140 H   0  0  0  0  0  0  0  0  0  0  0  0
   33.5450   27.3180   48.0140 C   0  0  0  0  0  0  0  0  0  0  0  0
   33.8660   26.0940   47.7670 O   0  0  0  0  0  0  0  0  0  0  0  0
   32.5030   27.8730   47.3170 O   0  0  0  0  0  0  0  0  0  0  0  0
   31.2430   28.0630   47.7970 C   0  0  0  0  0  0  0  0  0  0  0  0
   30.7820   27.6280   49.1220 C   0  0  0  0  0  0  0  0  0  0  0  0
   29.5160   27.8570   49.5300 C   0  0  0  0  0  0  0  0  0  0  0  0
   28.6230   28.5280   48.6600 C   0  0  0  0  0  0  0  0  0  0  0  0
   29.6730   28.8620   47.1290 S   0  0  0  0  0  0  0  0  0  0  0  0
   31.4990   27.1180   49.7500 H   0  0  0  0  0  0  0  0  0  0  0  0
   29.1180   27.5660   50.4830 H   0  0  0  0  0  0  0  0  0  0  0  0
   27.2570   28.8890   48.8460 C   0  0  0  0  0  0  0  0  0  0  0  0
   26.7290   30.1210   48.9860 N   0  0  0  0  0  0  0  0  0  0  0  0
   25.4330   30.0040   49.1340 O   0  0  0  0  0  0  0  0  0  0  0  0
   25.0820   28.7400   49.0980 C   0  0  0  0  0  0  0  0  0  0  0  0
   24.0070   28.6360   49.2200 H   0  0  0  0  0  0  0  0  0  0  0  0
   26.2160   28.0370   48.9180 N   0  0  0  0  0  0  0  0  0  0  0  0
  1  4  1  6  0  0  0
  1  3  1  0  0  0  0
  1  8  1  0  0  0  0
  1  2  1  0  0  0  0
  2  6  1  0  0  0  0
  3  2  1  0  0  0  0
  3  7  1  1  0  0  0
  5  2  1  0  0  0  0
  8  9  1  0  0  0  0
 10  8  1  0  0  0  0
 11 16  1  0  0  0  0
 11 17  1  0  0  0  0
 12 11  2  0  0  0  0
 13 14  2  0  0  0  0
 13 12  1  0  0  0  0
 14 15  1  0  0  0  0
 15  8  1  0  0  0  0
 15 16  2  0  0  0  0
 18 12  1  0  0  0  0
 19 13  1  0  0  0  0
 20  3  1  0  0  0  0
 21 20  2  0  0  0  0
 22 23  1  0  0  0  0
 22 20  1  0  0  0  0
 23 24  2  0  0  0  0
 24 25  1  0  0  0  0
 24 28  1  0  0  0  0
 25 29  1  0  0  0  0
 26 30  1  0  0  0  0
 26 25  2  0  0  0  0
 27 23  1  0  0  0  0
 27 26  1  0  0  0  0
 30 35  1  0  0  0  0
 30 31  2  0  0  0  0
 31 32  1  0  0  0  0
 33 32  1  0  0  0  0
 33 34  1  0  0  0  0
 35 33  2  0  0  0  0
M  END
>  <minimizedAffinity>
-6.189044

>  <minimizedRMSD>
1.5369947

$$$$
