
 OpenBabel03252514043D

 35 38  0  0  1  0  0  0  0  0999 V2000
   35.2680   29.2510   48.6980 C   0  0  2  0  0  0  0  0  0  0  0  0
   34.0890   29.2980   49.5580 C   0  0  0  0  0  0  0  0  0  0  0  0
   34.4570   27.9820   49.1240 C   0  0  1  0  0  0  0  0  0  0  0  0
   35.2600   29.4720   47.6270 H   0  0  0  0  0  0  0  0  0  0  0  0
   33.1950   29.8450   49.1610 H   0  0  0  0  0  0  0  0  0  0  0  0
   34.2440   29.5830   50.6410 H   0  0  0  0  0  0  0  0  0  0  0  0
   35.0740   27.2460   49.6500 H   0  0  0  0  0  0  0  0  0  0  0  0
   36.6280   29.2720   49.4190 C   0  0  0  0  0  0  0  0  0  0  0  0
   36.4740   29.1670   50.5120 H   0  0  0  0  0  0  0  0  0  0  0  0
   37.2670   28.4350   49.0940 H   0  0  0  0  0  0  0  0  0  0  0  0
   37.7080   32.7580   49.5490 C   0  0  0  0  0  0  0  0  0  0  0  0
   38.5500   32.8620   48.4200 C   0  0  0  0  0  0  0  0  0  0  0  0
   38.7310   31.7070   47.6240 C   0  0  0  0  0  0  0  0  0  0  0  0
   38.0770   30.5600   48.0010 N   0  0  0  0  0  0  0  0  0  0  0  0
   37.2930   30.5190   49.0790 C   0  0  0  0  0  0  0  0  0  0  0  0
   37.1150   31.6290   49.8480 N   0  0  0  0  0  0  0  0  0  0  0  0
   37.6020   33.6690   50.1220 H   0  0  0  0  0  0  0  0  0  0  0  0
   39.0270   33.8030   48.1950 H   0  0  0  0  0  0  0  0  0  0  0  0
   39.3700   31.7680   46.7590 H   0  0  0  0  0  0  0  0  0  0  0  0
   33.5720   27.3800   48.0580 C   0  0  0  0  0  0  0  0  0  0  0  0
   33.8340   26.1470   47.7890 O   0  0  0  0  0  0  0  0  0  0  0  0
   32.5500   27.9930   47.3800 O   0  0  0  0  0  0  0  0  0  0  0  0
   31.2700   28.1230   47.8260 C   0  0  0  0  0  0  0  0  0  0  0  0
   30.7960   27.6670   49.1390 C   0  0  0  0  0  0  0  0  0  0  0  0
   29.5100   27.8350   49.5140 C   0  0  0  0  0  0  0  0  0  0  0  0
   28.6100   28.4620   48.6190 C   0  0  0  0  0  0  0  0  0  0  0  0
   29.6820   28.8440   47.1150 S   0  0  0  0  0  0  0  0  0  0  0  0
   31.5200   27.1930   49.7870 H   0  0  0  0  0  0  0  0  0  0  0  0
   29.1020   27.5260   50.4560 H   0  0  0  0  0  0  0  0  0  0  0  0
   27.2230   28.7570   48.7680 C   0  0  0  0  0  0  0  0  0  0  0  0
   26.1830   27.9000   48.7930 N   0  0  0  0  0  0  0  0  0  0  0  0
   25.0800   28.5880   48.9470 O   0  0  0  0  0  0  0  0  0  0  0  0
   25.3490   29.8710   49.0280 C   0  0  0  0  0  0  0  0  0  0  0  0
   24.4370   30.4480   49.1570 H   0  0  0  0  0  0  0  0  0  0  0  0
   26.6860   29.9840   48.9160 N   0  0  0  0  0  0  0  0  0  0  0  0
  1  4  1  6  0  0  0
  1  3  1  0  0  0  0
  1  8  1  0  0  0  0
  1  2  1  0  0  0  0
  2  6  1  0  0  0  0
  3  2  1  0  0  0  0
  3  7  1  1  0  0  0
  5  2  1  0  0  0  0
  8  9  1  0  0  0  0
 10  8  1  0  0  0  0
 11 16  1  0  0  0  0
 11 17  1  0  0  0  0
 12 11  2  0  0  0  0
 13 14  2  0  0  0  0
 13 12  1  0  0  0  0
 14 15  1  0  0  0  0
 15  8  1  0  0  0  0
 15 16  2  0  0  0  0
 18 12  1  0  0  0  0
 19 13  1  0  0  0  0
 20  3  1  0  0  0  0
 21 20  2  0  0  0  0
 22 23  1  0  0  0  0
 22 20  1  0  0  0  0
 23 24  2  0  0  0  0
 24 25  1  0  0  0  0
 24 28  1  0  0  0  0
 25 29  1  0  0  0  0
 26 30  1  0  0  0  0
 26 25  2  0  0  0  0
 27 23  1  0  0  0  0
 27 26  1  0  0  0  0
 30 31  2  0  0  0  0
 30 35  1  0  0  0  0
 31 32  1  0  0  0  0
 32 33  1  0  0  0  0
 33 34  1  0  0  0  0
 35 33  2  0  0  0  0
M  END
>  <minimizedAffinity>
-6.17466307

>  <minimizedRMSD>
1.45482516

$$$$
