
 OpenBabel03252510583D

 22 23  0  0  0  0  0  0  0  0999 V2000
   37.2290   31.4470   48.6330 C   0  0  0  0  0  0  0  0  0  0  0  0
   37.5360   32.4390   49.5700 C   0  0  0  0  0  0  0  0  0  0  0  0
   38.5140   33.3690   49.2250 C   0  0  0  0  0  0  0  0  0  0  0  0
   39.1150   33.2630   47.9990 N   0  0  0  0  0  0  0  0  0  0  0  0
   38.7870   32.2950   47.1370 C   0  0  0  0  0  0  0  0  0  0  0  0
   37.8430   31.3890   47.4580 N   0  0  0  0  0  0  0  0  0  0  0  0
   37.0690   32.5190   50.5180 H   0  0  0  0  0  0  0  0  0  0  0  0
   38.7990   34.1610   49.9030 H   0  0  0  0  0  0  0  0  0  0  0  0
   39.4540   32.2240   45.8490 C   0  0  0  0  0  0  0  0  0  0  0  0
   40.4690   31.3970   45.5190 N   0  0  0  0  0  0  0  0  0  0  0  0
   40.8010   31.6280   44.2720 O   0  0  0  0  0  0  0  0  0  0  0  0
   40.0460   32.5720   43.7670 C   0  0  0  0  0  0  0  0  0  0  0  0
   40.0100   33.0360   42.7900 H   0  0  0  0  0  0  0  0  0  0  0  0
   39.1940   32.9570   44.7460 N   0  0  0  0  0  0  0  0  0  0  0  0
   36.2000   30.4630   48.9880 C   0  0  0  0  0  0  0  0  0  0  0  0
   35.0090   30.6140   48.5640 O   0  0  0  0  0  0  0  0  0  0  0  0
   36.5290   29.3900   49.7740 O   0  0  0  0  0  0  0  0  0  0  0  0
   36.5380   29.4410   51.1760 C   0  0  0  0  0  0  0  0  0  0  0  0
   37.6880   29.7110   51.9450 N   0  0  0  0  0  0  0  0  0  0  0  0
   35.4080   29.2180   51.6630 O   0  0  0  0  0  0  0  0  0  0  0  0
   37.6900   30.4970   52.6510 H   0  0  0  0  0  0  0  0  0  0  0  0
   38.6070   29.1930   51.9020 H   0  0  0  0  0  0  0  0  0  0  0  0
  1 15  1  0  0  0  0
  1  2  1  0  0  0  0
  2  7  1  0  0  0  0
  3  2  2  0  0  0  0
  3  8  1  0  0  0  0
  4  3  1  0  0  0  0
  5  6  1  0  0  0  0
  5  4  2  0  0  0  0
  6  1  2  0  0  0  0
  9  5  1  0  0  0  0
 10  9  2  0  0  0  0
 11 10  1  0  0  0  0
 12 11  1  0  0  0  0
 12 14  2  0  0  0  0
 13 12  1  0  0  0  0
 14  9  1  0  0  0  0
 15 17  1  0  0  0  0
 16 15  2  0  0  0  0
 17 18  1  0  0  0  0
 18 20  2  0  0  0  0
 18 19  1  0  0  0  0
 19 21  1  0  0  0  0
 22 19  1  0  0  0  0
M  END
>  <minimizedAffinity>
-5.36815119

>  <minimizedRMSD>
1.52021909

$$$$
