
 OpenBabel03252513483D

 22 23  0  0  0  0  0  0  0  0999 V2000
   36.2040   29.9030   48.2980 C   0  0  0  0  0  0  0  0  0  0  0  0
   37.0500   30.9120   48.8590 C   0  0  0  0  0  0  0  0  0  0  0  0
   37.7040   31.7500   47.9750 C   0  0  0  0  0  0  0  0  0  0  0  0
   37.5150   31.5770   46.6480 N   0  0  0  0  0  0  0  0  0  0  0  0
   36.7100   30.6140   46.1530 C   0  0  0  0  0  0  0  0  0  0  0  0
   36.0660   29.7910   46.9730 N   0  0  0  0  0  0  0  0  0  0  0  0
   37.1880   31.0340   49.9280 H   0  0  0  0  0  0  0  0  0  0  0  0
   38.5830   32.8060   48.4370 C   0  0  0  0  0  0  0  0  0  0  0  0
   39.4750   33.4410   47.6860 N   0  0  0  0  0  0  0  0  0  0  0  0
   40.0920   34.3230   48.4050 O   0  0  0  0  0  0  0  0  0  0  0  0
   39.6210   34.2760   49.6130 C   0  0  0  0  0  0  0  0  0  0  0  0
   39.9290   34.8910   50.4550 H   0  0  0  0  0  0  0  0  0  0  0  0
   38.6580   33.3180   49.6580 N   0  0  0  0  0  0  0  0  0  0  0  0
   36.6070   30.5520   44.6680 C   0  0  0  0  0  0  0  0  0  0  0  0
   36.7100   31.8380   44.1350 F   0  0  0  0  0  0  0  0  0  0  0  0
   37.6680   29.8450   44.1640 F   0  0  0  0  0  0  0  0  0  0  0  0
   35.4440   29.9300   44.2460 F   0  0  0  0  0  0  0  0  0  0  0  0
   35.5440   29.0570   49.1800 O   0  0  0  0  0  0  0  0  0  0  0  0
   34.5810   29.4760   50.1050 C   0  0  0  0  0  0  0  0  0  0  0  0
   34.9510   29.2390   51.4100 F   0  0  0  0  0  0  0  0  0  0  0  0
   34.1590   30.7710   49.9490 F   0  0  0  0  0  0  0  0  0  0  0  0
   33.4620   28.6740   49.8690 F   0  0  0  0  0  0  0  0  0  0  0  0
  1  2  1  0  0  0  0
  1 18  1  0  0  0  0
  2  7  1  0  0  0  0
  3  8  1  0  0  0  0
  3  2  2  0  0  0  0
  4  3  1  0  0  0  0
  5  4  2  0  0  0  0
  5  6  1  0  0  0  0
  6  1  2  0  0  0  0
  8 13  1  0  0  0  0
  9 10  1  0  0  0  0
  9  8  2  0  0  0  0
 10 11  1  0  0  0  0
 11 13  2  0  0  0  0
 11 12  1  0  0  0  0
 14  5  1  0  0  0  0
 15 14  1  0  0  0  0
 16 14  1  0  0  0  0
 17 14  1  0  0  0  0
 18 19  1  0  0  0  0
 19 20  1  0  0  0  0
 21 19  1  0  0  0  0
 22 19  1  0  0  0  0
M  END
>  <minimizedAffinity>
-4.89903355

>  <minimizedRMSD>
2.30019498

$$$$
