
 OpenBabel03252510283D

 43 45  0  0  1  0  0  0  0  0999 V2000
   35.7220   29.8950   48.3050 C   0  0  0  0  0  0  0  0  0  0  0  0
   36.9390   30.1540   47.7190 C   0  0  0  0  0  0  0  0  0  0  0  0
   36.9500   30.6110   46.3770 C   0  0  0  0  0  0  0  0  0  0  0  0
   35.7380   30.7590   45.7640 N   0  0  0  0  0  0  0  0  0  0  0  0
   34.5760   30.4970   46.3610 C   0  0  0  0  0  0  0  0  0  0  0  0
   34.5830   30.0640   47.6370 N   0  0  0  0  0  0  0  0  0  0  0  0
   33.3550   30.6720   45.6680 N   0  0  0  0  0  0  0  0  0  0  0  0
   33.2280   30.2140   44.3370 C   0  0  0  0  0  0  0  0  0  0  0  0
   34.0060   29.2550   43.8990 N   0  0  0  0  0  0  0  0  0  0  0  0
   32.2390   30.8250   43.5030 N   0  0  0  0  0  0  0  0  0  0  0  0
   33.9070   28.9160   42.9190 H   0  0  0  0  0  0  0  0  0  0  0  0
   38.1730   30.8940   45.7310 N   0  0  0  0  0  0  0  0  0  0  0  0
   38.1600   31.0340   44.3000 C   0  0  0  0  0  0  0  0  0  0  0  0
   39.5250   31.1110   43.6910 C   0  0  0  0  0  0  0  0  0  0  0  0
   40.3570   32.0290   44.6010 C   0  0  0  0  0  0  0  0  0  0  0  0
   40.6110   31.2270   45.8410 C   0  0  0  0  0  0  0  0  0  0  0  0
   39.3350   31.0220   46.5610 C   0  0  1  0  0  0  0  0  0  0  0  0
   37.8360   30.0090   48.2910 H   0  0  0  0  0  0  0  0  0  0  0  0
   32.5080   31.1380   46.0980 H   0  0  0  0  0  0  0  0  0  0  0  0
   32.3340   30.9400   42.4720 H   0  0  0  0  0  0  0  0  0  0  0  0
   31.3730   31.1780   43.9360 H   0  0  0  0  0  0  0  0  0  0  0  0
   37.6030   31.9410   43.9730 H   0  0  0  0  0  0  0  0  0  0  0  0
   37.6400   30.1550   43.8840 H   0  0  0  0  0  0  0  0  0  0  0  0
   40.0110   30.1190   43.5970 H   0  0  0  0  0  0  0  0  0  0  0  0
   39.4450   31.6350   42.7020 H   0  0  0  0  0  0  0  0  0  0  0  0
   39.7420   32.9290   44.7610 H   0  0  0  0  0  0  0  0  0  0  0  0
   41.2980   32.3340   44.1030 H   0  0  0  0  0  0  0  0  0  0  0  0
   40.9460   30.2110   45.4800 H   0  0  0  0  0  0  0  0  0  0  0  0
   41.3620   31.6640   46.5230 H   0  0  0  0  0  0  0  0  0  0  0  0
   39.4900   30.1320   47.2200 H   0  0  0  0  0  0  0  0  0  0  0  0
   39.1250   32.2110   47.4340 C   0  0  0  0  0  0  0  0  0  0  0  0
   39.9420   33.2790   47.2990 N   0  0  0  0  0  0  0  0  0  0  0  0
   39.6310   34.2270   48.1240 O   0  0  0  0  0  0  0  0  0  0  0  0
   38.5970   33.7780   48.8130 C   0  0  0  0  0  0  0  0  0  0  0  0
   38.1750   34.4360   49.5750 H   0  0  0  0  0  0  0  0  0  0  0  0
   38.2640   32.5440   48.4090 N   0  0  0  0  0  0  0  0  0  0  0  0
   35.7120   29.4230   49.6850 C   0  0  0  0  0  0  0  0  0  0  0  0
   35.2930   28.2800   49.9580 O   0  0  0  0  0  0  0  0  0  0  0  0
   36.1730   30.2520   50.7070 O   0  0  0  0  0  0  0  0  0  0  0  0
   37.4330   29.9120   51.2770 C   0  0  0  0  0  0  0  0  0  0  0  0
   37.3800   29.8630   52.6510 F   0  0  0  0  0  0  0  0  0  0  0  0
   38.3700   30.8490   50.8370 F   0  0  0  0  0  0  0  0  0  0  0  0
   37.8610   28.6930   50.8260 F   0  0  0  0  0  0  0  0  0  0  0  0
  1 37  1  0  0  0  0
  2 18  1  0  0  0  0
  2  1  1  0  0  0  0
  3  2  2  0  0  0  0
  4  5  2  0  0  0  0
  4  3  1  0  0  0  0
  5  6  1  0  0  0  0
  6  1  2  0  0  0  0
  7 19  1  0  0  0  0
  7  5  1  0  0  0  0
  8  7  1  0  0  0  0
  9  8  2  0  0  0  0
 10 21  1  0  0  0  0
 10  8  1  0  0  0  0
 11  9  1  0  0  0  0
 12  3  1  0  0  0  0
 12 17  1  0  0  0  0
 13 12  1  0  0  0  0
 14 13  1  0  0  0  0
 14 15  1  0  0  0  0
 15 26  1  0  0  0  0
 15 16  1  0  0  0  0
 16 29  1  0  0  0  0
 16 17  1  0  0  0  0
 17 30  1  1  0  0  0
 17 31  1  0  0  0  0
 20 10  1  0  0  0  0
 22 13  1  0  0  0  0
 23 13  1  0  0  0  0
 24 14  1  0  0  0  0
 25 14  1  0  0  0  0
 27 15  1  0  0  0  0
 28 16  1  0  0  0  0
 31 36  1  0  0  0  0
 32 31  2  0  0  0  0
 32 33  1  0  0  0  0
 33 34  1  0  0  0  0
 34 35  1  0  0  0  0
 36 34  2  0  0  0  0
 37 38  2  0  0  0  0
 37 39  1  0  0  0  0
 39 40  1  0  0  0  0
 40 41  1  0  0  0  0
 42 40  1  0  0  0  0
 43 40  1  0  0  0  0
M  END
>  <minimizedAffinity>
-6.40952063

>  <minimizedRMSD>
1.39854324

$$$$
