
 OpenBabel03252513383D

 25 26  0  0  0  0  0  0  0  0999 V2000
   36.8860   29.9560   49.8300 C   0  0  0  0  0  0  0  0  0  0  0  0
   38.0130   30.6520   49.3900 C   0  0  0  0  0  0  0  0  0  0  0  0
   37.9900   31.1240   48.0660 C   0  0  0  0  0  0  0  0  0  0  0  0
   36.9040   30.8820   47.3150 N   0  0  0  0  0  0  0  0  0  0  0  0
   35.8320   30.1990   47.7900 C   0  0  0  0  0  0  0  0  0  0  0  0
   35.8390   29.7450   49.0440 N   0  0  0  0  0  0  0  0  0  0  0  0
   39.0990   31.8400   47.5500 N   0  0  0  0  0  0  0  0  0  0  0  0
   38.9870   32.6010   46.3560 C   0  0  0  0  0  0  0  0  0  0  0  0
   37.9350   32.4200   45.6230 N   0  0  0  0  0  0  0  0  0  0  0  0
   39.9960   33.5230   45.9910 N   0  0  0  0  0  0  0  0  0  0  0  0
   37.8530   32.9820   44.7380 H   0  0  0  0  0  0  0  0  0  0  0  0
   38.8580   30.8190   50.0330 H   0  0  0  0  0  0  0  0  0  0  0  0
   40.0120   31.7930   48.0730 H   0  0  0  0  0  0  0  0  0  0  0  0
   40.4500   34.1240   46.7100 H   0  0  0  0  0  0  0  0  0  0  0  0
   40.2250   33.5340   44.9710 H   0  0  0  0  0  0  0  0  0  0  0  0
   34.7200   30.0110   46.8580 C   0  0  0  0  0  0  0  0  0  0  0  0
   34.7040   29.3580   45.6850 N   0  0  0  0  0  0  0  0  0  0  0  0
   33.5300   29.4150   45.1580 O   0  0  0  0  0  0  0  0  0  0  0  0
   32.7010   30.1020   45.9380 C   0  0  0  0  0  0  0  0  0  0  0  0
   31.6510   30.3000   45.7290 H   0  0  0  0  0  0  0  0  0  0  0  0
   33.4670   30.4580   46.9850 N   0  0  0  0  0  0  0  0  0  0  0  0
   36.8880   29.4380   51.2470 C   0  0  0  0  0  0  0  0  0  0  0  0
   35.6020   29.1250   51.6330 F   0  0  0  0  0  0  0  0  0  0  0  0
   37.7670   28.4030   51.3340 F   0  0  0  0  0  0  0  0  0  0  0  0
   37.3320   30.4960   52.0630 F   0  0  0  0  0  0  0  0  0  0  0  0
  1 22  1  0  0  0  0
  2  1  1  0  0  0  0
  2 12  1  0  0  0  0
  3  2  2  0  0  0  0
  4  5  2  0  0  0  0
  4  3  1  0  0  0  0
  5  6  1  0  0  0  0
  6  1  2  0  0  0  0
  7  3  1  0  0  0  0
  7 13  1  0  0  0  0
  8  7  1  0  0  0  0
  9  8  2  0  0  0  0
 10  8  1  0  0  0  0
 10 14  1  0  0  0  0
 11  9  1  0  0  0  0
 15 10  1  0  0  0  0
 16 21  1  0  0  0  0
 16  5  1  0  0  0  0
 17 16  2  0  0  0  0
 18 17  1  0  0  0  0
 18 19  1  0  0  0  0
 19 21  2  0  0  0  0
 20 19  1  0  0  0  0
 22 24  1  0  0  0  0
 22 23  1  0  0  0  0
 22 25  1  0  0  0  0
M  END
>  <minimizedAffinity>
-6.49197865

>  <minimizedRMSD>
0.0673498362

$$$$
