
 OpenBabel03252513483D

 22 23  0  0  0  0  0  0  0  0999 V2000
   36.4410   30.0610   47.9010 C   0  0  0  0  0  0  0  0  0  0  0  0
   37.2220   31.0560   48.5710 C   0  0  0  0  0  0  0  0  0  0  0  0
   37.9420   31.9320   47.7780 C   0  0  0  0  0  0  0  0  0  0  0  0
   37.8740   31.8050   46.4340 N   0  0  0  0  0  0  0  0  0  0  0  0
   37.1270   30.8540   45.8370 C   0  0  0  0  0  0  0  0  0  0  0  0
   36.4220   29.9960   46.5660 N   0  0  0  0  0  0  0  0  0  0  0  0
   37.2630   31.1410   49.6510 H   0  0  0  0  0  0  0  0  0  0  0  0
   38.7640   32.9770   48.3540 C   0  0  0  0  0  0  0  0  0  0  0  0
   39.6490   33.7080   47.6860 N   0  0  0  0  0  0  0  0  0  0  0  0
   40.2100   34.5480   48.4950 O   0  0  0  0  0  0  0  0  0  0  0  0
   39.7080   34.3820   49.6800 C   0  0  0  0  0  0  0  0  0  0  0  0
   39.9680   34.9330   50.5790 H   0  0  0  0  0  0  0  0  0  0  0  0
   38.7850   33.3870   49.6150 N   0  0  0  0  0  0  0  0  0  0  0  0
   37.1560   30.8450   44.3460 C   0  0  0  0  0  0  0  0  0  0  0  0
   36.3240   31.8510   43.8530 F   0  0  0  0  0  0  0  0  0  0  0  0
   38.4210   31.1490   43.9110 F   0  0  0  0  0  0  0  0  0  0  0  0
   36.8120   29.6110   43.8200 F   0  0  0  0  0  0  0  0  0  0  0  0
   35.7160   29.1780   48.6910 O   0  0  0  0  0  0  0  0  0  0  0  0
   34.3760   29.3590   49.0510 C   0  0  0  0  0  0  0  0  0  0  0  0
   34.1900   30.4140   49.9160 F   0  0  0  0  0  0  0  0  0  0  0  0
   33.5020   29.4390   47.9970 F   0  0  0  0  0  0  0  0  0  0  0  0
   34.0210   28.2100   49.7610 F   0  0  0  0  0  0  0  0  0  0  0  0
  1  2  1  0  0  0  0
  1 18  1  0  0  0  0
  2  7  1  0  0  0  0
  3  8  1  0  0  0  0
  3  2  2  0  0  0  0
  4  3  1  0  0  0  0
  5  4  2  0  0  0  0
  5  6  1  0  0  0  0
  6  1  2  0  0  0  0
  8 13  1  0  0  0  0
  9  8  2  0  0  0  0
  9 10  1  0  0  0  0
 10 11  1  0  0  0  0
 11 12  1  0  0  0  0
 13 11  2  0  0  0  0
 14  5  1  0  0  0  0
 15 14  1  0  0  0  0
 16 14  1  0  0  0  0
 17 14  1  0  0  0  0
 18 19  1  0  0  0  0
 19 22  1  0  0  0  0
 19 20  1  0  0  0  0
 21 19  1  0  0  0  0
M  END
>  <minimizedAffinity>
-4.43292093

>  <minimizedRMSD>
2.23720336

$$$$
