REMARK  Name = 
REMARK  3 active torsions:
REMARK  status: ('A' for Active; 'I' for Inactive)
REMARK    1  A    between atoms: C_5  and  C_7
REMARK    2  A    between atoms: C_7  and  C_8
REMARK    3  A    between atoms: C_10  and  C_20
REMARK                            x       y       z     vdW  Elec       q    Type
REMARK                         _______ _______ _______ _____ _____    ______ ____
ROOT
ATOM      1  C   UNL     1      35.408  29.463  49.163  0.00  0.00    +0.000 C 
ATOM      2  C   UNL     1      34.276  29.433  50.112  0.00  0.00    +0.000 C 
ATOM      3  C   UNL     1      34.607  28.187  49.393  0.00  0.00    +0.000 C 
ATOM      4  H   UNL     1      35.275  29.986  48.187  0.00  0.00    +0.000 HD
ATOM      5  H   UNL     1      34.432  29.513  51.206  0.00  0.00    +0.000 HD
ATOM      6  H   UNL     1      33.364  29.982  49.785  0.00  0.00    +0.000 HD
ATOM      7  H   UNL     1      35.073  27.380  49.994  0.00  0.00    +0.000 HD
ENDROOT
BRANCH   3   8
ATOM      8  C   UNL     1      33.764  27.698  48.261  0.00  0.00    +0.000 A 
ATOM      9  C   UNL     1      33.835  26.390  47.819  0.00  0.00    +0.000 A 
ATOM     10  C   UNL     1      33.026  26.015  46.770  0.00  0.00    +0.000 A 
ATOM     11  H   UNL     1      33.022  25.016  46.367  0.00  0.00    +0.000 HD
ATOM     12  N   UNL     1      32.159  26.851  46.140  0.00  0.00    +0.000 NA
ATOM     13  C   UNL     1      32.116  28.131  46.603  0.00  0.00    +0.000 A 
ATOM     14  N   UNL     1      32.902  28.505  47.626  0.00  0.00    +0.000 NA
ENDBRANCH   3   8
BRANCH   1  15
ATOM     15  C   UNL     1      36.830  29.389  49.671  0.00  0.00    +0.000 C 
ATOM     16  H   UNL     1      36.782  29.476  50.790  0.00  0.00    +0.000 HD
ATOM     17  H   UNL     1      37.315  28.408  49.433  0.00  0.00    +0.000 HD
BRANCH  15  22
ATOM     18  C   UNL     1      38.419  32.693  49.388  0.00  0.00    +0.000 A 
ATOM     19  C   UNL     1      38.911  32.699  48.083  0.00  0.00    +0.000 A 
ATOM     20  C   UNL     1      38.693  31.559  47.298  0.00  0.00    +0.000 A 
ATOM     21  N   UNL     1      38.014  30.512  47.856  0.00  0.00    +0.000 NA
ATOM     22  C   UNL     1      37.555  30.555  49.133  0.00  0.00    +0.000 A 
ATOM     23  N   UNL     1      37.759  31.645  49.896  0.00  0.00    +0.000 NA
ATOM     24  H   UNL     1      38.573  33.566  50.024  0.00  0.00    +0.000 HD
ATOM     25  H   UNL     1      39.445  33.536  47.660  0.00  0.00    +0.000 HD
ATOM     26  H   UNL     1      39.044  31.479  46.267  0.00  0.00    +0.000 HD
ENDBRANCH  15  22
ENDBRANCH   1  15
TORSDOF 3
