REMARK  Name = 
REMARK  6 active torsions:
REMARK  status: ('A' for Active; 'I' for Inactive)
REMARK    1  A    between atoms: C_1  and  C_4
REMARK    2  A    between atoms: C_3  and  C_11
REMARK    3  A    between atoms: C_4  and  C_9
REMARK    4  A    between atoms: C_11  and  O_13
REMARK    5  A    between atoms: O_13  and  C_14
REMARK    6  A    between atoms: C_17  and  C_30
REMARK                            x       y       z     vdW  Elec       q    Type
REMARK                         _______ _______ _______ _____ _____    ______ ____
ROOT
ATOM      1  C   UNL     1      35.292  29.416  48.985  0.00  0.00    +0.000 C 
ATOM      2  C   UNL     1      34.192  29.355  49.943  0.00  0.00    +0.000 C 
ATOM      3  C   UNL     1      34.529  28.097  49.344  0.00  0.00    +0.000 C 
ATOM      4  H   UNL     1      35.236  29.710  47.940  0.00  0.00    +0.000 HD
ATOM      5  H   UNL     1      33.229  29.871  49.719  0.00  0.00    +0.000 HD
ATOM      6  H   UNL     1      34.457  29.517  51.029  0.00  0.00    +0.000 HD
ATOM      7  H   UNL     1      35.187  27.324  49.745  0.00  0.00    +0.000 HD
ENDROOT
BRANCH   1   8
ATOM      8  C   UNL     1      36.710  29.384  49.581  0.00  0.00    +0.000 C 
ATOM      9  H   UNL     1      37.190  28.436  49.227  0.00  0.00    +0.000 HD
ATOM     10  H   UNL     1      36.685  29.394  50.694  0.00  0.00    +0.000 HD
BRANCH   8  15
ATOM     11  C   UNL     1      38.088  32.764  49.453  0.00  0.00    +0.000 A 
ATOM     12  C   UNL     1      38.758  32.777  48.209  0.00  0.00    +0.000 A 
ATOM     13  C   UNL     1      38.718  31.596  47.430  0.00  0.00    +0.000 A 
ATOM     14  N   UNL     1      38.037  30.517  47.923  0.00  0.00    +0.000 NA
ATOM     15  C   UNL     1      37.418  30.566  49.116  0.00  0.00    +0.000 A 
ATOM     16  N   UNL     1      37.451  31.691  49.868  0.00  0.00    +0.000 NA
ATOM     17  H   UNL     1      38.077  33.633  50.101  0.00  0.00    +0.000 HD
ATOM     18  H   UNL     1      39.268  33.656  47.891  0.00  0.00    +0.000 HD
ATOM     19  H   UNL     1      39.222  31.578  46.475  0.00  0.00    +0.000 HD
ENDBRANCH   8  15
ENDBRANCH   1   8
BRANCH   3  20
ATOM     20  C   UNL     1      33.560  27.592  48.295  0.00  0.00    +0.000 C 
ATOM     21  O   UNL     1      33.904  26.445  47.802  0.00  0.00    +0.000 OA
BRANCH  20  22
ATOM     22  O   UNL     1      32.397  28.236  47.864  0.00  0.00    +0.000 OA
BRANCH  22  23
ATOM     23  C   UNL     1      31.142  27.831  48.209  0.00  0.00    +0.000 A 
ATOM     24  C   UNL     1      30.617  27.846  49.589  0.00  0.00    +0.000 A 
ATOM     25  C   UNL     1      29.349  27.421  49.825  0.00  0.00    +0.000 A 
ATOM     26  C   UNL     1      28.542  26.966  48.747  0.00  0.00    +0.000 A 
ATOM     27  S   UNL     1      29.655  27.149  47.267  0.00  0.00    +0.000 S 
ATOM     28  H   UNL     1      31.253  28.194  50.373  0.00  0.00    +0.000 HD
ATOM     29  H   UNL     1      28.869  27.390  50.784  0.00  0.00    +0.000 HD
BRANCH  26  30
ATOM     30  C   UNL     1      27.267  26.483  48.619  0.00  0.00    +0.000 A 
ATOM     31  C   UNL     1      26.790  25.537  49.500  0.00  0.00    +0.000 A 
ATOM     32  C   UNL     1      25.481  25.065  49.339  0.00  0.00    +0.000 A 
ATOM     33  H   UNL     1      25.087  24.322  50.020  0.00  0.00    +0.000 HD
ATOM     34  N   UNL     1      24.745  25.572  48.310  0.00  0.00    +0.000 NA
ATOM     35  C   UNL     1      25.223  26.497  47.455  0.00  0.00    +0.000 A 
ATOM     36  N   UNL     1      26.501  26.950  47.621  0.00  0.00    +0.000 NA
ENDBRANCH  26  30
ENDBRANCH  22  23
ENDBRANCH  20  22
ENDBRANCH   3  20
TORSDOF 6
