
 OpenBabel03252512033D

 30 32  0  0  0  0  0  0  0  0999 V2000
   36.2910   30.6160   46.1430 C   0  0  0  0  0  0  0  0  0  0  0  0
   35.8300   31.6350   45.9120 H   0  0  0  0  0  0  0  0  0  0  0  0
   35.7230   29.9120   45.5780 H   0  0  0  0  0  0  0  0  0  0  0  0
   37.7350   30.7640   45.7410 C   0  0  0  0  0  0  0  0  0  0  0  0
   38.5850   31.6100   46.4120 C   0  0  0  0  0  0  0  0  0  0  0  0
   39.9000   31.7660   46.0340 C   0  0  0  0  0  0  0  0  0  0  0  0
   40.3190   31.0490   44.9730 N   0  0  0  0  0  0  0  0  0  0  0  0
   39.5190   30.2180   44.3000 C   0  0  0  0  0  0  0  0  0  0  0  0
   38.2320   30.0740   44.6800 N   0  0  0  0  0  0  0  0  0  0  0  0
   38.1530   32.1420   47.2520 H   0  0  0  0  0  0  0  0  0  0  0  0
   40.5020   32.4570   46.6220 H   0  0  0  0  0  0  0  0  0  0  0  0
   40.0220   29.4620   43.1570 C   0  0  0  0  0  0  0  0  0  0  0  0
   39.4290   28.2680   42.8020 C   0  0  0  0  0  0  0  0  0  0  0  0
   39.9400   27.5780   41.7040 C   0  0  0  0  0  0  0  0  0  0  0  0
   39.5380   26.6250   41.3480 H   0  0  0  0  0  0  0  0  0  0  0  0
   40.9860   28.1100   41.0430 N   0  0  0  0  0  0  0  0  0  0  0  0
   41.5640   29.2710   41.3860 C   0  0  0  0  0  0  0  0  0  0  0  0
   41.0640   29.9340   42.4510 N   0  0  0  0  0  0  0  0  0  0  0  0
   36.2980   30.5140   47.6410 C   0  0  0  0  0  0  0  0  0  0  0  0
   37.2510   30.0910   48.0540 H   0  0  0  0  0  0  0  0  0  0  0  0
   36.2470   31.5330   48.1380 H   0  0  0  0  0  0  0  0  0  0  0  0
   34.9240   29.6700   49.5020 C   0  0  0  0  0  0  0  0  0  0  0  0
   35.2050   29.7390   48.1330 C   0  0  0  0  0  0  0  0  0  0  0  0
   34.3800   29.0340   47.2870 C   0  0  0  0  0  0  0  0  0  0  0  0
   33.3350   28.3050   47.7800 N   0  0  0  0  0  0  0  0  0  0  0  0
   33.0910   28.2580   49.1030 C   0  0  0  0  0  0  0  0  0  0  0  0
   33.8830   28.9350   49.9260 N   0  0  0  0  0  0  0  0  0  0  0  0
   35.5430   30.2060   50.2070 H   0  0  0  0  0  0  0  0  0  0  0  0
   34.4040   28.9310   46.2160 H   0  0  0  0  0  0  0  0  0  0  0  0
   32.2600   27.6800   49.5140 H   0  0  0  0  0  0  0  0  0  0  0  0
  1 19  1  0  0  0  0
  2  1  1  0  0  0  0
  3  1  1  0  0  0  0
  4  1  1  0  0  0  0
  4  5  1  0  0  0  0
  5 10  1  0  0  0  0
  6  5  2  0  0  0  0
  6 11  1  0  0  0  0
  7  6  1  0  0  0  0
  8  9  1  0  0  0  0
  8  7  2  0  0  0  0
  9  4  2  0  0  0  0
 12  8  1  0  0  0  0
 13 12  1  0  0  0  0
 14 13  2  0  0  0  0
 15 14  1  0  0  0  0
 16 17  2  0  0  0  0
 16 14  1  0  0  0  0
 17 18  1  0  0  0  0
 18 12  2  0  0  0  0
 19 20  1  0  0  0  0
 19 23  1  0  0  0  0
 19 21  1  0  0  0  0
 22 27  1  0  0  0  0
 22 28  1  0  0  0  0
 23 22  2  0  0  0  0
 24 25  2  0  0  0  0
 24 23  1  0  0  0  0
 25 26  1  0  0  0  0
 26 30  1  0  0  0  0
 26 27  2  0  0  0  0
 29 24  1  0  0  0  0
M  END
>  <minimizedAffinity>
-4.53337145

>  <minimizedRMSD>
4.53212738

$$$$
