
 OpenBabel03252513343D

 19 20  0  0  0  0  0  0  0  0999 V2000
   36.7370   29.8890   49.4930 C   0  0  0  0  0  0  0  0  0  0  0  0
   37.8240   30.4490   48.8180 C   0  0  0  0  0  0  0  0  0  0  0  0
   37.6510   30.8010   47.4800 C   0  0  0  0  0  0  0  0  0  0  0  0
   36.4500   30.5850   46.9100 N   0  0  0  0  0  0  0  0  0  0  0  0
   35.4090   30.0390   47.5920 C   0  0  0  0  0  0  0  0  0  0  0  0
   35.5570   29.6970   48.8720 N   0  0  0  0  0  0  0  0  0  0  0  0
   38.7750   30.6100   49.2970 H   0  0  0  0  0  0  0  0  0  0  0  0
   34.4410   29.8570   47.1600 H   0  0  0  0  0  0  0  0  0  0  0  0
   38.7360   31.3790   46.7380 C   0  0  0  0  0  0  0  0  0  0  0  0
   39.4160   30.6130   45.8100 C   0  0  0  0  0  0  0  0  0  0  0  0
   40.4530   31.1790   45.1040 C   0  0  0  0  0  0  0  0  0  0  0  0
   41.0600   30.6830   44.3540 H   0  0  0  0  0  0  0  0  0  0  0  0
   40.7950   32.4610   45.3230 N   0  0  0  0  0  0  0  0  0  0  0  0
   40.1340   33.2210   46.2310 C   0  0  0  0  0  0  0  0  0  0  0  0
   39.1220   32.6410   46.9070 N   0  0  0  0  0  0  0  0  0  0  0  0
   36.9010   29.5030   50.9350 C   0  0  0  0  0  0  0  0  0  0  0  0
   35.6760   29.1550   51.4770 F   0  0  0  0  0  0  0  0  0  0  0  0
   37.8360   28.5130   51.0030 F   0  0  0  0  0  0  0  0  0  0  0  0
   37.3420   30.6230   51.6160 F   0  0  0  0  0  0  0  0  0  0  0  0
  1 16  1  0  0  0  0
  2  7  1  0  0  0  0
  2  1  2  0  0  0  0
  3  2  1  0  0  0  0
  4  3  2  0  0  0  0
  4  5  1  0  0  0  0
  5  6  2  0  0  0  0
  6  1  1  0  0  0  0
  8  5  1  0  0  0  0
  9 15  1  0  0  0  0
  9  3  1  0  0  0  0
 10  9  2  0  0  0  0
 11 13  2  0  0  0  0
 11 10  1  0  0  0  0
 12 11  1  0  0  0  0
 13 14  1  0  0  0  0
 14 15  2  0  0  0  0
 16 18  1  0  0  0  0
 16 17  1  0  0  0  0
 16 19  1  0  0  0  0
M  END
>  <minimizedAffinity>
-5.80584908

>  <minimizedRMSD>
2.53496027

$$$$
