
 OpenBabel03252513583D

 26 28  0  0  1  0  0  0  0  0999 V2000
   35.3300   29.6020   49.2510 C   0  0  2  0  0  0  0  0  0  0  0  0
   34.2880   29.4300   50.2840 C   0  0  0  0  0  0  0  0  0  0  0  0
   34.4980   28.3270   49.3260 C   0  0  1  0  0  0  0  0  0  0  0  0
   35.1330   30.2970   48.4010 H   0  0  0  0  0  0  0  0  0  0  0  0
   34.5450   29.3060   51.3550 H   0  0  0  0  0  0  0  0  0  0  0  0
   33.3750   30.0530   50.1500 H   0  0  0  0  0  0  0  0  0  0  0  0
   34.9810   27.4120   49.7260 H   0  0  0  0  0  0  0  0  0  0  0  0
   33.5370   28.0740   48.2110 C   0  0  0  0  0  0  0  0  0  0  0  0
   33.2890   29.0240   47.2400 C   0  0  0  0  0  3  0  0  0  0  0  0
   32.3880   28.7150   46.2450 C   0  0  0  0  0  0  0  0  0  0  0  0
   32.1400   29.4010   45.4510 H   0  0  0  0  0  0  0  0  0  0  0  0
   31.7260   27.5320   46.1570 N   0  0  0  0  0  0  0  0  0  0  0  0
   31.9950   26.6190   47.1320 C   0  0  0  0  0  3  0  0  0  0  0  0
   32.8730   26.9130   48.1060 N   0  0  0  0  0  0  0  0  0  0  0  0
   36.7880   29.3990   49.5980 C   0  0  0  0  0  0  0  0  0  0  0  0
   36.8570   29.3860   50.7190 H   0  0  0  0  0  0  0  0  0  0  0  0
   37.1790   28.4180   49.2280 H   0  0  0  0  0  0  0  0  0  0  0  0
   38.3920   32.7010   49.3780 C   0  0  0  0  0  0  0  0  0  0  0  0
   38.9250   32.7100   48.0900 C   0  0  0  0  0  0  0  0  0  0  0  0
   38.7300   31.5740   47.2940 C   0  0  0  0  0  0  0  0  0  0  0  0
   38.0310   30.5260   47.8260 N   0  0  0  0  0  0  0  0  0  0  0  0
   37.5320   30.5660   49.0880 C   0  0  0  0  0  0  0  0  0  0  0  0
   37.7140   31.6520   49.8610 N   0  0  0  0  0  0  0  0  0  0  0  0
   38.5280   33.5710   50.0220 H   0  0  0  0  0  0  0  0  0  0  0  0
   39.4740   33.5480   47.6870 H   0  0  0  0  0  0  0  0  0  0  0  0
   39.1130   31.4970   46.2740 H   0  0  0  0  0  0  0  0  0  0  0  0
  1  4  1  6  0  0  0
  1  3  1  0  0  0  0
  1 15  1  0  0  0  0
  1  2  1  0  0  0  0
  2  5  1  0  0  0  0
  3  7  1  1  0  0  0
  3  2  1  0  0  0  0
  6  2  1  0  0  0  0
  8  3  1  0  0  0  0
  9  8  2  0  0  0  0
 10  9  1  0  0  0  0
 11 10  1  0  0  0  0
 12 10  2  0  0  0  0
 12 13  1  0  0  0  0
 13 14  2  0  0  0  0
 14  8  1  0  0  0  0
 15 16  1  0  0  0  0
 17 15  1  0  0  0  0
 18 23  1  0  0  0  0
 18 24  1  0  0  0  0
 19 18  2  0  0  0  0
 20 21  2  0  0  0  0
 20 19  1  0  0  0  0
 21 22  1  0  0  0  0
 22 15  1  0  0  0  0
 22 23  2  0  0  0  0
 25 19  1  0  0  0  0
 26 20  1  0  0  0  0
M  END
>  <minimizedAffinity>
-4.82333803

>  <minimizedRMSD>
0.452348024

$$$$
