
 OpenBabel03252513583D

 26 28  0  0  1  0  0  0  0  0999 V2000
   35.3180   29.4610   49.1320 C   0  0  2  0  0  0  0  0  0  0  0  0
   34.2970   29.5790   50.1940 C   0  0  0  0  0  0  0  0  0  0  0  0
   34.4900   28.2570   49.5640 C   0  0  1  0  0  0  0  0  0  0  0  0
   35.1020   29.9020   48.1310 H   0  0  0  0  0  0  0  0  0  0  0  0
   34.5760   29.7460   51.2530 H   0  0  0  0  0  0  0  0  0  0  0  0
   33.3810   30.1460   49.9140 H   0  0  0  0  0  0  0  0  0  0  0  0
   34.9820   27.4820   50.1860 H   0  0  0  0  0  0  0  0  0  0  0  0
   33.5060   27.7170   48.5790 C   0  0  0  0  0  0  0  0  0  0  0  0
   33.9070   26.9560   47.4980 C   0  0  0  0  0  0  0  0  0  0  0  0
   32.9390   26.4940   46.6350 C   0  0  0  0  0  0  0  0  0  0  0  0
   33.1700   25.8940   45.7690 H   0  0  0  0  0  0  0  0  0  0  0  0
   31.6100   26.7400   46.7770 N   0  0  0  0  0  0  0  0  0  0  0  0
   31.2510   27.4950   47.8530 C   0  0  0  0  0  0  0  0  0  0  0  0
   32.1900   27.9480   48.7010 N   0  0  0  0  0  0  0  0  0  0  0  0
   36.7820   29.3540   49.4920 C   0  0  0  0  0  0  0  0  0  0  0  0
   36.8390   29.2790   50.6110 H   0  0  0  0  0  0  0  0  0  0  0  0
   37.2560   28.4300   49.0710 H   0  0  0  0  0  0  0  0  0  0  0  0
   37.9270   32.8470   49.3980 C   0  0  0  0  0  0  0  0  0  0  0  0
   38.6780   32.9040   48.2230 C   0  0  0  0  0  0  0  0  0  0  0  0
   38.7890   31.7330   47.4620 C   0  0  0  0  0  0  0  0  0  0  0  0
   38.1570   30.6080   47.9130 N   0  0  0  0  0  0  0  0  0  0  0  0
   37.4380   30.6030   49.0640 C   0  0  0  0  0  0  0  0  0  0  0  0
   37.3250   31.7220   49.8040 N   0  0  0  0  0  0  0  0  0  0  0  0
   37.8230   33.7420   50.0120 H   0  0  0  0  0  0  0  0  0  0  0  0
   39.1690   33.8030   47.8830 H   0  0  0  0  0  0  0  0  0  0  0  0
   39.3570   31.6890   46.5300 H   0  0  0  0  0  0  0  0  0  0  0  0
  1  4  1  6  0  0  0
  1 15  1  0  0  0  0
  1  3  1  0  0  0  0
  1  2  1  0  0  0  0
  2  5  1  0  0  0  0
  3  7  1  1  0  0  0
  3  2  1  0  0  0  0
  6  2  1  0  0  0  0
  8 14  1  0  0  0  0
  8  3  1  0  0  0  0
  9  8  2  0  0  0  0
 10 12  2  0  0  0  0
 10  9  1  0  0  0  0
 11 10  1  0  0  0  0
 12 13  1  0  0  0  0
 13 14  2  0  0  0  0
 15 16  1  0  0  0  0
 17 15  1  0  0  0  0
 18 23  1  0  0  0  0
 18 24  1  0  0  0  0
 19 18  2  0  0  0  0
 20 21  2  0  0  0  0
 20 19  1  0  0  0  0
 21 22  1  0  0  0  0
 22 15  1  0  0  0  0
 22 23  2  0  0  0  0
 25 19  1  0  0  0  0
 26 20  1  0  0  0  0
M  END
>  <minimizedAffinity>
-5.01895142

>  <minimizedRMSD>
0.800787807

$$$$
