
 OpenBabel03252512123D

 30 33  0  0  0  0  0  0  0  0999 V2000
   35.6380   30.0370   47.8400 C   0  0  0  0  0  0  0  0  0  0  0  0
   36.6210   30.6710   47.1030 C   0  0  0  0  0  0  0  0  0  0  0  0
   37.6580   31.0000   47.8970 N   0  0  0  0  0  0  0  0  0  0  0  0
   37.3710   30.5900   49.1540 C   0  0  0  0  0  0  0  0  0  0  0  0
   38.0720   30.6710   50.3450 C   0  0  0  0  0  0  0  0  0  0  0  0
   37.5100   30.1530   51.4890 C   0  0  0  0  0  0  0  0  0  0  0  0
   36.2700   29.5670   51.4320 C   0  0  0  0  0  0  0  0  0  0  0  0
   35.5200   29.4590   50.2550 C   0  0  0  0  0  0  0  0  0  0  0  0
   36.1230   29.9930   49.1270 C   0  0  0  0  0  0  0  0  0  0  0  0
   36.6420   30.9110   46.0390 H   0  0  0  0  0  0  0  0  0  0  0  0
   38.5460   31.4900   47.6110 H   0  0  0  0  0  0  0  0  0  0  0  0
   39.0490   31.1360   50.3740 H   0  0  0  0  0  0  0  0  0  0  0  0
   38.0470   30.2070   52.4360 H   0  0  0  0  0  0  0  0  0  0  0  0
   35.8570   29.1690   52.3490 H   0  0  0  0  0  0  0  0  0  0  0  0
   34.5470   29.0000   50.2070 H   0  0  0  0  0  0  0  0  0  0  0  0
   32.3520   29.8510   46.1780 C   0  0  0  0  0  0  0  0  0  0  0  0
   32.0610   28.4950   46.2770 C   0  0  0  0  0  0  0  0  0  0  0  0
   32.9960   27.6610   46.9110 C   0  0  0  0  0  0  0  0  0  0  0  0
   34.1480   28.2230   47.4030 N   0  0  0  0  0  0  0  0  0  0  0  0
   34.3920   29.5560   47.2850 C   0  0  0  0  0  0  0  0  0  0  0  0
   33.5050   30.3510   46.6810 N   0  0  0  0  0  0  0  0  0  0  0  0
   31.6110   30.4750   45.6820 H   0  0  0  0  0  0  0  0  0  0  0  0
   31.1760   28.0030   45.9100 H   0  0  0  0  0  0  0  0  0  0  0  0
   32.7960   26.2250   47.0710 C   0  0  0  0  0  0  0  0  0  0  0  0
   33.8420   25.3260   47.2130 C   0  0  0  0  0  0  0  0  0  0  0  0
   33.3450   24.0450   47.3430 C   0  0  0  0  0  0  0  0  0  0  0  0
   33.7920   23.0690   47.4720 H   0  0  0  0  0  0  0  0  0  0  0  0
   31.9920   24.1910   47.2790 N   0  0  0  0  0  0  0  0  0  0  0  0
   31.6860   25.4660   47.1200 N   0  0  0  0  0  0  0  0  0  0  0  0
   31.1880   23.5220   47.3280 H   0  0  0  0  0  0  0  0  0  0  0  0
  1  9  1  0  0  0  0
  2  1  2  0  0  0  0
  2  3  1  0  0  0  0
  3  4  1  0  0  0  0
  4  5  1  0  0  0  0
  5 12  1  0  0  0  0
  5  6  2  0  0  0  0
  6 13  1  0  0  0  0
  7  6  1  0  0  0  0
  7 14  1  0  0  0  0
  8  7  2  0  0  0  0
  9  4  2  0  0  0  0
  9  8  1  0  0  0  0
 10  2  1  0  0  0  0
 11  3  1  0  0  0  0
 15  8  1  0  0  0  0
 16 17  2  0  0  0  0
 16 21  1  0  0  0  0
 17 18  1  0  0  0  0
 18 24  1  0  0  0  0
 18 19  2  0  0  0  0
 20 19  1  0  0  0  0
 20  1  1  0  0  0  0
 21 20  2  0  0  0  0
 22 16  1  0  0  0  0
 23 17  1  0  0  0  0
 24 29  2  0  0  0  0
 24 25  1  0  0  0  0
 25 26  2  0  0  0  0
 26 27  1  0  0  0  0
 28 30  1  0  0  0  0
 28 26  1  0  0  0  0
 29 28  1  0  0  0  0
M  END
>  <minimizedAffinity>
-5.75298738

>  <minimizedRMSD>
0.379858285

$$$$
