
 OpenBabel03252512223D

 23 25  0  0  0  0  0  0  0  0999 V2000
   34.9210   29.3080   48.6720 C   0  0  0  0  0  0  0  0  0  0  0  0
   34.3050   28.1240   49.1470 C   0  0  0  0  0  0  0  0  0  0  0  0
   33.2040   27.7200   48.4530 C   0  0  0  0  0  0  0  0  0  0  0  0
   32.7710   28.4260   47.4020 C   0  0  0  0  0  0  0  0  0  0  0  0
   33.9160   29.8010   47.2640 S   0  0  0  0  0  0  0  0  0  0  0  0
   34.7320   27.6170   50.0110 H   0  0  0  0  0  0  0  0  0  0  0  0
   32.6580   26.8230   48.7360 H   0  0  0  0  0  0  0  0  0  0  0  0
   37.4940   30.3730   51.1080 C   0  0  0  0  0  0  0  0  0  0  0  0
   38.3830   31.1110   50.2900 C   0  0  0  0  0  0  0  0  0  0  0  0
   38.0780   31.2260   48.9200 C   0  0  0  0  0  0  0  0  0  0  0  0
   36.9440   30.6220   48.4550 N   0  0  0  0  0  0  0  0  0  0  0  0
   36.1320   29.9350   49.2640 C   0  0  0  0  0  0  0  0  0  0  0  0
   36.3950   29.8040   50.5890 N   0  0  0  0  0  0  0  0  0  0  0  0
   37.7320   30.2910   52.1400 H   0  0  0  0  0  0  0  0  0  0  0  0
   39.2770   31.5770   50.7010 H   0  0  0  0  0  0  0  0  0  0  0  0
   38.7380   31.7840   48.2660 H   0  0  0  0  0  0  0  0  0  0  0  0
   31.6200   28.1880   46.5120 C   0  0  0  0  0  0  0  0  0  0  0  0
   30.6230   29.1060   46.2630 C   0  0  0  0  0  0  0  0  0  0  0  0
   29.7700   28.4520   45.3830 C   0  0  0  0  0  0  0  0  0  0  0  0
   28.8770   28.8960   44.9840 H   0  0  0  0  0  0  0  0  0  0  0  0
   30.2950   27.2260   45.1680 N   0  0  0  0  0  0  0  0  0  0  0  0
   31.4260   27.0550   45.8550 N   0  0  0  0  0  0  0  0  0  0  0  0
   29.8770   26.5010   44.5490 H   0  0  0  0  0  0  0  0  0  0  0  0
  1  2  2  0  0  0  0
  1 12  1  0  0  0  0
  2  6  1  0  0  0  0
  3  7  1  0  0  0  0
  3  2  1  0  0  0  0
  4  3  2  0  0  0  0
  5  4  1  0  0  0  0
  5  1  1  0  0  0  0
  8 14  1  0  0  0  0
  9 15  1  0  0  0  0
  9  8  2  0  0  0  0
 10  9  1  0  0  0  0
 11 10  2  0  0  0  0
 11 12  1  0  0  0  0
 12 13  2  0  0  0  0
 13  8  1  0  0  0  0
 16 10  1  0  0  0  0
 17  4  1  0  0  0  0
 18 17  1  0  0  0  0
 19 18  2  0  0  0  0
 20 19  1  0  0  0  0
 21 19  1  0  0  0  0
 21 22  1  0  0  0  0
 22 17  2  0  0  0  0
 23 21  1  0  0  0  0
M  END
>  <minimizedAffinity>
-4.32706118

>  <minimizedRMSD>
0.258110583

$$$$
