
 OpenBabel03252513143D

 43 46  0  0  0  0  0  0  0  0999 V2000
   37.8980   32.7600   43.1710 C   0  0  0  0  0  0  0  0  0  0  0  0
   38.4460   31.8020   42.3150 C   0  0  0  0  0  0  0  0  0  0  0  0
   38.6250   30.5470   42.8120 C   0  0  0  0  0  0  0  0  0  0  0  0
   38.2580   30.3660   44.0620 N   0  0  0  0  0  0  0  0  0  0  0  0
   37.7460   31.1830   44.9290 C   0  0  0  0  0  0  0  0  0  0  0  0
   37.5830   32.4030   44.4140 N   0  0  0  0  0  0  0  0  0  0  0  0
   37.7310   33.8020   42.8130 H   0  0  0  0  0  0  0  0  0  0  0  0
   37.3190   31.0880   46.3030 C   0  0  0  0  0  0  0  0  0  0  0  0
   36.3010   30.2420   46.7380 C   0  0  0  0  0  0  0  0  0  0  0  0
   35.8800   30.1350   48.0290 C   0  0  0  0  0  0  0  0  0  0  0  0
   36.4630   30.8880   49.0100 C   0  0  0  0  0  0  0  0  0  0  0  0
   37.4510   31.7230   48.6510 C   0  0  0  0  0  0  0  0  0  0  0  0
   38.0410   32.4870   49.6440 C   0  0  0  0  0  0  0  0  0  0  0  0
   39.0510   33.3640   49.3730 C   0  0  0  0  0  0  0  0  0  0  0  0
   39.4830   33.4750   48.0600 C   0  0  0  0  0  0  0  0  0  0  0  0
   38.8760   32.7040   47.1090 C   0  0  0  0  0  0  0  0  0  0  0  0
   37.8730   31.8280   47.3410 C   0  0  0  0  0  0  0  0  0  0  0  0
   35.8040   29.6210   46.0010 H   0  0  0  0  0  0  0  0  0  0  0  0
   35.0750   29.4480   48.2900 H   0  0  0  0  0  0  0  0  0  0  0  0
   37.7580   32.4550   50.6860 H   0  0  0  0  0  0  0  0  0  0  0  0
   39.5360   33.9780   50.1300 H   0  0  0  0  0  0  0  0  0  0  0  0
   40.2740   34.1480   47.7870 H   0  0  0  0  0  0  0  0  0  0  0  0
   39.2340   32.8110   46.0830 H   0  0  0  0  0  0  0  0  0  0  0  0
   36.0150   30.7580   50.3040 O   0  0  0  0  0  0  0  0  0  0  0  0
   36.4710   29.6880   51.1190 C   0  0  0  0  0  0  0  0  0  0  0  0
   37.2820   28.7850   50.5030 F   0  0  0  0  0  0  0  0  0  0  0  0
   37.2260   30.2480   52.1390 F   0  0  0  0  0  0  0  0  0  0  0  0
   35.3310   29.0700   51.6230 F   0  0  0  0  0  0  0  0  0  0  0  0
   39.1550   29.4680   42.0760 N   0  0  0  0  0  0  0  0  0  0  0  0
   40.3420   28.7940   42.4460 C   0  0  0  0  0  0  0  0  0  0  0  0
   41.3290   29.5040   42.9040 N   0  0  0  0  0  0  0  0  0  0  0  0
   40.4500   27.3870   42.3230 N   0  0  0  0  0  0  0  0  0  0  0  0
   42.2190   29.1630   43.2460 H   0  0  0  0  0  0  0  0  0  0  0  0
   38.7260   29.0530   41.1930 H   0  0  0  0  0  0  0  0  0  0  0  0
   40.4910   27.2570   41.2720 H   0  0  0  0  0  0  0  0  0  0  0  0
   40.4930   26.5490   42.9470 H   0  0  0  0  0  0  0  0  0  0  0  0
   38.8150   32.1330   40.9440 C   0  0  0  0  0  0  0  0  0  0  0  0
   38.4130   33.3110   40.3470 C   0  0  0  0  0  0  0  0  0  0  0  0
   38.8670   33.4280   39.0520 C   0  0  0  0  0  0  0  0  0  0  0  0
   38.7240   34.2200   38.3320 H   0  0  0  0  0  0  0  0  0  0  0  0
   39.5540   32.2870   38.8890 N   0  0  0  0  0  0  0  0  0  0  0  0
   39.5090   31.5680   39.9780 N   0  0  0  0  0  0  0  0  0  0  0  0
   40.0730   31.9500   38.0480 H   0  0  0  0  0  0  0  0  0  0  0  0
  1  6  1  0  0  0  0
  2  3  1  0  0  0  0
  2  1  2  0  0  0  0
  3  4  2  0  0  0  0
  4  5  1  0  0  0  0
  5  8  1  0  0  0  0
  6  5  2  0  0  0  0
  7  1  1  0  0  0  0
  8  9  2  0  0  0  0
  8 17  1  0  0  0  0
  9 10  1  0  0  0  0
 10 19  1  0  0  0  0
 10 11  2  0  0  0  0
 11 24  1  0  0  0  0
 12 11  1  0  0  0  0
 12 13  1  0  0  0  0
 13 20  1  0  0  0  0
 14 13  2  0  0  0  0
 14 21  1  0  0  0  0
 15 14  1  0  0  0  0
 16 17  1  0  0  0  0
 16 15  2  0  0  0  0
 17 12  2  0  0  0  0
 18  9  1  0  0  0  0
 22 15  1  0  0  0  0
 23 16  1  0  0  0  0
 24 25  1  0  0  0  0
 25 28  1  0  0  0  0
 25 27  1  0  0  0  0
 26 25  1  0  0  0  0
 29 30  1  0  0  0  0
 29  3  1  0  0  0  0
 30 31  2  0  0  0  0
 31 33  1  0  0  0  0
 32 30  1  0  0  0  0
 32 36  1  0  0  0  0
 34 29  1  0  0  0  0
 35 32  1  0  0  0  0
 37  2  1  0  0  0  0
 38 37  1  0  0  0  0
 39 38  2  0  0  0  0
 40 39  1  0  0  0  0
 41 39  1  0  0  0  0
 41 42  1  0  0  0  0
 42 37  2  0  0  0  0
 43 41  1  0  0  0  0
M  END
>  <minimizedAffinity>
-7.71387386

>  <minimizedRMSD>
1.37855935

$$$$
