REMARK  Name = 
REMARK  3 active torsions:
REMARK  status: ('A' for Active; 'I' for Inactive)
REMARK    1  A    between atoms: C_5  and  C_7
REMARK    2  A    between atoms: C_7  and  C_8
REMARK    3  A    between atoms: C_10  and  C_20
REMARK                            x       y       z     vdW  Elec       q    Type
REMARK                         _______ _______ _______ _____ _____    ______ ____
ROOT
ATOM      1  C   UNL     1      35.412  29.460  49.166  0.00  0.00    +0.000 C 
ATOM      2  C   UNL     1      34.280  29.433  50.115  0.00  0.00    +0.000 C 
ATOM      3  C   UNL     1      34.596  28.199  49.382  0.00  0.00    +0.000 C 
ATOM      4  H   UNL     1      35.251  30.047  48.229  0.00  0.00    +0.000 HD
ATOM      5  H   UNL     1      34.501  29.458  51.215  0.00  0.00    +0.000 HD
ATOM      6  H   UNL     1      33.342  29.961  49.850  0.00  0.00    +0.000 HD
ATOM      7  H   UNL     1      35.072  27.359  49.920  0.00  0.00    +0.000 HD
ENDROOT
BRANCH   3   8
ATOM      8  C   UNL     1      33.833  27.781  48.183  0.00  0.00    +0.000 A 
ATOM      9  C   UNL     1      33.659  28.578  47.045  0.00  0.00    +0.000 A 
ATOM     10  C   UNL     1      32.900  27.867  46.137  0.00  0.00    +0.000 A 
ATOM     11  H   UNL     1      32.569  28.175  45.143  0.00  0.00    +0.000 HD
ATOM     12  N   UNL     1      32.622  26.669  46.712  0.00  0.00    +0.000 N 
ATOM     13  N   UNL     1      33.179  26.636  47.915  0.00  0.00    +0.000 NA
ATOM     14  H   UNL     1      32.067  25.870  46.318  0.00  0.00    +0.000 HD
ENDBRANCH   3   8
BRANCH   1  15
ATOM     15  C   UNL     1      36.837  29.372  49.666  0.00  0.00    +0.000 C 
ATOM     16  H   UNL     1      37.254  28.443  49.275  0.00  0.00    +0.000 HD
ATOM     17  H   UNL     1      36.849  29.410  50.786  0.00  0.00    +0.000 HD
BRANCH  15  22
ATOM     18  C   UNL     1      38.414  32.697  49.387  0.00  0.00    +0.000 A 
ATOM     19  C   UNL     1      38.906  32.701  48.080  0.00  0.00    +0.000 A 
ATOM     20  C   UNL     1      38.691  31.552  47.295  0.00  0.00    +0.000 A 
ATOM     21  N   UNL     1      38.016  30.521  47.878  0.00  0.00    +0.000 NA
ATOM     22  C   UNL     1      37.556  30.551  49.142  0.00  0.00    +0.000 A 
ATOM     23  N   UNL     1      37.765  31.650  49.882  0.00  0.00    +0.000 NA
ATOM     24  H   UNL     1      38.624  33.614  49.911  0.00  0.00    +0.000 HD
ATOM     25  H   UNL     1      39.445  33.489  47.572  0.00  0.00    +0.000 HD
ATOM     26  H   UNL     1      39.010  31.405  46.268  0.00  0.00    +0.000 HD
ENDBRANCH  15  22
ENDBRANCH   1  15
TORSDOF 3
