
 OpenBabel03252513343D

 19 20  0  0  0  0  0  0  0  0999 V2000
   36.9270   30.0310   49.9890 C   0  0  0  0  0  0  0  0  0  0  0  0
   37.8110   31.0910   49.7570 C   0  0  0  0  0  0  0  0  0  0  0  0
   37.8400   31.6600   48.4910 C   0  0  0  0  0  0  0  0  0  0  0  0
   37.0140   31.1600   47.5480 N   0  0  0  0  0  0  0  0  0  0  0  0
   36.1650   30.1280   47.8050 C   0  0  0  0  0  0  0  0  0  0  0  0
   36.1320   29.5770   49.0230 N   0  0  0  0  0  0  0  0  0  0  0  0
   38.4700   31.4940   50.4990 H   0  0  0  0  0  0  0  0  0  0  0  0
   35.5510   29.8180   46.9640 H   0  0  0  0  0  0  0  0  0  0  0  0
   38.7420   32.7650   48.1980 C   0  0  0  0  0  0  0  0  0  0  0  0
   39.1160   33.7610   49.0400 C   0  0  0  0  0  0  0  0  0  0  0  0
   39.9800   34.6170   48.3980 C   0  0  0  0  0  0  0  0  0  0  0  0
   40.4910   35.5050   48.7000 H   0  0  0  0  0  0  0  0  0  0  0  0
   40.1120   34.1060   47.1490 N   0  0  0  0  0  0  0  0  0  0  0  0
   39.3780   33.0120   47.0390 N   0  0  0  0  0  0  0  0  0  0  0  0
   40.6450   34.3860   46.3080 H   0  0  0  0  0  0  0  0  0  0  0  0
   36.8960   29.4160   51.3560 C   0  0  0  0  0  0  0  0  0  0  0  0
   35.6020   29.0920   51.7000 F   0  0  0  0  0  0  0  0  0  0  0  0
   37.7490   28.3520   51.3730 F   0  0  0  0  0  0  0  0  0  0  0  0
   37.3270   30.3780   52.2570 F   0  0  0  0  0  0  0  0  0  0  0  0
  1 16  1  0  0  0  0
  2  1  1  0  0  0  0
  2  7  1  0  0  0  0
  3  2  2  0  0  0  0
  4  5  2  0  0  0  0
  4  3  1  0  0  0  0
  5  6  1  0  0  0  0
  6  1  2  0  0  0  0
  8  5  1  0  0  0  0
  9  3  1  0  0  0  0
  9 10  1  0  0  0  0
 11 12  1  0  0  0  0
 11 10  2  0  0  0  0
 13 11  1  0  0  0  0
 14 13  1  0  0  0  0
 14  9  2  0  0  0  0
 15 13  1  0  0  0  0
 16 18  1  0  0  0  0
 16 17  1  0  0  0  0
 16 19  1  0  0  0  0
M  END
>  <minimizedAffinity>
-5.59676218

>  <minimizedRMSD>
1.07144356

$$$$
