
 OpenBabel03252514053D

 36 39  0  0  1  0  0  0  0  0999 V2000
   35.1950   29.2740   48.7050 C   0  0  2  0  0  0  0  0  0  0  0  0
   34.0430   29.3610   49.5960 C   0  0  0  0  0  0  0  0  0  0  0  0
   34.3520   28.0340   49.1520 C   0  0  1  0  0  0  0  0  0  0  0  0
   35.1790   29.4210   47.6240 H   0  0  0  0  0  0  0  0  0  0  0  0
   33.1100   29.8790   49.2260 H   0  0  0  0  0  0  0  0  0  0  0  0
   34.2490   29.7120   50.6490 H   0  0  0  0  0  0  0  0  0  0  0  0
   34.9510   27.2740   49.6540 H   0  0  0  0  0  0  0  0  0  0  0  0
   36.5730   29.2550   49.3890 C   0  0  0  0  0  0  0  0  0  0  0  0
   36.4390   29.2040   50.4850 H   0  0  0  0  0  0  0  0  0  0  0  0
   37.1760   28.3940   49.0470 H   0  0  0  0  0  0  0  0  0  0  0  0
   37.6460   32.7440   49.5600 C   0  0  0  0  0  0  0  0  0  0  0  0
   38.5150   32.8550   48.4560 C   0  0  0  0  0  0  0  0  0  0  0  0
   38.7150   31.7000   47.6630 C   0  0  0  0  0  0  0  0  0  0  0  0
   38.0580   30.5510   48.0110 N   0  0  0  0  0  0  0  0  0  0  0  0
   37.2460   30.5030   49.0680 C   0  0  0  0  0  0  0  0  0  0  0  0
   37.0460   31.6090   49.8390 N   0  0  0  0  0  0  0  0  0  0  0  0
   37.4470   33.5810   50.2070 H   0  0  0  0  0  0  0  0  0  0  0  0
   38.9770   33.8090   48.2790 H   0  0  0  0  0  0  0  0  0  0  0  0
   39.3720   31.7960   46.8340 H   0  0  0  0  0  0  0  0  0  0  0  0
   33.4150   27.4640   48.1020 C   0  0  0  0  0  0  0  0  0  0  0  0
   33.6830   26.2340   47.8030 O   0  0  0  0  0  0  0  0  0  0  0  0
   32.3550   28.1290   47.4880 O   0  0  0  0  0  0  0  0  0  0  0  0
   31.0850   28.1510   47.9980 C   0  0  0  0  0  0  0  0  0  0  0  0
   30.6940   27.6430   49.3380 C   0  0  0  0  0  0  0  0  0  0  0  0
   29.3930   27.7430   49.6860 C   0  0  0  0  0  0  0  0  0  0  0  0
   28.4310   28.3050   48.8250 C   0  0  0  0  0  0  0  0  0  0  0  0
   29.4220   28.7650   47.3270 S   0  0  0  0  0  0  0  0  0  0  0  0
   31.4710   27.2270   49.9480 H   0  0  0  0  0  0  0  0  0  0  0  0
   29.0140   27.4030   50.6340 H   0  0  0  0  0  0  0  0  0  0  0  0
   27.1040   28.5420   48.8740 C   0  0  0  0  0  0  0  0  0  0  0  0
   26.4850   29.7510   49.1250 C   0  0  0  0  0  3  0  0  0  0  0  0
   25.0980   29.5740   49.0870 C   0  0  0  0  0  0  0  0  0  0  0  0
   24.2180   30.1820   49.2130 H   0  0  0  0  0  0  0  0  0  0  0  0
   24.9240   28.2480   48.8110 N   0  0  0  0  0  0  0  0  0  0  0  0
   26.1150   27.6520   48.6880 N   0  0  0  0  0  0  0  0  0  0  0  0
   24.0140   27.7090   48.6980 H   0  0  0  0  0  0  0  0  0  0  0  0
  1  4  1  6  0  0  0
  1  3  1  0  0  0  0
  1  8  1  0  0  0  0
  1  2  1  0  0  0  0
  2  6  1  0  0  0  0
  3  2  1  0  0  0  0
  3  7  1  1  0  0  0
  5  2  1  0  0  0  0
  8  9  1  0  0  0  0
 10  8  1  0  0  0  0
 11 16  1  0  0  0  0
 11 17  1  0  0  0  0
 12 11  2  0  0  0  0
 13 14  2  0  0  0  0
 13 12  1  0  0  0  0
 14 15  1  0  0  0  0
 15  8  1  0  0  0  0
 15 16  2  0  0  0  0
 18 12  1  0  0  0  0
 19 13  1  0  0  0  0
 20  3  1  0  0  0  0
 21 20  2  0  0  0  0
 22 23  1  0  0  0  0
 22 20  1  0  0  0  0
 23 24  2  0  0  0  0
 24 25  1  0  0  0  0
 24 28  1  0  0  0  0
 25 29  1  0  0  0  0
 26 30  1  0  0  0  0
 26 25  2  0  0  0  0
 27 23  1  0  0  0  0
 27 26  1  0  0  0  0
 30 31  1  0  0  0  0
 32 31  2  0  0  0  0
 32 33  1  0  0  0  0
 34 32  1  0  0  0  0
 35 34  1  0  0  0  0
 35 30  2  0  0  0  0
 36 34  1  0  0  0  0
M  END
>  <minimizedAffinity>
-6.55348873

>  <minimizedRMSD>
1.36191308

$$$$
