
     RDKit          3D

 37 40  0  0  0  0  0  0  0  0999 V2000
   35.2952   29.4110   48.9851 C   0  0  2  0  0  0  0  0  0  0  0  0
   34.1903   29.3570   49.9374 C   0  0  0  0  0  0  0  0  0  0  0  0
   34.5296   28.0948   49.3478 C   0  0  1  0  0  0  0  0  0  0  0  0
   36.7084   29.3904   49.5952 C   0  0  0  0  0  0  0  0  0  0  0  0
   38.0719   32.7757   49.4334 C   0  0  0  0  0  0  0  0  0  0  0  0
   38.7544   32.7762   48.1994 C   0  0  0  0  0  0  0  0  0  0  0  0
   38.7272   31.5839   47.4379 C   0  0  0  0  0  0  0  0  0  0  0  0
   38.0459   30.5080   47.9387 N   0  0  0  0  0  0  0  0  0  0  0  0
   37.4171   30.5643   49.1140 C   0  0  0  0  0  0  0  0  0  0  0  0
   37.4362   31.7068   49.8562 N   0  0  0  0  0  0  0  0  0  0  0  0
   33.5625   27.5873   48.2955 C   0  0  0  0  0  0  0  0  0  0  0  0
   33.9088   26.4412   47.8038 O   0  0  0  0  0  0  0  0  0  0  0  0
   32.4023   28.2237   47.8570 O   0  0  0  0  0  0  0  0  0  0  0  0
   31.1438   27.8308   48.2262 C   0  0  0  0  0  0  0  0  0  0  0  0
   30.6317   27.8030   49.6200 C   0  0  0  0  0  0  0  0  0  0  0  0
   29.3609   27.3877   49.8088 C   0  0  0  0  0  0  0  0  0  0  0  0
   28.5382   26.9934   48.7364 C   0  0  0  0  0  0  0  0  0  0  0  0
   29.6357   27.2119   47.2581 S   0  0  0  0  0  0  0  0  0  0  0  0
   35.2151   29.6609   47.9264 H   0  0  0  0  0  0  0  0  0  0  0  0
   33.2183   29.8639   49.6669 H   0  0  0  0  0  0  0  0  0  0  0  0
   34.4382   29.6127   51.0080 H   0  0  0  0  0  0  0  0  0  0  0  0
   35.1861   27.3186   49.7420 H   0  0  0  0  0  0  0  0  0  0  0  0
   36.6340   29.4543   50.6956 H   0  0  0  0  0  0  0  0  0  0  0  0
   37.2496   28.4693   49.3107 H   0  0  0  0  0  0  0  0  0  0  0  0
   38.0501   33.6474   50.0654 H   0  0  0  0  0  0  0  0  0  0  0  0
   39.2559   33.6800   47.9069 H   0  0  0  0  0  0  0  0  0  0  0  0
   39.2449   31.5960   46.5098 H   0  0  0  0  0  0  0  0  0  0  0  0
   31.3056   28.1157   50.3936 H   0  0  0  0  0  0  0  0  0  0  0  0
   28.9024   27.3326   50.7798 H   0  0  0  0  0  0  0  0  0  0  0  0
   27.2727   26.5464   48.5958 C   0  0  0  0  0  0  0  0  0  0  0  0
   26.1154   27.2922   48.6859 C   0  0  0  0  0  0  0  0  0  0  0  0
   25.0118   26.4557   48.4788 C   0  0  0  0  0  0  0  0  0  0  0  0
   23.9398   26.5518   48.4496 H   0  0  0  0  0  0  0  0  0  0  0  0
   25.5491   25.2180   48.2682 N   0  0  0  0  0  0  0  0  0  0  0  0
   26.8829   25.2858   48.3399 N   0  0  0  0  0  0  0  0  0  0  0  0
   25.9320   28.3282   48.8740 H   0  0  0  0  0  0  0  0  0  0  0  0
   25.0454   24.3018   48.0724 H   0  0  0  0  0  0  0  0  0  0  0  0
  1  3  1  0
  1  4  1  0
  1  2  1  0
  3  2  1  0
  5 10  2  0
  6  5  1  0
  7  8  1  0
  7  6  2  0
  8  9  2  0
  9  4  1  0
  9 10  1  0
 11  3  1  0
 12 11  2  0
 13 14  1  0
 13 11  1  0
 14 15  2  0
 15 16  1  0
 17 16  2  0
 18 14  1  0
 18 17  1  0
  1 19  1  6
  2 20  1  0
  2 21  1  0
  3 22  1  1
  4 23  1  0
  4 24  1  0
  5 25  1  0
  6 26  1  0
  7 27  1  0
 15 28  1  0
 16 29  1  0
 30 31  1  0
 31 32  2  0
 32 33  1  0
 32 34  1  0
 34 35  1  0
 35 30  2  0
 31 36  1  0
 34 37  1  0
 17 30  1  0
M  ISO  8  19  13  20  13  21  13  22  13  23   8  24   8  25  14  26  14
M  ISO  4  27  14  28  14  29  14  33  14
M  END
>  <DihAtoms>  (1) 
15,16,29,30

>  <DihDeg>  (1) 
179.9990323278776

$$$$
