
 OpenBabel03252510323D

 24 26  0  0  0  0  0  0  0  0999 V2000
   36.9080   31.2950   48.7010 C   0  0  0  0  0  0  0  0  0  0  0  0
   37.0890   32.1700   49.7260 C   0  0  0  0  0  0  0  0  0  0  0  0
   38.1070   33.0990   49.6450 C   0  0  0  0  0  0  0  0  0  0  0  0
   38.9370   33.1740   48.5820 N   0  0  0  0  0  0  0  0  0  0  0  0
   38.7340   32.2910   47.5780 C   0  0  0  0  0  0  0  0  0  0  0  0
   37.7320   31.3620   47.6350 N   0  0  0  0  0  0  0  0  0  0  0  0
   36.4320   32.1280   50.5930 H   0  0  0  0  0  0  0  0  0  0  0  0
   38.2370   33.7880   50.4670 H   0  0  0  0  0  0  0  0  0  0  0  0
   35.9100   29.3080   49.6920 C   0  0  0  0  0  0  0  0  0  0  0  0
   35.8720   30.2740   48.6730 C   0  0  0  0  0  0  0  0  0  0  0  0
   34.8790   30.2080   47.7170 C   0  0  0  0  0  0  0  0  0  0  0  0
   33.9670   29.1980   47.8040 N   0  0  0  0  0  0  0  0  0  0  0  0
   34.0090   28.2700   48.7900 C   0  0  0  0  0  0  0  0  0  0  0  0
   34.9700   28.3210   49.7270 N   0  0  0  0  0  0  0  0  0  0  0  0
   36.6930   29.3560   50.4520 H   0  0  0  0  0  0  0  0  0  0  0  0
   34.8560   30.9540   46.9350 H   0  0  0  0  0  0  0  0  0  0  0  0
   33.3010   27.4740   48.8690 H   0  0  0  0  0  0  0  0  0  0  0  0
   39.5510   32.2370   46.3470 C   0  0  0  0  0  0  0  0  0  0  0  0
   40.0120   33.0650   45.3720 C   0  0  0  0  0  0  0  0  0  0  0  0
   40.7370   32.2950   44.5130 C   0  0  0  0  0  0  0  0  0  0  0  0
   41.2090   32.7690   43.6380 H   0  0  0  0  0  0  0  0  0  0  0  0
   40.7200   31.0220   44.9530 N   0  0  0  0  0  0  0  0  0  0  0  0
   39.9980   30.9790   46.0720 N   0  0  0  0  0  0  0  0  0  0  0  0
   41.2190   30.2490   44.4410 H   0  0  0  0  0  0  0  0  0  0  0  0
  1  2  1  0  0  0  0
  2  7  1  0  0  0  0
  3  2  2  0  0  0  0
  3  8  1  0  0  0  0
  4  3  1  0  0  0  0
  5  6  1  0  0  0  0
  5  4  2  0  0  0  0
  6  1  2  0  0  0  0
  9 14  1  0  0  0  0
  9 15  1  0  0  0  0
 10  1  1  0  0  0  0
 10  9  2  0  0  0  0
 11 12  2  0  0  0  0
 11 10  1  0  0  0  0
 12 13  1  0  0  0  0
 13 17  1  0  0  0  0
 13 14  2  0  0  0  0
 16 11  1  0  0  0  0
 18  5  1  0  0  0  0
 19 18  1  0  0  0  0
 20 22  1  0  0  0  0
 20 19  2  0  0  0  0
 21 20  1  0  0  0  0
 22 23  1  0  0  0  0
 23 18  2  0  0  0  0
 24 22  1  0  0  0  0
M  END
>  <minimizedAffinity>
-5.99053812

>  <minimizedRMSD>
0.290063351

$$$$
