
 OpenBabel03252514053D

 36 39  0  0  1  0  0  0  0  0999 V2000
   35.2000   29.2350   48.6920 C   0  0  2  0  0  0  0  0  0  0  0  0
   34.0260   29.1920   49.5590 C   0  0  0  0  0  0  0  0  0  0  0  0
   34.4190   27.9200   49.0270 C   0  0  1  0  0  0  0  0  0  0  0  0
   35.1980   29.4600   47.6250 H   0  0  0  0  0  0  0  0  0  0  0  0
   33.0730   29.6840   49.2040 H   0  0  0  0  0  0  0  0  0  0  0  0
   34.1900   29.4750   50.6390 H   0  0  0  0  0  0  0  0  0  0  0  0
   35.0490   27.1600   49.4880 H   0  0  0  0  0  0  0  0  0  0  0  0
   36.5620   29.2410   49.4080 C   0  0  0  0  0  0  0  0  0  0  0  0
   36.4030   29.2070   50.5010 H   0  0  0  0  0  0  0  0  0  0  0  0
   37.1800   28.3790   49.0940 H   0  0  0  0  0  0  0  0  0  0  0  0
   37.6240   32.7340   49.5590 C   0  0  0  0  0  0  0  0  0  0  0  0
   38.4920   32.8420   48.4540 C   0  0  0  0  0  0  0  0  0  0  0  0
   38.6950   31.6830   47.6680 C   0  0  0  0  0  0  0  0  0  0  0  0
   38.0420   30.5340   48.0220 N   0  0  0  0  0  0  0  0  0  0  0  0
   37.2300   30.4890   49.0800 C   0  0  0  0  0  0  0  0  0  0  0  0
   37.0270   31.5990   49.8450 N   0  0  0  0  0  0  0  0  0  0  0  0
   37.4220   33.5740   50.2020 H   0  0  0  0  0  0  0  0  0  0  0  0
   38.9510   33.7960   48.2720 H   0  0  0  0  0  0  0  0  0  0  0  0
   39.3520   31.7770   46.8380 H   0  0  0  0  0  0  0  0  0  0  0  0
   33.5380   27.3790   47.9160 C   0  0  0  0  0  0  0  0  0  0  0  0
   33.9410   26.2350   47.4660 O   0  0  0  0  0  0  0  0  0  0  0  0
   32.3990   27.9860   47.3890 O   0  0  0  0  0  0  0  0  0  0  0  0
   31.1680   27.9170   47.9830 C   0  0  0  0  0  0  0  0  0  0  0  0
   30.8430   27.1070   49.1850 C   0  0  0  0  0  0  0  0  0  0  0  0
   29.5740   27.1530   49.6440 C   0  0  0  0  0  0  0  0  0  0  0  0
   28.5830   27.9350   49.0180 C   0  0  0  0  0  0  0  0  0  0  0  0
   29.4930   28.7210   47.6070 S   0  0  0  0  0  0  0  0  0  0  0  0
   31.6400   26.5330   49.6170 H   0  0  0  0  0  0  0  0  0  0  0  0
   29.2430   26.6020   50.5060 H   0  0  0  0  0  0  0  0  0  0  0  0
   27.2740   28.1880   49.2220 C   0  0  0  0  0  0  0  0  0  0  0  0
   26.3500   28.5890   48.2780 C   0  0  0  0  0  3  0  0  0  0  0  0
   25.1010   28.7450   48.8930 C   0  0  0  0  0  0  0  0  0  0  0  0
   24.1060   29.0300   48.6020 H   0  0  0  0  0  0  0  0  0  0  0  0
   25.3190   28.4280   50.2040 N   0  0  0  0  0  0  0  0  0  0  0  0
   26.6030   28.1010   50.3840 N   0  0  0  0  0  0  0  0  0  0  0  0
   24.6230   28.4200   51.0080 H   0  0  0  0  0  0  0  0  0  0  0  0
  1  4  1  6  0  0  0
  1  3  1  0  0  0  0
  1  8  1  0  0  0  0
  1  2  1  0  0  0  0
  2  6  1  0  0  0  0
  3  7  1  1  0  0  0
  3  2  1  0  0  0  0
  5  2  1  0  0  0  0
  8  9  1  0  0  0  0
 10  8  1  0  0  0  0
 11 16  1  0  0  0  0
 11 17  1  0  0  0  0
 12 11  2  0  0  0  0
 13 14  2  0  0  0  0
 13 12  1  0  0  0  0
 14 15  1  0  0  0  0
 15  8  1  0  0  0  0
 15 16  2  0  0  0  0
 18 12  1  0  0  0  0
 19 13  1  0  0  0  0
 20  3  1  0  0  0  0
 21 20  2  0  0  0  0
 22 20  1  0  0  0  0
 22 23  1  0  0  0  0
 23 24  2  0  0  0  0
 24 28  1  0  0  0  0
 24 25  1  0  0  0  0
 25 29  1  0  0  0  0
 26 30  1  0  0  0  0
 26 25  2  0  0  0  0
 27 23  1  0  0  0  0
 27 26  1  0  0  0  0
 30 35  2  0  0  0  0
 31 32  2  0  0  0  0
 31 30  1  0  0  0  0
 32 34  1  0  0  0  0
 33 32  1  0  0  0  0
 34 35  1  0  0  0  0
 34 36  1  0  0  0  0
M  END
>  <minimizedAffinity>
-6.30847406

>  <minimizedRMSD>
1.36021221

$$$$
