
 OpenBabel03252512353D

 36 39  0  0  1  0  0  0  0  0999 V2000
   33.1230   27.3990   48.0070 C   0  0  2  0  0  0  0  0  0  0  0  0
   33.3620   26.3810   48.4240 H   0  0  0  0  0  0  0  0  0  0  0  0
   36.0630   30.1170   48.7100 C   0  0  0  0  0  0  0  0  0  0  0  0
   35.8690   29.2360   49.7670 C   0  0  0  0  0  0  0  0  0  0  0  0
   34.8880   28.3070   49.5990 C   0  0  0  0  0  0  0  0  0  0  0  0
   34.2010   28.2960   48.4810 C   0  0  0  0  0  0  0  0  0  0  0  0
   34.8530   29.6500   47.4420 S   0  0  0  0  0  0  0  0  0  0  0  0
   36.5060   29.3370   50.6600 H   0  0  0  0  0  0  0  0  0  0  0  0
   34.6610   27.5690   50.3810 H   0  0  0  0  0  0  0  0  0  0  0  0
   37.9890   33.1430   49.5180 C   0  0  0  0  0  0  0  0  0  0  0  0
   38.9510   33.2000   48.5030 C   0  0  0  0  0  0  0  0  0  0  0  0
   38.9220   32.1990   47.5550 C   0  0  0  0  0  0  0  0  0  0  0  0
   37.9800   31.2190   47.6420 N   0  0  0  0  0  0  0  0  0  0  0  0
   37.0850   31.2230   48.6420 C   0  0  0  0  0  0  0  0  0  0  0  0
   37.0300   32.1740   49.6330 N   0  0  0  0  0  0  0  0  0  0  0  0
   37.9310   33.8910   50.3130 H   0  0  0  0  0  0  0  0  0  0  0  0
   39.6560   34.0200   48.5230 H   0  0  0  0  0  0  0  0  0  0  0  0
   39.6570   32.2200   46.7590 H   0  0  0  0  0  0  0  0  0  0  0  0
   33.0590   27.3900   46.5640 C   0  0  0  0  0  0  0  0  0  0  0  0
   32.0310   27.6510   46.1980 H   0  0  0  0  0  0  0  0  0  0  0  0
   33.7340   28.1470   46.0860 H   0  0  0  0  0  0  0  0  0  0  0  0
   33.3030   26.4190   46.1100 H   0  0  0  0  0  0  0  0  0  0  0  0
   31.8420   27.7880   48.7340 C   0  0  0  0  0  0  0  0  0  0  0  0
   32.0580   28.1530   49.7620 H   0  0  0  0  0  0  0  0  0  0  0  0
   31.4360   28.6710   48.1760 H   0  0  0  0  0  0  0  0  0  0  0  0
   30.9210   26.8000   48.7780 O   0  0  0  0  0  0  0  0  0  0  0  0
   29.7210   26.8770   48.0970 C   0  0  0  0  0  0  0  0  0  0  0  0
   29.2090   26.5980   46.8550 C   0  0  0  0  0  0  0  0  0  0  0  0
   27.8790   26.9450   46.8980 C   0  0  0  0  0  0  0  0  0  0  0  0
   27.6270   27.4190   48.1580 C   0  0  0  0  0  0  0  0  0  0  0  0
   28.7440   27.3610   48.8350 O   0  0  0  0  0  0  0  0  0  0  0  0
   29.8820   26.1950   46.1310 H   0  0  0  0  0  0  0  0  0  0  0  0
   27.2410   26.8270   46.0530 H   0  0  0  0  0  0  0  0  0  0  0  0
   26.2890   27.9130   48.6500 C   0  0  0  0  0  0  0  0  0  0  0  0
   26.1450   28.5070   49.9800 C   0  0  0  0  0  0  0  0  0  0  0  0
   26.1330   29.4170   48.7980 C   0  0  0  0  0  0  0  0  0  0  0  0
  1  2  1  1  0  0  0
  1  6  1  0  0  0  0
  1 23  1  0  0  0  0
  3  4  2  0  0  0  0
  4  8  1  0  0  0  0
  5  4  1  0  0  0  0
  5  9  1  0  0  0  0
  6  5  2  0  0  0  0
  7  6  1  0  0  0  0
  7  3  1  0  0  0  0
 10 15  1  0  0  0  0
 10 16  1  0  0  0  0
 11 17  1  0  0  0  0
 11 10  2  0  0  0  0
 12 13  2  0  0  0  0
 12 11  1  0  0  0  0
 13 14  1  0  0  0  0
 14  3  1  0  0  0  0
 14 15  2  0  0  0  0
 18 12  1  0  0  0  0
 19  1  1  0  0  0  0
 20 19  1  0  0  0  0
 21 19  1  0  0  0  0
 22 19  1  0  0  0  0
 23 26  1  0  0  0  0
 23 24  1  0  0  0  0
 25 23  1  0  0  0  0
 27 26  1  0  0  0  0
 27 31  1  0  0  0  0
 28 29  1  0  0  0  0
 28 27  2  0  0  0  0
 29 30  2  0  0  0  0
 30 34  1  0  0  0  0
 30 31  1  0  0  0  0
 32 28  1  0  0  0  0
 33 29  1  0  0  0  0
 34 36  1  0  0  0  0
 34 35  1  0  0  0  0
 36 35  1  0  0  0  0
M  END
>  <minimizedAffinity>
-6.03012323

>  <minimizedRMSD>
2.62756777

$$$$
