
 OpenBabel03252514063D

 25 28  0  0  0  0  0  0  0  0999 V2000
   36.6920   31.2210   48.8040 N   0  0  0  0  0  0  0  0  0  0  0  0
   36.7340   32.0590   49.8690 C   0  0  0  0  0  0  0  0  0  0  0  0
   37.7230   32.9680   49.6410 N   0  0  0  0  0  0  0  0  0  0  0  0
   38.2600   32.6760   48.4620 C   0  0  0  0  0  0  0  0  0  0  0  0
   39.2860   33.2370   47.7150 C   0  0  0  0  0  0  0  0  0  0  0  0
   39.6360   32.7230   46.5080 N   0  0  0  0  0  0  0  0  0  0  0  0
   39.0080   31.6490   45.9860 C   0  0  0  0  0  0  0  0  0  0  0  0
   38.0130   31.1130   46.7220 N   0  0  0  0  0  0  0  0  0  0  0  0
   37.6300   31.5830   47.9170 C   0  0  0  0  0  0  0  0  0  0  0  0
   39.9760   34.3580   48.2090 N   0  0  0  0  0  0  0  0  0  0  0  0
   36.1300   32.0730   50.7730 H   0  0  0  0  0  0  0  0  0  0  0  0
   39.3290   31.2800   45.0210 H   0  0  0  0  0  0  0  0  0  0  0  0
   40.5950   34.1530   49.0230 H   0  0  0  0  0  0  0  0  0  0  0  0
   39.9580   35.3670   47.8800 H   0  0  0  0  0  0  0  0  0  0  0  0
   34.6880   30.2680   47.7860 C   0  0  0  0  0  0  0  0  0  0  0  0
   35.7710   30.1330   48.6910 C   0  0  0  0  0  0  0  0  0  0  0  0
   35.8440   28.9400   49.3970 C   0  0  0  0  0  0  0  0  0  0  0  0
   34.9010   27.9780   49.1980 N   0  0  0  0  0  0  0  0  0  0  0  0
   33.8910   28.1520   48.3270 C   0  0  0  0  0  0  0  0  0  0  0  0
   33.7790   29.3000   47.6160 N   0  0  0  0  0  0  0  0  0  0  0  0
   34.5620   31.1760   47.1940 H   0  0  0  0  0  0  0  0  0  0  0  0
   36.6660   28.8350   50.0850 H   0  0  0  0  0  0  0  0  0  0  0  0
   32.8480   27.1100   48.0950 C   0  0  0  0  0  3  0  0  0  0  0  0
   32.6160   26.7040   46.6540 C   0  0  0  0  0  2  0  0  0  0  0  0
   33.3240   25.7890   47.5850 C   0  0  0  0  0  2  0  0  0  0  0  0
  1  2  1  0  0  0  0
  2 11  1  0  0  0  0
  3  2  2  0  0  0  0
  4  3  1  0  0  0  0
  5 10  1  0  0  0  0
  5  4  2  0  0  0  0
  6  5  1  0  0  0  0
  7  6  2  0  0  0  0
  7  8  1  0  0  0  0
  8  9  2  0  0  0  0
  9  4  1  0  0  0  0
  9  1  1  0  0  0  0
 10 13  1  0  0  0  0
 12  7  1  0  0  0  0
 14 10  1  0  0  0  0
 15 16  1  0  0  0  0
 16  1  1  0  0  0  0
 16 17  2  0  0  0  0
 17 22  1  0  0  0  0
 18 17  1  0  0  0  0
 19 18  2  0  0  0  0
 20 15  2  0  0  0  0
 20 19  1  0  0  0  0
 21 15  1  0  0  0  0
 23 19  1  0  0  0  0
 24 25  1  0  0  0  0
 24 23  1  0  0  0  0
 25 23  1  0  0  0  0
M  END
>  <minimizedAffinity>
-5.43759441

>  <minimizedRMSD>
2.78197289

$$$$
