REMARK  Name = 
REMARK  2 active torsions:
REMARK  status: ('A' for Active; 'I' for Inactive)
REMARK    1  A    between atoms: N_1  and  C_11
REMARK    2  A    between atoms: C_14  and  C_23
REMARK                            x       y       z     vdW  Elec       q    Type
REMARK                         _______ _______ _______ _____ _____    ______ ____
ROOT
ATOM      1  N   UNL     1      37.810  31.809  49.054  0.00  0.00    +0.000 N 
ATOM      2  C   UNL     1      38.201  33.037  49.476  0.00  0.00    +0.000 A 
ATOM      3  N   UNL     1      38.949  33.596  48.484  0.00  0.00    +0.000 NA
ATOM      4  C   UNL     1      39.002  32.718  47.490  0.00  0.00    +0.000 A 
ATOM      5  C   UNL     1      39.607  32.724  46.241  0.00  0.00    +0.000 A 
ATOM      6  N   UNL     1      39.496  31.662  45.403  0.00  0.00    +0.000 NA
ATOM      7  C   UNL     1      38.798  30.559  45.745  0.00  0.00    +0.000 A 
ATOM      8  N   UNL     1      38.215  30.565  46.962  0.00  0.00    +0.000 NA
ATOM      9  C   UNL     1      38.295  31.587  47.824  0.00  0.00    +0.000 A 
ATOM     10  N   UNL     1      40.347  33.847  45.831  0.00  0.00    +0.000 N 
ATOM     11  H   UNL     1      38.000  33.553  50.412  0.00  0.00    +0.000 HD
ATOM     12  H   UNL     1      38.743  29.741  45.039  0.00  0.00    +0.000 HD
ATOM     13  H   UNL     1      41.249  33.972  46.339  0.00  0.00    +0.000 HD
ATOM     14  H   UNL     1      40.124  34.575  45.091  0.00  0.00    +0.000 HD
ENDROOT
BRANCH   1  16
ATOM     15  C   UNL     1      35.684  30.659  49.396  0.00  0.00    +0.000 A 
ATOM     16  C   UNL     1      37.005  30.924  49.837  0.00  0.00    +0.000 A 
ATOM     17  C   UNL     1      37.407  30.292  51.006  0.00  0.00    +0.000 A 
ATOM     18  N   UNL     1      36.543  29.469  51.661  0.00  0.00    +0.000 NA
ATOM     19  C   UNL     1      35.298  29.248  51.203  0.00  0.00    +0.000 A 
ATOM     20  N   UNL     1      34.862  29.843  50.067  0.00  0.00    +0.000 NA
ATOM     21  H   UNL     1      35.294  31.117  48.486  0.00  0.00    +0.000 HD
ATOM     22  H   UNL     1      38.411  30.492  51.343  0.00  0.00    +0.000 HD
BRANCH  19  23
ATOM     23  C   UNL     1      34.336  28.350  51.907  0.00  0.00    +0.000 C 
ATOM     24  C   UNL     1      34.891  27.559  53.075  0.00  0.00    +0.000 C 
ATOM     25  C   UNL     1      33.988  28.713  53.314  0.00  0.00    +0.000 C 
ENDBRANCH  19  23
ENDBRANCH   1  16
TORSDOF 2
