
     RDKit          3D

 30 33  0  0  0  0  0  0  0  0999 V2000
   37.8098   31.8087   49.0543 N   0  0  0  0  0  0  0  0  0  0  0  0
   38.2011   33.0367   49.4758 C   0  0  0  0  0  0  0  0  0  0  0  0
   38.9489   33.5959   48.4842 N   0  0  0  0  0  0  0  0  0  0  0  0
   39.0025   32.7179   47.4905 C   0  0  0  0  0  0  0  0  0  0  0  0
   39.6071   32.7245   46.2410 C   0  0  0  0  0  0  0  0  0  0  0  0
   39.4963   31.6619   45.4032 N   0  0  0  0  0  0  0  0  0  0  0  0
   38.7983   30.5588   45.7445 C   0  0  0  0  0  0  0  0  0  0  0  0
   38.2154   30.5647   46.9616 N   0  0  0  0  0  0  0  0  0  0  0  0
   38.2948   31.5865   47.8235 C   0  0  0  0  0  0  0  0  0  0  0  0
   35.6843   30.6585   49.3964 C   0  0  0  0  0  0  0  0  0  0  0  0
   37.0054   30.9241   49.8365 C   0  0  0  0  0  0  0  0  0  0  0  0
   37.4072   30.2923   51.0057 C   0  0  0  0  0  0  0  0  0  0  0  0
   36.5429   29.4694   51.6607 N   0  0  0  0  0  0  0  0  0  0  0  0
   35.2977   29.2485   51.2033 C   0  0  0  0  0  0  0  0  0  0  0  0
   34.8620   29.8433   50.0667 N   0  0  0  0  0  0  0  0  0  0  0  0
   40.3475   33.8471   45.8311 N   0  0  0  0  0  0  0  0  0  0  0  0
   38.0002   33.5534   50.4123 H   0  0  0  0  0  0  0  0  0  0  0  0
   38.7426   29.7414   45.0386 H   0  0  0  0  0  0  0  0  0  0  0  0
   35.2943   31.1171   48.4864 H   0  0  0  0  0  0  0  0  0  0  0  0
   38.4106   30.4921   51.3427 H   0  0  0  0  0  0  0  0  0  0  0  0
   41.2493   33.9717   46.3386 H   0  0  0  0  0  0  0  0  0  0  0  0
   40.1238   34.5746   45.0909 H   0  0  0  0  0  0  0  0  0  0  0  0
   34.3359   28.3502   51.9070 C   0  0  0  0  0  0  0  0  0  0  0  0
   34.8907   27.5591   53.0747 C   0  0  0  0  0  0  0  0  0  0  0  0
   33.9880   28.7134   53.3139 C   0  0  0  0  0  0  0  0  0  0  0  0
   33.5934   27.8309   51.2612 H   0  0  0  0  0  0  0  0  0  0  0  0
   35.9774   27.6254   53.2885 H   0  0  0  0  0  0  0  0  0  0  0  0
   34.4756   26.5576   53.2990 H   0  0  0  0  0  0  0  0  0  0  0  0
   32.9238   28.4793   53.5926 H   0  0  0  0  0  0  0  0  0  0  0  0
   34.3983   29.6715   53.7069 H   0  0  0  0  0  0  0  0  0  0  0  0
  1  2  1  0
  1 11  1  0
  3  2  2  0
  4  9  2  0
  4  3  1  0
  5  4  1  0
  6  7  1  0
  6  5  2  0
  7  8  2  0
  8  9  1  0
  9  1  1  0
 10 11  2  0
 10 15  1  0
 11 12  1  0
 12 13  2  0
 14 13  1  0
 15 14  2  0
 16  5  1  0
  2 17  1  0
  7 18  1  0
 10 19  1  0
 12 20  1  0
 16 21  1  0
 16 22  1  0
 23 24  1  0
 24 25  1  0
 25 23  1  0
 23 26  1  0
 24 27  1  0
 24 28  1  0
 25 29  1  0
 25 30  1  0
 14 23  1  0
M  ISO  4  17  14  18  14  19  14  20  14
M  END
>  <DihAtoms>  (1) 
12,13,22,23

>  <DihDeg>  (1) 
142.59008579847347

$$$$
