
 OpenBabel03252513393D

 22 23  0  0  0  0  0  0  0  0999 V2000
   36.9310   29.9290   49.8780 C   0  0  0  0  0  0  0  0  0  0  0  0
   38.0140   30.7040   49.4720 C   0  0  0  0  0  0  0  0  0  0  0  0
   38.0260   31.1500   48.1410 C   0  0  0  0  0  0  0  0  0  0  0  0
   36.9960   30.8030   47.3380 N   0  0  0  0  0  0  0  0  0  0  0  0
   35.9610   30.0430   47.7870 C   0  0  0  0  0  0  0  0  0  0  0  0
   35.9450   29.6190   49.0460 N   0  0  0  0  0  0  0  0  0  0  0  0
   39.0790   31.9330   47.6570 N   0  0  0  0  0  0  0  0  0  0  0  0
   39.0030   32.6300   46.4390 C   0  0  0  0  0  0  0  0  0  0  0  0
   37.9590   32.4500   45.6920 N   0  0  0  0  0  0  0  0  0  0  0  0
   40.0580   33.5100   46.0540 N   0  0  0  0  0  0  0  0  0  0  0  0
   37.9130   32.9650   44.7900 H   0  0  0  0  0  0  0  0  0  0  0  0
   38.8320   30.9740   50.1230 H   0  0  0  0  0  0  0  0  0  0  0  0
   39.9670   32.0000   48.2360 H   0  0  0  0  0  0  0  0  0  0  0  0
   39.9610   34.5370   45.8570 H   0  0  0  0  0  0  0  0  0  0  0  0
   40.9380   32.9860   45.9970 H   0  0  0  0  0  0  0  0  0  0  0  0
   36.9150   29.4460   51.3130 C   0  0  0  0  0  0  0  0  0  0  0  0
   35.5940   29.1620   51.6700 F   0  0  0  0  0  0  0  0  0  0  0  0
   37.7640   28.4060   51.4330 F   0  0  0  0  0  0  0  0  0  0  0  0
   37.3210   30.5280   52.1010 F   0  0  0  0  0  0  0  0  0  0  0  0
   34.8600   29.7020   46.8400 C   0  0  0  0  0  0  0  0  0  0  0  0
   33.6550   28.9450   47.3730 C   0  0  0  0  0  0  0  0  0  0  0  0
   33.5350   30.3930   46.9350 C   0  0  0  0  0  0  0  0  0  0  0  0
  1 16  1  0  0  0  0
  2  1  1  0  0  0  0
  2 12  1  0  0  0  0
  3  2  2  0  0  0  0
  4  5  2  0  0  0  0
  4  3  1  0  0  0  0
  5  6  1  0  0  0  0
  6  1  2  0  0  0  0
  7  3  1  0  0  0  0
  7 13  1  0  0  0  0
  8  7  1  0  0  0  0
  9  8  2  0  0  0  0
 10  8  1  0  0  0  0
 11  9  1  0  0  0  0
 14 10  1  0  0  0  0
 15 10  1  0  0  0  0
 16 18  1  0  0  0  0
 16 17  1  0  0  0  0
 16 19  1  0  0  0  0
 20 22  1  0  0  0  0
 20 21  1  0  0  0  0
 20  5  1  0  0  0  0
 22 21  1  0  0  0  0
M  END
>  <minimizedAffinity>
-6.29723978

>  <minimizedRMSD>
0.159352735

$$$$
