
 OpenBabel03252513083D

 42 44  0  0  0  0  0  0  0  0999 V2000
   31.5770   28.2890   46.7160 C   0  0  0  0  0  0  0  0  0  0  0  0
   32.3140   28.7250   45.5750 C   0  0  0  0  0  0  0  0  0  0  0  0
   33.6600   28.9160   45.6490 C   0  0  0  0  0  0  0  0  0  0  0  0
   34.2540   28.6690   46.8620 N   0  0  0  0  0  0  0  0  0  0  0  0
   33.5730   28.2690   47.9080 C   0  0  0  0  0  0  0  0  0  0  0  0
   32.2520   28.0700   47.8770 N   0  0  0  0  0  0  0  0  0  0  0  0
   30.5270   28.1290   46.7020 H   0  0  0  0  0  0  0  0  0  0  0  0
   31.6990   28.8700   44.7250 H   0  0  0  0  0  0  0  0  0  0  0  0
   34.4220   29.3570   44.5060 C   0  0  0  0  0  0  0  0  0  0  0  0
   35.2420   30.0510   44.8270 H   0  0  0  0  0  0  0  0  0  0  0  0
   34.9600   28.4690   44.0640 H   0  0  0  0  0  0  0  0  0  0  0  0
   33.6610   30.0020   43.4270 C   0  0  0  0  0  0  0  0  0  0  0  0
   32.5870   29.7350   43.5210 H   0  0  0  0  0  0  0  0  0  0  0  0
   33.9610   29.4690   42.4720 H   0  0  0  0  0  0  0  0  0  0  0  0
   33.8120   31.3720   43.1730 N   0  0  0  0  0  0  0  0  0  0  0  0
   34.8880   32.0170   42.7570 C   0  0  0  0  0  0  0  0  0  0  0  0
   34.9790   33.3770   42.5150 C   0  0  0  0  0  0  0  0  0  0  0  0
   33.8680   34.1500   42.7170 C   0  0  0  0  0  0  0  0  0  0  0  0
   33.8550   35.3790   42.5260 O   0  0  0  0  0  0  0  0  0  0  0  0
   32.7880   33.5310   43.1310 N   0  0  0  0  0  0  0  0  0  0  0  0
   32.7270   32.2200   43.3560 C   0  0  0  0  0  0  0  0  0  0  0  0
   31.6410   31.7100   43.7550 O   0  0  0  0  0  0  0  0  0  0  0  0
   35.7880   31.4160   42.5890 H   0  0  0  0  0  0  0  0  0  0  0  0
   35.9110   33.8090   42.1740 H   0  0  0  0  0  0  0  0  0  0  0  0
   31.5870   34.3300   43.3560 C   0  0  0  0  0  0  0  0  0  0  0  0
   30.4550   33.5580   43.2330 F   0  0  0  0  0  0  0  0  0  0  0  0
   31.5710   35.3170   42.3940 F   0  0  0  0  0  0  0  0  0  0  0  0
   31.6730   34.8740   44.6080 F   0  0  0  0  0  0  0  0  0  0  0  0
   34.2700   28.0140   49.2110 C   0  0  0  0  0  0  0  0  0  0  0  0
   33.7180   27.2780   49.8010 H   0  0  0  0  0  0  0  0  0  0  0  0
   35.3040   27.6940   48.9660 H   0  0  0  0  0  0  0  0  0  0  0  0
   34.3180   29.2870   50.0130 C   0  0  0  0  0  0  0  0  0  0  0  0
   33.5110   29.9510   49.6420 H   0  0  0  0  0  0  0  0  0  0  0  0
   34.0010   29.0020   51.0530 H   0  0  0  0  0  0  0  0  0  0  0  0
   35.6160   29.9660   50.0310 C   0  0  0  0  0  0  0  0  0  0  0  0
   36.4530   29.6170   51.0960 C   0  0  0  0  0  0  0  0  0  0  0  0
   37.7040   30.1490   51.2770 C   0  0  0  0  0  0  0  0  0  0  0  0
   38.3380   29.8670   52.1080 H   0  0  0  0  0  0  0  0  0  0  0  0
   38.1410   31.0760   50.3500 C   0  0  0  0  0  0  0  0  0  0  0  0
   37.3300   31.4330   49.2930 C   0  0  0  0  0  0  0  0  0  0  0  0
   37.6820   32.1610   48.5710 H   0  0  0  0  0  0  0  0  0  0  0  0
   36.0710   30.8950   49.1160 C   0  0  0  0  0  0  0  0  0  0  0  0
  1  6  1  0  0  0  0
  2  3  1  0  0  0  0
  2  1  2  0  0  0  0
  3  4  2  0  0  0  0
  4  5  1  0  0  0  0
  5 29  1  0  0  0  0
  6  5  2  0  0  0  0
  7  1  1  0  0  0  0
  8  2  1  0  0  0  0
  9 10  1  0  0  0  0
  9  3  1  0  0  0  0
 11  9  1  0  0  0  0
 12 13  1  0  0  0  0
 12  9  1  0  0  0  0
 14 12  1  0  0  0  0
 15 21  1  0  0  0  0
 15 12  1  0  0  0  0
 16 15  1  0  0  0  0
 17 18  1  0  0  0  0
 17 16  2  0  0  0  0
 18 20  1  0  0  0  0
 19 18  2  0  0  0  0
 20 21  1  0  0  0  0
 20 25  1  0  0  0  0
 21 22  2  0  0  0  0
 23 16  1  0  0  0  0
 24 17  1  0  0  0  0
 25 28  1  0  0  0  0
 26 25  1  0  0  0  0
 27 25  1  0  0  0  0
 29 30  1  0  0  0  0
 29 32  1  0  0  0  0
 31 29  1  0  0  0  0
 32 35  1  0  0  0  0
 32 34  1  0  0  0  0
 33 32  1  0  0  0  0
 35 36  1  0  0  0  0
 36 37  2  0  0  0  0
 37 38  1  0  0  0  0
 39 37  1  0  0  0  0
 40 39  2  0  0  0  0
 41 40  1  0  0  0  0
 42 40  1  0  0  0  0
 42 35  2  0  0  0  0
M  END
>  <minimizedAffinity>
-5.97810936

>  <minimizedRMSD>
4.15762854

$$$$
