
 OpenBabel03252513023D

 23 24  0  0  0  0  0  0  0  0999 V2000
   37.9780   30.5570   47.7620 C   0  0  0  0  0  0  0  0  0  0  0  0
   37.1970   30.5780   47.0050 H   0  0  0  0  0  0  0  0  0  0  0  0
   38.7520   29.8350   47.4420 H   0  0  0  0  0  0  0  0  0  0  0  0
   37.2820   30.1540   51.4890 C   0  0  0  0  0  0  0  0  0  0  0  0
   37.9330   30.5590   50.3100 C   0  0  0  0  0  0  0  0  0  0  0  0
   37.3970   30.2000   49.0850 C   0  0  0  0  0  0  0  0  0  0  0  0
   36.2530   29.4660   49.0860 N   0  0  0  0  0  0  0  0  0  0  0  0
   35.6380   29.0850   50.2070 C   0  0  0  0  0  0  0  0  0  0  0  0
   36.1560   29.4310   51.4000 N   0  0  0  0  0  0  0  0  0  0  0  0
   37.7860   30.4880   52.3870 H   0  0  0  0  0  0  0  0  0  0  0  0
   38.8430   31.1430   50.2990 H   0  0  0  0  0  0  0  0  0  0  0  0
   34.7280   28.5020   50.2410 H   0  0  0  0  0  0  0  0  0  0  0  0
   38.6620   31.9070   47.8180 C   0  0  0  0  0  0  0  0  0  0  0  0
   39.6370   31.8570   48.3390 H   0  0  0  0  0  0  0  0  0  0  0  0
   37.9550   32.6250   48.2860 H   0  0  0  0  0  0  0  0  0  0  0  0
   38.9130   32.3640   46.4190 C   0  0  0  0  0  0  0  0  0  0  0  0
   37.9610   32.1220   45.4380 C   0  0  0  0  0  0  0  0  0  0  0  0
   38.0900   32.5000   44.1190 C   0  0  0  0  0  0  0  0  0  0  0  0
   37.2980   32.2700   43.4240 H   0  0  0  0  0  0  0  0  0  0  0  0
   39.2610   33.1700   43.7540 C   0  0  0  0  0  0  0  0  0  0  0  0
   40.2440   33.4320   44.7060 C   0  0  0  0  0  0  0  0  0  0  0  0
   41.1360   33.9510   44.3910 H   0  0  0  0  0  0  0  0  0  0  0  0
   40.0760   33.0350   46.0330 C   0  0  0  0  0  0  0  0  0  0  0  0
  1 13  1  0  0  0  0
  1  6  1  0  0  0  0
  2  1  1  0  0  0  0
  3  1  1  0  0  0  0
  4 10  1  0  0  0  0
  5  4  2  0  0  0  0
  6  7  2  0  0  0  0
  6  5  1  0  0  0  0
  7  8  1  0  0  0  0
  8 12  1  0  0  0  0
  8  9  2  0  0  0  0
  9  4  1  0  0  0  0
 11  5  1  0  0  0  0
 13 15  1  0  0  0  0
 13 14  1  0  0  0  0
 16 13  1  0  0  0  0
 17 16  2  0  0  0  0
 18 17  1  0  0  0  0
 19 18  1  0  0  0  0
 20 18  2  0  0  0  0
 20 21  1  0  0  0  0
 21 23  2  0  0  0  0
 22 21  1  0  0  0  0
 23 16  1  0  0  0  0
M  END
>  <minimizedAffinity>
-5.29522181

>  <minimizedRMSD>
0.807129264

$$$$
