
 OpenBabel03252513063D

 31 33  0  0  0  0  0  0  0  0999 V2000
   37.2910   30.6420   44.4040 C   0  0  0  0  0  0  0  0  0  0  0  0
   36.3210   31.0540   44.0370 H   0  0  0  0  0  0  0  0  0  0  0  0
   37.0890   29.5380   44.5300 H   0  0  0  0  0  0  0  0  0  0  0  0
   38.2660   30.7930   43.4030 N   0  0  0  0  0  0  0  0  0  0  0  0
   38.5580   31.8610   42.6740 C   0  0  0  0  0  0  0  0  0  0  0  0
   39.5340   31.9220   41.7120 C   0  0  0  0  0  0  0  0  0  0  0  0
   40.2890   30.8100   41.4550 C   0  0  0  0  0  0  0  0  0  0  0  0
   41.1990   30.7840   40.5930 O   0  0  0  0  0  0  0  0  0  0  0  0
   40.0190   29.7380   42.1670 N   0  0  0  0  0  0  0  0  0  0  0  0
   39.0600   29.7020   43.1020 C   0  0  0  0  0  0  0  0  0  0  0  0
   38.8760   28.6300   43.7300 O   0  0  0  0  0  0  0  0  0  0  0  0
   37.9580   32.7530   42.8740 H   0  0  0  0  0  0  0  0  0  0  0  0
   39.6950   32.8420   41.1700 H   0  0  0  0  0  0  0  0  0  0  0  0
   40.8040   28.5300   41.9230 C   0  0  0  0  0  0  0  0  0  0  0  0
   42.1300   28.7590   42.1890 F   0  0  0  0  0  0  0  0  0  0  0  0
   40.6770   28.2460   40.5610 F   0  0  0  0  0  0  0  0  0  0  0  0
   40.2900   27.5230   42.6810 F   0  0  0  0  0  0  0  0  0  0  0  0
   37.5280   31.1840   45.7610 C   0  0  0  0  0  0  0  0  0  0  0  0
   37.3400   32.2980   45.7880 H   0  0  0  0  0  0  0  0  0  0  0  0
   38.6090   31.0950   46.0010 H   0  0  0  0  0  0  0  0  0  0  0  0
   34.7440   29.5430   47.7240 C   0  0  0  0  0  0  0  0  0  0  0  0
   35.4380   30.1670   46.6690 C   0  0  0  0  0  0  0  0  0  0  0  0
   36.7590   30.5360   46.8160 C   0  0  0  0  0  0  0  0  0  0  0  0
   37.3430   30.2670   48.0180 N   0  0  0  0  0  0  0  0  0  0  0  0
   36.6830   29.6800   49.0030 C   0  0  0  0  0  0  0  0  0  0  0  0
   35.4120   29.3110   48.8980 N   0  0  0  0  0  0  0  0  0  0  0  0
   33.7210   29.2800   47.5530 H   0  0  0  0  0  0  0  0  0  0  0  0
   34.9130   30.3520   45.7410 H   0  0  0  0  0  0  0  0  0  0  0  0
   37.4280   29.4330   50.2810 C   0  0  0  0  0  0  0  0  0  0  0  0
   36.6800   29.5170   51.5770 C   0  0  0  0  0  0  0  0  0  0  0  0
   37.6040   30.6250   51.2250 C   0  0  0  0  0  0  0  0  0  0  0  0
  1  3  1  0  0  0  0
  1 18  1  0  0  0  0
  2  1  1  0  0  0  0
  4  1  1  0  0  0  0
  5 12  1  0  0  0  0
  5  4  1  0  0  0  0
  6  5  2  0  0  0  0
  7  6  1  0  0  0  0
  7  9  1  0  0  0  0
  8  7  2  0  0  0  0
  9 10  1  0  0  0  0
 10  4  1  0  0  0  0
 10 11  2  0  0  0  0
 13  6  1  0  0  0  0
 14  9  1  0  0  0  0
 14 15  1  0  0  0  0
 14 17  1  0  0  0  0
 16 14  1  0  0  0  0
 18 19  1  0  0  0  0
 18 20  1  0  0  0  0
 18 23  1  0  0  0  0
 21 26  1  0  0  0  0
 22 23  1  0  0  0  0
 22 21  2  0  0  0  0
 23 24  2  0  0  0  0
 24 25  1  0  0  0  0
 25 29  1  0  0  0  0
 26 25  2  0  0  0  0
 27 21  1  0  0  0  0
 28 22  1  0  0  0  0
 29 31  1  0  0  0  0
 29 30  1  0  0  0  0
 31 30  1  0  0  0  0
M  END
>  <minimizedAffinity>
-5.43273592

>  <minimizedRMSD>
3.67866468

$$$$
