
 OpenBabel03252513253D

 25 27  0  0  0  0  0  0  0  0999 V2000
   32.8360   27.8260   48.5960 C   0  0  0  0  0  0  0  0  0  0  0  0
   31.7120   28.2520   49.2710 C   0  0  0  0  0  0  0  0  0  0  0  0
   30.4970   27.5840   49.1650 C   0  0  0  0  0  0  0  0  0  0  0  0
   30.4690   26.4680   48.3470 C   0  0  0  0  0  0  0  0  0  0  0  0
   31.5780   26.0180   47.6570 C   0  0  0  0  0  0  0  0  0  0  0  0
   32.7580   26.7100   47.7930 C   0  0  0  0  0  0  0  0  0  0  0  0
   31.7610   29.1220   49.9000 H   0  0  0  0  0  0  0  0  0  0  0  0
   29.6170   27.9300   49.7040 H   0  0  0  0  0  0  0  0  0  0  0  0
   29.5470   25.8980   48.2190 H   0  0  0  0  0  0  0  0  0  0  0  0
   31.5210   25.1270   47.0150 H   0  0  0  0  0  0  0  0  0  0  0  0
   36.1460   28.9620   49.7140 C   0  0  0  0  0  0  0  0  0  0  0  0
   36.4500   29.9770   48.8020 C   0  0  0  0  0  0  0  0  0  0  0  0
   35.5100   30.2500   47.8240 C   0  0  0  0  0  0  0  0  0  0  0  0
   34.3400   29.5210   47.7930 N   0  0  0  0  0  0  0  0  0  0  0  0
   34.1000   28.5350   48.7160 C   0  0  0  0  0  0  0  0  0  0  0  0
   34.9950   28.2760   49.6490 N   0  0  0  0  0  0  0  0  0  0  0  0
   36.9230   28.8020   50.4500 H   0  0  0  0  0  0  0  0  0  0  0  0
   35.6450   31.0170   47.0680 H   0  0  0  0  0  0  0  0  0  0  0  0
   37.7090   30.7620   48.8350 C   0  0  0  0  0  0  0  0  0  0  0  0
   38.5220   30.5480   47.7620 F   0  0  0  0  0  0  0  0  0  0  0  0
   38.4450   30.4860   49.9720 F   0  0  0  0  0  0  0  0  0  0  0  0
   37.4060   32.1370   48.8580 F   0  0  0  0  0  0  0  0  0  0  0  0
   33.9620   26.2480   47.0650 C   0  0  0  0  0  0  0  0  0  0  0  0
   34.0650   24.7800   46.7700 C   0  0  0  0  0  0  0  0  0  0  0  0
   33.9450   25.8360   45.6590 C   0  0  0  0  0  0  0  0  0  0  0  0
  1 15  1  0  0  0  0
  1  2  1  0  0  0  0
  2  7  1  0  0  0  0
  3  2  2  0  0  0  0
  3  8  1  0  0  0  0
  4  3  1  0  0  0  0
  5  6  1  0  0  0  0
  5  4  2  0  0  0  0
  6  1  2  0  0  0  0
  9  4  1  0  0  0  0
 10  5  1  0  0  0  0
 11 17  1  0  0  0  0
 12 19  1  0  0  0  0
 12 11  2  0  0  0  0
 13 12  1  0  0  0  0
 14 13  2  0  0  0  0
 14 15  1  0  0  0  0
 15 16  2  0  0  0  0
 16 11  1  0  0  0  0
 18 13  1  0  0  0  0
 19 22  1  0  0  0  0
 19 21  1  0  0  0  0
 20 19  1  0  0  0  0
 23  6  1  0  0  0  0
 24 23  1  0  0  0  0
 25 24  1  0  0  0  0
 25 23  1  0  0  0  0
M  END
>  <minimizedAffinity>
-5.15487576

>  <minimizedRMSD>
1.21479964

$$$$
