
     RDKit          3D

 46 49  0  0  0  0  0  0  0  0999 V2000
   35.2950   29.4137   48.9815 C   0  0  2  0  0  0  0  0  0  0  0  0
   34.1889   29.3654   49.9316 C   0  0  0  0  0  0  0  0  0  0  0  0
   34.5253   28.1013   49.3463 C   0  0  1  0  0  0  0  0  0  0  0  0
   36.7102   29.3849   49.5845 C   0  0  0  0  0  0  0  0  0  0  0  0
   38.0871   32.7652   49.4475 C   0  0  0  0  0  0  0  0  0  0  0  0
   38.7570   32.7750   48.2089 C   0  0  0  0  0  0  0  0  0  0  0  0
   38.7211   31.5945   47.4320 C   0  0  0  0  0  0  0  0  0  0  0  0
   38.0407   30.5113   47.9225 N   0  0  0  0  0  0  0  0  0  0  0  0
   37.4184   30.5646   49.1173 C   0  0  0  0  0  0  0  0  0  0  0  0
   37.4486   31.6941   49.8687 N   0  0  0  0  0  0  0  0  0  0  0  0
   33.5573   27.5949   48.2961 C   0  0  0  0  0  0  0  0  0  0  0  0
   33.9032   26.4417   47.8120 O   0  0  0  0  0  0  0  0  0  0  0  0
   32.3974   28.2367   47.8517 O   0  0  0  0  0  0  0  0  0  0  0  0
   31.1423   27.8351   48.2270 C   0  0  0  0  0  0  0  0  0  0  0  0
   30.6229   27.8307   49.6105 C   0  0  0  0  0  0  0  0  0  0  0  0
   29.3581   27.4005   49.8052 C   0  0  0  0  0  0  0  0  0  0  0  0
   28.5394   26.9662   48.7423 C   0  0  0  0  0  0  0  0  0  0  0  0
   29.6471   27.1711   47.2654 S   0  0  0  0  0  0  0  0  0  0  0  0
   35.1744   29.7990   47.9644 H   0  0  0  0  0  0  0  0  0  0  0  0
   33.2421   29.8940   49.6595 H   0  0  0  0  0  0  0  0  0  0  0  0
   34.4442   29.5308   51.0166 H   0  0  0  0  0  0  0  0  0  0  0  0
   35.1716   27.3332   49.7642 H   0  0  0  0  0  0  0  0  0  0  0  0
   37.2075   28.4410   49.2711 H   0  0  0  0  0  0  0  0  0  0  0  0
   36.6461   29.4081   50.6741 H   0  0  0  0  0  0  0  0  0  0  0  0
   38.1677   33.7080   49.9718 H   0  0  0  0  0  0  0  0  0  0  0  0
   39.3099   33.6102   47.7780 H   0  0  0  0  0  0  0  0  0  0  0  0
   39.2112   31.5246   46.4709 H   0  0  0  0  0  0  0  0  0  0  0  0
   31.2827   28.1709   50.3853 H   0  0  0  0  0  0  0  0  0  0  0  0
   28.8884   27.3580   50.7714 H   0  0  0  0  0  0  0  0  0  0  0  0
   27.2026   26.4734   48.6399 C   0  0  0  0  0  0  0  0  0  0  0  0
   27.0823   25.0711   49.1135 C   0  0  0  0  0  0  0  0  0  0  0  0
   26.3040   24.8742   50.3796 C   0  0  0  0  0  0  0  0  0  0  0  0
   26.4168   25.9569   51.3883 C   0  0  0  0  0  0  0  0  0  0  0  0
   26.2803   27.3419   50.8218 C   0  0  0  0  0  0  0  0  0  0  0  0
   26.1907   27.3595   49.3254 C   0  0  0  0  0  0  0  0  0  0  0  0
   26.9042   26.4989   47.5503 H   0  0  0  0  0  0  0  0  0  0  0  0
   26.5794   24.4604   48.3372 H   0  0  0  0  0  0  0  0  0  0  0  0
   28.1080   24.6059   49.1994 H   0  0  0  0  0  0  0  0  0  0  0  0
   26.7161   23.9352   50.8481 H   0  0  0  0  0  0  0  0  0  0  0  0
   25.2237   24.6486   50.1845 H   0  0  0  0  0  0  0  0  0  0  0  0
   25.5459   25.8157   52.0955 H   0  0  0  0  0  0  0  0  0  0  0  0
   27.3054   25.8191   52.0412 H   0  0  0  0  0  0  0  0  0  0  0  0
   27.1751   27.9222   51.1255 H   0  0  0  0  0  0  0  0  0  0  0  0
   25.4181   27.8938   51.2374 H   0  0  0  0  0  0  0  0  0  0  0  0
   26.3609   28.3827   48.9372 H   0  0  0  0  0  0  0  0  0  0  0  0
   25.1938   27.0388   49.0090 H   0  0  0  0  0  0  0  0  0  0  0  0
  1  3  1  0
  1  4  1  0
  1  2  1  0
  3  2  1  0
  5 10  2  0
  6  5  1  0
  7  8  1  0
  7  6  2  0
  8  9  2  0
  9  4  1  0
  9 10  1  0
 11  3  1  0
 12 11  2  0
 13 14  1  0
 13 11  1  0
 14 15  2  0
 15 16  1  0
 17 16  2  0
 18 14  1  0
 18 17  1  0
  1 19  1  6
  2 20  1  0
  2 21  1  0
  3 22  1  1
  4 23  1  0
  4 24  1  0
  5 25  1  0
  6 26  1  0
  7 27  1  0
 15 28  1  0
 16 29  1  0
 30 31  1  0
 31 32  1  0
 32 33  1  0
 33 34  1  0
 34 35  1  0
 35 30  1  0
 30 36  1  0
 31 37  1  0
 31 38  1  0
 32 39  1  0
 32 40  1  0
 33 41  1  0
 33 42  1  0
 34 43  1  0
 34 44  1  0
 35 45  1  0
 35 46  1  0
 17 30  1  0
M  ISO  8  19  13  20  13  21  13  22  13  23   8  24   8  25  14  26  14
M  ISO  3  27  14  28  14  29  14
M  END
>  <DihAtoms>  (1) 
15,16,29,30

>  <DihDeg>  (1) 
119.89102220202415

$$$$
