
 OpenBabel03252514053D

 35 38  0  0  1  0  0  0  0  0999 V2000
   35.3530   29.4190   48.9680 C   0  0  2  0  0  0  0  0  0  0  0  0
   34.2170   29.2940   49.8750 C   0  0  0  0  0  0  0  0  0  0  0  0
   34.6120   28.0690   49.2460 C   0  0  1  0  0  0  0  0  0  0  0  0
   35.2550   29.8460   47.9660 H   0  0  0  0  0  0  0  0  0  0  0  0
   33.2640   29.8070   49.5930 H   0  0  0  0  0  0  0  0  0  0  0  0
   34.4290   29.4180   50.9750 H   0  0  0  0  0  0  0  0  0  0  0  0
   35.2670   27.3020   49.6520 H   0  0  0  0  0  0  0  0  0  0  0  0
   36.7460   29.4040   49.6200 C   0  0  0  0  0  0  0  0  0  0  0  0
   37.2380   28.4350   49.3800 H   0  0  0  0  0  0  0  0  0  0  0  0
   36.6470   29.4930   50.7040 H   0  0  0  0  0  0  0  0  0  0  0  0
   38.3540   32.6770   49.4170 C   0  0  0  0  0  0  0  0  0  0  0  0
   38.8920   32.6760   48.1170 C   0  0  0  0  0  0  0  0  0  0  0  0
   38.6880   31.5260   47.3210 C   0  0  0  0  0  0  0  0  0  0  0  0
   37.9820   30.4800   47.8540 N   0  0  0  0  0  0  0  0  0  0  0  0
   37.4900   30.5430   49.1090 C   0  0  0  0  0  0  0  0  0  0  0  0
   37.6830   31.6430   49.8790 N   0  0  0  0  0  0  0  0  0  0  0  0
   38.5590   33.5960   49.9520 H   0  0  0  0  0  0  0  0  0  0  0  0
   39.4600   33.4820   47.6490 H   0  0  0  0  0  0  0  0  0  0  0  0
   39.0710   31.4500   46.3130 H   0  0  0  0  0  0  0  0  0  0  0  0
   33.6970   27.5830   48.1400 C   0  0  0  0  0  0  0  0  0  0  0  0
   33.8910   26.3350   47.8440 O   0  0  0  0  0  0  0  0  0  0  0  0
   32.7240   28.3330   47.4730 O   0  0  0  0  0  0  0  0  0  0  0  0
   31.3810   28.1340   47.6610 C   0  0  0  0  0  0  0  0  0  0  0  0
   30.7570   27.6290   48.9020 C   0  0  0  0  0  0  0  0  0  0  0  0
   29.4140   27.4910   48.9170 C   0  0  0  0  0  0  0  0  0  0  0  0
   28.6120   27.8110   47.8010 C   0  0  0  0  0  0  0  0  0  0  0  0
   29.8620   28.3810   46.5510 S   0  0  0  0  0  0  0  0  0  0  0  0
   31.4080   27.4010   49.7220 H   0  0  0  0  0  0  0  0  0  0  0  0
   28.8640   27.1320   49.7680 H   0  0  0  0  0  0  0  0  0  0  0  0
   27.2110   27.7720   47.5270 C   0  0  0  0  0  3  0  0  0  0  0  0
   26.4030   27.5620   48.7550 C   0  0  0  0  0  2  0  0  0  0  0  0
   25.5660   28.7270   49.1910 C   0  0  0  0  0  2  0  0  0  0  0  0
   26.1390   30.0720   48.9400 C   0  0  0  0  0  2  0  0  0  0  0  0
   26.7190   30.2460   47.5640 C   0  0  0  0  0  2  0  0  0  0  0  0
   26.7220   28.9790   46.7630 C   0  0  0  0  0  2  0  0  0  0  0  0
  1  4  1  6  0  0  0
  1  3  1  0  0  0  0
  1  8  1  0  0  0  0
  1  2  1  0  0  0  0
  2  6  1  0  0  0  0
  3  7  1  1  0  0  0
  3  2  1  0  0  0  0
  5  2  1  0  0  0  0
  8 10  1  0  0  0  0
  9  8  1  0  0  0  0
 11 16  1  0  0  0  0
 11 17  1  0  0  0  0
 12 11  2  0  0  0  0
 13 14  2  0  0  0  0
 13 12  1  0  0  0  0
 14 15  1  0  0  0  0
 15  8  1  0  0  0  0
 15 16  2  0  0  0  0
 18 12  1  0  0  0  0
 19 13  1  0  0  0  0
 20  3  1  0  0  0  0
 21 20  2  0  0  0  0
 22 23  1  0  0  0  0
 22 20  1  0  0  0  0
 23 24  2  0  0  0  0
 24 25  1  0  0  0  0
 24 28  1  0  0  0  0
 25 29  1  0  0  0  0
 26 25  2  0  0  0  0
 27 23  1  0  0  0  0
 27 26  1  0  0  0  0
 30 26  1  0  0  0  0
 30 31  1  0  0  0  0
 31 32  1  0  0  0  0
 33 32  1  0  0  0  0
 34 33  1  0  0  0  0
 35 30  1  0  0  0  0
 35 34  1  0  0  0  0
M  END
>  <minimizedAffinity>
-6.5840044

>  <minimizedRMSD>
2.18688416

$$$$
