
     RDKit          3D

 36 38  0  0  0  0  0  0  0  0999 V2000
   38.4049   32.6924   49.3993 C   0  0  0  0  0  0  0  0  0  0  0  0
   38.8987   32.6999   48.0941 C   0  0  0  0  0  0  0  0  0  0  0  0
   38.6976   31.5612   47.2879 C   0  0  0  0  0  0  0  0  0  0  0  0
   38.0195   30.5090   47.8532 N   0  0  0  0  0  0  0  0  0  0  0  0
   37.5586   30.5476   49.1252 C   0  0  0  0  0  0  0  0  0  0  0  0
   37.7580   31.6496   49.8926 N   0  0  0  0  0  0  0  0  0  0  0  0
   36.8353   29.3737   49.6673 C   0  0  0  0  0  0  0  0  0  0  0  0
   35.4253   29.4459   49.1575 C   0  0  2  0  0  0  0  0  0  0  0  0
   34.2732   29.4550   50.1120 C   0  0  0  0  0  0  0  0  0  0  0  0
   34.6008   28.2018   49.4040 C   0  0  1  0  0  0  0  0  0  0  0  0
   38.5396   33.5456   50.0459 H   0  0  0  0  0  0  0  0  0  0  0  0
   39.4282   33.5507   47.6872 H   0  0  0  0  0  0  0  0  0  0  0  0
   39.0545   31.5016   46.2680 H   0  0  0  0  0  0  0  0  0  0  0  0
   37.3582   28.4612   49.2566 H   0  0  0  0  0  0  0  0  0  0  0  0
   36.9068   29.2734   50.7557 H   0  0  0  0  0  0  0  0  0  0  0  0
   35.3179   29.8488   48.1358 H   0  0  0  0  0  0  0  0  0  0  0  0
   34.5652   29.6836   51.1453 H   0  0  0  0  0  0  0  0  0  0  0  0
   33.4219   30.0904   49.7693 H   0  0  0  0  0  0  0  0  0  0  0  0
   35.0235   27.4035   50.0529 H   0  0  0  0  0  0  0  0  0  0  0  0
   33.6138   27.7433   48.3822 C   0  0  0  0  0  0  0  0  0  0  0  0
   33.6579   28.7087   47.2208 C   0  0  0  0  0  0  0  0  0  0  0  0
   32.9736   30.0150   47.5252 C   0  0  0  0  0  0  0  0  0  0  0  0
   31.5252   29.7753   47.8718 C   0  0  0  0  0  0  0  0  0  0  0  0
   31.4822   28.8945   49.0821 C   0  0  0  0  0  0  0  0  0  0  0  0
   32.2141   27.5941   48.9280 C   0  0  0  0  0  0  0  0  0  0  0  0
   33.8817   26.7473   47.9613 H   0  0  0  0  0  0  0  0  0  0  0  0
   34.7395   28.9310   47.0658 H   0  0  0  0  0  0  0  0  0  0  0  0
   33.2345   28.2899   46.2892 H   0  0  0  0  0  0  0  0  0  0  0  0
   33.4636   30.5858   48.3194 H   0  0  0  0  0  0  0  0  0  0  0  0
   33.0459   30.6303   46.6028 H   0  0  0  0  0  0  0  0  0  0  0  0
   31.0664   30.7406   48.1483 H   0  0  0  0  0  0  0  0  0  0  0  0
   30.9879   29.3412   47.0050 H   0  0  0  0  0  0  0  0  0  0  0  0
   31.7812   29.4778   49.9728 H   0  0  0  0  0  0  0  0  0  0  0  0
   30.4029   28.6166   49.2475 H   0  0  0  0  0  0  0  0  0  0  0  0
   32.2674   27.1161   49.9222 H   0  0  0  0  0  0  0  0  0  0  0  0
   31.6455   26.9659   48.2095 H   0  0  0  0  0  0  0  0  0  0  0  0
  1  6  2  0
  2  1  1  0
  3  4  1  0
  3  2  2  0
  4  5  2  0
  5  7  1  0
  5  6  1  0
  8 10  1  0
  8  7  1  0
  8  9  1  0
 10  9  1  0
  1 11  1  0
  2 12  1  0
  3 13  1  0
  7 14  1  0
  7 15  1  0
  8 16  1  6
  9 17  1  0
  9 18  1  0
 10 19  1  1
 20 21  1  0
 21 22  1  0
 22 23  1  0
 23 24  1  0
 24 25  1  0
 25 20  1  0
 20 26  1  0
 21 27  1  0
 21 28  1  0
 22 29  1  0
 22 30  1  0
 23 31  1  0
 23 32  1  0
 24 33  1  0
 24 34  1  0
 25 35  1  0
 25 36  1  0
 10 20  1  0
M  ISO  8  11  14  12  14  13  14  14   8  15   8  16  13  17  13  18  13
M  ISO  1  19  13
M  END
>  <DihAtoms>  (1) 
7,9,19,20

>  <DihDeg>  (1) 
-179.99974548381036

$$$$
