
 OpenBabel03252511363D

 28 30  0  0  0  0  0  0  0  0999 V2000
   36.3040   30.4630   46.4060 C   0  0  0  0  0  0  0  0  0  0  0  0
   35.0020   29.9440   46.3870 C   0  0  0  0  0  0  0  0  0  0  0  0
   34.3660   29.5570   45.2250 C   0  0  0  0  0  0  0  0  0  0  0  0
   35.0330   29.6850   44.0180 C   0  0  0  0  0  0  0  0  0  0  0  0
   36.3150   30.1950   44.0290 C   0  0  0  0  0  0  0  0  0  0  0  0
   36.9500   30.5820   45.2080 C   0  0  0  0  0  0  0  0  0  0  0  0
   34.5000   29.8530   47.3410 H   0  0  0  0  0  0  0  0  0  0  0  0
   33.3570   29.1680   45.3250 H   0  0  0  0  0  0  0  0  0  0  0  0
   34.4930   29.3710   43.1490 H   0  0  0  0  0  0  0  0  0  0  0  0
   36.7520   30.2560   43.0430 H   0  0  0  0  0  0  0  0  0  0  0  0
   37.3400   30.3860   49.9000 C   0  0  0  0  0  0  0  0  0  0  0  0
   38.0030   31.6080   50.0560 C   0  0  0  0  0  0  0  0  0  0  0  0
   38.0960   32.4580   48.9500 C   0  0  0  0  0  0  0  0  0  0  0  0
   37.5340   32.0390   47.8000 N   0  0  0  0  0  0  0  0  0  0  0  0
   36.8970   30.8550   47.6660 C   0  0  0  0  0  0  0  0  0  0  0  0
   36.8160   30.0480   48.7350 N   0  0  0  0  0  0  0  0  0  0  0  0
   38.4350   31.8930   51.0050 H   0  0  0  0  0  0  0  0  0  0  0  0
   38.6050   33.4220   49.0280 H   0  0  0  0  0  0  0  0  0  0  0  0
   37.2420   29.4770   51.1030 C   0  0  0  0  0  0  0  0  0  0  0  0
   35.9060   29.1990   51.3500 F   0  0  0  0  0  0  0  0  0  0  0  0
   37.9790   28.3750   50.8590 F   0  0  0  0  0  0  0  0  0  0  0  0
   37.7270   30.1770   52.2000 F   0  0  0  0  0  0  0  0  0  0  0  0
   38.3230   31.0970   45.0200 C   0  0  0  0  0  0  0  0  0  0  0  0
   38.3500   32.6290   45.1250 C   0  0  0  0  0  0  0  0  0  0  0  0
   39.7060   33.0610   44.6490 C   0  0  0  0  0  0  0  0  0  0  0  0
   40.8280   32.4470   45.4130 C   0  0  0  0  0  0  0  0  0  0  0  0
   40.6690   30.9600   45.6210 C   0  0  0  0  0  0  0  0  0  0  0  0
   39.2580   30.6260   46.1180 C   0  0  0  0  0  0  0  0  0  0  0  0
  1 15  1  0  0  0  0
  2  1  1  0  0  0  0
  2  7  1  0  0  0  0
  3  8  1  0  0  0  0
  3  2  2  0  0  0  0
  4  5  2  0  0  0  0
  4  3  1  0  0  0  0
  5  6  1  0  0  0  0
  6  1  2  0  0  0  0
  9  4  1  0  0  0  0
 10  5  1  0  0  0  0
 11 12  1  0  0  0  0
 11 19  1  0  0  0  0
 12 17  1  0  0  0  0
 13 18  1  0  0  0  0
 13 12  2  0  0  0  0
 14 13  1  0  0  0  0
 15 14  2  0  0  0  0
 15 16  1  0  0  0  0
 16 11  2  0  0  0  0
 19 20  1  0  0  0  0
 19 22  1  0  0  0  0
 21 19  1  0  0  0  0
 23 24  1  0  0  0  0
 23  6  1  0  0  0  0
 23 28  1  0  0  0  0
 25 24  1  0  0  0  0
 25 26  1  0  0  0  0
 26 27  1  0  0  0  0
 27 28  1  0  0  0  0
M  END
>  <minimizedAffinity>
-6.9117136

>  <minimizedRMSD>
0.24110502

$$$$
