
 OpenBabel03252510243D

 21 22  0  0  0  0  0  0  0  0999 V2000
   37.9970   32.2780   48.6020 C   0  0  0  0  0  0  0  0  0  0  0  0
   38.4050   33.3620   49.3930 C   0  0  0  0  0  0  0  0  0  0  0  0
   39.4590   34.1440   48.8650 C   0  0  0  0  0  0  0  0  0  0  0  0
   40.0000   33.8280   47.6750 N   0  0  0  0  0  0  0  0  0  0  0  0
   39.5640   32.7660   46.9540 C   0  0  0  0  0  0  0  0  0  0  0  0
   38.5610   31.9960   47.4250 N   0  0  0  0  0  0  0  0  0  0  0  0
   37.9720   33.6140   50.3410 H   0  0  0  0  0  0  0  0  0  0  0  0
   39.7820   34.9750   49.4570 H   0  0  0  0  0  0  0  0  0  0  0  0
   40.1700   32.4240   45.6400 C   0  0  0  0  0  0  0  0  0  0  0  0
   39.8670   33.4870   44.5990 C   0  0  0  0  0  0  0  0  0  0  0  0
   39.3000   32.9330   43.3300 C   0  0  0  0  0  0  0  0  0  0  0  0
   40.0700   31.7530   42.7870 C   0  0  0  0  0  0  0  0  0  0  0  0
   40.5350   30.8150   43.8590 C   0  0  0  0  0  0  0  0  0  0  0  0
   39.7170   31.1040   45.1020 C   0  0  0  0  0  0  0  0  0  0  0  0
   36.9170   31.4470   49.1080 C   0  0  0  0  0  0  0  0  0  0  0  0
   36.1280   30.8610   48.3230 O   0  0  0  0  0  0  0  0  0  0  0  0
   36.7400   31.2890   50.4720 O   0  0  0  0  0  0  0  0  0  0  0  0
   37.0620   30.0080   51.0060 C   0  0  0  0  0  0  0  0  0  0  0  0
   35.9660   29.1690   51.0060 F   0  0  0  0  0  0  0  0  0  0  0  0
   37.5500   30.1770   52.2940 F   0  0  0  0  0  0  0  0  0  0  0  0
   38.0590   29.3920   50.2720 F   0  0  0  0  0  0  0  0  0  0  0  0
  1 15  1  0  0  0  0
  1  2  1  0  0  0  0
  2  7  1  0  0  0  0
  3  2  2  0  0  0  0
  3  8  1  0  0  0  0
  4  3  1  0  0  0  0
  5  6  1  0  0  0  0
  5  4  2  0  0  0  0
  6  1  2  0  0  0  0
  9  5  1  0  0  0  0
 10  9  1  0  0  0  0
 11 10  1  0  0  0  0
 12 11  1  0  0  0  0
 12 13  1  0  0  0  0
 13 14  1  0  0  0  0
 14  9  1  0  0  0  0
 15 17  1  0  0  0  0
 16 15  2  0  0  0  0
 17 18  1  0  0  0  0
 18 19  1  0  0  0  0
 18 20  1  0  0  0  0
 21 18  1  0  0  0  0
M  END
>  <minimizedAffinity>
-6.28294086

>  <minimizedRMSD>
2.11041355

$$$$
