
 OpenBabel03252513403D

 25 26  0  0  0  0  0  0  0  0999 V2000
   36.9240   29.9640   49.9180 C   0  0  0  0  0  0  0  0  0  0  0  0
   38.0190   30.6780   49.4670 C   0  0  0  0  0  0  0  0  0  0  0  0
   38.0100   31.1620   48.1610 C   0  0  0  0  0  0  0  0  0  0  0  0
   36.9220   30.9080   47.3960 N   0  0  0  0  0  0  0  0  0  0  0  0
   35.8690   30.2050   47.8780 C   0  0  0  0  0  0  0  0  0  0  0  0
   35.8750   29.7410   49.1210 N   0  0  0  0  0  0  0  0  0  0  0  0
   39.1020   31.8970   47.6500 N   0  0  0  0  0  0  0  0  0  0  0  0
   39.0150   32.5960   46.4370 C   0  0  0  0  0  0  0  0  0  0  0  0
   37.9310   32.5180   45.7420 N   0  0  0  0  0  0  0  0  0  0  0  0
   40.1110   33.3740   45.9950 N   0  0  0  0  0  0  0  0  0  0  0  0
   37.8490   33.0770   44.8680 H   0  0  0  0  0  0  0  0  0  0  0  0
   38.8840   30.8860   50.0590 H   0  0  0  0  0  0  0  0  0  0  0  0
   39.9920   31.9120   48.1990 H   0  0  0  0  0  0  0  0  0  0  0  0
   40.4970   32.6480   45.3530 H   0  0  0  0  0  0  0  0  0  0  0  0
   40.3340   34.3590   46.3090 H   0  0  0  0  0  0  0  0  0  0  0  0
   34.7150   29.9700   46.9720 C   0  0  0  0  0  0  0  0  0  0  0  0
   33.9150   28.7550   47.3500 C   0  0  0  0  0  0  0  0  0  0  0  0
   33.5510   27.9040   46.1490 C   0  0  0  0  0  0  0  0  0  0  0  0
   32.9390   28.7970   45.0820 C   0  0  0  0  0  0  0  0  0  0  0  0
   33.8310   29.9460   44.7070 C   0  0  0  0  0  0  0  0  0  0  0  0
   35.1160   29.8290   45.5220 C   0  0  0  0  0  0  0  0  0  0  0  0
   36.9370   29.4410   51.3300 C   0  0  0  0  0  0  0  0  0  0  0  0
   35.6270   29.1510   51.7140 F   0  0  0  0  0  0  0  0  0  0  0  0
   37.7780   28.3990   51.4140 F   0  0  0  0  0  0  0  0  0  0  0  0
   37.3640   30.5030   52.1390 F   0  0  0  0  0  0  0  0  0  0  0  0
  1 22  1  0  0  0  0
  2  1  1  0  0  0  0
  2 12  1  0  0  0  0
  3  2  2  0  0  0  0
  4  5  2  0  0  0  0
  4  3  1  0  0  0  0
  5  6  1  0  0  0  0
  6  1  2  0  0  0  0
  7  3  1  0  0  0  0
  7 13  1  0  0  0  0
  8  7  1  0  0  0  0
  9  8  2  0  0  0  0
 10 15  1  0  0  0  0
 10  8  1  0  0  0  0
 11  9  1  0  0  0  0
 14 10  1  0  0  0  0
 16 17  1  0  0  0  0
 16  5  1  0  0  0  0
 18 17  1  0  0  0  0
 19 18  1  0  0  0  0
 20 19  1  0  0  0  0
 20 21  1  0  0  0  0
 21 16  1  0  0  0  0
 22 24  1  0  0  0  0
 22 23  1  0  0  0  0
 22 25  1  0  0  0  0
M  END
>  <minimizedAffinity>
-6.75142765

>  <minimizedRMSD>
0.15486683

$$$$
