
 OpenBabel03252514053D

 35 38  0  0  1  0  0  0  0  0999 V2000
   35.2560   29.4570   49.0220 C   0  0  2  0  0  0  0  0  0  0  0  0
   34.1150   29.2700   49.9120 C   0  0  0  0  0  0  0  0  0  0  0  0
   34.5630   28.0740   49.2610 C   0  0  1  0  0  0  0  0  0  0  0  0
   35.1540   29.9020   48.0280 H   0  0  0  0  0  0  0  0  0  0  0  0
   33.1470   29.7530   49.6300 H   0  0  0  0  0  0  0  0  0  0  0  0
   34.3090   29.3770   51.0170 H   0  0  0  0  0  0  0  0  0  0  0  0
   35.2420   27.3230   49.6590 H   0  0  0  0  0  0  0  0  0  0  0  0
   36.6410   29.4790   49.6910 C   0  0  0  0  0  0  0  0  0  0  0  0
   37.1660   28.5290   49.4480 H   0  0  0  0  0  0  0  0  0  0  0  0
   36.5260   29.5540   50.7740 H   0  0  0  0  0  0  0  0  0  0  0  0
   37.9480   32.8800   49.4330 C   0  0  0  0  0  0  0  0  0  0  0  0
   38.7060   32.8300   48.2480 C   0  0  0  0  0  0  0  0  0  0  0  0
   38.7540   31.6030   47.5490 C   0  0  0  0  0  0  0  0  0  0  0  0
   38.0640   30.5340   48.0580 N   0  0  0  0  0  0  0  0  0  0  0  0
   37.3550   30.6460   49.2000 C   0  0  0  0  0  0  0  0  0  0  0  0
   37.3050   31.8210   49.8770 N   0  0  0  0  0  0  0  0  0  0  0  0
   37.9690   33.8560   49.9000 H   0  0  0  0  0  0  0  0  0  0  0  0
   39.2700   33.6510   47.8040 H   0  0  0  0  0  0  0  0  0  0  0  0
   39.3140   31.4850   46.6320 H   0  0  0  0  0  0  0  0  0  0  0  0
   33.6800   27.5790   48.1340 C   0  0  0  0  0  0  0  0  0  0  0  0
   33.9040   26.3380   47.8320 O   0  0  0  0  0  0  0  0  0  0  0  0
   32.7060   28.3160   47.4530 O   0  0  0  0  0  0  0  0  0  0  0  0
   31.3630   28.1210   47.6470 C   0  0  0  0  0  0  0  0  0  0  0  0
   30.7430   27.6260   48.8940 C   0  0  0  0  0  0  0  0  0  0  0  0
   29.4000   27.4910   48.9160 C   0  0  0  0  0  0  0  0  0  0  0  0
   28.5930   27.8060   47.8020 C   0  0  0  0  0  0  0  0  0  0  0  0
   29.8400   28.3650   46.5430 S   0  0  0  0  0  0  0  0  0  0  0  0
   31.3970   27.4010   49.7140 H   0  0  0  0  0  0  0  0  0  0  0  0
   28.8530   27.1390   49.7720 H   0  0  0  0  0  0  0  0  0  0  0  0
   27.1920   27.7690   47.5340 C   0  0  0  0  0  0  0  0  0  0  0  0
   26.3880   27.5700   48.7680 C   0  0  0  0  0  0  0  0  0  0  0  0
   25.5560   28.7390   49.2000 C   0  0  0  0  0  0  0  0  0  0  0  0
   26.1330   30.0820   48.9380 C   0  0  0  0  0  0  0  0  0  0  0  0
   26.7080   30.2450   47.5590 C   0  0  0  0  0  0  0  0  0  0  0  0
   26.7040   28.9730   46.7660 C   0  0  0  0  0  0  0  0  0  0  0  0
  1  4  1  6  0  0  0
  1  3  1  0  0  0  0
  1  8  1  0  0  0  0
  1  2  1  0  0  0  0
  2  6  1  0  0  0  0
  3  7  1  1  0  0  0
  3  2  1  0  0  0  0
  5  2  1  0  0  0  0
  8 10  1  0  0  0  0
  9  8  1  0  0  0  0
 11 16  1  0  0  0  0
 11 17  1  0  0  0  0
 12 11  2  0  0  0  0
 13 14  2  0  0  0  0
 13 12  1  0  0  0  0
 14 15  1  0  0  0  0
 15  8  1  0  0  0  0
 15 16  2  0  0  0  0
 18 12  1  0  0  0  0
 19 13  1  0  0  0  0
 20  3  1  0  0  0  0
 21 20  2  0  0  0  0
 22 23  1  0  0  0  0
 22 20  1  0  0  0  0
 23 24  2  0  0  0  0
 24 25  1  0  0  0  0
 24 28  1  0  0  0  0
 25 29  1  0  0  0  0
 26 25  2  0  0  0  0
 27 23  1  0  0  0  0
 27 26  1  0  0  0  0
 30 26  1  0  0  0  0
 30 31  1  0  0  0  0
 31 32  1  0  0  0  0
 33 32  1  0  0  0  0
 34 33  1  0  0  0  0
 35 30  1  0  0  0  0
 35 34  1  0  0  0  0
M  END
>  <minimizedAffinity>
-6.58913565

>  <minimizedRMSD>
0.997694671

$$$$
