
     RDKit          3D

 30 31  0  0  0  0  0  0  0  0999 V2000
   37.9701   30.9263   49.2567 C   0  0  0  0  0  0  0  0  0  0  0  0
   38.3903   32.2576   49.5502 C   0  0  0  0  0  0  0  0  0  0  0  0
   38.8745   33.0544   48.5144 C   0  0  0  0  0  0  0  0  0  0  0  0
   38.9214   32.5149   47.2649 N   0  0  0  0  0  0  0  0  0  0  0  0
   38.5174   31.2614   47.0327 C   0  0  0  0  0  0  0  0  0  0  0  0
   38.0504   30.4678   47.9847 N   0  0  0  0  0  0  0  0  0  0  0  0
   37.4998   30.1615   50.2800 O   0  0  0  0  0  0  0  0  0  0  0  0
   36.1685   29.7518   50.4306 C   0  0  0  0  0  0  0  0  0  0  0  0
   35.8341   29.4196   51.7278 F   0  0  0  0  0  0  0  0  0  0  0  0
   35.2511   30.6333   49.9295 F   0  0  0  0  0  0  0  0  0  0  0  0
   36.0395   28.5766   49.6796 F   0  0  0  0  0  0  0  0  0  0  0  0
   38.3098   32.5839   50.5768 H   0  0  0  0  0  0  0  0  0  0  0  0
   39.1799   34.0556   48.7898 H   0  0  0  0  0  0  0  0  0  0  0  0
   38.6062   30.7589   45.6341 C   0  0  0  0  0  0  0  0  0  0  0  0
   37.2624   30.9039   44.9791 C   0  0  0  0  0  0  0  0  0  0  0  0
   37.3130   30.4302   43.5729 C   0  0  0  0  0  0  0  0  0  0  0  0
   38.2844   29.4028   43.1991 C   0  0  0  0  0  0  0  0  0  0  0  0
   39.2035   28.8807   44.2438 C   0  0  0  0  0  0  0  0  0  0  0  0
   38.8134   29.2377   45.6545 C   0  0  0  0  0  0  0  0  0  0  0  0
   39.4341   31.2296   45.0746 H   0  0  0  0  0  0  0  0  0  0  0  0
   36.9472   31.9552   45.0703 H   0  0  0  0  0  0  0  0  0  0  0  0
   36.5481   30.3149   45.6159 H   0  0  0  0  0  0  0  0  0  0  0  0
   37.4056   31.3589   42.9431 H   0  0  0  0  0  0  0  0  0  0  0  0
   36.2584   30.0956   43.3358 H   0  0  0  0  0  0  0  0  0  0  0  0
   37.7638   28.5289   42.7334 H   0  0  0  0  0  0  0  0  0  0  0  0
   38.9225   29.7970   42.3552 H   0  0  0  0  0  0  0  0  0  0  0  0
   39.3072   27.7748   44.2134 H   0  0  0  0  0  0  0  0  0  0  0  0
   40.2330   29.2820   44.1161 H   0  0  0  0  0  0  0  0  0  0  0  0
   39.6152   28.9413   46.3360 H   0  0  0  0  0  0  0  0  0  0  0  0
   37.8436   28.7673   45.9564 H   0  0  0  0  0  0  0  0  0  0  0  0
  1  2  2  0
  1  7  1  0
  3  2  1  0
  4  3  2  0
  5  4  1  0
  5  6  2  0
  6  1  1  0
  7  8  1  0
  8  9  1  0
 10  8  1  0
 11  8  1  0
  2 12  1  0
  3 13  1  0
 14 15  1  0
 15 16  1  0
 16 17  1  0
 17 18  1  0
 18 19  1  0
 19 14  1  0
 14 20  1  0
 15 21  1  0
 15 22  1  0
 16 23  1  0
 16 24  1  0
 17 25  1  0
 17 26  1  0
 18 27  1  0
 18 28  1  0
 19 29  1  0
 19 30  1  0
  5 14  1  0
M  ISO  2  12  14  13  14
M  END
>  <DihAtoms>  (1) 
3,4,13,14

>  <DihDeg>  (1) 
-127.26350248677333

$$$$
