
 OpenBabel03252514053D

 35 38  0  0  1  0  0  0  0  0999 V2000
   35.2540   29.4570   49.0250 C   0  0  2  0  0  0  0  0  0  0  0  0
   34.1130   29.2670   49.9150 C   0  0  0  0  0  0  0  0  0  0  0  0
   34.5630   28.0730   49.2620 C   0  0  1  0  0  0  0  0  0  0  0  0
   35.1520   29.9050   48.0320 H   0  0  0  0  0  0  0  0  0  0  0  0
   33.1440   29.7490   49.6330 H   0  0  0  0  0  0  0  0  0  0  0  0
   34.3070   29.3710   51.0200 H   0  0  0  0  0  0  0  0  0  0  0  0
   35.2430   27.3220   49.6580 H   0  0  0  0  0  0  0  0  0  0  0  0
   36.6390   29.4800   49.6940 C   0  0  0  0  0  0  0  0  0  0  0  0
   37.1640   28.5290   49.4530 H   0  0  0  0  0  0  0  0  0  0  0  0
   36.5240   29.5560   50.7770 H   0  0  0  0  0  0  0  0  0  0  0  0
   37.9480   32.8800   49.4320 C   0  0  0  0  0  0  0  0  0  0  0  0
   38.7050   32.8280   48.2470 C   0  0  0  0  0  0  0  0  0  0  0  0
   38.7520   31.6000   47.5490 C   0  0  0  0  0  0  0  0  0  0  0  0
   38.0620   30.5320   48.0600 N   0  0  0  0  0  0  0  0  0  0  0  0
   37.3530   30.6460   49.2020 C   0  0  0  0  0  0  0  0  0  0  0  0
   37.3050   31.8210   49.8780 N   0  0  0  0  0  0  0  0  0  0  0  0
   37.9700   33.8560   49.8980 H   0  0  0  0  0  0  0  0  0  0  0  0
   39.2700   33.6480   47.8020 H   0  0  0  0  0  0  0  0  0  0  0  0
   39.3110   31.4810   46.6310 H   0  0  0  0  0  0  0  0  0  0  0  0
   33.6800   27.5800   48.1330 C   0  0  0  0  0  0  0  0  0  0  0  0
   33.9050   26.3380   47.8290 O   0  0  0  0  0  0  0  0  0  0  0  0
   32.7060   28.3160   47.4520 O   0  0  0  0  0  0  0  0  0  0  0  0
   31.3640   28.1220   47.6470 C   0  0  0  0  0  0  0  0  0  0  0  0
   30.7430   27.6280   48.8940 C   0  0  0  0  0  0  0  0  0  0  0  0
   29.4000   27.4930   48.9150 C   0  0  0  0  0  0  0  0  0  0  0  0
   28.5940   27.8060   47.8010 C   0  0  0  0  0  0  0  0  0  0  0  0
   29.8410   28.3650   46.5420 S   0  0  0  0  0  0  0  0  0  0  0  0
   31.3980   27.4030   49.7140 H   0  0  0  0  0  0  0  0  0  0  0  0
   28.8530   27.1410   49.7710 H   0  0  0  0  0  0  0  0  0  0  0  0
   27.1920   27.7690   47.5330 C   0  0  0  0  0  3  0  0  0  0  0  0
   26.3900   27.5690   48.7660 C   0  0  0  0  0  2  0  0  0  0  0  0
   25.5570   28.7380   49.2000 C   0  0  0  0  0  2  0  0  0  0  0  0
   26.1330   30.0800   48.9380 C   0  0  0  0  0  2  0  0  0  0  0  0
   26.7070   30.2450   47.5590 C   0  0  0  0  0  2  0  0  0  0  0  0
   26.7040   28.9730   46.7650 C   0  0  0  0  0  2  0  0  0  0  0  0
  1  4  1  6  0  0  0
  1  3  1  0  0  0  0
  1  8  1  0  0  0  0
  1  2  1  0  0  0  0
  2  6  1  0  0  0  0
  3  7  1  1  0  0  0
  3  2  1  0  0  0  0
  5  2  1  0  0  0  0
  8 10  1  0  0  0  0
  9  8  1  0  0  0  0
 11 16  1  0  0  0  0
 11 17  1  0  0  0  0
 12 11  2  0  0  0  0
 13 14  2  0  0  0  0
 13 12  1  0  0  0  0
 14 15  1  0  0  0  0
 15  8  1  0  0  0  0
 15 16  2  0  0  0  0
 18 12  1  0  0  0  0
 19 13  1  0  0  0  0
 20  3  1  0  0  0  0
 21 20  2  0  0  0  0
 22 23  1  0  0  0  0
 22 20  1  0  0  0  0
 23 24  2  0  0  0  0
 24 25  1  0  0  0  0
 24 28  1  0  0  0  0
 25 29  1  0  0  0  0
 26 25  2  0  0  0  0
 27 23  1  0  0  0  0
 27 26  1  0  0  0  0
 30 26  1  0  0  0  0
 30 31  1  0  0  0  0
 31 32  1  0  0  0  0
 33 32  1  0  0  0  0
 34 33  1  0  0  0  0
 35 30  1  0  0  0  0
 35 34  1  0  0  0  0
M  END
>  <minimizedAffinity>
-6.58857298

>  <minimizedRMSD>
1.47273028

$$$$
