REMARK  Name = 
REMARK  3 active torsions:
REMARK  status: ('A' for Active; 'I' for Inactive)
REMARK    1  A    between atoms: C_1  and  O_7
REMARK    2  A    between atoms: C_5  and  C_14
REMARK    3  A    between atoms: O_7  and  C_8
REMARK                            x       y       z     vdW  Elec       q    Type
REMARK                         _______ _______ _______ _____ _____    ______ ____
ROOT
ATOM      1  C   UNL     1      37.970  30.926  49.257  0.00  0.00    +0.000 A 
ATOM      2  C   UNL     1      38.390  32.258  49.550  0.00  0.00    +0.000 A 
ATOM      3  C   UNL     1      38.874  33.054  48.514  0.00  0.00    +0.000 A 
ATOM      4  N   UNL     1      38.921  32.515  47.265  0.00  0.00    +0.000 NA
ATOM      5  C   UNL     1      38.517  31.261  47.033  0.00  0.00    +0.000 A 
ATOM      6  N   UNL     1      38.050  30.468  47.985  0.00  0.00    +0.000 NA
ATOM      7  H   UNL     1      38.310  32.584  50.577  0.00  0.00    +0.000 HD
ATOM      8  H   UNL     1      39.180  34.056  48.790  0.00  0.00    +0.000 HD
ENDROOT
BRANCH   5   9
ATOM      9  C   UNL     1      38.606  30.759  45.634  0.00  0.00    +0.000 C 
ATOM     10  C   UNL     1      37.262  30.904  44.979  0.00  0.00    +0.000 C 
ATOM     11  C   UNL     1      37.313  30.430  43.573  0.00  0.00    +0.000 C 
ATOM     12  C   UNL     1      38.284  29.403  43.199  0.00  0.00    +0.000 C 
ATOM     13  C   UNL     1      39.203  28.881  44.244  0.00  0.00    +0.000 C 
ATOM     14  C   UNL     1      38.813  29.238  45.654  0.00  0.00    +0.000 C 
ENDBRANCH   5   9
BRANCH   1  15
ATOM     15  O   UNL     1      37.500  30.162  50.280  0.00  0.00    +0.000 OA
BRANCH  15  16
ATOM     16  C   UNL     1      36.169  29.752  50.431  0.00  0.00    +0.000 C 
ATOM     17  F   UNL     1      35.834  29.420  51.728  0.00  0.00    +0.000 F 
ATOM     18  F   UNL     1      35.251  30.633  49.929  0.00  0.00    +0.000 F 
ATOM     19  F   UNL     1      36.039  28.577  49.680  0.00  0.00    +0.000 F 
ENDBRANCH  15  16
ENDBRANCH   1  15
TORSDOF 3
