
 OpenBabel03252513583D

 25 27  0  0  1  0  0  0  0  0999 V2000
   34.7690   30.0440   47.2780 C   0  0  2  0  0  0  0  0  0  0  0  0
   33.4980   30.1360   46.4930 C   0  0  0  0  0  0  0  0  0  0  0  0
   34.6980   29.5730   45.8430 C   0  0  1  0  0  0  0  0  0  0  0  0
   35.4130   30.9280   47.4200 H   0  0  0  0  0  0  0  0  0  0  0  0
   32.6800   29.5400   46.9180 H   0  0  0  0  0  0  0  0  0  0  0  0
   33.1850   31.1860   46.2850 H   0  0  0  0  0  0  0  0  0  0  0  0
   34.6430   28.4800   45.6430 H   0  0  0  0  0  0  0  0  0  0  0  0
   35.3060   30.3940   44.7540 C   0  0  0  0  0  3  0  0  0  0  0  0
   34.2480   30.6370   43.7030 C   0  0  0  0  0  2  0  0  0  0  0  0
   33.9850   29.4210   42.8540 C   0  0  0  0  0  2  0  0  0  0  0  0
   35.2490   28.9950   42.1490 C   0  0  0  0  0  2  0  0  0  0  0  0
   36.2680   28.6640   43.1940 C   0  0  0  0  0  2  0  0  0  0  0  0
   36.5490   29.7750   44.1610 C   0  0  0  0  0  2  0  0  0  0  0  0
   34.9620   28.9500   48.2870 C   0  0  0  0  0  0  0  0  0  0  0  0
   35.4160   28.0380   47.8000 H   0  0  0  0  0  0  0  0  0  0  0  0
   34.0290   28.5920   48.7360 H   0  0  0  0  0  0  0  0  0  0  0  0
   36.6530   29.6670   51.4760 C   0  0  0  0  0  0  0  0  0  0  0  0
   37.8090   30.3380   51.0740 C   0  0  0  0  0  0  0  0  0  0  0  0
   38.0210   30.5530   49.6970 C   0  0  0  0  0  0  0  0  0  0  0  0
   37.0610   30.0790   48.8370 N   0  0  0  0  0  0  0  0  0  0  0  0
   35.9560   29.4330   49.2750 C   0  0  0  0  0  0  0  0  0  0  0  0
   35.7610   29.2310   50.6040 N   0  0  0  0  0  0  0  0  0  0  0  0
   36.4570   29.4840   52.5220 H   0  0  0  0  0  0  0  0  0  0  0  0
   38.5400   30.6970   51.7850 H   0  0  0  0  0  0  0  0  0  0  0  0
   38.8940   31.0670   49.3180 H   0  0  0  0  0  0  0  0  0  0  0  0
  1  4  1  1  0  0  0
  1 14  1  0  0  0  0
  2  5  1  0  0  0  0
  2  1  1  0  0  0  0
  3  7  1  6  0  0  0
  3  2  1  0  0  0  0
  3  1  1  0  0  0  0
  6  2  1  0  0  0  0
  8  3  1  0  0  0  0
  9  8  1  0  0  0  0
 10  9  1  0  0  0  0
 11 10  1  0  0  0  0
 11 12  1  0  0  0  0
 12 13  1  0  0  0  0
 13  8  1  0  0  0  0
 14 16  1  0  0  0  0
 14 21  1  0  0  0  0
 15 14  1  0  0  0  0
 17 23  1  0  0  0  0
 18 17  1  0  0  0  0
 18 24  1  0  0  0  0
 19 18  2  0  0  0  0
 20 21  2  0  0  0  0
 20 19  1  0  0  0  0
 21 22  1  0  0  0  0
 22 17  2  0  0  0  0
 25 19  1  0  0  0  0
M  END
>  <minimizedAffinity>
-3.93304539

>  <minimizedRMSD>
4.83147001

$$$$
