
 OpenBabel03252510403D

 34 37  0  0  0  0  0  0  0  0999 V2000
   36.6810   28.9720   49.9310 C   0  0  0  0  0  0  0  0  0  0  0  0
   37.5190   29.7190   49.0760 C   0  0  0  0  0  0  0  0  0  0  0  0
   36.9360   30.8340   48.3830 C   0  0  0  0  0  0  0  0  0  0  0  0
   35.5880   31.0780   48.6200 N   0  0  0  0  0  0  0  0  0  0  0  0
   34.8500   30.3290   49.4440 C   0  0  0  0  0  0  0  0  0  0  0  0
   35.3800   29.2870   50.0970 N   0  0  0  0  0  0  0  0  0  0  0  0
   37.6810   31.6430   47.5090 N   0  0  0  0  0  0  0  0  0  0  0  0
   38.6030   32.6400   48.0940 C   0  0  0  0  0  0  0  0  0  0  0  0
   39.6750   32.9910   47.1390 C   0  0  0  0  0  0  0  0  0  0  0  0
   39.1570   33.2690   45.7970 N   0  0  0  0  0  0  0  0  0  0  0  0
   38.2730   32.3010   45.2420 C   0  0  0  0  0  0  0  0  0  0  0  0
   37.4970   31.4450   46.1310 C   0  0  0  0  0  0  0  0  0  0  0  0
   37.1770   28.1510   50.4190 H   0  0  0  0  0  0  0  0  0  0  0  0
   38.5540   29.5050   48.9150 H   0  0  0  0  0  0  0  0  0  0  0  0
   33.8160   30.6450   49.5260 H   0  0  0  0  0  0  0  0  0  0  0  0
   39.0390   32.2320   49.0110 H   0  0  0  0  0  0  0  0  0  0  0  0
   37.9550   33.5410   48.2990 H   0  0  0  0  0  0  0  0  0  0  0  0
   40.4420   32.1930   47.1230 H   0  0  0  0  0  0  0  0  0  0  0  0
   40.1700   33.9230   47.4840 H   0  0  0  0  0  0  0  0  0  0  0  0
   39.3620   34.0990   45.1970 H   0  0  0  0  0  0  0  0  0  0  0  0
   38.1600   32.1800   44.2000 H   0  0  0  0  0  0  0  0  0  0  0  0
   36.6900   30.5610   45.4450 N   0  0  0  0  0  0  0  0  0  0  0  0
   35.4750   30.1440   45.8250 C   0  0  0  0  0  0  0  0  0  0  0  0
   34.9000   29.2620   44.9300 C   0  0  0  0  0  0  0  0  0  0  0  0
   35.8140   29.1190   43.9220 N   0  0  0  0  0  0  0  0  0  0  0  0
   36.8670   29.9150   44.2760 C   0  0  0  0  0  0  0  0  0  0  0  0
   34.9810   30.4650   46.7550 H   0  0  0  0  0  0  0  0  0  0  0  0
   33.9420   28.7830   44.9920 H   0  0  0  0  0  0  0  0  0  0  0  0
   38.1010   30.0390   43.4200 C   0  0  0  0  0  0  0  0  0  0  0  0
   37.7310   30.0200   41.9620 C   0  0  0  0  0  0  0  0  0  0  0  0
   38.2500   28.8470   41.1940 C   0  0  0  0  0  0  0  0  0  0  0  0
   38.1440   27.5820   41.9920 C   0  0  0  0  0  0  0  0  0  0  0  0
   38.9230   27.6490   43.2680 C   0  0  0  0  0  0  0  0  0  0  0  0
   39.1260   29.0290   43.8120 C   0  0  0  0  0  0  0  0  0  0  0  0
  1  6  1  0  0  0  0
  1 13  1  0  0  0  0
  2  1  2  0  0  0  0
  3  4  2  0  0  0  0
  3  2  1  0  0  0  0
  4  5  1  0  0  0  0
  5 15  1  0  0  0  0
  5  6  2  0  0  0  0
  7  8  1  0  0  0  0
  7  3  1  0  0  0  0
  8 17  1  0  0  0  0
  8 16  1  0  0  0  0
  9 19  1  0  0  0  0
  9  8  1  0  0  0  0
 10  9  1  0  0  0  0
 11 10  1  0  0  0  0
 11 12  2  0  0  0  0
 12  7  1  0  0  0  0
 14  2  1  0  0  0  0
 18  9  1  0  0  0  0
 20 10  1  0  0  0  0
 21 11  1  0  0  0  0
 22 23  1  0  0  0  0
 22 12  1  0  0  0  0
 23 27  1  0  0  0  0
 24 28  1  0  0  0  0
 24 23  2  0  0  0  0
 25 26  2  0  0  0  0
 25 24  1  0  0  0  0
 26 22  1  0  0  0  0
 29 34  1  0  0  0  0
 29 26  1  0  0  0  0
 30 29  1  0  0  0  0
 31 30  1  0  0  0  0
 31 32  1  0  0  0  0
 32 33  1  0  0  0  0
 33 34  1  0  0  0  0
M  END
>  <minimizedAffinity>
-5.27088118

>  <minimizedRMSD>
3.5994873

$$$$
