
 OpenBabel03252514053D

 34 37  0  0  1  0  0  0  0  0999 V2000
   35.3670   29.4320   48.9220 C   0  0  2  0  0  0  0  0  0  0  0  0
   34.2280   29.3460   49.8290 C   0  0  0  0  0  0  0  0  0  0  0  0
   34.6190   28.0950   49.2430 C   0  0  1  0  0  0  0  0  0  0  0  0
   35.3050   29.7080   47.8660 H   0  0  0  0  0  0  0  0  0  0  0  0
   33.2610   29.8280   49.5670 H   0  0  0  0  0  0  0  0  0  0  0  0
   34.4380   29.4910   50.9300 H   0  0  0  0  0  0  0  0  0  0  0  0
   35.2850   27.3230   49.6370 H   0  0  0  0  0  0  0  0  0  0  0  0
   36.7560   29.4370   49.5830 C   0  0  0  0  0  0  0  0  0  0  0  0
   37.2620   28.4760   49.3830 H   0  0  0  0  0  0  0  0  0  0  0  0
   36.6370   29.5270   50.6810 H   0  0  0  0  0  0  0  0  0  0  0  0
   38.1550   32.8090   49.4350 C   0  0  0  0  0  0  0  0  0  0  0  0
   38.8230   32.8120   48.1910 C   0  0  0  0  0  0  0  0  0  0  0  0
   38.7750   31.6280   47.4180 C   0  0  0  0  0  0  0  0  0  0  0  0
   38.0880   30.5540   47.9180 N   0  0  0  0  0  0  0  0  0  0  0  0
   37.4730   30.6090   49.1040 C   0  0  0  0  0  0  0  0  0  0  0  0
   37.5130   31.7430   49.8550 N   0  0  0  0  0  0  0  0  0  0  0  0
   38.2550   33.7620   49.9410 H   0  0  0  0  0  0  0  0  0  0  0  0
   39.3820   33.6240   47.7390 H   0  0  0  0  0  0  0  0  0  0  0  0
   39.2640   31.5570   46.4560 H   0  0  0  0  0  0  0  0  0  0  0  0
   33.7000   27.5840   48.1500 C   0  0  0  0  0  0  0  0  0  0  0  0
   34.0300   26.4130   47.7110 O   0  0  0  0  0  0  0  0  0  0  0  0
   32.5920   28.2320   47.6190 O   0  0  0  0  0  0  0  0  0  0  0  0
   31.3050   27.9860   48.0100 C   0  0  0  0  0  0  0  0  0  0  0  0
   30.9000   27.4900   49.3500 C   0  0  0  0  0  0  0  0  0  0  0  0
   29.5840   27.2990   49.5830 C   0  0  0  0  0  0  0  0  0  0  0  0
   28.6150   27.5570   48.5960 C   0  0  0  0  0  0  0  0  0  0  0  0
   29.6240   28.1410   47.1420 S   0  0  0  0  0  0  0  0  0  0  0  0
   31.6970   27.3180   50.0480 H   0  0  0  0  0  0  0  0  0  0  0  0
   29.2370   26.9430   50.5370 H   0  0  0  0  0  0  0  0  0  0  0  0
   27.2430   27.4590   48.5340 C   0  0  0  0  0  3  0  0  0  0  0  0
   26.5690   28.0760   49.7320 C   0  0  0  0  0  2  0  0  0  0  0  0
   26.3590   29.4980   49.3570 C   0  0  0  0  0  2  0  0  0  0  0  0
   26.1360   29.4900   47.8720 C   0  0  0  0  0  2  0  0  0  0  0  0
   26.5630   28.1350   47.3690 C   0  0  0  0  0  2  0  0  0  0  0  0
  1  4  1  6  0  0  0
  1  3  1  0  0  0  0
  1  8  1  0  0  0  0
  1  2  1  0  0  0  0
  2  6  1  0  0  0  0
  3  7  1  1  0  0  0
  3  2  1  0  0  0  0
  5  2  1  0  0  0  0
  8 10  1  0  0  0  0
  9  8  1  0  0  0  0
 11 16  1  0  0  0  0
 11 17  1  0  0  0  0
 12 11  2  0  0  0  0
 13 14  2  0  0  0  0
 13 12  1  0  0  0  0
 14 15  1  0  0  0  0
 15  8  1  0  0  0  0
 15 16  2  0  0  0  0
 18 12  1  0  0  0  0
 19 13  1  0  0  0  0
 20  3  1  0  0  0  0
 21 20  2  0  0  0  0
 22 23  1  0  0  0  0
 22 20  1  0  0  0  0
 23 24  2  0  0  0  0
 24 25  1  0  0  0  0
 24 28  1  0  0  0  0
 25 29  1  0  0  0  0
 26 25  2  0  0  0  0
 27 23  1  0  0  0  0
 27 26  1  0  0  0  0
 30 26  1  0  0  0  0
 30 31  1  0  0  0  0
 32 31  1  0  0  0  0
 33 32  1  0  0  0  0
 34 33  1  0  0  0  0
 34 30  1  0  0  0  0
M  END
>  <minimizedAffinity>
-6.22595024

>  <minimizedRMSD>
1.04124558

$$$$
