
 OpenBabel03252514053D

 34 37  0  0  1  0  0  0  0  0999 V2000
   35.3370   29.0540   48.5010 C   0  0  2  0  0  0  0  0  0  0  0  0
   34.0280   29.2750   49.1050 C   0  0  0  0  0  0  0  0  0  0  0  0
   34.4100   27.8950   48.9980 C   0  0  1  0  0  0  0  0  0  0  0  0
   35.5290   29.0100   47.4260 H   0  0  0  0  0  0  0  0  0  0  0  0
   33.1910   29.6890   48.5010 H   0  0  0  0  0  0  0  0  0  0  0  0
   34.0100   29.7300   50.1390 H   0  0  0  0  0  0  0  0  0  0  0  0
   34.8970   27.2520   49.7350 H   0  0  0  0  0  0  0  0  0  0  0  0
   36.5460   29.2080   49.4390 C   0  0  0  0  0  0  0  0  0  0  0  0
   37.1930   28.3170   49.3550 H   0  0  0  0  0  0  0  0  0  0  0  0
   36.1900   29.2620   50.4870 H   0  0  0  0  0  0  0  0  0  0  0  0
   37.5660   32.7130   49.5960 C   0  0  0  0  0  0  0  0  0  0  0  0
   38.4440   32.8280   48.4960 C   0  0  0  0  0  0  0  0  0  0  0  0
   38.6680   31.6730   47.7110 C   0  0  0  0  0  0  0  0  0  0  0  0
   38.0250   30.5150   48.0620 N   0  0  0  0  0  0  0  0  0  0  0  0
   37.2040   30.4650   49.1160 C   0  0  0  0  0  0  0  0  0  0  0  0
   36.9810   31.5710   49.8760 N   0  0  0  0  0  0  0  0  0  0  0  0
   37.4670   33.6530   50.1250 H   0  0  0  0  0  0  0  0  0  0  0  0
   38.9820   33.7100   48.1650 H   0  0  0  0  0  0  0  0  0  0  0  0
   39.3280   31.6870   46.8540 H   0  0  0  0  0  0  0  0  0  0  0  0
   33.7000   27.1150   47.9070 C   0  0  0  0  0  0  0  0  0  0  0  0
   34.1480   25.9110   47.7660 O   0  0  0  0  0  0  0  0  0  0  0  0
   32.6620   27.5640   47.1000 O   0  0  0  0  0  0  0  0  0  0  0  0
   31.4440   27.9670   47.5780 C   0  0  0  0  0  0  0  0  0  0  0  0
   30.8400   27.5200   48.8580 C   0  0  0  0  0  0  0  0  0  0  0  0
   29.6270   28.0120   49.1900 C   0  0  0  0  0  0  0  0  0  0  0  0
   28.9470   28.9200   48.3600 C   0  0  0  0  0  0  0  0  0  0  0  0
   30.1080   29.1420   46.9190 S   0  0  0  0  0  0  0  0  0  0  0  0
   31.4200   26.8270   49.4360 H   0  0  0  0  0  0  0  0  0  0  0  0
   29.1450   27.7220   50.1080 H   0  0  0  0  0  0  0  0  0  0  0  0
   27.7360   29.5740   48.4230 C   0  0  0  0  0  3  0  0  0  0  0  0
   26.9700   29.4890   47.1290 C   0  0  0  0  0  2  0  0  0  0  0  0
   26.1620   28.2480   47.2470 C   0  0  0  0  0  2  0  0  0  0  0  0
   25.8390   28.1200   48.7080 C   0  0  0  0  0  2  0  0  0  0  0  0
   26.7430   29.0750   49.4450 C   0  0  0  0  0  2  0  0  0  0  0  0
  1  4  1  6  0  0  0
  1  3  1  0  0  0  0
  1  2  1  0  0  0  0
  1  8  1  0  0  0  0
  2  6  1  0  0  0  0
  3  2  1  0  0  0  0
  3  7  1  1  0  0  0
  5  2  1  0  0  0  0
  8 10  1  0  0  0  0
  9  8  1  0  0  0  0
 11 16  1  0  0  0  0
 11 17  1  0  0  0  0
 12 11  2  0  0  0  0
 13 14  2  0  0  0  0
 13 12  1  0  0  0  0
 14 15  1  0  0  0  0
 15  8  1  0  0  0  0
 15 16  2  0  0  0  0
 18 12  1  0  0  0  0
 19 13  1  0  0  0  0
 20  3  1  0  0  0  0
 21 20  2  0  0  0  0
 22 23  1  0  0  0  0
 22 20  1  0  0  0  0
 23 24  2  0  0  0  0
 24 25  1  0  0  0  0
 24 28  1  0  0  0  0
 25 29  1  0  0  0  0
 26 30  1  0  0  0  0
 26 25  2  0  0  0  0
 27 23  1  0  0  0  0
 27 26  1  0  0  0  0
 30 34  1  0  0  0  0
 31 32  1  0  0  0  0
 31 30  1  0  0  0  0
 32 33  1  0  0  0  0
 33 34  1  0  0  0  0
M  END
>  <minimizedAffinity>
-5.72093821

>  <minimizedRMSD>
1.86194444

$$$$
