
 OpenBabel03252513403D

 24 25  0  0  0  0  0  0  0  0999 V2000
   36.9080   29.9540   49.8880 C   0  0  0  0  0  0  0  0  0  0  0  0
   38.0090   30.6630   49.4420 C   0  0  0  0  0  0  0  0  0  0  0  0
   37.9860   31.1400   48.1230 C   0  0  0  0  0  0  0  0  0  0  0  0
   36.8970   30.8830   47.3620 N   0  0  0  0  0  0  0  0  0  0  0  0
   35.8360   30.1800   47.8470 C   0  0  0  0  0  0  0  0  0  0  0  0
   35.8580   29.7270   49.1030 N   0  0  0  0  0  0  0  0  0  0  0  0
   39.0780   31.8670   47.6130 N   0  0  0  0  0  0  0  0  0  0  0  0
   38.9890   32.5740   46.4050 C   0  0  0  0  0  0  0  0  0  0  0  0
   37.9100   32.5010   45.7210 N   0  0  0  0  0  0  0  0  0  0  0  0
   40.0840   33.3620   45.9510 N   0  0  0  0  0  0  0  0  0  0  0  0
   37.8170   33.0500   44.8330 H   0  0  0  0  0  0  0  0  0  0  0  0
   38.8560   30.8530   50.0610 H   0  0  0  0  0  0  0  0  0  0  0  0
   39.9810   31.8770   48.1540 H   0  0  0  0  0  0  0  0  0  0  0  0
   40.2880   33.2820   44.9240 H   0  0  0  0  0  0  0  0  0  0  0  0
   40.7390   34.0130   46.4250 H   0  0  0  0  0  0  0  0  0  0  0  0
   34.6920   29.9530   46.9330 C   0  0  0  0  0  0  0  0  0  0  0  0
   35.1130   29.8130   45.4830 C   0  0  0  0  0  0  0  0  0  0  0  0
   33.9040   29.0860   44.8960 C   0  0  0  0  0  0  0  0  0  0  0  0
   33.7580   27.9620   45.9110 C   0  0  0  0  0  0  0  0  0  0  0  0
   33.9290   28.7020   47.2220 C   0  0  0  0  0  0  0  0  0  0  0  0
   36.9190   29.4340   51.3140 C   0  0  0  0  0  0  0  0  0  0  0  0
   35.6210   29.1450   51.7080 F   0  0  0  0  0  0  0  0  0  0  0  0
   37.7750   28.4020   51.3960 F   0  0  0  0  0  0  0  0  0  0  0  0
   37.3450   30.5070   52.1200 F   0  0  0  0  0  0  0  0  0  0  0  0
  1 21  1  0  0  0  0
  2  1  1  0  0  0  0
  2 12  1  0  0  0  0
  3  2  2  0  0  0  0
  4  5  2  0  0  0  0
  4  3  1  0  0  0  0
  5  6  1  0  0  0  0
  6  1  2  0  0  0  0
  7  3  1  0  0  0  0
  7 13  1  0  0  0  0
  8  7  1  0  0  0  0
  9  8  2  0  0  0  0
 10  8  1  0  0  0  0
 10 15  1  0  0  0  0
 11  9  1  0  0  0  0
 14 10  1  0  0  0  0
 16 20  1  0  0  0  0
 16  5  1  0  0  0  0
 17 16  1  0  0  0  0
 18 17  1  0  0  0  0
 18 19  1  0  0  0  0
 19 20  1  0  0  0  0
 21 23  1  0  0  0  0
 21 22  1  0  0  0  0
 21 24  1  0  0  0  0
M  END
>  <minimizedAffinity>
-6.62093782

>  <minimizedRMSD>
0.4437356

$$$$
