
 OpenBabel03252514053D

 34 37  0  0  1  0  0  0  0  0999 V2000
   35.5110   29.4260   48.6920 C   0  0  2  0  0  0  0  0  0  0  0  0
   34.3490   29.5000   49.5710 C   0  0  0  0  0  0  0  0  0  0  0  0
   34.6960   28.1710   49.1530 C   0  0  1  0  0  0  0  0  0  0  0  0
   35.4850   29.5720   47.6090 H   0  0  0  0  0  0  0  0  0  0  0  0
   33.4110   29.9860   49.2250 H   0  0  0  0  0  0  0  0  0  0  0  0
   34.5400   29.7710   50.6510 H   0  0  0  0  0  0  0  0  0  0  0  0
   35.3170   27.4260   49.6570 H   0  0  0  0  0  0  0  0  0  0  0  0
   36.8840   29.4540   49.3860 C   0  0  0  0  0  0  0  0  0  0  0  0
   37.4340   28.5260   49.1510 H   0  0  0  0  0  0  0  0  0  0  0  0
   36.7360   29.4820   50.4840 H   0  0  0  0  0  0  0  0  0  0  0  0
   38.1000   32.8990   49.4210 C   0  0  0  0  0  0  0  0  0  0  0  0
   38.8360   32.9780   48.2180 C   0  0  0  0  0  0  0  0  0  0  0  0
   38.8980   31.8190   47.4090 C   0  0  0  0  0  0  0  0  0  0  0  0
   38.2440   30.6940   47.8360 N   0  0  0  0  0  0  0  0  0  0  0  0
   37.5600   30.6770   48.9850 C   0  0  0  0  0  0  0  0  0  0  0  0
   37.4950   31.7870   49.7700 N   0  0  0  0  0  0  0  0  0  0  0  0
   38.1180   33.8380   49.9600 H   0  0  0  0  0  0  0  0  0  0  0  0
   39.3750   33.8330   47.8240 H   0  0  0  0  0  0  0  0  0  0  0  0
   39.4450   31.8060   46.4760 H   0  0  0  0  0  0  0  0  0  0  0  0
   33.7800   27.5680   48.1050 C   0  0  0  0  0  0  0  0  0  0  0  0
   34.2110   26.4430   47.6370 O   0  0  0  0  0  0  0  0  0  0  0  0
   32.5810   28.0950   47.6410 O   0  0  0  0  0  0  0  0  0  0  0  0
   31.3640   27.8340   48.2090 C   0  0  0  0  0  0  0  0  0  0  0  0
   31.0140   28.0830   49.6300 C   0  0  0  0  0  0  0  0  0  0  0  0
   29.7650   27.7720   50.0370 C   0  0  0  0  0  0  0  0  0  0  0  0
   28.8140   27.2300   49.1540 C   0  0  0  0  0  0  0  0  0  0  0  0
   29.7380   27.1190   47.5390 S   0  0  0  0  0  0  0  0  0  0  0  0
   31.7920   28.4990   50.2400 H   0  0  0  0  0  0  0  0  0  0  0  0
   29.4590   27.9350   51.0560 H   0  0  0  0  0  0  0  0  0  0  0  0
   27.5040   26.8210   49.2700 C   0  0  0  0  0  3  0  0  0  0  0  0
   27.0300   26.8100   50.7000 C   0  0  0  0  0  2  0  0  0  0  0  0
   26.4920   28.1750   50.9300 C   0  0  0  0  0  2  0  0  0  0  0  0
   25.9340   28.6130   49.6050 C   0  0  0  0  0  2  0  0  0  0  0  0
   26.4640   27.6580   48.5670 C   0  0  0  0  0  2  0  0  0  0  0  0
  1  4  1  6  0  0  0
  1  3  1  0  0  0  0
  1  8  1  0  0  0  0
  1  2  1  0  0  0  0
  2  6  1  0  0  0  0
  3  2  1  0  0  0  0
  3  7  1  1  0  0  0
  5  2  1  0  0  0  0
  8 10  1  0  0  0  0
  9  8  1  0  0  0  0
 11 16  1  0  0  0  0
 11 17  1  0  0  0  0
 12 11  2  0  0  0  0
 13 14  2  0  0  0  0
 13 12  1  0  0  0  0
 14 15  1  0  0  0  0
 15  8  1  0  0  0  0
 15 16  2  0  0  0  0
 18 12  1  0  0  0  0
 19 13  1  0  0  0  0
 20  3  1  0  0  0  0
 21 20  2  0  0  0  0
 22 20  1  0  0  0  0
 22 23  1  0  0  0  0
 23 24  2  0  0  0  0
 24 25  1  0  0  0  0
 24 28  1  0  0  0  0
 25 29  1  0  0  0  0
 26 30  1  0  0  0  0
 26 25  2  0  0  0  0
 27 23  1  0  0  0  0
 27 26  1  0  0  0  0
 30 31  1  0  0  0  0
 31 32  1  0  0  0  0
 33 32  1  0  0  0  0
 34 30  1  0  0  0  0
 34 33  1  0  0  0  0
M  END
>  <minimizedAffinity>
-6.13428879

>  <minimizedRMSD>
0.644833803

$$$$
