
 OpenBabel03252511313D

 17 18  0  0  0  0  0  0  0  0999 V2000
   37.2290   30.6520   49.2280 C   0  0  0  0  0  0  0  0  0  0  0  0
   37.0730   31.8850   49.8780 C   0  0  0  0  0  0  0  0  0  0  0  0
   37.8030   32.9800   49.3820 C   0  0  0  0  0  0  0  0  0  0  0  0
   38.6040   32.7750   48.3130 N   0  0  0  0  0  0  0  0  0  0  0  0
   38.7330   31.5590   47.7020 C   0  0  0  0  0  0  0  0  0  0  0  0
   38.0390   30.5260   48.1780 N   0  0  0  0  0  0  0  0  0  0  0  0
   36.4300   32.0220   50.7250 H   0  0  0  0  0  0  0  0  0  0  0  0
   37.7380   33.9600   49.8250 H   0  0  0  0  0  0  0  0  0  0  0  0
   39.6410   31.4640   46.5450 C   0  0  0  0  0  0  0  0  0  0  0  0
   39.0760   30.5490   45.4600 C   0  0  0  0  0  0  0  0  0  0  0  0
   39.9070   30.9160   44.2630 C   0  0  0  0  0  0  0  0  0  0  0  0
   40.5510   32.2440   44.5370 C   0  0  0  0  0  0  0  0  0  0  0  0
   39.7990   32.7360   45.7680 C   0  0  0  0  0  0  0  0  0  0  0  0
   36.4500   29.4700   49.7540 C   0  0  0  0  0  0  0  0  0  0  0  0
   35.8170   28.8350   48.7160 F   0  0  0  0  0  0  0  0  0  0  0  0
   37.3220   28.6770   50.4550 F   0  0  0  0  0  0  0  0  0  0  0  0
   35.4690   29.9730   50.5970 F   0  0  0  0  0  0  0  0  0  0  0  0
  1 14  1  0  0  0  0
  1  2  1  0  0  0  0
  2  7  1  0  0  0  0
  3  8  1  0  0  0  0
  3  2  2  0  0  0  0
  4  3  1  0  0  0  0
  5  6  1  0  0  0  0
  5  4  2  0  0  0  0
  6  1  2  0  0  0  0
  9  5  1  0  0  0  0
 10  9  1  0  0  0  0
 11 12  1  0  0  0  0
 11 10  1  0  0  0  0
 12 13  1  0  0  0  0
 13  9  1  0  0  0  0
 14 16  1  0  0  0  0
 14 17  1  0  0  0  0
 15 14  1  0  0  0  0
M  END
>  <minimizedAffinity>
-5.76900291

>  <minimizedRMSD>
2.86620188

$$$$
