
     RDKit          3D

 33 35  0  0  0  0  0  0  0  0999 V2000
   38.4082   32.6941   49.3982 C   0  0  0  0  0  0  0  0  0  0  0  0
   38.9074   32.7038   48.0750 C   0  0  0  0  0  0  0  0  0  0  0  0
   38.6878   31.5607   47.3079 C   0  0  0  0  0  0  0  0  0  0  0  0
   38.0166   30.5079   47.8558 N   0  0  0  0  0  0  0  0  0  0  0  0
   37.5545   30.5463   49.1372 C   0  0  0  0  0  0  0  0  0  0  0  0
   37.7618   31.6441   49.8830 N   0  0  0  0  0  0  0  0  0  0  0  0
   36.8380   29.3825   49.6764 C   0  0  0  0  0  0  0  0  0  0  0  0
   35.4155   29.4491   49.1552 C   0  0  2  0  0  0  0  0  0  0  0  0
   34.2845   29.4440   50.1145 C   0  0  0  0  0  0  0  0  0  0  0  0
   34.5977   28.2034   49.3897 C   0  0  1  0  0  0  0  0  0  0  0  0
   38.6038   33.6079   49.9576 H   0  0  0  0  0  0  0  0  0  0  0  0
   39.4371   33.5531   47.6645 H   0  0  0  0  0  0  0  0  0  0  0  0
   39.0503   31.5208   46.2912 H   0  0  0  0  0  0  0  0  0  0  0  0
   36.7743   29.4372   50.7837 H   0  0  0  0  0  0  0  0  0  0  0  0
   37.3195   28.4492   49.3507 H   0  0  0  0  0  0  0  0  0  0  0  0
   35.2862   29.8570   48.1237 H   0  0  0  0  0  0  0  0  0  0  0  0
   33.4915   30.1530   49.8652 H   0  0  0  0  0  0  0  0  0  0  0  0
   34.5642   29.5180   51.2050 H   0  0  0  0  0  0  0  0  0  0  0  0
   35.0636   27.3913   50.0170 H   0  0  0  0  0  0  0  0  0  0  0  0
   33.7274   27.6557   48.2918 C   0  0  0  0  0  0  0  0  0  0  0  0
   32.4608   28.4591   48.0723 C   0  0  0  0  0  0  0  0  0  0  0  0
   31.4923   27.9778   49.1055 C   0  0  0  0  0  0  0  0  0  0  0  0
   32.1912   26.8376   49.8497 C   0  0  0  0  0  0  0  0  0  0  0  0
   33.1278   26.3483   48.7672 C   0  0  0  0  0  0  0  0  0  0  0  0
   34.2709   27.5385   47.3333 H   0  0  0  0  0  0  0  0  0  0  0  0
   32.0986   28.1573   47.0598 H   0  0  0  0  0  0  0  0  0  0  0  0
   32.6473   29.5495   48.1161 H   0  0  0  0  0  0  0  0  0  0  0  0
   31.1081   28.7590   49.7899 H   0  0  0  0  0  0  0  0  0  0  0  0
   30.5582   27.5874   48.6044 H   0  0  0  0  0  0  0  0  0  0  0  0
   31.4735   26.0615   50.1795 H   0  0  0  0  0  0  0  0  0  0  0  0
   32.7878   27.2181   50.6867 H   0  0  0  0  0  0  0  0  0  0  0  0
   32.5077   25.9534   47.9403 H   0  0  0  0  0  0  0  0  0  0  0  0
   33.8814   25.6345   49.1322 H   0  0  0  0  0  0  0  0  0  0  0  0
  1  6  2  0
  2  1  1  0
  3  4  1  0
  3  2  2  0
  4  5  2  0
  5  7  1  0
  5  6  1  0
  8 10  1  0
  8  7  1  0
  8  9  1  0
 10  9  1  0
  1 11  1  0
  2 12  1  0
  3 13  1  0
  7 14  1  0
  7 15  1  0
  8 16  1  6
  9 17  1  0
  9 18  1  0
 10 19  1  1
 20 21  1  0
 21 22  1  0
 22 23  1  0
 23 24  1  0
 24 20  1  0
 20 25  1  0
 21 26  1  0
 21 27  1  0
 22 28  1  0
 22 29  1  0
 23 30  1  0
 23 31  1  0
 24 32  1  0
 24 33  1  0
 10 20  1  0
M  ISO  8  11  14  12  14  13  14  14   8  15   8  16  13  17  13  18  13
M  ISO  1  19  13
M  END
>  <DihAtoms>  (1) 
7,9,19,20

>  <DihDeg>  (1) 
-60.006971581683096

$$$$
