
 OpenBabel03252513583D

 24 26  0  0  1  0  0  0  0  0999 V2000
   36.6310   29.4440   49.3900 C   0  0  0  0  0  0  0  0  0  0  0  0
   36.7220   29.2430   50.4790 H   0  0  0  0  0  0  0  0  0  0  0  0
   36.9790   28.5860   48.7970 H   0  0  0  0  0  0  0  0  0  0  0  0
   37.9410   32.8780   49.4220 C   0  0  0  0  0  0  0  0  0  0  0  0
   38.7780   32.9140   48.2820 C   0  0  0  0  0  0  0  0  0  0  0  0
   38.8690   31.7460   47.5270 C   0  0  0  0  0  0  0  0  0  0  0  0
   38.1630   30.6450   47.9140 N   0  0  0  0  0  0  0  0  0  0  0  0
   37.3690   30.6590   49.0210 C   0  0  0  0  0  0  0  0  0  0  0  0
   37.2760   31.7810   49.7540 N   0  0  0  0  0  0  0  0  0  0  0  0
   37.9030   33.8130   49.9790 H   0  0  0  0  0  0  0  0  0  0  0  0
   39.3280   33.8010   47.9970 H   0  0  0  0  0  0  0  0  0  0  0  0
   39.4950   31.7240   46.6470 H   0  0  0  0  0  0  0  0  0  0  0  0
   35.1640   29.7090   49.1180 C   0  0  2  0  0  0  0  0  0  0  0  0
   34.1450   29.2550   50.0960 C   0  0  0  0  0  0  0  0  0  0  0  0
   34.3350   28.4740   48.8650 C   0  0  1  0  0  0  0  0  0  0  0  0
   34.9350   30.5320   48.3990 H   0  0  0  0  0  0  0  0  0  0  0  0
   33.3540   29.9860   50.2810 H   0  0  0  0  0  0  0  0  0  0  0  0
   34.5450   28.8400   51.0660 H   0  0  0  0  0  0  0  0  0  0  0  0
   34.8390   27.4770   49.0070 H   0  0  0  0  0  0  0  0  0  0  0  0
   33.3300   28.4580   47.7450 C   0  0  0  0  0  3  0  0  0  0  0  0
   32.0040   27.8360   48.1350 C   0  0  0  0  0  2  0  0  0  0  0  0
   32.1970   26.3590   48.0070 C   0  0  0  0  0  2  0  0  0  0  0  0
   33.6120   26.1570   47.4580 C   0  0  0  0  0  2  0  0  0  0  0  0
   33.7930   27.4580   46.7050 C   0  0  0  0  0  2  0  0  0  0  0  0
  1  2  1  0  0  0  0
  3  1  1  0  0  0  0
  4  9  1  0  0  0  0
  4 10  1  0  0  0  0
  5  4  2  0  0  0  0
  6  7  2  0  0  0  0
  6  5  1  0  0  0  0
  7  8  1  0  0  0  0
  8  1  1  0  0  0  0
  8  9  2  0  0  0  0
 11  5  1  0  0  0  0
 12  6  1  0  0  0  0
 13 16  1  6  0  0  0
 13  1  1  0  0  0  0
 13 14  1  0  0  0  0
 14 17  1  0  0  0  0
 14 18  1  0  0  0  0
 15 19  1  1  0  0  0
 15 13  1  0  0  0  0
 15 14  1  0  0  0  0
 20 21  1  0  0  0  0
 20 15  1  0  0  0  0
 22 21  1  0  0  0  0
 23 22  1  0  0  0  0
 24 23  1  0  0  0  0
 24 20  1  0  0  0  0
M  END
>  <minimizedAffinity>
-4.96359825

>  <minimizedRMSD>
1.20385933

$$$$
