
     RDKit          3D

 43 46  0  0  0  0  0  0  0  0999 V2000
   35.2972   29.4079   48.9890 C   0  0  2  0  0  0  0  0  0  0  0  0
   34.1897   29.3544   49.9372 C   0  0  0  0  0  0  0  0  0  0  0  0
   34.5340   28.0902   49.3502 C   0  0  1  0  0  0  0  0  0  0  0  0
   36.7091   29.3907   49.5986 C   0  0  0  0  0  0  0  0  0  0  0  0
   38.0675   32.7784   49.4333 C   0  0  0  0  0  0  0  0  0  0  0  0
   38.7511   32.7763   48.1974 C   0  0  0  0  0  0  0  0  0  0  0  0
   38.7274   31.5837   47.4363 C   0  0  0  0  0  0  0  0  0  0  0  0
   38.0467   30.5056   47.9388 N   0  0  0  0  0  0  0  0  0  0  0  0
   37.4169   30.5661   49.1166 C   0  0  0  0  0  0  0  0  0  0  0  0
   37.4341   31.7094   49.8562 N   0  0  0  0  0  0  0  0  0  0  0  0
   33.5659   27.5868   48.2959 C   0  0  0  0  0  0  0  0  0  0  0  0
   33.9071   26.4464   47.7919 O   0  0  0  0  0  0  0  0  0  0  0  0
   32.4058   28.2154   47.8597 O   0  0  0  0  0  0  0  0  0  0  0  0
   31.1458   27.8267   48.2247 C   0  0  0  0  0  0  0  0  0  0  0  0
   30.6299   27.8030   49.6166 C   0  0  0  0  0  0  0  0  0  0  0  0
   29.3582   27.3945   49.8134 C   0  0  0  0  0  0  0  0  0  0  0  0
   28.5362   27.0015   48.7422 C   0  0  0  0  0  0  0  0  0  0  0  0
   29.6372   27.2101   47.2532 S   0  0  0  0  0  0  0  0  0  0  0  0
   35.2023   29.6753   47.9333 H   0  0  0  0  0  0  0  0  0  0  0  0
   33.2245   29.8533   49.7046 H   0  0  0  0  0  0  0  0  0  0  0  0
   34.4416   29.5046   51.0282 H   0  0  0  0  0  0  0  0  0  0  0  0
   35.1978   27.3079   49.7283 H   0  0  0  0  0  0  0  0  0  0  0  0
   37.2001   28.4304   49.3636 H   0  0  0  0  0  0  0  0  0  0  0  0
   36.6303   29.4612   50.7024 H   0  0  0  0  0  0  0  0  0  0  0  0
   38.1504   33.7375   49.9300 H   0  0  0  0  0  0  0  0  0  0  0  0
   39.3063   33.5896   47.7433 H   0  0  0  0  0  0  0  0  0  0  0  0
   39.2288   31.5088   46.4806 H   0  0  0  0  0  0  0  0  0  0  0  0
   31.3169   28.1178   50.3785 H   0  0  0  0  0  0  0  0  0  0  0  0
   28.9342   27.3611   50.8018 H   0  0  0  0  0  0  0  0  0  0  0  0
   27.2399   26.5485   48.6279 C   0  0  0  0  0  0  0  0  0  0  0  0
   26.7486   25.8924   49.8920 C   0  0  0  0  0  0  0  0  0  0  0  0
   26.1584   26.9988   50.6879 C   0  0  0  0  0  0  0  0  0  0  0  0
   25.6019   27.9634   49.6792 C   0  0  0  0  0  0  0  0  0  0  0  0
   26.1794   27.5823   48.3401 C   0  0  0  0  0  0  0  0  0  0  0  0
   27.1405   25.7506   47.8261 H   0  0  0  0  0  0  0  0  0  0  0  0
   27.5625   25.3470   50.4199 H   0  0  0  0  0  0  0  0  0  0  0  0
   25.9441   25.1586   49.6772 H   0  0  0  0  0  0  0  0  0  0  0  0
   25.3573   26.6405   51.3930 H   0  0  0  0  0  0  0  0  0  0  0  0
   26.8686   27.5583   51.3328 H   0  0  0  0  0  0  0  0  0  0  0  0
   24.4805   27.8949   49.6989 H   0  0  0  0  0  0  0  0  0  0  0  0
   25.8316   29.0358   49.9403 H   0  0  0  0  0  0  0  0  0  0  0  0
   26.5862   28.4585   47.7924 H   0  0  0  0  0  0  0  0  0  0  0  0
   25.3486   27.1010   47.7718 H   0  0  0  0  0  0  0  0  0  0  0  0
  1  3  1  0
  1  4  1  0
  1  2  1  0
  3  2  1  0
  5 10  2  0
  6  5  1  0
  7  8  1  0
  7  6  2  0
  8  9  2  0
  9  4  1  0
  9 10  1  0
 11  3  1  0
 12 11  2  0
 13 14  1  0
 13 11  1  0
 14 15  2  0
 15 16  1  0
 17 16  2  0
 18 14  1  0
 18 17  1  0
  1 19  1  6
  2 20  1  0
  2 21  1  0
  3 22  1  1
  4 23  1  0
  4 24  1  0
  5 25  1  0
  6 26  1  0
  7 27  1  0
 15 28  1  0
 16 29  1  0
 30 31  1  0
 31 32  1  0
 32 33  1  0
 33 34  1  0
 34 30  1  0
 30 35  1  0
 31 36  1  0
 31 37  1  0
 32 38  1  0
 32 39  1  0
 33 40  1  0
 33 41  1  0
 34 42  1  0
 34 43  1  0
 17 30  1  0
M  ISO  8  19  13  20  13  21  13  22  13  23   8  24   8  25  14  26  14
M  ISO  3  27  14  28  14  29  14
M  END
>  <DihAtoms>  (1) 
15,16,29,30

>  <DihDeg>  (1) 
-69.90458592734312

$$$$
