
 OpenBabel03252514053D

 34 37  0  0  1  0  0  0  0  0999 V2000
   35.3710   29.4320   48.9140 C   0  0  2  0  0  0  0  0  0  0  0  0
   34.2290   29.3550   49.8190 C   0  0  0  0  0  0  0  0  0  0  0  0
   34.6180   28.0990   49.2420 C   0  0  1  0  0  0  0  0  0  0  0  0
   35.3110   29.7020   47.8560 H   0  0  0  0  0  0  0  0  0  0  0  0
   33.2640   29.8370   49.5520 H   0  0  0  0  0  0  0  0  0  0  0  0
   34.4370   29.5060   50.9200 H   0  0  0  0  0  0  0  0  0  0  0  0
   35.2810   27.3280   49.6420 H   0  0  0  0  0  0  0  0  0  0  0  0
   36.7580   29.4380   49.5780 C   0  0  0  0  0  0  0  0  0  0  0  0
   37.2650   28.4770   49.3800 H   0  0  0  0  0  0  0  0  0  0  0  0
   36.6370   29.5280   50.6760 H   0  0  0  0  0  0  0  0  0  0  0  0
   38.1590   32.8090   49.4360 C   0  0  0  0  0  0  0  0  0  0  0  0
   38.8260   32.8140   48.1920 C   0  0  0  0  0  0  0  0  0  0  0  0
   38.7770   31.6320   47.4170 C   0  0  0  0  0  0  0  0  0  0  0  0
   38.0900   30.5570   47.9150 N   0  0  0  0  0  0  0  0  0  0  0  0
   37.4750   30.6100   49.1020 C   0  0  0  0  0  0  0  0  0  0  0  0
   37.5160   31.7430   49.8540 N   0  0  0  0  0  0  0  0  0  0  0  0
   38.2590   33.7610   49.9440 H   0  0  0  0  0  0  0  0  0  0  0  0
   39.3860   33.6270   47.7410 H   0  0  0  0  0  0  0  0  0  0  0  0
   39.2660   31.5630   46.4550 H   0  0  0  0  0  0  0  0  0  0  0  0
   33.7000   27.5830   48.1500 C   0  0  0  0  0  0  0  0  0  0  0  0
   34.0320   26.4110   47.7150 O   0  0  0  0  0  0  0  0  0  0  0  0
   32.5920   28.2290   47.6160 O   0  0  0  0  0  0  0  0  0  0  0  0
   31.3050   27.9840   48.0090 C   0  0  0  0  0  0  0  0  0  0  0  0
   30.9010   27.4920   49.3500 C   0  0  0  0  0  0  0  0  0  0  0  0
   29.5850   27.3010   49.5840 C   0  0  0  0  0  0  0  0  0  0  0  0
   28.6160   27.5570   48.5970 C   0  0  0  0  0  0  0  0  0  0  0  0
   29.6240   28.1370   47.1410 S   0  0  0  0  0  0  0  0  0  0  0  0
   31.6980   27.3210   50.0480 H   0  0  0  0  0  0  0  0  0  0  0  0
   29.2380   26.9480   50.5390 H   0  0  0  0  0  0  0  0  0  0  0  0
   27.2430   27.4590   48.5360 C   0  0  0  0  0  3  0  0  0  0  0  0
   26.5700   28.0770   49.7340 C   0  0  0  0  0  2  0  0  0  0  0  0
   26.3590   29.4980   49.3580 C   0  0  0  0  0  2  0  0  0  0  0  0
   26.1360   29.4890   47.8720 C   0  0  0  0  0  2  0  0  0  0  0  0
   26.5630   28.1340   47.3710 C   0  0  0  0  0  2  0  0  0  0  0  0
  1  4  1  6  0  0  0
  1  3  1  0  0  0  0
  1  8  1  0  0  0  0
  1  2  1  0  0  0  0
  2  6  1  0  0  0  0
  3  7  1  1  0  0  0
  3  2  1  0  0  0  0
  5  2  1  0  0  0  0
  8 10  1  0  0  0  0
  9  8  1  0  0  0  0
 11 16  1  0  0  0  0
 11 17  1  0  0  0  0
 12 11  2  0  0  0  0
 13 14  2  0  0  0  0
 13 12  1  0  0  0  0
 14 15  1  0  0  0  0
 15  8  1  0  0  0  0
 15 16  2  0  0  0  0
 18 12  1  0  0  0  0
 19 13  1  0  0  0  0
 20  3  1  0  0  0  0
 21 20  2  0  0  0  0
 22 23  1  0  0  0  0
 22 20  1  0  0  0  0
 23 24  2  0  0  0  0
 24 25  1  0  0  0  0
 24 28  1  0  0  0  0
 25 29  1  0  0  0  0
 26 25  2  0  0  0  0
 27 23  1  0  0  0  0
 27 26  1  0  0  0  0
 30 26  1  0  0  0  0
 30 31  1  0  0  0  0
 32 31  1  0  0  0  0
 33 32  1  0  0  0  0
 34 33  1  0  0  0  0
 34 30  1  0  0  0  0
M  END
>  <minimizedAffinity>
-6.22985649

>  <minimizedRMSD>
0.625577331

$$$$
