
 OpenBabel03252514053D

 38 41  0  0  1  0  0  0  0  0999 V2000
   37.3510   31.9470   48.5810 C   0  0  2  0  0  0  0  0  0  0  0  0
   37.0690   31.6150   49.9720 C   0  0  0  0  0  0  0  0  0  0  0  0
   36.7720   30.5670   49.0380 C   0  0  1  0  0  0  0  0  0  0  0  0
   36.7070   32.5460   47.9180 H   0  0  0  0  0  0  0  0  0  0  0  0
   36.2470   32.1360   50.5450 H   0  0  0  0  0  0  0  0  0  0  0  0
   37.9620   31.4910   50.6520 H   0  0  0  0  0  0  0  0  0  0  0  0
   37.3980   29.7260   48.7420 H   0  0  0  0  0  0  0  0  0  0  0  0
   38.8090   31.7840   48.1200 C   0  0  0  0  0  0  0  0  0  0  0  0
   39.4510   32.3910   48.7640 H   0  0  0  0  0  0  0  0  0  0  0  0
   39.1320   30.7280   48.2680 H   0  0  0  0  0  0  0  0  0  0  0  0
   40.0670   33.2590   45.0250 C   0  0  0  0  0  0  0  0  0  0  0  0
   39.0210   33.0200   44.1200 C   0  0  0  0  0  0  0  0  0  0  0  0
   37.8790   32.3420   44.6020 C   0  0  0  0  0  0  0  0  0  0  0  0
   37.8580   31.9580   45.9180 N   0  0  0  0  0  0  0  0  0  0  0  0
   38.8930   32.2170   46.7360 C   0  0  0  0  0  0  0  0  0  0  0  0
   39.9900   32.8670   46.2760 N   0  0  0  0  0  0  0  0  0  0  0  0
   40.8800   33.7810   44.5430 H   0  0  0  0  0  0  0  0  0  0  0  0
   38.9210   33.2680   43.0830 H   0  0  0  0  0  0  0  0  0  0  0  0
   37.0030   32.0910   44.0230 H   0  0  0  0  0  0  0  0  0  0  0  0
   35.2960   30.3520   48.7560 C   0  0  0  0  0  0  0  0  0  0  0  0
   34.5410   30.5830   49.7760 O   0  0  0  0  0  0  0  0  0  0  0  0
   34.7280   29.9560   47.5470 O   0  0  0  0  0  0  0  0  0  0  0  0
   33.8570   28.9080   47.4230 C   0  0  0  0  0  0  0  0  0  0  0  0
   34.0610   27.5560   47.9930 C   0  0  0  0  0  0  0  0  0  0  0  0
   33.1030   26.6270   47.7840 C   0  0  0  0  0  0  0  0  0  0  0  0
   31.9410   26.9270   47.0470 C   0  0  0  0  0  0  0  0  0  0  0  0
   32.1760   28.6970   46.5730 S   0  0  0  0  0  0  0  0  0  0  0  0
   34.9660   27.3910   48.5460 H   0  0  0  0  0  0  0  0  0  0  0  0
   33.1640   25.6210   48.1590 H   0  0  0  0  0  0  0  0  0  0  0  0
   30.8340   26.2420   46.6750 C   0  0  0  0  0  0  0  0  0  0  0  0
   29.5700   26.7310   46.9280 C   0  0  0  0  0  0  0  0  0  0  0  0
   29.3780   27.6750   47.4300 H   0  0  0  0  0  0  0  0  0  0  0  0
   28.4370   26.0070   46.5350 C   0  0  0  0  0  3  0  0  0  0  0  0
   28.6040   24.7810   45.8820 C   0  0  0  0  0  0  0  0  0  0  0  0
   27.7250   24.2070   45.5690 H   0  0  0  0  0  0  0  0  0  0  0  0
   29.8750   24.2690   45.6150 C   0  0  0  0  0  0  0  0  0  0  0  0
   29.9870   23.3220   45.1110 H   0  0  0  0  0  0  0  0  0  0  0  0
   30.9750   25.0320   46.0300 C   0  0  0  0  0  3  0  0  0  0  0  0
  1  4  1  6  0  0  0
  1  3  1  0  0  0  0
  1  2  1  0  0  0  0
  2  5  1  0  0  0  0
  2  6  1  0  0  0  0
  3  7  1  6  0  0  0
  3  2  1  0  0  0  0
  8 10  1  0  0  0  0
  8  1  1  0  0  0  0
  8  9  1  0  0  0  0
 11 16  1  0  0  0  0
 12 13  1  0  0  0  0
 12 11  2  0  0  0  0
 13 14  2  0  0  0  0
 14 15  1  0  0  0  0
 15  8  1  0  0  0  0
 16 15  2  0  0  0  0
 17 11  1  0  0  0  0
 18 12  1  0  0  0  0
 19 13  1  0  0  0  0
 20  3  1  0  0  0  0
 20 21  2  0  0  0  0
 22 20  1  0  0  0  0
 23 22  1  0  0  0  0
 23 24  2  0  0  0  0
 24 28  1  0  0  0  0
 25 24  1  0  0  0  0
 25 29  1  0  0  0  0
 26 25  2  0  0  0  0
 27 26  1  0  0  0  0
 27 23  1  0  0  0  0
 30 31  1  0  0  0  0
 30 26  1  0  0  0  0
 31 32  1  0  0  0  0
 33 31  2  0  0  0  0
 34 33  1  0  0  0  0
 35 34  1  0  0  0  0
 36 34  2  0  0  0  0
 36 38  1  0  0  0  0
 37 36  1  0  0  0  0
 38 30  2  0  0  0  0
M  END
>  <minimizedAffinity>
-5.57620382

>  <minimizedRMSD>
3.88202357

$$$$
