
     RDKit          3D

 30 32  0  0  0  0  0  0  0  0999 V2000
   38.4114   32.6973   49.3962 C   0  0  0  0  0  0  0  0  0  0  0  0
   38.9139   32.6945   48.0786 C   0  0  0  0  0  0  0  0  0  0  0  0
   38.7021   31.5575   47.3017 C   0  0  0  0  0  0  0  0  0  0  0  0
   38.0186   30.5118   47.8653 N   0  0  0  0  0  0  0  0  0  0  0  0
   37.5540   30.5518   49.1273 C   0  0  0  0  0  0  0  0  0  0  0  0
   37.7598   31.6537   49.8790 N   0  0  0  0  0  0  0  0  0  0  0  0
   36.8291   29.3887   49.6620 C   0  0  0  0  0  0  0  0  0  0  0  0
   35.4048   29.4690   49.1759 C   0  0  2  0  0  0  0  0  0  0  0  0
   34.2783   29.4215   50.1284 C   0  0  0  0  0  0  0  0  0  0  0  0
   34.6001   28.1902   49.3787 C   0  0  1  0  0  0  0  0  0  0  0  0
   38.6281   33.6252   49.9153 H   0  0  0  0  0  0  0  0  0  0  0  0
   39.4603   33.5143   47.6088 H   0  0  0  0  0  0  0  0  0  0  0  0
   39.0640   31.5046   46.2931 H   0  0  0  0  0  0  0  0  0  0  0  0
   37.2706   28.4333   49.2914 H   0  0  0  0  0  0  0  0  0  0  0  0
   36.8448   29.3765   50.7685 H   0  0  0  0  0  0  0  0  0  0  0  0
   35.2562   30.0030   48.1930 H   0  0  0  0  0  0  0  0  0  0  0  0
   33.3900   30.0239   49.8728 H   0  0  0  0  0  0  0  0  0  0  0  0
   34.4876   29.4384   51.2265 H   0  0  0  0  0  0  0  0  0  0  0  0
   35.0829   27.3636   49.9544 H   0  0  0  0  0  0  0  0  0  0  0  0
   33.7573   27.7148   48.2481 C   0  0  0  0  0  0  0  0  0  0  0  0
   34.1248   26.5177   47.6296 C   0  0  0  0  0  0  0  0  0  0  0  0
   34.9824   25.9329   47.9343 H   0  0  0  0  0  0  0  0  0  0  0  0
   33.3489   26.0631   46.5752 C   0  0  0  0  0  0  0  0  0  0  0  0
   32.2580   26.7974   46.1800 C   0  0  0  0  0  0  0  0  0  0  0  0
   31.6070   26.4999   45.3619 H   0  0  0  0  0  0  0  0  0  0  0  0
   31.8679   27.9935   46.7775 C   0  0  0  0  0  0  0  0  0  0  0  0
   31.0048   28.5591   46.4526 H   0  0  0  0  0  0  0  0  0  0  0  0
   32.6523   28.4447   47.8367 C   0  0  0  0  0  0  0  0  0  0  0  0
   33.5982   25.1251   46.0563 H   0  0  0  0  0  0  0  0  0  0  0  0
   32.3974   29.3786   48.3477 H   0  0  0  0  0  0  0  0  0  0  0  0
  1  6  2  0
  2  1  1  0
  3  4  1  0
  3  2  2  0
  4  5  2  0
  5  7  1  0
  5  6  1  0
  8 10  1  0
  8  7  1  0
  8  9  1  0
 10  9  1  0
  1 11  1  0
  2 12  1  0
  3 13  1  0
  7 14  1  0
  7 15  1  0
  8 16  1  6
  9 17  1  0
  9 18  1  0
 10 19  1  1
 20 21  2  0
 21 22  1  0
 21 23  1  0
 23 24  2  0
 24 25  1  0
 24 26  1  0
 26 27  1  0
 26 28  2  0
 28 20  1  0
 23 29  1  0
 28 30  1  0
 10 20  1  0
M  ISO  8  11  14  12  14  13  14  14   8  15   8  16  13  17  13  18  13
M  ISO  4  19  13  22  16  25  16  27  16
M  END
>  <DihAtoms>  (1) 
7,9,19,20

>  <DihDeg>  (1) 
142.9645686953059

$$$$
