
 OpenBabel03252514053D

 38 41  0  0  1  0  0  0  0  0999 V2000
   35.2400   29.1330   48.5140 C   0  0  2  0  0  0  0  0  0  0  0  0
   33.9860   29.4200   49.1980 C   0  0  0  0  0  0  0  0  0  0  0  0
   34.2830   28.0220   49.0610 C   0  0  1  0  0  0  0  0  0  0  0  0
   35.3960   29.1430   47.4240 H   0  0  0  0  0  0  0  0  0  0  0  0
   33.1140   29.8870   48.6550 H   0  0  0  0  0  0  0  0  0  0  0  0
   34.0660   29.8870   50.2240 H   0  0  0  0  0  0  0  0  0  0  0  0
   34.7690   27.3600   49.7760 H   0  0  0  0  0  0  0  0  0  0  0  0
   36.5170   29.2000   49.3680 C   0  0  0  0  0  0  0  0  0  0  0  0
   36.2390   29.1270   50.4220 H   0  0  0  0  0  0  0  0  0  0  0  0
   37.1580   28.3140   49.1530 H   0  0  0  0  0  0  0  0  0  0  0  0
   37.5530   32.6950   49.6060 C   0  0  0  0  0  0  0  0  0  0  0  0
   38.4440   32.8280   48.5300 C   0  0  0  0  0  0  0  0  0  0  0  0
   38.6770   31.6900   47.7260 C   0  0  0  0  0  0  0  0  0  0  0  0
   38.0220   30.5260   48.0410 N   0  0  0  0  0  0  0  0  0  0  0  0
   37.1800   30.4620   49.0870 C   0  0  0  0  0  0  0  0  0  0  0  0
   36.9550   31.5530   49.8600 N   0  0  0  0  0  0  0  0  0  0  0  0
   37.4570   33.6260   50.1440 H   0  0  0  0  0  0  0  0  0  0  0  0
   39.0070   33.6720   48.1870 H   0  0  0  0  0  0  0  0  0  0  0  0
   39.3320   31.6460   46.8700 H   0  0  0  0  0  0  0  0  0  0  0  0
   33.4670   27.2890   48.0120 C   0  0  0  0  0  0  0  0  0  0  0  0
   33.8650   26.0790   47.8070 O   0  0  0  0  0  0  0  0  0  0  0  0
   32.3790   27.7930   47.3020 O   0  0  0  0  0  0  0  0  0  0  0  0
   31.1530   28.0370   47.8600 C   0  0  0  0  0  0  0  0  0  0  0  0
   30.7350   27.6150   49.2160 C   0  0  0  0  0  0  0  0  0  0  0  0
   29.4870   27.9360   49.6240 C   0  0  0  0  0  0  0  0  0  0  0  0
   28.6060   28.6510   48.7900 C   0  0  0  0  0  0  0  0  0  0  0  0
   29.5920   28.9230   47.2520 S   0  0  0  0  0  0  0  0  0  0  0  0
   31.4520   27.0750   49.8040 H   0  0  0  0  0  0  0  0  0  0  0  0
   29.0960   27.6730   50.5900 H   0  0  0  0  0  0  0  0  0  0  0  0
   27.3370   29.1110   48.9000 C   0  0  0  0  0  0  0  0  0  0  0  0
   27.0290   30.4320   48.6460 C   0  0  0  0  0  0  0  0  0  0  0  0
   27.7630   31.1750   48.3490 H   0  0  0  0  0  0  0  0  0  0  0  0
   25.7100   30.8880   48.7660 C   0  0  0  0  0  3  0  0  0  0  0  0
   24.7090   29.9860   49.1460 C   0  0  0  0  0  0  0  0  0  0  0  0
   23.6730   30.3330   49.2420 H   0  0  0  0  0  0  0  0  0  0  0  0
   25.0000   28.6460   49.4070 C   0  0  0  0  0  0  0  0  0  0  0  0
   24.2170   27.9650   49.6980 H   0  0  0  0  0  0  0  0  0  0  0  0
   26.3350   28.2410   49.2720 C   0  0  0  0  0  3  0  0  0  0  0  0
  1  4  1  6  0  0  0
  1  3  1  0  0  0  0
  1  2  1  0  0  0  0
  1  8  1  0  0  0  0
  2  6  1  0  0  0  0
  3  2  1  0  0  0  0
  3  7  1  1  0  0  0
  5  2  1  0  0  0  0
  8  9  1  0  0  0  0
 10  8  1  0  0  0  0
 11 16  1  0  0  0  0
 11 17  1  0  0  0  0
 12 11  2  0  0  0  0
 13 14  2  0  0  0  0
 13 12  1  0  0  0  0
 14 15  1  0  0  0  0
 15  8  1  0  0  0  0
 15 16  2  0  0  0  0
 18 12  1  0  0  0  0
 19 13  1  0  0  0  0
 20  3  1  0  0  0  0
 21 20  2  0  0  0  0
 22 23  1  0  0  0  0
 22 20  1  0  0  0  0
 23 24  2  0  0  0  0
 24 25  1  0  0  0  0
 24 28  1  0  0  0  0
 25 29  1  0  0  0  0
 26 30  1  0  0  0  0
 26 25  2  0  0  0  0
 27 23  1  0  0  0  0
 27 26  1  0  0  0  0
 30 38  1  0  0  0  0
 31 33  1  0  0  0  0
 31 30  2  0  0  0  0
 32 31  1  0  0  0  0
 33 34  2  0  0  0  0
 34 35  1  0  0  0  0
 34 36  1  0  0  0  0
 36 37  1  0  0  0  0
 38 36  2  0  0  0  0
M  END
>  <minimizedAffinity>
-6.77903318

>  <minimizedRMSD>
1.92392421

$$$$
