
 OpenBabel03252510363D

 32 35  0  0  0  0  0  0  0  0999 V2000
   35.7470   29.1250   49.2350 C   0  0  0  0  0  0  0  0  0  0  0  0
   35.7680   30.2470   48.4020 C   0  0  0  0  0  0  0  0  0  0  0  0
   34.7520   30.4000   47.4710 C   0  0  0  0  0  0  0  0  0  0  0  0
   33.7780   29.4460   47.4100 N   0  0  0  0  0  0  0  0  0  0  0  0
   33.7770   28.3710   48.2230 C   0  0  0  0  0  0  0  0  0  0  0  0
   34.7630   28.2000   49.1450 N   0  0  0  0  0  0  0  0  0  0  0  0
   36.5260   28.9810   49.9700 H   0  0  0  0  0  0  0  0  0  0  0  0
   34.7680   31.2680   46.8250 H   0  0  0  0  0  0  0  0  0  0  0  0
   36.8630   31.1910   48.5670 C   0  0  0  0  0  0  0  0  0  0  0  0
   37.0510   31.9130   49.7150 C   0  0  0  0  0  0  0  0  0  0  0  0
   38.1510   32.7830   49.7210 C   0  0  0  0  0  0  0  0  0  0  0  0
   38.9950   32.9320   48.6880 N   0  0  0  0  0  0  0  0  0  0  0  0
   38.7590   32.1970   47.5890 C   0  0  0  0  0  0  0  0  0  0  0  0
   37.7040   31.3310   47.5190 N   0  0  0  0  0  0  0  0  0  0  0  0
   39.6330   32.3220   46.4630 N   0  0  0  0  0  0  0  0  0  0  0  0
   40.1510   33.3380   45.7510 C   0  0  0  0  0  0  0  0  0  0  0  0
   40.9270   32.7940   44.7820 N   0  0  0  0  0  0  0  0  0  0  0  0
   40.8670   31.4390   44.9200 C   0  0  0  0  0  0  0  0  0  0  0  0
   40.0540   31.1450   45.9750 N   0  0  0  0  0  0  0  0  0  0  0  0
   36.3870   31.8100   50.5530 H   0  0  0  0  0  0  0  0  0  0  0  0
   38.2940   33.3530   50.6370 H   0  0  0  0  0  0  0  0  0  0  0  0
   39.8290   34.2980   46.1220 H   0  0  0  0  0  0  0  0  0  0  0  0
   41.3900   30.7230   44.2810 H   0  0  0  0  0  0  0  0  0  0  0  0
   32.7180   27.3690   48.1310 C   0  0  0  0  0  0  0  0  0  0  0  0
   31.4710   27.6620   48.6440 C   0  0  0  0  0  0  0  0  0  0  0  0
   31.3190   28.6410   49.1040 H   0  0  0  0  0  0  0  0  0  0  0  0
   30.4440   26.7300   48.5710 C   0  0  0  0  0  0  0  0  0  0  0  0
   30.6460   25.4930   47.9860 C   0  0  0  0  0  0  0  0  0  0  0  0
   29.8290   24.7880   47.9440 H   0  0  0  0  0  0  0  0  0  0  0  0
   31.9040   25.2200   47.4790 C   0  0  0  0  0  0  0  0  0  0  0  0
   32.0610   24.2400   47.0150 H   0  0  0  0  0  0  0  0  0  0  0  0
   32.9340   26.1380   47.5440 C   0  0  0  0  0  0  0  0  0  0  0  0
  1  7  1  0  0  0  0
  2  9  1  0  0  0  0
  2  1  2  0  0  0  0
  3  2  1  0  0  0  0
  4  3  2  0  0  0  0
  4  5  1  0  0  0  0
  5  6  2  0  0  0  0
  6  1  1  0  0  0  0
  8  3  1  0  0  0  0
  9 10  1  0  0  0  0
 10 11  2  0  0  0  0
 10 20  1  0  0  0  0
 11 21  1  0  0  0  0
 12 11  1  0  0  0  0
 13 12  2  0  0  0  0
 14 13  1  0  0  0  0
 14  9  2  0  0  0  0
 15 13  1  0  0  0  0
 16 22  1  0  0  0  0
 16 15  1  0  0  0  0
 17 18  1  0  0  0  0
 17 16  2  0  0  0  0
 18 19  2  0  0  0  0
 19 15  1  0  0  0  0
 23 18  1  0  0  0  0
 24  5  1  0  0  0  0
 24 25  1  0  0  0  0
 25 26  1  0  0  0  0
 27 25  2  0  0  0  0
 28 27  1  0  0  0  0
 29 28  1  0  0  0  0
 30 32  1  0  0  0  0
 30 28  2  0  0  0  0
 31 30  1  0  0  0  0
 32 24  2  0  0  0  0
M  END
>  <minimizedAffinity>
-6.40199709

>  <minimizedRMSD>
0.80706501

$$$$
