REMARK  Name = 
REMARK  3 active torsions:
REMARK  status: ('A' for Active; 'I' for Inactive)
REMARK    1  A    between atoms: C_5  and  C_7
REMARK    2  A    between atoms: C_7  and  C_8
REMARK    3  A    between atoms: C_10  and  C_20
REMARK                            x       y       z     vdW  Elec       q    Type
REMARK                         _______ _______ _______ _____ _____    ______ ____
ROOT
ATOM      1  C   UNL     1      35.405  29.469  49.176  0.00  0.00    +0.000 C 
ATOM      2  C   UNL     1      34.278  29.422  50.128  0.00  0.00    +0.000 C 
ATOM      3  C   UNL     1      34.600  28.190  49.379  0.00  0.00    +0.000 C 
ATOM      4  H   UNL     1      35.256  30.003  48.193  0.00  0.00    +0.000 HD
ATOM      5  H   UNL     1      33.390  30.024  49.873  0.00  0.00    +0.000 HD
ATOM      6  H   UNL     1      34.488  29.438  51.227  0.00  0.00    +0.000 HD
ATOM      7  H   UNL     1      35.083  27.364  49.954  0.00  0.00    +0.000 HD
ENDROOT
BRANCH   3   8
ATOM      8  C   UNL     1      33.757  27.715  48.248  0.00  0.00    +0.000 A 
ATOM      9  C   UNL     1      32.894  26.644  48.493  0.00  0.00    +0.000 A 
ATOM     10  H   UNL     1      32.816  26.156  49.456  0.00  0.00    +0.000 HD
ATOM     11  C   UNL     1      32.104  26.191  47.450  0.00  0.00    +0.000 A 
ATOM     12  C   UNL     1      32.195  26.804  46.224  0.00  0.00    +0.000 A 
ATOM     13  H   UNL     1      31.605  26.500  45.363  0.00  0.00    +0.000 HD
ATOM     14  C   UNL     1      33.046  27.872  45.950  0.00  0.00    +0.000 A 
ATOM     15  H   UNL     1      33.105  28.343  44.978  0.00  0.00    +0.000 HD
ATOM     16  C   UNL     1      33.838  28.323  47.004  0.00  0.00    +0.000 A 
ENDBRANCH   3   8
BRANCH   1  17
ATOM     17  C   UNL     1      36.829  29.389  49.662  0.00  0.00    +0.000 C 
ATOM     18  H   UNL     1      37.271  28.433  49.291  0.00  0.00    +0.000 HD
ATOM     19  H   UNL     1      36.845  29.377  50.769  0.00  0.00    +0.000 HD
BRANCH  17  24
ATOM     20  C   UNL     1      38.411  32.697  49.396  0.00  0.00    +0.000 A 
ATOM     21  C   UNL     1      38.914  32.694  48.079  0.00  0.00    +0.000 A 
ATOM     22  C   UNL     1      38.702  31.558  47.302  0.00  0.00    +0.000 A 
ATOM     23  N   UNL     1      38.019  30.512  47.865  0.00  0.00    +0.000 NA
ATOM     24  C   UNL     1      37.554  30.552  49.127  0.00  0.00    +0.000 A 
ATOM     25  N   UNL     1      37.760  31.654  49.879  0.00  0.00    +0.000 NA
ATOM     26  H   UNL     1      38.628  33.625  49.915  0.00  0.00    +0.000 HD
ATOM     27  H   UNL     1      39.460  33.514  47.609  0.00  0.00    +0.000 HD
ATOM     28  H   UNL     1      39.064  31.505  46.293  0.00  0.00    +0.000 HD
ENDBRANCH  17  24
ENDBRANCH   1  17
TORSDOF 3
