
 OpenBabel03252514053D

 38 41  0  0  1  0  0  0  0  0999 V2000
   35.2240   29.1570   48.5650 C   0  0  2  0  0  0  0  0  0  0  0  0
   33.9940   29.3820   49.3130 C   0  0  0  0  0  0  0  0  0  0  0  0
   34.3100   28.0000   49.0870 C   0  0  1  0  0  0  0  0  0  0  0  0
   35.3360   29.2290   47.4710 H   0  0  0  0  0  0  0  0  0  0  0  0
   33.0920   29.8610   48.8310 H   0  0  0  0  0  0  0  0  0  0  0  0
   34.1080   29.7940   50.3590 H   0  0  0  0  0  0  0  0  0  0  0  0
   34.8360   27.3080   49.7450 H   0  0  0  0  0  0  0  0  0  0  0  0
   36.5340   29.2030   49.3690 C   0  0  0  0  0  0  0  0  0  0  0  0
   36.2970   29.1090   50.4320 H   0  0  0  0  0  0  0  0  0  0  0  0
   37.1610   28.3180   49.1130 H   0  0  0  0  0  0  0  0  0  0  0  0
   37.5550   32.7010   49.6040 C   0  0  0  0  0  0  0  0  0  0  0  0
   38.4450   32.8380   48.5270 C   0  0  0  0  0  0  0  0  0  0  0  0
   38.6820   31.7000   47.7240 C   0  0  0  0  0  0  0  0  0  0  0  0
   38.0320   30.5340   48.0400 N   0  0  0  0  0  0  0  0  0  0  0  0
   37.1910   30.4670   49.0870 C   0  0  0  0  0  0  0  0  0  0  0  0
   36.9620   31.5570   49.8600 N   0  0  0  0  0  0  0  0  0  0  0  0
   37.4560   33.6330   50.1420 H   0  0  0  0  0  0  0  0  0  0  0  0
   39.0050   33.6840   48.1830 H   0  0  0  0  0  0  0  0  0  0  0  0
   39.3370   31.6580   46.8680 H   0  0  0  0  0  0  0  0  0  0  0  0
   33.4640   27.3090   48.0330 C   0  0  0  0  0  0  0  0  0  0  0  0
   33.8210   26.0890   47.8090 O   0  0  0  0  0  0  0  0  0  0  0  0
   32.3900   27.8580   47.3360 O   0  0  0  0  0  0  0  0  0  0  0  0
   31.1560   28.0760   47.8880 C   0  0  0  0  0  0  0  0  0  0  0  0
   30.7340   27.6300   49.2360 C   0  0  0  0  0  0  0  0  0  0  0  0
   29.4790   27.9270   49.6390 C   0  0  0  0  0  0  0  0  0  0  0  0
   28.5930   28.6390   48.8070 C   0  0  0  0  0  0  0  0  0  0  0  0
   29.5860   28.9460   47.2810 S   0  0  0  0  0  0  0  0  0  0  0  0
   31.4560   27.0930   49.8220 H   0  0  0  0  0  0  0  0  0  0  0  0
   29.0850   27.6440   50.5990 H   0  0  0  0  0  0  0  0  0  0  0  0
   27.3170   29.0770   48.9140 C   0  0  0  0  0  0  0  0  0  0  0  0
   26.2930   28.2250   49.2720 C   0  0  0  0  0  0  0  0  0  0  0  0
   26.4350   27.1700   49.4880 H   0  0  0  0  0  0  0  0  0  0  0  0
   24.9790   28.6990   49.3770 C   0  0  0  0  0  3  0  0  0  0  0  0
   24.7180   30.0480   49.1140 C   0  0  0  0  0  0  0  0  0  0  0  0
   23.6930   30.4290   49.1930 H   0  0  0  0  0  0  0  0  0  0  0  0
   25.7400   30.9280   48.7500 C   0  0  0  0  0  0  0  0  0  0  0  0
   25.5210   31.9640   48.5510 H   0  0  0  0  0  0  0  0  0  0  0  0
   27.0360   30.4030   48.6600 C   0  0  0  0  0  3  0  0  0  0  0  0
  1  4  1  6  0  0  0
  1  3  1  0  0  0  0
  1  2  1  0  0  0  0
  1  8  1  0  0  0  0
  2  6  1  0  0  0  0
  3  2  1  0  0  0  0
  3  7  1  1  0  0  0
  5  2  1  0  0  0  0
  8  9  1  0  0  0  0
 10  8  1  0  0  0  0
 11 16  1  0  0  0  0
 11 17  1  0  0  0  0
 12 11  2  0  0  0  0
 13 14  2  0  0  0  0
 13 12  1  0  0  0  0
 14 15  1  0  0  0  0
 15  8  1  0  0  0  0
 15 16  2  0  0  0  0
 18 12  1  0  0  0  0
 19 13  1  0  0  0  0
 20  3  1  0  0  0  0
 21 20  2  0  0  0  0
 22 23  1  0  0  0  0
 22 20  1  0  0  0  0
 23 24  2  0  0  0  0
 24 25  1  0  0  0  0
 24 28  1  0  0  0  0
 25 29  1  0  0  0  0
 26 30  1  0  0  0  0
 26 25  2  0  0  0  0
 27 23  1  0  0  0  0
 27 26  1  0  0  0  0
 30 31  1  0  0  0  0
 31 33  2  0  0  0  0
 31 32  1  0  0  0  0
 34 35  1  0  0  0  0
 34 33  1  0  0  0  0
 36 34  2  0  0  0  0
 37 36  1  0  0  0  0
 38 36  1  0  0  0  0
 38 30  2  0  0  0  0
M  END
>  <minimizedAffinity>
-6.7918725

>  <minimizedRMSD>
1.90711546

$$$$
