
     RDKit          3D

 40 43  0  0  0  0  0  0  0  0999 V2000
   35.2955   29.4094   48.9869 C   0  0  2  0  0  0  0  0  0  0  0  0
   34.1879   29.3592   49.9338 C   0  0  0  0  0  0  0  0  0  0  0  0
   34.5330   28.0924   49.3529 C   0  0  1  0  0  0  0  0  0  0  0  0
   36.7108   29.3870   49.5861 C   0  0  0  0  0  0  0  0  0  0  0  0
   38.0804   32.7704   49.4389 C   0  0  0  0  0  0  0  0  0  0  0  0
   38.7515   32.7785   48.2057 C   0  0  0  0  0  0  0  0  0  0  0  0
   38.7200   31.5970   47.4330 C   0  0  0  0  0  0  0  0  0  0  0  0
   38.0389   30.5137   47.9282 N   0  0  0  0  0  0  0  0  0  0  0  0
   37.4149   30.5676   49.1178 C   0  0  0  0  0  0  0  0  0  0  0  0
   37.4435   31.7005   49.8621 N   0  0  0  0  0  0  0  0  0  0  0  0
   33.5678   27.5815   48.2994 C   0  0  0  0  0  0  0  0  0  0  0  0
   33.9093   26.4402   47.8032 O   0  0  0  0  0  0  0  0  0  0  0  0
   32.4061   28.2108   47.8586 O   0  0  0  0  0  0  0  0  0  0  0  0
   31.1455   27.8244   48.2248 C   0  0  0  0  0  0  0  0  0  0  0  0
   30.6261   27.8113   49.6117 C   0  0  0  0  0  0  0  0  0  0  0  0
   29.3531   27.4031   49.8105 C   0  0  0  0  0  0  0  0  0  0  0  0
   28.5379   27.0009   48.7344 C   0  0  0  0  0  0  0  0  0  0  0  0
   29.6375   27.1991   47.2632 S   0  0  0  0  0  0  0  0  0  0  0  0
   35.2289   29.7291   47.9355 H   0  0  0  0  0  0  0  0  0  0  0  0
   33.1990   29.8536   49.7081 H   0  0  0  0  0  0  0  0  0  0  0  0
   34.4443   29.5390   51.0194 H   0  0  0  0  0  0  0  0  0  0  0  0
   35.1900   27.3201   49.7529 H   0  0  0  0  0  0  0  0  0  0  0  0
   36.6312   29.3811   50.6763 H   0  0  0  0  0  0  0  0  0  0  0  0
   37.2202   28.4355   49.3070 H   0  0  0  0  0  0  0  0  0  0  0  0
   38.1746   33.7239   49.9359 H   0  0  0  0  0  0  0  0  0  0  0  0
   39.3102   33.5521   47.7184 H   0  0  0  0  0  0  0  0  0  0  0  0
   39.1888   31.4597   46.4713 H   0  0  0  0  0  0  0  0  0  0  0  0
   31.2955   28.1295   50.3880 H   0  0  0  0  0  0  0  0  0  0  0  0
   28.8908   27.3599   50.7801 H   0  0  0  0  0  0  0  0  0  0  0  0
   27.2659   26.5559   48.6050 C   0  0  0  0  0  0  0  0  0  0  0  0
   26.9930   25.2262   48.3610 C   0  0  0  0  0  0  0  0  0  0  0  0
   27.7593   24.4628   48.2582 H   0  0  0  0  0  0  0  0  0  0  0  0
   25.6702   24.7860   48.2304 C   0  0  0  0  0  0  0  0  0  0  0  0
   24.6279   25.7121   48.3506 C   0  0  0  0  0  0  0  0  0  0  0  0
   23.5889   25.3782   48.2501 H   0  0  0  0  0  0  0  0  0  0  0  0
   24.8827   27.0627   48.5976 C   0  0  0  0  0  0  0  0  0  0  0  0
   24.0683   27.7633   48.6874 H   0  0  0  0  0  0  0  0  0  0  0  0
   26.2240   27.4510   48.7199 C   0  0  0  0  0  0  0  0  0  0  0  0
   25.4480   23.7493   48.0398 H   0  0  0  0  0  0  0  0  0  0  0  0
   26.4129   28.5006   48.9114 H   0  0  0  0  0  0  0  0  0  0  0  0
  1  3  1  0
  1  4  1  0
  1  2  1  0
  3  2  1  0
  5 10  2  0
  6  5  1  0
  7  8  1  0
  7  6  2  0
  8  9  2  0
  9  4  1  0
  9 10  1  0
 11  3  1  0
 12 11  2  0
 13 14  1  0
 13 11  1  0
 14 15  2  0
 15 16  1  0
 17 16  2  0
 18 14  1  0
 18 17  1  0
  1 19  1  6
  2 20  1  0
  2 21  1  0
  3 22  1  1
  4 23  1  0
  4 24  1  0
  5 25  1  0
  6 26  1  0
  7 27  1  0
 15 28  1  0
 16 29  1  0
 30 31  2  0
 31 32  1  0
 31 33  1  0
 33 34  2  0
 34 35  1  0
 34 36  1  0
 36 37  1  0
 36 38  2  0
 38 30  1  0
 33 39  1  0
 38 40  1  0
 17 30  1  0
M  ISO  8  19  13  20  13  21  13  22  13  23   8  24   8  25  14  26  14
M  ISO  6  27  14  28  14  29  14  32  16  35  16  37  16
M  END
>  <DihAtoms>  (1) 
15,16,29,30

>  <DihDeg>  (1) 
179.998677470799

$$$$
