REMARK  Name = 
REMARK  6 active torsions:
REMARK  status: ('A' for Active; 'I' for Inactive)
REMARK    1  A    between atoms: C_1  and  C_4
REMARK    2  A    between atoms: C_3  and  C_11
REMARK    3  A    between atoms: C_4  and  C_9
REMARK    4  A    between atoms: C_11  and  O_13
REMARK    5  A    between atoms: O_13  and  C_14
REMARK    6  A    between atoms: C_17  and  C_30
REMARK                            x       y       z     vdW  Elec       q    Type
REMARK                         _______ _______ _______ _____ _____    ______ ____
ROOT
ATOM      1  C   UNL     1      35.295  29.409  48.987  0.00  0.00    +0.000 C 
ATOM      2  C   UNL     1      34.188  29.359  49.934  0.00  0.00    +0.000 C 
ATOM      3  C   UNL     1      34.533  28.092  49.353  0.00  0.00    +0.000 C 
ATOM      4  H   UNL     1      35.229  29.729  47.935  0.00  0.00    +0.000 HD
ATOM      5  H   UNL     1      33.199  29.854  49.708  0.00  0.00    +0.000 HD
ATOM      6  H   UNL     1      34.444  29.539  51.019  0.00  0.00    +0.000 HD
ATOM      7  H   UNL     1      35.190  27.320  49.753  0.00  0.00    +0.000 HD
ENDROOT
BRANCH   1   8
ATOM      8  C   UNL     1      36.711  29.387  49.586  0.00  0.00    +0.000 C 
ATOM      9  H   UNL     1      36.631  29.381  50.676  0.00  0.00    +0.000 HD
ATOM     10  H   UNL     1      37.220  28.436  49.307  0.00  0.00    +0.000 HD
BRANCH   8  15
ATOM     11  C   UNL     1      38.080  32.770  49.439  0.00  0.00    +0.000 A 
ATOM     12  C   UNL     1      38.752  32.779  48.206  0.00  0.00    +0.000 A 
ATOM     13  C   UNL     1      38.720  31.597  47.433  0.00  0.00    +0.000 A 
ATOM     14  N   UNL     1      38.039  30.514  47.928  0.00  0.00    +0.000 NA
ATOM     15  C   UNL     1      37.415  30.568  49.118  0.00  0.00    +0.000 A 
ATOM     16  N   UNL     1      37.444  31.701  49.862  0.00  0.00    +0.000 NA
ATOM     17  H   UNL     1      38.175  33.724  49.936  0.00  0.00    +0.000 HD
ATOM     18  H   UNL     1      39.310  33.552  47.718  0.00  0.00    +0.000 HD
ATOM     19  H   UNL     1      39.189  31.460  46.471  0.00  0.00    +0.000 HD
ENDBRANCH   8  15
ENDBRANCH   1   8
BRANCH   3  20
ATOM     20  C   UNL     1      33.568  27.581  48.299  0.00  0.00    +0.000 C 
ATOM     21  O   UNL     1      33.909  26.440  47.803  0.00  0.00    +0.000 OA
BRANCH  20  22
ATOM     22  O   UNL     1      32.406  28.211  47.859  0.00  0.00    +0.000 OA
BRANCH  22  23
ATOM     23  C   UNL     1      31.145  27.824  48.225  0.00  0.00    +0.000 A 
ATOM     24  C   UNL     1      30.626  27.811  49.612  0.00  0.00    +0.000 A 
ATOM     25  C   UNL     1      29.353  27.403  49.810  0.00  0.00    +0.000 A 
ATOM     26  C   UNL     1      28.538  27.001  48.734  0.00  0.00    +0.000 A 
ATOM     27  S   UNL     1      29.637  27.199  47.263  0.00  0.00    +0.000 S 
ATOM     28  H   UNL     1      31.296  28.130  50.388  0.00  0.00    +0.000 HD
ATOM     29  H   UNL     1      28.891  27.360  50.780  0.00  0.00    +0.000 HD
BRANCH  26  30
ATOM     30  C   UNL     1      27.266  26.556  48.605  0.00  0.00    +0.000 A 
ATOM     31  C   UNL     1      26.993  25.226  48.361  0.00  0.00    +0.000 A 
ATOM     32  H   UNL     1      27.759  24.463  48.258  0.00  0.00    +0.000 HD
ATOM     33  C   UNL     1      25.670  24.786  48.230  0.00  0.00    +0.000 A 
ATOM     34  C   UNL     1      24.628  25.712  48.351  0.00  0.00    +0.000 A 
ATOM     35  H   UNL     1      23.589  25.378  48.250  0.00  0.00    +0.000 HD
ATOM     36  C   UNL     1      24.883  27.063  48.598  0.00  0.00    +0.000 A 
ATOM     37  H   UNL     1      24.068  27.763  48.687  0.00  0.00    +0.000 HD
ATOM     38  C   UNL     1      26.224  27.451  48.720  0.00  0.00    +0.000 A 
ENDBRANCH  26  30
ENDBRANCH  22  23
ENDBRANCH  20  22
ENDBRANCH   3  20
TORSDOF 6
