
 OpenBabel03252513583D

 29 31  0  0  1  0  0  0  0  0999 V2000
   35.4510   29.4500   49.1200 C   0  0  2  0  0  0  0  0  0  0  0  0
   34.4140   29.7030   50.1360 C   0  0  0  0  0  0  0  0  0  0  0  0
   34.5590   28.3240   49.6310 C   0  0  1  0  0  0  0  0  0  0  0  0
   35.2440   29.8240   48.0930 H   0  0  0  0  0  0  0  0  0  0  0  0
   33.5350   30.3400   49.8390 H   0  0  0  0  0  0  0  0  0  0  0  0
   34.7750   29.9920   51.1440 H   0  0  0  0  0  0  0  0  0  0  0  0
   35.0240   27.6020   50.3620 H   0  0  0  0  0  0  0  0  0  0  0  0
   31.7870   26.5340   46.8800 C   0  0  0  0  0  0  0  0  0  0  0  0
   31.3320   27.3660   47.8740 C   0  0  0  0  0  3  0  0  0  0  0  0
   32.2050   27.9590   48.7780 C   0  0  0  0  0  3  0  0  0  0  0  0
   33.5750   27.7330   48.7110 C   0  0  0  0  0  0  0  0  0  0  0  0
   33.9810   26.8790   47.6800 C   0  0  0  0  0  3  0  0  0  0  0  0
   33.1360   26.2770   46.7700 C   0  0  0  0  0  3  0  0  0  0  0  0
   31.3740   24.6430   45.2300 H   0  0  0  0  0  0  0  0  0  0  0  0
   30.7560   25.7490   45.7030 S   0  0  0  0  0  0  0  0  0  0  0  0
   30.5550   26.6900   44.5230 O   0  0  0  0  0  0  0  0  0  0  0  0
   29.4290   25.5200   46.3190 O   0  0  0  0  0  0  0  0  0  0  0  0
   36.9020   29.3190   49.4970 C   0  0  0  0  0  0  0  0  0  0  0  0
   37.2860   28.4360   48.9290 H   0  0  0  0  0  0  0  0  0  0  0  0
   37.0620   29.1500   50.5750 H   0  0  0  0  0  0  0  0  0  0  0  0
   38.3870   32.6820   49.3870 C   0  0  0  0  0  0  0  0  0  0  0  0
   38.9100   32.7500   48.0820 C   0  0  0  0  0  0  0  0  0  0  0  0
   38.7450   31.6320   47.2500 C   0  0  0  0  0  0  0  0  0  0  0  0
   38.0850   30.5490   47.7640 N   0  0  0  0  0  0  0  0  0  0  0  0
   37.5990   30.5260   49.0260 C   0  0  0  0  0  0  0  0  0  0  0  0
   37.7500   31.5900   49.8310 N   0  0  0  0  0  0  0  0  0  0  0  0
   38.5050   33.5390   50.0480 H   0  0  0  0  0  0  0  0  0  0  0  0
   39.4280   33.6240   47.7040 H   0  0  0  0  0  0  0  0  0  0  0  0
   39.1170   31.6040   46.2340 H   0  0  0  0  0  0  0  0  0  0  0  0
  1  4  1  6  0  0  0
  1 18  1  0  0  0  0
  1  3  1  0  0  0  0
  1  2  1  0  0  0  0
  2  6  1  0  0  0  0
  3  2  1  0  0  0  0
  3  7  1  1  0  0  0
  5  2  1  0  0  0  0
  8  9  1  0  0  0  0
  9 10  2  0  0  0  0
 11 10  1  0  0  0  0
 11  3  1  0  0  0  0
 12 11  2  0  0  0  0
 13  8  2  0  0  0  0
 13 12  1  0  0  0  0
 14 15  1  0  0  0  0
 15 17  2  0  0  0  0
 15  8  1  0  0  0  0
 16 15  2  0  0  0  0
 18 20  1  0  0  0  0
 19 18  1  0  0  0  0
 21 26  1  0  0  0  0
 21 27  1  0  0  0  0
 22 21  2  0  0  0  0
 23 24  2  0  0  0  0
 23 22  1  0  0  0  0
 24 25  1  0  0  0  0
 25 18  1  0  0  0  0
 25 26  2  0  0  0  0
 28 22  1  0  0  0  0
 29 23  1  0  0  0  0
M  END
>  <minimizedAffinity>
-5.23952627

>  <minimizedRMSD>
1.13406682

$$$$
