
 OpenBabel03252513593D

 29 31  0  0  1  0  0  0  0  0999 V2000
   35.4780   29.4810   49.0210 C   0  0  2  0  0  0  0  0  0  0  0  0
   34.4410   29.7990   50.0170 C   0  0  0  0  0  0  0  0  0  0  0  0
   34.5820   28.3910   49.6010 C   0  0  1  0  0  0  0  0  0  0  0  0
   35.2730   29.7890   47.9720 H   0  0  0  0  0  0  0  0  0  0  0  0
   33.5640   30.4190   49.6800 H   0  0  0  0  0  0  0  0  0  0  0  0
   34.8020   30.1510   51.0050 H   0  0  0  0  0  0  0  0  0  0  0  0
   35.0450   27.7150   50.3770 H   0  0  0  0  0  0  0  0  0  0  0  0
   31.6050   26.5700   47.0970 C   0  0  0  0  0  0  0  0  0  0  0  0
   32.9360   26.3110   46.8840 C   0  0  0  0  0  3  0  0  0  0  0  0
   33.9210   26.8850   47.6770 C   0  0  0  0  0  3  0  0  0  0  0  0
   33.5980   27.7460   48.7190 C   0  0  0  0  0  0  0  0  0  0  0  0
   32.2270   27.9740   48.8900 C   0  0  0  0  0  3  0  0  0  0  0  0
   31.2290   27.4180   48.1170 C   0  0  0  0  0  3  0  0  0  0  0  0
   30.2270   26.5320   44.9590 H   0  0  0  0  0  0  0  0  0  0  0  0
   30.3020   25.8900   46.1460 S   0  0  0  0  0  0  0  0  0  0  0  0
   28.9870   26.1340   46.8720 O   0  0  0  0  0  0  0  0  0  0  0  0
   30.4980   24.4240   46.0630 O   0  0  0  0  0  0  0  0  0  0  0  0
   36.9280   29.3700   49.4060 C   0  0  0  0  0  0  0  0  0  0  0  0
   37.3440   28.5330   48.7920 H   0  0  0  0  0  0  0  0  0  0  0  0
   37.0830   29.1420   50.4740 H   0  0  0  0  0  0  0  0  0  0  0  0
   38.1890   32.8240   49.4570 C   0  0  0  0  0  0  0  0  0  0  0  0
   38.8550   32.9320   48.2210 C   0  0  0  0  0  0  0  0  0  0  0  0
   38.8640   31.8090   47.3800 C   0  0  0  0  0  0  0  0  0  0  0  0
   38.2210   30.6820   47.8180 N   0  0  0  0  0  0  0  0  0  0  0  0
   37.5940   30.6220   49.0140 C   0  0  0  0  0  0  0  0  0  0  0  0
   37.5790   31.6900   49.8270 N   0  0  0  0  0  0  0  0  0  0  0  0
   38.1720   33.6840   50.1230 H   0  0  0  0  0  0  0  0  0  0  0  0
   39.3540   33.8390   47.9030 H   0  0  0  0  0  0  0  0  0  0  0  0
   39.3520   31.8090   46.4150 H   0  0  0  0  0  0  0  0  0  0  0  0
  1  4  1  6  0  0  0
  1 18  1  0  0  0  0
  1  3  1  0  0  0  0
  1  2  1  0  0  0  0
  2  6  1  0  0  0  0
  3  2  1  0  0  0  0
  3  7  1  1  0  0  0
  5  2  1  0  0  0  0
  8 13  1  0  0  0  0
  9  8  2  0  0  0  0
  9 10  1  0  0  0  0
 10 11  2  0  0  0  0
 11 12  1  0  0  0  0
 11  3  1  0  0  0  0
 13 12  2  0  0  0  0
 14 15  1  0  0  0  0
 15 16  2  0  0  0  0
 15  8  1  0  0  0  0
 17 15  2  0  0  0  0
 18 20  1  0  0  0  0
 19 18  1  0  0  0  0
 21 26  1  0  0  0  0
 21 27  1  0  0  0  0
 22 21  2  0  0  0  0
 23 24  2  0  0  0  0
 23 22  1  0  0  0  0
 24 25  1  0  0  0  0
 25 18  1  0  0  0  0
 25 26  2  0  0  0  0
 28 22  1  0  0  0  0
 29 23  1  0  0  0  0
M  END
>  <minimizedAffinity>
-5.37304878

>  <minimizedRMSD>
0.916559875

$$$$
