
 OpenBabel03252513583D

 29 31  0  0  1  0  0  0  0  0999 V2000
   35.4840   29.4730   49.0210 C   0  0  2  0  0  0  0  0  0  0  0  0
   34.4470   29.7930   50.0190 C   0  0  0  0  0  0  0  0  0  0  0  0
   34.5860   28.3840   49.6010 C   0  0  1  0  0  0  0  0  0  0  0  0
   35.2780   29.7830   47.9730 H   0  0  0  0  0  0  0  0  0  0  0  0
   33.5710   30.4140   49.6830 H   0  0  0  0  0  0  0  0  0  0  0  0
   34.8100   30.1430   51.0070 H   0  0  0  0  0  0  0  0  0  0  0  0
   35.0490   27.7070   50.3760 H   0  0  0  0  0  0  0  0  0  0  0  0
   31.6030   26.5720   47.0980 C   0  0  0  0  0  0  0  0  0  0  0  0
   32.9340   26.3080   46.8850 C   0  0  0  0  0  3  0  0  0  0  0  0
   33.9210   26.8800   47.6780 C   0  0  0  0  0  3  0  0  0  0  0  0
   33.6000   27.7420   48.7200 C   0  0  0  0  0  0  0  0  0  0  0  0
   32.2300   27.9740   48.8900 C   0  0  0  0  0  3  0  0  0  0  0  0
   31.2300   27.4200   48.1170 C   0  0  0  0  0  3  0  0  0  0  0  0
   30.2250   26.5390   44.9600 H   0  0  0  0  0  0  0  0  0  0  0  0
   30.2990   25.8950   46.1460 S   0  0  0  0  0  0  0  0  0  0  0  0
   28.9840   26.1390   46.8740 O   0  0  0  0  0  0  0  0  0  0  0  0
   30.4920   24.4290   46.0600 O   0  0  0  0  0  0  0  0  0  0  0  0
   36.9340   29.3600   49.4050 C   0  0  0  0  0  0  0  0  0  0  0  0
   37.3480   28.5240   48.7880 H   0  0  0  0  0  0  0  0  0  0  0  0
   37.0890   29.1290   50.4720 H   0  0  0  0  0  0  0  0  0  0  0  0
   38.2130   32.8070   49.4710 C   0  0  0  0  0  0  0  0  0  0  0  0
   38.8630   32.9230   48.2280 C   0  0  0  0  0  0  0  0  0  0  0  0
   38.8550   31.8080   47.3760 C   0  0  0  0  0  0  0  0  0  0  0  0
   38.2120   30.6800   47.8130 N   0  0  0  0  0  0  0  0  0  0  0  0
   37.6000   30.6120   49.0160 C   0  0  0  0  0  0  0  0  0  0  0  0
   37.6020   31.6730   49.8390 N   0  0  0  0  0  0  0  0  0  0  0  0
   38.2090   33.6610   50.1460 H   0  0  0  0  0  0  0  0  0  0  0  0
   39.3630   33.8310   47.9110 H   0  0  0  0  0  0  0  0  0  0  0  0
   39.3310   31.8140   46.4050 H   0  0  0  0  0  0  0  0  0  0  0  0
  1  4  1  6  0  0  0
  1 18  1  0  0  0  0
  1  3  1  0  0  0  0
  1  2  1  0  0  0  0
  2  6  1  0  0  0  0
  3  2  1  0  0  0  0
  3  7  1  1  0  0  0
  5  2  1  0  0  0  0
  8 13  1  0  0  0  0
  9  8  2  0  0  0  0
  9 10  1  0  0  0  0
 10 11  2  0  0  0  0
 11 12  1  0  0  0  0
 11  3  1  0  0  0  0
 13 12  2  0  0  0  0
 14 15  1  0  0  0  0
 15 16  2  0  0  0  0
 15  8  1  0  0  0  0
 17 15  2  0  0  0  0
 18 20  1  0  0  0  0
 19 18  1  0  0  0  0
 21 26  1  0  0  0  0
 21 27  1  0  0  0  0
 22 21  2  0  0  0  0
 23 24  2  0  0  0  0
 23 22  1  0  0  0  0
 24 25  1  0  0  0  0
 25 18  1  0  0  0  0
 25 26  2  0  0  0  0
 28 22  1  0  0  0  0
 29 23  1  0  0  0  0
M  END
>  <minimizedAffinity>
-5.36857939

>  <minimizedRMSD>
0.886145711

$$$$
