
 OpenBabel03252513583D

 29 31  0  0  1  0  0  0  0  0999 V2000
   35.4770   29.4550   49.0480 C   0  0  2  0  0  0  0  0  0  0  0  0
   34.4270   29.7950   50.0240 C   0  0  0  0  0  0  0  0  0  0  0  0
   34.5620   28.3800   49.6260 C   0  0  1  0  0  0  0  0  0  0  0  0
   35.2910   29.7530   47.9920 H   0  0  0  0  0  0  0  0  0  0  0  0
   33.5600   30.4180   49.6660 H   0  0  0  0  0  0  0  0  0  0  0  0
   34.7750   30.1550   51.0130 H   0  0  0  0  0  0  0  0  0  0  0  0
   35.0070   27.7100   50.4170 H   0  0  0  0  0  0  0  0  0  0  0  0
   31.6090   26.5550   47.0970 C   0  0  0  0  0  0  0  0  0  0  0  0
   32.9420   26.3000   46.8940 C   0  0  0  0  0  3  0  0  0  0  0  0
   33.9200   26.8760   47.6960 C   0  0  0  0  0  3  0  0  0  0  0  0
   33.5860   27.7330   48.7370 C   0  0  0  0  0  0  0  0  0  0  0  0
   32.2140   27.9570   48.8980 C   0  0  0  0  0  3  0  0  0  0  0  0
   31.2230   27.3980   48.1170 C   0  0  0  0  0  3  0  0  0  0  0  0
   30.2500   26.5130   44.9470 H   0  0  0  0  0  0  0  0  0  0  0  0
   30.3150   25.8730   46.1350 S   0  0  0  0  0  0  0  0  0  0  0  0
   28.9940   26.1150   46.8500 O   0  0  0  0  0  0  0  0  0  0  0  0
   30.5140   24.4070   46.0550 O   0  0  0  0  0  0  0  0  0  0  0  0
   36.9200   29.3360   49.4570 C   0  0  0  0  0  0  0  0  0  0  0  0
   37.3230   28.4520   48.9040 H   0  0  0  0  0  0  0  0  0  0  0  0
   37.0570   29.1750   50.5400 H   0  0  0  0  0  0  0  0  0  0  0  0
   38.4110   32.6970   49.3700 C   0  0  0  0  0  0  0  0  0  0  0  0
   38.9340   32.7730   48.0660 C   0  0  0  0  0  0  0  0  0  0  0  0
   38.7680   31.6610   47.2260 C   0  0  0  0  0  0  0  0  0  0  0  0
   38.1050   30.5750   47.7330 N   0  0  0  0  0  0  0  0  0  0  0  0
   37.6190   30.5450   48.9940 C   0  0  0  0  0  0  0  0  0  0  0  0
   37.7720   31.6030   49.8070 N   0  0  0  0  0  0  0  0  0  0  0  0
   38.5300   33.5490   50.0370 H   0  0  0  0  0  0  0  0  0  0  0  0
   39.4540   33.6480   47.6940 H   0  0  0  0  0  0  0  0  0  0  0  0
   39.1390   31.6380   46.2100 H   0  0  0  0  0  0  0  0  0  0  0  0
  1  4  1  6  0  0  0
  1 18  1  0  0  0  0
  1  3  1  0  0  0  0
  1  2  1  0  0  0  0
  2  6  1  0  0  0  0
  3  2  1  0  0  0  0
  3  7  1  1  0  0  0
  5  2  1  0  0  0  0
  8 13  1  0  0  0  0
  9  8  2  0  0  0  0
  9 10  1  0  0  0  0
 10 11  2  0  0  0  0
 11 12  1  0  0  0  0
 11  3  1  0  0  0  0
 13 12  2  0  0  0  0
 14 15  1  0  0  0  0
 15 16  2  0  0  0  0
 15  8  1  0  0  0  0
 17 15  2  0  0  0  0
 18 20  1  0  0  0  0
 19 18  1  0  0  0  0
 21 26  1  0  0  0  0
 21 27  1  0  0  0  0
 22 21  2  0  0  0  0
 23 24  2  0  0  0  0
 23 22  1  0  0  0  0
 24 25  1  0  0  0  0
 25 18  1  0  0  0  0
 25 26  2  0  0  0  0
 28 22  1  0  0  0  0
 29 23  1  0  0  0  0
M  END
>  <minimizedAffinity>
-5.37460852

>  <minimizedRMSD>
0.951020002

$$$$
