
 OpenBabel03252513233D

 22 23  0  0  0  0  0  0  0  0999 V2000
   35.3080   29.1710   50.4180 C   0  0  0  0  0  0  0  0  0  0  0  0
   36.1040   30.1440   49.8100 C   0  0  0  0  0  0  0  0  0  0  0  0
   35.7910   30.4830   48.4820 C   0  0  0  0  0  0  0  0  0  0  0  0
   34.7440   29.8560   47.8640 N   0  0  0  0  0  0  0  0  0  0  0  0
   34.0080   28.9220   48.5030 C   0  0  0  0  0  0  0  0  0  0  0  0
   34.3040   28.5940   49.7730 N   0  0  0  0  0  0  0  0  0  0  0  0
   35.5460   28.9090   51.4370 H   0  0  0  0  0  0  0  0  0  0  0  0
   36.3530   31.2270   47.9260 H   0  0  0  0  0  0  0  0  0  0  0  0
   30.7070   26.9030   46.6870 C   0  0  0  0  0  0  0  0  0  0  0  0
   31.6710   27.5120   45.9280 C   0  0  0  0  0  0  0  0  0  0  0  0
   32.7430   28.1680   46.4980 C   0  0  0  0  0  0  0  0  0  0  0  0
   32.8850   28.2350   47.8740 C   0  0  0  0  0  0  0  0  0  0  0  0
   31.8890   27.6060   48.6220 C   0  0  0  0  0  0  0  0  0  0  0  0
   30.8290   26.9580   48.0590 C   0  0  0  0  0  0  0  0  0  0  0  0
   28.8370   26.5340   44.9180 H   0  0  0  0  0  0  0  0  0  0  0  0
   29.3070   26.0440   46.0850 S   0  0  0  0  0  0  0  0  0  0  0  0
   29.6070   24.5710   45.9120 O   0  0  0  0  0  0  0  0  0  0  0  0
   28.1650   26.1230   47.0840 O   0  0  0  0  0  0  0  0  0  0  0  0
   37.2470   30.8310   50.4740 C   0  0  0  0  0  0  0  0  0  0  0  0
   38.4620   30.5370   49.9730 F   0  0  0  0  0  0  0  0  0  0  0  0
   37.2700   30.5420   51.8240 F   0  0  0  0  0  0  0  0  0  0  0  0
   37.0820   32.2150   50.3390 F   0  0  0  0  0  0  0  0  0  0  0  0
  1  7  1  0  0  0  0
  2  1  1  0  0  0  0
  2 19  1  0  0  0  0
  3  2  2  0  0  0  0
  4  3  1  0  0  0  0
  4  5  2  0  0  0  0
  5  6  1  0  0  0  0
  6  1  2  0  0  0  0
  8  3  1  0  0  0  0
  9 14  1  0  0  0  0
 10 11  1  0  0  0  0
 10  9  2  0  0  0  0
 11 12  2  0  0  0  0
 12  5  1  0  0  0  0
 12 13  1  0  0  0  0
 14 13  2  0  0  0  0
 15 16  1  0  0  0  0
 16  9  1  0  0  0  0
 16 18  2  0  0  0  0
 17 16  2  0  0  0  0
 19 21  1  0  0  0  0
 20 19  1  0  0  0  0
 22 19  1  0  0  0  0
M  END
>  <minimizedAffinity>
-5.26794291

>  <minimizedRMSD>
0.970042884

$$$$
