
 OpenBabel03252512543D

 24 26  0  0  0  0  0  0  0  0999 V2000
   38.3940   31.4950   48.2040 C   0  0  0  0  0  0  0  0  0  0  0  0
   38.9930   32.7050   48.2030 N   0  0  0  0  0  0  0  0  0  0  0  0
   39.4430   32.9710   47.0250 O   0  0  0  0  0  0  0  0  0  0  0  0
   39.1650   31.9750   46.2350 C   0  0  0  0  0  0  0  0  0  0  0  0
   38.5080   31.0360   46.9440 N   0  0  0  0  0  0  0  0  0  0  0  0
   37.3200   30.1270   51.5410 C   0  0  0  0  0  0  0  0  0  0  0  0
   38.0220   30.9080   50.6160 C   0  0  0  0  0  0  0  0  0  0  0  0
   37.7290   30.7360   49.2690 C   0  0  0  0  0  0  0  0  0  0  0  0
   36.7770   29.8240   48.8830 N   0  0  0  0  0  0  0  0  0  0  0  0
   36.1310   29.0960   49.8380 C   0  0  0  0  0  0  0  0  0  0  0  0
   36.3930   29.2410   51.1460 N   0  0  0  0  0  0  0  0  0  0  0  0
   37.6250   30.3400   52.5540 H   0  0  0  0  0  0  0  0  0  0  0  0
   38.7820   31.6400   50.8770 H   0  0  0  0  0  0  0  0  0  0  0  0
   35.3820   28.3810   49.5090 H   0  0  0  0  0  0  0  0  0  0  0  0
   40.0660   31.3220   42.1360 C   0  0  0  0  0  0  0  0  0  0  0  0
   39.5250   32.5170   42.5180 C   0  0  0  0  0  0  0  0  0  0  0  0
   39.2200   32.7610   43.8440 C   0  0  0  0  0  0  0  0  0  0  0  0
   39.4620   31.7910   44.7990 C   0  0  0  0  0  0  0  0  0  0  0  0
   40.0140   30.5700   44.4160 C   0  0  0  0  0  0  0  0  0  0  0  0
   40.3110   30.3480   43.0800 C   0  0  0  0  0  0  0  0  0  0  0  0
   40.8690   32.1310   39.8860 H   0  0  0  0  0  0  0  0  0  0  0  0
   40.4710   30.9600   40.4720 S   0  0  0  0  0  0  0  0  0  0  0  0
   41.6610   30.0350   40.5150 O   0  0  0  0  0  0  0  0  0  0  0  0
   39.3220   30.3480   39.7330 O   0  0  0  0  0  0  0  0  0  0  0  0
  1  8  1  0  0  0  0
  2  1  2  0  0  0  0
  3  2  1  0  0  0  0
  4  5  2  0  0  0  0
  4  3  1  0  0  0  0
  5  1  1  0  0  0  0
  6 12  1  0  0  0  0
  7 13  1  0  0  0  0
  7  6  2  0  0  0  0
  8  7  1  0  0  0  0
  9  8  2  0  0  0  0
  9 10  1  0  0  0  0
 10 11  2  0  0  0  0
 11  6  1  0  0  0  0
 14 10  1  0  0  0  0
 15 16  2  0  0  0  0
 15 20  1  0  0  0  0
 16 17  1  0  0  0  0
 17 18  2  0  0  0  0
 18  4  1  0  0  0  0
 19 18  1  0  0  0  0
 20 19  2  0  0  0  0
 21 22  1  0  0  0  0
 22 23  2  0  0  0  0
 22 15  1  0  0  0  0
 24 22  2  0  0  0  0
M  END
>  <minimizedAffinity>
-5.66015673

>  <minimizedRMSD>
0.590769291

$$$$
