
 OpenBabel03252513583D

 29 31  0  0  1  0  0  0  0  0999 V2000
   35.4920   29.4630   49.0340 C   0  0  2  0  0  0  0  0  0  0  0  0
   34.4510   29.7940   50.0230 C   0  0  0  0  0  0  0  0  0  0  0  0
   34.5850   28.3830   49.6140 C   0  0  1  0  0  0  0  0  0  0  0  0
   35.2950   29.7670   47.9820 H   0  0  0  0  0  0  0  0  0  0  0  0
   33.5800   30.4190   49.6770 H   0  0  0  0  0  0  0  0  0  0  0  0
   34.8090   30.1490   51.0110 H   0  0  0  0  0  0  0  0  0  0  0  0
   35.0380   27.7080   50.3960 H   0  0  0  0  0  0  0  0  0  0  0  0
   31.6090   26.5710   47.1020 C   0  0  0  0  0  0  0  0  0  0  0  0
   32.9400   26.3070   46.8940 C   0  0  0  0  0  3  0  0  0  0  0  0
   33.9250   26.8780   47.6900 C   0  0  0  0  0  3  0  0  0  0  0  0
   33.6010   27.7400   48.7300 C   0  0  0  0  0  0  0  0  0  0  0  0
   32.2310   27.9740   48.8950 C   0  0  0  0  0  3  0  0  0  0  0  0
   31.2330   27.4210   48.1200 C   0  0  0  0  0  3  0  0  0  0  0  0
   30.2360   26.5410   44.9600 H   0  0  0  0  0  0  0  0  0  0  0  0
   30.3070   25.8960   46.1460 S   0  0  0  0  0  0  0  0  0  0  0  0
   28.9910   26.1400   46.8700 O   0  0  0  0  0  0  0  0  0  0  0  0
   30.5010   24.4300   46.0580 O   0  0  0  0  0  0  0  0  0  0  0  0
   36.9390   29.3440   49.4280 C   0  0  0  0  0  0  0  0  0  0  0  0
   37.3420   28.4740   48.8520 H   0  0  0  0  0  0  0  0  0  0  0  0
   37.0870   29.1590   50.5060 H   0  0  0  0  0  0  0  0  0  0  0  0
   38.3810   32.7270   49.3920 C   0  0  0  0  0  0  0  0  0  0  0  0
   38.9240   32.8210   48.0960 C   0  0  0  0  0  0  0  0  0  0  0  0
   38.7870   31.7140   47.2450 C   0  0  0  0  0  0  0  0  0  0  0  0
   38.1330   30.6140   47.7330 N   0  0  0  0  0  0  0  0  0  0  0  0
   37.6270   30.5660   48.9860 C   0  0  0  0  0  0  0  0  0  0  0  0
   37.7520   31.6200   49.8090 N   0  0  0  0  0  0  0  0  0  0  0  0
   38.4770   33.5750   50.0670 H   0  0  0  0  0  0  0  0  0  0  0  0
   39.4360   33.7060   47.7390 H   0  0  0  0  0  0  0  0  0  0  0  0
   39.1750   31.7050   46.2350 H   0  0  0  0  0  0  0  0  0  0  0  0
  1  4  1  6  0  0  0
  1 18  1  0  0  0  0
  1  3  1  0  0  0  0
  1  2  1  0  0  0  0
  2  6  1  0  0  0  0
  3  2  1  0  0  0  0
  3  7  1  1  0  0  0
  5  2  1  0  0  0  0
  8 13  1  0  0  0  0
  9  8  2  0  0  0  0
  9 10  1  0  0  0  0
 10 11  2  0  0  0  0
 11 12  1  0  0  0  0
 11  3  1  0  0  0  0
 13 12  2  0  0  0  0
 14 15  1  0  0  0  0
 15 16  2  0  0  0  0
 15  8  1  0  0  0  0
 17 15  2  0  0  0  0
 18 20  1  0  0  0  0
 19 18  1  0  0  0  0
 21 26  1  0  0  0  0
 21 27  1  0  0  0  0
 22 21  2  0  0  0  0
 23 24  2  0  0  0  0
 23 22  1  0  0  0  0
 24 25  1  0  0  0  0
 25 18  1  0  0  0  0
 25 26  2  0  0  0  0
 28 22  1  0  0  0  0
 29 23  1  0  0  0  0
M  END
>  <minimizedAffinity>
-5.3703723

>  <minimizedRMSD>
0.895439804

$$$$
