
     RDKit          3D

 33 35  0  0  0  0  0  0  0  0999 V2000
   38.4171   32.6978   49.3922 C   0  0  0  0  0  0  0  0  0  0  0  0
   38.9129   32.6972   48.0750 C   0  0  0  0  0  0  0  0  0  0  0  0
   38.6957   31.5535   47.2922 C   0  0  0  0  0  0  0  0  0  0  0  0
   38.0142   30.5123   47.8639 N   0  0  0  0  0  0  0  0  0  0  0  0
   37.5548   30.5555   49.1348 C   0  0  0  0  0  0  0  0  0  0  0  0
   37.7573   31.6455   49.8930 N   0  0  0  0  0  0  0  0  0  0  0  0
   36.8324   29.3913   49.6689 C   0  0  0  0  0  0  0  0  0  0  0  0
   35.4113   29.4700   49.1824 C   0  0  2  0  0  0  0  0  0  0  0  0
   34.2739   29.4224   50.1179 C   0  0  0  0  0  0  0  0  0  0  0  0
   34.6022   28.1905   49.3728 C   0  0  1  0  0  0  0  0  0  0  0  0
   38.5756   33.5756   50.0150 H   0  0  0  0  0  0  0  0  0  0  0  0
   39.4492   33.5382   47.6510 H   0  0  0  0  0  0  0  0  0  0  0  0
   39.0439   31.4720   46.2708 H   0  0  0  0  0  0  0  0  0  0  0  0
   37.2594   28.4616   49.2158 H   0  0  0  0  0  0  0  0  0  0  0  0
   36.9170   29.3258   50.7672 H   0  0  0  0  0  0  0  0  0  0  0  0
   35.2502   30.0240   48.2315 H   0  0  0  0  0  0  0  0  0  0  0  0
   33.3598   30.0277   49.8635 H   0  0  0  0  0  0  0  0  0  0  0  0
   34.5200   29.5321   51.1939 H   0  0  0  0  0  0  0  0  0  0  0  0
   35.0790   27.3787   49.9944 H   0  0  0  0  0  0  0  0  0  0  0  0
   31.0049   27.4769   43.9031 H   0  0  0  0  0  0  0  0  0  0  0  0
   30.9740   26.5071   44.8437 S   0  0  0  0  0  0  0  0  0  0  0  0
   29.5569   26.4622   45.3970 O   0  0  0  0  0  0  0  0  0  0  0  0
   31.3058   25.1458   44.3620 O   0  0  0  0  0  0  0  0  0  0  0  0
   32.0729   26.9184   46.1432 C   0  0  0  0  0  0  0  0  0  0  0  0
   33.1340   26.1402   46.5351 C   0  0  0  0  0  0  0  0  0  0  0  0
   33.9688   26.5258   47.5760 C   0  0  0  0  0  0  0  0  0  0  0  0
   33.7626   27.7161   48.2625 C   0  0  0  0  0  0  0  0  0  0  0  0
   32.6683   28.4682   47.8212 C   0  0  0  0  0  0  0  0  0  0  0  0
   31.8236   28.1092   46.7909 C   0  0  0  0  0  0  0  0  0  0  0  0
   33.3053   25.1954   45.9972 H   0  0  0  0  0  0  0  0  0  0  0  0
   34.8008   25.9002   47.8721 H   0  0  0  0  0  0  0  0  0  0  0  0
   32.4965   29.3961   48.3462 H   0  0  0  0  0  0  0  0  0  0  0  0
   31.0073   28.7973   46.5550 H   0  0  0  0  0  0  0  0  0  0  0  0
  1  6  2  0
  2  1  1  0
  3  4  1  0
  3  2  2  0
  4  5  2  0
  5  7  1  0
  5  6  1  0
  8 10  1  0
  8  7  1  0
  8  9  1  0
 10  9  1  0
  1 11  1  0
  2 12  1  0
  3 13  1  0
  7 14  1  0
  7 15  1  0
  8 16  1  6
  9 17  1  0
  9 18  1  0
 10 19  1  1
 20 21  1  0
 21 22  2  0
 21 23  2  0
 21 24  1  0
 24 25  2  0
 25 26  1  0
 26 27  2  0
 27 28  1  0
 28 29  2  0
 29 24  1  0
 25 30  1  0
 26 31  1  0
 28 32  1  0
 29 33  1  0
 10 27  1  0
M  ISO  8  11  14  12  14  13  14  14   8  15   8  16  13  17  13  18  13
M  ISO  2  19  13  20  12
M  END
>  <DihAtoms>  (1) 
7,9,26,25

>  <DihDeg>  (1) 
-34.881664711321804

$$$$
