REMARK  Name = 
REMARK  4 active torsions:
REMARK  status: ('A' for Active; 'I' for Inactive)
REMARK    1  A    between atoms: C_5  and  C_7
REMARK    2  A    between atoms: C_7  and  C_8
REMARK    3  A    between atoms: C_10  and  C_27
REMARK    4  A    between atoms: S_21  and  C_24
REMARK                            x       y       z     vdW  Elec       q    Type
REMARK                         _______ _______ _______ _____ _____    ______ ____
ROOT
ATOM      1  C   UNL     1      35.411  29.470  49.182  0.00  0.00    +0.000 C 
ATOM      2  C   UNL     1      34.274  29.422  50.118  0.00  0.00    +0.000 C 
ATOM      3  C   UNL     1      34.602  28.191  49.373  0.00  0.00    +0.000 C 
ATOM      4  H   UNL     1      35.250  30.024  48.231  0.00  0.00    +0.000 HD
ATOM      5  H   UNL     1      33.360  30.028  49.864  0.00  0.00    +0.000 HD
ATOM      6  H   UNL     1      34.520  29.532  51.194  0.00  0.00    +0.000 HD
ATOM      7  H   UNL     1      35.079  27.379  49.994  0.00  0.00    +0.000 HD
ENDROOT
BRANCH   3  11
ATOM      8  C   UNL     1      32.210  26.898  46.048  0.00  0.00    +0.000 A 
ATOM      9  C   UNL     1      32.070  26.295  47.273  0.00  0.00    +0.000 A 
ATOM     10  C   UNL     1      32.830  26.692  48.367  0.00  0.00    +0.000 A 
ATOM     11  C   UNL     1      33.763  27.716  48.263  0.00  0.00    +0.000 A 
ATOM     12  C   UNL     1      33.863  28.294  46.992  0.00  0.00    +0.000 A 
ATOM     13  C   UNL     1      33.121  27.920  45.891  0.00  0.00    +0.000 A 
BRANCH   8  15
ATOM     14  H   UNL     1      32.141  26.079  43.641  0.00  0.00    +0.000 HD
ATOM     15  S   UNL     1      31.294  26.460  44.622  0.00  0.00    +0.000 S 
ATOM     16  O   UNL     1      30.550  27.690  44.121  0.00  0.00    +0.000 OA
ATOM     17  O   UNL     1      30.277  25.454  45.008  0.00  0.00    +0.000 OA
ENDBRANCH   8  15
ENDBRANCH   3  11
BRANCH   1  18
ATOM     18  C   UNL     1      36.832  29.391  49.669  0.00  0.00    +0.000 C 
ATOM     19  H   UNL     1      37.259  28.462  49.216  0.00  0.00    +0.000 HD
ATOM     20  H   UNL     1      36.917  29.326  50.767  0.00  0.00    +0.000 HD
BRANCH  18  25
ATOM     21  C   UNL     1      38.417  32.698  49.392  0.00  0.00    +0.000 A 
ATOM     22  C   UNL     1      38.913  32.697  48.075  0.00  0.00    +0.000 A 
ATOM     23  C   UNL     1      38.696  31.553  47.292  0.00  0.00    +0.000 A 
ATOM     24  N   UNL     1      38.014  30.512  47.864  0.00  0.00    +0.000 NA
ATOM     25  C   UNL     1      37.555  30.555  49.135  0.00  0.00    +0.000 A 
ATOM     26  N   UNL     1      37.757  31.645  49.893  0.00  0.00    +0.000 NA
ATOM     27  H   UNL     1      38.576  33.576  50.015  0.00  0.00    +0.000 HD
ATOM     28  H   UNL     1      39.449  33.538  47.651  0.00  0.00    +0.000 HD
ATOM     29  H   UNL     1      39.044  31.472  46.271  0.00  0.00    +0.000 HD
ENDBRANCH  18  25
ENDBRANCH   1  18
TORSDOF 4
