
 OpenBabel03252513583D

 29 31  0  0  1  0  0  0  0  0999 V2000
   36.3530   30.3290   50.5260 C   0  0  2  0  0  0  0  0  0  0  0  0
   35.6580   29.3140   51.3370 C   0  0  0  0  0  0  0  0  0  0  0  0
   35.9630   28.9790   49.9330 C   0  0  1  0  0  0  0  0  0  0  0  0
   35.7500   31.2070   50.2050 H   0  0  0  0  0  0  0  0  0  0  0  0
   34.6040   29.5360   51.6650 H   0  0  0  0  0  0  0  0  0  0  0  0
   36.2370   28.8770   52.1770 H   0  0  0  0  0  0  0  0  0  0  0  0
   36.7940   28.2270   49.7990 H   0  0  0  0  0  0  0  0  0  0  0  0
   32.8240   28.7710   47.0080 C   0  0  0  0  0  0  0  0  0  0  0  0
   33.9120   29.5810   46.7960 C   0  0  0  0  0  3  0  0  0  0  0  0
   34.9430   29.6690   47.7230 C   0  0  0  0  0  3  0  0  0  0  0  0
   34.9130   28.9380   48.9050 C   0  0  0  0  0  0  0  0  0  0  0  0
   33.7820   28.1310   49.0690 C   0  0  0  0  0  3  0  0  0  0  0  0
   32.7450   28.0260   48.1640 C   0  0  0  0  0  3  0  0  0  0  0  0
   30.8070   29.7710   45.8250 H   0  0  0  0  0  0  0  0  0  0  0  0
   31.4860   28.6040   45.8920 S   0  0  0  0  0  0  0  0  0  0  0  0
   30.5250   27.5560   46.4360 O   0  0  0  0  0  0  0  0  0  0  0  0
   32.0100   28.0990   44.6020 O   0  0  0  0  0  0  0  0  0  0  0  0
   37.8350   30.5540   50.6520 C   0  0  0  0  0  0  0  0  0  0  0  0
   38.3030   29.5390   50.6070 H   0  0  0  0  0  0  0  0  0  0  0  0
   38.1260   31.0420   51.5980 H   0  0  0  0  0  0  0  0  0  0  0  0
   39.0000   33.3200   48.5260 C   0  0  0  0  0  0  0  0  0  0  0  0
   39.0790   32.7240   47.2540 C   0  0  0  0  0  0  0  0  0  0  0  0
   38.7300   31.3700   47.1400 C   0  0  0  0  0  0  0  0  0  0  0  0
   38.3330   30.7180   48.2780 N   0  0  0  0  0  0  0  0  0  0  0  0
   38.2720   31.3300   49.4820 C   0  0  0  0  0  0  0  0  0  0  0  0
   38.6040   32.6260   49.6020 N   0  0  0  0  0  0  0  0  0  0  0  0
   39.2670   34.3690   48.6350 H   0  0  0  0  0  0  0  0  0  0  0  0
   39.3970   33.2670   46.3720 H   0  0  0  0  0  0  0  0  0  0  0  0
   38.7630   30.8370   46.1990 H   0  0  0  0  0  0  0  0  0  0  0  0
  1  4  1  6  0  0  0
  1 18  1  0  0  0  0
  1  2  1  0  0  0  0
  2  5  1  0  0  0  0
  2  6  1  0  0  0  0
  3  7  1  6  0  0  0
  3  1  1  0  0  0  0
  3  2  1  0  0  0  0
  8 13  1  0  0  0  0
  9  8  2  0  0  0  0
  9 10  1  0  0  0  0
 10 11  2  0  0  0  0
 11 12  1  0  0  0  0
 11  3  1  0  0  0  0
 13 12  2  0  0  0  0
 14 15  1  0  0  0  0
 15 16  2  0  0  0  0
 15  8  1  0  0  0  0
 17 15  2  0  0  0  0
 18 20  1  0  0  0  0
 19 18  1  0  0  0  0
 21 27  1  0  0  0  0
 21 26  1  0  0  0  0
 22 21  2  0  0  0  0
 23 22  1  0  0  0  0
 23 24  2  0  0  0  0
 24 25  1  0  0  0  0
 25 26  2  0  0  0  0
 25 18  1  0  0  0  0
 28 22  1  0  0  0  0
 29 23  1  0  0  0  0
M  END
>  <minimizedAffinity>
-5.66082716

>  <minimizedRMSD>
1.90166926

$$$$
