
 OpenBabel03252513583D

 29 31  0  0  1  0  0  0  0  0999 V2000
   35.4580   29.4590   49.2040 C   0  0  2  0  0  0  0  0  0  0  0  0
   34.4520   29.5770   50.2740 C   0  0  0  0  0  0  0  0  0  0  0  0
   34.5960   28.2670   49.6090 C   0  0  1  0  0  0  0  0  0  0  0  0
   35.2130   29.9440   48.2330 H   0  0  0  0  0  0  0  0  0  0  0  0
   33.5560   30.2310   50.0800 H   0  0  0  0  0  0  0  0  0  0  0  0
   34.8430   29.7550   51.2960 H   0  0  0  0  0  0  0  0  0  0  0  0
   35.0940   27.4740   50.2380 H   0  0  0  0  0  0  0  0  0  0  0  0
   31.7550   26.7600   46.7620 C   0  0  0  0  0  0  0  0  0  0  0  0
   31.3270   27.4970   47.8390 C   0  0  0  0  0  3  0  0  0  0  0  0
   32.2230   27.9970   48.7750 C   0  0  0  0  0  3  0  0  0  0  0  0
   33.5900   27.7710   48.6590 C   0  0  0  0  0  0  0  0  0  0  0  0
   33.9680   27.0150   47.5450 C   0  0  0  0  0  3  0  0  0  0  0  0
   33.1010   26.5070   46.6000 C   0  0  0  0  0  3  0  0  0  0  0  0
   30.8620   24.7530   45.4790 H   0  0  0  0  0  0  0  0  0  0  0  0
   30.6960   26.0930   45.5380 S   0  0  0  0  0  0  0  0  0  0  0  0
   31.0980   26.6580   44.1830 O   0  0  0  0  0  0  0  0  0  0  0  0
   29.3130   26.5490   45.8160 O   0  0  0  0  0  0  0  0  0  0  0  0
   36.9220   29.3080   49.5170 C   0  0  0  0  0  0  0  0  0  0  0  0
   37.2740   28.4320   48.9170 H   0  0  0  0  0  0  0  0  0  0  0  0
   37.1260   29.1170   50.5840 H   0  0  0  0  0  0  0  0  0  0  0  0
   38.3980   32.6740   49.3940 C   0  0  0  0  0  0  0  0  0  0  0  0
   38.9050   32.7450   48.0830 C   0  0  0  0  0  0  0  0  0  0  0  0
   38.7330   31.6280   47.2510 C   0  0  0  0  0  0  0  0  0  0  0  0
   38.0820   30.5420   47.7720 N   0  0  0  0  0  0  0  0  0  0  0  0
   37.6100   30.5160   49.0390 C   0  0  0  0  0  0  0  0  0  0  0  0
   37.7690   31.5800   49.8440 N   0  0  0  0  0  0  0  0  0  0  0  0
   38.5210   33.5300   50.0550 H   0  0  0  0  0  0  0  0  0  0  0  0
   39.4160   33.6200   47.7000 H   0  0  0  0  0  0  0  0  0  0  0  0
   39.0930   31.6020   46.2310 H   0  0  0  0  0  0  0  0  0  0  0  0
  1  4  1  6  0  0  0
  1 18  1  0  0  0  0
  1  3  1  0  0  0  0
  1  2  1  0  0  0  0
  2  6  1  0  0  0  0
  3  7  1  1  0  0  0
  3  2  1  0  0  0  0
  5  2  1  0  0  0  0
  8  9  1  0  0  0  0
  9 10  2  0  0  0  0
 11 10  1  0  0  0  0
 11  3  1  0  0  0  0
 12 11  2  0  0  0  0
 13  8  2  0  0  0  0
 13 12  1  0  0  0  0
 14 15  1  0  0  0  0
 15 17  2  0  0  0  0
 15  8  1  0  0  0  0
 16 15  2  0  0  0  0
 18 20  1  0  0  0  0
 19 18  1  0  0  0  0
 21 26  1  0  0  0  0
 21 27  1  0  0  0  0
 22 21  2  0  0  0  0
 23 24  2  0  0  0  0
 23 22  1  0  0  0  0
 24 25  1  0  0  0  0
 25 18  1  0  0  0  0
 25 26  2  0  0  0  0
 28 22  1  0  0  0  0
 29 23  1  0  0  0  0
M  END
>  <minimizedAffinity>
-5.16817188

>  <minimizedRMSD>
0.886689663

$$$$
