
 OpenBabel03252510013D

 19 20  0  0  0  0  0  0  0  0999 V2000
   38.7570   32.2380   45.7290 C   0  0  0  0  0  0  0  0  0  0  0  0
   37.7110   31.3410   45.7000 C   0  0  0  0  0  0  0  0  0  0  0  0
   37.2040   30.7810   46.8650 C   0  0  0  0  0  0  0  0  0  0  0  0
   37.7680   31.1360   48.0720 C   0  0  0  0  0  0  0  0  0  0  0  0
   38.8110   32.0360   48.0610 C   0  0  0  0  0  0  0  0  0  0  0  0
   39.3410   32.6120   46.9350 C   0  0  0  0  0  0  0  0  0  0  0  0
   37.1710   30.0170   51.6270 C   0  0  0  0  0  0  0  0  0  0  0  0
   37.8160   30.6530   50.5330 C   0  0  0  0  0  0  0  0  0  0  0  0
   37.2200   30.5360   49.2820 C   0  0  0  0  0  0  0  0  0  0  0  0
   36.0680   29.8320   49.1620 N   0  0  0  0  0  0  0  0  0  0  0  0
   35.4810   29.2370   50.2380 C   0  0  0  0  0  0  0  0  0  0  0  0
   36.0360   29.3360   51.4490 N   0  0  0  0  0  0  0  0  0  0  0  0
   37.6450   30.1130   52.6030 H   0  0  0  0  0  0  0  0  0  0  0  0
   38.7170   31.2010   50.6370 H   0  0  0  0  0  0  0  0  0  0  0  0
   34.5740   28.7100   50.0110 H   0  0  0  0  0  0  0  0  0  0  0  0
   38.2530   33.1990   43.4180 H   0  0  0  0  0  0  0  0  0  0  0  0
   39.3410   32.9030   44.1990 S   0  0  0  0  0  0  0  0  0  0  0  0
   40.1580   34.1310   44.4930 O   0  0  0  0  0  0  0  0  0  0  0  0
   40.1430   31.8730   43.4360 O   0  0  0  0  0  0  0  0  0  0  0  0
  1  6  1  0  0  0  0
  2  1  2  0  0  0  0
  2  3  1  0  0  0  0
  3  4  2  0  0  0  0
  4  9  1  0  0  0  0
  5  4  1  0  0  0  0
  6  5  2  0  0  0  0
  7 13  1  0  0  0  0
  8 14  1  0  0  0  0
  8  7  2  0  0  0  0
  9  8  1  0  0  0  0
 10  9  2  0  0  0  0
 10 11  1  0  0  0  0
 11 12  2  0  0  0  0
 12  7  1  0  0  0  0
 15 11  1  0  0  0  0
 16 17  1  0  0  0  0
 17 18  2  0  0  0  0
 17  1  1  0  0  0  0
 19 17  2  0  0  0  0
M  END
>  <minimizedAffinity>
-5.44818449

>  <minimizedRMSD>
1.13418162

$$$$
