
 OpenBabel03252513193D

 19 20  0  0  0  0  0  0  0  0999 V2000
   35.3320   29.2100   50.3980 C   0  0  0  0  0  0  0  0  0  0  0  0
   36.1420   30.1940   49.7860 C   0  0  0  0  0  0  0  0  0  0  0  0
   35.8430   30.5650   48.4780 C   0  0  0  0  0  0  0  0  0  0  0  0
   34.7850   29.9620   47.8510 N   0  0  0  0  0  0  0  0  0  0  0  0
   34.0310   29.0260   48.4650 C   0  0  0  0  0  0  0  0  0  0  0  0
   34.3110   28.6660   49.7160 N   0  0  0  0  0  0  0  0  0  0  0  0
   35.5600   28.9250   51.4030 H   0  0  0  0  0  0  0  0  0  0  0  0
   36.4360   31.3150   47.9640 H   0  0  0  0  0  0  0  0  0  0  0  0
   32.9420   28.4190   47.7880 N   0  0  0  0  0  0  0  0  0  0  0  0
   32.5690   28.7470   46.4350 C   0  0  0  0  0  0  0  0  0  0  0  0
   31.0440   28.8530   46.4280 C   0  0  0  0  0  0  0  0  0  0  0  0
   30.4650   27.5480   46.6250 N   0  0  0  0  0  0  0  0  0  0  0  0
   30.3520   27.1080   45.6830 H   0  0  0  0  0  0  0  0  0  0  0  0
   31.2860   26.6810   47.4330 C   0  0  0  0  0  0  0  0  0  0  0  0
   32.1320   27.4240   48.4240 C   0  0  0  0  0  0  0  0  0  0  0  0
   37.2810   30.8310   50.4870 C   0  0  0  0  0  0  0  0  0  0  0  0
   38.5100   30.5090   49.9850 F   0  0  0  0  0  0  0  0  0  0  0  0
   37.2920   30.5360   51.8220 F   0  0  0  0  0  0  0  0  0  0  0  0
   37.1610   32.2250   50.3800 F   0  0  0  0  0  0  0  0  0  0  0  0
  1  7  1  0  0  0  0
  2  1  1  0  0  0  0
  2 16  1  0  0  0  0
  3  2  2  0  0  0  0
  4  5  2  0  0  0  0
  4  3  1  0  0  0  0
  5  6  1  0  0  0  0
  6  1  2  0  0  0  0
  8  3  1  0  0  0  0
  9 15  1  0  0  0  0
  9  5  1  0  0  0  0
 10  9  1  0  0  0  0
 11 10  1  0  0  0  0
 11 12  1  0  0  0  0
 12 14  1  0  0  0  0
 13 12  1  0  0  0  0
 14 15  1  0  0  0  0
 16 18  1  0  0  0  0
 17 16  1  0  0  0  0
 19 16  1  0  0  0  0
M  END
>  <minimizedAffinity>
-5.17724895

>  <minimizedRMSD>
0.769535482

$$$$
