
 OpenBabel03252514003D

 25 26  0  0  1  0  0  0  0  0999 V2000
   35.4710   29.4770   49.1660 C   0  0  2  0  0  0  0  0  0  0  0  0
   34.4130   29.4960   50.1860 C   0  0  0  0  0  0  0  0  0  0  0  0
   34.6850   28.2120   49.5490 C   0  0  1  0  0  0  0  0  0  0  0  0
   35.2840   29.9680   48.2090 H   0  0  0  0  0  0  0  0  0  0  0  0
   34.7720   29.6120   51.2470 H   0  0  0  0  0  0  0  0  0  0  0  0
   33.4210   29.9790   50.0210 H   0  0  0  0  0  0  0  0  0  0  0  0
   35.3600   27.3970   49.8310 H   0  0  0  0  0  0  0  0  0  0  0  0
   36.9180   29.4190   49.6460 C   0  0  0  0  0  0  0  0  0  0  0  0
   36.8830   29.4930   50.7510 H   0  0  0  0  0  0  0  0  0  0  0  0
   37.3750   28.4540   49.3850 H   0  0  0  0  0  0  0  0  0  0  0  0
   38.4240   32.7420   49.3610 C   0  0  0  0  0  0  0  0  0  0  0  0
   38.9280   32.7600   48.0510 C   0  0  0  0  0  0  0  0  0  0  0  0
   38.7330   31.6010   47.2800 C   0  0  0  0  0  0  0  0  0  0  0  0
   38.0730   30.5380   47.8410 N   0  0  0  0  0  0  0  0  0  0  0  0
   37.6130   30.5890   49.1090 C   0  0  0  0  0  0  0  0  0  0  0  0
   37.7950   31.6990   49.8620 N   0  0  0  0  0  0  0  0  0  0  0  0
   38.5500   33.6020   49.9820 H   0  0  0  0  0  0  0  0  0  0  0  0
   39.4310   33.6230   47.6820 H   0  0  0  0  0  0  0  0  0  0  0  0
   39.1060   31.5770   46.2670 H   0  0  0  0  0  0  0  0  0  0  0  0
   33.6280   27.7420   48.5860 C   0  0  0  0  0  0  0  0  0  0  0  0
   34.0810   27.0160   47.6120 O   0  0  0  0  0  0  0  0  0  0  0  0
   32.2700   28.0070   48.6640 O   0  0  0  0  0  0  0  0  0  0  0  0
   31.4030   27.6600   47.6630 C   0  0  0  0  0  0  0  0  0  0  0  0
   31.8780   26.9570   46.9660 H   0  0  0  0  0  0  0  0  0  0  0  0
   30.2670   28.2030   47.7430 O   0  0  0  0  0  0  0  0  0  0  0  0
  1  4  1  6  0  0  0
  1  3  1  0  0  0  0
  1  8  1  0  0  0  0
  1  2  1  0  0  0  0
  2  5  1  0  0  0  0
  3  7  1  1  0  0  0
  3  2  1  0  0  0  0
  6  2  1  0  0  0  0
  8  9  1  0  0  0  0
 10  8  1  0  0  0  0
 11 16  1  0  0  0  0
 11 17  1  0  0  0  0
 12 11  2  0  0  0  0
 13 14  2  0  0  0  0
 13 12  1  0  0  0  0
 14 15  1  0  0  0  0
 15  8  1  0  0  0  0
 15 16  2  0  0  0  0
 18 12  1  0  0  0  0
 19 13  1  0  0  0  0
 20 22  1  0  0  0  0
 20  3  1  0  0  0  0
 21 20  2  0  0  0  0
 23 25  2  0  0  0  0
 23 22  1  0  0  0  0
 24 23  1  0  0  0  0
M  END
>  <minimizedAffinity>
-4.4879055

>  <minimizedRMSD>
0.20577991

$$$$
