
     RDKit          3D

 25 26  0  0  0  0  0  0  0  0999 V2000
   36.8959   29.4316   49.6550 C   0  0  0  0  0  0  0  0  0  0  0  0
   38.4239   32.7451   49.3677 C   0  0  0  0  0  0  0  0  0  0  0  0
   38.9396   32.7540   48.0635 C   0  0  0  0  0  0  0  0  0  0  0  0
   38.7450   31.5935   47.2950 C   0  0  0  0  0  0  0  0  0  0  0  0
   38.0737   30.5363   47.8547 N   0  0  0  0  0  0  0  0  0  0  0  0
   37.6029   30.5952   49.1192 C   0  0  0  0  0  0  0  0  0  0  0  0
   37.7847   31.7082   49.8682 N   0  0  0  0  0  0  0  0  0  0  0  0
   35.4370   29.5327   49.2209 C   0  0  2  0  0  0  0  0  0  0  0  0
   34.4068   29.4656   50.2676 C   0  0  0  0  0  0  0  0  0  0  0  0
   34.6569   28.2407   49.5148 C   0  0  1  0  0  0  0  0  0  0  0  0
   33.5718   27.8577   48.5435 C   0  0  0  0  0  0  0  0  0  0  0  0
   33.8748   26.8575   47.7764 O   0  0  0  0  0  0  0  0  0  0  0  0
   32.3301   28.4599   48.4206 O   0  0  0  0  0  0  0  0  0  0  0  0
   36.8972   29.4847   50.7612 H   0  0  0  0  0  0  0  0  0  0  0  0
   37.3223   28.4611   49.3607 H   0  0  0  0  0  0  0  0  0  0  0  0
   38.5487   33.6069   49.9872 H   0  0  0  0  0  0  0  0  0  0  0  0
   39.4509   33.6117   47.6948 H   0  0  0  0  0  0  0  0  0  0  0  0
   39.1273   31.5620   46.2859 H   0  0  0  0  0  0  0  0  0  0  0  0
   35.2262   30.1056   48.3162 H   0  0  0  0  0  0  0  0  0  0  0  0
   34.7950   29.4891   51.3240 H   0  0  0  0  0  0  0  0  0  0  0  0
   33.4134   29.9631   50.1725 H   0  0  0  0  0  0  0  0  0  0  0  0
   35.3360   27.4043   49.7066 H   0  0  0  0  0  0  0  0  0  0  0  0
   31.4023   28.0332   47.5097 C   0  0  0  0  0  0  0  0  0  0  0  0
   31.7894   27.1851   46.9310 H   0  0  0  0  0  0  0  0  0  0  0  0
   30.3208   28.6835   47.5203 O   0  0  0  0  0  0  0  0  0  0  0  0
  2  7  2  0
  3  2  1  0
  4  5  1  0
  4  3  2  0
  5  6  2  0
  6  1  1  0
  6  7  1  0
  8 10  1  0
  8  1  1  0
  8  9  1  0
 10  9  1  0
 11 10  1  0
 12 11  2  0
 13 11  1  0
  1 14  1  0
  1 15  1  0
  2 16  1  0
  3 17  1  0
  4 18  1  0
  8 19  1  6
  9 20  1  0
  9 21  1  0
 10 22  1  1
 23 24  1  0
 23 25  2  0
 13 23  1  0
M  ISO  8  14   8  15   8  16  14  17  14  18  14  19  13  20  13  21  13
M  ISO  2  22  13  24   6
M  END
>  <DihAtoms>  (1) 
10,12,22,23

>  <DihDeg>  (1) 
179.99975970059668

$$$$
