REMARK  Name = 
REMARK  5 active torsions:
REMARK  status: ('A' for Active; 'I' for Inactive)
REMARK    1  A    between atoms: C_1  and  C_6
REMARK    2  A    between atoms: C_1  and  C_8
REMARK    3  A    between atoms: C_10  and  C_11
REMARK    4  A    between atoms: C_11  and  O_13
REMARK    5  A    between atoms: O_13  and  C_23
REMARK                            x       y       z     vdW  Elec       q    Type
REMARK                         _______ _______ _______ _____ _____    ______ ____
ROOT
ATOM      1  C   UNL     1      35.437  29.533  49.221  0.00  0.00    +0.000 C 
ATOM      2  C   UNL     1      34.407  29.466  50.268  0.00  0.00    +0.000 C 
ATOM      3  C   UNL     1      34.657  28.241  49.515  0.00  0.00    +0.000 C 
ATOM      4  H   UNL     1      35.226  30.106  48.316  0.00  0.00    +0.000 HD
ATOM      5  H   UNL     1      34.795  29.489  51.324  0.00  0.00    +0.000 HD
ATOM      6  H   UNL     1      33.413  29.963  50.172  0.00  0.00    +0.000 HD
ATOM      7  H   UNL     1      35.336  27.404  49.707  0.00  0.00    +0.000 HD
ENDROOT
BRANCH   1   8
ATOM      8  C   UNL     1      36.896  29.432  49.655  0.00  0.00    +0.000 C 
ATOM      9  H   UNL     1      36.897  29.485  50.761  0.00  0.00    +0.000 HD
ATOM     10  H   UNL     1      37.322  28.461  49.361  0.00  0.00    +0.000 HD
BRANCH   8  15
ATOM     11  C   UNL     1      38.424  32.745  49.368  0.00  0.00    +0.000 A 
ATOM     12  C   UNL     1      38.940  32.754  48.063  0.00  0.00    +0.000 A 
ATOM     13  C   UNL     1      38.745  31.593  47.295  0.00  0.00    +0.000 A 
ATOM     14  N   UNL     1      38.074  30.536  47.855  0.00  0.00    +0.000 NA
ATOM     15  C   UNL     1      37.603  30.595  49.119  0.00  0.00    +0.000 A 
ATOM     16  N   UNL     1      37.785  31.708  49.868  0.00  0.00    +0.000 NA
ATOM     17  H   UNL     1      38.549  33.607  49.987  0.00  0.00    +0.000 HD
ATOM     18  H   UNL     1      39.451  33.612  47.695  0.00  0.00    +0.000 HD
ATOM     19  H   UNL     1      39.127  31.562  46.286  0.00  0.00    +0.000 HD
ENDBRANCH   8  15
ENDBRANCH   1   8
BRANCH   3  20
ATOM     20  C   UNL     1      33.572  27.858  48.544  0.00  0.00    +0.000 C 
ATOM     21  O   UNL     1      33.875  26.858  47.776  0.00  0.00    +0.000 OA
BRANCH  20  22
ATOM     22  O   UNL     1      32.330  28.460  48.421  0.00  0.00    +0.000 OA
BRANCH  22  23
ATOM     23  C   UNL     1      31.402  28.033  47.510  0.00  0.00    +0.000 C 
ATOM     24  H   UNL     1      31.668  27.042  47.122  0.00  0.00    +0.000 HD
ATOM     25  O   UNL     1      30.457  28.844  47.307  0.00  0.00    +0.000 OA
ENDBRANCH  22  23
ENDBRANCH  20  22
ENDBRANCH   3  20
TORSDOF 5
