REMARK  Name = 
REMARK  6 active torsions:
REMARK  status: ('A' for Active; 'I' for Inactive)
REMARK    1  A    between atoms: C_1  and  C_4
REMARK    2  A    between atoms: C_3  and  C_11
REMARK    3  A    between atoms: C_4  and  C_9
REMARK    4  A    between atoms: C_11  and  O_13
REMARK    5  A    between atoms: O_13  and  C_14
REMARK    6  A    between atoms: C_17  and  N_30
REMARK                            x       y       z     vdW  Elec       q    Type
REMARK                         _______ _______ _______ _____ _____    ______ ____
ROOT
ATOM      1  C   UNL     1      35.295  29.411  48.985  0.00  0.00    +0.000 C 
ATOM      2  C   UNL     1      34.190  29.364  49.935  0.00  0.00    +0.000 C 
ATOM      3  C   UNL     1      34.527  28.098  49.349  0.00  0.00    +0.000 C 
ATOM      4  H   UNL     1      35.181  29.737  47.951  0.00  0.00    +0.000 HD
ATOM      5  H   UNL     1      33.232  29.903  49.692  0.00  0.00    +0.000 HD
ATOM      6  H   UNL     1      34.449  29.565  51.017  0.00  0.00    +0.000 HD
ATOM      7  H   UNL     1      35.178  27.319  49.743  0.00  0.00    +0.000 HD
ENDROOT
BRANCH   1   8
ATOM      8  C   UNL     1      36.712  29.384  49.583  0.00  0.00    +0.000 C 
ATOM      9  H   UNL     1      36.660  29.313  50.672  0.00  0.00    +0.000 HD
ATOM     10  H   UNL     1      37.224  28.451  49.226  0.00  0.00    +0.000 HD
BRANCH   8  15
ATOM     11  C   UNL     1      38.086  32.765  49.447  0.00  0.00    +0.000 A 
ATOM     12  C   UNL     1      38.754  32.779  48.208  0.00  0.00    +0.000 A 
ATOM     13  C   UNL     1      38.716  31.598  47.429  0.00  0.00    +0.000 A 
ATOM     14  N   UNL     1      38.037  30.514  47.919  0.00  0.00    +0.000 NA
ATOM     15  C   UNL     1      37.417  30.565  49.116  0.00  0.00    +0.000 A 
ATOM     16  N   UNL     1      37.450  31.692  49.866  0.00  0.00    +0.000 NA
ATOM     17  H   UNL     1      38.135  33.678  50.012  0.00  0.00    +0.000 HD
ATOM     18  H   UNL     1      39.294  33.646  47.820  0.00  0.00    +0.000 HD
ATOM     19  H   UNL     1      39.209  31.544  46.467  0.00  0.00    +0.000 HD
ENDBRANCH   8  15
ENDBRANCH   1   8
BRANCH   3  20
ATOM     20  C   UNL     1      33.558  27.591  48.300  0.00  0.00    +0.000 C 
ATOM     21  O   UNL     1      33.910  26.436  47.820  0.00  0.00    +0.000 OA
BRANCH  20  22
ATOM     22  O   UNL     1      32.400  28.231  47.855  0.00  0.00    +0.000 OA
BRANCH  22  23
ATOM     23  C   UNL     1      31.143  27.833  48.225  0.00  0.00    +0.000 A 
ATOM     24  C   UNL     1      30.624  27.823  49.615  0.00  0.00    +0.000 A 
ATOM     25  C   UNL     1      29.357  27.399  49.806  0.00  0.00    +0.000 A 
ATOM     26  C   UNL     1      28.539  26.979  48.737  0.00  0.00    +0.000 A 
ATOM     27  S   UNL     1      29.644  27.185  47.255  0.00  0.00    +0.000 S 
ATOM     28  H   UNL     1      31.299  28.156  50.380  0.00  0.00    +0.000 HD
ATOM     29  H   UNL     1      28.915  27.365  50.788  0.00  0.00    +0.000 HD
BRANCH  26  30
ATOM     30  N   UNL     1      27.276  26.527  48.687  0.00  0.00    +0.000 N 
ATOM     31  C   UNL     1      26.744  25.322  49.341  0.00  0.00    +0.000 C 
ATOM     32  C   UNL     1      25.871  25.840  50.454  0.00  0.00    +0.000 C 
ATOM     33  N   UNL     1      24.941  26.842  50.093  0.00  0.00    +0.000 NA
ATOM     34  H   UNL     1      23.952  26.687  50.290  0.00  0.00    +0.000 HD
ATOM     35  C   UNL     1      25.292  27.745  49.061  0.00  0.00    +0.000 C 
ATOM     36  C   UNL     1      26.162  27.160  47.962  0.00  0.00    +0.000 C 
ENDBRANCH  26  30
ENDBRANCH  22  23
ENDBRANCH  20  22
ENDBRANCH   3  20
TORSDOF 6
