
 OpenBabel03252512033D

 36 38  0  0  0  0  0  0  0  0999 V2000
   37.0060   31.6480   48.6680 C   0  0  0  0  0  0  0  0  0  0  0  0
   36.0570   32.0780   48.3930 H   0  0  0  0  0  0  0  0  0  0  0  0
   37.4690   32.3950   49.3910 H   0  0  0  0  0  0  0  0  0  0  0  0
   37.9960   31.5420   47.5350 C   0  0  0  0  0  0  0  0  0  0  0  0
   38.1990   30.3690   46.8700 C   0  0  0  0  0  0  0  0  0  0  0  0
   39.1170   30.2870   45.8530 C   0  0  0  0  0  0  0  0  0  0  0  0
   39.8190   31.4050   45.5270 N   0  0  0  0  0  0  0  0  0  0  0  0
   39.6260   32.5480   46.1690 C   0  0  0  0  0  0  0  0  0  0  0  0
   38.7290   32.6240   47.1590 N   0  0  0  0  0  0  0  0  0  0  0  0
   37.6720   29.4750   47.0870 H   0  0  0  0  0  0  0  0  0  0  0  0
   39.2960   29.3690   45.3120 H   0  0  0  0  0  0  0  0  0  0  0  0
   40.3860   33.7860   45.8250 C   0  0  0  0  0  0  0  0  0  0  0  0
   39.9930   34.6670   46.3670 H   0  0  0  0  0  0  0  0  0  0  0  0
   41.4640   33.6840   46.0420 H   0  0  0  0  0  0  0  0  0  0  0  0
   40.1860   34.1140   44.3440 C   0  0  0  0  0  0  0  0  0  0  0  0
   39.0990   34.1250   44.1270 H   0  0  0  0  0  0  0  0  0  0  0  0
   40.6200   35.0980   44.1430 H   0  0  0  0  0  0  0  0  0  0  0  0
   40.7480   33.3680   43.7340 H   0  0  0  0  0  0  0  0  0  0  0  0
   36.9840   30.2950   49.3010 C   0  0  0  0  0  0  0  0  0  0  0  0
   37.9690   29.7830   49.1760 H   0  0  0  0  0  0  0  0  0  0  0  0
   36.9710   30.5010   50.4200 H   0  0  0  0  0  0  0  0  0  0  0  0
   35.4930   28.3900   49.6850 C   0  0  0  0  0  0  0  0  0  0  0  0
   35.8040   29.5650   49.0060 C   0  0  0  0  0  0  0  0  0  0  0  0
   34.9150   29.9910   48.0660 C   0  0  0  0  0  0  0  0  0  0  0  0
   33.7660   29.2840   47.8070 N   0  0  0  0  0  0  0  0  0  0  0  0
   33.4850   28.1570   48.4690 C   0  0  0  0  0  0  0  0  0  0  0  0
   34.3450   27.7430   49.3790 N   0  0  0  0  0  0  0  0  0  0  0  0
   36.1880   28.0250   50.4430 H   0  0  0  0  0  0  0  0  0  0  0  0
   34.9600   30.8580   47.4280 H   0  0  0  0  0  0  0  0  0  0  0  0
   32.2940   27.4220   48.2030 N   0  0  0  0  0  0  0  0  0  0  0  0
   31.0560   27.6760   48.9180 C   0  0  0  0  0  0  0  0  0  0  0  0
   30.0970   28.2540   47.8880 C   0  0  0  0  0  0  0  0  0  0  0  0
   30.3460   27.6110   46.6230 N   0  0  0  0  0  0  0  0  0  0  0  0
   29.4460   27.6460   46.0630 H   0  0  0  0  0  0  0  0  0  0  0  0
   30.8300   26.2350   46.7810 C   0  0  0  0  0  0  0  0  0  0  0  0
   32.3030   26.3830   47.1900 C   0  0  0  0  0  0  0  0  0  0  0  0
  1 19  1  0  0  0  0
  1  3  1  0  0  0  0
  2  1  1  0  0  0  0
  4  1  1  0  0  0  0
  5 10  1  0  0  0  0
  5  4  2  0  0  0  0
  6  5  1  0  0  0  0
  7  6  2  0  0  0  0
  7  8  1  0  0  0  0
  8  9  2  0  0  0  0
  9  4  1  0  0  0  0
 11  6  1  0  0  0  0
 12 14  1  0  0  0  0
 12  8  1  0  0  0  0
 12 13  1  0  0  0  0
 15 12  1  0  0  0  0
 16 15  1  0  0  0  0
 17 15  1  0  0  0  0
 18 15  1  0  0  0  0
 19 21  1  0  0  0  0
 20 19  1  0  0  0  0
 22 28  1  0  0  0  0
 23 19  1  0  0  0  0
 23 22  2  0  0  0  0
 24 23  1  0  0  0  0
 25 24  2  0  0  0  0
 25 26  1  0  0  0  0
 26 27  2  0  0  0  0
 27 22  1  0  0  0  0
 29 24  1  0  0  0  0
 30 26  1  0  0  0  0
 30 31  1  0  0  0  0
 32 31  1  0  0  0  0
 33 35  1  0  0  0  0
 33 32  1  0  0  0  0
 34 33  1  0  0  0  0
 35 36  1  0  0  0  0
 36 30  1  0  0  0  0
M  END
>  <minimizedAffinity>
-4.71912098

>  <minimizedRMSD>
2.3130579

$$$$
