
 OpenBabel03252513463D

 23 24  0  0  0  0  0  0  0  0999 V2000
   36.9900   29.7350   48.9420 C   0  0  0  0  0  0  0  0  0  0  0  0
   38.0590   30.3210   48.1880 C   0  0  0  0  0  0  0  0  0  0  0  0
   37.7800   30.7620   46.9070 C   0  0  0  0  0  0  0  0  0  0  0  0
   36.5190   30.6160   46.4420 N   0  0  0  0  0  0  0  0  0  0  0  0
   35.5320   30.0650   47.1630 C   0  0  0  0  0  0  0  0  0  0  0  0
   35.7860   29.6410   48.3820 N   0  0  0  0  0  0  0  0  0  0  0  0
   39.0480   30.4030   48.6320 H   0  0  0  0  0  0  0  0  0  0  0  0
   38.7650   31.3430   46.1090 N   0  0  0  0  0  0  0  0  0  0  0  0
   39.2550   32.6730   46.3020 C   0  0  0  0  0  0  0  0  0  0  0  0
   40.3030   33.0490   45.2980 C   0  0  0  0  0  0  0  0  0  0  0  0
   39.9800   32.7070   43.9450 N   0  0  0  0  0  0  0  0  0  0  0  0
   40.8700   32.5090   43.4150 H   0  0  0  0  0  0  0  0  0  0  0  0
   39.1660   31.5280   43.8060 C   0  0  0  0  0  0  0  0  0  0  0  0
   39.3610   30.6040   45.0120 C   0  0  0  0  0  0  0  0  0  0  0  0
   34.2040   29.9840   46.4910 C   0  0  0  0  0  0  0  0  0  0  0  0
   34.3470   30.1580   45.1140 F   0  0  0  0  0  0  0  0  0  0  0  0
   33.6810   28.7260   46.6490 F   0  0  0  0  0  0  0  0  0  0  0  0
   33.2990   30.8840   47.0180 F   0  0  0  0  0  0  0  0  0  0  0  0
   37.2520   29.2910   50.2160 O   0  0  0  0  0  0  0  0  0  0  0  0
   36.9490   29.9930   51.3780 C   0  0  0  0  0  0  0  0  0  0  0  0
   37.8320   29.7600   52.4230 F   0  0  0  0  0  0  0  0  0  0  0  0
   36.7950   31.3530   51.1980 F   0  0  0  0  0  0  0  0  0  0  0  0
   35.7080   29.5000   51.7950 F   0  0  0  0  0  0  0  0  0  0  0  0
  1 19  1  0  0  0  0
  2  7  1  0  0  0  0
  2  1  2  0  0  0  0
  3  2  1  0  0  0  0
  4  3  2  0  0  0  0
  4  5  1  0  0  0  0
  5  6  2  0  0  0  0
  6  1  1  0  0  0  0
  8  9  1  0  0  0  0
  8  3  1  0  0  0  0
 10  9  1  0  0  0  0
 11 10  1  0  0  0  0
 12 11  1  0  0  0  0
 13 11  1  0  0  0  0
 13 14  1  0  0  0  0
 14  8  1  0  0  0  0
 15 17  1  0  0  0  0
 15 18  1  0  0  0  0
 15  5  1  0  0  0  0
 16 15  1  0  0  0  0
 19 20  1  0  0  0  0
 20 23  1  0  0  0  0
 20 21  1  0  0  0  0
 22 20  1  0  0  0  0
M  END
>  <minimizedAffinity>
-5.95219278

>  <minimizedRMSD>
4.74656057

$$$$
