REMARK  Name = 
REMARK  7 active torsions:
REMARK  status: ('A' for Active; 'I' for Inactive)
REMARK    1  A    between atoms: N_1  and  C_12
REMARK    2  A    between atoms: C_5  and  N_10
REMARK    3  A    between atoms: C_15  and  C_17
REMARK    4  A    between atoms: C_17  and  C_18
REMARK    5  A    between atoms: C_17  and  C_19
REMARK    6  A    between atoms: C_17  and  C_20
REMARK    7  A    between atoms: C_20  and  N_35
REMARK                            x       y       z     vdW  Elec       q    Type
REMARK                         _______ _______ _______ _____ _____    ______ ____
ROOT
ATOM      1  C   UNL     1      34.656  29.988  47.409  0.00  0.00    +0.000 A 
ATOM      2  C   UNL     1      35.527  29.888  48.515  0.00  0.00    +0.000 A 
ATOM      3  C   UNL     1      35.434  28.722  49.271  0.00  0.00    +0.000 A 
ATOM      4  N   UNL     1      34.542  27.766  48.923  0.00  0.00    +0.000 NA
ATOM      5  C   UNL     1      33.719  27.887  47.858  0.00  0.00    +0.000 A 
ATOM      6  N   UNL     1      33.783  29.006  47.103  0.00  0.00    +0.000 NA
ATOM      7  H   UNL     1      34.700  30.884  46.796  0.00  0.00    +0.000 HD
ATOM      8  H   UNL     1      36.092  28.643  50.109  0.00  0.00    +0.000 HD
ENDROOT
BRANCH   2   9
ATOM      9  N   UNL     1      36.413  30.967  48.761  0.00  0.00    +0.000 N 
ATOM     10  C   UNL     1      36.386  31.733  49.871  0.00  0.00    +0.000 A 
ATOM     11  N   UNL     1      37.363  32.665  49.781  0.00  0.00    +0.000 NA
ATOM     12  C   UNL     1      37.984  32.462  48.613  0.00  0.00    +0.000 A 
ATOM     13  C   UNL     1      39.047  33.078  47.959  0.00  0.00    +0.000 A 
ATOM     14  N   UNL     1      39.480  32.666  46.765  0.00  0.00    +0.000 NA
ATOM     15  C   UNL     1      38.901  31.618  46.126  0.00  0.00    +0.000 A 
ATOM     16  N   UNL     1      37.875  31.019  46.750  0.00  0.00    +0.000 NA
ATOM     17  C   UNL     1      37.404  31.397  47.950  0.00  0.00    +0.000 A 
ATOM     18  H   UNL     1      35.743  31.694  50.731  0.00  0.00    +0.000 HD
ATOM     19  H   UNL     1      39.234  31.266  45.159  0.00  0.00    +0.000 HD
BRANCH  13  20
ATOM     20  N   UNL     1      39.683  34.173  48.580  0.00  0.00    +0.000 N 
ATOM     21  H   UNL     1      40.256  34.208  49.432  0.00  0.00    +0.000 HD
ATOM     22  H   UNL     1      39.574  35.121  48.127  0.00  0.00    +0.000 HD
ENDBRANCH  13  20
ENDBRANCH   2   9
BRANCH   5  23
ATOM     23  C   UNL     1      32.748  26.846  47.468  0.00  0.00    +0.000 C 
BRANCH  23  24
ATOM     24  C   UNL     1      31.547  26.911  48.443  0.00  0.00    +0.000 C 
ATOM     25  H   UNL     1      31.874  26.549  49.437  0.00  0.00    +0.000 HD
ATOM     26  H   UNL     1      30.745  26.312  48.015  0.00  0.00    +0.000 HD
ATOM     27  H   UNL     1      31.211  27.977  48.459  0.00  0.00    +0.000 HD
ENDBRANCH  23  24
BRANCH  23  28
ATOM     28  C   UNL     1      32.152  27.119  46.109  0.00  0.00    +0.000 C 
ATOM     29  H   UNL     1      32.088  26.187  45.496  0.00  0.00    +0.000 HD
ATOM     30  H   UNL     1      31.073  27.455  46.161  0.00  0.00    +0.000 HD
ATOM     31  H   UNL     1      32.662  27.944  45.563  0.00  0.00    +0.000 HD
ENDBRANCH  23  28
BRANCH  23  32
ATOM     32  C   UNL     1      33.319  25.468  47.474  0.00  0.00    +0.000 C 
ATOM     33  H   UNL     1      32.511  24.687  47.337  0.00  0.00    +0.000 HD
ATOM     34  H   UNL     1      33.628  25.285  48.558  0.00  0.00    +0.000 HD
BRANCH  32  35
ATOM     35  N   UNL     1      34.387  25.142  46.664  0.00  0.00    +0.000 NA
ATOM     36  C   UNL     1      34.248  23.917  45.967  0.00  0.00    +0.000 C 
ATOM     37  C   UNL     1      34.833  24.065  44.581  0.00  0.00    +0.000 C 
ATOM     38  N   UNL     1      36.212  24.373  44.679  0.00  0.00    +0.000 NA
ATOM     39  H   UNL     1      36.845  23.533  44.639  0.00  0.00    +0.000 HD
ATOM     40  C   UNL     1      36.647  25.214  45.729  0.00  0.00    +0.000 C 
ATOM     41  C   UNL     1      35.567  25.865  46.559  0.00  0.00    +0.000 C 
ENDBRANCH  32  35
ENDBRANCH  23  32
ENDBRANCH   5  23
TORSDOF 7
