
 OpenBabel03252513593D

 29 32  0  0  1  0  0  0  0  0999 V2000
   35.2910   29.4220   49.0950 C   0  0  2  0  0  0  0  0  0  0  0  0
   34.1860   29.4940   50.0940 C   0  0  0  0  0  0  0  0  0  0  0  0
   34.4410   28.2010   49.4310 C   0  0  1  0  0  0  0  0  0  0  0  0
   35.1320   29.8430   48.0980 H   0  0  0  0  0  0  0  0  0  0  0  0
   34.4130   29.5710   51.1780 H   0  0  0  0  0  0  0  0  0  0  0  0
   33.3610   30.1740   49.8060 H   0  0  0  0  0  0  0  0  0  0  0  0
   34.9390   27.4130   50.0660 H   0  0  0  0  0  0  0  0  0  0  0  0
   33.4410   27.7500   48.4350 C   0  0  0  0  0  0  0  0  0  0  0  0
   33.9780   27.4050   47.1900 C   0  0  0  0  0  3  0  0  0  0  0  0
   32.9330   27.0360   46.3940 N   0  0  0  0  0  0  0  0  0  0  0  0
   31.7740   27.1230   47.0430 C   0  0  0  0  0  0  0  0  0  0  0  0
   30.4360   26.8970   46.7940 C   0  0  0  0  0  3  0  0  0  0  0  0
   29.4980   27.1210   47.8100 C   0  0  0  0  0  3  0  0  0  0  0  0
   29.8550   27.5690   49.0830 C   0  0  0  0  0  3  0  0  0  0  0  0
   31.2080   27.7990   49.3350 C   0  0  0  0  0  3  0  0  0  0  0  0
   32.0860   27.5630   48.3020 C   0  0  0  0  0  0  0  0  0  0  0  0
   32.9490   26.7140   45.3890 H   0  0  0  0  0  0  0  0  0  0  0  0
   36.7130   29.3610   49.5630 C   0  0  0  0  0  0  0  0  0  0  0  0
   37.2410   28.4440   49.2260 H   0  0  0  0  0  0  0  0  0  0  0  0
   36.6960   29.3410   50.6870 H   0  0  0  0  0  0  0  0  0  0  0  0
   37.8790   32.8500   49.4360 C   0  0  0  0  0  0  0  0  0  0  0  0
   38.6460   32.8790   48.2560 C   0  0  0  0  0  0  0  0  0  0  0  0
   38.7550   31.6900   47.5120 C   0  0  0  0  0  0  0  0  0  0  0  0
   38.1000   30.5750   47.9930 N   0  0  0  0  0  0  0  0  0  0  0  0
   37.3790   30.6010   49.1260 C   0  0  0  0  0  0  0  0  0  0  0  0
   37.2720   31.7430   49.8450 N   0  0  0  0  0  0  0  0  0  0  0  0
   37.7990   33.7710   50.0040 H   0  0  0  0  0  0  0  0  0  0  0  0
   39.1330   33.7800   47.9320 H   0  0  0  0  0  0  0  0  0  0  0  0
   39.3330   31.6550   46.5980 H   0  0  0  0  0  0  0  0  0  0  0  0
  1  4  1  6  0  0  0
  1  3  1  0  0  0  0
  1 18  1  0  0  0  0
  1  2  1  0  0  0  0
  2  5  1  0  0  0  0
  3  7  1  1  0  0  0
  3  2  1  0  0  0  0
  6  2  1  0  0  0  0
  8  3  1  0  0  0  0
  9  8  2  0  0  0  0
 10 11  1  0  0  0  0
 10  9  1  0  0  0  0
 11 16  1  0  0  0  0
 12 11  2  0  0  0  0
 12 13  1  0  0  0  0
 13 14  2  0  0  0  0
 14 15  1  0  0  0  0
 16  8  1  0  0  0  0
 16 15  2  0  0  0  0
 17 10  1  0  0  0  0
 18 20  1  0  0  0  0
 19 18  1  0  0  0  0
 21 26  1  0  0  0  0
 21 27  1  0  0  0  0
 22 21  2  0  0  0  0
 23 24  2  0  0  0  0
 23 22  1  0  0  0  0
 24 25  1  0  0  0  0
 25 18  1  0  0  0  0
 25 26  2  0  0  0  0
 28 22  1  0  0  0  0
 29 23  1  0  0  0  0
M  END
>  <minimizedAffinity>
-5.67031288

>  <minimizedRMSD>
0.452254474

$$$$
