
 OpenBabel03252513583D

 29 32  0  0  1  0  0  0  0  0999 V2000
   35.3910   29.6590   49.3680 C   0  0  2  0  0  0  0  0  0  0  0  0
   34.3770   29.3510   50.4170 C   0  0  0  0  0  0  0  0  0  0  0  0
   34.5780   28.3700   49.3350 C   0  0  1  0  0  0  0  0  0  0  0  0
   35.1430   30.3880   48.5900 H   0  0  0  0  0  0  0  0  0  0  0  0
   34.6980   29.0630   51.4410 H   0  0  0  0  0  0  0  0  0  0  0  0
   33.5280   30.0610   50.4470 H   0  0  0  0  0  0  0  0  0  0  0  0
   35.1320   27.4290   49.6200 H   0  0  0  0  0  0  0  0  0  0  0  0
   33.4970   28.2510   48.3290 C   0  0  0  0  0  0  0  0  0  0  0  0
   32.2690   27.8240   48.8430 C   0  0  0  0  0  3  0  0  0  0  0  0
   31.4010   27.7470   47.7930 N   0  0  0  0  0  0  0  0  0  0  0  0
   31.9900   28.0950   46.6510 C   0  0  0  0  0  0  0  0  0  0  0  0
   31.6570   28.2180   45.3180 C   0  0  0  0  0  3  0  0  0  0  0  0
   32.6280   28.6420   44.4010 C   0  0  0  0  0  3  0  0  0  0  0  0
   33.9370   28.9510   44.7750 C   0  0  0  0  0  3  0  0  0  0  0  0
   34.2730   28.8270   46.1230 C   0  0  0  0  0  3  0  0  0  0  0  0
   33.2830   28.4060   46.9800 C   0  0  0  0  0  0  0  0  0  0  0  0
   30.3850   27.4610   47.7940 H   0  0  0  0  0  0  0  0  0  0  0  0
   36.8490   29.4910   49.6700 C   0  0  0  0  0  0  0  0  0  0  0  0
   37.2610   28.5320   49.2910 H   0  0  0  0  0  0  0  0  0  0  0  0
   36.9610   29.4820   50.7890 H   0  0  0  0  0  0  0  0  0  0  0  0
   38.2550   32.8770   49.3470 C   0  0  0  0  0  0  0  0  0  0  0  0
   38.8840   32.8350   48.0880 C   0  0  0  0  0  0  0  0  0  0  0  0
   38.8160   31.6330   47.3600 C   0  0  0  0  0  0  0  0  0  0  0  0
   38.1370   30.5770   47.9310 N   0  0  0  0  0  0  0  0  0  0  0  0
   37.5530   30.6700   49.1380 C   0  0  0  0  0  0  0  0  0  0  0  0
   37.6160   31.8240   49.8430 N   0  0  0  0  0  0  0  0  0  0  0  0
   38.3110   33.8070   49.9040 H   0  0  0  0  0  0  0  0  0  0  0  0
   39.3980   33.6910   47.6950 H   0  0  0  0  0  0  0  0  0  0  0  0
   39.2820   31.5440   46.3860 H   0  0  0  0  0  0  0  0  0  0  0  0
  1  4  1  6  0  0  0
  1 18  1  0  0  0  0
  1  2  1  0  0  0  0
  2  6  1  0  0  0  0
  2  5  1  0  0  0  0
  3  1  1  0  0  0  0
  3  7  1  1  0  0  0
  3  2  1  0  0  0  0
  8  9  2  0  0  0  0
  8  3  1  0  0  0  0
 10 17  1  0  0  0  0
 10  9  1  0  0  0  0
 11 16  1  0  0  0  0
 11 10  1  0  0  0  0
 12 11  2  0  0  0  0
 13 14  2  0  0  0  0
 13 12  1  0  0  0  0
 14 15  1  0  0  0  0
 15 16  2  0  0  0  0
 16  8  1  0  0  0  0
 18 20  1  0  0  0  0
 19 18  1  0  0  0  0
 21 26  1  0  0  0  0
 21 27  1  0  0  0  0
 22 21  2  0  0  0  0
 23 24  2  0  0  0  0
 23 22  1  0  0  0  0
 24 25  1  0  0  0  0
 25 18  1  0  0  0  0
 25 26  2  0  0  0  0
 28 22  1  0  0  0  0
 29 23  1  0  0  0  0
M  END
>  <minimizedAffinity>
-5.31527615

>  <minimizedRMSD>
0.670219839

$$$$
