
 OpenBabel03252513583D

 29 32  0  0  1  0  0  0  0  0999 V2000
   35.4270   29.6310   49.3920 C   0  0  2  0  0  0  0  0  0  0  0  0
   34.4170   29.3340   50.4480 C   0  0  0  0  0  0  0  0  0  0  0  0
   34.6000   28.3500   49.3640 C   0  0  1  0  0  0  0  0  0  0  0  0
   35.1820   30.3630   48.6170 H   0  0  0  0  0  0  0  0  0  0  0  0
   34.7410   29.0420   51.4700 H   0  0  0  0  0  0  0  0  0  0  0  0
   33.5750   30.0520   50.4830 H   0  0  0  0  0  0  0  0  0  0  0  0
   35.1460   27.4040   49.6460 H   0  0  0  0  0  0  0  0  0  0  0  0
   33.5110   28.2430   48.3660 C   0  0  0  0  0  0  0  0  0  0  0  0
   32.2840   27.8200   48.8870 C   0  0  0  0  0  3  0  0  0  0  0  0
   31.4080   27.7540   47.8420 N   0  0  0  0  0  0  0  0  0  0  0  0
   31.9920   28.1050   46.6980 C   0  0  0  0  0  0  0  0  0  0  0  0
   31.6490   28.2370   45.3670 C   0  0  0  0  0  3  0  0  0  0  0  0
   32.6160   28.6600   44.4460 C   0  0  0  0  0  3  0  0  0  0  0  0
   33.9290   28.9600   44.8120 C   0  0  0  0  0  3  0  0  0  0  0  0
   34.2750   28.8260   46.1580 C   0  0  0  0  0  3  0  0  0  0  0  0
   33.2880   28.4070   47.0190 C   0  0  0  0  0  0  0  0  0  0  0  0
   30.3910   27.4740   47.8500 H   0  0  0  0  0  0  0  0  0  0  0  0
   36.8850   29.4480   49.6850 C   0  0  0  0  0  0  0  0  0  0  0  0
   37.2810   28.4780   49.3160 H   0  0  0  0  0  0  0  0  0  0  0  0
   37.0060   29.4530   50.8030 H   0  0  0  0  0  0  0  0  0  0  0  0
   38.4460   32.7640   49.3530 C   0  0  0  0  0  0  0  0  0  0  0  0
   38.9440   32.7440   48.0360 C   0  0  0  0  0  0  0  0  0  0  0  0
   38.7360   31.5800   47.2730 C   0  0  0  0  0  0  0  0  0  0  0  0
   38.0570   30.5380   47.8690 N   0  0  0  0  0  0  0  0  0  0  0  0
   37.6000   30.6100   49.1310 C   0  0  0  0  0  0  0  0  0  0  0  0
   37.7980   31.7270   49.8690 N   0  0  0  0  0  0  0  0  0  0  0  0
   38.6100   33.6650   49.9360 H   0  0  0  0  0  0  0  0  0  0  0  0
   39.4660   33.5870   47.6260 H   0  0  0  0  0  0  0  0  0  0  0  0
   39.0980   31.5100   46.2550 H   0  0  0  0  0  0  0  0  0  0  0  0
  1  4  1  6  0  0  0
  1 18  1  0  0  0  0
  1  2  1  0  0  0  0
  2  6  1  0  0  0  0
  2  5  1  0  0  0  0
  3  1  1  0  0  0  0
  3  7  1  1  0  0  0
  3  2  1  0  0  0  0
  8  9  2  0  0  0  0
  8  3  1  0  0  0  0
 10 17  1  0  0  0  0
 10  9  1  0  0  0  0
 11 16  1  0  0  0  0
 11 10  1  0  0  0  0
 12 11  2  0  0  0  0
 13 14  2  0  0  0  0
 13 12  1  0  0  0  0
 14 15  1  0  0  0  0
 15 16  2  0  0  0  0
 16  8  1  0  0  0  0
 18 20  1  0  0  0  0
 19 18  1  0  0  0  0
 21 26  1  0  0  0  0
 21 27  1  0  0  0  0
 22 21  2  0  0  0  0
 23 24  2  0  0  0  0
 23 22  1  0  0  0  0
 24 25  1  0  0  0  0
 25 18  1  0  0  0  0
 25 26  2  0  0  0  0
 28 22  1  0  0  0  0
 29 23  1  0  0  0  0
M  END
>  <minimizedAffinity>
-5.32110453

>  <minimizedRMSD>
0.509860158

$$$$
