
 OpenBabel03252512363D

 35 38  0  0  1  0  0  0  0  0999 V2000
   38.6880   31.5520   48.3710 C   0  0  2  0  0  0  0  0  0  0  0  0
   38.4220   32.9910   48.2260 C   0  0  0  0  0  0  0  0  0  0  0  0
   39.4580   33.6860   47.4140 C   0  0  0  0  0  0  0  0  0  0  0  0
   39.7450   33.0190   46.1320 C   0  0  0  0  0  0  0  0  0  0  0  0
   39.9970   31.5490   46.2840 C   0  0  0  0  0  0  0  0  0  0  0  0
   38.9250   30.8610   47.1130 C   0  0  2  0  0  0  0  0  0  0  0  0
   39.6880   31.5120   48.9300 H   0  0  0  0  0  0  0  0  0  0  0  0
   37.3770   33.3050   48.0400 H   0  0  0  0  0  0  0  0  0  0  0  0
   38.5950   33.4360   49.2610 H   0  0  0  0  0  0  0  0  0  0  0  0
   39.0700   34.7150   47.1860 H   0  0  0  0  0  0  0  0  0  0  0  0
   40.3980   33.8640   47.9840 H   0  0  0  0  0  0  0  0  0  0  0  0
   38.9870   33.2040   45.3390 H   0  0  0  0  0  0  0  0  0  0  0  0
   40.6880   33.4600   45.7160 H   0  0  0  0  0  0  0  0  0  0  0  0
   40.0960   31.0300   45.3330 H   0  0  0  0  0  0  0  0  0  0  0  0
   40.9670   31.4770   46.8610 H   0  0  0  0  0  0  0  0  0  0  0  0
   39.4590   29.8980   47.3850 H   0  0  0  0  0  0  0  0  0  0  0  0
   37.8320   30.5290   46.2170 C   0  0  0  0  0  0  0  0  0  0  0  0
   37.7740   30.2090   44.8770 C   0  0  0  0  0  0  0  0  0  0  0  0
   36.5350   29.9630   44.4270 N   0  0  0  0  0  0  0  0  0  0  0  0
   35.7390   30.1200   45.4760 C   0  0  0  0  0  0  0  0  0  0  0  0
   34.3630   30.0060   45.6500 C   0  0  0  0  0  0  0  0  0  0  0  0
   33.7570   30.2280   46.8880 C   0  0  0  0  0  0  0  0  0  0  0  0
   34.5090   30.5690   47.9830 C   0  0  0  0  0  0  0  0  0  0  0  0
   35.8580   30.6800   47.8060 C   0  0  0  0  0  0  0  0  0  0  0  0
   36.4690   30.4570   46.5660 C   0  0  0  0  0  0  0  0  0  0  0  0
   36.2590   29.7050   43.4600 H   0  0  0  0  0  0  0  0  0  0  0  0
   36.8260   31.5070   50.0610 C   0  0  0  0  0  0  0  0  0  0  0  0
   37.7710   30.8610   49.2470 C   0  0  0  0  0  0  0  0  0  0  0  0
   37.8420   29.4850   49.3050 C   0  0  0  0  0  0  0  0  0  0  0  0
   37.0010   28.8040   50.1390 N   0  0  0  0  0  0  0  0  0  0  0  0
   36.1070   29.4520   50.9060 C   0  0  0  0  0  0  0  0  0  0  0  0
   36.0330   30.7810   50.8560 N   0  0  0  0  0  0  0  0  0  0  0  0
   36.7580   32.5850   50.0260 H   0  0  0  0  0  0  0  0  0  0  0  0
   38.4730   28.8220   48.7840 H   0  0  0  0  0  0  0  0  0  0  0  0
   35.4150   28.9780   51.5870 H   0  0  0  0  0  0  0  0  0  0  0  0
  1  7  1  1  0  0  0
  1 28  1  0  0  0  0
  2  1  1  0  0  0  0
  2  9  1  0  0  0  0
  3 11  1  0  0  0  0
  3  2  1  0  0  0  0
  4  5  1  0  0  0  0
  4  3  1  0  0  0  0
  5 15  1  0  0  0  0
  5  6  1  0  0  0  0
  6 16  1  1  0  0  0
  6  1  1  0  0  0  0
  8  2  1  0  0  0  0
 10  3  1  0  0  0  0
 12  4  1  0  0  0  0
 13  4  1  0  0  0  0
 14  5  1  0  0  0  0
 17 25  1  0  0  0  0
 17  6  1  0  0  0  0
 18 17  2  0  0  0  0
 19 18  1  0  0  0  0
 19 20  1  0  0  0  0
 20 21  2  0  0  0  0
 20 25  1  0  0  0  0
 21 22  1  0  0  0  0
 22 23  2  0  0  0  0
 24 23  1  0  0  0  0
 25 24  2  0  0  0  0
 26 19  1  0  0  0  0
 27 32  1  0  0  0  0
 28 29  1  0  0  0  0
 28 27  2  0  0  0  0
 29 30  2  0  0  0  0
 30 31  1  0  0  0  0
 31 35  1  0  0  0  0
 32 31  2  0  0  0  0
 33 27  1  0  0  0  0
 34 29  1  0  0  0  0
M  END
>  <minimizedAffinity>
-4.9023366

>  <minimizedRMSD>
2.32986784

$$$$
