REMARK  Name = 
REMARK  3 active torsions:
REMARK  status: ('A' for Active; 'I' for Inactive)
REMARK    1  A    between atoms: C_5  and  C_7
REMARK    2  A    between atoms: C_7  and  C_8
REMARK    3  A    between atoms: C_10  and  C_20
REMARK                            x       y       z     vdW  Elec       q    Type
REMARK                         _______ _______ _______ _____ _____    ______ ____
ROOT
ATOM      1  C   UNL     1      35.420  29.461  49.165  0.00  0.00    +0.000 C 
ATOM      2  C   UNL     1      34.291  29.425  50.139  0.00  0.00    +0.000 C 
ATOM      3  C   UNL     1      34.586  28.201  49.371  0.00  0.00    +0.000 C 
ATOM      4  H   UNL     1      35.275  29.966  48.205  0.00  0.00    +0.000 HD
ATOM      5  H   UNL     1      34.492  29.410  51.231  0.00  0.00    +0.000 HD
ATOM      6  H   UNL     1      33.460  30.114  49.892  0.00  0.00    +0.000 HD
ATOM      7  H   UNL     1      35.084  27.368  49.946  0.00  0.00    +0.000 HD
ENDROOT
BRANCH   3   8
ATOM      8  C   UNL     1      33.618  27.823  48.315  0.00  0.00    +0.000 A 
ATOM      9  C   UNL     1      34.135  26.973  47.332  0.00  0.00    +0.000 A 
ATOM     10  N   UNL     1      33.133  26.743  46.435  0.00  0.00    +0.000 N 
ATOM     11  C   UNL     1      32.018  27.385  46.779  0.00  0.00    +0.000 A 
ATOM     12  C   UNL     1      30.731  27.538  46.306  0.00  0.00    +0.000 A 
ATOM     13  C   UNL     1      29.827  28.339  47.013  0.00  0.00    +0.000 A 
ATOM     14  C   UNL     1      30.167  29.003  48.193  0.00  0.00    +0.000 A 
ATOM     15  C   UNL     1      31.469  28.848  48.672  0.00  0.00    +0.000 A 
ATOM     16  C   UNL     1      32.316  28.051  47.938  0.00  0.00    +0.000 A 
ATOM     17  H   UNL     1      33.150  26.151  45.561  0.00  0.00    +0.000 HD
ENDBRANCH   3   8
BRANCH   1  18
ATOM     18  C   UNL     1      36.832  29.384  49.660  0.00  0.00    +0.000 C 
ATOM     19  H   UNL     1      37.325  28.420  49.412  0.00  0.00    +0.000 HD
ATOM     20  H   UNL     1      36.799  29.462  50.781  0.00  0.00    +0.000 HD
BRANCH  18  25
ATOM     21  C   UNL     1      38.406  32.700  49.394  0.00  0.00    +0.000 A 
ATOM     22  C   UNL     1      38.911  32.701  48.080  0.00  0.00    +0.000 A 
ATOM     23  C   UNL     1      38.703  31.552  47.295  0.00  0.00    +0.000 A 
ATOM     24  N   UNL     1      38.017  30.502  47.869  0.00  0.00    +0.000 NA
ATOM     25  C   UNL     1      37.554  30.553  49.130  0.00  0.00    +0.000 A 
ATOM     26  N   UNL     1      37.752  31.656  49.889  0.00  0.00    +0.000 NA
ATOM     27  H   UNL     1      38.570  33.590  49.994  0.00  0.00    +0.000 HD
ATOM     28  H   UNL     1      39.438  33.550  47.688  0.00  0.00    +0.000 HD
ATOM     29  H   UNL     1      39.070  31.498  46.278  0.00  0.00    +0.000 HD
ENDBRANCH  18  25
ENDBRANCH   1  18
TORSDOF 3
