
 OpenBabel03252513583D

 29 32  0  0  1  0  0  0  0  0999 V2000
   36.3110   30.2990   50.2690 C   0  0  2  0  0  0  0  0  0  0  0  0
   35.5530   29.3490   51.1340 C   0  0  0  0  0  0  0  0  0  0  0  0
   35.8410   28.9460   49.7450 C   0  0  1  0  0  0  0  0  0  0  0  0
   35.7900   31.1670   49.8540 H   0  0  0  0  0  0  0  0  0  0  0  0
   36.0690   28.7980   51.9490 H   0  0  0  0  0  0  0  0  0  0  0  0
   34.5680   29.7290   51.4670 H   0  0  0  0  0  0  0  0  0  0  0  0
   36.6410   28.1610   49.6170 H   0  0  0  0  0  0  0  0  0  0  0  0
   34.6970   28.9190   48.8050 C   0  0  0  0  0  0  0  0  0  0  0  0
   33.5220   28.3770   49.3330 C   0  0  0  0  0  3  0  0  0  0  0  0
   32.5860   28.4060   48.3410 N   0  0  0  0  0  0  0  0  0  0  0  0
   33.0840   28.9290   47.2220 C   0  0  0  0  0  0  0  0  0  0  0  0
   32.6540   29.2170   45.9420 C   0  0  0  0  0  3  0  0  0  0  0  0
   33.5430   29.8000   45.0320 C   0  0  0  0  0  3  0  0  0  0  0  0
   34.8650   30.1100   45.3590 C   0  0  0  0  0  3  0  0  0  0  0  0
   35.2990   29.8180   46.6520 C   0  0  0  0  0  3  0  0  0  0  0  0
   34.3840   29.2460   47.5060 C   0  0  0  0  0  0  0  0  0  0  0  0
   31.5830   28.0810   48.3680 H   0  0  0  0  0  0  0  0  0  0  0  0
   37.7930   30.4410   50.4410 C   0  0  0  0  0  0  0  0  0  0  0  0
   38.3210   29.4640   50.4630 H   0  0  0  0  0  0  0  0  0  0  0  0
   37.9690   30.9360   51.4340 H   0  0  0  0  0  0  0  0  0  0  0  0
   39.0300   33.4180   48.6670 C   0  0  0  0  0  0  0  0  0  0  0  0
   39.1860   32.9530   47.3470 C   0  0  0  0  0  0  0  0  0  0  0  0
   38.8610   31.6100   47.0810 C   0  0  0  0  0  0  0  0  0  0  0  0
   38.4120   30.8410   48.1350 N   0  0  0  0  0  0  0  0  0  0  0  0
   38.2800   31.3360   49.3780 C   0  0  0  0  0  0  0  0  0  0  0  0
   38.5920   32.6270   49.6380 N   0  0  0  0  0  0  0  0  0  0  0  0
   39.2830   34.4560   48.8650 H   0  0  0  0  0  0  0  0  0  0  0  0
   39.5410   33.6000   46.5680 H   0  0  0  0  0  0  0  0  0  0  0  0
   38.9620   31.1990   46.0850 H   0  0  0  0  0  0  0  0  0  0  0  0
  1  4  1  6  0  0  0
  1 18  1  0  0  0  0
  1  2  1  0  0  0  0
  2  6  1  0  0  0  0
  2  5  1  0  0  0  0
  3  7  1  6  0  0  0
  3  1  1  0  0  0  0
  3  2  1  0  0  0  0
  8  9  2  0  0  0  0
  8  3  1  0  0  0  0
 10 17  1  0  0  0  0
 10  9  1  0  0  0  0
 11 16  1  0  0  0  0
 11 10  1  0  0  0  0
 12 11  2  0  0  0  0
 13 14  2  0  0  0  0
 13 12  1  0  0  0  0
 14 15  1  0  0  0  0
 15 16  2  0  0  0  0
 16  8  1  0  0  0  0
 18 19  1  0  0  0  0
 18 20  1  0  0  0  0
 21 27  1  0  0  0  0
 21 26  1  0  0  0  0
 22 21  2  0  0  0  0
 23 22  1  0  0  0  0
 23 24  2  0  0  0  0
 24 25  1  0  0  0  0
 25 26  2  0  0  0  0
 25 18  1  0  0  0  0
 28 22  1  0  0  0  0
 29 23  1  0  0  0  0
M  END
>  <minimizedAffinity>
-5.91923952

>  <minimizedRMSD>
1.52288735

$$$$
