
 OpenBabel03252511263D

 35 39  0  0  0  0  0  0  0  0999 V2000
   33.5970   26.8500   47.6740 C   0  0  0  0  0  0  0  0  0  0  0  0
   32.6890   27.4690   46.8170 C   0  0  0  0  0  0  0  0  0  0  0  0
   32.7480   28.8440   46.7750 C   0  0  0  0  0  0  0  0  0  0  0  0
   33.6500   29.4840   47.5410 N   0  0  0  0  0  0  0  0  0  0  0  0
   34.5150   28.9080   48.3560 C   0  0  0  0  0  0  0  0  0  0  0  0
   34.4430   27.5840   48.3820 N   0  0  0  0  0  0  0  0  0  0  0  0
   33.5430   25.7690   47.6990 H   0  0  0  0  0  0  0  0  0  0  0  0
   31.9770   26.9190   46.2160 H   0  0  0  0  0  0  0  0  0  0  0  0
   35.5290   29.4470   49.2310 C   0  0  0  0  0  0  0  0  0  0  0  0
   35.5830   29.1620   50.6090 C   0  0  0  0  0  0  0  0  0  0  0  0
   36.5280   29.6530   51.4700 C   0  0  0  0  0  0  0  0  0  0  0  0
   37.5070   30.4810   50.9990 C   0  0  0  0  0  0  0  0  0  0  0  0
   37.5210   30.8010   49.6790 C   0  0  0  0  0  0  0  0  0  0  0  0
   38.5240   31.6380   49.2440 C   0  0  0  0  0  0  0  0  0  0  0  0
   38.5960   32.0020   47.9230 C   0  0  0  0  0  0  0  0  0  0  0  0
   37.6370   31.5020   47.0540 C   0  0  0  0  0  0  0  0  0  0  0  0
   36.6590   30.6690   47.5510 C   0  0  0  0  0  0  0  0  0  0  0  0
   36.5490   30.2830   48.8490 C   0  0  0  0  0  0  0  0  0  0  0  0
   34.8160   28.5010   51.0320 H   0  0  0  0  0  0  0  0  0  0  0  0
   36.4840   29.3720   52.5240 H   0  0  0  0  0  0  0  0  0  0  0  0
   38.2180   30.8300   51.7310 H   0  0  0  0  0  0  0  0  0  0  0  0
   39.2660   32.0210   49.9330 H   0  0  0  0  0  0  0  0  0  0  0  0
   39.4030   32.6630   47.6200 H   0  0  0  0  0  0  0  0  0  0  0  0
   37.7420   31.8190   46.0310 H   0  0  0  0  0  0  0  0  0  0  0  0
   35.9210   30.2980   46.8270 H   0  0  0  0  0  0  0  0  0  0  0  0
   31.8520   29.6180   45.9200 C   0  0  0  0  0  0  0  0  0  0  0  0
   32.2610   30.3880   44.8440 C   0  0  0  0  0  0  0  0  0  0  0  0
   31.1700   30.9520   44.2940 N   0  0  0  0  0  0  0  0  0  0  0  0
   30.0850   30.5470   45.0100 C   0  0  0  0  0  0  0  0  0  0  0  0
   28.7390   30.8480   44.8500 C   0  0  0  0  0  0  0  0  0  0  0  0
   27.8020   30.3110   45.7110 C   0  0  0  0  0  0  0  0  0  0  0  0
   28.1890   29.4630   46.7530 C   0  0  0  0  0  0  0  0  0  0  0  0
   29.5460   29.1700   46.9010 C   0  0  0  0  0  0  0  0  0  0  0  0
   30.4810   29.7040   46.0430 C   0  0  0  0  0  0  0  0  0  0  0  0
   31.2100   31.5720   43.4780 H   0  0  0  0  0  0  0  0  0  0  0  0
  1  7  1  0  0  0  0
  1  6  1  0  0  0  0
  2  1  2  0  0  0  0
  3  2  1  0  0  0  0
  3  4  2  0  0  0  0
  4  5  1  0  0  0  0
  5  6  2  0  0  0  0
  5  9  1  0  0  0  0
  8  2  1  0  0  0  0
  9 10  1  0  0  0  0
 10 19  1  0  0  0  0
 10 11  2  0  0  0  0
 11 20  1  0  0  0  0
 12 11  1  0  0  0  0
 12 21  1  0  0  0  0
 13 12  2  0  0  0  0
 14 13  1  0  0  0  0
 14 22  1  0  0  0  0
 15 14  2  0  0  0  0
 16 17  2  0  0  0  0
 16 15  1  0  0  0  0
 17 18  1  0  0  0  0
 18  9  2  0  0  0  0
 18 13  1  0  0  0  0
 23 15  1  0  0  0  0
 24 16  1  0  0  0  0
 25 17  1  0  0  0  0
 26 34  1  0  0  0  0
 26  3  1  0  0  0  0
 27 26  2  0  0  0  0
 28 27  1  0  0  0  0
 28 29  1  0  0  0  0
 29 34  1  0  0  0  0
 30 29  2  0  0  0  0
 30 31  1  0  0  0  0
 31 32  2  0  0  0  0
 32 33  1  0  0  0  0
 34 33  2  0  0  0  0
 35 28  1  0  0  0  0
M  END
>  <minimizedAffinity>
-7.28853178

>  <minimizedRMSD>
0.587980449

$$$$
