REMARK  Name = 
REMARK  2 active torsions:
REMARK  status: ('A' for Active; 'I' for Inactive)
REMARK    1  A    between atoms: C_1  and  C_12
REMARK    2  A    between atoms: C_5  and  C_20
REMARK                            x       y       z     vdW  Elec       q    Type
REMARK                         _______ _______ _______ _____ _____    ______ ____
ROOT
ATOM      1  C   UNL     1      36.900  29.957  49.847  0.00  0.00    +0.000 A 
ATOM      2  C   UNL     1      38.009  30.631  49.378  0.00  0.00    +0.000 A 
ATOM      3  C   UNL     1      38.001  31.086  48.065  0.00  0.00    +0.000 A 
ATOM      4  N   UNL     1      36.895  30.840  47.311  0.00  0.00    +0.000 NA
ATOM      5  C   UNL     1      35.817  30.174  47.799  0.00  0.00    +0.000 A 
ATOM      6  N   UNL     1      35.859  29.752  49.064  0.00  0.00    +0.000 NA
ATOM      7  N   UNL     1      39.101  31.787  47.517  0.00  0.00    +0.000 N 
ATOM      8  C   UNL     1      38.962  32.599  46.358  0.00  0.00    +0.000 C 
ATOM      9  N   UNL     1      37.882  32.511  45.682  0.00  0.00    +0.000 NA
ATOM     10  N   UNL     1      40.000  33.479  45.974  0.00  0.00    +0.000 N 
ATOM     11  H   UNL     1      37.832  32.984  44.747  0.00  0.00    +0.000 HD
ATOM     12  H   UNL     1      38.862  30.800  50.020  0.00  0.00    +0.000 HD
ATOM     13  H   UNL     1      40.031  31.714  47.961  0.00  0.00    +0.000 HD
ATOM     14  H   UNL     1      39.827  34.168  45.198  0.00  0.00    +0.000 HD
ATOM     15  H   UNL     1      40.921  33.440  46.456  0.00  0.00    +0.000 HD
ENDROOT
BRANCH   5  16
ATOM     16  C   UNL     1      34.761  30.004  46.811  0.00  0.00    +0.000 A 
ATOM     17  C   UNL     1      33.818  29.009  46.937  0.00  0.00    +0.000 A 
ATOM     18  C   UNL     1      32.804  28.784  46.042  0.00  0.00    +0.000 A 
ATOM     19  C   UNL     1      32.669  29.572  44.927  0.00  0.00    +0.000 A 
ATOM     20  C   UNL     1      33.583  30.585  44.744  0.00  0.00    +0.000 A 
ATOM     21  C   UNL     1      33.462  31.376  43.630  0.00  0.00    +0.000 A 
ATOM     22  C   UNL     1      34.346  32.403  43.380  0.00  0.00    +0.000 A 
ATOM     23  C   UNL     1      35.362  32.596  44.314  0.00  0.00    +0.000 A 
ATOM     24  C   UNL     1      35.440  31.778  45.413  0.00  0.00    +0.000 A 
ATOM     25  C   UNL     1      34.575  30.753  45.682  0.00  0.00    +0.000 A 
ENDBRANCH   5  16
BRANCH   1  26
ATOM     26  C   UNL     1      36.874  29.450  51.257  0.00  0.00    +0.000 C 
ATOM     27  F   UNL     1      35.585  29.170  51.654  0.00  0.00    +0.000 F 
ATOM     28  F   UNL     1      37.742  28.401  51.352  0.00  0.00    +0.000 F 
ATOM     29  F   UNL     1      37.349  30.500  52.065  0.00  0.00    +0.000 F 
ENDBRANCH   1  26
TORSDOF 2
