
 OpenBabel03252512583D

 31 35  0  0  0  0  0  0  0  0999 V2000
   37.2510   30.2260   51.1770 C   0  0  0  0  0  0  0  0  0  0  0  0
   38.0730   30.9440   50.3070 C   0  0  0  0  0  0  0  0  0  0  0  0
   37.6730   31.0110   48.9840 C   0  0  0  0  0  0  0  0  0  0  0  0
   36.5320   30.3880   48.6220 N   0  0  0  0  0  0  0  0  0  0  0  0
   35.7560   29.7000   49.4820 C   0  0  0  0  0  0  0  0  0  0  0  0
   36.1310   29.6260   50.7710 N   0  0  0  0  0  0  0  0  0  0  0  0
   37.5220   30.1450   52.2200 H   0  0  0  0  0  0  0  0  0  0  0  0
   38.9830   31.4360   50.6180 H   0  0  0  0  0  0  0  0  0  0  0  0
   38.4380   31.7310   47.9570 C   0  0  0  0  0  0  0  0  0  0  0  0
   39.1990   32.8500   48.0120 N   0  0  0  0  0  0  0  0  0  0  0  0
   39.6810   33.1010   46.8250 O   0  0  0  0  0  0  0  0  0  0  0  0
   39.2520   32.1740   46.0030 C   0  0  0  0  0  0  0  0  0  0  0  0
   38.4570   31.2760   46.6610 N   0  0  0  0  0  0  0  0  0  0  0  0
   39.5320   32.0580   44.6080 N   0  0  0  0  0  0  0  0  0  0  0  0
   39.0950   32.9180   43.7000 N   0  0  0  0  0  0  0  0  0  0  0  0
   39.5050   32.5670   42.4770 C   0  0  0  0  0  0  0  0  0  0  0  0
   40.2450   31.4080   42.6620 C   0  0  0  0  0  0  0  0  0  0  0  0
   40.2640   31.0810   44.0180 C   0  0  0  0  0  0  0  0  0  0  0  0
   39.2700   33.1210   41.5750 H   0  0  0  0  0  0  0  0  0  0  0  0
   40.7240   30.8600   41.8560 H   0  0  0  0  0  0  0  0  0  0  0  0
   40.7530   30.2370   44.4850 H   0  0  0  0  0  0  0  0  0  0  0  0
   34.5800   29.1380   48.8050 C   0  0  0  0  0  0  0  0  0  0  0  0
   33.6110   28.4480   49.5000 C   0  0  0  0  0  0  0  0  0  0  0  0
   32.4920   27.9020   48.9270 C   0  0  0  0  0  0  0  0  0  0  0  0
   32.2730   28.0170   47.5870 C   0  0  0  0  0  0  0  0  0  0  0  0
   33.2060   28.6950   46.8460 C   0  0  0  0  0  0  0  0  0  0  0  0
   32.9930   28.8210   45.4900 C   0  0  0  0  0  0  0  0  0  0  0  0
   33.8910   29.4930   44.6850 C   0  0  0  0  0  0  0  0  0  0  0  0
   35.0210   30.0390   45.3040 C   0  0  0  0  0  0  0  0  0  0  0  0
   35.1810   29.8820   46.6620 C   0  0  0  0  0  0  0  0  0  0  0  0
   34.3000   29.2170   47.4760 C   0  0  0  0  0  0  0  0  0  0  0  0
  1  7  1  0  0  0  0
  2  8  1  0  0  0  0
  2  1  2  0  0  0  0
  3  2  1  0  0  0  0
  4  3  2  0  0  0  0
  4  5  1  0  0  0  0
  5  6  2  0  0  0  0
  6  1  1  0  0  0  0
  9 10  2  0  0  0  0
  9  3  1  0  0  0  0
 11 10  1  0  0  0  0
 12 13  2  0  0  0  0
 12 11  1  0  0  0  0
 13  9  1  0  0  0  0
 14 12  1  0  0  0  0
 15 14  1  0  0  0  0
 16 17  1  0  0  0  0
 16 15  2  0  0  0  0
 17 18  2  0  0  0  0
 18 21  1  0  0  0  0
 18 14  1  0  0  0  0
 19 16  1  0  0  0  0
 20 17  1  0  0  0  0
 22  5  1  0  0  0  0
 22 23  1  0  0  0  0
 24 23  2  0  0  0  0
 25 24  1  0  0  0  0
 26 31  1  0  0  0  0
 26 25  2  0  0  0  0
 27 26  1  0  0  0  0
 28 29  1  0  0  0  0
 28 27  2  0  0  0  0
 29 30  2  0  0  0  0
 30 31  1  0  0  0  0
 31 22  2  0  0  0  0
M  END
>  <minimizedAffinity>
-7.38789892

>  <minimizedRMSD>
0.917295754

$$$$
