
 OpenBabel03252513163D

 46 50  0  0  0  0  0  0  0  0999 V2000
   35.9320   31.0240   42.7900 C   0  0  0  0  0  0  0  0  0  0  0  0
   37.1000   30.7420   42.0500 C   0  0  0  0  0  0  0  0  0  0  0  0
   38.2170   30.4350   42.7450 C   0  0  0  0  0  0  0  0  0  0  0  0
   38.1040   30.4300   44.0650 N   0  0  0  0  0  0  0  0  0  0  0  0
   37.0910   30.6710   44.8240 C   0  0  0  0  0  0  0  0  0  0  0  0
   36.0000   30.9710   44.1250 N   0  0  0  0  0  0  0  0  0  0  0  0
   35.0150   31.2740   42.2360 H   0  0  0  0  0  0  0  0  0  0  0  0
   36.8550   30.7000   46.2520 C   0  0  0  0  0  0  0  0  0  0  0  0
   35.8930   29.9490   46.8960 C   0  0  0  0  0  0  0  0  0  0  0  0
   35.6590   29.9670   48.2370 C   0  0  0  0  0  0  0  0  0  0  0  0
   36.4060   30.7710   49.0540 C   0  0  0  0  0  0  0  0  0  0  0  0
   37.3590   31.5270   48.4910 C   0  0  0  0  0  0  0  0  0  0  0  0
   38.1110   32.3400   49.3220 C   0  0  0  0  0  0  0  0  0  0  0  0
   39.0990   33.1420   48.8380 C   0  0  0  0  0  0  0  0  0  0  0  0
   39.3400   33.1260   47.4720 C   0  0  0  0  0  0  0  0  0  0  0  0
   38.5800   32.3130   46.6820 C   0  0  0  0  0  0  0  0  0  0  0  0
   37.5910   31.5060   47.1340 C   0  0  0  0  0  0  0  0  0  0  0  0
   35.2730   29.2950   46.2950 H   0  0  0  0  0  0  0  0  0  0  0  0
   34.8780   29.3410   48.6640 H   0  0  0  0  0  0  0  0  0  0  0  0
   37.9760   32.4020   50.3930 H   0  0  0  0  0  0  0  0  0  0  0  0
   39.7280   33.8020   49.4210 H   0  0  0  0  0  0  0  0  0  0  0  0
   40.1130   33.7420   47.0310 H   0  0  0  0  0  0  0  0  0  0  0  0
   38.7910   32.3220   45.6130 H   0  0  0  0  0  0  0  0  0  0  0  0
   36.1470   30.7680   50.4110 O   0  0  0  0  0  0  0  0  0  0  0  0
   36.5860   29.6900   51.2220 C   0  0  0  0  0  0  0  0  0  0  0  0
   37.3900   28.7800   50.6080 F   0  0  0  0  0  0  0  0  0  0  0  0
   37.3490   30.2370   52.2500 F   0  0  0  0  0  0  0  0  0  0  0  0
   35.4370   29.0760   51.7160 F   0  0  0  0  0  0  0  0  0  0  0  0
   37.1330   30.7740   40.5860 C   0  0  0  0  0  0  0  0  0  0  0  0
   36.8780   29.5570   39.9840 C   0  0  0  0  0  0  0  0  0  0  0  0
   36.8810   29.4610   38.6250 C   0  0  0  0  0  0  0  0  0  0  0  0
   37.1290   30.5360   37.7760 C   0  0  0  0  0  0  0  0  0  0  0  0
   37.3800   31.7370   38.4130 C   0  0  0  0  0  0  0  0  0  0  0  0
   37.6370   32.8570   37.6580 C   0  0  0  0  0  0  0  0  0  0  0  0
   37.8880   34.0620   38.3020 C   0  0  0  0  0  0  0  0  0  0  0  0
   37.8880   34.1670   39.6800 C   0  0  0  0  0  0  0  0  0  0  0  0
   37.6290   33.0460   40.4580 C   0  0  0  0  0  0  0  0  0  0  0  0
   37.3860   31.8750   39.7880 C   0  0  0  0  0  0  0  0  0  0  0  0
   39.4640   30.1180   42.1450 N   0  0  0  0  0  0  0  0  0  0  0  0
   40.6460   29.9160   42.9010 C   0  0  0  0  0  0  0  0  0  0  0  0
   40.8630   30.7170   43.8960 N   0  0  0  0  0  0  0  0  0  0  0  0
   41.5520   28.8790   42.5830 N   0  0  0  0  0  0  0  0  0  0  0  0
   41.6510   30.7110   44.5300 H   0  0  0  0  0  0  0  0  0  0  0  0
   39.5370   30.0200   41.0870 H   0  0  0  0  0  0  0  0  0  0  0  0
   42.2290   28.6660   41.8080 H   0  0  0  0  0  0  0  0  0  0  0  0
   41.8900   27.9670   42.9680 H   0  0  0  0  0  0  0  0  0  0  0  0
  1  6  1  0  0  0  0
  2  3  1  0  0  0  0
  2  1  2  0  0  0  0
  3  4  2  0  0  0  0
  4  5  1  0  0  0  0
  5  8  1  0  0  0  0
  6  5  2  0  0  0  0
  7  1  1  0  0  0  0
  8  9  2  0  0  0  0
  8 17  1  0  0  0  0
  9 10  1  0  0  0  0
 10 19  1  0  0  0  0
 10 11  2  0  0  0  0
 11 24  1  0  0  0  0
 12 11  1  0  0  0  0
 12 13  1  0  0  0  0
 13 20  1  0  0  0  0
 14 13  2  0  0  0  0
 14 21  1  0  0  0  0
 15 14  1  0  0  0  0
 16 17  1  0  0  0  0
 16 15  2  0  0  0  0
 17 12  2  0  0  0  0
 18  9  1  0  0  0  0
 22 15  1  0  0  0  0
 23 16  1  0  0  0  0
 24 25  1  0  0  0  0
 25 28  1  0  0  0  0
 25 27  1  0  0  0  0
 26 25  1  0  0  0  0
 29  2  1  0  0  0  0
 30 29  1  0  0  0  0
 31 30  2  0  0  0  0
 32 33  2  0  0  0  0
 32 31  1  0  0  0  0
 33 38  1  0  0  0  0
 34 35  2  0  0  0  0
 34 33  1  0  0  0  0
 35 36  1  0  0  0  0
 36 37  2  0  0  0  0
 38 37  1  0  0  0  0
 38 29  2  0  0  0  0
 39  3  1  0  0  0  0
 39 40  1  0  0  0  0
 40 41  2  0  0  0  0
 41 43  1  0  0  0  0
 42 40  1  0  0  0  0
 42 46  1  0  0  0  0
 44 39  1  0  0  0  0
 45 42  1  0  0  0  0
M  END
>  <minimizedAffinity>
-7.62632322

>  <minimizedRMSD>
1.11331999

$$$$
