REMARK  Name = 
REMARK  4 active torsions:
REMARK  status: ('A' for Active; 'I' for Inactive)
REMARK    1  A    between atoms: C_1  and  O_11
REMARK    2  A    between atoms: C_3  and  C_17
REMARK    3  A    between atoms: C_5  and  C_7
REMARK    4  A    between atoms: O_11  and  C_12
REMARK                            x       y       z     vdW  Elec       q    Type
REMARK                         _______ _______ _______ _____ _____    ______ ____
ROOT
ATOM      1  C   UNL     1      37.491  30.334  49.163  0.00  0.00    +0.000 A 
ATOM      2  C   UNL     1      37.770  31.405  50.049  0.00  0.00    +0.000 A 
ATOM      3  C   UNL     1      38.470  32.505  49.560  0.00  0.00    +0.000 A 
ATOM      4  N   UNL     1      38.828  32.454  48.261  0.00  0.00    +0.000 NA
ATOM      5  C   UNL     1      38.558  31.439  47.443  0.00  0.00    +0.000 A 
ATOM      6  N   UNL     1      37.896  30.397  47.901  0.00  0.00    +0.000 NA
ATOM      7  H   UNL     1      37.388  31.239  51.036  0.00  0.00    +0.000 HD
ENDROOT
BRANCH   3   8
ATOM      8  C   UNL     1      38.708  33.574  50.509  0.00  0.00    +0.000 A 
ATOM      9  C   UNL     1      39.977  33.889  50.941  0.00  0.00    +0.000 A 
ATOM     10  C   UNL     1      40.264  34.877  51.839  0.00  0.00    +0.000 A 
ATOM     11  C   UNL     1      39.264  35.651  52.391  0.00  0.00    +0.000 A 
ATOM     12  C   UNL     1      37.982  35.385  51.999  0.00  0.00    +0.000 A 
ATOM     13  C   UNL     1      36.970  36.144  52.545  0.00  0.00    +0.000 A 
ATOM     14  C   UNL     1      35.658  35.931  52.207  0.00  0.00    +0.000 A 
ATOM     15  C   UNL     1      35.400  34.911  51.287  0.00  0.00    +0.000 A 
ATOM     16  C   UNL     1      36.438  34.190  50.777  0.00  0.00    +0.000 A 
ATOM     17  C   UNL     1      37.755  34.378  51.093  0.00  0.00    +0.000 A 
ENDBRANCH   3   8
BRANCH   5  18
ATOM     18  C   UNL     1      39.045  31.597  46.047  0.00  0.00    +0.000 C 
ATOM     19  F   UNL     1      38.308  32.595  45.386  0.00  0.00    +0.000 F 
ATOM     20  F   UNL     1      40.350  32.003  46.029  0.00  0.00    +0.000 F 
ATOM     21  F   UNL     1      38.959  30.410  45.325  0.00  0.00    +0.000 F 
ENDBRANCH   5  18
BRANCH   1  22
ATOM     22  O   UNL     1      36.792  29.235  49.648  0.00  0.00    +0.000 OA
BRANCH  22  23
ATOM     23  C   UNL     1      35.541  29.277  50.232  0.00  0.00    +0.000 C 
ATOM     24  F   UNL     1      35.548  29.228  51.620  0.00  0.00    +0.000 F 
ATOM     25  F   UNL     1      34.764  30.339  49.798  0.00  0.00    +0.000 F 
ATOM     26  F   UNL     1      34.892  28.116  49.792  0.00  0.00    +0.000 F 
ENDBRANCH  22  23
ENDBRANCH   1  22
TORSDOF 4
