
     RDKit          3D

 36 38  0  0  0  0  0  0  0  0999 V2000
   36.9000   29.9574   49.8470 C   0  0  0  0  0  0  0  0  0  0  0  0
   38.0086   30.6309   49.3781 C   0  0  0  0  0  0  0  0  0  0  0  0
   38.0014   31.0857   48.0653 C   0  0  0  0  0  0  0  0  0  0  0  0
   36.8954   30.8400   47.3112 N   0  0  0  0  0  0  0  0  0  0  0  0
   35.8168   30.1739   47.7990 C   0  0  0  0  0  0  0  0  0  0  0  0
   35.8587   29.7519   49.0640 N   0  0  0  0  0  0  0  0  0  0  0  0
   39.1009   31.7870   47.5171 N   0  0  0  0  0  0  0  0  0  0  0  0
   38.9615   32.5993   46.3580 C   0  0  0  0  0  0  0  0  0  0  0  0
   37.8817   32.5113   45.6823 N   0  0  0  0  0  0  0  0  0  0  0  0
   40.0003   33.4790   45.9737 N   0  0  0  0  0  0  0  0  0  0  0  0
   37.8323   32.9838   44.7472 H   0  0  0  0  0  0  0  0  0  0  0  0
   36.8744   29.4499   51.2567 C   0  0  0  0  0  0  0  0  0  0  0  0
   35.5848   29.1701   51.6538 F   0  0  0  0  0  0  0  0  0  0  0  0
   37.7418   28.4012   51.3523 F   0  0  0  0  0  0  0  0  0  0  0  0
   37.3494   30.5005   52.0652 F   0  0  0  0  0  0  0  0  0  0  0  0
   38.8623   30.7996   50.0198 H   0  0  0  0  0  0  0  0  0  0  0  0
   40.0311   31.7144   47.9613 H   0  0  0  0  0  0  0  0  0  0  0  0
   39.8274   34.1679   45.1976 H   0  0  0  0  0  0  0  0  0  0  0  0
   40.9214   33.4402   46.4563 H   0  0  0  0  0  0  0  0  0  0  0  0
   34.7612   30.0036   46.8111 C   0  0  0  0  0  0  0  0  0  0  0  0
   33.5302   29.4964   47.1607 C   0  0  0  0  0  0  0  0  0  0  0  0
   32.4948   29.3003   46.2833 C   0  0  0  0  0  0  0  0  0  0  0  0
   32.6364   29.6123   44.9550 C   0  0  0  0  0  0  0  0  0  0  0  0
   33.8460   30.1239   44.5423 C   0  0  0  0  0  0  0  0  0  0  0  0
   34.0021   30.4335   43.2148 C   0  0  0  0  0  0  0  0  0  0  0  0
   35.1884   30.9421   42.7319 C   0  0  0  0  0  0  0  0  0  0  0  0
   36.2143   31.1240   43.6570 C   0  0  0  0  0  0  0  0  0  0  0  0
   36.0090   30.7993   44.9745 C   0  0  0  0  0  0  0  0  0  0  0  0
   34.8412   30.2942   45.4766 C   0  0  0  0  0  0  0  0  0  0  0  0
   33.2779   29.2155   48.1606 H   0  0  0  0  0  0  0  0  0  0  0  0
   31.5330   28.9017   46.5693 H   0  0  0  0  0  0  0  0  0  0  0  0
   31.8362   29.4675   44.2451 H   0  0  0  0  0  0  0  0  0  0  0  0
   33.2008   30.2895   42.5015 H   0  0  0  0  0  0  0  0  0  0  0  0
   35.2792   31.1743   41.6889 H   0  0  0  0  0  0  0  0  0  0  0  0
   37.1352   31.5245   43.2511 H   0  0  0  0  0  0  0  0  0  0  0  0
   36.8668   30.9761   45.5775 H   0  0  0  0  0  0  0  0  0  0  0  0
  1 12  1  0
  2  1  2  0
  3  2  1  0
  4  5  1  0
  4  3  2  0
  5  6  2  0
  6  1  1  0
  7  3  1  0
  8  7  1  0
  9  8  2  0
 10  8  1  0
 11  9  1  0
 12 14  1  0
 12 13  1  0
 12 15  1  0
  2 16  1  0
  7 17  1  0
 10 18  1  0
 10 19  1  0
 20 21  2  0
 21 22  1  0
 22 23  2  0
 23 24  1  0
 24 25  2  0
 25 26  1  0
 26 27  2  0
 27 28  1  0
 28 29  2  0
 29 20  1  0
 29 24  1  0
 21 30  1  0
 22 31  1  0
 23 32  1  0
 25 33  1  0
 26 34  1  0
 27 35  1  0
 28 36  1  0
  5 20  1  0
M  ISO  1  16  14
M  END
>  <DihAtoms>  (1) 
3,4,19,20

>  <DihDeg>  (1) 
7.840036438915178

$$$$
