
 OpenBabel03252511323D

 22 24  0  0  0  0  0  0  0  0999 V2000
   37.3110   30.5390   49.5670 C   0  0  0  0  0  0  0  0  0  0  0  0
   37.1440   31.7390   50.2400 C   0  0  0  0  0  0  0  0  0  0  0  0
   37.6040   32.9010   49.5930 C   0  0  0  0  0  0  0  0  0  0  0  0
   38.1730   32.7840   48.3780 N   0  0  0  0  0  0  0  0  0  0  0  0
   38.3260   31.6080   47.7430 C   0  0  0  0  0  0  0  0  0  0  0  0
   37.8820   30.5390   48.3790 N   0  0  0  0  0  0  0  0  0  0  0  0
   36.6980   31.8350   51.1960 H   0  0  0  0  0  0  0  0  0  0  0  0
   37.5360   33.8970   50.0050 H   0  0  0  0  0  0  0  0  0  0  0  0
   38.9070   31.2950   46.4420 C   0  0  0  0  0  0  0  0  0  0  0  0
   40.2570   31.4680   46.1420 C   0  0  0  0  0  0  0  0  0  0  0  0
   40.8230   31.1820   44.9340 C   0  0  0  0  0  0  0  0  0  0  0  0
   40.0560   30.6890   43.9170 C   0  0  0  0  0  0  0  0  0  0  0  0
   38.7140   30.4890   44.1350 C   0  0  0  0  0  0  0  0  0  0  0  0
   37.9670   29.9900   43.0900 C   0  0  0  0  0  0  0  0  0  0  0  0
   36.6200   29.7670   43.2470 C   0  0  0  0  0  0  0  0  0  0  0  0
   36.0630   30.0630   44.4800 C   0  0  0  0  0  0  0  0  0  0  0  0
   36.8590   30.5610   45.4860 C   0  0  0  0  0  0  0  0  0  0  0  0
   38.2020   30.7960   45.3710 C   0  0  0  0  0  0  0  0  0  0  0  0
   36.8280   29.2720   50.2100 C   0  0  0  0  0  0  0  0  0  0  0  0
   36.0400   28.5630   49.3080 F   0  0  0  0  0  0  0  0  0  0  0  0
   37.9000   28.5820   50.6520 F   0  0  0  0  0  0  0  0  0  0  0  0
   36.0000   29.6530   51.2710 F   0  0  0  0  0  0  0  0  0  0  0  0
  1 19  1  0  0  0  0
  1  2  1  0  0  0  0
  2  7  1  0  0  0  0
  3  8  1  0  0  0  0
  3  2  2  0  0  0  0
  4  3  1  0  0  0  0
  5  4  2  0  0  0  0
  5  6  1  0  0  0  0
  6  1  2  0  0  0  0
  9  5  1  0  0  0  0
 10  9  1  0  0  0  0
 11 10  2  0  0  0  0
 12 13  2  0  0  0  0
 12 11  1  0  0  0  0
 13 18  1  0  0  0  0
 14 15  2  0  0  0  0
 14 13  1  0  0  0  0
 15 16  1  0  0  0  0
 16 17  2  0  0  0  0
 18 17  1  0  0  0  0
 18  9  2  0  0  0  0
 19 21  1  0  0  0  0
 19 22  1  0  0  0  0
 20 19  1  0  0  0  0
M  END
>  <minimizedAffinity>
-6.45975924

>  <minimizedRMSD>
3.57306623

$$$$
