
     RDKit          3D

 33 35  0  0  0  0  0  0  0  0999 V2000
   37.4906   30.3335   49.1631 C   0  0  0  0  0  0  0  0  0  0  0  0
   37.7699   31.4054   50.0490 C   0  0  0  0  0  0  0  0  0  0  0  0
   38.4703   32.5050   49.5598 C   0  0  0  0  0  0  0  0  0  0  0  0
   38.8284   32.4536   48.2612 N   0  0  0  0  0  0  0  0  0  0  0  0
   38.5578   31.4390   47.4425 C   0  0  0  0  0  0  0  0  0  0  0  0
   37.8961   30.3972   47.9009 N   0  0  0  0  0  0  0  0  0  0  0  0
   39.0449   31.5967   46.0471 C   0  0  0  0  0  0  0  0  0  0  0  0
   38.3079   32.5949   45.3856 F   0  0  0  0  0  0  0  0  0  0  0  0
   40.3497   32.0030   46.0292 F   0  0  0  0  0  0  0  0  0  0  0  0
   38.9585   30.4104   45.3251 F   0  0  0  0  0  0  0  0  0  0  0  0
   36.7925   29.2345   49.6479 O   0  0  0  0  0  0  0  0  0  0  0  0
   35.5414   29.2768   50.2317 C   0  0  0  0  0  0  0  0  0  0  0  0
   35.5480   29.2281   51.6195 F   0  0  0  0  0  0  0  0  0  0  0  0
   34.7639   30.3386   49.7977 F   0  0  0  0  0  0  0  0  0  0  0  0
   34.8920   28.1163   49.7916 F   0  0  0  0  0  0  0  0  0  0  0  0
   37.3879   31.2389   51.0358 H   0  0  0  0  0  0  0  0  0  0  0  0
   38.7079   33.5741   50.5088 C   0  0  0  0  0  0  0  0  0  0  0  0
   37.6766   34.3271   51.0244 C   0  0  0  0  0  0  0  0  0  0  0  0
   37.8360   35.3517   51.9130 C   0  0  0  0  0  0  0  0  0  0  0  0
   39.0880   35.7111   52.3677 C   0  0  0  0  0  0  0  0  0  0  0  0
   40.1526   34.9989   51.8902 C   0  0  0  0  0  0  0  0  0  0  0  0
   41.4116   35.3486   52.3287 C   0  0  0  0  0  0  0  0  0  0  0  0
   42.5291   34.6861   51.8896 C   0  0  0  0  0  0  0  0  0  0  0  0
   42.3286   33.6440   50.9796 C   0  0  0  0  0  0  0  0  0  0  0  0
   41.0630   33.3387   50.5785 C   0  0  0  0  0  0  0  0  0  0  0  0
   39.9290   33.9788   50.9976 C   0  0  0  0  0  0  0  0  0  0  0  0
   36.6478   34.1843   50.7862 H   0  0  0  0  0  0  0  0  0  0  0  0
   37.0199   35.9421   52.3165 H   0  0  0  0  0  0  0  0  0  0  0  0
   39.2406   36.5136   53.0674 H   0  0  0  0  0  0  0  0  0  0  0  0
   41.5433   36.1525   53.0279 H   0  0  0  0  0  0  0  0  0  0  0  0
   43.5113   34.9501   52.2243 H   0  0  0  0  0  0  0  0  0  0  0  0
   43.2375   33.1483   50.6588 H   0  0  0  0  0  0  0  0  0  0  0  0
   41.0258   32.5366   49.8810 H   0  0  0  0  0  0  0  0  0  0  0  0
  1 11  1  0
  1  2  2  0
  3  2  1  0
  4  3  2  0
  5  6  2  0
  5  4  1  0
  6  1  1  0
  7  5  1  0
  8  7  1  0
  9  7  1  0
 10  7  1  0
 11 12  1  0
 12 13  1  0
 14 12  1  0
 15 12  1  0
  2 16  1  0
 17 18  2  0
 18 19  1  0
 19 20  2  0
 20 21  1  0
 21 22  2  0
 22 23  1  0
 23 24  2  0
 24 25  1  0
 25 26  2  0
 26 17  1  0
 26 21  1  0
 18 27  1  0
 19 28  1  0
 20 29  1  0
 22 30  1  0
 23 31  1  0
 24 32  1  0
 25 33  1  0
  3 17  1  0
M  ISO  1  16  14
M  END
>  <DihAtoms>  (1) 
1,2,16,17

>  <DihDeg>  (1) 
8.47671972568453

$$$$
