
 OpenBabel03252513463D

 23 25  0  0  0  0  0  0  0  0999 V2000
   37.4420   30.7180   49.3740 C   0  0  0  0  0  0  0  0  0  0  0  0
   38.0800   31.8970   49.7960 C   0  0  0  0  0  0  0  0  0  0  0  0
   38.5510   32.7480   48.8090 C   0  0  0  0  0  0  0  0  0  0  0  0
   38.3860   32.4220   47.5100 N   0  0  0  0  0  0  0  0  0  0  0  0
   37.7780   31.2970   47.1330 C   0  0  0  0  0  0  0  0  0  0  0  0
   37.3290   30.4890   48.0770 N   0  0  0  0  0  0  0  0  0  0  0  0
   38.2020   32.1400   50.8300 H   0  0  0  0  0  0  0  0  0  0  0  0
   39.0490   33.6660   49.0130 H   0  0  0  0  0  0  0  0  0  0  0  0
   37.4970   30.7730   45.7900 C   0  0  0  0  0  0  0  0  0  0  0  0
   36.2290   30.3490   45.3720 C   0  0  0  0  0  3  0  0  0  0  0  0
   35.9510   29.8610   44.1240 C   0  0  0  0  0  3  0  0  0  0  0  0
   36.9470   29.7620   43.1910 C   0  0  0  0  0  3  0  0  0  0  0  0
   38.1990   30.1560   43.5270 C   0  0  0  0  0  0  0  0  0  0  0  0
   39.1720   30.0440   42.5620 C   0  0  0  0  0  3  0  0  0  0  0  0
   40.4630   30.4200   42.8190 C   0  0  0  0  0  3  0  0  0  0  0  0
   40.7420   30.9200   44.0960 C   0  0  0  0  0  3  0  0  0  0  0  0
   39.7290   31.0100   45.0250 C   0  0  0  0  0  3  0  0  0  0  0  0
   38.4300   30.6380   44.7890 C   0  0  0  0  0  0  0  0  0  0  0  0
   36.9610   29.8460   50.3200 O   0  0  0  0  0  0  0  0  0  0  0  0
   35.6390   29.4680   50.4940 C   0  0  0  0  0  0  0  0  0  0  0  0
   35.3290   29.1360   51.7960 F   0  0  0  0  0  0  0  0  0  0  0  0
   34.7380   30.3840   50.0000 F   0  0  0  0  0  0  0  0  0  0  0  0
   35.4700   28.3020   49.7230 F   0  0  0  0  0  0  0  0  0  0  0  0
  1  2  1  0  0  0  0
  1 19  1  0  0  0  0
  2  7  1  0  0  0  0
  3  8  1  0  0  0  0
  3  2  2  0  0  0  0
  4  3  1  0  0  0  0
  5  4  2  0  0  0  0
  5  6  1  0  0  0  0
  6  1  2  0  0  0  0
  9  5  1  0  0  0  0
 10  9  1  0  0  0  0
 11 10  2  0  0  0  0
 12 13  2  0  0  0  0
 12 11  1  0  0  0  0
 13 18  1  0  0  0  0
 14 15  2  0  0  0  0
 14 13  1  0  0  0  0
 15 16  1  0  0  0  0
 16 17  2  0  0  0  0
 18 17  1  0  0  0  0
 18  9  2  0  0  0  0
 19 20  1  0  0  0  0
 20 21  1  0  0  0  0
 22 20  1  0  0  0  0
 23 20  1  0  0  0  0
M  END
>  <minimizedAffinity>
-6.17429495

>  <minimizedRMSD>
0.984694719

$$$$
