
     RDKit          3D

 30 32  0  0  0  0  0  0  0  0999 V2000
   37.9662   30.9547   49.2632 C   0  0  0  0  0  0  0  0  0  0  0  0
   38.3956   32.2586   49.5589 C   0  0  0  0  0  0  0  0  0  0  0  0
   38.8823   33.0188   48.5072 C   0  0  0  0  0  0  0  0  0  0  0  0
   38.9248   32.4910   47.2664 N   0  0  0  0  0  0  0  0  0  0  0  0
   38.5113   31.2501   47.0081 C   0  0  0  0  0  0  0  0  0  0  0  0
   38.0485   30.5299   48.0142 N   0  0  0  0  0  0  0  0  0  0  0  0
   37.4778   30.1675   50.2768 O   0  0  0  0  0  0  0  0  0  0  0  0
   36.1676   29.7462   50.4339 C   0  0  0  0  0  0  0  0  0  0  0  0
   35.8489   29.4123   51.7345 F   0  0  0  0  0  0  0  0  0  0  0  0
   35.2428   30.6267   49.9193 F   0  0  0  0  0  0  0  0  0  0  0  0
   36.0510   28.5690   49.6686 F   0  0  0  0  0  0  0  0  0  0  0  0
   38.3549   32.6620   50.5490 H   0  0  0  0  0  0  0  0  0  0  0  0
   39.2339   34.0169   48.6156 H   0  0  0  0  0  0  0  0  0  0  0  0
   38.4700   30.5064   45.7421 C   0  0  0  0  0  0  0  0  0  0  0  0
   38.6379   29.1175   45.6523 C   0  0  0  0  0  0  0  0  0  0  0  0
   38.6000   28.4101   44.4815 C   0  0  0  0  0  0  0  0  0  0  0  0
   38.3869   29.0606   43.2959 C   0  0  0  0  0  0  0  0  0  0  0  0
   38.2162   30.4045   43.3098 C   0  0  0  0  0  0  0  0  0  0  0  0
   38.0021   31.0211   42.0986 C   0  0  0  0  0  0  0  0  0  0  0  0
   37.8174   32.3758   42.0234 C   0  0  0  0  0  0  0  0  0  0  0  0
   37.8566   33.0940   43.2241 C   0  0  0  0  0  0  0  0  0  0  0  0
   38.0746   32.4258   44.4080 C   0  0  0  0  0  0  0  0  0  0  0  0
   38.2621   31.0713   44.5069 C   0  0  0  0  0  0  0  0  0  0  0  0
   38.8113   28.5652   46.5902 H   0  0  0  0  0  0  0  0  0  0  0  0
   38.7418   27.3508   44.5370 H   0  0  0  0  0  0  0  0  0  0  0  0
   38.3712   28.4380   42.4249 H   0  0  0  0  0  0  0  0  0  0  0  0
   37.9748   30.4505   41.1802 H   0  0  0  0  0  0  0  0  0  0  0  0
   37.6520   32.8263   41.0578 H   0  0  0  0  0  0  0  0  0  0  0  0
   37.7058   34.1597   43.1155 H   0  0  0  0  0  0  0  0  0  0  0  0
   38.0762   33.0920   45.2321 H   0  0  0  0  0  0  0  0  0  0  0  0
  1  2  2  0
  1  7  1  0
  3  2  1  0
  4  3  2  0
  5  4  1  0
  5  6  2  0
  6  1  1  0
  7  8  1  0
  8  9  1  0
 10  8  1  0
 11  8  1  0
  2 12  1  0
  3 13  1  0
 14 15  2  0
 15 16  1  0
 16 17  2  0
 17 18  1  0
 18 19  2  0
 19 20  1  0
 20 21  2  0
 21 22  1  0
 22 23  2  0
 23 14  1  0
 23 18  1  0
 15 24  1  0
 16 25  1  0
 17 26  1  0
 19 27  1  0
 20 28  1  0
 21 29  1  0
 22 30  1  0
  5 14  1  0
M  ISO  2  12  14  13  14
M  END
>  <DihAtoms>  (1) 
3,4,13,14

>  <DihDeg>  (1) 
178.12556590517548

$$$$
