
 OpenBabel03252513353D

 22 24  0  0  0  0  0  0  0  0999 V2000
   36.6970   29.9170   49.5140 C   0  0  0  0  0  0  0  0  0  0  0  0
   37.7930   30.3780   48.8020 C   0  0  0  0  0  0  0  0  0  0  0  0
   37.6870   30.7590   47.4830 C   0  0  0  0  0  0  0  0  0  0  0  0
   36.4300   30.6530   46.9380 N   0  0  0  0  0  0  0  0  0  0  0  0
   35.3610   30.2060   47.6330 C   0  0  0  0  0  0  0  0  0  0  0  0
   35.5230   29.8500   48.8990 N   0  0  0  0  0  0  0  0  0  0  0  0
   38.6910   30.4610   49.3310 H   0  0  0  0  0  0  0  0  0  0  0  0
   34.3930   30.1540   47.1240 H   0  0  0  0  0  0  0  0  0  0  0  0
   38.6660   31.3210   46.5910 C   0  0  0  0  0  0  0  0  0  0  0  0
   39.2180   32.5610   46.9570 C   0  0  0  0  0  0  0  0  0  0  0  0
   40.1560   33.2480   46.2200 C   0  0  0  0  0  0  0  0  0  0  0  0
   40.6040   32.7100   45.0370 C   0  0  0  0  0  0  0  0  0  0  0  0
   40.1100   31.5000   44.6080 C   0  0  0  0  0  0  0  0  0  0  0  0
   40.5200   30.9710   43.4180 C   0  0  0  0  0  0  0  0  0  0  0  0
   40.0170   29.7670   42.9230 C   0  0  0  0  0  0  0  0  0  0  0  0
   39.0610   29.1390   43.7300 C   0  0  0  0  0  0  0  0  0  0  0  0
   38.6780   29.7040   44.9200 C   0  0  0  0  0  0  0  0  0  0  0  0
   39.1790   30.8840   45.4020 C   0  0  0  0  0  0  0  0  0  0  0  0
   36.8750   29.5000   50.9370 C   0  0  0  0  0  0  0  0  0  0  0  0
   35.6630   29.1210   51.4700 F   0  0  0  0  0  0  0  0  0  0  0  0
   37.8140   28.4980   50.9680 F   0  0  0  0  0  0  0  0  0  0  0  0
   37.3470   30.5910   51.6420 F   0  0  0  0  0  0  0  0  0  0  0  0
  1 19  1  0  0  0  0
  2  7  1  0  0  0  0
  2  1  2  0  0  0  0
  3  2  1  0  0  0  0
  4  3  2  0  0  0  0
  4  5  1  0  0  0  0
  5  6  2  0  0  0  0
  6  1  1  0  0  0  0
  8  5  1  0  0  0  0
  9 10  1  0  0  0  0
  9  3  1  0  0  0  0
 11 10  2  0  0  0  0
 12 11  1  0  0  0  0
 13 12  2  0  0  0  0
 13 18  1  0  0  0  0
 14 13  1  0  0  0  0
 15 14  2  0  0  0  0
 15 16  1  0  0  0  0
 16 17  2  0  0  0  0
 17 18  1  0  0  0  0
 18  9  2  0  0  0  0
 19 21  1  0  0  0  0
 19 20  1  0  0  0  0
 19 22  1  0  0  0  0
M  END
>  <minimizedAffinity>
-7.15717125

>  <minimizedRMSD>
3.30182123

$$$$
