
     RDKit          3D

 30 32  0  0  0  0  0  0  0  0999 V2000
   37.9662   30.9547   49.2632 C   0  0  0  0  0  0  0  0  0  0  0  0
   38.3956   32.2586   49.5589 C   0  0  0  0  0  0  0  0  0  0  0  0
   38.8823   33.0188   48.5072 C   0  0  0  0  0  0  0  0  0  0  0  0
   38.9248   32.4910   47.2664 N   0  0  0  0  0  0  0  0  0  0  0  0
   38.5113   31.2501   47.0081 C   0  0  0  0  0  0  0  0  0  0  0  0
   38.0485   30.5299   48.0142 N   0  0  0  0  0  0  0  0  0  0  0  0
   37.4778   30.1675   50.2768 O   0  0  0  0  0  0  0  0  0  0  0  0
   36.1676   29.7462   50.4339 C   0  0  0  0  0  0  0  0  0  0  0  0
   35.8489   29.4123   51.7345 F   0  0  0  0  0  0  0  0  0  0  0  0
   35.2428   30.6267   49.9193 F   0  0  0  0  0  0  0  0  0  0  0  0
   36.0510   28.5690   49.6686 F   0  0  0  0  0  0  0  0  0  0  0  0
   38.3549   32.6620   50.5490 H   0  0  0  0  0  0  0  0  0  0  0  0
   39.2339   34.0169   48.6156 H   0  0  0  0  0  0  0  0  0  0  0  0
   38.4700   30.5064   45.7421 C   0  0  0  0  0  0  0  0  0  0  0  0
   37.2868   30.2291   45.0433 C   0  0  0  0  0  0  0  0  0  0  0  0
   37.2318   29.5399   43.8625 C   0  0  0  0  0  0  0  0  0  0  0  0
   38.3835   29.0716   43.2896 C   0  0  0  0  0  0  0  0  0  0  0  0
   39.5641   29.3044   43.9120 C   0  0  0  0  0  0  0  0  0  0  0  0
   40.6991   28.8200   43.3036 C   0  0  0  0  0  0  0  0  0  0  0  0
   41.9333   29.0136   43.8642 C   0  0  0  0  0  0  0  0  0  0  0  0
   41.9834   29.7198   45.0716 C   0  0  0  0  0  0  0  0  0  0  0  0
   40.8160   30.1820   45.6366 C   0  0  0  0  0  0  0  0  0  0  0  0
   39.5704   29.9997   45.0936 C   0  0  0  0  0  0  0  0  0  0  0  0
   36.3422   30.5933   45.4794 H   0  0  0  0  0  0  0  0  0  0  0  0
   36.2689   29.3887   43.4205 H   0  0  0  0  0  0  0  0  0  0  0  0
   38.2575   28.5424   42.3673 H   0  0  0  0  0  0  0  0  0  0  0  0
   40.6420   28.2763   42.3704 H   0  0  0  0  0  0  0  0  0  0  0  0
   42.8018   28.6205   43.3605 H   0  0  0  0  0  0  0  0  0  0  0  0
   42.9784   29.8481   45.4763 H   0  0  0  0  0  0  0  0  0  0  0  0
   41.0043   30.6983   46.5427 H   0  0  0  0  0  0  0  0  0  0  0  0
  1  2  2  0
  1  7  1  0
  3  2  1  0
  4  3  2  0
  5  4  1  0
  5  6  2  0
  6  1  1  0
  7  8  1  0
  8  9  1  0
 10  8  1  0
 11  8  1  0
  2 12  1  0
  3 13  1  0
 14 15  2  0
 15 16  1  0
 16 17  2  0
 17 18  1  0
 18 19  2  0
 19 20  1  0
 20 21  2  0
 21 22  1  0
 22 23  2  0
 23 14  1  0
 23 18  1  0
 15 24  1  0
 16 25  1  0
 17 26  1  0
 19 27  1  0
 20 28  1  0
 21 29  1  0
 22 30  1  0
  5 14  1  0
M  ISO  2  12  14  13  14
M  END
>  <DihAtoms>  (1) 
3,4,13,14

>  <DihDeg>  (1) 
178.12556590517548

$$$$
