
 OpenBabel03252513593D

 27 29  0  0  1  0  0  0  0  0999 V2000
   35.4710   29.4090   49.1020 C   0  0  2  0  0  0  0  0  0  0  0  0
   34.3970   29.6400   50.1160 C   0  0  0  0  0  0  0  0  0  0  0  0
   34.5980   28.2680   49.5640 C   0  0  1  0  0  0  0  0  0  0  0  0
   35.2980   29.8550   48.1220 H   0  0  0  0  0  0  0  0  0  0  0  0
   33.4630   30.1380   49.7890 H   0  0  0  0  0  0  0  0  0  0  0  0
   34.6590   29.8570   51.1720 H   0  0  0  0  0  0  0  0  0  0  0  0
   35.0180   27.5520   50.3010 H   0  0  0  0  0  0  0  0  0  0  0  0
   33.5990   27.6850   48.6530 C   0  0  0  0  0  0  0  0  0  0  0  0
   32.2670   28.0120   48.8710 C   0  0  0  0  0  3  0  0  0  0  0  0
   31.2410   27.5110   48.0630 C   0  0  0  0  0  0  0  0  0  0  0  0
   30.2010   27.7520   48.2150 H   0  0  0  0  0  0  0  0  0  0  0  0
   31.5690   26.6670   47.0190 C   0  0  0  0  0  3  0  0  0  0  0  0
   32.9110   26.3410   46.8050 C   0  0  0  0  0  0  0  0  0  0  0  0
   33.1790   25.6690   45.9750 H   0  0  0  0  0  0  0  0  0  0  0  0
   33.9230   26.8430   47.6120 C   0  0  0  0  0  3  0  0  0  0  0  0
   36.9130   29.3250   49.5720 C   0  0  0  0  0  0  0  0  0  0  0  0
   37.3930   28.3710   49.2140 H   0  0  0  0  0  0  0  0  0  0  0  0
   36.8880   29.3710   50.6800 H   0  0  0  0  0  0  0  0  0  0  0  0
   38.4090   32.6880   49.3810 C   0  0  0  0  0  0  0  0  0  0  0  0
   38.9120   32.7430   48.0820 C   0  0  0  0  0  0  0  0  0  0  0  0
   38.7340   31.6120   47.2690 C   0  0  0  0  0  0  0  0  0  0  0  0
   38.0820   30.5430   47.8080 N   0  0  0  0  0  0  0  0  0  0  0  0
   37.6120   30.5330   49.0680 C   0  0  0  0  0  0  0  0  0  0  0  0
   37.7740   31.6080   49.8580 N   0  0  0  0  0  0  0  0  0  0  0  0
   38.5850   33.5970   49.9440 H   0  0  0  0  0  0  0  0  0  0  0  0
   39.4250   33.5770   47.6490 H   0  0  0  0  0  0  0  0  0  0  0  0
   39.0910   31.5750   46.2610 H   0  0  0  0  0  0  0  0  0  0  0  0
  1  4  1  6  0  0  0
  1  3  1  0  0  0  0
  1 16  1  0  0  0  0
  1  2  1  0  0  0  0
  2  6  1  0  0  0  0
  3  2  1  0  0  0  0
  3  7  1  1  0  0  0
  5  2  1  0  0  0  0
  8  9  1  0  0  0  0
  8  3  1  0  0  0  0
 10 11  1  0  0  0  0
 10  9  2  0  0  0  0
 12 10  1  0  0  0  0
 13 12  2  0  0  0  0
 13 15  1  0  0  0  0
 14 13  1  0  0  0  0
 15  8  2  0  0  0  0
 16 18  1  0  0  0  0
 17 16  1  0  0  0  0
 19 24  1  0  0  0  0
 19 25  1  0  0  0  0
 20 19  2  0  0  0  0
 21 22  2  0  0  0  0
 21 20  1  0  0  0  0
 22 23  1  0  0  0  0
 23 16  1  0  0  0  0
 23 24  2  0  0  0  0
 26 20  1  0  0  0  0
 27 21  1  0  0  0  0
M  END
>  <minimizedAffinity>
-5.28136063

>  <minimizedRMSD>
0.634440362

$$$$
