
 OpenBabel03252514053D

 37 40  0  0  1  0  0  0  0  0999 V2000
   35.2220   29.1570   48.5660 C   0  0  2  0  0  0  0  0  0  0  0  0
   33.9930   29.3740   49.3200 C   0  0  0  0  0  0  0  0  0  0  0  0
   34.3080   27.9970   49.0800 C   0  0  1  0  0  0  0  0  0  0  0  0
   35.2590   29.2610   47.4800 H   0  0  0  0  0  0  0  0  0  0  0  0
   34.1130   29.8750   50.3260 H   0  0  0  0  0  0  0  0  0  0  0  0
   33.1450   29.8690   48.7700 H   0  0  0  0  0  0  0  0  0  0  0  0
   34.8290   27.3100   49.7440 H   0  0  0  0  0  0  0  0  0  0  0  0
   36.5320   29.2000   49.3710 C   0  0  0  0  0  0  0  0  0  0  0  0
   37.1490   28.3510   49.0210 H   0  0  0  0  0  0  0  0  0  0  0  0
   36.3040   29.1010   50.4340 H   0  0  0  0  0  0  0  0  0  0  0  0
   37.5530   32.6990   49.6070 C   0  0  0  0  0  0  0  0  0  0  0  0
   38.4440   32.8360   48.5260 C   0  0  0  0  0  0  0  0  0  0  0  0
   38.6790   31.6950   47.7240 C   0  0  0  0  0  0  0  0  0  0  0  0
   38.0290   30.5300   48.0430 N   0  0  0  0  0  0  0  0  0  0  0  0
   37.1930   30.4610   49.0820 C   0  0  0  0  0  0  0  0  0  0  0  0
   36.9620   31.5560   49.8590 N   0  0  0  0  0  0  0  0  0  0  0  0
   37.3360   33.5400   50.2540 H   0  0  0  0  0  0  0  0  0  0  0  0
   38.9260   33.7880   48.3290 H   0  0  0  0  0  0  0  0  0  0  0  0
   39.3520   31.7820   46.9000 H   0  0  0  0  0  0  0  0  0  0  0  0
   33.4620   27.3090   48.0260 C   0  0  0  0  0  0  0  0  0  0  0  0
   33.8260   26.0880   47.8070 O   0  0  0  0  0  0  0  0  0  0  0  0
   32.3900   27.8600   47.3310 O   0  0  0  0  0  0  0  0  0  0  0  0
   31.1580   28.0770   47.8860 C   0  0  0  0  0  0  0  0  0  0  0  0
   30.7400   27.6250   49.2330 C   0  0  0  0  0  0  0  0  0  0  0  0
   29.4840   27.9210   49.6370 C   0  0  0  0  0  0  0  0  0  0  0  0
   28.5880   28.6340   48.8190 C   0  0  0  0  0  0  0  0  0  0  0  0
   29.5900   28.9470   47.2810 S   0  0  0  0  0  0  0  0  0  0  0  0
   31.4600   27.0860   49.8180 H   0  0  0  0  0  0  0  0  0  0  0  0
   29.0880   27.6380   50.5940 H   0  0  0  0  0  0  0  0  0  0  0  0
   27.3140   29.0750   48.9210 C   0  0  0  0  0  0  0  0  0  0  0  0
   26.2760   28.2390   49.2740 C   0  0  0  0  0  0  0  0  0  0  0  0
   24.9780   28.6950   49.3760 C   0  0  0  0  0  0  0  0  0  0  0  0
   24.1680   28.0310   49.6540 H   0  0  0  0  0  0  0  0  0  0  0  0
   24.7080   30.0260   49.1180 C   0  0  0  0  0  0  0  0  0  0  0  0
   25.7280   30.9080   48.7580 C   0  0  0  0  0  0  0  0  0  0  0  0
   25.5080   31.9600   48.5550 H   0  0  0  0  0  0  0  0  0  0  0  0
   27.0280   30.3980   48.6670 C   0  0  0  0  0  0  0  0  0  0  0  0
  1  4  1  6  0  0  0
  1  3  1  0  0  0  0
  1  2  1  0  0  0  0
  1  8  1  0  0  0  0
  2  5  1  0  0  0  0
  3  2  1  0  0  0  0
  3  7  1  1  0  0  0
  6  2  1  0  0  0  0
  8 10  1  0  0  0  0
  9  8  1  0  0  0  0
 11 16  1  0  0  0  0
 11 17  1  0  0  0  0
 12 11  2  0  0  0  0
 13 14  2  0  0  0  0
 13 12  1  0  0  0  0
 14 15  1  0  0  0  0
 15  8  1  0  0  0  0
 15 16  2  0  0  0  0
 18 12  1  0  0  0  0
 19 13  1  0  0  0  0
 20  3  1  0  0  0  0
 21 20  2  0  0  0  0
 22 23  1  0  0  0  0
 22 20  1  0  0  0  0
 23 24  2  0  0  0  0
 24 25  1  0  0  0  0
 24 28  1  0  0  0  0
 25 29  1  0  0  0  0
 26 30  1  0  0  0  0
 26 25  2  0  0  0  0
 27 23  1  0  0  0  0
 27 26  1  0  0  0  0
 30 31  1  0  0  0  0
 31 32  2  0  0  0  0
 32 33  1  0  0  0  0
 34 32  1  0  0  0  0
 35 34  2  0  0  0  0
 36 35  1  0  0  0  0
 37 35  1  0  0  0  0
 37 30  2  0  0  0  0
M  END
>  <minimizedAffinity>
-6.79937553

>  <minimizedRMSD>
1.89870846

$$$$
