
 OpenBabel03252511273D

 33 36  0  0  0  0  0  0  0  0999 V2000
   35.6420   29.5390   49.3660 C   0  0  0  0  0  0  0  0  0  0  0  0
   35.7350   29.2160   50.7340 C   0  0  0  0  0  0  0  0  0  0  0  0
   36.6970   29.6690   51.5870 C   0  0  0  0  0  0  0  0  0  0  0  0
   37.6730   30.5140   51.1040 C   0  0  0  0  0  0  0  0  0  0  0  0
   37.6490   30.8710   49.7920 C   0  0  0  0  0  0  0  0  0  0  0  0
   38.6470   31.7150   49.3650 C   0  0  0  0  0  0  0  0  0  0  0  0
   38.6930   32.1190   48.0630 C   0  0  0  0  0  0  0  0  0  0  0  0
   37.7080   31.6510   47.2030 C   0  0  0  0  0  0  0  0  0  0  0  0
   36.7350   30.8080   47.6920 C   0  0  0  0  0  0  0  0  0  0  0  0
   36.6570   30.3850   48.9770 C   0  0  0  0  0  0  0  0  0  0  0  0
   34.9700   28.5420   51.1520 H   0  0  0  0  0  0  0  0  0  0  0  0
   36.6810   29.3610   52.6240 H   0  0  0  0  0  0  0  0  0  0  0  0
   38.4030   30.8350   51.8320 H   0  0  0  0  0  0  0  0  0  0  0  0
   39.4140   32.0790   50.0380 H   0  0  0  0  0  0  0  0  0  0  0  0
   39.4500   32.7780   47.6770 H   0  0  0  0  0  0  0  0  0  0  0  0
   37.7190   31.9560   46.1630 H   0  0  0  0  0  0  0  0  0  0  0  0
   35.9770   30.4650   46.9690 H   0  0  0  0  0  0  0  0  0  0  0  0
   33.6410   27.0120   47.8080 C   0  0  0  0  0  0  0  0  0  0  0  0
   32.7370   27.6400   46.9660 C   0  0  0  0  0  0  0  0  0  0  0  0
   32.8230   29.0130   46.9360 C   0  0  0  0  0  0  0  0  0  0  0  0
   33.7420   29.6010   47.6960 N   0  0  0  0  0  0  0  0  0  0  0  0
   34.6080   29.0370   48.4980 C   0  0  0  0  0  0  0  0  0  0  0  0
   34.5160   27.7100   48.5210 N   0  0  0  0  0  0  0  0  0  0  0  0
   33.5640   25.9130   47.8260 H   0  0  0  0  0  0  0  0  0  0  0  0
   32.0290   27.1030   46.3890 H   0  0  0  0  0  0  0  0  0  0  0  0
   31.9440   29.8220   46.1020 C   0  0  0  0  0  0  0  0  0  0  0  0
   32.2910   31.0130   45.5130 C   0  0  0  0  0  0  0  0  0  0  0  0
   31.4320   31.7520   44.7300 C   0  0  0  0  0  0  0  0  0  0  0  0
   31.7690   32.6910   44.2890 H   0  0  0  0  0  0  0  0  0  0  0  0
   30.1610   31.3090   44.5060 C   0  0  0  0  0  0  0  0  0  0  0  0
   29.7570   30.1350   45.0630 C   0  0  0  0  0  0  0  0  0  0  0  0
   28.7580   29.7570   44.9060 H   0  0  0  0  0  0  0  0  0  0  0  0
   30.6540   29.4110   45.8520 C   0  0  0  0  0  0  0  0  0  0  0  0
  1  2  1  0  0  0  0
  2 11  1  0  0  0  0
  2  3  2  0  0  0  0
  3 12  1  0  0  0  0
  4  3  1  0  0  0  0
  4 13  1  0  0  0  0
  5  4  2  0  0  0  0
  6  5  1  0  0  0  0
  6 14  1  0  0  0  0
  7  6  2  0  0  0  0
  8  9  2  0  0  0  0
  8  7  1  0  0  0  0
  9 10  1  0  0  0  0
 10  1  2  0  0  0  0
 10  5  1  0  0  0  0
 15  7  1  0  0  0  0
 16  8  1  0  0  0  0
 17  9  1  0  0  0  0
 18 24  1  0  0  0  0
 18 23  1  0  0  0  0
 19 18  2  0  0  0  0
 20 19  1  0  0  0  0
 20 21  2  0  0  0  0
 21 22  1  0  0  0  0
 22 23  2  0  0  0  0
 22  1  1  0  0  0  0
 25 19  1  0  0  0  0
 26 20  1  0  0  0  0
 27 26  2  0  0  0  0
 28 27  1  0  0  0  0
 29 28  1  0  0  0  0
 30 28  2  0  0  0  0
 30 31  1  0  0  0  0
 31 33  2  0  0  0  0
 32 31  1  0  0  0  0
 33 26  1  0  0  0  0
M  END
>  <minimizedAffinity>
-6.82595587

>  <minimizedRMSD>
0.598390281

$$$$
