
 OpenBabel03252512133D

 31 34  0  0  0  0  0  0  0  0999 V2000
   32.4210   29.7330   46.2120 C   0  0  0  0  0  0  0  0  0  0  0  0
   32.2580   28.3430   46.2220 C   0  0  0  0  0  0  0  0  0  0  0  0
   33.2600   27.5380   46.7800 C   0  0  0  0  0  0  0  0  0  0  0  0
   34.3540   28.1730   47.2870 N   0  0  0  0  0  0  0  0  0  0  0  0
   34.4930   29.5260   47.2680 C   0  0  0  0  0  0  0  0  0  0  0  0
   33.5460   30.2960   46.7400 N   0  0  0  0  0  0  0  0  0  0  0  0
   31.6400   30.3410   45.7770 H   0  0  0  0  0  0  0  0  0  0  0  0
   31.3990   27.8620   45.8220 H   0  0  0  0  0  0  0  0  0  0  0  0
   35.7120   30.0600   47.8460 C   0  0  0  0  0  0  0  0  0  0  0  0
   36.6720   30.7610   47.1260 C   0  0  0  0  0  0  0  0  0  0  0  0
   37.6820   31.1240   47.9370 N   0  0  0  0  0  0  0  0  0  0  0  0
   37.3980   30.6710   49.1820 C   0  0  0  0  0  0  0  0  0  0  0  0
   38.1070   30.7790   50.3640 C   0  0  0  0  0  0  0  0  0  0  0  0
   37.5550   30.2000   51.5050 C   0  0  0  0  0  0  0  0  0  0  0  0
   36.3430   29.5490   51.4330 C   0  0  0  0  0  0  0  0  0  0  0  0
   35.6120   29.4290   50.2510 C   0  0  0  0  0  0  0  0  0  0  0  0
   36.1870   30.0130   49.1430 C   0  0  0  0  0  0  0  0  0  0  0  0
   36.6150   30.9840   46.0570 H   0  0  0  0  0  0  0  0  0  0  0  0
   38.5440   31.6600   47.6880 H   0  0  0  0  0  0  0  0  0  0  0  0
   39.0540   31.3010   50.3630 H   0  0  0  0  0  0  0  0  0  0  0  0
   38.1040   30.2780   52.4430 H   0  0  0  0  0  0  0  0  0  0  0  0
   35.9180   29.0980   52.3400 H   0  0  0  0  0  0  0  0  0  0  0  0
   34.6610   28.9170   50.2000 H   0  0  0  0  0  0  0  0  0  0  0  0
   33.2110   26.0860   46.8520 C   0  0  0  0  0  0  0  0  0  0  0  0
   34.2070   25.3990   46.2010 C   0  0  0  0  0  0  0  0  0  0  0  0
   34.2260   24.0000   46.2270 C   0  0  0  0  0  0  0  0  0  0  0  0
   34.9580   23.3950   45.7510 H   0  0  0  0  0  0  0  0  0  0  0  0
   33.2310   23.2990   46.9140 C   0  0  0  0  0  0  0  0  0  0  0  0
   32.2510   24.0490   47.5520 C   0  0  0  0  0  0  0  0  0  0  0  0
   31.4540   23.5370   48.1010 H   0  0  0  0  0  0  0  0  0  0  0  0
   32.2160   25.4250   47.5380 C   0  0  0  0  0  0  0  0  0  0  0  0
  1  2  2  0  0  0  0
  1  6  1  0  0  0  0
  2  3  1  0  0  0  0
  3 24  1  0  0  0  0
  3  4  2  0  0  0  0
  5  4  1  0  0  0  0
  5  9  1  0  0  0  0
  6  5  2  0  0  0  0
  7  1  1  0  0  0  0
  8  2  1  0  0  0  0
  9 17  1  0  0  0  0
 10  9  2  0  0  0  0
 10 11  1  0  0  0  0
 11 12  1  0  0  0  0
 12 13  1  0  0  0  0
 13 14  2  0  0  0  0
 14 21  1  0  0  0  0
 15 14  1  0  0  0  0
 15 22  1  0  0  0  0
 16 15  2  0  0  0  0
 17 12  2  0  0  0  0
 17 16  1  0  0  0  0
 18 10  1  0  0  0  0
 19 11  1  0  0  0  0
 20 13  1  0  0  0  0
 23 16  1  0  0  0  0
 24 31  1  0  0  0  0
 25 26  1  0  0  0  0
 25 24  2  0  0  0  0
 26 28  2  0  0  0  0
 27 26  1  0  0  0  0
 28 29  1  0  0  0  0
 29 30  1  0  0  0  0
 31 29  2  0  0  0  0
M  END
>  <minimizedAffinity>
-5.90936375

>  <minimizedRMSD>
0.388740361

$$$$
