
 OpenBabel03252514053D

 37 40  0  0  1  0  0  0  0  0999 V2000
   35.2360   29.1340   48.5120 C   0  0  2  0  0  0  0  0  0  0  0  0
   33.9830   29.4190   49.2020 C   0  0  0  0  0  0  0  0  0  0  0  0
   34.2770   28.0240   49.0540 C   0  0  1  0  0  0  0  0  0  0  0  0
   35.3190   29.1740   47.4250 H   0  0  0  0  0  0  0  0  0  0  0  0
   34.0740   29.9750   50.1820 H   0  0  0  0  0  0  0  0  0  0  0  0
   33.1690   29.8980   48.5910 H   0  0  0  0  0  0  0  0  0  0  0  0
   34.7550   27.3660   49.7780 H   0  0  0  0  0  0  0  0  0  0  0  0
   36.5140   29.1970   49.3670 C   0  0  0  0  0  0  0  0  0  0  0  0
   37.1470   28.3450   49.0570 H   0  0  0  0  0  0  0  0  0  0  0  0
   36.2450   29.1170   50.4230 H   0  0  0  0  0  0  0  0  0  0  0  0
   37.5480   32.6920   49.6090 C   0  0  0  0  0  0  0  0  0  0  0  0
   38.4420   32.8260   48.5300 C   0  0  0  0  0  0  0  0  0  0  0  0
   38.6740   31.6850   47.7270 C   0  0  0  0  0  0  0  0  0  0  0  0
   38.0190   30.5230   48.0440 N   0  0  0  0  0  0  0  0  0  0  0  0
   37.1800   30.4560   49.0810 C   0  0  0  0  0  0  0  0  0  0  0  0
   36.9520   31.5510   49.8590 N   0  0  0  0  0  0  0  0  0  0  0  0
   37.3340   33.5330   50.2570 H   0  0  0  0  0  0  0  0  0  0  0  0
   38.9280   33.7760   48.3360 H   0  0  0  0  0  0  0  0  0  0  0  0
   39.3490   31.7700   46.9050 H   0  0  0  0  0  0  0  0  0  0  0  0
   33.4590   27.2930   48.0080 C   0  0  0  0  0  0  0  0  0  0  0  0
   33.8620   26.0800   47.8100 O   0  0  0  0  0  0  0  0  0  0  0  0
   32.3730   27.7980   47.2990 O   0  0  0  0  0  0  0  0  0  0  0  0
   31.1480   28.0410   47.8590 C   0  0  0  0  0  0  0  0  0  0  0  0
   30.7340   27.6160   49.2160 C   0  0  0  0  0  0  0  0  0  0  0  0
   29.4860   27.9350   49.6240 C   0  0  0  0  0  0  0  0  0  0  0  0
   28.5940   28.6490   48.8020 C   0  0  0  0  0  0  0  0  0  0  0  0
   29.5880   28.9250   47.2530 S   0  0  0  0  0  0  0  0  0  0  0  0
   31.4500   27.0750   49.8040 H   0  0  0  0  0  0  0  0  0  0  0  0
   29.0920   27.6720   50.5880 H   0  0  0  0  0  0  0  0  0  0  0  0
   27.3260   29.1090   48.9060 C   0  0  0  0  0  0  0  0  0  0  0  0
   27.0050   30.4260   48.6600 C   0  0  0  0  0  3  0  0  0  0  0  0
   25.7090   30.8900   48.7670 C   0  0  0  0  0  0  0  0  0  0  0  0
   25.4640   31.9270   48.5720 H   0  0  0  0  0  0  0  0  0  0  0  0
   24.7050   30.0110   49.1330 C   0  0  0  0  0  3  0  0  0  0  0  0
   24.9860   28.6700   49.3920 C   0  0  0  0  0  0  0  0  0  0  0  0
   24.1890   27.9800   49.6810 H   0  0  0  0  0  0  0  0  0  0  0  0
   26.3150   28.2470   49.2690 C   0  0  0  0  0  3  0  0  0  0  0  0
  1  4  1  6  0  0  0
  1  3  1  0  0  0  0
  1  2  1  0  0  0  0
  1  8  1  0  0  0  0
  2  5  1  0  0  0  0
  3  2  1  0  0  0  0
  3  7  1  1  0  0  0
  6  2  1  0  0  0  0
  8 10  1  0  0  0  0
  9  8  1  0  0  0  0
 11 16  1  0  0  0  0
 11 17  1  0  0  0  0
 12 11  2  0  0  0  0
 13 14  2  0  0  0  0
 13 12  1  0  0  0  0
 14 15  1  0  0  0  0
 15  8  1  0  0  0  0
 15 16  2  0  0  0  0
 18 12  1  0  0  0  0
 19 13  1  0  0  0  0
 20  3  1  0  0  0  0
 21 20  2  0  0  0  0
 22 23  1  0  0  0  0
 22 20  1  0  0  0  0
 23 24  2  0  0  0  0
 24 25  1  0  0  0  0
 24 28  1  0  0  0  0
 25 29  1  0  0  0  0
 26 30  1  0  0  0  0
 26 25  2  0  0  0  0
 27 23  1  0  0  0  0
 27 26  1  0  0  0  0
 30 37  1  0  0  0  0
 31 32  1  0  0  0  0
 31 30  2  0  0  0  0
 32 34  2  0  0  0  0
 33 32  1  0  0  0  0
 34 35  1  0  0  0  0
 35 36  1  0  0  0  0
 37 35  2  0  0  0  0
M  END
>  <minimizedAffinity>
-6.78815603

>  <minimizedRMSD>
1.9443059

$$$$
