
     RDKit          3D

 40 43  0  0  0  0  0  0  0  0999 V2000
   35.2963   29.4100   48.9868 C   0  0  2  0  0  0  0  0  0  0  0  0
   34.1920   29.3562   49.9390 C   0  0  0  0  0  0  0  0  0  0  0  0
   34.5315   28.0941   49.3501 C   0  0  1  0  0  0  0  0  0  0  0  0
   36.7128   29.3850   49.5847 C   0  0  0  0  0  0  0  0  0  0  0  0
   38.0750   32.7713   49.4396 C   0  0  0  0  0  0  0  0  0  0  0  0
   38.7501   32.7810   48.2051 C   0  0  0  0  0  0  0  0  0  0  0  0
   38.7205   31.5958   47.4345 C   0  0  0  0  0  0  0  0  0  0  0  0
   38.0405   30.5126   47.9308 N   0  0  0  0  0  0  0  0  0  0  0  0
   37.4180   30.5641   49.1112 C   0  0  0  0  0  0  0  0  0  0  0  0
   37.4420   31.7021   49.8594 N   0  0  0  0  0  0  0  0  0  0  0  0
   33.5645   27.5826   48.2996 C   0  0  0  0  0  0  0  0  0  0  0  0
   33.9107   26.4371   47.8115 O   0  0  0  0  0  0  0  0  0  0  0  0
   32.4058   28.2149   47.8601 O   0  0  0  0  0  0  0  0  0  0  0  0
   31.1452   27.8268   48.2237 C   0  0  0  0  0  0  0  0  0  0  0  0
   30.6275   27.8098   49.6122 C   0  0  0  0  0  0  0  0  0  0  0  0
   29.3551   27.3998   49.8063 C   0  0  0  0  0  0  0  0  0  0  0  0
   28.5311   26.9986   48.7383 C   0  0  0  0  0  0  0  0  0  0  0  0
   29.6413   27.2053   47.2584 S   0  0  0  0  0  0  0  0  0  0  0  0
   35.1555   29.7494   47.9585 H   0  0  0  0  0  0  0  0  0  0  0  0
   34.4452   29.6349   51.0043 H   0  0  0  0  0  0  0  0  0  0  0  0
   33.2447   29.8861   49.6428 H   0  0  0  0  0  0  0  0  0  0  0  0
   35.1845   27.3247   49.7601 H   0  0  0  0  0  0  0  0  0  0  0  0
   37.2012   28.4665   49.2109 H   0  0  0  0  0  0  0  0  0  0  0  0
   36.6428   29.3712   50.6753 H   0  0  0  0  0  0  0  0  0  0  0  0
   38.0647   33.6508   50.0708 H   0  0  0  0  0  0  0  0  0  0  0  0
   39.2698   33.6733   47.8706 H   0  0  0  0  0  0  0  0  0  0  0  0
   39.2281   31.5871   46.4951 H   0  0  0  0  0  0  0  0  0  0  0  0
   31.2948   28.1256   50.3912 H   0  0  0  0  0  0  0  0  0  0  0  0
   28.8890   27.3515   50.7735 H   0  0  0  0  0  0  0  0  0  0  0  0
   27.2625   26.5531   48.5994 C   0  0  0  0  0  0  0  0  0  0  0  0
   26.1759   27.3042   48.9928 C   0  0  0  0  0  0  0  0  0  0  0  0
   24.8828   26.8437   48.8483 C   0  0  0  0  0  0  0  0  0  0  0  0
   24.0340   27.4406   49.1602 H   0  0  0  0  0  0  0  0  0  0  0  0
   24.6690   25.5944   48.2938 C   0  0  0  0  0  0  0  0  0  0  0  0
   25.7394   24.8007   47.8819 C   0  0  0  0  0  0  0  0  0  0  0  0
   25.5641   23.8142   47.4444 H   0  0  0  0  0  0  0  0  0  0  0  0
   27.0323   25.3112   48.0491 C   0  0  0  0  0  0  0  0  0  0  0  0
   26.2722   28.2979   49.4375 H   0  0  0  0  0  0  0  0  0  0  0  0
   23.6646   25.2317   48.1794 H   0  0  0  0  0  0  0  0  0  0  0  0
   27.8627   24.6970   47.7302 H   0  0  0  0  0  0  0  0  0  0  0  0
  1  3  1  0
  1  4  1  0
  1  2  1  0
  3  2  1  0
  5 10  2  0
  6  5  1  0
  7  8  1  0
  7  6  2  0
  8  9  2  0
  9  4  1  0
  9 10  1  0
 11  3  1  0
 12 11  2  0
 13 14  1  0
 13 11  1  0
 14 15  2  0
 15 16  1  0
 17 16  2  0
 18 14  1  0
 18 17  1  0
  1 19  1  6
  2 20  1  0
  2 21  1  0
  3 22  1  1
  4 23  1  0
  4 24  1  0
  5 25  1  0
  6 26  1  0
  7 27  1  0
 15 28  1  0
 16 29  1  0
 30 31  2  0
 31 32  1  0
 32 33  1  0
 32 34  2  0
 34 35  1  0
 35 36  1  0
 35 37  2  0
 37 30  1  0
 31 38  1  0
 34 39  1  0
 37 40  1  0
 17 30  1  0
M  ISO  8  19  13  20  13  21  13  22  13  23   8  24   8  25  14  26  14
M  ISO  5  27  14  28  14  29  14  33  16  36  16
M  END
>  <DihAtoms>  (1) 
15,16,29,30

>  <DihDeg>  (1) 
179.99830614549825

$$$$
