
 OpenBabel03252513583D

 27 29  0  0  1  0  0  0  0  0999 V2000
   35.4440   29.4130   49.1260 C   0  0  2  0  0  0  0  0  0  0  0  0
   34.3910   29.6080   50.1690 C   0  0  0  0  0  0  0  0  0  0  0  0
   34.5750   28.2580   49.5610 C   0  0  1  0  0  0  0  0  0  0  0  0
   35.2520   29.8970   48.1670 H   0  0  0  0  0  0  0  0  0  0  0  0
   33.4530   30.1220   49.8810 H   0  0  0  0  0  0  0  0  0  0  0  0
   34.6740   29.7830   51.2280 H   0  0  0  0  0  0  0  0  0  0  0  0
   35.0070   27.5120   50.2600 H   0  0  0  0  0  0  0  0  0  0  0  0
   33.5560   27.7140   48.6480 C   0  0  0  0  0  0  0  0  0  0  0  0
   33.9950   26.9060   47.6070 C   0  0  0  0  0  3  0  0  0  0  0  0
   33.1070   26.3410   46.6850 C   0  0  0  0  0  0  0  0  0  0  0  0
   33.4260   25.7110   45.8690 H   0  0  0  0  0  0  0  0  0  0  0  0
   31.7550   26.5960   46.8210 C   0  0  0  0  0  3  0  0  0  0  0  0
   31.3200   27.4090   47.8710 C   0  0  0  0  0  0  0  0  0  0  0  0
   30.2450   27.6180   47.9850 H   0  0  0  0  0  0  0  0  0  0  0  0
   32.2090   27.9670   48.7810 C   0  0  0  0  0  3  0  0  0  0  0  0
   36.8950   29.3060   49.5630 C   0  0  0  0  0  0  0  0  0  0  0  0
   37.3560   28.3540   49.1780 H   0  0  0  0  0  0  0  0  0  0  0  0
   36.8930   29.3330   50.6710 H   0  0  0  0  0  0  0  0  0  0  0  0
   38.3920   32.6690   49.3880 C   0  0  0  0  0  0  0  0  0  0  0  0
   38.8980   32.7290   48.0900 C   0  0  0  0  0  0  0  0  0  0  0  0
   38.7210   31.6010   47.2720 C   0  0  0  0  0  0  0  0  0  0  0  0
   38.0680   30.5310   47.8060 N   0  0  0  0  0  0  0  0  0  0  0  0
   37.5950   30.5150   49.0650 C   0  0  0  0  0  0  0  0  0  0  0  0
   37.7560   31.5870   49.8600 N   0  0  0  0  0  0  0  0  0  0  0  0
   38.5680   33.5760   49.9540 H   0  0  0  0  0  0  0  0  0  0  0  0
   39.4130   33.5640   47.6610 H   0  0  0  0  0  0  0  0  0  0  0  0
   39.0810   31.5680   46.2650 H   0  0  0  0  0  0  0  0  0  0  0  0
  1  4  1  6  0  0  0
  1  3  1  0  0  0  0
  1 16  1  0  0  0  0
  1  2  1  0  0  0  0
  2  6  1  0  0  0  0
  3  2  1  0  0  0  0
  3  7  1  1  0  0  0
  5  2  1  0  0  0  0
  8 15  1  0  0  0  0
  8  3  1  0  0  0  0
  9  8  2  0  0  0  0
 10 12  2  0  0  0  0
 10  9  1  0  0  0  0
 11 10  1  0  0  0  0
 12 13  1  0  0  0  0
 13 14  1  0  0  0  0
 13 15  2  0  0  0  0
 16 18  1  0  0  0  0
 17 16  1  0  0  0  0
 19 24  1  0  0  0  0
 19 25  1  0  0  0  0
 20 19  2  0  0  0  0
 21 22  2  0  0  0  0
 21 20  1  0  0  0  0
 22 23  1  0  0  0  0
 23 16  1  0  0  0  0
 23 24  2  0  0  0  0
 26 20  1  0  0  0  0
 27 21  1  0  0  0  0
M  END
>  <minimizedAffinity>
-5.25418425

>  <minimizedRMSD>
0.4798311

$$$$
