REMARK  Name = 
REMARK  6 active torsions:
REMARK  status: ('A' for Active; 'I' for Inactive)
REMARK    1  A    between atoms: C_1  and  C_4
REMARK    2  A    between atoms: C_3  and  C_11
REMARK    3  A    between atoms: C_4  and  C_9
REMARK    4  A    between atoms: C_11  and  O_13
REMARK    5  A    between atoms: O_13  and  C_14
REMARK    6  A    between atoms: C_17  and  C_30
REMARK                            x       y       z     vdW  Elec       q    Type
REMARK                         _______ _______ _______ _____ _____    ______ ____
ROOT
ATOM      1  C   UNL     1      35.296  29.410  48.987  0.00  0.00    +0.000 C 
ATOM      2  C   UNL     1      34.192  29.356  49.939  0.00  0.00    +0.000 C 
ATOM      3  C   UNL     1      34.532  28.094  49.350  0.00  0.00    +0.000 C 
ATOM      4  H   UNL     1      35.156  29.749  47.959  0.00  0.00    +0.000 HD
ATOM      5  H   UNL     1      34.445  29.635  51.004  0.00  0.00    +0.000 HD
ATOM      6  H   UNL     1      33.245  29.886  49.643  0.00  0.00    +0.000 HD
ATOM      7  H   UNL     1      35.184  27.325  49.760  0.00  0.00    +0.000 HD
ENDROOT
BRANCH   1   8
ATOM      8  C   UNL     1      36.713  29.385  49.585  0.00  0.00    +0.000 C 
ATOM      9  H   UNL     1      37.201  28.466  49.211  0.00  0.00    +0.000 HD
ATOM     10  H   UNL     1      36.643  29.371  50.675  0.00  0.00    +0.000 HD
BRANCH   8  15
ATOM     11  C   UNL     1      38.075  32.771  49.440  0.00  0.00    +0.000 A 
ATOM     12  C   UNL     1      38.750  32.781  48.205  0.00  0.00    +0.000 A 
ATOM     13  C   UNL     1      38.721  31.596  47.434  0.00  0.00    +0.000 A 
ATOM     14  N   UNL     1      38.041  30.513  47.931  0.00  0.00    +0.000 NA
ATOM     15  C   UNL     1      37.418  30.564  49.111  0.00  0.00    +0.000 A 
ATOM     16  N   UNL     1      37.442  31.702  49.859  0.00  0.00    +0.000 NA
ATOM     17  H   UNL     1      38.065  33.651  50.071  0.00  0.00    +0.000 HD
ATOM     18  H   UNL     1      39.270  33.673  47.871  0.00  0.00    +0.000 HD
ATOM     19  H   UNL     1      39.228  31.587  46.495  0.00  0.00    +0.000 HD
ENDBRANCH   8  15
ENDBRANCH   1   8
BRANCH   3  20
ATOM     20  C   UNL     1      33.565  27.583  48.300  0.00  0.00    +0.000 C 
ATOM     21  O   UNL     1      33.911  26.437  47.812  0.00  0.00    +0.000 OA
BRANCH  20  22
ATOM     22  O   UNL     1      32.406  28.215  47.860  0.00  0.00    +0.000 OA
BRANCH  22  23
ATOM     23  C   UNL     1      31.145  27.827  48.224  0.00  0.00    +0.000 A 
ATOM     24  C   UNL     1      30.628  27.810  49.612  0.00  0.00    +0.000 A 
ATOM     25  C   UNL     1      29.355  27.400  49.806  0.00  0.00    +0.000 A 
ATOM     26  C   UNL     1      28.531  26.999  48.738  0.00  0.00    +0.000 A 
ATOM     27  S   UNL     1      29.641  27.205  47.258  0.00  0.00    +0.000 S 
ATOM     28  H   UNL     1      31.295  28.126  50.391  0.00  0.00    +0.000 HD
ATOM     29  H   UNL     1      28.889  27.352  50.773  0.00  0.00    +0.000 HD
BRANCH  26  30
ATOM     30  C   UNL     1      27.262  26.553  48.599  0.00  0.00    +0.000 A 
ATOM     31  C   UNL     1      26.330  27.224  47.838  0.00  0.00    +0.000 A 
ATOM     32  C   UNL     1      25.036  26.764  47.700  0.00  0.00    +0.000 A 
ATOM     33  H   UNL     1      24.310  27.298  47.099  0.00  0.00    +0.000 HD
ATOM     34  C   UNL     1      24.662  25.598  48.343  0.00  0.00    +0.000 A 
ATOM     35  C   UNL     1      25.573  24.886  49.123  0.00  0.00    +0.000 A 
ATOM     36  H   UNL     1      25.272  23.965  49.629  0.00  0.00    +0.000 HD
ATOM     37  C   UNL     1      26.874  25.393  49.233  0.00  0.00    +0.000 A 
ENDBRANCH  26  30
ENDBRANCH  22  23
ENDBRANCH  20  22
ENDBRANCH   3  20
TORSDOF 6
