
 OpenBabel03252512433D

 23 25  0  0  0  0  0  0  0  0999 V2000
   38.3720   31.0860   47.8110 C   0  0  0  0  0  0  0  0  0  0  0  0
   38.8610   32.4200   47.8730 C   0  0  0  0  0  0  0  0  0  0  0  0
   39.6120   32.6570   46.1940 S   0  0  0  0  0  0  0  0  0  0  0  0
   39.1180   30.8980   45.7300 C   0  0  0  0  0  0  0  0  0  0  0  0
   38.6110   30.5250   46.6550 N   0  0  0  0  0  0  0  0  0  0  0  0
   38.7960   33.1150   48.7190 H   0  0  0  0  0  0  0  0  0  0  0  0
   38.1170   30.8640   50.2690 C   0  0  0  0  0  0  0  0  0  0  0  0
   37.6970   30.5250   48.9740 C   0  0  0  0  0  0  0  0  0  0  0  0
   36.6240   29.6430   48.9050 C   0  0  0  0  0  0  0  0  0  0  0  0
   36.0630   29.1790   50.0520 N   0  0  0  0  0  0  0  0  0  0  0  0
   36.5070   29.5380   51.2630 C   0  0  0  0  0  0  0  0  0  0  0  0
   37.5470   30.3920   51.3700 N   0  0  0  0  0  0  0  0  0  0  0  0
   38.9580   31.5550   50.4210 H   0  0  0  0  0  0  0  0  0  0  0  0
   36.2720   29.3580   47.9390 H   0  0  0  0  0  0  0  0  0  0  0  0
   36.0470   29.1570   52.1650 H   0  0  0  0  0  0  0  0  0  0  0  0
   39.4830   30.4530   44.3690 C   0  0  0  0  0  0  0  0  0  0  0  0
   40.2590   31.1940   43.5080 C   0  0  0  0  0  0  0  0  0  0  0  0
   40.5600   30.7310   42.2670 C   0  0  0  0  0  0  0  0  0  0  0  0
   41.1700   31.3200   41.5980 H   0  0  0  0  0  0  0  0  0  0  0  0
   40.0500   29.4810   41.9150 C   0  0  0  0  0  0  0  0  0  0  0  0
   39.2690   28.7300   42.7800 C   0  0  0  0  0  0  0  0  0  0  0  0
   38.9230   27.7780   42.4140 H   0  0  0  0  0  0  0  0  0  0  0  0
   38.9700   29.2270   44.0540 C   0  0  0  0  0  0  0  0  0  0  0  0
  1  2  2  0  0  0  0
  1  8  1  0  0  0  0
  2  6  1  0  0  0  0
  3  2  1  0  0  0  0
  4  3  1  0  0  0  0
  4  5  2  0  0  0  0
  5  1  1  0  0  0  0
  7 13  1  0  0  0  0
  7 12  1  0  0  0  0
  8  7  2  0  0  0  0
  9  8  1  0  0  0  0
  9 10  2  0  0  0  0
 10 11  1  0  0  0  0
 11 12  2  0  0  0  0
 11 15  1  0  0  0  0
 14  9  1  0  0  0  0
 16  4  1  0  0  0  0
 17 16  2  0  0  0  0
 18 17  1  0  0  0  0
 19 18  1  0  0  0  0
 20 18  2  0  0  0  0
 20 21  1  0  0  0  0
 21 23  2  0  0  0  0
 22 21  1  0  0  0  0
 23 16  1  0  0  0  0
M  END
>  <minimizedAffinity>
-5.45695543

>  <minimizedRMSD>
0.674966991

$$$$
