
 OpenBabel03252514073D

 41 44  0  0  0  0  0  0  0  0999 V2000
   34.1050   29.9760   47.4230 C   0  0  0  0  0  0  0  0  0  0  0  0
   35.0880   29.6850   48.3970 C   0  0  0  0  0  0  0  0  0  0  0  0
   35.0320   28.4290   48.9690 C   0  0  0  0  0  0  0  0  0  0  0  0
   34.0650   27.5680   48.5750 N   0  0  0  0  0  0  0  0  0  0  0  0
   33.1490   27.8610   47.6540 C   0  0  0  0  0  0  0  0  0  0  0  0
   33.1630   29.0740   47.0690 N   0  0  0  0  0  0  0  0  0  0  0  0
   34.1200   30.9370   46.9640 H   0  0  0  0  0  0  0  0  0  0  0  0
   35.8030   28.2660   49.6960 H   0  0  0  0  0  0  0  0  0  0  0  0
   36.0370   30.6930   48.7020 N   0  0  0  0  0  0  0  0  0  0  0  0
   36.1090   31.3290   49.8870 C   0  0  0  0  0  0  0  0  0  0  0  0
   37.1160   32.2330   49.8420 N   0  0  0  0  0  0  0  0  0  0  0  0
   37.6610   32.1420   48.6110 C   0  0  0  0  0  0  0  0  0  0  0  0
   38.7020   32.7930   47.9720 C   0  0  0  0  0  0  0  0  0  0  0  0
   39.0420   32.4980   46.7120 N   0  0  0  0  0  0  0  0  0  0  0  0
   38.3870   31.5520   46.0020 C   0  0  0  0  0  0  0  0  0  0  0  0
   37.3780   30.9240   46.6250 N   0  0  0  0  0  0  0  0  0  0  0  0
   36.9970   31.1780   47.8790 C   0  0  0  0  0  0  0  0  0  0  0  0
   35.5050   31.2040   50.7820 H   0  0  0  0  0  0  0  0  0  0  0  0
   38.6220   31.2750   44.9820 H   0  0  0  0  0  0  0  0  0  0  0  0
   39.4180   33.7900   48.6660 N   0  0  0  0  0  0  0  0  0  0  0  0
   39.0730   34.4200   49.4200 H   0  0  0  0  0  0  0  0  0  0  0  0
   40.4070   34.0470   48.5240 H   0  0  0  0  0  0  0  0  0  0  0  0
   32.1240   26.8790   47.2420 C   0  0  0  0  0  0  0  0  0  0  0  0
   31.2280   26.5400   48.4500 C   0  0  0  0  0  0  0  0  0  0  0  0
   31.7130   26.9890   49.3600 H   0  0  0  0  0  0  0  0  0  0  0  0
   30.2360   27.0030   48.3880 H   0  0  0  0  0  0  0  0  0  0  0  0
   31.1400   25.4650   48.5840 H   0  0  0  0  0  0  0  0  0  0  0  0
   31.1450   27.5350   46.2450 C   0  0  0  0  0  0  0  0  0  0  0  0
   30.8450   28.4950   46.6900 H   0  0  0  0  0  0  0  0  0  0  0  0
   31.7110   27.7450   45.3240 H   0  0  0  0  0  0  0  0  0  0  0  0
   30.2890   26.8720   46.1280 H   0  0  0  0  0  0  0  0  0  0  0  0
   32.6160   25.6610   46.5880 C   0  0  0  0  0  0  0  0  0  0  0  0
   32.3380   25.7010   45.5030 H   0  0  0  0  0  0  0  0  0  0  0  0
   33.7430   25.7110   46.5970 H   0  0  0  0  0  0  0  0  0  0  0  0
   32.1800   24.4080   47.1440 N   0  0  0  0  0  0  0  0  0  0  0  0
   33.3830   23.5410   47.3750 C   0  0  0  0  0  2  0  0  0  0  0  0
   32.8660   22.5210   48.3920 C   0  0  0  0  0  2  0  0  0  0  0  0
   31.9220   21.6210   47.6210 C   0  0  0  0  0  3  0  0  0  0  0  0
   31.0200   21.4040   48.2220 H   0  0  0  0  0  0  0  0  0  0  0  0
   31.5920   22.1580   46.2700 C   0  0  0  0  0  2  0  0  0  0  0  0
   31.3930   23.6370   46.1730 C   0  0  0  0  0  2  0  0  0  0  0  0
  1  2  1  0  0  0  0
  2  9  1  0  0  0  0
  2  3  2  0  0  0  0
  3  8  1  0  0  0  0
  4  3  1  0  0  0  0
  5  4  2  0  0  0  0
  6  1  2  0  0  0  0
  6  5  1  0  0  0  0
  7  1  1  0  0  0  0
  9 10  1  0  0  0  0
 10 18  1  0  0  0  0
 11 10  2  0  0  0  0
 12 11  1  0  0  0  0
 13 12  1  0  0  0  0
 13 20  1  0  0  0  0
 14 13  2  0  0  0  0
 15 16  2  0  0  0  0
 15 14  1  0  0  0  0
 16 17  1  0  0  0  0
 17 12  2  0  0  0  0
 17  9  1  0  0  0  0
 19 15  1  0  0  0  0
 20 21  1  0  0  0  0
 22 20  1  0  0  0  0
 23  5  1  0  0  0  0
 23 24  1  0  0  0  0
 24 27  1  0  0  0  0
 24 25  1  0  0  0  0
 26 24  1  0  0  0  0
 28 29  1  0  0  0  0
 28 23  1  0  0  0  0
 30 28  1  0  0  0  0
 31 28  1  0  0  0  0
 32 34  1  0  0  0  0
 32 35  1  0  0  0  0
 32 23  1  0  0  0  0
 33 32  1  0  0  0  0
 35 36  1  0  0  0  0
 36 37  1  0  0  0  0
 38 39  1  0  0  0  0
 38 37  1  0  0  0  0
 40 38  1  0  0  0  0
 41 40  1  0  0  0  0
 41 35  1  0  0  0  0
M  END
>  <minimizedAffinity>
-5.44475031

>  <minimizedRMSD>
2.20214653

$$$$
