
     RDKit          3D

 45 48  0  0  0  0  0  0  0  0999 V2000
   35.2971   29.4081   48.9837 C   0  0  2  0  0  0  0  0  0  0  0  0
   34.1906   29.3603   49.9332 C   0  0  0  0  0  0  0  0  0  0  0  0
   34.5303   28.0959   49.3486 C   0  0  1  0  0  0  0  0  0  0  0  0
   36.7107   29.3864   49.5881 C   0  0  0  0  0  0  0  0  0  0  0  0
   38.0778   32.7710   49.4396 C   0  0  0  0  0  0  0  0  0  0  0  0
   38.7493   32.7809   48.2103 C   0  0  0  0  0  0  0  0  0  0  0  0
   38.7203   31.5986   47.4367 C   0  0  0  0  0  0  0  0  0  0  0  0
   38.0402   30.5112   47.9286 N   0  0  0  0  0  0  0  0  0  0  0  0
   37.4161   30.5648   49.1150 C   0  0  0  0  0  0  0  0  0  0  0  0
   37.4400   31.6974   49.8629 N   0  0  0  0  0  0  0  0  0  0  0  0
   33.5654   27.5814   48.2986 C   0  0  0  0  0  0  0  0  0  0  0  0
   33.9122   26.4382   47.8039 O   0  0  0  0  0  0  0  0  0  0  0  0
   32.4053   28.2109   47.8655 O   0  0  0  0  0  0  0  0  0  0  0  0
   31.1460   27.8220   48.2083 C   0  0  0  0  0  0  0  0  0  0  0  0
   30.6284   27.8138   49.5897 C   0  0  0  0  0  0  0  0  0  0  0  0
   29.3562   27.4117   49.8300 C   0  0  0  0  0  0  0  0  0  0  0  0
   28.5329   26.9998   48.7461 C   0  0  0  0  0  0  0  0  0  0  0  0
   29.6411   27.1946   47.2624 S   0  0  0  0  0  0  0  0  0  0  0  0
   35.1566   29.7913   47.9639 H   0  0  0  0  0  0  0  0  0  0  0  0
   34.4416   29.5309   51.0204 H   0  0  0  0  0  0  0  0  0  0  0  0
   33.2189   29.8796   49.6832 H   0  0  0  0  0  0  0  0  0  0  0  0
   35.1844   27.3207   49.7520 H   0  0  0  0  0  0  0  0  0  0  0  0
   36.6327   29.3916   50.6963 H   0  0  0  0  0  0  0  0  0  0  0  0
   37.2238   28.4335   49.3018 H   0  0  0  0  0  0  0  0  0  0  0  0
   38.0761   33.6573   50.0610 H   0  0  0  0  0  0  0  0  0  0  0  0
   39.2747   33.6698   47.8628 H   0  0  0  0  0  0  0  0  0  0  0  0
   39.2328   31.5733   46.4748 H   0  0  0  0  0  0  0  0  0  0  0  0
   31.2793   28.1308   50.3858 H   0  0  0  0  0  0  0  0  0  0  0  0
   28.8761   27.3663   50.7878 H   0  0  0  0  0  0  0  0  0  0  0  0
   27.3121   26.5533   48.5776 N   0  0  0  0  0  0  0  0  0  0  0  0
   26.3150   26.3462   49.6128 C   0  0  0  0  0  0  0  0  0  0  0  0
   25.2455   27.3954   49.3549 C   0  0  0  0  0  0  0  0  0  0  0  0
   24.6275   27.1003   48.0149 C   0  0  0  0  0  0  0  0  0  0  0  0
   24.6895   28.0187   47.3916 H   0  0  0  0  0  0  0  0  0  0  0  0
   25.2973   25.9711   47.2888 C   0  0  0  0  0  0  0  0  0  0  0  0
   26.7894   26.2052   47.2502 C   0  0  0  0  0  0  0  0  0  0  0  0
   25.8805   25.3250   49.5329 H   0  0  0  0  0  0  0  0  0  0  0  0
   26.7384   26.4713   50.6282 H   0  0  0  0  0  0  0  0  0  0  0  0
   25.7988   28.3756   49.3206 H   0  0  0  0  0  0  0  0  0  0  0  0
   24.4787   27.4160   50.1607 H   0  0  0  0  0  0  0  0  0  0  0  0
   23.5517   26.7994   48.1865 H   0  0  0  0  0  0  0  0  0  0  0  0
   24.9672   25.9720   46.2244 H   0  0  0  0  0  0  0  0  0  0  0  0
   25.0377   24.9808   47.6962 H   0  0  0  0  0  0  0  0  0  0  0  0
   27.3339   25.3848   46.7727 H   0  0  0  0  0  0  0  0  0  0  0  0
   26.9240   27.1505   46.6459 H   0  0  0  0  0  0  0  0  0  0  0  0
  1  3  1  0
  1  4  1  0
  1  2  1  0
  3  2  1  0
  5 10  2  0
  6  5  1  0
  7  8  1  0
  7  6  2  0
  8  9  2  0
  9  4  1  0
  9 10  1  0
 11  3  1  0
 12 11  2  0
 13 14  1  0
 13 11  1  0
 14 15  2  0
 15 16  1  0
 17 16  2  0
 18 14  1  0
 18 17  1  0
  1 19  1  6
  2 20  1  0
  2 21  1  0
  3 22  1  1
  4 23  1  0
  4 24  1  0
  5 25  1  0
  6 26  1  0
  7 27  1  0
 15 28  1  0
 16 29  1  0
 30 31  1  0
 31 32  1  0
 32 33  1  0
 33 34  1  0
 33 35  1  0
 35 36  1  0
 36 30  1  0
 31 37  1  0
 31 38  1  0
 32 39  1  0
 32 40  1  0
 33 41  1  0
 35 42  1  0
 35 43  1  0
 36 44  1  0
 36 45  1  0
 17 30  1  0
M  ISO  8  19  13  20  13  21  13  22  13  23   8  24   8  25  14  26  14
M  ISO  4  27  14  28  14  29  14  34  15
M  END
>  <DihAtoms>  (1) 
15,16,29,30

>  <DihDeg>  (1) 
-118.90702045471441

$$$$
