
 OpenBabel03252513123D

 43 46  0  0  0  0  0  0  0  0999 V2000
   36.2310   31.2560   42.5650 C   0  0  0  0  0  0  0  0  0  0  0  0
   37.4390   31.0100   41.8950 C   0  0  0  0  0  0  0  0  0  0  0  0
   38.5180   30.6870   42.6630 C   0  0  0  0  0  0  0  0  0  0  0  0
   38.3210   30.6380   43.9720 N   0  0  0  0  0  0  0  0  0  0  0  0
   37.2460   30.8490   44.6650 C   0  0  0  0  0  0  0  0  0  0  0  0
   36.2050   31.1620   43.9000 N   0  0  0  0  0  0  0  0  0  0  0  0
   35.3470   31.5180   41.9660 H   0  0  0  0  0  0  0  0  0  0  0  0
   36.9270   30.8210   46.0730 C   0  0  0  0  0  0  0  0  0  0  0  0
   35.9020   30.0450   46.6100 C   0  0  0  0  0  0  0  0  0  0  0  0
   35.5730   29.9940   47.9280 C   0  0  0  0  0  0  0  0  0  0  0  0
   36.2730   30.7430   48.8370 C   0  0  0  0  0  0  0  0  0  0  0  0
   37.2740   31.5120   48.3780 C   0  0  0  0  0  0  0  0  0  0  0  0
   37.9770   32.2670   49.3030 C   0  0  0  0  0  0  0  0  0  0  0  0
   39.0070   33.0750   48.9260 C   0  0  0  0  0  0  0  0  0  0  0  0
   39.3390   33.1250   47.5810 C   0  0  0  0  0  0  0  0  0  0  0  0
   38.6220   32.3660   46.7020 C   0  0  0  0  0  0  0  0  0  0  0  0
   37.5990   31.5560   47.0340 C   0  0  0  0  0  0  0  0  0  0  0  0
   35.3170   29.4300   45.9260 H   0  0  0  0  0  0  0  0  0  0  0  0
   34.7560   29.3570   48.2600 H   0  0  0  0  0  0  0  0  0  0  0  0
   37.7740   32.2800   50.3630 H   0  0  0  0  0  0  0  0  0  0  0  0
   39.5860   33.6870   49.6250 H   0  0  0  0  0  0  0  0  0  0  0  0
   40.1560   33.7590   47.2470 H   0  0  0  0  0  0  0  0  0  0  0  0
   38.9110   32.4290   45.6520 H   0  0  0  0  0  0  0  0  0  0  0  0
   35.9160   30.6700   50.1660 O   0  0  0  0  0  0  0  0  0  0  0  0
   36.4290   29.6400   50.9960 C   0  0  0  0  0  0  0  0  0  0  0  0
   37.2460   28.7400   50.3820 F   0  0  0  0  0  0  0  0  0  0  0  0
   37.2110   30.2530   51.9730 F   0  0  0  0  0  0  0  0  0  0  0  0
   35.3260   29.0100   51.5630 F   0  0  0  0  0  0  0  0  0  0  0  0
   39.8070   30.4070   42.1440 N   0  0  0  0  0  0  0  0  0  0  0  0
   40.8790   29.9670   42.9520 C   0  0  0  0  0  0  0  0  0  0  0  0
   41.0210   30.5010   44.1220 N   0  0  0  0  0  0  0  0  0  0  0  0
   41.7670   28.9660   42.4820 N   0  0  0  0  0  0  0  0  0  0  0  0
   41.7190   30.2670   44.8190 H   0  0  0  0  0  0  0  0  0  0  0  0
   39.9780   30.5300   41.1000 H   0  0  0  0  0  0  0  0  0  0  0  0
   42.7500   29.3080   42.5710 H   0  0  0  0  0  0  0  0  0  0  0  0
   41.6340   28.0130   42.0880 H   0  0  0  0  0  0  0  0  0  0  0  0
   37.5730   31.0840   40.4840 N   0  0  0  0  0  0  0  0  0  0  0  0
   38.2770   32.0120   39.6160 C   0  0  0  0  0  0  0  0  0  0  0  0
   39.2400   31.2300   38.7510 C   0  0  0  0  0  0  0  0  0  0  0  0
   39.2630   29.7660   39.1010 C   0  0  0  0  0  0  0  0  0  0  0  0
   39.8660   29.5550   40.0320 H   0  0  0  0  0  0  0  0  0  0  0  0
   37.9140   29.1330   39.1420 C   0  0  0  0  0  0  0  0  0  0  0  0
   36.8890   30.0540   39.7250 C   0  0  0  0  0  0  0  0  0  0  0  0
  1  6  1  0  0  0  0
  2  1  2  0  0  0  0
  2  3  1  0  0  0  0
  3  4  2  0  0  0  0
  4  5  1  0  0  0  0
  5  8  1  0  0  0  0
  6  5  2  0  0  0  0
  7  1  1  0  0  0  0
  8  9  2  0  0  0  0
  8 17  1  0  0  0  0
  9 10  1  0  0  0  0
 10 19  1  0  0  0  0
 10 11  2  0  0  0  0
 11 24  1  0  0  0  0
 12 11  1  0  0  0  0
 12 13  1  0  0  0  0
 13 20  1  0  0  0  0
 14 13  2  0  0  0  0
 14 21  1  0  0  0  0
 15 14  1  0  0  0  0
 16 17  1  0  0  0  0
 16 15  2  0  0  0  0
 17 12  2  0  0  0  0
 18  9  1  0  0  0  0
 22 15  1  0  0  0  0
 23 16  1  0  0  0  0
 24 25  1  0  0  0  0
 25 28  1  0  0  0  0
 25 27  1  0  0  0  0
 26 25  1  0  0  0  0
 29  3  1  0  0  0  0
 29 30  1  0  0  0  0
 30 31  2  0  0  0  0
 31 33  1  0  0  0  0
 32 35  1  0  0  0  0
 32 30  1  0  0  0  0
 34 29  1  0  0  0  0
 36 32  1  0  0  0  0
 37  2  1  0  0  0  0
 38 37  1  0  0  0  0
 39 40  1  0  0  0  0
 39 38  1  0  0  0  0
 40 42  1  0  0  0  0
 40 41  1  0  0  0  0
 42 43  1  0  0  0  0
 43 37  1  0  0  0  0
M  END
>  <minimizedAffinity>
-7.50895405

>  <minimizedRMSD>
0.829574943

$$$$
