
     RDKit          3D

 26 27  0  0  0  0  0  0  0  0999 V2000
   36.8906   29.4377   49.6691 C   0  0  0  0  0  0  0  0  0  0  0  0
   38.4327   32.7429   49.3686 C   0  0  0  0  0  0  0  0  0  0  0  0
   38.9413   32.7552   48.0599 C   0  0  0  0  0  0  0  0  0  0  0  0
   38.7331   31.5915   47.2962 C   0  0  0  0  0  0  0  0  0  0  0  0
   38.0678   30.5420   47.8507 N   0  0  0  0  0  0  0  0  0  0  0  0
   37.6020   30.5939   49.1206 C   0  0  0  0  0  0  0  0  0  0  0  0
   37.7930   31.7004   49.8637 N   0  0  0  0  0  0  0  0  0  0  0  0
   35.4343   29.5364   49.2230 C   0  0  2  0  0  0  0  0  0  0  0  0
   34.4032   29.4646   50.2678 C   0  0  0  0  0  0  0  0  0  0  0  0
   34.6581   28.2389   49.5153 C   0  0  1  0  0  0  0  0  0  0  0  0
   33.5741   27.8578   48.5417 C   0  0  0  0  0  0  0  0  0  0  0  0
   33.8808   26.8567   47.7750 O   0  0  0  0  0  0  0  0  0  0  0  0
   32.3320   28.4598   48.4153 O   0  0  0  0  0  0  0  0  0  0  0  0
   37.3691   28.5009   49.3376 H   0  0  0  0  0  0  0  0  0  0  0  0
   36.8901   29.5105   50.7743 H   0  0  0  0  0  0  0  0  0  0  0  0
   38.5973   33.6366   49.9423 H   0  0  0  0  0  0  0  0  0  0  0  0
   39.4770   33.5713   47.5822 H   0  0  0  0  0  0  0  0  0  0  0  0
   39.0761   31.4806   46.2782 H   0  0  0  0  0  0  0  0  0  0  0  0
   35.2296   30.0656   48.2964 H   0  0  0  0  0  0  0  0  0  0  0  0
   33.4330   29.9876   50.1754 H   0  0  0  0  0  0  0  0  0  0  0  0
   34.7480   29.4301   51.3432 H   0  0  0  0  0  0  0  0  0  0  0  0
   35.3418   27.3933   49.7209 H   0  0  0  0  0  0  0  0  0  0  0  0
   31.4302   27.9647   47.4507 C   0  0  0  0  0  0  0  0  0  0  0  0
   31.4950   28.5077   46.4799 H   0  0  0  0  0  0  0  0  0  0  0  0
   30.3818   28.0551   47.8343 H   0  0  0  0  0  0  0  0  0  0  0  0
   31.6171   26.8953   47.2283 H   0  0  0  0  0  0  0  0  0  0  0  0
  2  7  2  0
  3  2  1  0
  4  5  1  0
  4  3  2  0
  5  6  2  0
  6  1  1  0
  6  7  1  0
  8 10  1  0
  8  1  1  0
  8  9  1  0
 10  9  1  0
 11 10  1  0
 12 11  2  0
 13 11  1  0
  1 14  1  0
  1 15  1  0
  2 16  1  0
  3 17  1  0
  4 18  1  0
  8 19  1  6
  9 20  1  0
  9 21  1  0
 10 22  1  1
 23 24  1  0
 23 25  1  0
 23 26  1  0
 13 23  1  0
M  ISO  8  14   8  15   8  16  14  17  14  18  14  19  13  20  13  21  13
M  ISO  2  22  13  24   8
M  END
>  <DihAtoms>  (1) 
10,12,22,23

>  <DihDeg>  (1) 
86.32094195573492

$$$$
