REMARK  Name = 
REMARK  5 active torsions:
REMARK  status: ('A' for Active; 'I' for Inactive)
REMARK    1  A    between atoms: C_1  and  C_6
REMARK    2  A    between atoms: C_1  and  C_8
REMARK    3  A    between atoms: C_10  and  C_11
REMARK    4  A    between atoms: C_11  and  O_13
REMARK    5  A    between atoms: O_13  and  C_23
REMARK                            x       y       z     vdW  Elec       q    Type
REMARK                         _______ _______ _______ _____ _____    ______ ____
ROOT
ATOM      1  C   UNL     1      36.891  29.438  49.669  0.00  0.00    +0.000 C 
ATOM      2  H   UNL     1      37.369  28.501  49.338  0.00  0.00    +0.000 HD
ATOM      3  H   UNL     1      36.890  29.511  50.774  0.00  0.00    +0.000 HD
ENDROOT
BRANCH   1   8
ATOM      4  C   UNL     1      38.433  32.743  49.369  0.00  0.00    +0.000 A 
ATOM      5  C   UNL     1      38.941  32.755  48.060  0.00  0.00    +0.000 A 
ATOM      6  C   UNL     1      38.733  31.591  47.296  0.00  0.00    +0.000 A 
ATOM      7  N   UNL     1      38.068  30.542  47.851  0.00  0.00    +0.000 NA
ATOM      8  C   UNL     1      37.602  30.594  49.121  0.00  0.00    +0.000 A 
ATOM      9  N   UNL     1      37.793  31.700  49.864  0.00  0.00    +0.000 NA
ATOM     10  H   UNL     1      38.597  33.637  49.942  0.00  0.00    +0.000 HD
ATOM     11  H   UNL     1      39.477  33.571  47.582  0.00  0.00    +0.000 HD
ATOM     12  H   UNL     1      39.076  31.481  46.278  0.00  0.00    +0.000 HD
ENDBRANCH   1   8
BRANCH   1  13
ATOM     13  C   UNL     1      35.434  29.536  49.223  0.00  0.00    +0.000 C 
ATOM     14  C   UNL     1      34.403  29.465  50.268  0.00  0.00    +0.000 C 
ATOM     15  C   UNL     1      34.658  28.239  49.515  0.00  0.00    +0.000 C 
ATOM     16  H   UNL     1      35.230  30.066  48.296  0.00  0.00    +0.000 HD
ATOM     17  H   UNL     1      33.433  29.988  50.175  0.00  0.00    +0.000 HD
ATOM     18  H   UNL     1      34.748  29.430  51.343  0.00  0.00    +0.000 HD
ATOM     19  H   UNL     1      35.342  27.393  49.721  0.00  0.00    +0.000 HD
BRANCH  15  20
ATOM     20  C   UNL     1      33.574  27.858  48.542  0.00  0.00    +0.000 C 
ATOM     21  O   UNL     1      33.881  26.857  47.775  0.00  0.00    +0.000 OA
BRANCH  20  22
ATOM     22  O   UNL     1      32.332  28.460  48.415  0.00  0.00    +0.000 OA
BRANCH  22  23
ATOM     23  C   UNL     1      31.430  27.965  47.451  0.00  0.00    +0.000 C 
ATOM     24  H   UNL     1      31.899  27.834  46.448  0.00  0.00    +0.000 HD
ENDBRANCH  22  23
ENDBRANCH  20  22
ENDBRANCH  15  20
ENDBRANCH   1  13
TORSDOF 5
