
 OpenBabel03252514073D

 41 44  0  0  0  0  0  0  0  0999 V2000
   34.4370   30.1830   47.5730 C   0  0  0  0  0  0  0  0  0  0  0  0
   35.4590   29.9670   48.5260 C   0  0  0  0  0  0  0  0  0  0  0  0
   35.4370   28.7530   49.1860 C   0  0  0  0  0  0  0  0  0  0  0  0
   34.4630   27.8610   48.8900 N   0  0  0  0  0  0  0  0  0  0  0  0
   33.5100   28.0830   47.9880 C   0  0  0  0  0  0  0  0  0  0  0  0
   33.4900   29.2520   47.3200 N   0  0  0  0  0  0  0  0  0  0  0  0
   34.4260   31.1100   47.0490 H   0  0  0  0  0  0  0  0  0  0  0  0
   36.2360   28.6470   49.8920 H   0  0  0  0  0  0  0  0  0  0  0  0
   36.4100   31.0000   48.7240 N   0  0  0  0  0  0  0  0  0  0  0  0
   36.4870   31.7530   49.8380 C   0  0  0  0  0  0  0  0  0  0  0  0
   37.4940   32.6470   49.6970 N   0  0  0  0  0  0  0  0  0  0  0  0
   38.0330   32.4320   48.4800 C   0  0  0  0  0  0  0  0  0  0  0  0
   39.0720   33.0130   47.7730 C   0  0  0  0  0  0  0  0  0  0  0  0
   39.4060   32.5920   46.5480 N   0  0  0  0  0  0  0  0  0  0  0  0
   38.7480   31.5790   45.9400 C   0  0  0  0  0  0  0  0  0  0  0  0
   37.7420   31.0180   46.6280 N   0  0  0  0  0  0  0  0  0  0  0  0
   37.3660   31.3980   47.8520 C   0  0  0  0  0  0  0  0  0  0  0  0
   35.8870   31.7200   50.7430 H   0  0  0  0  0  0  0  0  0  0  0  0
   38.9790   31.2000   44.9530 H   0  0  0  0  0  0  0  0  0  0  0  0
   39.7910   34.0750   48.3600 N   0  0  0  0  0  0  0  0  0  0  0  0
   39.4500   34.7780   49.0480 H   0  0  0  0  0  0  0  0  0  0  0  0
   40.7800   34.3160   48.1880 H   0  0  0  0  0  0  0  0  0  0  0  0
   32.4790   27.0680   47.6850 C   0  0  0  0  0  0  0  0  0  0  0  0
   31.2720   27.2700   48.6230 C   0  0  0  0  0  0  0  0  0  0  0  0
   31.5830   28.0150   49.4070 H   0  0  0  0  0  0  0  0  0  0  0  0
   30.4100   27.7190   48.1170 H   0  0  0  0  0  0  0  0  0  0  0  0
   30.9910   26.3380   49.1070 H   0  0  0  0  0  0  0  0  0  0  0  0
   31.8880   27.3280   46.2830 C   0  0  0  0  0  0  0  0  0  0  0  0
   31.6380   28.3980   46.2450 H   0  0  0  0  0  0  0  0  0  0  0  0
   32.6880   27.1340   45.5510 H   0  0  0  0  0  0  0  0  0  0  0  0
   30.9950   26.7130   46.1750 H   0  0  0  0  0  0  0  0  0  0  0  0
   32.9230   25.6690   47.6870 C   0  0  0  0  0  0  0  0  0  0  0  0
   33.8720   25.5970   48.2800 H   0  0  0  0  0  0  0  0  0  0  0  0
   32.1670   25.0800   48.2830 H   0  0  0  0  0  0  0  0  0  0  0  0
   33.1160   25.0520   46.4020 N   0  0  0  0  0  0  0  0  0  0  0  0
   32.4850   23.6900   46.4230 C   0  0  0  0  0  2  0  0  0  0  0  0
   32.3110   23.3820   44.9360 C   0  0  0  0  0  2  0  0  0  0  0  0
   33.7060   23.1200   44.4080 C   0  0  0  0  0  3  0  0  0  0  0  0
   33.8410   23.5970   43.4200 H   0  0  0  0  0  0  0  0  0  0  0  0
   34.7680   23.5050   45.3780 C   0  0  0  0  0  2  0  0  0  0  0  0
   34.5340   24.7600   46.1570 C   0  0  0  0  0  2  0  0  0  0  0  0
  1  2  1  0  0  0  0
  2  9  1  0  0  0  0
  2  3  2  0  0  0  0
  3  8  1  0  0  0  0
  4  3  1  0  0  0  0
  5  4  2  0  0  0  0
  6  1  2  0  0  0  0
  6  5  1  0  0  0  0
  7  1  1  0  0  0  0
  9 10  1  0  0  0  0
 10 18  1  0  0  0  0
 11 10  2  0  0  0  0
 12 11  1  0  0  0  0
 13 20  1  0  0  0  0
 13 12  2  0  0  0  0
 14 13  1  0  0  0  0
 15 14  2  0  0  0  0
 15 16  1  0  0  0  0
 16 17  2  0  0  0  0
 17 12  1  0  0  0  0
 17  9  1  0  0  0  0
 19 15  1  0  0  0  0
 20 21  1  0  0  0  0
 22 20  1  0  0  0  0
 23 32  1  0  0  0  0
 23  5  1  0  0  0  0
 23 24  1  0  0  0  0
 24 27  1  0  0  0  0
 24 25  1  0  0  0  0
 26 24  1  0  0  0  0
 28 23  1  0  0  0  0
 29 28  1  0  0  0  0
 30 28  1  0  0  0  0
 31 28  1  0  0  0  0
 32 33  1  0  0  0  0
 32 34  1  0  0  0  0
 35 36  1  0  0  0  0
 35 32  1  0  0  0  0
 37 36  1  0  0  0  0
 38 37  1  0  0  0  0
 38 40  1  0  0  0  0
 39 38  1  0  0  0  0
 40 41  1  0  0  0  0
 41 35  1  0  0  0  0
M  END
>  <minimizedAffinity>
-5.30601931

>  <minimizedRMSD>
1.62772715

$$$$
