
 OpenBabel03252513073D

 41 43  0  0  0  0  0  0  0  0999 V2000
   36.8530   30.5670   44.8050 C   0  0  0  0  0  0  0  0  0  0  0  0
   37.8210   30.6570   43.7670 C   0  0  0  0  0  0  0  0  0  0  0  0
   39.1030   31.0280   44.0320 C   0  0  0  0  0  0  0  0  0  0  0  0
   39.3900   31.3040   45.3460 N   0  0  0  0  0  0  0  0  0  0  0  0
   38.4940   31.2200   46.3070 C   0  0  0  0  0  0  0  0  0  0  0  0
   37.2370   30.8610   46.0800 N   0  0  0  0  0  0  0  0  0  0  0  0
   35.8310   30.2720   44.6310 H   0  0  0  0  0  0  0  0  0  0  0  0
   37.4000   30.4060   42.8100 H   0  0  0  0  0  0  0  0  0  0  0  0
   40.1060   31.1240   43.0000 C   0  0  0  0  0  0  0  0  0  0  0  0
   39.6370   31.3750   42.0010 H   0  0  0  0  0  0  0  0  0  0  0  0
   40.7590   32.0220   43.2230 H   0  0  0  0  0  0  0  0  0  0  0  0
   40.9960   29.9540   42.8640 C   0  0  0  0  0  0  0  0  0  0  0  0
   40.7550   29.2190   43.6560 H   0  0  0  0  0  0  0  0  0  0  0  0
   42.0280   30.3140   43.1590 H   0  0  0  0  0  0  0  0  0  0  0  0
   41.1350   29.3160   41.6260 N   0  0  0  0  0  0  0  0  0  0  0  0
   41.7970   29.7100   40.5510 C   0  0  0  0  0  0  0  0  0  0  0  0
   41.8930   29.0190   39.3680 C   0  0  0  0  0  0  0  0  0  0  0  0
   41.2610   27.8120   39.2480 C   0  0  0  0  0  0  0  0  0  0  0  0
   41.2960   27.1180   38.2120 O   0  0  0  0  0  0  0  0  0  0  0  0
   40.5910   27.3930   40.3070 N   0  0  0  0  0  0  0  0  0  0  0  0
   40.5200   28.0850   41.4340 C   0  0  0  0  0  0  0  0  0  0  0  0
   39.8520   27.6040   42.4060 O   0  0  0  0  0  0  0  0  0  0  0  0
   42.3040   30.6710   40.6320 H   0  0  0  0  0  0  0  0  0  0  0  0
   42.4660   29.4340   38.5280 H   0  0  0  0  0  0  0  0  0  0  0  0
   39.9100   26.1100   40.2180 C   0  0  0  0  0  0  0  0  0  0  0  0
   39.5230   25.6840   41.4690 F   0  0  0  0  0  0  0  0  0  0  0  0
   40.8210   25.2050   39.7000 F   0  0  0  0  0  0  0  0  0  0  0  0
   38.8410   26.2630   39.3770 F   0  0  0  0  0  0  0  0  0  0  0  0
   38.8850   31.5470   47.7180 C   0  0  0  0  0  0  0  0  0  0  0  0
   39.1740   30.6570   48.2890 H   0  0  0  0  0  0  0  0  0  0  0  0
   39.7510   32.2160   47.6390 H   0  0  0  0  0  0  0  0  0  0  0  0
   37.7080   32.2280   48.4090 C   0  0  0  0  0  0  0  0  0  0  0  0
   37.7450   33.3060   48.2870 H   0  0  0  0  0  0  0  0  0  0  0  0
   36.8120   31.8820   47.8050 H   0  0  0  0  0  0  0  0  0  0  0  0
   37.5030   31.7360   49.7300 N   0  0  0  0  0  0  0  0  0  0  0  0
   36.1010   31.5310   50.0390 C   0  0  0  0  0  0  0  0  0  0  0  0
   35.5820   30.3490   49.2240 C   0  0  0  0  0  0  0  0  0  0  0  0
   36.1400   29.1060   49.8810 C   0  0  0  0  0  0  0  0  0  0  0  0
   35.3720   28.7550   50.6160 H   0  0  0  0  0  0  0  0  0  0  0  0
   37.4120   29.4310   50.5910 C   0  0  0  0  0  0  0  0  0  0  0  0
   38.2150   30.5070   49.9220 C   0  0  0  0  0  0  0  0  0  0  0  0
  1  6  1  0  0  0  0
  2  3  1  0  0  0  0
  2  1  2  0  0  0  0
  3  4  2  0  0  0  0
  4  5  1  0  0  0  0
  5 29  1  0  0  0  0
  6  5  2  0  0  0  0
  7  1  1  0  0  0  0
  8  2  1  0  0  0  0
  9 11  1  0  0  0  0
  9  3  1  0  0  0  0
 10  9  1  0  0  0  0
 12  9  1  0  0  0  0
 12 14  1  0  0  0  0
 12 13  1  0  0  0  0
 15 12  1  0  0  0  0
 16 23  1  0  0  0  0
 16 15  1  0  0  0  0
 17 16  2  0  0  0  0
 18 17  1  0  0  0  0
 18 20  1  0  0  0  0
 19 18  2  0  0  0  0
 20 21  1  0  0  0  0
 21 15  1  0  0  0  0
 21 22  2  0  0  0  0
 24 17  1  0  0  0  0
 25 20  1  0  0  0  0
 25 26  1  0  0  0  0
 27 25  1  0  0  0  0
 28 25  1  0  0  0  0
 29 30  1  0  0  0  0
 29 32  1  0  0  0  0
 31 29  1  0  0  0  0
 32 35  1  0  0  0  0
 33 32  1  0  0  0  0
 34 32  1  0  0  0  0
 35 41  1  0  0  0  0
 35 36  1  0  0  0  0
 37 38  1  0  0  0  0
 37 36  1  0  0  0  0
 38 40  1  0  0  0  0
 38 39  1  0  0  0  0
 41 40  1  0  0  0  0
M  END
>  <minimizedAffinity>
-5.25888157

>  <minimizedRMSD>
5.74850655

$$$$
