
 OpenBabel03252510553D

 23 24  0  0  0  0  0  0  0  0999 V2000
   37.3370   31.3670   48.4550 C   0  0  0  0  0  0  0  0  0  0  0  0
   37.7680   32.3660   49.3500 C   0  0  0  0  0  0  0  0  0  0  0  0
   38.7460   33.2720   48.9210 C   0  0  0  0  0  0  0  0  0  0  0  0
   39.2240   33.1180   47.6320 N   0  0  0  0  0  0  0  0  0  0  0  0
   38.7810   32.1560   46.8280 C   0  0  0  0  0  0  0  0  0  0  0  0
   37.8290   31.2580   47.2180 N   0  0  0  0  0  0  0  0  0  0  0  0
   37.3320   32.4100   50.3520 H   0  0  0  0  0  0  0  0  0  0  0  0
   39.0540   34.0150   49.6170 H   0  0  0  0  0  0  0  0  0  0  0  0
   39.2970   32.0300   45.5070 N   0  0  0  0  0  0  0  0  0  0  0  0
   39.7700   33.1440   44.7490 C   0  0  0  0  0  0  0  0  0  0  0  0
   39.5010   33.0130   43.2690 C   0  0  0  0  0  0  0  0  0  0  0  0
   40.0540   31.7310   42.6990 C   0  0  0  0  0  0  0  0  0  0  0  0
   39.2990   31.2160   42.0700 H   0  0  0  0  0  0  0  0  0  0  0  0
   40.4760   30.7610   43.7770 C   0  0  0  0  0  0  0  0  0  0  0  0
   39.3820   30.7590   44.8300 C   0  0  0  0  0  0  0  0  0  0  0  0
   36.3190   30.4450   48.9380 C   0  0  0  0  0  0  0  0  0  0  0  0
   35.1050   30.6060   48.5820 O   0  0  0  0  0  0  0  0  0  0  0  0
   36.6820   29.4110   49.7730 O   0  0  0  0  0  0  0  0  0  0  0  0
   36.5890   29.4750   51.1610 C   0  0  0  0  0  0  0  0  0  0  0  0
   37.7130   29.8070   51.9710 N   0  0  0  0  0  0  0  0  0  0  0  0
   35.4450   29.2170   51.5980 O   0  0  0  0  0  0  0  0  0  0  0  0
   38.2380   30.5450   52.4940 H   0  0  0  0  0  0  0  0  0  0  0  0
   38.2360   28.8900   52.0840 H   0  0  0  0  0  0  0  0  0  0  0  0
  1 16  1  0  0  0  0
  1  2  1  0  0  0  0
  2  7  1  0  0  0  0
  3  2  2  0  0  0  0
  3  8  1  0  0  0  0
  4  3  1  0  0  0  0
  5  6  1  0  0  0  0
  5  4  2  0  0  0  0
  6  1  2  0  0  0  0
  9  5  1  0  0  0  0
 10  9  1  0  0  0  0
 11 10  1  0  0  0  0
 12 11  1  0  0  0  0
 12 14  1  0  0  0  0
 13 12  1  0  0  0  0
 14 15  1  0  0  0  0
 15  9  1  0  0  0  0
 16 18  1  0  0  0  0
 17 16  2  0  0  0  0
 18 19  1  0  0  0  0
 19 21  2  0  0  0  0
 19 20  1  0  0  0  0
 20 23  1  0  0  0  0
 20 22  1  0  0  0  0
M  END
>  <minimizedAffinity>
-5.86720181

>  <minimizedRMSD>
1.21553397

$$$$
