
 OpenBabel03252514073D

 41 44  0  0  0  0  0  0  0  0999 V2000
   34.0850   29.8960   47.4940 C   0  0  0  0  0  0  0  0  0  0  0  0
   35.0290   29.6660   48.5210 C   0  0  0  0  0  0  0  0  0  0  0  0
   34.8840   28.4940   49.2380 C   0  0  0  0  0  0  0  0  0  0  0  0
   33.8720   27.6520   48.9250 N   0  0  0  0  0  0  0  0  0  0  0  0
   32.9920   27.8870   47.9530 C   0  0  0  0  0  0  0  0  0  0  0  0
   33.0930   29.0170   47.2280 N   0  0  0  0  0  0  0  0  0  0  0  0
   34.1690   30.7920   46.9240 H   0  0  0  0  0  0  0  0  0  0  0  0
   35.6290   28.3740   49.9980 H   0  0  0  0  0  0  0  0  0  0  0  0
   36.0350   30.6430   48.7270 N   0  0  0  0  0  0  0  0  0  0  0  0
   36.2590   31.2620   49.9020 C   0  0  0  0  0  0  0  0  0  0  0  0
   37.2790   32.1380   49.7530 N   0  0  0  0  0  0  0  0  0  0  0  0
   37.6790   32.0500   48.4670 C   0  0  0  0  0  0  0  0  0  0  0  0
   38.6580   32.6810   47.7210 C   0  0  0  0  0  0  0  0  0  0  0  0
   38.8450   32.3950   46.4270 N   0  0  0  0  0  0  0  0  0  0  0  0
   38.0880   31.4760   45.7860 C   0  0  0  0  0  0  0  0  0  0  0  0
   37.1380   30.8670   46.5130 N   0  0  0  0  0  0  0  0  0  0  0  0
   36.9090   31.1140   47.8050 C   0  0  0  0  0  0  0  0  0  0  0  0
   35.7570   31.1400   50.8590 H   0  0  0  0  0  0  0  0  0  0  0  0
   38.1980   31.2070   44.7430 H   0  0  0  0  0  0  0  0  0  0  0  0
   39.4770   33.6490   48.3390 N   0  0  0  0  0  0  0  0  0  0  0  0
   39.2370   34.2770   49.1350 H   0  0  0  0  0  0  0  0  0  0  0  0
   40.4500   33.8820   48.0880 H   0  0  0  0  0  0  0  0  0  0  0  0
   31.9140   26.9260   47.6370 C   0  0  0  0  0  0  0  0  0  0  0  0
   30.8940   26.9050   48.7920 C   0  0  0  0  0  0  0  0  0  0  0  0
   31.3450   27.4860   49.6430 H   0  0  0  0  0  0  0  0  0  0  0  0
   29.9600   27.4230   48.5450 H   0  0  0  0  0  0  0  0  0  0  0  0
   30.6920   25.8880   49.1190 H   0  0  0  0  0  0  0  0  0  0  0  0
   31.0880   27.4470   46.4410 C   0  0  0  0  0  0  0  0  0  0  0  0
   30.8460   28.4960   46.6640 H   0  0  0  0  0  0  0  0  0  0  0  0
   31.7450   27.4250   45.5570 H   0  0  0  0  0  0  0  0  0  0  0  0
   30.1840   26.8430   46.3680 H   0  0  0  0  0  0  0  0  0  0  0  0
   32.3380   25.5680   47.2780 C   0  0  0  0  0  0  0  0  0  0  0  0
   32.4250   24.9610   48.2170 H   0  0  0  0  0  0  0  0  0  0  0  0
   31.4870   25.0930   46.7080 H   0  0  0  0  0  0  0  0  0  0  0  0
   33.5550   25.4510   46.5200 N   0  0  0  0  0  0  0  0  0  0  0  0
   33.2150   24.9810   45.1350 C   0  0  0  0  0  2  0  0  0  0  0  0
   34.4560   25.3840   44.3360 C   0  0  0  0  0  2  0  0  0  0  0  0
   35.5490   24.4320   44.7760 C   0  0  0  0  0  3  0  0  0  0  0  0
   36.5040   24.9750   44.9050 H   0  0  0  0  0  0  0  0  0  0  0  0
   35.1720   23.6440   45.9820 C   0  0  0  0  0  2  0  0  0  0  0  0
   34.4060   24.3710   47.0390 C   0  0  0  0  0  2  0  0  0  0  0  0
  1  2  1  0  0  0  0
  2  9  1  0  0  0  0
  2  3  2  0  0  0  0
  3  8  1  0  0  0  0
  4  3  1  0  0  0  0
  5  4  2  0  0  0  0
  6  1  2  0  0  0  0
  6  5  1  0  0  0  0
  7  1  1  0  0  0  0
  9 10  1  0  0  0  0
 10 18  1  0  0  0  0
 11 10  2  0  0  0  0
 12 11  1  0  0  0  0
 13 20  1  0  0  0  0
 13 12  2  0  0  0  0
 14 13  1  0  0  0  0
 15 14  2  0  0  0  0
 15 16  1  0  0  0  0
 16 17  2  0  0  0  0
 17 12  1  0  0  0  0
 17  9  1  0  0  0  0
 19 15  1  0  0  0  0
 20 21  1  0  0  0  0
 22 20  1  0  0  0  0
 23  5  1  0  0  0  0
 23 24  1  0  0  0  0
 24 27  1  0  0  0  0
 24 25  1  0  0  0  0
 26 24  1  0  0  0  0
 28 29  1  0  0  0  0
 28 23  1  0  0  0  0
 30 28  1  0  0  0  0
 31 28  1  0  0  0  0
 32 23  1  0  0  0  0
 32 33  1  0  0  0  0
 34 32  1  0  0  0  0
 35 41  1  0  0  0  0
 35 32  1  0  0  0  0
 36 35  1  0  0  0  0
 37 38  1  0  0  0  0
 37 36  1  0  0  0  0
 38 39  1  0  0  0  0
 38 40  1  0  0  0  0
 40 41  1  0  0  0  0
M  END
>  <minimizedAffinity>
-5.48272991

>  <minimizedRMSD>
0.708850801

$$$$
