
 OpenBabel03252513423D

 19 20  0  0  0  0  0  0  0  0999 V2000
   37.3460   30.5670   49.1230 C   0  0  0  0  0  0  0  0  0  0  0  0
   37.1570   31.7200   49.9320 C   0  0  0  0  0  0  0  0  0  0  0  0
   37.7870   32.9020   49.5200 C   0  0  0  0  0  0  0  0  0  0  0  0
   38.5300   32.8690   48.3870 N   0  0  0  0  0  0  0  0  0  0  0  0
   38.6830   31.7620   47.6550 C   0  0  0  0  0  0  0  0  0  0  0  0
   38.1040   30.6160   48.0060 N   0  0  0  0  0  0  0  0  0  0  0  0
   36.5600   31.6840   50.8120 H   0  0  0  0  0  0  0  0  0  0  0  0
   37.6430   33.7680   50.1300 H   0  0  0  0  0  0  0  0  0  0  0  0
   39.4930   31.8850   46.4920 N   0  0  0  0  0  0  0  0  0  0  0  0
   40.0980   33.1520   46.1590 C   0  0  0  0  0  0  0  0  0  0  0  0
   39.7730   33.3910   44.6840 C   0  0  0  0  0  0  0  0  0  0  0  0
   40.2140   32.3850   43.8730 O   0  0  0  0  0  0  0  0  0  0  0  0
   40.6220   31.2280   44.4730 C   0  0  0  0  0  0  0  0  0  0  0  0
   39.7440   30.7670   45.6070 C   0  0  0  0  0  0  0  0  0  0  0  0
   36.7270   29.3990   49.5220 O   0  0  0  0  0  0  0  0  0  0  0  0
   35.4760   29.3300   50.1490 C   0  0  0  0  0  0  0  0  0  0  0  0
   35.5820   29.3030   51.5370 F   0  0  0  0  0  0  0  0  0  0  0  0
   34.5930   30.2850   49.7520 F   0  0  0  0  0  0  0  0  0  0  0  0
   34.9480   28.0920   49.7700 F   0  0  0  0  0  0  0  0  0  0  0  0
  1 15  1  0  0  0  0
  1  2  1  0  0  0  0
  2  7  1  0  0  0  0
  3  2  2  0  0  0  0
  3  8  1  0  0  0  0
  4  3  1  0  0  0  0
  5  6  1  0  0  0  0
  5  4  2  0  0  0  0
  6  1  2  0  0  0  0
  9  5  1  0  0  0  0
 10  9  1  0  0  0  0
 11 10  1  0  0  0  0
 12 13  1  0  0  0  0
 12 11  1  0  0  0  0
 13 14  1  0  0  0  0
 14  9  1  0  0  0  0
 15 16  1  0  0  0  0
 16 17  1  0  0  0  0
 18 16  1  0  0  0  0
 19 16  1  0  0  0  0
M  END
>  <minimizedAffinity>
-6.28596783

>  <minimizedRMSD>
1.69306207

$$$$
