REMARK  Name = 
REMARK  6 active torsions:
REMARK  status: ('A' for Active; 'I' for Inactive)
REMARK    1  A    between atoms: C_1  and  C_6
REMARK    2  A    between atoms: C_1  and  C_8
REMARK    3  A    between atoms: C_10  and  C_11
REMARK    4  A    between atoms: C_11  and  O_13
REMARK    5  A    between atoms: O_13  and  C_23
REMARK    6  A    between atoms: C_23  and  C_24
REMARK                            x       y       z     vdW  Elec       q    Type
REMARK                         _______ _______ _______ _____ _____    ______ ____
ROOT
ATOM      1  C   UNL     1      35.430  29.544  49.212  0.00  0.00    +0.000 C 
ATOM      2  C   UNL     1      34.404  29.468  50.263  0.00  0.00    +0.000 C 
ATOM      3  C   UNL     1      34.654  28.246  49.513  0.00  0.00    +0.000 C 
ATOM      4  H   UNL     1      35.261  29.958  48.217  0.00  0.00    +0.000 HD
ATOM      5  H   UNL     1      33.469  30.046  50.082  0.00  0.00    +0.000 HD
ATOM      6  H   UNL     1      34.706  29.512  51.332  0.00  0.00    +0.000 HD
ATOM      7  H   UNL     1      35.321  27.416  49.761  0.00  0.00    +0.000 HD
ENDROOT
BRANCH   1   8
ATOM      8  C   UNL     1      36.891  29.436  49.653  0.00  0.00    +0.000 C 
ATOM      9  H   UNL     1      37.299  28.456  49.304  0.00  0.00    +0.000 HD
ATOM     10  H   UNL     1      36.912  29.452  50.751  0.00  0.00    +0.000 HD
BRANCH   8  15
ATOM     11  C   UNL     1      38.430  32.751  49.380  0.00  0.00    +0.000 A 
ATOM     12  C   UNL     1      38.941  32.751  48.074  0.00  0.00    +0.000 A 
ATOM     13  C   UNL     1      38.748  31.597  47.296  0.00  0.00    +0.000 A 
ATOM     14  N   UNL     1      38.072  30.538  47.856  0.00  0.00    +0.000 NA
ATOM     15  C   UNL     1      37.605  30.590  49.106  0.00  0.00    +0.000 A 
ATOM     16  N   UNL     1      37.790  31.701  49.858  0.00  0.00    +0.000 NA
ATOM     17  H   UNL     1      38.525  33.585  50.057  0.00  0.00    +0.000 HD
ATOM     18  H   UNL     1      39.462  33.635  47.717  0.00  0.00    +0.000 HD
ATOM     19  H   UNL     1      39.133  31.588  46.302  0.00  0.00    +0.000 HD
ENDBRANCH   8  15
ENDBRANCH   1   8
BRANCH   3  20
ATOM     20  C   UNL     1      33.572  27.854  48.547  0.00  0.00    +0.000 C 
ATOM     21  O   UNL     1      33.877  26.853  47.782  0.00  0.00    +0.000 OA
BRANCH  20  22
ATOM     22  O   UNL     1      32.328  28.449  48.429  0.00  0.00    +0.000 OA
BRANCH  22  23
ATOM     23  C   UNL     1      31.380  27.990  47.489  0.00  0.00    +0.000 C 
BRANCH  23  24
ATOM     24  C   UNL     1      31.556  26.494  47.244  0.00  0.00    +0.000 C 
ATOM     25  H   UNL     1      31.076  26.273  46.269  0.00  0.00    +0.000 HD
ENDBRANCH  23  24
ENDBRANCH  22  23
ENDBRANCH  20  22
ENDBRANCH   3  20
TORSDOF 6
