
 OpenBabel03252511563D

 34 37  0  0  0  0  0  0  0  0999 V2000
   36.3660   30.2980   47.5140 N   0  0  0  0  0  0  0  0  0  0  0  0
   35.1110   29.9840   47.1020 C   0  0  0  0  0  0  0  0  0  0  0  0
   34.7530   30.0820   45.7720 C   0  0  0  0  0  0  0  0  0  0  0  0
   35.7530   30.5130   44.9430 C   0  0  0  0  0  0  0  0  0  0  0  0
   35.4580   30.6160   43.7080 O   0  0  0  0  0  0  0  0  0  0  0  0
   37.0210   30.8410   45.2950 N   0  0  0  0  0  0  0  0  0  0  0  0
   37.2650   30.7080   46.6200 C   0  0  0  0  0  0  0  0  0  0  0  0
   38.4110   30.9900   47.0140 O   0  0  0  0  0  0  0  0  0  0  0  0
   34.3780   29.6510   47.8260 H   0  0  0  0  0  0  0  0  0  0  0  0
   33.7760   29.8450   45.4000 H   0  0  0  0  0  0  0  0  0  0  0  0
   37.9420   31.2750   44.3440 C   0  0  0  0  0  0  0  0  0  0  0  0
   38.3250   32.5830   44.0910 C   0  0  0  0  0  0  0  0  0  0  0  0
   39.2360   32.9400   43.1420 C   0  0  0  0  0  0  0  0  0  0  0  0
   39.8230   31.9390   42.3750 C   0  0  0  0  0  0  0  0  0  0  0  0
   39.4330   30.6450   42.6380 C   0  0  0  0  0  0  0  0  0  0  0  0
   38.5210   30.3130   43.5910 N   0  0  0  0  0  0  0  0  0  0  0  0
   37.8090   33.3000   44.7440 H   0  0  0  0  0  0  0  0  0  0  0  0
   39.4530   33.9960   43.0370 H   0  0  0  0  0  0  0  0  0  0  0  0
   40.5280   32.2420   41.6430 H   0  0  0  0  0  0  0  0  0  0  0  0
   40.0120   29.5950   41.8730 N   0  0  0  0  0  0  0  0  0  0  0  0
   39.2170   28.7020   41.0520 C   0  0  0  0  0  0  0  0  0  0  0  0
   39.9750   27.3860   40.9220 C   0  0  0  0  0  0  0  0  0  0  0  0
   41.1200   27.5590   40.1800 O   0  0  0  0  0  0  0  0  0  0  0  0
   41.8460   28.6670   40.5310 C   0  0  0  0  0  0  0  0  0  0  0  0
   41.4340   29.3080   41.8320 C   0  0  0  0  0  0  0  0  0  0  0  0
   36.8670   31.3980   49.5310 C   0  0  0  0  0  0  0  0  0  0  0  0
   36.6660   30.1770   48.8760 C   0  0  0  0  0  0  0  0  0  0  0  0
   36.7890   29.0030   49.6100 C   0  0  0  0  0  0  0  0  0  0  0  0
   37.0990   29.0700   50.9250 N   0  0  0  0  0  0  0  0  0  0  0  0
   37.2910   30.2710   51.5440 C   0  0  0  0  0  0  0  0  0  0  0  0
   37.1730   31.4340   50.8320 N   0  0  0  0  0  0  0  0  0  0  0  0
   36.8260   32.4360   49.2420 H   0  0  0  0  0  0  0  0  0  0  0  0
   36.6200   28.0990   49.0430 H   0  0  0  0  0  0  0  0  0  0  0  0
   37.5270   30.1150   52.5770 H   0  0  0  0  0  0  0  0  0  0  0  0
  1 27  1  0  0  0  0
  2  1  1  0  0  0  0
  2  9  1  0  0  0  0
  3  2  2  0  0  0  0
  4  6  1  0  0  0  0
  4  3  1  0  0  0  0
  5  4  2  0  0  0  0
  6  7  1  0  0  0  0
  7  8  2  0  0  0  0
  7  1  1  0  0  0  0
 10  3  1  0  0  0  0
 11  6  1  0  0  0  0
 12 11  1  0  0  0  0
 12 17  1  0  0  0  0
 13 12  2  0  0  0  0
 14 15  2  0  0  0  0
 14 13  1  0  0  0  0
 15 16  1  0  0  0  0
 16 11  2  0  0  0  0
 18 13  1  0  0  0  0
 19 14  1  0  0  0  0
 20 15  1  0  0  0  0
 21 20  1  0  0  0  0
 22 21  1  0  0  0  0
 23 24  1  0  0  0  0
 23 22  1  0  0  0  0
 24 25  1  0  0  0  0
 25 20  1  0  0  0  0
 26 31  1  0  0  0  0
 27 26  2  0  0  0  0
 27 28  1  0  0  0  0
 28 29  2  0  0  0  0
 29 30  1  0  0  0  0
 30 34  1  0  0  0  0
 31 30  2  0  0  0  0
 32 26  1  0  0  0  0
 33 28  1  0  0  0  0
M  END
>  <minimizedAffinity>
-5.90394831

>  <minimizedRMSD>
0.676255345

$$$$
