
 OpenBabel03252513593D

 25 26  0  0  1  0  0  0  0  0999 V2000
   35.3440   29.4470   49.0750 C   0  0  2  0  0  0  0  0  0  0  0  0
   34.2490   29.4520   50.0570 C   0  0  0  0  0  0  0  0  0  0  0  0
   34.5630   28.1700   49.4450 C   0  0  1  0  0  0  0  0  0  0  0  0
   35.2400   29.7620   48.0360 H   0  0  0  0  0  0  0  0  0  0  0  0
   33.3220   29.9950   49.7590 H   0  0  0  0  0  0  0  0  0  0  0  0
   34.4760   29.6020   51.1350 H   0  0  0  0  0  0  0  0  0  0  0  0
   35.2200   27.3780   49.8150 H   0  0  0  0  0  0  0  0  0  0  0  0
   36.7720   29.4060   49.6220 C   0  0  0  0  0  0  0  0  0  0  0  0
   37.2510   28.4480   49.3030 H   0  0  0  0  0  0  0  0  0  0  0  0
   36.7120   29.4170   50.7190 H   0  0  0  0  0  0  0  0  0  0  0  0
   38.1140   32.8110   49.4400 C   0  0  0  0  0  0  0  0  0  0  0  0
   38.7730   32.8210   48.2020 C   0  0  0  0  0  0  0  0  0  0  0  0
   38.7480   31.6420   47.4380 C   0  0  0  0  0  0  0  0  0  0  0  0
   38.0820   30.5500   47.9450 N   0  0  0  0  0  0  0  0  0  0  0  0
   37.4690   30.5950   49.1300 C   0  0  0  0  0  0  0  0  0  0  0  0
   37.4920   31.7300   49.8690 N   0  0  0  0  0  0  0  0  0  0  0  0
   38.0750   33.6630   50.1010 H   0  0  0  0  0  0  0  0  0  0  0  0
   39.2740   33.7310   47.8840 H   0  0  0  0  0  0  0  0  0  0  0  0
   39.2470   31.6400   46.4960 H   0  0  0  0  0  0  0  0  0  0  0  0
   33.5540   27.6700   48.4500 C   0  0  0  0  0  0  0  0  0  0  0  0
   33.9990   26.7450   47.6580 O   0  0  0  0  0  0  0  0  0  0  0  0
   32.2430   28.0980   48.3310 O   0  0  0  0  0  0  0  0  0  0  0  0
   31.1610   27.2330   48.6030 C   0  0  0  0  0  2  0  0  0  0  0  0
   30.2610   27.8330   49.6800 C   0  0  0  0  0  2  0  0  0  0  0  0
   29.6790   26.9920   50.1120 H   0  0  0  0  0  0  0  0  0  0  0  0
  1  4  1  6  0  0  0
  1  3  1  0  0  0  0
  1  8  1  0  0  0  0
  1  2  1  0  0  0  0
  2  6  1  0  0  0  0
  3  7  1  1  0  0  0
  3  2  1  0  0  0  0
  5  2  1  0  0  0  0
  8 10  1  0  0  0  0
  9  8  1  0  0  0  0
 11 16  1  0  0  0  0
 11 17  1  0  0  0  0
 12 11  2  0  0  0  0
 13 14  2  0  0  0  0
 13 12  1  0  0  0  0
 14 15  1  0  0  0  0
 15  8  1  0  0  0  0
 15 16  2  0  0  0  0
 18 12  1  0  0  0  0
 19 13  1  0  0  0  0
 20  3  1  0  0  0  0
 21 20  2  0  0  0  0
 22 20  1  0  0  0  0
 22 23  1  0  0  0  0
 23 24  1  0  0  0  0
 24 25  1  0  0  0  0
M  END
>  <minimizedAffinity>
-4.68972349

>  <minimizedRMSD>
0.684757054

$$$$
