
     RDKit          3D

 43 46  0  0  0  0  0  0  0  0999 V2000
   35.2960   29.4109   48.9844 C   0  0  2  0  0  0  0  0  0  0  0  0
   34.1887   29.3622   49.9339 C   0  0  0  0  0  0  0  0  0  0  0  0
   34.5302   28.0970   49.3502 C   0  0  1  0  0  0  0  0  0  0  0  0
   36.7105   29.3885   49.5908 C   0  0  0  0  0  0  0  0  0  0  0  0
   38.0779   32.7719   49.4400 C   0  0  0  0  0  0  0  0  0  0  0  0
   38.7528   32.7775   48.2037 C   0  0  0  0  0  0  0  0  0  0  0  0
   38.7229   31.5925   47.4328 C   0  0  0  0  0  0  0  0  0  0  0  0
   38.0411   30.5094   47.9307 N   0  0  0  0  0  0  0  0  0  0  0  0
   37.4174   30.5659   49.1160 C   0  0  0  0  0  0  0  0  0  0  0  0
   37.4417   31.6996   49.8616 N   0  0  0  0  0  0  0  0  0  0  0  0
   33.5645   27.5864   48.2986 C   0  0  0  0  0  0  0  0  0  0  0  0
   33.9076   26.4403   47.8066 O   0  0  0  0  0  0  0  0  0  0  0  0
   32.4039   28.2187   47.8568 O   0  0  0  0  0  0  0  0  0  0  0  0
   31.1443   27.8272   48.2233 C   0  0  0  0  0  0  0  0  0  0  0  0
   30.6270   27.8079   49.6134 C   0  0  0  0  0  0  0  0  0  0  0  0
   29.3571   27.3954   49.8094 C   0  0  0  0  0  0  0  0  0  0  0  0
   28.5390   26.9948   48.7380 C   0  0  0  0  0  0  0  0  0  0  0  0
   29.6372   27.2010   47.2608 S   0  0  0  0  0  0  0  0  0  0  0  0
   35.2139   29.7073   47.9385 H   0  0  0  0  0  0  0  0  0  0  0  0
   34.4310   29.5348   51.0245 H   0  0  0  0  0  0  0  0  0  0  0  0
   33.2228   29.8729   49.6826 H   0  0  0  0  0  0  0  0  0  0  0  0
   35.1848   27.3205   49.7465 H   0  0  0  0  0  0  0  0  0  0  0  0
   37.2045   28.4668   49.2616 H   0  0  0  0  0  0  0  0  0  0  0  0
   36.6401   29.3516   50.6973 H   0  0  0  0  0  0  0  0  0  0  0  0
   38.1598   33.7238   49.9530 H   0  0  0  0  0  0  0  0  0  0  0  0
   39.3109   33.5627   47.7255 H   0  0  0  0  0  0  0  0  0  0  0  0
   39.1974   31.4703   46.4758 H   0  0  0  0  0  0  0  0  0  0  0  0
   31.3053   28.1274   50.3826 H   0  0  0  0  0  0  0  0  0  0  0  0
   28.9138   27.3542   50.7890 H   0  0  0  0  0  0  0  0  0  0  0  0
   27.2972   26.5607   48.6434 N   0  0  0  0  0  0  0  0  0  0  0  0
   26.9006   25.3476   49.3294 C   0  0  0  0  0  0  0  0  0  0  0  0
   25.9127   25.8097   50.3980 C   0  0  0  0  0  0  0  0  0  0  0  0
   25.1747   26.8822   49.9642 O   0  0  0  0  0  0  0  0  0  0  0  0
   24.9650   26.9576   48.6081 C   0  0  0  0  0  0  0  0  0  0  0  0
   26.2785   27.2454   47.8724 C   0  0  0  0  0  0  0  0  0  0  0  0
   27.7292   24.8034   49.7938 H   0  0  0  0  0  0  0  0  0  0  0  0
   26.4163   24.6216   48.6350 H   0  0  0  0  0  0  0  0  0  0  0  0
   26.5510   26.1656   51.2512 H   0  0  0  0  0  0  0  0  0  0  0  0
   25.3087   24.9757   50.7963 H   0  0  0  0  0  0  0  0  0  0  0  0
   24.3104   27.8278   48.4235 H   0  0  0  0  0  0  0  0  0  0  0  0
   24.4484   26.0657   48.1982 H   0  0  0  0  0  0  0  0  0  0  0  0
   26.4566   28.3319   47.9229 H   0  0  0  0  0  0  0  0  0  0  0  0
   26.1816   26.8532   46.8460 H   0  0  0  0  0  0  0  0  0  0  0  0
  1  3  1  0
  1  4  1  0
  1  2  1  0
  3  2  1  0
  5 10  2  0
  6  5  1  0
  7  8  1  0
  7  6  2  0
  8  9  2  0
  9  4  1  0
  9 10  1  0
 11  3  1  0
 12 11  2  0
 13 14  1  0
 13 11  1  0
 14 15  2  0
 15 16  1  0
 17 16  2  0
 18 14  1  0
 18 17  1  0
  1 19  1  6
  2 20  1  0
  2 21  1  0
  3 22  1  1
  4 23  1  0
  4 24  1  0
  5 25  1  0
  6 26  1  0
  7 27  1  0
 15 28  1  0
 16 29  1  0
 30 31  1  0
 31 32  1  0
 32 33  1  0
 33 34  1  0
 34 35  1  0
 35 30  1  0
 31 36  1  0
 31 37  1  0
 32 38  1  0
 32 39  1  0
 34 40  1  0
 34 41  1  0
 35 42  1  0
 35 43  1  0
 17 30  1  0
M  ISO  8  19  13  20  13  21  13  22  13  23   8  24   8  25  14  26  14
M  ISO  3  27  14  28  14  29  14
M  END
>  <DihAtoms>  (1) 
15,16,29,30

>  <DihDeg>  (1) 
-0.04522501210523653

$$$$
