
 OpenBabel03252511513D

 26 29  0  0  0  0  0  0  0  0999 V2000
   37.8140   30.8810   47.5550 N   0  0  0  0  0  0  0  0  0  0  0  0
   38.9340   31.5010   47.1770 C   0  0  0  0  0  0  0  0  0  0  0  0
   38.9270   31.7530   45.8680 N   0  0  0  0  0  0  0  0  0  0  0  0
   37.7790   31.2900   45.3690 C   0  0  0  0  0  0  0  0  0  0  0  0
   37.1970   31.2450   44.1370 C   0  0  0  0  0  0  0  0  0  0  0  0
   35.9830   30.7030   43.8830 N   0  0  0  0  0  0  0  0  0  0  0  0
   35.3420   30.1820   44.9530 C   0  0  0  0  0  0  0  0  0  0  0  0
   35.8990   30.2180   46.1660 N   0  0  0  0  0  0  0  0  0  0  0  0
   37.0950   30.7470   46.4460 C   0  0  0  0  0  0  0  0  0  0  0  0
   39.7580   31.7800   47.8060 H   0  0  0  0  0  0  0  0  0  0  0  0
   34.3610   29.7150   44.8990 H   0  0  0  0  0  0  0  0  0  0  0  0
   37.8540   31.7880   42.9990 N   0  0  0  0  0  0  0  0  0  0  0  0
   37.7130   31.3140   41.6500 C   0  0  0  0  0  0  0  0  0  0  0  0
   37.3130   32.3630   40.6620 C   0  0  0  0  0  0  0  0  0  0  0  0
   37.6380   33.6340   41.1140 O   0  0  0  0  0  0  0  0  0  0  0  0
   38.9320   33.5460   41.6770 C   0  0  0  0  0  0  0  0  0  0  0  0
   38.7680   32.9080   43.0420 C   0  0  0  0  0  0  0  0  0  0  0  0
   36.5080   29.4940   49.0700 C   0  0  0  0  0  0  0  0  0  0  0  0
   37.5000   30.4730   48.8660 C   0  0  0  0  0  0  0  0  0  0  0  0
   38.1340   31.0030   49.9730 C   0  0  0  0  0  0  0  0  0  0  0  0
   37.7550   30.5360   51.2070 N   0  0  0  0  0  0  0  0  0  0  0  0
   36.8110   29.6060   51.3680 C   0  0  0  0  0  0  0  0  0  0  0  0
   36.1790   29.0770   50.3030 N   0  0  0  0  0  0  0  0  0  0  0  0
   36.0030   29.0710   48.2150 H   0  0  0  0  0  0  0  0  0  0  0  0
   38.8820   31.7400   49.8130 H   0  0  0  0  0  0  0  0  0  0  0  0
   36.5610   29.2850   52.3770 H   0  0  0  0  0  0  0  0  0  0  0  0
  1 19  1  0  0  0  0
  2  1  1  0  0  0  0
  2 10  1  0  0  0  0
  3  2  2  0  0  0  0
  4  3  1  0  0  0  0
  4  9  1  0  0  0  0
  5  4  2  0  0  0  0
  6  5  1  0  0  0  0
  6  7  2  0  0  0  0
  7  8  1  0  0  0  0
  8  9  2  0  0  0  0
  9  1  1  0  0  0  0
 11  7  1  0  0  0  0
 12 17  1  0  0  0  0
 12  5  1  0  0  0  0
 13 12  1  0  0  0  0
 14 15  1  0  0  0  0
 14 13  1  0  0  0  0
 15 16  1  0  0  0  0
 16 17  1  0  0  0  0
 18 23  1  0  0  0  0
 19 18  2  0  0  0  0
 19 20  1  0  0  0  0
 20 21  2  0  0  0  0
 21 22  1  0  0  0  0
 22 26  1  0  0  0  0
 23 22  2  0  0  0  0
 24 18  1  0  0  0  0
 25 20  1  0  0  0  0
M  END
>  <minimizedAffinity>
-5.2804842

>  <minimizedRMSD>
3.42748237

$$$$
