
 OpenBabel03252514073D

 40 43  0  0  0  0  0  0  0  0999 V2000
   34.6570   29.9850   47.3890 C   0  0  0  0  0  0  0  0  0  0  0  0
   35.5130   29.8960   48.4850 C   0  0  0  0  0  0  0  0  0  0  0  0
   35.4100   28.7320   49.2370 C   0  0  0  0  0  0  0  0  0  0  0  0
   34.5310   27.7680   48.9030 N   0  0  0  0  0  0  0  0  0  0  0  0
   33.7190   27.8840   47.8410 C   0  0  0  0  0  0  0  0  0  0  0  0
   33.7850   28.9950   47.0850 N   0  0  0  0  0  0  0  0  0  0  0  0
   34.7080   30.8880   46.7700 H   0  0  0  0  0  0  0  0  0  0  0  0
   36.0690   28.6340   50.1060 H   0  0  0  0  0  0  0  0  0  0  0  0
   36.4010   30.9640   48.7410 N   0  0  0  0  0  0  0  0  0  0  0  0
   36.3760   31.7190   49.8620 C   0  0  0  0  0  0  0  0  0  0  0  0
   37.3560   32.6500   49.7910 N   0  0  0  0  0  0  0  0  0  0  0  0
   37.9890   32.4610   48.6110 C   0  0  0  0  0  0  0  0  0  0  0  0
   39.0510   33.0780   47.9690 C   0  0  0  0  0  0  0  0  0  0  0  0
   39.4750   32.6760   46.7780 N   0  0  0  0  0  0  0  0  0  0  0  0
   38.8950   31.6360   46.1200 C   0  0  0  0  0  0  0  0  0  0  0  0
   37.8590   31.0370   46.7510 N   0  0  0  0  0  0  0  0  0  0  0  0
   37.4010   31.4080   47.9440 C   0  0  0  0  0  0  0  0  0  0  0  0
   35.7250   31.6590   50.7040 H   0  0  0  0  0  0  0  0  0  0  0  0
   39.2580   31.3120   45.1380 H   0  0  0  0  0  0  0  0  0  0  0  0
   39.6860   34.1620   48.5950 N   0  0  0  0  0  0  0  0  0  0  0  0
   40.6020   34.5610   48.2840 H   0  0  0  0  0  0  0  0  0  0  0  0
   39.4040   34.7380   49.4200 H   0  0  0  0  0  0  0  0  0  0  0  0
   32.7320   26.8480   47.4070 C   0  0  0  0  0  0  0  0  0  0  0  0
   31.5840   26.8380   48.4500 C   0  0  0  0  0  0  0  0  0  0  0  0
   31.9210   27.3220   49.3760 H   0  0  0  0  0  0  0  0  0  0  0  0
   31.3410   25.7820   48.6330 H   0  0  0  0  0  0  0  0  0  0  0  0
   30.6970   27.3650   48.0940 H   0  0  0  0  0  0  0  0  0  0  0  0
   32.0750   27.1970   46.1100 C   0  0  0  0  0  0  0  0  0  0  0  0
   32.6770   27.0960   45.2120 H   0  0  0  0  0  0  0  0  0  0  0  0
   31.8860   28.3250   46.1880 H   0  0  0  0  0  0  0  0  0  0  0  0
   31.0490   26.7740   46.0760 H   0  0  0  0  0  0  0  0  0  0  0  0
   33.3550   25.4970   47.3360 C   0  0  0  0  0  0  0  0  0  0  0  0
   33.7050   25.2730   48.3850 H   0  0  0  0  0  0  0  0  0  0  0  0
   34.3360   25.6510   46.7870 H   0  0  0  0  0  0  0  0  0  0  0  0
   32.5560   24.4440   46.8070 N   0  0  0  0  0  0  0  0  0  0  0  0
   32.7300   23.2880   47.7260 C   0  0  0  0  0  2  0  0  0  0  0  0
   34.1620   23.1010   48.0390 C   0  0  0  0  0  2  0  0  0  0  0  0
   35.0310   23.1220   46.9890 O   0  0  0  0  0  0  0  0  0  0  0  0
   34.5890   23.5380   45.7790 C   0  0  0  0  0  2  0  0  0  0  0  0
   33.1600   23.8500   45.5920 C   0  0  0  0  0  2  0  0  0  0  0  0
  1  2  1  0  0  0  0
  2  9  1  0  0  0  0
  2  3  2  0  0  0  0
  3  8  1  0  0  0  0
  4  3  1  0  0  0  0
  5  4  2  0  0  0  0
  6  1  2  0  0  0  0
  6  5  1  0  0  0  0
  7  1  1  0  0  0  0
  9 10  1  0  0  0  0
 10 18  1  0  0  0  0
 11 10  2  0  0  0  0
 12 11  1  0  0  0  0
 13 20  1  0  0  0  0
 13 12  1  0  0  0  0
 14 13  2  0  0  0  0
 15 16  2  0  0  0  0
 15 14  1  0  0  0  0
 16 17  1  0  0  0  0
 17 12  2  0  0  0  0
 17  9  1  0  0  0  0
 19 15  1  0  0  0  0
 20 22  1  0  0  0  0
 21 20  1  0  0  0  0
 23  5  1  0  0  0  0
 23 24  1  0  0  0  0
 24 26  1  0  0  0  0
 24 25  1  0  0  0  0
 27 24  1  0  0  0  0
 28 30  1  0  0  0  0
 28 23  1  0  0  0  0
 29 28  1  0  0  0  0
 31 28  1  0  0  0  0
 32 23  1  0  0  0  0
 32 33  1  0  0  0  0
 34 32  1  0  0  0  0
 35 32  1  0  0  0  0
 35 36  1  0  0  0  0
 36 37  1  0  0  0  0
 38 37  1  0  0  0  0
 39 38  1  0  0  0  0
 40 39  1  0  0  0  0
 40 35  1  0  0  0  0
M  END
>  <minimizedAffinity>
-5.39730883

>  <minimizedRMSD>
0.358498991

$$$$
