
 OpenBabel03252513493D

 24 25  0  0  0  0  0  0  0  0999 V2000
   33.6910   28.2510   48.2450 C   0  0  0  0  0  0  0  0  0  0  0  0
   34.5530   28.8110   49.2500 C   0  0  0  0  0  0  0  0  0  0  0  0
   35.5040   29.7530   48.8630 C   0  0  0  0  0  0  0  0  0  0  0  0
   35.5540   30.0860   47.5420 N   0  0  0  0  0  0  0  0  0  0  0  0
   34.7370   29.5480   46.6230 C   0  0  0  0  0  0  0  0  0  0  0  0
   33.8270   28.6520   46.9690 N   0  0  0  0  0  0  0  0  0  0  0  0
   34.4480   28.4940   50.2720 H   0  0  0  0  0  0  0  0  0  0  0  0
   34.9370   30.0290   45.2410 C   0  0  0  0  0  0  0  0  0  0  0  0
   36.1060   30.7810   45.1540 F   0  0  0  0  0  0  0  0  0  0  0  0
   35.1280   28.9490   44.3990 F   0  0  0  0  0  0  0  0  0  0  0  0
   33.8520   30.7310   44.7490 F   0  0  0  0  0  0  0  0  0  0  0  0
   36.3970   30.3450   49.8430 C   0  0  0  0  0  0  0  0  0  0  0  0
   36.4430   29.8780   51.0000 O   0  0  0  0  0  0  0  0  0  0  0  0
   37.2320   31.4810   49.4690 C   0  0  0  0  0  0  0  0  0  0  0  0
   38.3580   31.4630   48.6740 C   0  0  0  0  0  0  0  0  0  0  0  0
   38.8860   32.7420   48.5440 C   0  0  0  0  0  0  0  0  0  0  0  0
   38.0060   33.4850   49.3020 C   0  0  0  0  0  0  0  0  0  0  0  0
   38.0760   34.5730   49.4560 H   0  0  0  0  0  0  0  0  0  0  0  0
   37.0670   32.7310   49.8200 O   0  0  0  0  0  0  0  0  0  0  0  0
   32.7600   27.3250   48.6390 O   0  0  0  0  0  0  0  0  0  0  0  0
   31.4070   27.5820   48.8110 C   0  0  0  0  0  0  0  0  0  0  0  0
   31.1040   28.2330   50.0040 F   0  0  0  0  0  0  0  0  0  0  0  0
   30.8230   28.2540   47.7690 F   0  0  0  0  0  0  0  0  0  0  0  0
   30.8040   26.3150   48.8820 F   0  0  0  0  0  0  0  0  0  0  0  0
  1 20  1  0  0  0  0
  1  2  1  0  0  0  0
  2  7  1  0  0  0  0
  3  2  2  0  0  0  0
  3 12  1  0  0  0  0
  4  3  1  0  0  0  0
  5  6  1  0  0  0  0
  5  4  2  0  0  0  0
  6  1  2  0  0  0  0
  8  5  1  0  0  0  0
  9  8  1  0  0  0  0
 10  8  1  0  0  0  0
 11  8  1  0  0  0  0
 12 13  2  0  0  0  0
 14 19  1  0  0  0  0
 14 12  1  0  0  0  0
 15 14  2  0  0  0  0
 16 15  1  0  0  0  0
 16 17  2  0  0  0  0
 17 18  1  0  0  0  0
 17 19  1  0  0  0  0
 20 21  1  0  0  0  0
 21 24  1  0  0  0  0
 21 22  1  0  0  0  0
 23 21  1  0  0  0  0
M  END
>  <minimizedAffinity>
-5.37623167

>  <minimizedRMSD>
4.44789076

$$$$
