
 OpenBabel03252511323D

 28 30  0  0  0  0  0  0  0  0999 V2000
   36.6310   30.6340   46.5480 C   0  0  0  0  0  0  0  0  0  0  0  0
   35.3360   30.1100   46.4310 C   0  0  0  0  0  0  0  0  0  0  0  0
   34.7780   29.8040   45.2050 C   0  0  0  0  0  0  0  0  0  0  0  0
   35.4770   30.0050   44.0580 C   0  0  0  0  0  0  0  0  0  0  0  0
   36.7540   30.5200   44.1560 C   0  0  0  0  0  0  0  0  0  0  0  0
   37.3280   30.8320   45.3860 C   0  0  0  0  0  0  0  0  0  0  0  0
   34.7440   29.9350   47.3190 H   0  0  0  0  0  0  0  0  0  0  0  0
   33.7580   29.3980   45.1970 H   0  0  0  0  0  0  0  0  0  0  0  0
   35.0360   29.7630   43.0920 H   0  0  0  0  0  0  0  0  0  0  0  0
   37.2910   30.6710   43.2320 H   0  0  0  0  0  0  0  0  0  0  0  0
   37.4400   30.3490   50.0930 C   0  0  0  0  0  0  0  0  0  0  0  0
   38.1730   31.5130   50.3400 C   0  0  0  0  0  0  0  0  0  0  0  0
   38.3870   32.3980   49.2730 C   0  0  0  0  0  0  0  0  0  0  0  0
   37.8710   32.0710   48.0730 N   0  0  0  0  0  0  0  0  0  0  0  0
   37.1650   30.9370   47.8590 C   0  0  0  0  0  0  0  0  0  0  0  0
   36.9670   30.0990   48.8860 N   0  0  0  0  0  0  0  0  0  0  0  0
   38.5880   31.7780   51.3020 H   0  0  0  0  0  0  0  0  0  0  0  0
   38.9490   33.3240   49.3920 H   0  0  0  0  0  0  0  0  0  0  0  0
   37.2170   29.4100   51.2470 C   0  0  0  0  0  0  0  0  0  0  0  0
   35.8490   29.1770   51.3720 F   0  0  0  0  0  0  0  0  0  0  0  0
   37.9360   28.2880   51.0270 F   0  0  0  0  0  0  0  0  0  0  0  0
   37.6350   30.0640   52.4060 F   0  0  0  0  0  0  0  0  0  0  0  0
   38.6500   31.3530   45.3840 N   0  0  0  0  0  0  0  0  0  0  0  0
   40.0250   30.9190   45.6740 C   0  0  0  0  0  0  0  0  0  0  0  0
   40.6530   31.1990   44.3090 C   0  0  0  0  0  0  0  0  0  0  0  0
   39.9270   32.4530   43.8410 C   0  0  0  0  0  0  0  0  0  0  0  0
   38.9620   32.7390   45.0010 C   0  0  0  0  0  0  0  0  0  0  0  0
   38.0740   33.2760   44.6730 H   0  0  0  0  0  0  0  0  0  0  0  0
  1 15  1  0  0  0  0
  2  1  1  0  0  0  0
  2  7  1  0  0  0  0
  3  2  2  0  0  0  0
  4  5  2  0  0  0  0
  4  3  1  0  0  0  0
  5  6  1  0  0  0  0
  6  1  2  0  0  0  0
  8  3  1  0  0  0  0
  9  4  1  0  0  0  0
 10  5  1  0  0  0  0
 11 12  1  0  0  0  0
 11 19  1  0  0  0  0
 12 17  1  0  0  0  0
 13 18  1  0  0  0  0
 13 12  2  0  0  0  0
 14 13  1  0  0  0  0
 15 14  2  0  0  0  0
 15 16  1  0  0  0  0
 16 11  2  0  0  0  0
 19 20  1  0  0  0  0
 19 22  1  0  0  0  0
 21 19  1  0  0  0  0
 23  6  1  0  0  0  0
 23 24  1  0  0  0  0
 25 24  1  0  0  0  0
 26 25  1  0  0  0  0
 26 27  1  0  0  0  0
 27 23  1  0  0  0  0
 28 27  1  0  0  0  0
M  END
>  <minimizedAffinity>
-6.49232626

>  <minimizedRMSD>
1.02998555

$$$$
