
 OpenBabel03252514073D

 40 43  0  0  0  0  0  0  0  0999 V2000
   34.2070   30.0720   47.5740 C   0  0  0  0  0  0  0  0  0  0  0  0
   35.2220   29.8120   48.5220 C   0  0  0  0  0  0  0  0  0  0  0  0
   35.1800   28.5800   49.1840 C   0  0  0  0  0  0  0  0  0  0  0  0
   34.1800   27.7180   48.8800 N   0  0  0  0  0  0  0  0  0  0  0  0
   33.2240   27.9960   47.9680 C   0  0  0  0  0  0  0  0  0  0  0  0
   33.2380   29.1660   47.3190 N   0  0  0  0  0  0  0  0  0  0  0  0
   34.2170   31.0060   47.0570 H   0  0  0  0  0  0  0  0  0  0  0  0
   35.9630   28.4210   49.8900 H   0  0  0  0  0  0  0  0  0  0  0  0
   36.2090   30.8150   48.7280 N   0  0  0  0  0  0  0  0  0  0  0  0
   36.3850   31.4790   49.8930 C   0  0  0  0  0  0  0  0  0  0  0  0
   37.4040   32.3590   49.7380 N   0  0  0  0  0  0  0  0  0  0  0  0
   37.8440   32.2250   48.4740 C   0  0  0  0  0  0  0  0  0  0  0  0
   38.8420   32.8440   47.7560 C   0  0  0  0  0  0  0  0  0  0  0  0
   39.0860   32.5160   46.4700 N   0  0  0  0  0  0  0  0  0  0  0  0
   38.3550   31.5610   45.8280 C   0  0  0  0  0  0  0  0  0  0  0  0
   37.3840   30.9680   46.5460 N   0  0  0  0  0  0  0  0  0  0  0  0
   37.1060   31.2630   47.8310 C   0  0  0  0  0  0  0  0  0  0  0  0
   35.8670   31.4070   50.8430 H   0  0  0  0  0  0  0  0  0  0  0  0
   38.5760   31.3230   44.7970 H   0  0  0  0  0  0  0  0  0  0  0  0
   39.6360   33.8420   48.3600 N   0  0  0  0  0  0  0  0  0  0  0  0
   39.7390   34.0000   49.3750 H   0  0  0  0  0  0  0  0  0  0  0  0
   40.2090   34.5310   47.8110 H   0  0  0  0  0  0  0  0  0  0  0  0
   32.1610   27.0100   47.6740 C   0  0  0  0  0  0  0  0  0  0  0  0
   31.0160   27.1700   48.6770 C   0  0  0  0  0  0  0  0  0  0  0  0
   30.6890   26.1520   48.9740 H   0  0  0  0  0  0  0  0  0  0  0  0
   30.1550   27.7020   48.2720 H   0  0  0  0  0  0  0  0  0  0  0  0
   31.3850   27.6870   49.6050 H   0  0  0  0  0  0  0  0  0  0  0  0
   31.5130   27.3460   46.3170 C   0  0  0  0  0  0  0  0  0  0  0  0
   32.2840   27.3980   45.5300 H   0  0  0  0  0  0  0  0  0  0  0  0
   30.7920   26.5150   46.1450 H   0  0  0  0  0  0  0  0  0  0  0  0
   30.9400   28.2660   46.4760 H   0  0  0  0  0  0  0  0  0  0  0  0
   32.6030   25.6000   47.5720 C   0  0  0  0  0  0  0  0  0  0  0  0
   31.7170   24.9580   47.7900 H   0  0  0  0  0  0  0  0  0  0  0  0
   33.3790   25.3530   48.3540 H   0  0  0  0  0  0  0  0  0  0  0  0
   33.0870   25.2820   46.2700 N   0  0  0  0  0  0  0  0  0  0  0  0
   34.4840   25.1550   46.0820 C   0  0  0  0  0  2  0  0  0  0  0  0
   34.6570   24.4060   44.7410 C   0  0  0  0  0  2  0  0  0  0  0  0
   33.2710   23.9430   44.4040 C   0  0  0  0  0  2  0  0  0  0  0  0
   32.5140   24.0900   45.7120 C   0  0  0  0  0  3  0  0  0  0  0  0
   32.7250   23.1810   46.3090 H   0  0  0  0  0  0  0  0  0  0  0  0
  1  2  1  0  0  0  0
  2  9  1  0  0  0  0
  2  3  2  0  0  0  0
  3  8  1  0  0  0  0
  4  3  1  0  0  0  0
  5  4  2  0  0  0  0
  6  1  2  0  0  0  0
  6  5  1  0  0  0  0
  7  1  1  0  0  0  0
  9 10  1  0  0  0  0
 10 18  1  0  0  0  0
 11 10  2  0  0  0  0
 12 11  1  0  0  0  0
 13 20  1  0  0  0  0
 13 12  2  0  0  0  0
 14 13  1  0  0  0  0
 15 14  2  0  0  0  0
 15 16  1  0  0  0  0
 16 17  2  0  0  0  0
 17 12  1  0  0  0  0
 17  9  1  0  0  0  0
 19 15  1  0  0  0  0
 20 21  1  0  0  0  0
 22 20  1  0  0  0  0
 23  5  1  0  0  0  0
 23 24  1  0  0  0  0
 24 25  1  0  0  0  0
 24 27  1  0  0  0  0
 26 24  1  0  0  0  0
 28 31  1  0  0  0  0
 28 23  1  0  0  0  0
 29 28  1  0  0  0  0
 30 28  1  0  0  0  0
 32 23  1  0  0  0  0
 32 33  1  0  0  0  0
 32 34  1  0  0  0  0
 35 32  1  0  0  0  0
 36 35  1  0  0  0  0
 37 36  1  0  0  0  0
 38 37  1  0  0  0  0
 38 39  1  0  0  0  0
 39 35  1  0  0  0  0
 39 40  1  0  0  0  0
M  END
>  <minimizedAffinity>
-5.21456909

>  <minimizedRMSD>
1.07954538

$$$$
