
 OpenBabel03252512313D

 39 42  0  0  1  0  0  0  0  0999 V2000
   32.4770   27.8980   47.5470 C   0  0  2  0  0  0  0  0  0  0  0  0
   32.8110   26.8710   47.2220 H   0  0  0  0  0  0  0  0  0  0  0  0
   35.7480   30.1640   48.3780 C   0  0  0  0  0  0  0  0  0  0  0  0
   35.6550   29.0260   49.1820 C   0  0  0  0  0  0  0  0  0  0  0  0
   34.5660   28.2280   48.9590 C   0  0  0  0  0  0  0  0  0  0  0  0
   33.7050   28.5710   48.0320 C   0  0  0  0  0  0  0  0  0  0  0  0
   34.3050   30.1320   47.2950 S   0  0  0  0  0  0  0  0  0  0  0  0
   36.4390   28.8350   49.9320 H   0  0  0  0  0  0  0  0  0  0  0  0
   34.4060   27.3150   49.5390 H   0  0  0  0  0  0  0  0  0  0  0  0
   38.0750   32.7500   49.5810 C   0  0  0  0  0  0  0  0  0  0  0  0
   38.8880   32.9880   48.4740 C   0  0  0  0  0  0  0  0  0  0  0  0
   38.6270   32.2640   47.3230 C   0  0  0  0  0  0  0  0  0  0  0  0
   37.6030   31.3630   47.3210 N   0  0  0  0  0  0  0  0  0  0  0  0
   36.8570   31.1810   48.4230 C   0  0  0  0  0  0  0  0  0  0  0  0
   37.0410   31.8530   49.6080 N   0  0  0  0  0  0  0  0  0  0  0  0
   38.2600   33.3060   50.4930 H   0  0  0  0  0  0  0  0  0  0  0  0
   39.6710   33.7280   48.5910 H   0  0  0  0  0  0  0  0  0  0  0  0
   39.2530   32.4450   46.4620 H   0  0  0  0  0  0  0  0  0  0  0  0
   31.8860   28.6370   46.4560 C   0  0  0  0  0  0  0  0  0  0  0  0
   31.1440   29.4080   46.7330 H   0  0  0  0  0  0  0  0  0  0  0  0
   31.3570   27.9860   45.7040 H   0  0  0  0  0  0  0  0  0  0  0  0
   32.6840   29.1400   45.8610 H   0  0  0  0  0  0  0  0  0  0  0  0
   31.5820   27.6390   48.7520 C   0  0  0  0  0  0  0  0  0  0  0  0
   32.1850   27.5100   49.6730 H   0  0  0  0  0  0  0  0  0  0  0  0
   31.0410   28.6140   48.9060 H   0  0  0  0  0  0  0  0  0  0  0  0
   30.6640   26.6690   48.5370 O   0  0  0  0  0  0  0  0  0  0  0  0
   29.3520   26.9530   48.2080 C   0  0  0  0  0  0  0  0  0  0  0  0
   28.3850   26.5680   47.3210 C   0  0  0  0  0  0  0  0  0  0  0  0
   27.2680   27.3290   47.6050 C   0  0  0  0  0  0  0  0  0  0  0  0
   27.5940   28.1480   48.6530 C   0  0  0  0  0  0  0  0  0  0  0  0
   28.8360   27.8900   48.9760 O   0  0  0  0  0  0  0  0  0  0  0  0
   28.6660   25.7970   46.6200 H   0  0  0  0  0  0  0  0  0  0  0  0
   26.3720   27.1870   47.0170 H   0  0  0  0  0  0  0  0  0  0  0  0
   26.6820   29.0810   49.2250 N   0  0  0  0  0  0  0  0  0  0  0  0
   26.8820   30.5190   49.2390 C   0  0  0  0  0  0  0  0  0  0  0  0
   25.4940   30.9710   48.7750 C   0  0  0  0  0  0  0  0  0  0  0  0
   24.5430   29.8430   49.1150 C   0  0  0  0  0  0  0  0  0  0  0  0
   25.4110   28.8540   49.8930 C   0  0  0  0  0  0  0  0  0  0  0  0
   25.0490   27.8280   49.8330 H   0  0  0  0  0  0  0  0  0  0  0  0
  1  2  1  6  0  0  0
  1  6  1  0  0  0  0
  1 23  1  0  0  0  0
  3 14  1  0  0  0  0
  3  4  2  0  0  0  0
  4  8  1  0  0  0  0
  5  4  1  0  0  0  0
  5  9  1  0  0  0  0
  6  5  2  0  0  0  0
  7  6  1  0  0  0  0
  7  3  1  0  0  0  0
 10 15  1  0  0  0  0
 10 16  1  0  0  0  0
 11 17  1  0  0  0  0
 11 10  2  0  0  0  0
 12 11  1  0  0  0  0
 13 12  2  0  0  0  0
 13 14  1  0  0  0  0
 14 15  2  0  0  0  0
 18 12  1  0  0  0  0
 19 20  1  0  0  0  0
 19  1  1  0  0  0  0
 21 19  1  0  0  0  0
 22 19  1  0  0  0  0
 23 25  1  0  0  0  0
 23 24  1  0  0  0  0
 26 23  1  0  0  0  0
 27 26  1  0  0  0  0
 27 31  1  0  0  0  0
 28 29  1  0  0  0  0
 28 27  2  0  0  0  0
 29 30  2  0  0  0  0
 30 31  1  0  0  0  0
 30 34  1  0  0  0  0
 32 28  1  0  0  0  0
 33 29  1  0  0  0  0
 34 35  1  0  0  0  0
 34 38  1  0  0  0  0
 36 37  1  0  0  0  0
 36 35  1  0  0  0  0
 37 38  1  0  0  0  0
 39 38  1  0  0  0  0
M  END
>  <minimizedAffinity>
-6.58402443

>  <minimizedRMSD>
2.98545814

$$$$
