
 OpenBabel03252511233D

 31 34  0  0  0  0  0  0  0  0999 V2000
   35.6330   29.5010   49.2940 C   0  0  0  0  0  0  0  0  0  0  0  0
   35.6380   29.1420   50.6390 C   0  0  0  0  0  0  0  0  0  0  0  0
   36.5290   29.5990   51.5670 C   0  0  0  0  0  0  0  0  0  0  0  0
   37.5090   30.4780   51.1910 C   0  0  0  0  0  0  0  0  0  0  0  0
   37.5720   30.8770   49.8950 C   0  0  0  0  0  0  0  0  0  0  0  0
   38.5730   31.7600   49.5630 C   0  0  0  0  0  0  0  0  0  0  0  0
   38.7000   32.2090   48.2770 C   0  0  0  0  0  0  0  0  0  0  0  0
   37.7930   31.7430   47.3340 C   0  0  0  0  0  0  0  0  0  0  0  0
   36.8160   30.8650   47.7140 C   0  0  0  0  0  0  0  0  0  0  0  0
   36.6500   30.3900   48.9890 C   0  0  0  0  0  0  0  0  0  0  0  0
   34.8660   28.4380   50.9780 H   0  0  0  0  0  0  0  0  0  0  0  0
   36.4720   29.2760   52.5980 H   0  0  0  0  0  0  0  0  0  0  0  0
   38.2040   30.8290   51.9340 H   0  0  0  0  0  0  0  0  0  0  0  0
   39.2760   32.1170   50.3120 H   0  0  0  0  0  0  0  0  0  0  0  0
   39.4620   32.9010   47.9490 H   0  0  0  0  0  0  0  0  0  0  0  0
   37.8810   32.0890   46.3120 H   0  0  0  0  0  0  0  0  0  0  0  0
   36.1210   30.5240   46.9410 H   0  0  0  0  0  0  0  0  0  0  0  0
   33.6200   26.9890   47.7090 C   0  0  0  0  0  0  0  0  0  0  0  0
   32.9180   27.5970   46.6660 C   0  0  0  0  0  0  0  0  0  0  0  0
   33.1600   28.9570   46.5060 C   0  0  0  0  0  0  0  0  0  0  0  0
   34.0140   29.5540   47.3320 N   0  0  0  0  0  0  0  0  0  0  0  0
   34.6830   29.0120   48.3160 C   0  0  0  0  0  0  0  0  0  0  0  0
   34.4460   27.7070   48.4630 N   0  0  0  0  0  0  0  0  0  0  0  0
   33.4220   25.9270   47.8220 H   0  0  0  0  0  0  0  0  0  0  0  0
   32.2270   27.1400   45.9870 H   0  0  0  0  0  0  0  0  0  0  0  0
   32.5420   29.7560   45.4990 N   0  0  0  0  0  0  0  0  0  0  0  0
   31.4160   30.6700   45.6220 C   0  0  0  0  0  0  0  0  0  0  0  0
   31.6530   31.8170   44.6890 C   0  0  0  0  0  0  0  0  0  0  0  0
   32.8750   31.4000   43.8860 C   0  0  0  0  0  0  0  0  0  0  0  0
   32.8500   29.8870   44.0820 C   0  0  0  0  0  0  0  0  0  0  0  0
   33.8760   29.5260   43.9030 H   0  0  0  0  0  0  0  0  0  0  0  0
  1  2  1  0  0  0  0
  2 11  1  0  0  0  0
  2  3  2  0  0  0  0
  3 12  1  0  0  0  0
  4  3  1  0  0  0  0
  4 13  1  0  0  0  0
  5  4  2  0  0  0  0
  6  5  1  0  0  0  0
  6 14  1  0  0  0  0
  7  6  2  0  0  0  0
  8  9  2  0  0  0  0
  8  7  1  0  0  0  0
  9 10  1  0  0  0  0
 10  1  2  0  0  0  0
 10  5  1  0  0  0  0
 15  7  1  0  0  0  0
 16  8  1  0  0  0  0
 17  9  1  0  0  0  0
 18 24  1  0  0  0  0
 18 23  1  0  0  0  0
 19 18  2  0  0  0  0
 20 19  1  0  0  0  0
 20 21  2  0  0  0  0
 21 22  1  0  0  0  0
 22 23  2  0  0  0  0
 22  1  1  0  0  0  0
 25 19  1  0  0  0  0
 26 27  1  0  0  0  0
 26 20  1  0  0  0  0
 28 27  1  0  0  0  0
 29 30  1  0  0  0  0
 29 28  1  0  0  0  0
 30 26  1  0  0  0  0
 31 30  1  0  0  0  0
M  END
>  <minimizedAffinity>
-6.60790825

>  <minimizedRMSD>
0.381813139

$$$$
