
     RDKit          3D

 26 27  0  0  0  0  0  0  0  0999 V2000
   36.8947   29.4284   49.6473 C   0  0  0  0  0  0  0  0  0  0  0  0
   38.4342   32.7422   49.3880 C   0  0  0  0  0  0  0  0  0  0  0  0
   38.9379   32.7568   48.0792 C   0  0  0  0  0  0  0  0  0  0  0  0
   38.7389   31.6089   47.2927 C   0  0  0  0  0  0  0  0  0  0  0  0
   38.0623   30.5376   47.8507 N   0  0  0  0  0  0  0  0  0  0  0  0
   37.6083   30.5898   49.1053 C   0  0  0  0  0  0  0  0  0  0  0  0
   37.7981   31.6881   49.8593 N   0  0  0  0  0  0  0  0  0  0  0  0
   35.4350   29.5357   49.2058 C   0  0  2  0  0  0  0  0  0  0  0  0
   34.3979   29.4912   50.2471 C   0  0  0  0  0  0  0  0  0  0  0  0
   34.6429   28.2519   49.5285 C   0  0  1  0  0  0  0  0  0  0  0  0
   33.5755   27.8503   48.5507 C   0  0  0  0  0  0  0  0  0  0  0  0
   33.8858   26.8491   47.7897 O   0  0  0  0  0  0  0  0  0  0  0  0
   32.3315   28.4479   48.4226 O   0  0  0  0  0  0  0  0  0  0  0  0
   37.2919   28.5224   49.1479 H   0  0  0  0  0  0  0  0  0  0  0  0
   36.9744   29.3094   50.7306 H   0  0  0  0  0  0  0  0  0  0  0  0
   38.6458   33.6740   49.8942 H   0  0  0  0  0  0  0  0  0  0  0  0
   39.4750   33.5594   47.5817 H   0  0  0  0  0  0  0  0  0  0  0  0
   39.0625   31.4595   46.2706 H   0  0  0  0  0  0  0  0  0  0  0  0
   35.2944   29.8666   48.1837 H   0  0  0  0  0  0  0  0  0  0  0  0
   34.7807   29.6777   51.2840 H   0  0  0  0  0  0  0  0  0  0  0  0
   33.4960   30.1320   50.0386 H   0  0  0  0  0  0  0  0  0  0  0  0
   35.3071   27.4277   49.8103 H   0  0  0  0  0  0  0  0  0  0  0  0
   31.4460   27.9264   47.4502 C   0  0  0  0  0  0  0  0  0  0  0  0
   30.1268   28.1102   47.8599 F   0  0  0  0  0  0  0  0  0  0  0  0
   31.6205   28.5741   46.2250 F   0  0  0  0  0  0  0  0  0  0  0  0
   31.6862   26.5795   47.2075 F   0  0  0  0  0  0  0  0  0  0  0  0
  2  7  2  0
  3  2  1  0
  4  5  1  0
  4  3  2  0
  5  6  2  0
  6  1  1  0
  6  7  1  0
  8 10  1  0
  8  1  1  0
  8  9  1  0
 10  9  1  0
 11 10  1  0
 12 11  2  0
 13 11  1  0
  1 14  1  0
  1 15  1  0
  2 16  1  0
  3 17  1  0
  4 18  1  0
  8 19  1  6
  9 20  1  0
  9 21  1  0
 10 22  1  1
 23 24  1  0
 23 25  1  0
 23 26  1  0
 13 23  1  0
M  ISO  8  14   8  15   8  16  14  17  14  18  14  19  13  20  13  21  13
M  ISO  1  22  13
M  END
>  <DihAtoms>  (1) 
10,12,22,23

>  <DihDeg>  (1) 
179.99934408781024

$$$$
