REMARK  Name = 
REMARK  5 active torsions:
REMARK  status: ('A' for Active; 'I' for Inactive)
REMARK    1  A    between atoms: C_1  and  C_6
REMARK    2  A    between atoms: C_1  and  C_8
REMARK    3  A    between atoms: C_10  and  C_11
REMARK    4  A    between atoms: C_11  and  O_13
REMARK    5  A    between atoms: O_13  and  C_23
REMARK                            x       y       z     vdW  Elec       q    Type
REMARK                         _______ _______ _______ _____ _____    ______ ____
ROOT
ATOM      1  C   UNL     1      35.435  29.536  49.206  0.00  0.00    +0.000 C 
ATOM      2  C   UNL     1      34.398  29.491  50.247  0.00  0.00    +0.000 C 
ATOM      3  C   UNL     1      34.643  28.252  49.529  0.00  0.00    +0.000 C 
ATOM      4  H   UNL     1      35.294  29.867  48.184  0.00  0.00    +0.000 HD
ATOM      5  H   UNL     1      34.781  29.678  51.284  0.00  0.00    +0.000 HD
ATOM      6  H   UNL     1      33.496  30.132  50.039  0.00  0.00    +0.000 HD
ATOM      7  H   UNL     1      35.307  27.428  49.810  0.00  0.00    +0.000 HD
ENDROOT
BRANCH   1   8
ATOM      8  C   UNL     1      36.895  29.428  49.647  0.00  0.00    +0.000 C 
ATOM      9  H   UNL     1      37.292  28.522  49.148  0.00  0.00    +0.000 HD
ATOM     10  H   UNL     1      36.974  29.309  50.731  0.00  0.00    +0.000 HD
BRANCH   8  15
ATOM     11  C   UNL     1      38.434  32.742  49.388  0.00  0.00    +0.000 A 
ATOM     12  C   UNL     1      38.938  32.757  48.079  0.00  0.00    +0.000 A 
ATOM     13  C   UNL     1      38.739  31.609  47.293  0.00  0.00    +0.000 A 
ATOM     14  N   UNL     1      38.062  30.538  47.851  0.00  0.00    +0.000 NA
ATOM     15  C   UNL     1      37.608  30.590  49.105  0.00  0.00    +0.000 A 
ATOM     16  N   UNL     1      37.798  31.688  49.859  0.00  0.00    +0.000 NA
ATOM     17  H   UNL     1      38.646  33.674  49.894  0.00  0.00    +0.000 HD
ATOM     18  H   UNL     1      39.475  33.559  47.582  0.00  0.00    +0.000 HD
ATOM     19  H   UNL     1      39.062  31.459  46.271  0.00  0.00    +0.000 HD
ENDBRANCH   8  15
ENDBRANCH   1   8
BRANCH   3  20
ATOM     20  C   UNL     1      33.575  27.850  48.551  0.00  0.00    +0.000 C 
ATOM     21  O   UNL     1      33.886  26.849  47.790  0.00  0.00    +0.000 OA
BRANCH  20  22
ATOM     22  O   UNL     1      32.331  28.448  48.423  0.00  0.00    +0.000 OA
BRANCH  22  23
ATOM     23  C   UNL     1      31.446  27.926  47.450  0.00  0.00    +0.000 C 
ATOM     24  F   UNL     1      30.127  28.110  47.860  0.00  0.00    +0.000 F 
ATOM     25  F   UNL     1      31.620  28.574  46.225  0.00  0.00    +0.000 F 
ATOM     26  F   UNL     1      31.686  26.579  47.208  0.00  0.00    +0.000 F 
ENDBRANCH  22  23
ENDBRANCH  20  22
ENDBRANCH   3  20
TORSDOF 5
