
     RDKit          3D

 47 50  0  0  0  0  0  0  0  0999 V2000
   36.4097   30.9692   48.7572 N   0  0  0  0  0  0  0  0  0  0  0  0
   36.3842   31.7371   49.8699 C   0  0  0  0  0  0  0  0  0  0  0  0
   37.3666   32.6647   49.7765 N   0  0  0  0  0  0  0  0  0  0  0  0
   37.9882   32.4557   48.6009 C   0  0  0  0  0  0  0  0  0  0  0  0
   39.0439   33.0761   47.9727 C   0  0  0  0  0  0  0  0  0  0  0  0
   39.4838   32.6600   46.7668 N   0  0  0  0  0  0  0  0  0  0  0  0
   38.9022   31.6097   46.1209 C   0  0  0  0  0  0  0  0  0  0  0  0
   37.8722   31.0169   46.7510 N   0  0  0  0  0  0  0  0  0  0  0  0
   37.4002   31.3985   47.9541 C   0  0  0  0  0  0  0  0  0  0  0  0
   39.6912   34.1697   48.5868 N   0  0  0  0  0  0  0  0  0  0  0  0
   34.6463   29.9971   47.4008 C   0  0  0  0  0  0  0  0  0  0  0  0
   35.5163   29.8914   48.5102 C   0  0  0  0  0  0  0  0  0  0  0  0
   35.4323   28.7250   49.2797 C   0  0  0  0  0  0  0  0  0  0  0  0
   34.5343   27.7777   48.9212 N   0  0  0  0  0  0  0  0  0  0  0  0
   33.7164   27.9090   47.8539 C   0  0  0  0  0  0  0  0  0  0  0  0
   33.7729   29.0124   47.0995 N   0  0  0  0  0  0  0  0  0  0  0  0
   32.7601   26.8335   47.5077 C   0  0  0  0  0  0  0  0  0  0  0  0
   31.5529   26.8952   48.4475 C   0  0  0  0  0  0  0  0  0  0  0  0
   32.1604   27.1132   46.1162 C   0  0  0  0  0  0  0  0  0  0  0  0
   33.3271   25.4678   47.4365 C   0  0  0  0  0  0  0  0  0  0  0  0
   35.7425   31.7103   50.7431 H   0  0  0  0  0  0  0  0  0  0  0  0
   39.2790   31.3026   45.1552 H   0  0  0  0  0  0  0  0  0  0  0  0
   39.6405   34.4173   49.5880 H   0  0  0  0  0  0  0  0  0  0  0  0
   40.2994   34.8468   48.0607 H   0  0  0  0  0  0  0  0  0  0  0  0
   34.6903   30.8777   46.7987 H   0  0  0  0  0  0  0  0  0  0  0  0
   36.1047   28.6830   50.1074 H   0  0  0  0  0  0  0  0  0  0  0  0
   31.2995   25.8527   48.7309 H   0  0  0  0  0  0  0  0  0  0  0  0
   30.6720   27.3511   47.9933 H   0  0  0  0  0  0  0  0  0  0  0  0
   31.8248   27.4424   49.3914 H   0  0  0  0  0  0  0  0  0  0  0  0
   32.9648   27.2309   45.3720 H   0  0  0  0  0  0  0  0  0  0  0  0
   31.5245   26.2233   45.9100 H   0  0  0  0  0  0  0  0  0  0  0  0
   31.5015   27.9803   46.2400 H   0  0  0  0  0  0  0  0  0  0  0  0
   32.4929   24.7765   47.1700 H   0  0  0  0  0  0  0  0  0  0  0  0
   33.7156   25.1298   48.4413 H   0  0  0  0  0  0  0  0  0  0  0  0
   34.3443   25.3603   46.4441 N   0  0  0  0  0  0  0  0  0  0  0  0
   35.6671   25.0814   46.8632 C   0  0  0  0  0  0  0  0  0  0  0  0
   36.4139   24.6072   45.5960 C   0  0  0  0  0  0  0  0  0  0  0  0
   35.3238   24.4207   44.5825 C   0  0  0  0  0  0  0  0  0  0  0  0
   34.0561   24.4000   45.4169 C   0  0  1  0  0  0  0  0  0  0  0  0
   33.9418   23.3673   45.8024 H   0  0  0  0  0  0  0  0  0  0  0  0
   36.2637   25.9186   47.2265 H   0  0  0  0  0  0  0  0  0  0  0  0
   35.7501   24.2354   47.5797 H   0  0  0  0  0  0  0  0  0  0  0  0
   37.1035   25.3673   45.2143 H   0  0  0  0  0  0  0  0  0  0  0  0
   36.9893   23.7019   45.8008 H   0  0  0  0  0  0  0  0  0  0  0  0
   35.5087   23.4807   44.0433 H   0  0  0  0  0  0  0  0  0  0  0  0
   35.3020   25.2738   43.8529 H   0  0  0  0  0  0  0  0  0  0  0  0
   33.2356   24.7304   44.7641 H   0  0  0  0  0  0  0  0  0  0  0  0
  1  2  1  0
  3  2  2  0
  4  3  1  0
  5 10  1  0
  5  4  2  0
  6  5  1  0
  7  8  1  0
  7  6  2  0
  8  9  2  0
  9  4  1  0
  9  1  1  0
 11 12  2  0
 12  1  1  0
 12 13  1  0
 14 13  2  0
 15 14  1  0
 16 11  1  0
 16 15  2  0
 17 15  1  0
 17 18  1  0
 19 17  1  0
 20 17  1  0
  2 21  1  0
  7 22  1  0
 10 23  1  0
 10 24  1  0
 11 25  1  0
 13 26  1  0
 18 27  1  0
 18 28  1  0
 18 29  1  0
 19 30  1  0
 19 31  1  0
 19 32  1  0
 20 33  1  0
 20 34  1  0
 35 36  1  0
 36 37  1  0
 37 38  1  0
 38 39  1  0
 39 40  1  1
 39 35  1  0
 36 41  1  0
 36 42  1  0
 37 43  1  0
 37 44  1  0
 38 45  1  0
 38 46  1  0
 39 47  1  0
 20 35  1  0
M  ISO  8  21  14  22  14  25  14  26  14  27   8  28   8  29   8  30   8
M  ISO  5  31   8  32   8  33   8  34   8  40  13
M  END
>  <DihAtoms>  (1) 
16,19,34,35

>  <DihDeg>  (1) 
70.15584121533348

$$$$
