
 OpenBabel03252514073D

 40 43  0  0  0  0  0  0  0  0999 V2000
   34.0740   29.9240   47.5410 C   0  0  0  0  0  0  0  0  0  0  0  0
   35.0700   29.6720   48.5110 C   0  0  0  0  0  0  0  0  0  0  0  0
   35.0030   28.4530   49.1960 C   0  0  0  0  0  0  0  0  0  0  0  0
   34.0000   27.5960   48.8910 N   0  0  0  0  0  0  0  0  0  0  0  0
   33.0620   27.8660   47.9570 C   0  0  0  0  0  0  0  0  0  0  0  0
   33.1000   29.0230   47.2860 N   0  0  0  0  0  0  0  0  0  0  0  0
   34.1030   30.8480   47.0060 H   0  0  0  0  0  0  0  0  0  0  0  0
   35.7730   28.3000   49.9180 H   0  0  0  0  0  0  0  0  0  0  0  0
   36.0640   30.6680   48.7150 N   0  0  0  0  0  0  0  0  0  0  0  0
   36.2660   31.3100   49.8880 C   0  0  0  0  0  0  0  0  0  0  0  0
   37.2840   32.1900   49.7280 N   0  0  0  0  0  0  0  0  0  0  0  0
   37.6970   32.0790   48.4530 C   0  0  0  0  0  0  0  0  0  0  0  0
   38.6820   32.7080   47.7270 C   0  0  0  0  0  0  0  0  0  0  0  0
   38.8990   32.4040   46.4300 N   0  0  0  0  0  0  0  0  0  0  0  0
   38.1520   31.4620   45.7860 C   0  0  0  0  0  0  0  0  0  0  0  0
   37.1950   30.8590   46.5130 N   0  0  0  0  0  0  0  0  0  0  0  0
   36.9440   31.1300   47.8090 C   0  0  0  0  0  0  0  0  0  0  0  0
   35.7680   31.2220   50.8470 H   0  0  0  0  0  0  0  0  0  0  0  0
   38.3510   31.2430   44.7460 H   0  0  0  0  0  0  0  0  0  0  0  0
   39.4910   33.6930   48.3330 N   0  0  0  0  0  0  0  0  0  0  0  0
   39.6160   33.8310   49.3480 H   0  0  0  0  0  0  0  0  0  0  0  0
   40.0550   34.3910   47.7850 H   0  0  0  0  0  0  0  0  0  0  0  0
   31.9950   26.8850   47.6640 C   0  0  0  0  0  0  0  0  0  0  0  0
   30.8550   27.0460   48.6720 C   0  0  0  0  0  0  0  0  0  0  0  0
   30.5240   26.0290   48.9670 H   0  0  0  0  0  0  0  0  0  0  0  0
   29.9940   27.5840   48.2720 H   0  0  0  0  0  0  0  0  0  0  0  0
   31.2290   27.5580   49.6010 H   0  0  0  0  0  0  0  0  0  0  0  0
   31.3420   27.2300   46.3100 C   0  0  0  0  0  0  0  0  0  0  0  0
   32.1100   27.2810   45.5210 H   0  0  0  0  0  0  0  0  0  0  0  0
   30.6180   26.4030   46.1390 H   0  0  0  0  0  0  0  0  0  0  0  0
   30.7740   28.1510   46.4760 H   0  0  0  0  0  0  0  0  0  0  0  0
   32.4310   25.4740   47.5540 C   0  0  0  0  0  0  0  0  0  0  0  0
   31.5260   24.8360   47.6920 H   0  0  0  0  0  0  0  0  0  0  0  0
   33.1470   25.1990   48.3810 H   0  0  0  0  0  0  0  0  0  0  0  0
   33.0020   25.1860   46.2810 N   0  0  0  0  0  0  0  0  0  0  0  0
   34.4110   25.1020   46.1780 C   0  0  0  0  0  2  0  0  0  0  0  0
   34.6890   24.3760   44.8430 C   0  0  0  0  0  2  0  0  0  0  0  0
   33.3400   23.8770   44.4150 C   0  0  0  0  0  2  0  0  0  0  0  0
   32.5000   23.9860   45.6750 C   0  0  0  0  0  3  0  0  0  0  0  0
   32.7010   23.0750   46.2750 H   0  0  0  0  0  0  0  0  0  0  0  0
  1  2  1  0  0  0  0
  2  9  1  0  0  0  0
  2  3  2  0  0  0  0
  3  8  1  0  0  0  0
  4  3  1  0  0  0  0
  5  4  2  0  0  0  0
  6  1  2  0  0  0  0
  6  5  1  0  0  0  0
  7  1  1  0  0  0  0
  9 10  1  0  0  0  0
 10 18  1  0  0  0  0
 11 10  2  0  0  0  0
 12 11  1  0  0  0  0
 13 20  1  0  0  0  0
 13 12  2  0  0  0  0
 14 13  1  0  0  0  0
 15 14  2  0  0  0  0
 15 16  1  0  0  0  0
 16 17  2  0  0  0  0
 17 12  1  0  0  0  0
 17  9  1  0  0  0  0
 19 15  1  0  0  0  0
 20 21  1  0  0  0  0
 22 20  1  0  0  0  0
 23  5  1  0  0  0  0
 23 24  1  0  0  0  0
 24 25  1  0  0  0  0
 24 27  1  0  0  0  0
 26 24  1  0  0  0  0
 28 31  1  0  0  0  0
 28 23  1  0  0  0  0
 29 28  1  0  0  0  0
 30 28  1  0  0  0  0
 32 23  1  0  0  0  0
 32 33  1  0  0  0  0
 32 34  1  0  0  0  0
 35 32  1  0  0  0  0
 36 35  1  0  0  0  0
 37 36  1  0  0  0  0
 38 37  1  0  0  0  0
 38 39  1  0  0  0  0
 39 40  1  0  0  0  0
 39 35  1  0  0  0  0
M  END
>  <minimizedAffinity>
-5.21605396

>  <minimizedRMSD>
0.933825195

$$$$
