
 OpenBabel03252514073D

 40 43  0  0  0  0  0  0  0  0999 V2000
   33.9620   29.8610   47.3230 C   0  0  0  0  0  0  0  0  0  0  0  0
   34.8890   29.6980   48.3780 C   0  0  0  0  0  0  0  0  0  0  0  0
   34.6620   28.6460   49.2730 C   0  0  0  0  0  0  0  0  0  0  0  0
   33.5830   27.8530   49.0760 N   0  0  0  0  0  0  0  0  0  0  0  0
   32.7150   28.0340   48.0570 C   0  0  0  0  0  0  0  0  0  0  0  0
   32.9050   29.0320   47.1860 N   0  0  0  0  0  0  0  0  0  0  0  0
   34.1120   30.6580   46.6290 H   0  0  0  0  0  0  0  0  0  0  0  0
   35.3840   28.5560   50.0540 H   0  0  0  0  0  0  0  0  0  0  0  0
   35.9790   30.6090   48.4500 N   0  0  0  0  0  0  0  0  0  0  0  0
   36.3580   31.2520   49.5770 C   0  0  0  0  0  0  0  0  0  0  0  0
   37.4230   32.0380   49.2870 N   0  0  0  0  0  0  0  0  0  0  0  0
   37.6860   31.8690   47.9790 C   0  0  0  0  0  0  0  0  0  0  0  0
   38.6360   32.3990   47.1350 C   0  0  0  0  0  0  0  0  0  0  0  0
   38.6850   32.0540   45.8320 N   0  0  0  0  0  0  0  0  0  0  0  0
   37.7970   31.1690   45.2960 C   0  0  0  0  0  0  0  0  0  0  0  0
   36.8770   30.6630   46.1360 N   0  0  0  0  0  0  0  0  0  0  0  0
   36.7910   30.9780   47.4430 C   0  0  0  0  0  0  0  0  0  0  0  0
   35.9610   31.2230   50.5850 H   0  0  0  0  0  0  0  0  0  0  0  0
   37.8640   30.9160   44.2460 H   0  0  0  0  0  0  0  0  0  0  0  0
   39.5850   33.3210   47.6260 N   0  0  0  0  0  0  0  0  0  0  0  0
   39.8290   33.4660   48.6190 H   0  0  0  0  0  0  0  0  0  0  0  0
   40.1430   33.9580   47.0030 H   0  0  0  0  0  0  0  0  0  0  0  0
   31.5560   27.1290   47.8910 C   0  0  0  0  0  0  0  0  0  0  0  0
   30.6170   27.2670   49.0920 C   0  0  0  0  0  0  0  0  0  0  0  0
   30.2820   26.2480   49.3720 H   0  0  0  0  0  0  0  0  0  0  0  0
   29.7340   27.8730   48.8850 H   0  0  0  0  0  0  0  0  0  0  0  0
   31.1750   27.6900   49.9720 H   0  0  0  0  0  0  0  0  0  0  0  0
   30.7040   27.6040   46.6980 C   0  0  0  0  0  0  0  0  0  0  0  0
   31.3270   27.6780   45.7920 H   0  0  0  0  0  0  0  0  0  0  0  0
   29.9130   26.8260   46.6020 H   0  0  0  0  0  0  0  0  0  0  0  0
   30.2280   28.5360   47.0210 H   0  0  0  0  0  0  0  0  0  0  0  0
   31.8830   25.7110   47.6160 C   0  0  0  0  0  0  0  0  0  0  0  0
   31.0000   25.2610   47.1020 H   0  0  0  0  0  0  0  0  0  0  0  0
   32.0300   25.1280   48.5710 H   0  0  0  0  0  0  0  0  0  0  0  0
   33.0210   25.5780   46.7680 N   0  0  0  0  0  0  0  0  0  0  0  0
   34.0580   24.7000   47.1650 C   0  0  0  0  0  2  0  0  0  0  0  0
   34.8980   24.4470   45.8930 C   0  0  0  0  0  2  0  0  0  0  0  0
   34.0730   25.0380   44.7900 C   0  0  0  0  0  2  0  0  0  0  0  0
   32.7010   25.2090   45.4180 C   0  0  0  0  0  3  0  0  0  0  0  0
   32.1890   24.2290   45.3420 H   0  0  0  0  0  0  0  0  0  0  0  0
  1  2  1  0  0  0  0
  2  9  1  0  0  0  0
  2  3  2  0  0  0  0
  3  8  1  0  0  0  0
  4  3  1  0  0  0  0
  5  4  2  0  0  0  0
  6  1  2  0  0  0  0
  6  5  1  0  0  0  0
  7  1  1  0  0  0  0
  9 10  1  0  0  0  0
 10 18  1  0  0  0  0
 11 10  2  0  0  0  0
 12 11  1  0  0  0  0
 13 20  1  0  0  0  0
 13 12  2  0  0  0  0
 14 13  1  0  0  0  0
 15 14  2  0  0  0  0
 15 16  1  0  0  0  0
 16 17  2  0  0  0  0
 17 12  1  0  0  0  0
 17  9  1  0  0  0  0
 19 15  1  0  0  0  0
 20 21  1  0  0  0  0
 22 20  1  0  0  0  0
 23  5  1  0  0  0  0
 23 24  1  0  0  0  0
 24 25  1  0  0  0  0
 24 27  1  0  0  0  0
 26 24  1  0  0  0  0
 28 31  1  0  0  0  0
 28 23  1  0  0  0  0
 29 28  1  0  0  0  0
 30 28  1  0  0  0  0
 32 23  1  0  0  0  0
 32 34  1  0  0  0  0
 33 32  1  0  0  0  0
 35 36  1  0  0  0  0
 35 32  1  0  0  0  0
 37 36  1  0  0  0  0
 38 39  1  0  0  0  0
 38 37  1  0  0  0  0
 39 35  1  0  0  0  0
 40 39  1  0  0  0  0
M  END
>  <minimizedAffinity>
-5.27207804

>  <minimizedRMSD>
1.13293099

$$$$
