REMARK  Name = 
REMARK  7 active torsions:
REMARK  status: ('A' for Active; 'I' for Inactive)
REMARK    1  A    between atoms: C_1  and  C_6
REMARK    2  A    between atoms: C_1  and  C_8
REMARK    3  A    between atoms: C_10  and  C_11
REMARK    4  A    between atoms: C_11  and  O_13
REMARK    5  A    between atoms: O_13  and  C_23
REMARK    6  A    between atoms: C_23  and  C_24
REMARK    7  A    between atoms: C_23  and  C_25
REMARK                            x       y       z     vdW  Elec       q    Type
REMARK                         _______ _______ _______ _____ _____    ______ ____
ROOT
ATOM      1  C   UNL     1      35.435  29.535  49.215  0.00  0.00    +0.000 C 
ATOM      2  C   UNL     1      34.401  29.476  50.258  0.00  0.00    +0.000 C 
ATOM      3  C   UNL     1      34.648  28.245  49.522  0.00  0.00    +0.000 C 
ATOM      4  H   UNL     1      35.292  29.884  48.189  0.00  0.00    +0.000 HD
ATOM      5  H   UNL     1      34.714  29.620  51.317  0.00  0.00    +0.000 HD
ATOM      6  H   UNL     1      33.473  30.085  50.054  0.00  0.00    +0.000 HD
ATOM      7  H   UNL     1      35.328  27.437  49.809  0.00  0.00    +0.000 HD
ENDROOT
BRANCH   1   8
ATOM      8  C   UNL     1      36.895  29.433  49.657  0.00  0.00    +0.000 C 
ATOM      9  H   UNL     1      36.897  29.464  50.761  0.00  0.00    +0.000 HD
ATOM     10  H   UNL     1      37.332  28.471  49.291  0.00  0.00    +0.000 HD
BRANCH   8  15
ATOM     11  C   UNL     1      38.433  32.750  49.385  0.00  0.00    +0.000 A 
ATOM     12  C   UNL     1      38.935  32.752  48.075  0.00  0.00    +0.000 A 
ATOM     13  C   UNL     1      38.740  31.602  47.291  0.00  0.00    +0.000 A 
ATOM     14  N   UNL     1      38.068  30.543  47.852  0.00  0.00    +0.000 NA
ATOM     15  C   UNL     1      37.607  30.587  49.104  0.00  0.00    +0.000 A 
ATOM     16  N   UNL     1      37.796  31.695  49.858  0.00  0.00    +0.000 NA
ATOM     17  H   UNL     1      38.534  33.581  50.056  0.00  0.00    +0.000 HD
ATOM     18  H   UNL     1      39.446  33.625  47.726  0.00  0.00    +0.000 HD
ATOM     19  H   UNL     1      39.119  31.584  46.283  0.00  0.00    +0.000 HD
ENDBRANCH   8  15
ENDBRANCH   1   8
BRANCH   3  20
ATOM     20  C   UNL     1      33.573  27.854  48.547  0.00  0.00    +0.000 C 
ATOM     21  O   UNL     1      33.880  26.848  47.790  0.00  0.00    +0.000 OA
BRANCH  20  22
ATOM     22  O   UNL     1      32.333  28.458  48.415  0.00  0.00    +0.000 OA
BRANCH  22  23
ATOM     23  C   UNL     1      31.354  28.063  47.507  0.00  0.00    +0.000 C 
ATOM     24  C   UNL     1      31.020  29.271  46.632  0.00  0.00    +0.000 C 
ATOM     25  C   UNL     1      30.100  27.760  48.300  0.00  0.00    +0.000 C 
ENDBRANCH  22  23
ENDBRANCH  20  22
ENDBRANCH   3  20
TORSDOF 5
