
 OpenBabel03252513593D

 25 26  0  0  1  0  0  0  0  0999 V2000
   35.5270   29.5210   49.1740 C   0  0  2  0  0  0  0  0  0  0  0  0
   34.5240   29.5150   50.2490 C   0  0  0  0  0  0  0  0  0  0  0  0
   34.7670   28.2440   49.5830 C   0  0  1  0  0  0  0  0  0  0  0  0
   35.3500   29.8040   48.1330 H   0  0  0  0  0  0  0  0  0  0  0  0
   34.8650   29.7280   51.2870 H   0  0  0  0  0  0  0  0  0  0  0  0
   33.5820   30.0990   50.0350 H   0  0  0  0  0  0  0  0  0  0  0  0
   35.4660   27.4630   49.8990 H   0  0  0  0  0  0  0  0  0  0  0  0
   37.0000   29.4650   49.5790 C   0  0  0  0  0  0  0  0  0  0  0  0
   37.0270   29.4440   50.6830 H   0  0  0  0  0  0  0  0  0  0  0  0
   37.4700   28.5420   49.1570 H   0  0  0  0  0  0  0  0  0  0  0  0
   38.2250   32.9140   49.3680 C   0  0  0  0  0  0  0  0  0  0  0  0
   38.8520   32.9430   48.1130 C   0  0  0  0  0  0  0  0  0  0  0  0
   38.8500   31.7660   47.3460 C   0  0  0  0  0  0  0  0  0  0  0  0
   38.2330   30.6550   47.8670 N   0  0  0  0  0  0  0  0  0  0  0  0
   37.6470   30.6740   49.0670 C   0  0  0  0  0  0  0  0  0  0  0  0
   37.6500   31.8090   49.8050 N   0  0  0  0  0  0  0  0  0  0  0  0
   38.1760   33.7620   50.0220 H   0  0  0  0  0  0  0  0  0  0  0  0
   39.3080   33.8570   47.7920 H   0  0  0  0  0  0  0  0  0  0  0  0
   39.3280   31.7680   46.3800 H   0  0  0  0  0  0  0  0  0  0  0  0
   33.6700   27.7800   48.6660 C   0  0  0  0  0  0  0  0  0  0  0  0
   34.0690   27.0050   47.7070 O   0  0  0  0  0  0  0  0  0  0  0  0
   32.3260   28.0990   48.7760 O   0  0  0  0  0  0  0  0  0  0  0  0
   31.2870   27.3330   48.2540 C   0  0  0  0  0  3  0  0  0  0  0  0
   30.6860   28.1060   47.0800 C   0  0  0  0  0  1  0  0  0  0  0  0
   30.2030   27.2650   49.3100 C   0  0  0  0  0  1  0  0  0  0  0  0
  1  4  1  6  0  0  0
  1  8  1  0  0  0  0
  1  3  1  0  0  0  0
  1  2  1  0  0  0  0
  2  5  1  0  0  0  0
  3  7  1  1  0  0  0
  3  2  1  0  0  0  0
  6  2  1  0  0  0  0
  8  9  1  0  0  0  0
 10  8  1  0  0  0  0
 11 16  1  0  0  0  0
 11 17  1  0  0  0  0
 12 11  2  0  0  0  0
 13 14  2  0  0  0  0
 13 12  1  0  0  0  0
 14 15  1  0  0  0  0
 15  8  1  0  0  0  0
 15 16  2  0  0  0  0
 18 12  1  0  0  0  0
 19 13  1  0  0  0  0
 20 22  1  0  0  0  0
 20  3  1  0  0  0  0
 21 20  2  0  0  0  0
 23 22  1  0  0  0  0
 23 25  1  0  0  0  0
 24 23  1  0  0  0  0
M  END
>  <minimizedAffinity>
-4.77881336

>  <minimizedRMSD>
0.542178035

$$$$
