
 OpenBabel03252514073D

 42 44  0  0  0  0  0  0  0  0999 V2000
   34.1000   30.0440   47.4260 C   0  0  0  0  0  0  0  0  0  0  0  0
   35.0920   29.7460   48.3910 C   0  0  0  0  0  0  0  0  0  0  0  0
   35.0140   28.4910   48.9620 C   0  0  0  0  0  0  0  0  0  0  0  0
   34.0330   27.6370   48.5880 N   0  0  0  0  0  0  0  0  0  0  0  0
   33.1060   27.9400   47.6740 C   0  0  0  0  0  0  0  0  0  0  0  0
   33.1510   29.1590   47.0940 N   0  0  0  0  0  0  0  0  0  0  0  0
   34.0590   31.0120   46.9030 H   0  0  0  0  0  0  0  0  0  0  0  0
   35.7710   28.2760   49.6920 H   0  0  0  0  0  0  0  0  0  0  0  0
   36.0510   30.7400   48.6790 N   0  0  0  0  0  0  0  0  0  0  0  0
   36.1400   31.3730   49.8850 C   0  0  0  0  0  0  0  0  0  0  0  0
   37.1570   32.2600   49.8310 N   0  0  0  0  0  0  0  0  0  0  0  0
   37.6900   32.1680   48.5920 C   0  0  0  0  0  0  0  0  0  0  0  0
   38.7300   32.8150   47.9620 C   0  0  0  0  0  0  0  0  0  0  0  0
   39.0560   32.5200   46.6860 N   0  0  0  0  0  0  0  0  0  0  0  0
   38.3790   31.5880   45.9820 C   0  0  0  0  0  0  0  0  0  0  0  0
   37.3650   30.9660   46.6050 N   0  0  0  0  0  0  0  0  0  0  0  0
   37.0000   31.2140   47.8610 C   0  0  0  0  0  0  0  0  0  0  0  0
   35.5580   31.2670   50.7910 H   0  0  0  0  0  0  0  0  0  0  0  0
   38.6450   31.3580   44.9560 H   0  0  0  0  0  0  0  0  0  0  0  0
   39.4670   33.7940   48.6570 N   0  0  0  0  0  0  0  0  0  0  0  0
   39.0460   34.3210   49.4790 H   0  0  0  0  0  0  0  0  0  0  0  0
   40.4520   34.0520   48.4030 H   0  0  0  0  0  0  0  0  0  0  0  0
   32.0380   26.9940   47.2810 C   0  0  0  0  0  0  0  0  0  0  0  0
   31.1640   26.6860   48.4850 C   0  0  0  0  0  0  0  0  0  0  0  0
   31.7670   26.3940   49.3670 H   0  0  0  0  0  0  0  0  0  0  0  0
   30.3370   26.0140   48.2350 H   0  0  0  0  0  0  0  0  0  0  0  0
   30.6580   27.6450   48.8130 H   0  0  0  0  0  0  0  0  0  0  0  0
   31.0860   27.6750   46.2800 C   0  0  0  0  0  0  0  0  0  0  0  0
   30.0700   27.2290   46.3380 H   0  0  0  0  0  0  0  0  0  0  0  0
   31.0030   28.7220   46.6730 H   0  0  0  0  0  0  0  0  0  0  0  0
   31.4760   27.6430   45.2580 H   0  0  0  0  0  0  0  0  0  0  0  0
   32.5400   25.7780   46.5860 C   0  0  0  0  0  0  0  0  0  0  0  0
   31.6210   25.2010   46.2610 H   0  0  0  0  0  0  0  0  0  0  0  0
   33.0530   26.0360   45.6310 H   0  0  0  0  0  0  0  0  0  0  0  0
   33.3340   24.8870   47.3960 N   0  0  0  0  0  0  0  0  0  0  0  0
   34.3600   24.0200   46.9460 C   0  0  0  0  0  0  0  0  0  0  0  0
   34.9910   24.4380   45.8850 N   0  0  0  0  0  0  0  0  0  0  0  0
   34.7020   22.7930   47.5750 N   0  0  0  0  0  0  0  0  0  0  0  0
   33.1250   24.8820   48.4410 H   0  0  0  0  0  0  0  0  0  0  0  0
   35.7630   23.8980   45.4550 H   0  0  0  0  0  0  0  0  0  0  0  0
   35.7510   22.7380   47.7160 H   0  0  0  0  0  0  0  0  0  0  0  0
   34.1780   21.9700   47.9180 H   0  0  0  0  0  0  0  0  0  0  0  0
  1  2  1  0  0  0  0
  2  9  1  0  0  0  0
  2  3  2  0  0  0  0
  3  8  1  0  0  0  0
  4  3  1  0  0  0  0
  5  4  2  0  0  0  0
  6  1  2  0  0  0  0
  6  5  1  0  0  0  0
  7  1  1  0  0  0  0
  9 10  1  0  0  0  0
 10 18  1  0  0  0  0
 11 10  2  0  0  0  0
 12 11  1  0  0  0  0
 13 12  1  0  0  0  0
 13 20  1  0  0  0  0
 14 13  2  0  0  0  0
 15 16  2  0  0  0  0
 15 14  1  0  0  0  0
 16 17  1  0  0  0  0
 17 12  2  0  0  0  0
 17  9  1  0  0  0  0
 19 15  1  0  0  0  0
 20 21  1  0  0  0  0
 22 20  1  0  0  0  0
 23  5  1  0  0  0  0
 23 24  1  0  0  0  0
 24 27  1  0  0  0  0
 24 25  1  0  0  0  0
 26 24  1  0  0  0  0
 28 29  1  0  0  0  0
 28 30  1  0  0  0  0
 28 23  1  0  0  0  0
 31 28  1  0  0  0  0
 32 23  1  0  0  0  0
 32 35  1  0  0  0  0
 33 32  1  0  0  0  0
 34 32  1  0  0  0  0
 35 39  1  0  0  0  0
 36 35  1  0  0  0  0
 36 38  1  0  0  0  0
 37 36  2  0  0  0  0
 38 41  1  0  0  0  0
 38 42  1  0  0  0  0
 40 37  1  0  0  0  0
M  END
>  <minimizedAffinity>
-5.1420064

>  <minimizedRMSD>
0.995053947

$$$$
