
 OpenBabel03252512383D

 40 43  0  0  1  0  0  0  0  0999 V2000
   39.2470   30.8140   46.3170 C   0  0  2  0  0  0  0  0  0  0  0  0
   40.1690   31.7970   45.7890 C   0  0  0  0  0  0  0  0  0  0  0  0
   40.9900   31.3200   44.6350 C   0  0  0  0  0  0  0  0  0  0  0  0
   40.2190   30.5920   43.6140 C   0  0  0  0  0  0  0  0  0  0  0  0
   39.1860   29.6980   44.1300 C   0  0  0  0  0  0  0  0  0  0  0  0
   38.3170   30.3530   45.2620 C   0  0  2  0  0  0  0  0  0  0  0  0
   39.8160   29.8990   46.6310 H   0  0  0  0  0  0  0  0  0  0  0  0
   40.9560   31.9070   46.6070 H   0  0  0  0  0  0  0  0  0  0  0  0
   39.8620   32.8280   45.6510 H   0  0  0  0  0  0  0  0  0  0  0  0
   41.4230   32.2330   44.1320 H   0  0  0  0  0  0  0  0  0  0  0  0
   41.8800   30.7240   44.9240 H   0  0  0  0  0  0  0  0  0  0  0  0
   40.9280   29.9850   43.0160 H   0  0  0  0  0  0  0  0  0  0  0  0
   39.7490   31.2990   42.8850 H   0  0  0  0  0  0  0  0  0  0  0  0
   39.5960   28.7620   44.6090 H   0  0  0  0  0  0  0  0  0  0  0  0
   38.4730   29.3500   43.3650 H   0  0  0  0  0  0  0  0  0  0  0  0
   37.6950   29.4750   45.5620 H   0  0  0  0  0  0  0  0  0  0  0  0
   38.6680   32.5490   48.1300 C   0  0  0  0  0  0  0  0  0  0  0  0
   38.5030   31.2710   47.4900 C   0  0  0  0  0  0  0  0  0  0  0  0
   37.5870   30.4060   47.9780 C   0  0  0  0  0  0  0  0  0  0  0  0
   36.8550   30.8020   49.0710 N   0  0  0  0  0  0  0  0  0  0  0  0
   37.0340   32.0330   49.6660 C   0  0  0  0  0  0  0  0  0  0  0  0
   37.9540   32.9060   49.1780 N   0  0  0  0  0  0  0  0  0  0  0  0
   39.4170   33.1830   47.6840 H   0  0  0  0  0  0  0  0  0  0  0  0
   37.3950   29.4250   47.5630 H   0  0  0  0  0  0  0  0  0  0  0  0
   36.3650   32.1400   50.4990 H   0  0  0  0  0  0  0  0  0  0  0  0
   37.5820   31.4250   44.6060 C   0  0  0  0  0  0  0  0  0  0  0  0
   37.6180   32.6710   44.9190 O   0  0  0  0  0  0  0  0  0  0  0  0
   36.7980   31.0140   43.5800 O   0  0  0  0  0  0  0  0  0  0  0  0
   35.7130   31.8440   43.1820 C   0  0  0  0  0  0  0  0  0  0  0  0
   34.3810   31.4380   43.3120 C   0  0  0  0  0  0  0  0  0  0  0  0
   33.6350   32.4840   42.8310 C   0  0  0  0  0  0  0  0  0  0  0  0
   34.4720   33.4700   42.4320 N   0  0  0  0  0  0  0  0  0  0  0  0
   35.7100   33.0590   42.6540 N   0  0  0  0  0  0  0  0  0  0  0  0
   33.9580   30.5210   43.6960 H   0  0  0  0  0  0  0  0  0  0  0  0
   32.5540   32.5220   42.7770 H   0  0  0  0  0  0  0  0  0  0  0  0
   34.1130   34.6870   41.8910 C   0  0  0  0  0  0  0  0  0  0  0  0
   34.4590   35.9500   41.5310 C   0  0  0  0  0  0  0  0  0  0  0  0
   33.6080   36.8390   40.9690 C   0  0  0  0  0  0  0  0  0  0  0  0
   32.2430   36.3680   40.7560 C   0  0  0  0  0  0  0  0  0  0  0  0
   32.3080   34.6250   41.4040 S   0  0  0  0  0  0  0  0  0  0  0  0
  1  7  1  1  0  0  0
  1 18  1  0  0  0  0
  2  1  1  0  0  0  0
  2  8  1  0  0  0  0
  3 11  1  0  0  0  0
  3  2  1  0  0  0  0
  4  5  1  0  0  0  0
  4  3  1  0  0  0  0
  5 14  1  0  0  0  0
  5  6  1  0  0  0  0
  6 16  1  1  0  0  0
  6  1  1  0  0  0  0
  9  2  1  0  0  0  0
 10  3  1  0  0  0  0
 12  4  1  0  0  0  0
 13  4  1  0  0  0  0
 15  5  1  0  0  0  0
 17 22  1  0  0  0  0
 18 19  1  0  0  0  0
 18 17  2  0  0  0  0
 19 20  2  0  0  0  0
 20 21  1  0  0  0  0
 21 25  1  0  0  0  0
 22 21  2  0  0  0  0
 23 17  1  0  0  0  0
 24 19  1  0  0  0  0
 26 27  2  0  0  0  0
 26  6  1  0  0  0  0
 28 26  1  0  0  0  0
 29 30  1  0  0  0  0
 29 28  1  0  0  0  0
 30 34  1  0  0  0  0
 31 30  2  0  0  0  0
 32 33  1  0  0  0  0
 32 31  1  0  0  0  0
 33 29  2  0  0  0  0
 35 31  1  0  0  0  0
 36 32  1  0  0  0  0
 37 36  2  0  0  0  0
 38 37  1  0  0  0  0
 39 38  2  0  0  0  0
 39 40  1  0  0  0  0
 40 36  1  0  0  0  0
M  END
>  <minimizedAffinity>
-5.59150982

>  <minimizedRMSD>
1.59951222

$$$$
