
 OpenBabel03252514073D

 42 44  0  0  0  0  0  0  0  0999 V2000
   34.1380   30.0280   47.5120 C   0  0  0  0  0  0  0  0  0  0  0  0
   35.0980   29.7080   48.5000 C   0  0  0  0  0  0  0  0  0  0  0  0
   35.0310   28.4240   49.0070 C   0  0  0  0  0  0  0  0  0  0  0  0
   34.0890   27.5660   48.5530 N   0  0  0  0  0  0  0  0  0  0  0  0
   33.1900   27.8910   47.6180 C   0  0  0  0  0  0  0  0  0  0  0  0
   33.2260   29.1370   47.1000 N   0  0  0  0  0  0  0  0  0  0  0  0
   34.0920   31.0190   47.0350 H   0  0  0  0  0  0  0  0  0  0  0  0
   35.7650   28.1930   49.7560 H   0  0  0  0  0  0  0  0  0  0  0  0
   36.0190   30.7090   48.8750 N   0  0  0  0  0  0  0  0  0  0  0  0
   36.0170   31.3140   50.0990 C   0  0  0  0  0  0  0  0  0  0  0  0
   37.0200   32.2190   50.1320 N   0  0  0  0  0  0  0  0  0  0  0  0
   37.6350   32.1650   48.9290 C   0  0  0  0  0  0  0  0  0  0  0  0
   38.7020   32.8430   48.3860 C   0  0  0  0  0  0  0  0  0  0  0  0
   39.1170   32.5860   47.1270 N   0  0  0  0  0  0  0  0  0  0  0  0
   38.5040   31.6600   46.3580 C   0  0  0  0  0  0  0  0  0  0  0  0
   37.4630   31.0060   46.8980 N   0  0  0  0  0  0  0  0  0  0  0  0
   37.0110   31.2180   48.1320 C   0  0  0  0  0  0  0  0  0  0  0  0
   35.3790   31.1770   50.9610 H   0  0  0  0  0  0  0  0  0  0  0  0
   38.8420   31.4590   45.3470 H   0  0  0  0  0  0  0  0  0  0  0  0
   39.3750   33.8170   49.1500 N   0  0  0  0  0  0  0  0  0  0  0  0
   38.8910   34.3170   49.9550 H   0  0  0  0  0  0  0  0  0  0  0  0
   40.3690   34.0970   48.9680 H   0  0  0  0  0  0  0  0  0  0  0  0
   32.1640   26.9390   47.1370 C   0  0  0  0  0  0  0  0  0  0  0  0
   31.2220   26.5890   48.2770 C   0  0  0  0  0  0  0  0  0  0  0  0
   31.7740   26.2850   49.1870 H   0  0  0  0  0  0  0  0  0  0  0  0
   30.4230   25.9110   47.9600 H   0  0  0  0  0  0  0  0  0  0  0  0
   30.6820   27.5330   48.5940 H   0  0  0  0  0  0  0  0  0  0  0  0
   31.2660   27.6310   46.0950 C   0  0  0  0  0  0  0  0  0  0  0  0
   30.2550   27.1680   46.0790 H   0  0  0  0  0  0  0  0  0  0  0  0
   31.1420   28.6660   46.5060 H   0  0  0  0  0  0  0  0  0  0  0  0
   31.7190   27.6290   45.0980 H   0  0  0  0  0  0  0  0  0  0  0  0
   32.7280   25.7470   46.4460 C   0  0  0  0  0  0  0  0  0  0  0  0
   31.8410   25.1770   46.0330 H   0  0  0  0  0  0  0  0  0  0  0  0
   33.3130   26.0380   45.5430 H   0  0  0  0  0  0  0  0  0  0  0  0
   33.4630   24.8350   47.2890 N   0  0  0  0  0  0  0  0  0  0  0  0
   34.4570   23.9140   46.8760 C   0  0  0  0  0  0  0  0  0  0  0  0
   35.1310   24.2870   45.8230 N   0  0  0  0  0  0  0  0  0  0  0  0
   34.7290   22.6860   47.5330 N   0  0  0  0  0  0  0  0  0  0  0  0
   33.2310   24.8570   48.3280 H   0  0  0  0  0  0  0  0  0  0  0  0
   35.8850   23.7030   45.4200 H   0  0  0  0  0  0  0  0  0  0  0  0
   35.7710   22.5850   47.6990 H   0  0  0  0  0  0  0  0  0  0  0  0
   34.1600   21.8920   47.8760 H   0  0  0  0  0  0  0  0  0  0  0  0
  1  2  1  0  0  0  0
  2  9  1  0  0  0  0
  2  3  2  0  0  0  0
  3  8  1  0  0  0  0
  4  3  1  0  0  0  0
  5  4  2  0  0  0  0
  6  1  2  0  0  0  0
  6  5  1  0  0  0  0
  7  1  1  0  0  0  0
  9 10  1  0  0  0  0
 10 11  2  0  0  0  0
 10 18  1  0  0  0  0
 12 11  1  0  0  0  0
 13 12  1  0  0  0  0
 13 20  1  0  0  0  0
 14 13  2  0  0  0  0
 15 16  2  0  0  0  0
 15 14  1  0  0  0  0
 16 17  1  0  0  0  0
 17  9  1  0  0  0  0
 17 12  2  0  0  0  0
 19 15  1  0  0  0  0
 20 21  1  0  0  0  0
 22 20  1  0  0  0  0
 23  5  1  0  0  0  0
 23 24  1  0  0  0  0
 24 27  1  0  0  0  0
 24 25  1  0  0  0  0
 26 24  1  0  0  0  0
 28 30  1  0  0  0  0
 28 23  1  0  0  0  0
 29 28  1  0  0  0  0
 31 28  1  0  0  0  0
 32 23  1  0  0  0  0
 32 35  1  0  0  0  0
 33 32  1  0  0  0  0
 34 32  1  0  0  0  0
 35 39  1  0  0  0  0
 36 35  1  0  0  0  0
 36 38  1  0  0  0  0
 37 36  2  0  0  0  0
 38 41  1  0  0  0  0
 38 42  1  0  0  0  0
 40 37  1  0  0  0  0
M  END
>  <minimizedAffinity>
-5.08243275

>  <minimizedRMSD>
1.01859725

$$$$
