
 OpenBabel03252514033D

 37 39  0  0  1  0  0  0  0  0999 V2000
   35.1220   29.2370   48.8080 C   0  0  2  0  0  0  0  0  0  0  0  0
   34.0150   29.2930   49.7550 C   0  0  0  0  0  0  0  0  0  0  0  0
   34.3030   27.9820   49.2530 C   0  0  1  0  0  0  0  0  0  0  0  0
   34.9800   29.5680   47.7770 H   0  0  0  0  0  0  0  0  0  0  0  0
   34.2740   29.4860   50.8350 H   0  0  0  0  0  0  0  0  0  0  0  0
   33.0580   29.8180   49.4810 H   0  0  0  0  0  0  0  0  0  0  0  0
   34.9240   27.2050   49.6980 H   0  0  0  0  0  0  0  0  0  0  0  0
   36.5350   29.1950   49.4120 C   0  0  0  0  0  0  0  0  0  0  0  0
   37.0820   28.3110   49.0620 H   0  0  0  0  0  0  0  0  0  0  0  0
   36.4480   29.1050   50.5110 H   0  0  0  0  0  0  0  0  0  0  0  0
   37.5460   32.7010   49.6020 C   0  0  0  0  0  0  0  0  0  0  0  0
   38.4300   32.8260   48.5090 C   0  0  0  0  0  0  0  0  0  0  0  0
   38.6610   31.6770   47.7180 C   0  0  0  0  0  0  0  0  0  0  0  0
   38.0190   30.5170   48.0560 N   0  0  0  0  0  0  0  0  0  0  0  0
   37.1920   30.4560   49.1020 C   0  0  0  0  0  0  0  0  0  0  0  0
   36.9590   31.5550   49.8730 N   0  0  0  0  0  0  0  0  0  0  0  0
   37.4500   33.6370   50.1260 H   0  0  0  0  0  0  0  0  0  0  0  0
   38.9780   33.6830   48.1620 H   0  0  0  0  0  0  0  0  0  0  0  0
   39.3180   31.6710   46.8630 H   0  0  0  0  0  0  0  0  0  0  0  0
   33.3170   27.4480   48.2320 C   0  0  0  0  0  0  0  0  0  0  0  0
   33.6190   26.2630   47.8050 O   0  0  0  0  0  0  0  0  0  0  0  0
   32.1780   28.0930   47.7530 O   0  0  0  0  0  0  0  0  0  0  0  0
   30.9230   27.8590   48.2570 C   0  0  0  0  0  0  0  0  0  0  0  0
   30.5220   27.9990   49.6770 C   0  0  0  0  0  0  0  0  0  0  0  0
   29.2390   27.7280   49.9900 C   0  0  0  0  0  0  0  0  0  0  0  0
   28.2990   27.3290   49.0400 C   0  0  0  0  0  0  0  0  0  0  0  0
   29.2880   27.3090   47.4680 S   0  0  0  0  0  0  0  0  0  0  0  0
   31.2940   28.3070   50.3370 H   0  0  0  0  0  0  0  0  0  0  0  0
   28.9150   27.8120   51.0160 H   0  0  0  0  0  0  0  0  0  0  0  0
   27.0070   27.0120   48.9900 N   0  0  0  0  0  0  0  0  0  0  0  0
   26.0230   27.9230   48.5210 C   0  0  0  0  0  0  0  0  0  0  0  0
   26.2620   28.5650   47.4510 N   0  0  0  0  0  0  0  0  0  0  0  0
   24.7750   28.1520   49.1770 N   0  0  0  0  0  0  0  0  0  0  0  0
   26.6210   26.0730   49.3000 H   0  0  0  0  0  0  0  0  0  0  0  0
   27.1050   28.5150   46.8500 H   0  0  0  0  0  0  0  0  0  0  0  0
   24.3460   28.9730   49.6580 H   0  0  0  0  0  0  0  0  0  0  0  0
   23.9980   27.4630   49.3000 H   0  0  0  0  0  0  0  0  0  0  0  0
  1  4  1  6  0  0  0
  1  3  1  0  0  0  0
  1  8  1  0  0  0  0
  1  2  1  0  0  0  0
  2  5  1  0  0  0  0
  3  7  1  1  0  0  0
  3  2  1  0  0  0  0
  6  2  1  0  0  0  0
  8 10  1  0  0  0  0
  9  8  1  0  0  0  0
 11 16  1  0  0  0  0
 11 17  1  0  0  0  0
 12 11  2  0  0  0  0
 13 14  2  0  0  0  0
 13 12  1  0  0  0  0
 14 15  1  0  0  0  0
 15  8  1  0  0  0  0
 15 16  2  0  0  0  0
 18 12  1  0  0  0  0
 19 13  1  0  0  0  0
 20  3  1  0  0  0  0
 21 20  2  0  0  0  0
 22 20  1  0  0  0  0
 22 23  1  0  0  0  0
 23 24  2  0  0  0  0
 24 25  1  0  0  0  0
 24 28  1  0  0  0  0
 25 29  1  0  0  0  0
 26 25  2  0  0  0  0
 27 23  1  0  0  0  0
 27 26  1  0  0  0  0
 30 26  1  0  0  0  0
 30 34  1  0  0  0  0
 31 30  1  0  0  0  0
 31 33  1  0  0  0  0
 32 31  2  0  0  0  0
 33 37  1  0  0  0  0
 33 36  1  0  0  0  0
 35 32  1  0  0  0  0
M  END
>  <minimizedAffinity>
-6.48576975

>  <minimizedRMSD>
1.01716864

$$$$
