REMARK  Name = 
REMARK  6 active torsions:
REMARK  status: ('A' for Active; 'I' for Inactive)
REMARK    1  A    between atoms: C_1  and  C_4
REMARK    2  A    between atoms: C_3  and  C_11
REMARK    3  A    between atoms: C_4  and  C_9
REMARK    4  A    between atoms: C_11  and  O_13
REMARK    5  A    between atoms: O_13  and  C_14
REMARK    6  A    between atoms: C_17  and  N_30
REMARK                            x       y       z     vdW  Elec       q    Type
REMARK                         _______ _______ _______ _____ _____    ______ ____
ROOT
ATOM      1  C   UNL     1      35.296  29.409  48.984  0.00  0.00    +0.000 C 
ATOM      2  C   UNL     1      34.187  29.364  49.930  0.00  0.00    +0.000 C 
ATOM      3  C   UNL     1      34.527  28.098  49.350  0.00  0.00    +0.000 C 
ATOM      4  H   UNL     1      35.141  29.796  47.975  0.00  0.00    +0.000 HD
ATOM      5  H   UNL     1      34.439  29.500  51.020  0.00  0.00    +0.000 HD
ATOM      6  H   UNL     1      33.211  29.866  49.686  0.00  0.00    +0.000 HD
ATOM      7  H   UNL     1      35.178  27.320  49.748  0.00  0.00    +0.000 HD
ENDROOT
BRANCH   1   8
ATOM      8  C   UNL     1      36.709  29.386  49.588  0.00  0.00    +0.000 C 
ATOM      9  H   UNL     1      37.215  28.439  49.359  0.00  0.00    +0.000 HD
ATOM     10  H   UNL     1      36.625  29.448  50.689  0.00  0.00    +0.000 HD
BRANCH   8  15
ATOM     11  C   UNL     1      38.080  32.770  49.445  0.00  0.00    +0.000 A 
ATOM     12  C   UNL     1      38.754  32.777  48.206  0.00  0.00    +0.000 A 
ATOM     13  C   UNL     1      38.720  31.592  47.434  0.00  0.00    +0.000 A 
ATOM     14  N   UNL     1      38.040  30.514  47.931  0.00  0.00    +0.000 NA
ATOM     15  C   UNL     1      37.419  30.563  49.112  0.00  0.00    +0.000 A 
ATOM     16  N   UNL     1      37.443  31.698  49.866  0.00  0.00    +0.000 NA
ATOM     17  H   UNL     1      38.175  33.722  49.939  0.00  0.00    +0.000 HD
ATOM     18  H   UNL     1      39.311  33.563  47.730  0.00  0.00    +0.000 HD
ATOM     19  H   UNL     1      39.204  31.498  46.475  0.00  0.00    +0.000 HD
ENDBRANCH   8  15
ENDBRANCH   1   8
BRANCH   3  20
ATOM     20  C   UNL     1      33.563  27.589  48.296  0.00  0.00    +0.000 C 
ATOM     21  O   UNL     1      33.905  26.439  47.807  0.00  0.00    +0.000 OA
BRANCH  20  22
ATOM     22  O   UNL     1      32.406  28.222  47.846  0.00  0.00    +0.000 OA
BRANCH  22  23
ATOM     23  C   UNL     1      31.147  27.829  48.226  0.00  0.00    +0.000 A 
ATOM     24  C   UNL     1      30.627  27.818  49.614  0.00  0.00    +0.000 A 
ATOM     25  C   UNL     1      29.359  27.401  49.800  0.00  0.00    +0.000 A 
ATOM     26  C   UNL     1      28.539  26.989  48.749  0.00  0.00    +0.000 A 
ATOM     27  S   UNL     1      29.641  27.188  47.267  0.00  0.00    +0.000 S 
ATOM     28  H   UNL     1      31.312  28.146  50.356  0.00  0.00    +0.000 HD
ATOM     29  H   UNL     1      28.951  27.372  50.798  0.00  0.00    +0.000 HD
BRANCH  26  30
ATOM     30  N   UNL     1      27.294  26.554  48.570  0.00  0.00    +0.000 N 
ATOM     31  C   UNL     1      26.803  26.174  47.292  0.00  0.00    +0.000 C 
ATOM     32  N   UNL     1      27.535  25.434  46.565  0.00  0.00    +0.000 NA
ATOM     33  N   UNL     1      25.528  26.568  46.782  0.00  0.00    +0.000 N 
ATOM     34  H   UNL     1      26.584  26.468  49.355  0.00  0.00    +0.000 HD
ATOM     35  H   UNL     1      28.475  25.054  46.780  0.00  0.00    +0.000 HD
ATOM     36  H   UNL     1      25.217  27.166  45.984  0.00  0.00    +0.000 HD
ATOM     37  H   UNL     1      24.591  26.296  47.161  0.00  0.00    +0.000 HD
ENDBRANCH  26  30
ENDBRANCH  22  23
ENDBRANCH  20  22
ENDBRANCH   3  20
TORSDOF 6
