
     RDKit          3D

 37 39  0  0  0  0  0  0  0  0999 V2000
   35.2964   29.4094   48.9840 C   0  0  2  0  0  0  0  0  0  0  0  0
   34.1866   29.3637   49.9300 C   0  0  0  0  0  0  0  0  0  0  0  0
   34.5272   28.0978   49.3501 C   0  0  1  0  0  0  0  0  0  0  0  0
   36.7088   29.3861   49.5881 C   0  0  0  0  0  0  0  0  0  0  0  0
   38.0796   32.7697   49.4451 C   0  0  0  0  0  0  0  0  0  0  0  0
   38.7535   32.7770   48.2062 C   0  0  0  0  0  0  0  0  0  0  0  0
   38.7202   31.5922   47.4338 C   0  0  0  0  0  0  0  0  0  0  0  0
   38.0399   30.5142   47.9308 N   0  0  0  0  0  0  0  0  0  0  0  0
   37.4187   30.5632   49.1118 C   0  0  0  0  0  0  0  0  0  0  0  0
   37.4429   31.6981   49.8660 N   0  0  0  0  0  0  0  0  0  0  0  0
   33.5629   27.5894   48.2963 C   0  0  0  0  0  0  0  0  0  0  0  0
   33.9048   26.4394   47.8074 O   0  0  0  0  0  0  0  0  0  0  0  0
   32.4057   28.2218   47.8462 O   0  0  0  0  0  0  0  0  0  0  0  0
   31.1469   27.8290   48.2256 C   0  0  0  0  0  0  0  0  0  0  0  0
   30.6272   27.8179   49.6140 C   0  0  0  0  0  0  0  0  0  0  0  0
   29.3590   27.4005   49.8001 C   0  0  0  0  0  0  0  0  0  0  0  0
   28.5386   26.9894   48.7486 C   0  0  0  0  0  0  0  0  0  0  0  0
   29.6411   27.1881   47.2670 S   0  0  0  0  0  0  0  0  0  0  0  0
   35.1407   29.7964   47.9749 H   0  0  0  0  0  0  0  0  0  0  0  0
   34.4388   29.4997   51.0205 H   0  0  0  0  0  0  0  0  0  0  0  0
   33.2114   29.8663   49.6859 H   0  0  0  0  0  0  0  0  0  0  0  0
   35.1781   27.3203   49.7475 H   0  0  0  0  0  0  0  0  0  0  0  0
   37.2147   28.4387   49.3587 H   0  0  0  0  0  0  0  0  0  0  0  0
   36.6253   29.4478   50.6892 H   0  0  0  0  0  0  0  0  0  0  0  0
   38.1755   33.7225   49.9390 H   0  0  0  0  0  0  0  0  0  0  0  0
   39.3112   33.5633   47.7301 H   0  0  0  0  0  0  0  0  0  0  0  0
   39.2036   31.4985   46.4753 H   0  0  0  0  0  0  0  0  0  0  0  0
   31.3123   28.1461   50.3564 H   0  0  0  0  0  0  0  0  0  0  0  0
   28.9507   27.3723   50.7978 H   0  0  0  0  0  0  0  0  0  0  0  0
   27.2936   26.5537   48.5702 N   0  0  0  0  0  0  0  0  0  0  0  0
   26.8905   25.8860   47.3826 C   0  0  0  0  0  0  0  0  0  0  0  0
   27.6452   24.9735   46.9225 N   0  0  0  0  0  0  0  0  0  0  0  0
   25.6803   26.1747   46.6808 N   0  0  0  0  0  0  0  0  0  0  0  0
   26.5195   26.6785   49.2863 H   0  0  0  0  0  0  0  0  0  0  0  0
   28.5462   24.6347   47.3059 H   0  0  0  0  0  0  0  0  0  0  0  0
   25.4615   26.5674   45.7387 H   0  0  0  0  0  0  0  0  0  0  0  0
   24.7045   26.0257   47.0295 H   0  0  0  0  0  0  0  0  0  0  0  0
  1  3  1  0
  1  4  1  0
  1  2  1  0
  3  2  1  0
  5 10  2  0
  6  5  1  0
  7  8  1  0
  7  6  2  0
  8  9  2  0
  9  4  1  0
  9 10  1  0
 11  3  1  0
 12 11  2  0
 13 14  1  0
 13 11  1  0
 14 15  2  0
 15 16  1  0
 17 16  2  0
 18 14  1  0
 18 17  1  0
  1 19  1  6
  2 20  1  0
  2 21  1  0
  3 22  1  1
  4 23  1  0
  4 24  1  0
  5 25  1  0
  6 26  1  0
  7 27  1  0
 15 28  1  0
 16 29  1  0
 30 31  1  0
 31 32  2  3
 31 33  1  0
 30 34  1  0
 32 35  1  0
 33 36  1  0
 33 37  1  0
 17 30  1  0
M  ISO  8  19  13  20  13  21  13  22  13  23   8  24   8  25  14  26  14
M  ISO  3  27  14  28  14  29  14
M  END
>  <DihAtoms>  (1) 
15,16,29,30

>  <DihDeg>  (1) 
2.1415548497084926

$$$$
