
     RDKit          3D

 30 32  0  0  0  0  0  0  0  0999 V2000
   37.7992   31.8086   49.0539 N   0  0  0  0  0  0  0  0  0  0  0  0
   38.1953   33.0324   49.4674 C   0  0  0  0  0  0  0  0  0  0  0  0
   38.9455   33.5966   48.4900 N   0  0  0  0  0  0  0  0  0  0  0  0
   39.0041   32.7221   47.4917 C   0  0  0  0  0  0  0  0  0  0  0  0
   39.6082   32.7244   46.2509 C   0  0  0  0  0  0  0  0  0  0  0  0
   39.5055   31.6811   45.4153 N   0  0  0  0  0  0  0  0  0  0  0  0
   38.7985   30.5603   45.7448 C   0  0  0  0  0  0  0  0  0  0  0  0
   38.2099   30.5583   46.9540 N   0  0  0  0  0  0  0  0  0  0  0  0
   38.2898   31.5807   47.8157 C   0  0  0  0  0  0  0  0  0  0  0  0
   35.6899   30.6665   49.3990 C   0  0  0  0  0  0  0  0  0  0  0  0
   36.9950   30.9290   49.8263 C   0  0  0  0  0  0  0  0  0  0  0  0
   37.4057   30.2935   50.9966 C   0  0  0  0  0  0  0  0  0  0  0  0
   36.5490   29.4705   51.6549 N   0  0  0  0  0  0  0  0  0  0  0  0
   35.2895   29.2412   51.2080 C   0  0  0  0  0  0  0  0  0  0  0  0
   34.8807   29.8434   50.0868 N   0  0  0  0  0  0  0  0  0  0  0  0
   40.3551   33.8305   45.8240 N   0  0  0  0  0  0  0  0  0  0  0  0
   37.9525   33.4940   50.4304 H   0  0  0  0  0  0  0  0  0  0  0  0
   38.7559   29.7564   45.0256 H   0  0  0  0  0  0  0  0  0  0  0  0
   35.3103   31.1333   48.4913 H   0  0  0  0  0  0  0  0  0  0  0  0
   38.4020   30.5019   51.3111 H   0  0  0  0  0  0  0  0  0  0  0  0
   41.3935   33.8818   45.6468 H   0  0  0  0  0  0  0  0  0  0  0  0
   39.7956   34.7131   45.6644 H   0  0  0  0  0  0  0  0  0  0  0  0
   34.4234   28.3708   51.9288 N   0  0  0  0  0  0  0  0  0  0  0  0
   34.0730   28.6540   53.2785 C   0  0  0  0  0  0  0  0  0  0  0  0
   33.9848   29.8884   53.6471 N   0  0  0  0  0  0  0  0  0  0  0  0
   33.8318   27.5772   54.1766 N   0  0  0  0  0  0  0  0  0  0  0  0
   34.0443   27.5192   51.4602 H   0  0  0  0  0  0  0  0  0  0  0  0
   33.7324   30.1580   54.6208 H   0  0  0  0  0  0  0  0  0  0  0  0
   33.3871   26.8568   54.7613 H   0  0  0  0  0  0  0  0  0  0  0  0
   34.5180   26.9816   54.7204 H   0  0  0  0  0  0  0  0  0  0  0  0
  1  2  1  0
  1 11  1  0
  3  2  2  0
  4  9  2  0
  4  3  1  0
  5  4  1  0
  6  7  1  0
  6  5  2  0
  7  8  2  0
  8  9  1  0
  9  1  1  0
 10 11  2  0
 10 15  1  0
 11 12  1  0
 12 13  2  0
 14 13  1  0
 15 14  2  0
 16  5  1  0
  2 17  1  0
  7 18  1  0
 10 19  1  0
 12 20  1  0
 16 21  1  0
 16 22  1  0
 23 24  1  0
 24 25  2  3
 24 26  1  0
 23 27  1  0
 25 28  1  0
 26 29  1  0
 26 30  1  0
 14 23  1  0
M  ISO  4  17  14  18  14  19  14  20  14
M  END
>  <DihAtoms>  (1) 
12,13,22,23

>  <DihDeg>  (1) 
-179.99973695291453

$$$$
