
 OpenBabel03252513423D

 21 21  0  0  0  0  0  0  0  0999 V2000
   38.0610   30.8460   49.1360 C   0  0  0  0  0  0  0  0  0  0  0  0
   38.3490   32.0980   49.7250 C   0  0  0  0  0  0  0  0  0  0  0  0
   38.8180   33.1130   48.8980 C   0  0  0  0  0  0  0  0  0  0  0  0
   38.9790   32.8630   47.5700 N   0  0  0  0  0  0  0  0  0  0  0  0
   38.6920   31.6560   47.0560 C   0  0  0  0  0  0  0  0  0  0  0  0
   38.2380   30.6510   47.8150 N   0  0  0  0  0  0  0  0  0  0  0  0
   38.2130   32.2720   50.7830 H   0  0  0  0  0  0  0  0  0  0  0  0
   39.0630   34.1040   49.2740 H   0  0  0  0  0  0  0  0  0  0  0  0
   38.8660   31.4060   45.6570 N   0  0  0  0  0  0  0  0  0  0  0  0
   40.1620   31.2200   45.0690 C   0  0  0  0  0  0  0  0  0  0  0  0
   41.0630   30.7150   45.8460 N   0  0  0  0  0  0  0  0  0  0  0  0
   40.4010   31.5820   43.7160 N   0  0  0  0  0  0  0  0  0  0  0  0
   38.0110   31.3550   45.0270 H   0  0  0  0  0  0  0  0  0  0  0  0
   42.0150   30.5660   45.4520 H   0  0  0  0  0  0  0  0  0  0  0  0
   41.2740   32.1630   43.6700 H   0  0  0  0  0  0  0  0  0  0  0  0
   39.8450   31.3460   42.8620 H   0  0  0  0  0  0  0  0  0  0  0  0
   37.5980   29.8480   49.9590 O   0  0  0  0  0  0  0  0  0  0  0  0
   36.2770   29.6550   50.3370 C   0  0  0  0  0  0  0  0  0  0  0  0
   36.0880   29.4670   51.6880 F   0  0  0  0  0  0  0  0  0  0  0  0
   35.4200   30.6230   49.8670 F   0  0  0  0  0  0  0  0  0  0  0  0
   35.8780   28.4530   49.7170 F   0  0  0  0  0  0  0  0  0  0  0  0
  1  2  1  0  0  0  0
  1 17  1  0  0  0  0
  2  7  1  0  0  0  0
  3  8  1  0  0  0  0
  3  2  2  0  0  0  0
  4  3  1  0  0  0  0
  5  4  2  0  0  0  0
  5  6  1  0  0  0  0
  6  1  2  0  0  0  0
  9  5  1  0  0  0  0
 10  9  1  0  0  0  0
 10 11  2  0  0  0  0
 12 10  1  0  0  0  0
 13  9  1  0  0  0  0
 14 11  1  0  0  0  0
 15 12  1  0  0  0  0
 16 12  1  0  0  0  0
 17 18  1  0  0  0  0
 18 19  1  0  0  0  0
 20 18  1  0  0  0  0
 21 18  1  0  0  0  0
M  END
>  <minimizedAffinity>
-5.76362181

>  <minimizedRMSD>
0.577279449

$$$$
