
     RDKit          3D

 32 33  0  0  0  0  0  0  0  0999 V2000
   36.8949   29.4332   49.6566 C   0  0  0  0  0  0  0  0  0  0  0  0
   38.4328   32.7504   49.3850 C   0  0  0  0  0  0  0  0  0  0  0  0
   38.9355   32.7518   48.0747 C   0  0  0  0  0  0  0  0  0  0  0  0
   38.7399   31.6021   47.2908 C   0  0  0  0  0  0  0  0  0  0  0  0
   38.0679   30.5431   47.8523 N   0  0  0  0  0  0  0  0  0  0  0  0
   37.6073   30.5873   49.1036 C   0  0  0  0  0  0  0  0  0  0  0  0
   37.7958   31.6945   49.8585 N   0  0  0  0  0  0  0  0  0  0  0  0
   35.4348   29.5354   49.2147 C   0  0  2  0  0  0  0  0  0  0  0  0
   34.4008   29.4756   50.2580 C   0  0  0  0  0  0  0  0  0  0  0  0
   34.6485   28.2448   49.5218 C   0  0  1  0  0  0  0  0  0  0  0  0
   33.5726   27.8539   48.5467 C   0  0  0  0  0  0  0  0  0  0  0  0
   33.8798   26.8477   47.7896 O   0  0  0  0  0  0  0  0  0  0  0  0
   32.3325   28.4582   48.4148 O   0  0  0  0  0  0  0  0  0  0  0  0
   36.8971   29.4637   50.7611 H   0  0  0  0  0  0  0  0  0  0  0  0
   37.3321   28.4712   49.2915 H   0  0  0  0  0  0  0  0  0  0  0  0
   38.5342   33.5815   50.0563 H   0  0  0  0  0  0  0  0  0  0  0  0
   39.4456   33.6247   47.7257 H   0  0  0  0  0  0  0  0  0  0  0  0
   39.1186   31.5845   46.2829 H   0  0  0  0  0  0  0  0  0  0  0  0
   35.2922   29.8843   48.1886 H   0  0  0  0  0  0  0  0  0  0  0  0
   34.7142   29.6201   51.3168 H   0  0  0  0  0  0  0  0  0  0  0  0
   33.4727   30.0846   50.0545 H   0  0  0  0  0  0  0  0  0  0  0  0
   35.3280   27.4374   49.8086 H   0  0  0  0  0  0  0  0  0  0  0  0
   31.3538   28.0633   47.5066 C   0  0  0  0  0  0  0  0  0  0  0  0
   31.5396   28.8934   46.2370 C   0  0  0  0  0  0  0  0  0  0  0  0
   30.0140   28.4711   48.0834 C   0  0  0  0  0  0  0  0  0  0  0  0
   31.3789   26.9787   47.2680 H   0  0  0  0  0  0  0  0  0  0  0  0
   31.6805   29.9418   46.5614 H   0  0  0  0  0  0  0  0  0  0  0  0
   30.6937   28.7467   45.5390 H   0  0  0  0  0  0  0  0  0  0  0  0
   32.5028   28.5458   45.7972 H   0  0  0  0  0  0  0  0  0  0  0  0
   29.7915   29.5312   47.7893 H   0  0  0  0  0  0  0  0  0  0  0  0
   29.1974   27.7810   47.8500 H   0  0  0  0  0  0  0  0  0  0  0  0
   30.0899   28.5183   49.2086 H   0  0  0  0  0  0  0  0  0  0  0  0
  2  7  2  0
  3  2  1  0
  4  5  1  0
  4  3  2  0
  5  6  2  0
  6  1  1  0
  6  7  1  0
  8 10  1  0
  8  1  1  0
  8  9  1  0
 10  9  1  0
 11 10  1  0
 12 11  2  0
 13 11  1  0
  1 14  1  0
  1 15  1  0
  2 16  1  0
  3 17  1  0
  4 18  1  0
  8 19  1  6
  9 20  1  0
  9 21  1  0
 10 22  1  1
 23 24  1  0
 23 25  1  0
 23 26  1  0
 24 27  1  0
 24 28  1  0
 24 29  1  0
 25 30  1  0
 25 31  1  0
 25 32  1  0
 13 23  1  0
M  ISO  8  14   8  15   8  16  14  17  14  18  14  19  13  20  13  21  13
M  ISO  1  22  13
M  END
>  <DihAtoms>  (1) 
10,12,22,23

>  <DihDeg>  (1) 
-122.59433199578112

$$$$
