
 OpenBabel03252514033D

 37 39  0  0  1  0  0  0  0  0999 V2000
   35.5480   29.5580   48.9770 C   0  0  2  0  0  0  0  0  0  0  0  0
   34.4330   29.4510   49.9120 C   0  0  0  0  0  0  0  0  0  0  0  0
   34.8290   28.2110   49.3130 C   0  0  1  0  0  0  0  0  0  0  0  0
   35.3860   29.9570   47.9740 H   0  0  0  0  0  0  0  0  0  0  0  0
   34.6700   29.5780   51.0060 H   0  0  0  0  0  0  0  0  0  0  0  0
   33.4400   29.9180   49.6680 H   0  0  0  0  0  0  0  0  0  0  0  0
   35.5070   27.4520   49.7030 H   0  0  0  0  0  0  0  0  0  0  0  0
   36.9550   29.5810   49.5940 C   0  0  0  0  0  0  0  0  0  0  0  0
   37.4700   28.6260   49.4250 H   0  0  0  0  0  0  0  0  0  0  0  0
   36.8610   29.7060   50.6890 H   0  0  0  0  0  0  0  0  0  0  0  0
   38.3920   32.9290   49.3120 C   0  0  0  0  0  0  0  0  0  0  0  0
   38.9890   32.9010   48.0350 C   0  0  0  0  0  0  0  0  0  0  0  0
   38.8820   31.7050   47.2860 C   0  0  0  0  0  0  0  0  0  0  0  0
   38.2090   30.6510   47.8410 N   0  0  0  0  0  0  0  0  0  0  0  0
   37.6620   30.7330   49.0560 C   0  0  0  0  0  0  0  0  0  0  0  0
   37.7570   31.8790   49.7890 N   0  0  0  0  0  0  0  0  0  0  0  0
   38.5380   33.8860   49.7830 H   0  0  0  0  0  0  0  0  0  0  0  0
   39.5340   33.6660   47.5130 H   0  0  0  0  0  0  0  0  0  0  0  0
   39.3040   31.5850   46.3010 H   0  0  0  0  0  0  0  0  0  0  0  0
   33.8960   27.6830   48.2410 C   0  0  0  0  0  0  0  0  0  0  0  0
   34.2670   26.5380   47.7620 O   0  0  0  0  0  0  0  0  0  0  0  0
   32.7370   28.2950   47.7660 O   0  0  0  0  0  0  0  0  0  0  0  0
   31.4800   27.9290   48.1780 C   0  0  0  0  0  0  0  0  0  0  0  0
   30.9140   28.1520   49.5300 C   0  0  0  0  0  0  0  0  0  0  0  0
   29.6550   27.7270   49.7550 C   0  0  0  0  0  0  0  0  0  0  0  0
   28.8860   27.0980   48.7770 C   0  0  0  0  0  0  0  0  0  0  0  0
   30.0290   27.0640   47.3140 S   0  0  0  0  0  0  0  0  0  0  0  0
   31.5630   28.6380   50.2170 H   0  0  0  0  0  0  0  0  0  0  0  0
   29.2150   27.8660   50.7300 H   0  0  0  0  0  0  0  0  0  0  0  0
   27.6630   26.5890   48.6480 N   0  0  0  0  0  0  0  0  0  0  0  0
   27.0310   25.8680   49.6970 C   0  0  0  0  0  0  0  0  0  0  0  0
   27.0830   26.3490   50.8710 N   0  0  0  0  0  0  0  0  0  0  0  0
   26.3330   24.6360   49.5060 N   0  0  0  0  0  0  0  0  0  0  0  0
   27.0800   26.6740   47.7640 H   0  0  0  0  0  0  0  0  0  0  0  0
   27.5370   27.2270   51.1830 H   0  0  0  0  0  0  0  0  0  0  0  0
   26.4880   23.6550   49.8250 H   0  0  0  0  0  0  0  0  0  0  0  0
   25.4530   24.4950   48.9550 H   0  0  0  0  0  0  0  0  0  0  0  0
  1  4  1  6  0  0  0
  1  3  1  0  0  0  0
  1  8  1  0  0  0  0
  1  2  1  0  0  0  0
  2  5  1  0  0  0  0
  3  7  1  1  0  0  0
  3  2  1  0  0  0  0
  6  2  1  0  0  0  0
  8 10  1  0  0  0  0
  9  8  1  0  0  0  0
 11 17  1  0  0  0  0
 11 16  1  0  0  0  0
 12 11  2  0  0  0  0
 13 14  2  0  0  0  0
 13 12  1  0  0  0  0
 14 15  1  0  0  0  0
 15  8  1  0  0  0  0
 15 16  2  0  0  0  0
 18 12  1  0  0  0  0
 19 13  1  0  0  0  0
 20  3  1  0  0  0  0
 21 20  2  0  0  0  0
 22 23  1  0  0  0  0
 22 20  1  0  0  0  0
 23 24  2  0  0  0  0
 24 25  1  0  0  0  0
 24 28  1  0  0  0  0
 25 29  1  0  0  0  0
 26 25  2  0  0  0  0
 27 23  1  0  0  0  0
 27 26  1  0  0  0  0
 30 26  1  0  0  0  0
 30 31  1  0  0  0  0
 31 32  2  0  0  0  0
 32 35  1  0  0  0  0
 33 31  1  0  0  0  0
 33 36  1  0  0  0  0
 34 30  1  0  0  0  0
 37 33  1  0  0  0  0
M  END
>  <minimizedAffinity>
-4.62336731

>  <minimizedRMSD>
0.370043814

$$$$
