
 OpenBabel03252514073D

 42 44  0  0  0  0  0  0  0  0999 V2000
   34.1950   29.9960   47.3870 C   0  0  0  0  0  0  0  0  0  0  0  0
   35.1470   29.7380   48.4000 C   0  0  0  0  0  0  0  0  0  0  0  0
   35.0530   28.5020   49.0110 C   0  0  0  0  0  0  0  0  0  0  0  0
   34.0930   27.6290   48.6260 N   0  0  0  0  0  0  0  0  0  0  0  0
   33.2020   27.8950   47.6650 C   0  0  0  0  0  0  0  0  0  0  0  0
   33.2650   29.0940   47.0470 N   0  0  0  0  0  0  0  0  0  0  0  0
   34.1690   30.9460   46.8300 H   0  0  0  0  0  0  0  0  0  0  0  0
   35.7810   28.3170   49.7770 H   0  0  0  0  0  0  0  0  0  0  0  0
   36.0890   30.7470   48.6940 N   0  0  0  0  0  0  0  0  0  0  0  0
   36.1410   31.4030   49.8900 C   0  0  0  0  0  0  0  0  0  0  0  0
   37.1490   32.3010   49.8440 N   0  0  0  0  0  0  0  0  0  0  0  0
   37.7130   32.1930   48.6200 C   0  0  0  0  0  0  0  0  0  0  0  0
   38.7610   32.8390   48.0050 C   0  0  0  0  0  0  0  0  0  0  0  0
   39.1220   32.5250   46.7420 N   0  0  0  0  0  0  0  0  0  0  0  0
   38.4720   31.5730   46.0390 C   0  0  0  0  0  0  0  0  0  0  0  0
   37.4510   30.9500   46.6490 N   0  0  0  0  0  0  0  0  0  0  0  0
   37.0520   31.2170   47.8900 C   0  0  0  0  0  0  0  0  0  0  0  0
   35.5380   31.3070   50.7830 H   0  0  0  0  0  0  0  0  0  0  0  0
   38.7670   31.3270   45.0250 H   0  0  0  0  0  0  0  0  0  0  0  0
   39.4700   33.8390   48.6990 N   0  0  0  0  0  0  0  0  0  0  0  0
   39.0230   34.3760   49.5010 H   0  0  0  0  0  0  0  0  0  0  0  0
   40.4580   34.1030   48.4640 H   0  0  0  0  0  0  0  0  0  0  0  0
   32.1570   26.9290   47.2610 C   0  0  0  0  0  0  0  0  0  0  0  0
   31.2650   26.6180   48.4520 C   0  0  0  0  0  0  0  0  0  0  0  0
   31.8560   26.3440   49.3470 H   0  0  0  0  0  0  0  0  0  0  0  0
   30.4540   25.9300   48.1930 H   0  0  0  0  0  0  0  0  0  0  0  0
   30.7390   27.5720   48.7600 H   0  0  0  0  0  0  0  0  0  0  0  0
   31.2140   27.5850   46.2360 C   0  0  0  0  0  0  0  0  0  0  0  0
   30.2040   27.1230   46.2800 H   0  0  0  0  0  0  0  0  0  0  0  0
   31.1070   28.6340   46.6170 H   0  0  0  0  0  0  0  0  0  0  0  0
   31.6230   27.5500   45.2220 H   0  0  0  0  0  0  0  0  0  0  0  0
   32.6910   25.7140   46.5870 C   0  0  0  0  0  0  0  0  0  0  0  0
   31.8280   24.9820   46.5310 H   0  0  0  0  0  0  0  0  0  0  0  0
   32.9470   25.9180   45.5220 H   0  0  0  0  0  0  0  0  0  0  0  0
   33.7670   25.0460   47.2780 N   0  0  0  0  0  0  0  0  0  0  0  0
   34.0390   23.6560   47.2820 C   0  0  0  0  0  0  0  0  0  0  0  0
   33.6690   23.0330   46.1980 N   0  0  0  0  0  0  0  0  0  0  0  0
   34.6660   22.9680   48.3550 N   0  0  0  0  0  0  0  0  0  0  0  0
   34.4240   25.6660   47.8450 H   0  0  0  0  0  0  0  0  0  0  0  0
   33.8110   22.0150   46.0740 H   0  0  0  0  0  0  0  0  0  0  0  0
   35.4500   22.3580   47.9870 H   0  0  0  0  0  0  0  0  0  0  0  0
   34.5350   22.9290   49.3800 H   0  0  0  0  0  0  0  0  0  0  0  0
  1  2  1  0  0  0  0
  2  9  1  0  0  0  0
  2  3  2  0  0  0  0
  3  8  1  0  0  0  0
  4  3  1  0  0  0  0
  5  4  2  0  0  0  0
  6  1  2  0  0  0  0
  6  5  1  0  0  0  0
  7  1  1  0  0  0  0
  9 10  1  0  0  0  0
 10 18  1  0  0  0  0
 11 10  2  0  0  0  0
 12 11  1  0  0  0  0
 13 12  1  0  0  0  0
 13 20  1  0  0  0  0
 14 13  2  0  0  0  0
 15 16  2  0  0  0  0
 15 14  1  0  0  0  0
 16 17  1  0  0  0  0
 17 12  2  0  0  0  0
 17  9  1  0  0  0  0
 19 15  1  0  0  0  0
 20 21  1  0  0  0  0
 22 20  1  0  0  0  0
 23  5  1  0  0  0  0
 23 24  1  0  0  0  0
 24 27  1  0  0  0  0
 24 25  1  0  0  0  0
 26 24  1  0  0  0  0
 28 29  1  0  0  0  0
 28 30  1  0  0  0  0
 28 23  1  0  0  0  0
 31 28  1  0  0  0  0
 32 23  1  0  0  0  0
 32 35  1  0  0  0  0
 33 32  1  0  0  0  0
 34 32  1  0  0  0  0
 35 36  1  0  0  0  0
 35 39  1  0  0  0  0
 36 38  1  0  0  0  0
 37 36  2  0  0  0  0
 38 42  1  0  0  0  0
 40 37  1  0  0  0  0
 41 38  1  0  0  0  0
M  END
>  <minimizedAffinity>
-5.13489819

>  <minimizedRMSD>
0.996652484

$$$$
