REMARK  Name = 
REMARK  7 active torsions:
REMARK  status: ('A' for Active; 'I' for Inactive)
REMARK    1  A    between atoms: N_1  and  C_12
REMARK    2  A    between atoms: C_5  and  N_10
REMARK    3  A    between atoms: C_15  and  C_17
REMARK    4  A    between atoms: C_17  and  C_18
REMARK    5  A    between atoms: C_17  and  C_19
REMARK    6  A    between atoms: C_17  and  C_20
REMARK    7  A    between atoms: C_20  and  N_35
REMARK                            x       y       z     vdW  Elec       q    Type
REMARK                         _______ _______ _______ _____ _____    ______ ____
ROOT
ATOM      1  C   UNL     1      34.663  29.974  47.402  0.00  0.00    +0.000 A 
ATOM      2  C   UNL     1      35.538  29.883  48.510  0.00  0.00    +0.000 A 
ATOM      3  C   UNL     1      35.432  28.730  49.264  0.00  0.00    +0.000 A 
ATOM      4  N   UNL     1      34.533  27.778  48.922  0.00  0.00    +0.000 NA
ATOM      5  C   UNL     1      33.715  27.886  47.870  0.00  0.00    +0.000 A 
ATOM      6  N   UNL     1      33.791  29.000  47.110  0.00  0.00    +0.000 NA
ATOM      7  H   UNL     1      34.654  30.845  46.728  0.00  0.00    +0.000 HD
ATOM      8  H   UNL     1      36.101  28.672  50.101  0.00  0.00    +0.000 HD
ENDROOT
BRANCH   2   9
ATOM      9  N   UNL     1      36.422  30.958  48.743  0.00  0.00    +0.000 N 
ATOM     10  C   UNL     1      36.386  31.732  49.867  0.00  0.00    +0.000 A 
ATOM     11  N   UNL     1      37.359  32.665  49.777  0.00  0.00    +0.000 NA
ATOM     12  C   UNL     1      37.989  32.460  48.599  0.00  0.00    +0.000 A 
ATOM     13  C   UNL     1      39.041  33.088  47.971  0.00  0.00    +0.000 A 
ATOM     14  N   UNL     1      39.479  32.666  46.766  0.00  0.00    +0.000 NA
ATOM     15  C   UNL     1      38.905  31.620  46.134  0.00  0.00    +0.000 A 
ATOM     16  N   UNL     1      37.879  31.016  46.755  0.00  0.00    +0.000 NA
ATOM     17  C   UNL     1      37.406  31.388  47.942  0.00  0.00    +0.000 A 
ATOM     18  H   UNL     1      35.742  31.699  50.735  0.00  0.00    +0.000 HD
ATOM     19  H   UNL     1      39.261  31.287  45.165  0.00  0.00    +0.000 HD
BRANCH  13  20
ATOM     20  N   UNL     1      39.673  34.183  48.592  0.00  0.00    +0.000 N 
ATOM     21  H   UNL     1      39.164  34.777  49.313  0.00  0.00    +0.000 HD
ATOM     22  H   UNL     1      40.660  34.467  48.379  0.00  0.00    +0.000 HD
ENDBRANCH  13  20
ENDBRANCH   2   9
BRANCH   5  23
ATOM     23  C   UNL     1      32.735  26.836  47.514  0.00  0.00    +0.000 C 
BRANCH  23  24
ATOM     24  C   UNL     1      31.537  26.923  48.445  0.00  0.00    +0.000 C 
ATOM     25  H   UNL     1      31.844  26.957  49.508  0.00  0.00    +0.000 HD
ATOM     26  H   UNL     1      30.767  26.185  48.199  0.00  0.00    +0.000 HD
ATOM     27  H   UNL     1      31.031  27.923  48.281  0.00  0.00    +0.000 HD
ENDBRANCH  23  24
BRANCH  23  28
ATOM     28  C   UNL     1      32.156  27.121  46.116  0.00  0.00    +0.000 C 
ATOM     29  H   UNL     1      31.135  26.693  46.019  0.00  0.00    +0.000 HD
ATOM     30  H   UNL     1      32.043  28.236  46.105  0.00  0.00    +0.000 HD
ATOM     31  H   UNL     1      32.815  26.761  45.319  0.00  0.00    +0.000 HD
ENDBRANCH  23  28
BRANCH  23  32
ATOM     32  C   UNL     1      33.322  25.471  47.430  0.00  0.00    +0.000 C 
ATOM     33  H   UNL     1      32.463  24.775  47.184  0.00  0.00    +0.000 HD
ATOM     34  H   UNL     1      34.010  25.376  46.558  0.00  0.00    +0.000 HD
BRANCH  32  35
ATOM     35  N   UNL     1      33.928  24.983  48.645  0.00  0.00    +0.000 N 
ATOM     36  C   UNL     1      33.916  23.649  49.121  0.00  0.00    +0.000 C 
ATOM     37  N   UNL     1      33.857  22.744  48.185  0.00  0.00    +0.000 NA
ATOM     38  N   UNL     1      33.968  23.292  50.495  0.00  0.00    +0.000 N 
ATOM     39  H   UNL     1      34.436  25.702  49.245  0.00  0.00    +0.000 HD
ATOM     40  H   UNL     1      33.842  21.731  48.400  0.00  0.00    +0.000 HD
ATOM     41  H   UNL     1      34.704  22.545  50.648  0.00  0.00    +0.000 HD
ATOM     42  H   UNL     1      33.467  23.585  51.352  0.00  0.00    +0.000 HD
ENDBRANCH  32  35
ENDBRANCH  23  32
ENDBRANCH   5  23
TORSDOF 7
