
 OpenBabel03252514073D

 42 44  0  0  0  0  0  0  0  0999 V2000
   34.3290   30.0660   47.3940 C   0  0  0  0  0  0  0  0  0  0  0  0
   35.2660   29.8260   48.4270 C   0  0  0  0  0  0  0  0  0  0  0  0
   35.1830   28.5880   49.0350 C   0  0  0  0  0  0  0  0  0  0  0  0
   34.2490   27.6970   48.6310 N   0  0  0  0  0  0  0  0  0  0  0  0
   33.3720   27.9450   47.6530 C   0  0  0  0  0  0  0  0  0  0  0  0
   33.4240   29.1460   47.0360 N   0  0  0  0  0  0  0  0  0  0  0  0
   34.2960   31.0150   46.8370 H   0  0  0  0  0  0  0  0  0  0  0  0
   35.8990   28.4180   49.8160 H   0  0  0  0  0  0  0  0  0  0  0  0
   36.1810   30.8540   48.7390 N   0  0  0  0  0  0  0  0  0  0  0  0
   36.1690   31.5400   49.9190 C   0  0  0  0  0  0  0  0  0  0  0  0
   37.1690   32.4480   49.8980 N   0  0  0  0  0  0  0  0  0  0  0  0
   37.7910   32.3160   48.7060 C   0  0  0  0  0  0  0  0  0  0  0  0
   38.8610   32.9590   48.1250 C   0  0  0  0  0  0  0  0  0  0  0  0
   39.2850   32.6180   46.8900 N   0  0  0  0  0  0  0  0  0  0  0  0
   38.6800   31.6410   46.1810 C   0  0  0  0  0  0  0  0  0  0  0  0
   37.6380   31.0220   46.7570 N   0  0  0  0  0  0  0  0  0  0  0  0
   37.1770   31.3150   47.9710 C   0  0  0  0  0  0  0  0  0  0  0  0
   35.5250   31.4590   50.7840 H   0  0  0  0  0  0  0  0  0  0  0  0
   39.0260   31.3730   45.1880 H   0  0  0  0  0  0  0  0  0  0  0  0
   39.5250   33.9840   48.8270 N   0  0  0  0  0  0  0  0  0  0  0  0
   39.0350   34.5360   49.5930 H   0  0  0  0  0  0  0  0  0  0  0  0
   40.5200   34.2550   48.6330 H   0  0  0  0  0  0  0  0  0  0  0  0
   32.3540   26.9590   47.2280 C   0  0  0  0  0  0  0  0  0  0  0  0
   31.4230   26.6580   48.3900 C   0  0  0  0  0  0  0  0  0  0  0  0
   31.9830   26.4080   49.3120 H   0  0  0  0  0  0  0  0  0  0  0  0
   30.6300   25.9560   48.1140 H   0  0  0  0  0  0  0  0  0  0  0  0
   30.8730   27.6110   48.6620 H   0  0  0  0  0  0  0  0  0  0  0  0
   31.4420   27.5860   46.1570 C   0  0  0  0  0  0  0  0  0  0  0  0
   30.4370   27.1120   46.1720 H   0  0  0  0  0  0  0  0  0  0  0  0
   31.3090   28.6390   46.5150 H   0  0  0  0  0  0  0  0  0  0  0  0
   31.8900   27.5380   45.1590 H   0  0  0  0  0  0  0  0  0  0  0  0
   32.9270   25.7390   46.5970 C   0  0  0  0  0  0  0  0  0  0  0  0
   32.0570   25.0350   46.4280 H   0  0  0  0  0  0  0  0  0  0  0  0
   33.3100   25.9520   45.5710 H   0  0  0  0  0  0  0  0  0  0  0  0
   33.8980   25.0290   47.3930 N   0  0  0  0  0  0  0  0  0  0  0  0
   34.2040   23.6480   47.3230 C   0  0  0  0  0  0  0  0  0  0  0  0
   34.0280   23.1170   46.1460 N   0  0  0  0  0  0  0  0  0  0  0  0
   34.6710   22.8780   48.4220 N   0  0  0  0  0  0  0  0  0  0  0  0
   34.4390   25.6050   48.1080 H   0  0  0  0  0  0  0  0  0  0  0  0
   34.2160   22.1150   45.9610 H   0  0  0  0  0  0  0  0  0  0  0  0
   35.5200   22.3130   48.1340 H   0  0  0  0  0  0  0  0  0  0  0  0
   34.3800   22.7460   49.4060 H   0  0  0  0  0  0  0  0  0  0  0  0
  1  2  1  0  0  0  0
  2  9  1  0  0  0  0
  2  3  2  0  0  0  0
  3  8  1  0  0  0  0
  4  3  1  0  0  0  0
  5  4  2  0  0  0  0
  6  1  2  0  0  0  0
  6  5  1  0  0  0  0
  7  1  1  0  0  0  0
  9 10  1  0  0  0  0
 10 18  1  0  0  0  0
 11 10  2  0  0  0  0
 12 11  1  0  0  0  0
 13 12  1  0  0  0  0
 13 20  1  0  0  0  0
 14 13  2  0  0  0  0
 15 16  2  0  0  0  0
 15 14  1  0  0  0  0
 16 17  1  0  0  0  0
 17 12  2  0  0  0  0
 17  9  1  0  0  0  0
 19 15  1  0  0  0  0
 20 21  1  0  0  0  0
 22 20  1  0  0  0  0
 23  5  1  0  0  0  0
 23 24  1  0  0  0  0
 24 27  1  0  0  0  0
 24 25  1  0  0  0  0
 26 24  1  0  0  0  0
 28 29  1  0  0  0  0
 28 30  1  0  0  0  0
 28 23  1  0  0  0  0
 31 28  1  0  0  0  0
 32 23  1  0  0  0  0
 32 35  1  0  0  0  0
 33 32  1  0  0  0  0
 34 32  1  0  0  0  0
 35 39  1  0  0  0  0
 36 35  1  0  0  0  0
 36 38  1  0  0  0  0
 37 36  2  0  0  0  0
 38 42  1  0  0  0  0
 40 37  1  0  0  0  0
 41 38  1  0  0  0  0
M  END
>  <minimizedAffinity>
-5.13223028

>  <minimizedRMSD>
0.859588206

$$$$
