
 OpenBabel03252512023D

 27 28  0  0  0  0  0  0  0  0999 V2000
   34.2910   29.5000   49.7090 C   0  0  0  0  0  0  0  0  0  0  0  0
   33.7610   30.1750   49.0730 H   0  0  0  0  0  0  0  0  0  0  0  0
   33.7120   29.4970   50.6910 H   0  0  0  0  0  0  0  0  0  0  0  0
   35.6800   29.9320   50.0970 C   0  0  0  0  0  0  0  0  0  0  0  0
   36.2310   29.5730   51.3040 C   0  0  0  0  0  0  0  0  0  0  0  0
   37.4880   29.9840   51.6820 C   0  0  0  0  0  0  0  0  0  0  0  0
   38.1720   30.7660   50.8070 N   0  0  0  0  0  0  0  0  0  0  0  0
   37.6510   31.1230   49.6310 C   0  0  0  0  0  0  0  0  0  0  0  0
   36.4170   30.7150   49.2690 N   0  0  0  0  0  0  0  0  0  0  0  0
   35.6810   28.9410   52.0100 H   0  0  0  0  0  0  0  0  0  0  0  0
   37.9010   29.6920   52.6300 H   0  0  0  0  0  0  0  0  0  0  0  0
   38.4180   31.9640   48.7210 C   0  0  0  0  0  0  0  0  0  0  0  0
   38.3940   33.2100   48.8250 O   0  0  0  0  0  0  0  0  0  0  0  0
   39.1900   31.4120   47.7200 O   0  0  0  0  0  0  0  0  0  0  0  0
   39.9800   31.8470   47.2960 H   0  0  0  0  0  0  0  0  0  0  0  0
   34.4250   28.0620   49.2830 C   0  0  0  0  0  0  0  0  0  0  0  0
   35.4710   27.6550   49.4270 H   0  0  0  0  0  0  0  0  0  0  0  0
   33.7750   27.3940   49.9300 H   0  0  0  0  0  0  0  0  0  0  0  0
   33.8350   26.5840   47.4140 C   0  0  0  0  0  0  0  0  0  0  0  0
   34.0270   27.8700   47.9270 C   0  0  0  0  0  0  0  0  0  0  0  0
   33.8090   28.9290   47.0780 C   0  0  0  0  0  0  0  0  0  0  0  0
   33.4200   28.7150   45.7870 N   0  0  0  0  0  0  0  0  0  0  0  0
   33.2420   27.4630   45.3170 C   0  0  0  0  0  0  0  0  0  0  0  0
   33.4520   26.4160   46.1330 N   0  0  0  0  0  0  0  0  0  0  0  0
   34.0100   25.7590   48.0910 H   0  0  0  0  0  0  0  0  0  0  0  0
   33.9000   29.9890   47.2400 H   0  0  0  0  0  0  0  0  0  0  0  0
   32.9340   27.2370   44.3020 H   0  0  0  0  0  0  0  0  0  0  0  0
  1  4  1  0  0  0  0
  1  3  1  0  0  0  0
  2  1  1  0  0  0  0
  4  5  1  0  0  0  0
  5  6  2  0  0  0  0
  5 10  1  0  0  0  0
  6 11  1  0  0  0  0
  7  6  1  0  0  0  0
  8  7  2  0  0  0  0
  9  8  1  0  0  0  0
  9  4  2  0  0  0  0
 12 13  2  0  0  0  0
 12  8  1  0  0  0  0
 14 12  1  0  0  0  0
 15 14  1  0  0  0  0
 16 17  1  0  0  0  0
 16  1  1  0  0  0  0
 16 18  1  0  0  0  0
 19 20  1  0  0  0  0
 19 25  1  0  0  0  0
 20 16  1  0  0  0  0
 21 26  1  0  0  0  0
 21 20  2  0  0  0  0
 22 21  1  0  0  0  0
 23 22  2  0  0  0  0
 23 24  1  0  0  0  0
 24 19  2  0  0  0  0
 27 23  1  0  0  0  0
M  END
>  <minimizedAffinity>
-5.00495911

>  <minimizedRMSD>
5.384408

$$$$
