REMARK  Name = 
REMARK  7 active torsions:
REMARK  status: ('A' for Active; 'I' for Inactive)
REMARK    1  A    between atoms: N_1  and  C_12
REMARK    2  A    between atoms: C_5  and  N_10
REMARK    3  A    between atoms: C_15  and  C_17
REMARK    4  A    between atoms: C_17  and  C_18
REMARK    5  A    between atoms: C_17  and  C_19
REMARK    6  A    between atoms: C_17  and  C_20
REMARK    7  A    between atoms: C_20  and  S_35
REMARK                            x       y       z     vdW  Elec       q    Type
REMARK                         _______ _______ _______ _____ _____    ______ ____
ROOT
ATOM      1  C   UNL     1      34.656  29.988  47.410  0.00  0.00    +0.000 A 
ATOM      2  C   UNL     1      35.526  29.887  48.503  0.00  0.00    +0.000 A 
ATOM      3  C   UNL     1      35.436  28.726  49.263  0.00  0.00    +0.000 A 
ATOM      4  N   UNL     1      34.539  27.773  48.924  0.00  0.00    +0.000 NA
ATOM      5  C   UNL     1      33.720  27.887  47.881  0.00  0.00    +0.000 A 
ATOM      6  N   UNL     1      33.785  28.999  47.129  0.00  0.00    +0.000 NA
ATOM      7  H   UNL     1      34.665  30.870  46.764  0.00  0.00    +0.000 HD
ATOM      8  H   UNL     1      36.107  28.648  50.106  0.00  0.00    +0.000 HD
ENDROOT
BRANCH   2   9
ATOM      9  N   UNL     1      36.417  30.965  48.743  0.00  0.00    +0.000 N 
ATOM     10  C   UNL     1      36.386  31.740  49.867  0.00  0.00    +0.000 A 
ATOM     11  N   UNL     1      37.364  32.668  49.776  0.00  0.00    +0.000 NA
ATOM     12  C   UNL     1      37.987  32.459  48.602  0.00  0.00    +0.000 A 
ATOM     13  C   UNL     1      39.045  33.077  47.963  0.00  0.00    +0.000 A 
ATOM     14  N   UNL     1      39.477  32.661  46.772  0.00  0.00    +0.000 NA
ATOM     15  C   UNL     1      38.901  31.616  46.131  0.00  0.00    +0.000 A 
ATOM     16  N   UNL     1      37.872  31.016  46.753  0.00  0.00    +0.000 NA
ATOM     17  C   UNL     1      37.402  31.397  47.951  0.00  0.00    +0.000 A 
ATOM     18  H   UNL     1      35.716  31.680  50.733  0.00  0.00    +0.000 HD
ATOM     19  H   UNL     1      39.259  31.277  45.151  0.00  0.00    +0.000 HD
BRANCH  13  20
ATOM     20  N   UNL     1      39.686  34.176  48.587  0.00  0.00    +0.000 N 
ATOM     21  H   UNL     1      39.169  34.852  49.196  0.00  0.00    +0.000 HD
ATOM     22  H   UNL     1      40.714  34.358  48.462  0.00  0.00    +0.000 HD
ENDBRANCH  13  20
ENDBRANCH   2   9
BRANCH   5  23
ATOM     23  C   UNL     1      32.733  26.859  47.493  0.00  0.00    +0.000 C 
BRANCH  23  24
ATOM     24  C   UNL     1      31.538  26.897  48.432  0.00  0.00    +0.000 C 
ATOM     25  H   UNL     1      31.852  26.471  49.428  0.00  0.00    +0.000 HD
ATOM     26  H   UNL     1      31.219  27.947  48.555  0.00  0.00    +0.000 HD
ATOM     27  H   UNL     1      30.753  26.233  48.064  0.00  0.00    +0.000 HD
ENDBRANCH  23  24
BRANCH  23  28
ATOM     28  C   UNL     1      32.159  27.115  46.106  0.00  0.00    +0.000 C 
ATOM     29  H   UNL     1      32.988  27.291  45.399  0.00  0.00    +0.000 HD
ATOM     30  H   UNL     1      31.561  26.215  45.853  0.00  0.00    +0.000 HD
ATOM     31  H   UNL     1      31.463  27.977  46.203  0.00  0.00    +0.000 HD
ENDBRANCH  23  28
BRANCH  23  32
ATOM     32  C   UNL     1      33.331  25.474  47.444  0.00  0.00    +0.000 C 
ATOM     33  H   UNL     1      32.575  24.746  47.142  0.00  0.00    +0.000 HD
ATOM     34  H   UNL     1      33.771  25.223  48.426  0.00  0.00    +0.000 HD
BRANCH  32  35
ATOM     35  S   UNL     1      34.677  25.419  46.243  0.00  0.00    +0.000 S 
ATOM     36  H   UNL     1      34.791  26.601  45.491  0.00  0.00    +0.000 HD
ENDBRANCH  32  35
ENDBRANCH  23  32
ENDBRANCH   5  23
TORSDOF 7
