
     RDKit          3D

 36 38  0  0  0  0  0  0  0  0999 V2000
   36.4174   30.9654   48.7432 N   0  0  0  0  0  0  0  0  0  0  0  0
   36.3865   31.7397   49.8665 C   0  0  0  0  0  0  0  0  0  0  0  0
   37.3639   32.6681   49.7758 N   0  0  0  0  0  0  0  0  0  0  0  0
   37.9869   32.4592   48.6018 C   0  0  0  0  0  0  0  0  0  0  0  0
   39.0455   33.0771   47.9632 C   0  0  0  0  0  0  0  0  0  0  0  0
   39.4770   32.6611   46.7718 N   0  0  0  0  0  0  0  0  0  0  0  0
   38.9006   31.6159   46.1314 C   0  0  0  0  0  0  0  0  0  0  0  0
   37.8718   31.0164   46.7534 N   0  0  0  0  0  0  0  0  0  0  0  0
   37.4017   31.3973   47.9506 C   0  0  0  0  0  0  0  0  0  0  0  0
   39.6863   34.1757   48.5868 N   0  0  0  0  0  0  0  0  0  0  0  0
   34.6556   29.9879   47.4103 C   0  0  0  0  0  0  0  0  0  0  0  0
   35.5258   29.8871   48.5033 C   0  0  0  0  0  0  0  0  0  0  0  0
   35.4358   28.7262   49.2627 C   0  0  0  0  0  0  0  0  0  0  0  0
   34.5392   27.7727   48.9243 N   0  0  0  0  0  0  0  0  0  0  0  0
   33.7199   27.8865   47.8813 C   0  0  0  0  0  0  0  0  0  0  0  0
   33.7852   28.9990   47.1289 N   0  0  0  0  0  0  0  0  0  0  0  0
   32.7327   26.8586   47.4927 C   0  0  0  0  0  0  0  0  0  0  0  0
   31.5383   26.8973   48.4319 C   0  0  0  0  0  0  0  0  0  0  0  0
   32.1594   27.1146   46.1064 C   0  0  0  0  0  0  0  0  0  0  0  0
   33.3314   25.4743   47.4439 C   0  0  0  0  0  0  0  0  0  0  0  0
   35.7156   31.6795   50.7333 H   0  0  0  0  0  0  0  0  0  0  0  0
   39.2587   31.2767   45.1511 H   0  0  0  0  0  0  0  0  0  0  0  0
   39.1694   34.8515   49.1958 H   0  0  0  0  0  0  0  0  0  0  0  0
   40.7140   34.3577   48.4620 H   0  0  0  0  0  0  0  0  0  0  0  0
   34.6650   30.8699   46.7644 H   0  0  0  0  0  0  0  0  0  0  0  0
   36.1067   28.6475   50.1060 H   0  0  0  0  0  0  0  0  0  0  0  0
   31.8524   26.4705   49.4283 H   0  0  0  0  0  0  0  0  0  0  0  0
   31.2186   27.9473   48.5548 H   0  0  0  0  0  0  0  0  0  0  0  0
   30.7526   26.2331   48.0642 H   0  0  0  0  0  0  0  0  0  0  0  0
   32.9884   27.2906   45.3990 H   0  0  0  0  0  0  0  0  0  0  0  0
   31.5610   26.2149   45.8530 H   0  0  0  0  0  0  0  0  0  0  0  0
   31.4635   27.9770   46.2035 H   0  0  0  0  0  0  0  0  0  0  0  0
   32.5748   24.7462   47.1423 H   0  0  0  0  0  0  0  0  0  0  0  0
   33.7708   25.2227   48.4260 H   0  0  0  0  0  0  0  0  0  0  0  0
   34.6767   25.4187   46.2428 S   0  0  0  0  0  0  0  0  0  0  0  0
   34.7907   26.6014   45.4906 H   0  0  0  0  0  0  0  0  0  0  0  0
  1  2  1  0
  3  2  2  0
  4  3  1  0
  5 10  1  0
  5  4  2  0
  6  5  1  0
  7  8  1  0
  7  6  2  0
  8  9  2  0
  9  4  1  0
  9  1  1  0
 11 12  2  0
 12  1  1  0
 12 13  1  0
 14 13  2  0
 15 14  1  0
 16 11  1  0
 16 15  2  0
 17 15  1  0
 17 18  1  0
 19 17  1  0
 20 17  1  0
  2 21  1  0
  7 22  1  0
 10 23  1  0
 10 24  1  0
 11 25  1  0
 13 26  1  0
 18 27  1  0
 18 28  1  0
 18 29  1  0
 19 30  1  0
 19 31  1  0
 19 32  1  0
 20 33  1  0
 20 34  1  0
 35 36  1  0
 20 35  1  0
M  ISO  8  21  14  22  14  25  14  26  14  27   8  28   8  29   8  30   8
M  ISO  5  31   8  32   8  33   8  34   8  36  11
M  END
>  <DihAtoms>  (1) 
16,19,34,35

>  <DihDeg>  (1) 
-157.18803740659075

$$$$
