
 OpenBabel03252511333D

 26 27  0  0  0  0  0  0  0  0999 V2000
   38.0170   30.9420   45.9740 C   0  0  0  0  0  0  0  0  0  0  0  0
   36.7930   30.4880   45.4580 C   0  0  0  0  0  0  0  0  0  0  0  0
   36.5980   30.1500   44.1450 C   0  0  0  0  0  0  0  0  0  0  0  0
   37.6600   30.2590   43.2700 C   0  0  0  0  0  0  0  0  0  0  0  0
   38.8720   30.7010   43.7530 C   0  0  0  0  0  0  0  0  0  0  0  0
   39.0580   31.0420   45.0980 C   0  0  0  0  0  0  0  0  0  0  0  0
   35.9730   30.4160   46.1860 H   0  0  0  0  0  0  0  0  0  0  0  0
   35.6010   29.8170   43.8950 H   0  0  0  0  0  0  0  0  0  0  0  0
   37.5020   29.9960   42.2520 H   0  0  0  0  0  0  0  0  0  0  0  0
   39.6670   30.7650   43.0130 H   0  0  0  0  0  0  0  0  0  0  0  0
   37.7890   30.7610   49.6120 C   0  0  0  0  0  0  0  0  0  0  0  0
   38.2890   32.0050   50.0200 C   0  0  0  0  0  0  0  0  0  0  0  0
   38.7050   32.8960   49.0250 C   0  0  0  0  0  0  0  0  0  0  0  0
   38.6020   32.5070   47.7420 N   0  0  0  0  0  0  0  0  0  0  0  0
   38.1170   31.3010   47.3720 C   0  0  0  0  0  0  0  0  0  0  0  0
   37.7210   30.4550   48.3280 N   0  0  0  0  0  0  0  0  0  0  0  0
   38.3630   32.2950   51.0580 H   0  0  0  0  0  0  0  0  0  0  0  0
   39.0990   33.8710   49.3000 H   0  0  0  0  0  0  0  0  0  0  0  0
   37.3300   29.8110   50.6850 C   0  0  0  0  0  0  0  0  0  0  0  0
   35.9390   29.7050   50.6270 F   0  0  0  0  0  0  0  0  0  0  0  0
   37.9520   28.6320   50.4950 F   0  0  0  0  0  0  0  0  0  0  0  0
   37.6470   30.3780   51.9170 F   0  0  0  0  0  0  0  0  0  0  0  0
   40.4130   31.4480   45.4440 C   0  0  0  0  0  0  0  0  0  0  0  0
   41.0470   32.5120   45.3890 O   0  0  0  0  0  0  0  0  0  0  0  0
   41.3550   30.6180   45.9600 O   0  0  0  0  0  0  0  0  0  0  0  0
   41.9410   30.8630   46.7430 H   0  0  0  0  0  0  0  0  0  0  0  0
  1 15  1  0  0  0  0
  2  1  1  0  0  0  0
  2  7  1  0  0  0  0
  3  2  2  0  0  0  0
  4  5  2  0  0  0  0
  4  3  1  0  0  0  0
  5  6  1  0  0  0  0
  6 23  1  0  0  0  0
  6  1  2  0  0  0  0
  8  3  1  0  0  0  0
  9  4  1  0  0  0  0
 10  5  1  0  0  0  0
 11 12  1  0  0  0  0
 11 19  1  0  0  0  0
 12 17  1  0  0  0  0
 13 18  1  0  0  0  0
 13 12  2  0  0  0  0
 14 13  1  0  0  0  0
 15 14  2  0  0  0  0
 15 16  1  0  0  0  0
 16 11  2  0  0  0  0
 19 22  1  0  0  0  0
 20 19  1  0  0  0  0
 21 19  1  0  0  0  0
 23 25  1  0  0  0  0
 24 23  2  0  0  0  0
 25 26  1  0  0  0  0
M  END
>  <minimizedAffinity>
-6.26520348

>  <minimizedRMSD>
1.74341083

$$$$
