
 OpenBabel03252513063D

 32 33  0  0  0  0  0  0  0  0999 V2000
   37.2230   31.0070   45.2310 C   0  0  0  0  0  0  0  0  0  0  0  0
   37.2900   29.9400   44.8990 H   0  0  0  0  0  0  0  0  0  0  0  0
   36.1180   31.1930   45.2790 H   0  0  0  0  0  0  0  0  0  0  0  0
   37.7510   31.8010   44.1830 N   0  0  0  0  0  0  0  0  0  0  0  0
   38.9940   32.1980   43.9720 C   0  0  0  0  0  0  0  0  0  0  0  0
   39.4060   32.9700   42.9190 C   0  0  0  0  0  0  0  0  0  0  0  0
   38.4900   33.3870   41.9840 C   0  0  0  0  0  0  0  0  0  0  0  0
   38.7960   34.0930   40.9980 O   0  0  0  0  0  0  0  0  0  0  0  0
   37.2520   33.0000   42.1800 N   0  0  0  0  0  0  0  0  0  0  0  0
   36.8680   32.2490   43.2100 C   0  0  0  0  0  0  0  0  0  0  0  0
   35.6480   31.9360   43.2980 O   0  0  0  0  0  0  0  0  0  0  0  0
   39.7220   31.8630   44.7200 H   0  0  0  0  0  0  0  0  0  0  0  0
   40.4540   33.2460   42.8310 H   0  0  0  0  0  0  0  0  0  0  0  0
   36.2500   33.4270   41.2050 C   0  0  0  0  0  0  0  0  0  0  0  0
   35.2120   32.5110   41.1610 F   0  0  0  0  0  0  0  0  0  0  0  0
   36.8820   33.4080   39.9570 F   0  0  0  0  0  0  0  0  0  0  0  0
   35.8300   34.6830   41.5300 F   0  0  0  0  0  0  0  0  0  0  0  0
   37.7800   31.1220   46.5850 C   0  0  0  0  0  0  0  0  0  0  0  0
   38.0680   32.1780   46.7820 H   0  0  0  0  0  0  0  0  0  0  0  0
   38.7620   30.5660   46.6030 H   0  0  0  0  0  0  0  0  0  0  0  0
   34.8490   29.7410   48.5180 C   0  0  0  0  0  0  0  0  0  0  0  0
   35.6120   30.2980   47.4620 C   0  0  0  0  0  0  0  0  0  0  0  0
   36.9530   30.5480   47.6490 C   0  0  0  0  0  0  0  0  0  0  0  0
   37.5040   30.2430   48.8730 N   0  0  0  0  0  0  0  0  0  0  0  0
   36.7670   29.7260   49.8360 C   0  0  0  0  0  0  0  0  0  0  0  0
   35.4670   29.4660   49.7030 N   0  0  0  0  0  0  0  0  0  0  0  0
   33.7960   29.5460   48.3710 H   0  0  0  0  0  0  0  0  0  0  0  0
   35.1070   30.5140   46.5180 H   0  0  0  0  0  0  0  0  0  0  0  0
   37.3920   29.4170   51.1190 C   0  0  0  0  0  0  0  0  0  0  0  0
   37.2350   30.1360   52.1430 O   0  0  0  0  0  0  0  0  0  0  0  0
   38.2090   28.3230   51.3460 O   0  0  0  0  0  0  0  0  0  0  0  0
   39.0730   28.3630   51.8800 H   0  0  0  0  0  0  0  0  0  0  0  0
  1  3  1  0  0  0  0
  1 18  1  0  0  0  0
  2  1  1  0  0  0  0
  4  1  1  0  0  0  0
  5  4  1  0  0  0  0
  5 12  1  0  0  0  0
  6  5  2  0  0  0  0
  7  9  1  0  0  0  0
  7  6  1  0  0  0  0
  8  7  2  0  0  0  0
  9 10  1  0  0  0  0
 10 11  2  0  0  0  0
 10  4  1  0  0  0  0
 13  6  1  0  0  0  0
 14 17  1  0  0  0  0
 14  9  1  0  0  0  0
 15 14  1  0  0  0  0
 16 14  1  0  0  0  0
 18 20  1  0  0  0  0
 18 19  1  0  0  0  0
 18 23  1  0  0  0  0
 21 26  1  0  0  0  0
 22 23  1  0  0  0  0
 22 21  2  0  0  0  0
 23 24  2  0  0  0  0
 24 25  1  0  0  0  0
 25 29  1  0  0  0  0
 26 25  2  0  0  0  0
 27 21  1  0  0  0  0
 28 22  1  0  0  0  0
 29 31  1  0  0  0  0
 29 30  2  0  0  0  0
 31 32  1  0  0  0  0
M  END
>  <minimizedAffinity>
-4.9971118

>  <minimizedRMSD>
1.90196896

$$$$
