
 OpenBabel03252513413D

 14 14  0  0  0  0  0  0  0  0999 V2000
   37.1570   31.6930   49.0820 C   0  0  0  0  0  0  0  0  0  0  0  0
   38.1170   32.6510   49.4920 C   0  0  0  0  0  0  0  0  0  0  0  0
   39.0140   33.1300   48.5120 C   0  0  0  0  0  0  0  0  0  0  0  0
   38.9040   32.6510   47.2550 N   0  0  0  0  0  0  0  0  0  0  0  0
   37.9640   31.7280   46.9110 C   0  0  0  0  0  0  0  0  0  0  0  0
   37.1060   31.2610   47.8160 N   0  0  0  0  0  0  0  0  0  0  0  0
   38.1730   33.0100   50.5030 H   0  0  0  0  0  0  0  0  0  0  0  0
   39.7670   33.8660   48.7780 H   0  0  0  0  0  0  0  0  0  0  0  0
   37.9690   31.4170   45.8790 H   0  0  0  0  0  0  0  0  0  0  0  0
   36.2830   31.2250   50.0320 O   0  0  0  0  0  0  0  0  0  0  0  0
   36.5130   29.9580   50.6260 C   0  0  0  0  0  0  0  0  0  0  0  0
   35.1830   29.3180   50.9300 C   0  0  0  0  0  0  0  0  0  0  0  0
   37.3110   30.0550   51.8910 C   0  0  0  0  0  0  0  0  0  0  0  0
   37.3080   29.1450   49.6180 C   0  0  0  0  0  0  0  0  0  0  0  0
  1  2  1  0  0  0  0
  1 10  1  0  0  0  0
  2  7  1  0  0  0  0
  3  8  1  0  0  0  0
  3  2  2  0  0  0  0
  4  3  1  0  0  0  0
  5  4  2  0  0  0  0
  5  6  1  0  0  0  0
  6  1  2  0  0  0  0
  9  5  1  0  0  0  0
 10 11  1  0  0  0  0
 11 12  1  0  0  0  0
 11 13  1  0  0  0  0
 14 11  1  0  0  0  0
M  END
>  <minimizedAffinity>
-4.14292812

>  <minimizedRMSD>
2.82921982

$$$$
