
 OpenBabel03252513473D

 19 19  0  0  0  0  0  0  0  0999 V2000
   37.6720   30.5870   49.2780 C   0  0  0  0  0  0  0  0  0  0  0  0
   38.1820   31.8580   49.7160 C   0  0  0  0  0  0  0  0  0  0  0  0
   38.7150   32.7130   48.7560 C   0  0  0  0  0  0  0  0  0  0  0  0
   38.7190   32.2860   47.4630 N   0  0  0  0  0  0  0  0  0  0  0  0
   38.2360   31.0950   47.0860 C   0  0  0  0  0  0  0  0  0  0  0  0
   37.7230   30.2640   47.9810 N   0  0  0  0  0  0  0  0  0  0  0  0
   38.1440   32.1270   50.7600 H   0  0  0  0  0  0  0  0  0  0  0  0
   38.3260   30.8050   45.6370 C   0  0  0  0  0  0  0  0  0  0  0  0
   38.6300   31.9720   44.9260 F   0  0  0  0  0  0  0  0  0  0  0  0
   39.3640   29.9380   45.3960 F   0  0  0  0  0  0  0  0  0  0  0  0
   37.1710   30.2110   45.1400 F   0  0  0  0  0  0  0  0  0  0  0  0
   39.2500   34.0190   49.1340 C   0  0  0  0  0  0  0  0  0  0  0  0
   39.1730   34.8150   48.4090 H   0  0  0  0  0  0  0  0  0  0  0  0
   39.7680   34.1550   50.2720 O   0  0  0  0  0  0  0  0  0  0  0  0
   37.1450   29.7450   50.2300 O   0  0  0  0  0  0  0  0  0  0  0  0
   35.7880   29.4930   50.4000 C   0  0  0  0  0  0  0  0  0  0  0  0
   35.4420   29.1750   51.7080 F   0  0  0  0  0  0  0  0  0  0  0  0
   34.9560   30.4750   49.9240 F   0  0  0  0  0  0  0  0  0  0  0  0
   35.5300   28.3420   49.6350 F   0  0  0  0  0  0  0  0  0  0  0  0
  1  2  1  0  0  0  0
  1 15  1  0  0  0  0
  2  7  1  0  0  0  0
  3 12  1  0  0  0  0
  3  2  2  0  0  0  0
  4  3  1  0  0  0  0
  5  4  2  0  0  0  0
  5  6  1  0  0  0  0
  6  1  2  0  0  0  0
  8  5  1  0  0  0  0
  9  8  1  0  0  0  0
 10  8  1  0  0  0  0
 11  8  1  0  0  0  0
 12 14  2  0  0  0  0
 13 12  1  0  0  0  0
 15 16  1  0  0  0  0
 16 17  1  0  0  0  0
 18 16  1  0  0  0  0
 19 16  1  0  0  0  0
M  END
>  <minimizedAffinity>
-5.43789673

>  <minimizedRMSD>
0.998157322

$$$$
