
 OpenBabel03252514063D

 25 27  0  0  0  0  0  0  0  0999 V2000
   37.8290   31.8520   49.0200 N   0  0  0  0  0  0  0  0  0  0  0  0
   38.2720   33.0400   49.4960 C   0  0  0  0  0  0  0  0  0  0  0  0
   39.1340   33.5730   48.5820 N   0  0  0  0  0  0  0  0  0  0  0  0
   39.2060   32.7020   47.5620 C   0  0  0  0  0  0  0  0  0  0  0  0
   39.9030   32.7000   46.3750 C   0  0  0  0  0  0  0  0  0  0  0  0
   39.7930   31.6700   45.5010 N   0  0  0  0  0  0  0  0  0  0  0  0
   38.9950   30.6150   45.7660 C   0  0  0  0  0  0  0  0  0  0  0  0
   38.3160   30.6210   46.9250 N   0  0  0  0  0  0  0  0  0  0  0  0
   38.3980   31.6220   47.8180 C   0  0  0  0  0  0  0  0  0  0  0  0
   40.7490   33.7740   46.0470 N   0  0  0  0  0  0  0  0  0  0  0  0
   38.0000   33.5120   50.4410 H   0  0  0  0  0  0  0  0  0  0  0  0
   38.8830   29.7740   45.0900 H   0  0  0  0  0  0  0  0  0  0  0  0
   41.5020   34.1880   46.6250 H   0  0  0  0  0  0  0  0  0  0  0  0
   40.7330   34.3160   45.1430 H   0  0  0  0  0  0  0  0  0  0  0  0
   35.6190   30.8620   49.1710 C   0  0  0  0  0  0  0  0  0  0  0  0
   36.9170   31.0160   49.7050 C   0  0  0  0  0  0  0  0  0  0  0  0
   37.1960   30.3210   50.8830 C   0  0  0  0  0  0  0  0  0  0  0  0
   36.2190   29.5440   51.4460 N   0  0  0  0  0  0  0  0  0  0  0  0
   35.0040   29.4280   50.9030 C   0  0  0  0  0  0  0  0  0  0  0  0
   34.7040   30.0800   49.7760 N   0  0  0  0  0  0  0  0  0  0  0  0
   35.3670   31.3900   48.2520 H   0  0  0  0  0  0  0  0  0  0  0  0
   38.1880   30.4470   51.2800 H   0  0  0  0  0  0  0  0  0  0  0  0
   34.0020   28.5890   51.5420 C   0  0  0  0  0  0  0  0  0  0  0  0
   34.1400   28.2480   52.5690 H   0  0  0  0  0  0  0  0  0  0  0  0
   32.9590   28.2320   50.9430 O   0  0  0  0  0  0  0  0  0  0  0  0
  1  2  1  0  0  0  0
  1 16  1  0  0  0  0
  2 11  1  0  0  0  0
  3  2  2  0  0  0  0
  4  9  1  0  0  0  0
  4  3  1  0  0  0  0
  5  4  2  0  0  0  0
  6  7  2  0  0  0  0
  6  5  1  0  0  0  0
  7  8  1  0  0  0  0
  8  9  2  0  0  0  0
  9  1  1  0  0  0  0
 10  5  1  0  0  0  0
 10 13  1  0  0  0  0
 12  7  1  0  0  0  0
 14 10  1  0  0  0  0
 15 16  2  0  0  0  0
 15 20  1  0  0  0  0
 16 17  1  0  0  0  0
 17 22  1  0  0  0  0
 17 18  2  0  0  0  0
 19 18  1  0  0  0  0
 19 23  1  0  0  0  0
 20 19  2  0  0  0  0
 21 15  1  0  0  0  0
 23 24  1  0  0  0  0
 25 23  2  0  0  0  0
M  END
>  <minimizedAffinity>
-0.599579215

>  <minimizedRMSD>
0.346592128

$$$$
