
 OpenBabel03252514073D

 46 50  0  0  0  0  0  0  0  0999 V2000
   33.4900   23.9900   42.6230 C   0  0  0  0  0  0  0  0  0  0  0  0
   35.2550   27.1650   42.0500 C   0  0  0  0  0  0  0  0  0  0  0  0
   35.1690   27.8240   43.2910 C   0  0  0  0  0  0  0  0  0  0  0  0
   34.4910   27.1490   44.3160 C   0  0  0  0  0  0  0  0  0  0  0  0
   33.9770   25.9290   44.0400 N   0  0  0  0  0  0  0  0  0  0  0  0
   34.0740   25.3260   42.8540 C   0  0  0  0  0  0  0  0  0  0  0  0
   34.7120   25.9450   41.8650 N   0  0  0  0  0  0  0  0  0  0  0  0
   35.7620   27.6030   41.1850 H   0  0  0  0  0  0  0  0  0  0  0  0
   34.4270   27.6570   45.2630 H   0  0  0  0  0  0  0  0  0  0  0  0
   35.7660   29.1080   43.4110 N   0  0  0  0  0  0  0  0  0  0  0  0
   35.0680   30.2550   43.5760 C   0  0  0  0  0  0  0  0  0  0  0  0
   35.9380   31.2870   43.6560 N   0  0  0  0  0  0  0  0  0  0  0  0
   37.1640   30.7640   43.5400 C   0  0  0  0  0  0  0  0  0  0  0  0
   38.4390   31.3060   43.5440 C   0  0  0  0  0  0  0  0  0  0  0  0
   39.5170   30.5410   43.4070 N   0  0  0  0  0  0  0  0  0  0  0  0
   39.4360   29.1810   43.2540 C   0  0  0  0  0  0  0  0  0  0  0  0
   38.1890   28.6720   43.2520 N   0  0  0  0  0  0  0  0  0  0  0  0
   37.0790   29.3950   43.3860 C   0  0  0  0  0  0  0  0  0  0  0  0
   33.9780   30.3020   43.6310 H   0  0  0  0  0  0  0  0  0  0  0  0
   40.3050   28.5460   43.1410 H   0  0  0  0  0  0  0  0  0  0  0  0
   38.6060   32.6960   43.6970 N   0  0  0  0  0  0  0  0  0  0  0  0
   39.1630   33.1210   42.9220 H   0  0  0  0  0  0  0  0  0  0  0  0
   38.1610   33.1260   44.5550 H   0  0  0  0  0  0  0  0  0  0  0  0
   32.0000   23.9950   43.0120 C   0  0  0  0  0  0  0  0  0  0  0  0
   31.4590   23.1490   42.5780 H   0  0  0  0  0  0  0  0  0  0  0  0
   31.9160   23.9650   44.1180 H   0  0  0  0  0  0  0  0  0  0  0  0
   31.5460   24.9410   42.6490 H   0  0  0  0  0  0  0  0  0  0  0  0
   33.4550   23.6970   41.1070 C   0  0  0  0  0  0  0  0  0  0  0  0
   32.8650   24.4590   40.5810 H   0  0  0  0  0  0  0  0  0  0  0  0
   34.4870   23.6250   40.7130 H   0  0  0  0  0  0  0  0  0  0  0  0
   33.0000   22.6880   41.0220 H   0  0  0  0  0  0  0  0  0  0  0  0
   34.2230   22.8590   43.2330 C   0  0  0  0  0  0  0  0  0  0  0  0
   33.6070   21.9260   43.0330 H   0  0  0  0  0  0  0  0  0  0  0  0
   34.1000   22.9710   44.3550 H   0  0  0  0  0  0  0  0  0  0  0  0
   35.5870   22.6650   42.8680 N   0  0  0  0  0  0  0  0  0  0  0  0
   35.8660   21.7690   41.8740 C   0  0  0  0  0  3  0  0  0  0  0  0
   37.2010   21.6840   41.6590 N   0  0  0  0  0  0  0  0  0  0  0  0
   37.8080   22.5110   42.4950 C   0  0  0  0  0  0  0  0  0  0  0  0
   39.1170   22.8660   42.7450 C   0  0  0  0  0  0  0  0  0  0  0  0
   39.3460   23.7930   43.7110 N   0  0  0  0  0  0  0  0  0  0  0  0
   38.3350   24.3560   44.4110 C   0  0  0  0  0  3  0  0  0  0  0  0
   37.0530   24.0220   44.1810 N   0  0  0  0  0  0  0  0  0  0  0  0
   36.8030   23.1050   43.2290 C   0  0  0  0  0  0  0  0  0  0  0  0
   40.1640   22.2660   42.0010 N   0  0  0  0  0  0  0  0  0  0  0  0
   40.2140   22.5600   41.0030 H   0  0  0  0  0  0  0  0  0  0  0  0
   40.6470   21.6370   42.7060 H   0  0  0  0  0  0  0  0  0  0  0  0
  1  6  1  0  0  0  0
  1 24  1  0  0  0  0
  1 32  1  0  0  0  0
  2  3  1  0  0  0  0
  3 10  1  0  0  0  0
  3  4  2  0  0  0  0
  4  9  1  0  0  0  0
  5  4  1  0  0  0  0
  6  5  2  0  0  0  0
  7  2  2  0  0  0  0
  7  6  1  0  0  0  0
  8  2  1  0  0  0  0
 10 11  1  0  0  0  0
 11 19  1  0  0  0  0
 11 12  2  0  0  0  0
 13 14  1  0  0  0  0
 13 12  1  0  0  0  0
 14 21  1  0  0  0  0
 15 14  2  0  0  0  0
 16 15  1  0  0  0  0
 17 16  2  0  0  0  0
 17 18  1  0  0  0  0
 18 10  1  0  0  0  0
 18 13  2  0  0  0  0
 20 16  1  0  0  0  0
 21 23  1  0  0  0  0
 22 21  1  0  0  0  0
 24 26  1  0  0  0  0
 25 24  1  0  0  0  0
 27 24  1  0  0  0  0
 28  1  1  0  0  0  0
 29 28  1  0  0  0  0
 30 28  1  0  0  0  0
 31 28  1  0  0  0  0
 32 34  1  0  0  0  0
 33 32  1  0  0  0  0
 35 43  1  0  0  0  0
 35 32  1  0  0  0  0
 36 35  1  0  0  0  0
 37 36  2  0  0  0  0
 37 38  1  0  0  0  0
 38 39  2  0  0  0  0
 38 43  1  0  0  0  0
 39 40  1  0  0  0  0
 40 41  2  0  0  0  0
 42 41  1  0  0  0  0
 43 42  2  0  0  0  0
 44 46  1  0  0  0  0
 44 39  1  0  0  0  0
 45 44  1  0  0  0  0
M  END
>  <minimizedAffinity>
-2.5486722

>  <minimizedRMSD>
6.61907673

$$$$
