REMARK  Name = 
REMARK  8 active torsions:
REMARK  status: ('A' for Active; 'I' for Inactive)
REMARK    1  A    between atoms: N_1  and  C_12
REMARK    2  A    between atoms: C_5  and  N_10
REMARK    3  A    between atoms: C_15  and  C_17
REMARK    4  A    between atoms: C_17  and  C_18
REMARK    5  A    between atoms: C_17  and  C_19
REMARK    6  A    between atoms: C_17  and  C_20
REMARK    7  A    between atoms: C_20  and  N_35
REMARK    8  A    between atoms: C_39  and  N_40
REMARK                            x       y       z     vdW  Elec       q    Type
REMARK                         _______ _______ _______ _____ _____    ______ ____
ROOT
ATOM      1  C   UNL     1      32.759  26.833  47.512  0.00  0.00    +0.000 C 
ENDROOT
BRANCH   1   6
ATOM      2  C   UNL     1      34.664  29.977  47.391  0.00  0.00    +0.000 A 
ATOM      3  C   UNL     1      35.523  29.889  48.503  0.00  0.00    +0.000 A 
ATOM      4  C   UNL     1      35.425  28.730  49.285  0.00  0.00    +0.000 A 
ATOM      5  N   UNL     1      34.523  27.792  48.917  0.00  0.00    +0.000 NA
ATOM      6  C   UNL     1      33.720  27.899  47.857  0.00  0.00    +0.000 A 
ATOM      7  N   UNL     1      33.794  28.989  47.099  0.00  0.00    +0.000 NA
ATOM      8  H   UNL     1      34.660  30.838  46.716  0.00  0.00    +0.000 HD
ATOM      9  H   UNL     1      36.083  28.668  50.134  0.00  0.00    +0.000 HD
BRANCH   3  10
ATOM     10  N   UNL     1      36.414  30.969  48.748  0.00  0.00    +0.000 N 
ATOM     11  C   UNL     1      36.385  31.737  49.862  0.00  0.00    +0.000 A 
ATOM     12  N   UNL     1      37.363  32.666  49.776  0.00  0.00    +0.000 NA
ATOM     13  C   UNL     1      37.985  32.461  48.609  0.00  0.00    +0.000 A 
ATOM     14  C   UNL     1      39.047  33.080  47.970  0.00  0.00    +0.000 A 
ATOM     15  N   UNL     1      39.478  32.666  46.783  0.00  0.00    +0.000 NA
ATOM     16  C   UNL     1      38.903  31.610  46.123  0.00  0.00    +0.000 A 
ATOM     17  N   UNL     1      37.873  31.021  46.759  0.00  0.00    +0.000 NA
ATOM     18  C   UNL     1      37.405  31.398  47.947  0.00  0.00    +0.000 A 
ATOM     19  H   UNL     1      35.672  31.599  50.678  0.00  0.00    +0.000 HD
ATOM     20  H   UNL     1      39.243  31.262  45.156  0.00  0.00    +0.000 HD
BRANCH  14  21
ATOM     21  N   UNL     1      39.691  34.172  48.584  0.00  0.00    +0.000 N 
ATOM     22  H   UNL     1      39.712  35.020  47.974  0.00  0.00    +0.000 HD
ATOM     23  H   UNL     1      40.064  34.003  49.559  0.00  0.00    +0.000 HD
ENDBRANCH  14  21
ENDBRANCH   3  10
ENDBRANCH   1   6
BRANCH   1  24
ATOM     24  C   UNL     1      31.548  26.893  48.461  0.00  0.00    +0.000 C 
ATOM     25  H   UNL     1      30.687  26.347  48.064  0.00  0.00    +0.000 HD
ATOM     26  H   UNL     1      31.839  26.468  49.444  0.00  0.00    +0.000 HD
ATOM     27  H   UNL     1      31.267  27.957  48.605  0.00  0.00    +0.000 HD
ENDBRANCH   1  24
BRANCH   1  28
ATOM     28  C   UNL     1      32.136  27.128  46.130  0.00  0.00    +0.000 C 
ATOM     29  H   UNL     1      31.628  28.101  46.136  0.00  0.00    +0.000 HD
ATOM     30  H   UNL     1      32.914  27.070  45.345  0.00  0.00    +0.000 HD
ATOM     31  H   UNL     1      31.427  26.292  45.953  0.00  0.00    +0.000 HD
ENDBRANCH   1  28
BRANCH   1  32
ATOM     32  C   UNL     1      33.325  25.470  47.414  0.00  0.00    +0.000 C 
ATOM     33  H   UNL     1      34.029  25.473  46.523  0.00  0.00    +0.000 HD
ATOM     34  H   UNL     1      32.487  24.806  47.035  0.00  0.00    +0.000 HD
BRANCH  32  35
ATOM     35  N   UNL     1      33.955  24.918  48.568  0.00  0.00    +0.000 N 
ATOM     36  C   UNL     1      34.898  25.672  49.209  0.00  0.00    +0.000 A 
ATOM     37  N   UNL     1      35.414  25.004  50.268  0.00  0.00    +0.000 NA
ATOM     38  C   UNL     1      34.827  23.820  50.337  0.00  0.00    +0.000 A 
ATOM     39  C   UNL     1      34.917  22.728  51.175  0.00  0.00    +0.000 A 
ATOM     40  N   UNL     1      34.111  21.666  50.916  0.00  0.00    +0.000 NA
ATOM     41  C   UNL     1      33.246  21.666  49.876  0.00  0.00    +0.000 A 
ATOM     42  N   UNL     1      33.145  22.721  49.049  0.00  0.00    +0.000 NA
ATOM     43  C   UNL     1      33.934  23.784  49.286  0.00  0.00    +0.000 A 
BRANCH  39  44
ATOM     44  N   UNL     1      35.829  22.746  52.260  0.00  0.00    +0.000 N 
ATOM     45  H   UNL     1      35.572  23.392  53.035  0.00  0.00    +0.000 HD
ATOM     46  H   UNL     1      36.578  22.052  51.972  0.00  0.00    +0.000 HD
ENDBRANCH  39  44
ENDBRANCH  32  35
ENDBRANCH   1  32
TORSDOF 8
