
 OpenBabel03252513043D

 32 34  0  0  0  0  0  0  0  0999 V2000
   38.1180   31.8910   45.8240 N   0  0  0  0  0  0  0  0  0  0  0  0
   39.2330   32.5960   45.7890 C   0  0  0  0  0  0  0  0  0  0  0  0
   39.7690   33.2000   44.6870 C   0  0  0  0  0  0  0  0  0  0  0  0
   39.1220   33.0900   43.4850 C   0  0  0  0  0  0  0  0  0  0  0  0
   39.5430   33.6140   42.4230 O   0  0  0  0  0  0  0  0  0  0  0  0
   38.0020   32.3950   43.4760 N   0  0  0  0  0  0  0  0  0  0  0  0
   37.5120   31.8180   44.5850 C   0  0  0  0  0  0  0  0  0  0  0  0
   36.4290   31.1730   44.4620 O   0  0  0  0  0  0  0  0  0  0  0  0
   39.7630   32.6920   46.7470 H   0  0  0  0  0  0  0  0  0  0  0  0
   40.6900   33.7550   44.7680 H   0  0  0  0  0  0  0  0  0  0  0  0
   37.3000   32.2600   42.2380 C   0  0  0  0  0  0  0  0  0  0  0  0
   36.3960   33.2540   41.9800 C   0  0  0  0  0  0  0  0  0  0  0  0
   35.6790   33.1780   40.7860 C   0  0  0  0  0  0  0  0  0  0  0  0
   35.8430   32.1640   39.8770 C   0  0  0  0  0  0  0  0  0  0  0  0
   35.2640   32.1440   38.9610 H   0  0  0  0  0  0  0  0  0  0  0  0
   36.7780   31.1940   40.2110 C   0  0  0  0  0  0  0  0  0  0  0  0
   37.4840   31.2420   41.3550 N   0  0  0  0  0  0  0  0  0  0  0  0
   37.4890   31.2380   46.8970 C   0  0  0  0  0  0  0  0  0  0  0  0
   36.9640   30.3210   46.5500 H   0  0  0  0  0  0  0  0  0  0  0  0
   36.6400   31.9030   47.2360 H   0  0  0  0  0  0  0  0  0  0  0  0
   38.2780   30.9090   48.0960 C   0  0  0  0  0  0  0  0  0  0  0  0
   38.8320   31.8060   48.4380 H   0  0  0  0  0  0  0  0  0  0  0  0
   39.0870   30.1650   47.8410 H   0  0  0  0  0  0  0  0  0  0  0  0
   35.6560   29.1410   50.1580 C   0  0  0  0  0  0  0  0  0  0  0  0
   36.3440   29.6300   49.0150 C   0  0  0  0  0  0  0  0  0  0  0  0
   37.4880   30.3560   49.2100 C   0  0  0  0  0  0  0  0  0  0  0  0
   37.9190   30.5790   50.4810 N   0  0  0  0  0  0  0  0  0  0  0  0
   37.2660   30.1170   51.5480 C   0  0  0  0  0  0  0  0  0  0  0  0
   36.1440   29.4030   51.4070 N   0  0  0  0  0  0  0  0  0  0  0  0
   34.7710   28.5860   49.9000 H   0  0  0  0  0  0  0  0  0  0  0  0
   36.0000   29.4500   48.0140 H   0  0  0  0  0  0  0  0  0  0  0  0
   37.5660   30.2680   52.5700 H   0  0  0  0  0  0  0  0  0  0  0  0
  1 18  1  0  0  0  0
  2  1  1  0  0  0  0
  2  9  1  0  0  0  0
  3 10  1  0  0  0  0
  3  2  2  0  0  0  0
  4  3  1  0  0  0  0
  5  4  2  0  0  0  0
  6  4  1  0  0  0  0
  6  7  1  0  0  0  0
  7  1  1  0  0  0  0
  8  7  2  0  0  0  0
 11  6  1  0  0  0  0
 12 11  1  0  0  0  0
 13 12  2  0  0  0  0
 14 16  2  0  0  0  0
 14 13  1  0  0  0  0
 15 14  1  0  0  0  0
 16 17  1  0  0  0  0
 17 11  2  0  0  0  0
 18 20  1  0  0  0  0
 18 21  1  0  0  0  0
 19 18  1  0  0  0  0
 21 22  1  0  0  0  0
 21 26  1  0  0  0  0
 23 21  1  0  0  0  0
 24 29  1  0  0  0  0
 25 26  1  0  0  0  0
 25 24  2  0  0  0  0
 26 27  2  0  0  0  0
 27 28  1  0  0  0  0
 28 32  1  0  0  0  0
 29 28  2  0  0  0  0
 30 24  1  0  0  0  0
 31 25  1  0  0  0  0
M  END
>  <minimizedAffinity>
-5.19276667

>  <minimizedRMSD>
1.35016453

$$$$
