
 OpenBabel03252514063D

 25 27  0  0  0  0  0  0  0  0999 V2000
   38.8890   32.3910   46.2250 N   0  0  0  0  0  0  0  0  0  0  0  0
   40.0120   33.0920   45.9400 C   0  0  0  0  0  0  0  0  0  0  0  0
   40.0200   33.3640   44.6030 N   0  0  0  0  0  0  0  0  0  0  0  0
   38.9030   32.8240   44.0900 C   0  0  0  0  0  0  0  0  0  0  0  0
   38.3790   32.7770   42.8180 C   0  0  0  0  0  0  0  0  0  0  0  0
   37.2030   32.1520   42.5680 N   0  0  0  0  0  0  0  0  0  0  0  0
   36.5080   31.5550   43.5580 C   0  0  0  0  0  0  0  0  0  0  0  0
   37.0220   31.6030   44.7980 N   0  0  0  0  0  0  0  0  0  0  0  0
   38.1840   32.2130   45.0880 C   0  0  0  0  0  0  0  0  0  0  0  0
   39.0600   33.3830   41.7470 N   0  0  0  0  0  0  0  0  0  0  0  0
   40.7900   33.4000   46.6400 H   0  0  0  0  0  0  0  0  0  0  0  0
   35.5650   31.0460   43.3930 H   0  0  0  0  0  0  0  0  0  0  0  0
   40.0500   33.2550   41.4720 H   0  0  0  0  0  0  0  0  0  0  0  0
   38.6440   34.0660   41.0610 H   0  0  0  0  0  0  0  0  0  0  0  0
   38.0710   30.6150   47.6620 C   0  0  0  0  0  0  0  0  0  0  0  0
   38.5470   31.9360   47.5200 C   0  0  0  0  0  0  0  0  0  0  0  0
   38.6410   32.6970   48.6860 C   0  0  0  0  0  0  0  0  0  0  0  0
   38.2750   32.1340   49.8800 N   0  0  0  0  0  0  0  0  0  0  0  0
   37.8300   30.8770   49.9650 C   0  0  0  0  0  0  0  0  0  0  0  0
   37.7280   30.1220   48.8670 N   0  0  0  0  0  0  0  0  0  0  0  0
   37.9850   29.9930   46.7710 H   0  0  0  0  0  0  0  0  0  0  0  0
   39.0040   33.7020   48.5650 H   0  0  0  0  0  0  0  0  0  0  0  0
   37.4550   30.3270   51.2590 C   0  0  0  0  0  0  0  0  0  0  0  0
   38.0410   30.5570   52.1480 H   0  0  0  0  0  0  0  0  0  0  0  0
   36.4560   29.5790   51.3930 O   0  0  0  0  0  0  0  0  0  0  0  0
  1 16  1  0  0  0  0
  2  1  1  0  0  0  0
  2 11  1  0  0  0  0
  3  2  2  0  0  0  0
  4  3  1  0  0  0  0
  4  9  1  0  0  0  0
  5  4  2  0  0  0  0
  6  5  1  0  0  0  0
  6  7  2  0  0  0  0
  7  8  1  0  0  0  0
  8  9  2  0  0  0  0
  9  1  1  0  0  0  0
 10  5  1  0  0  0  0
 12  7  1  0  0  0  0
 13 10  1  0  0  0  0
 14 10  1  0  0  0  0
 15 20  1  0  0  0  0
 16 15  2  0  0  0  0
 16 17  1  0  0  0  0
 17 18  2  0  0  0  0
 18 19  1  0  0  0  0
 19 23  1  0  0  0  0
 20 19  2  0  0  0  0
 21 15  1  0  0  0  0
 22 17  1  0  0  0  0
 23 25  2  0  0  0  0
 23 24  1  0  0  0  0
M  END
>  <minimizedAffinity>
-5.41561937

>  <minimizedRMSD>
3.43168139

$$$$
