
     RDKit          3D

 25 27  0  0  0  0  0  0  0  0999 V2000
   37.8001   31.8066   49.0587 N   0  0  0  0  0  0  0  0  0  0  0  0
   38.1935   33.0350   49.4740 C   0  0  0  0  0  0  0  0  0  0  0  0
   38.9458   33.5996   48.4859 N   0  0  0  0  0  0  0  0  0  0  0  0
   39.0020   32.7103   47.4816 C   0  0  0  0  0  0  0  0  0  0  0  0
   39.6073   32.7230   46.2456 C   0  0  0  0  0  0  0  0  0  0  0  0
   39.5033   31.6661   45.4046 N   0  0  0  0  0  0  0  0  0  0  0  0
   38.8033   30.5675   45.7517 C   0  0  0  0  0  0  0  0  0  0  0  0
   38.2129   30.5567   46.9589 N   0  0  0  0  0  0  0  0  0  0  0  0
   38.2921   31.5847   47.8221 C   0  0  0  0  0  0  0  0  0  0  0  0
   35.6831   30.6705   49.3966 C   0  0  0  0  0  0  0  0  0  0  0  0
   37.0024   30.9301   49.8293 C   0  0  0  0  0  0  0  0  0  0  0  0
   37.4148   30.2900   50.9994 C   0  0  0  0  0  0  0  0  0  0  0  0
   36.5389   29.4631   51.6512 N   0  0  0  0  0  0  0  0  0  0  0  0
   35.2991   29.2482   51.2029 C   0  0  0  0  0  0  0  0  0  0  0  0
   34.8722   29.8453   50.0856 N   0  0  0  0  0  0  0  0  0  0  0  0
   40.3502   33.8425   45.8310 N   0  0  0  0  0  0  0  0  0  0  0  0
   37.9625   33.5123   50.4274 H   0  0  0  0  0  0  0  0  0  0  0  0
   38.6986   29.7027   45.1041 H   0  0  0  0  0  0  0  0  0  0  0  0
   35.3285   31.1535   48.4871 H   0  0  0  0  0  0  0  0  0  0  0  0
   38.4210   30.4964   51.3175 H   0  0  0  0  0  0  0  0  0  0  0  0
   41.1130   34.3225   46.3409 H   0  0  0  0  0  0  0  0  0  0  0  0
   40.2279   34.3589   44.9200 H   0  0  0  0  0  0  0  0  0  0  0  0
   34.4085   28.3599   51.9339 C   0  0  0  0  0  0  0  0  0  0  0  0
   33.3305   28.5208   51.9155 H   0  0  0  0  0  0  0  0  0  0  0  0
   34.8436   27.3908   52.6020 O   0  0  0  0  0  0  0  0  0  0  0  0
  1  2  1  0
  1 11  1  0
  3  2  2  0
  4  9  2  0
  4  3  1  0
  5  4  1  0
  6  7  1  0
  6  5  2  0
  7  8  2  0
  8  9  1  0
  9  1  1  0
 10 11  2  0
 10 15  1  0
 11 12  1  0
 12 13  2  0
 14 13  1  0
 15 14  2  0
 16  5  1  0
  2 17  1  0
  7 18  1  0
 10 19  1  0
 12 20  1  0
 16 21  1  0
 16 22  1  0
 23 24  1  0
 23 25  2  0
 14 23  1  0
M  ISO  5  17  14  18  14  19  14  20  14  24   6
M  END
>  <DihAtoms>  (1) 
12,13,22,23

>  <DihDeg>  (1) 
179.99917597966777

$$$$
