REMARK  Name = 
REMARK  2 active torsions:
REMARK  status: ('A' for Active; 'I' for Inactive)
REMARK    1  A    between atoms: N_1  and  C_11
REMARK    2  A    between atoms: C_14  and  C_23
REMARK                            x       y       z     vdW  Elec       q    Type
REMARK                         _______ _______ _______ _____ _____    ______ ____
ROOT
ATOM      1  N   UNL     1      37.800  31.807  49.059  0.00  0.00    +0.000 N 
ATOM      2  C   UNL     1      38.194  33.035  49.474  0.00  0.00    +0.000 A 
ATOM      3  N   UNL     1      38.946  33.600  48.486  0.00  0.00    +0.000 NA
ATOM      4  C   UNL     1      39.002  32.710  47.482  0.00  0.00    +0.000 A 
ATOM      5  C   UNL     1      39.607  32.723  46.246  0.00  0.00    +0.000 A 
ATOM      6  N   UNL     1      39.503  31.666  45.405  0.00  0.00    +0.000 NA
ATOM      7  C   UNL     1      38.803  30.567  45.752  0.00  0.00    +0.000 A 
ATOM      8  N   UNL     1      38.213  30.557  46.959  0.00  0.00    +0.000 NA
ATOM      9  C   UNL     1      38.292  31.585  47.822  0.00  0.00    +0.000 A 
ATOM     10  N   UNL     1      40.350  33.843  45.831  0.00  0.00    +0.000 N 
ATOM     11  H   UNL     1      37.962  33.512  50.427  0.00  0.00    +0.000 HD
ATOM     12  H   UNL     1      38.699  29.703  45.104  0.00  0.00    +0.000 HD
ATOM     13  H   UNL     1      41.113  34.322  46.341  0.00  0.00    +0.000 HD
ATOM     14  H   UNL     1      40.228  34.359  44.920  0.00  0.00    +0.000 HD
ENDROOT
BRANCH   1  16
ATOM     15  C   UNL     1      35.683  30.671  49.397  0.00  0.00    +0.000 A 
ATOM     16  C   UNL     1      37.002  30.930  49.829  0.00  0.00    +0.000 A 
ATOM     17  C   UNL     1      37.415  30.290  50.999  0.00  0.00    +0.000 A 
ATOM     18  N   UNL     1      36.539  29.463  51.651  0.00  0.00    +0.000 NA
ATOM     19  C   UNL     1      35.299  29.248  51.203  0.00  0.00    +0.000 A 
ATOM     20  N   UNL     1      34.872  29.845  50.086  0.00  0.00    +0.000 NA
ATOM     21  H   UNL     1      35.328  31.154  48.487  0.00  0.00    +0.000 HD
ATOM     22  H   UNL     1      38.421  30.496  51.318  0.00  0.00    +0.000 HD
BRANCH  19  23
ATOM     23  C   UNL     1      34.408  28.360  51.934  0.00  0.00    +0.000 C 
ATOM     24  H   UNL     1      33.812  27.617  51.404  0.00  0.00    +0.000 HD
ATOM     25  O   UNL     1      34.297  28.416  53.183  0.00  0.00    +0.000 OA
ENDBRANCH  19  23
ENDBRANCH   1  16
TORSDOF 2
