
 OpenBabel03252514053D

 25 27  0  0  0  0  0  0  0  0999 V2000
   36.7890   31.0280   48.1270 N   0  0  0  0  0  0  0  0  0  0  0  0
   37.2140   31.8500   49.1170 C   0  0  0  0  0  0  0  0  0  0  0  0
   38.2200   32.6290   48.6250 N   0  0  0  0  0  0  0  0  0  0  0  0
   38.3960   32.2730   47.3430 C   0  0  0  0  0  0  0  0  0  0  0  0
   39.2530   32.7040   46.3560 C   0  0  0  0  0  0  0  0  0  0  0  0
   39.2210   32.1610   45.1150 N   0  0  0  0  0  0  0  0  0  0  0  0
   38.3480   31.1820   44.8070 C   0  0  0  0  0  0  0  0  0  0  0  0
   37.5120   30.7630   45.7710 N   0  0  0  0  0  0  0  0  0  0  0  0
   37.5120   31.2750   47.0140 C   0  0  0  0  0  0  0  0  0  0  0  0
   40.1860   33.7240   46.6210 N   0  0  0  0  0  0  0  0  0  0  0  0
   36.8330   31.8990   50.1380 H   0  0  0  0  0  0  0  0  0  0  0  0
   38.2950   30.7250   43.8240 H   0  0  0  0  0  0  0  0  0  0  0  0
   40.8660   33.7730   47.4000 H   0  0  0  0  0  0  0  0  0  0  0  0
   40.3210   34.5970   46.0480 H   0  0  0  0  0  0  0  0  0  0  0  0
   34.6100   30.1990   47.4570 C   0  0  0  0  0  0  0  0  0  0  0  0
   35.7530   30.0780   48.2770 C   0  0  0  0  0  0  0  0  0  0  0  0
   35.7650   29.0160   49.1830 C   0  0  0  0  0  0  0  0  0  0  0  0
   34.6920   28.1660   49.2270 N   0  0  0  0  0  0  0  0  0  0  0  0
   33.6310   28.3200   48.4290 C   0  0  0  0  0  0  0  0  0  0  0  0
   33.5880   29.3260   47.5510 N   0  0  0  0  0  0  0  0  0  0  0  0
   34.5680   31.0170   46.7390 H   0  0  0  0  0  0  0  0  0  0  0  0
   36.6400   28.9350   49.8020 H   0  0  0  0  0  0  0  0  0  0  0  0
   32.5170   27.3880   48.5170 C   0  0  0  0  0  0  0  0  0  0  0  0
   32.6100   26.3780   48.1180 H   0  0  0  0  0  0  0  0  0  0  0  0
   31.4260   27.7100   49.0470 O   0  0  0  0  0  0  0  0  0  0  0  0
  1 16  1  0  0  0  0
  1  2  1  0  0  0  0
  2 11  1  0  0  0  0
  3  2  2  0  0  0  0
  4  3  1  0  0  0  0
  5 10  1  0  0  0  0
  5  4  2  0  0  0  0
  6  5  1  0  0  0  0
  7  6  2  0  0  0  0
  7  8  1  0  0  0  0
  8  9  2  0  0  0  0
  9  4  1  0  0  0  0
  9  1  1  0  0  0  0
 10 13  1  0  0  0  0
 12  7  1  0  0  0  0
 14 10  1  0  0  0  0
 15 20  2  0  0  0  0
 15 16  1  0  0  0  0
 16 17  2  0  0  0  0
 17 18  1  0  0  0  0
 17 22  1  0  0  0  0
 19 23  1  0  0  0  0
 19 18  2  0  0  0  0
 20 19  1  0  0  0  0
 21 15  1  0  0  0  0
 23 25  2  0  0  0  0
 24 23  1  0  0  0  0
M  END
>  <minimizedAffinity>
-5.14206409

>  <minimizedRMSD>
2.33197403

$$$$
