
     RDKit          3D

 40 44  0  0  0  0  0  0  0  0999 V2000
   63.5090   56.9580   27.1540 C   0  0  0  0  0  0  0  0  0  0  0  0
   62.1940   57.4510   27.3650 C   0  0  0  0  0  0  0  0  0  0  0  0
   61.9850   58.1850   28.5320 C   0  0  0  0  0  0  0  0  0  0  0  0
   63.0140   58.3850   29.3830 N   0  0  0  0  0  0  0  0  0  0  0  0
   64.2400   57.9110   29.1620 C   0  0  0  0  0  0  0  0  0  0  0  0
   64.4920   57.1990   28.0520 N   0  0  0  0  0  0  0  0  0  0  0  0
   61.2790   57.0960   26.3080 C   0  0  0  0  0  0  0  0  0  0  0  0
   60.8660   55.7690   26.3080 C   0  0  0  0  0  0  0  0  0  0  0  0
   60.0020   55.2250   25.3940 C   0  0  0  0  0  0  0  0  0  0  0  0
   59.5000   56.0370   24.4010 C   0  0  0  0  0  0  0  0  0  0  0  0
   59.8880   57.3380   24.3780 C   0  0  0  0  0  0  0  0  0  0  0  0
   59.4360   58.2260   23.4180 C   0  0  0  0  0  0  0  0  0  0  0  0
   59.8210   59.5490   23.3830 C   0  0  0  0  0  0  0  0  0  0  0  0
   60.6980   60.0340   24.3370 C   0  0  0  0  0  0  0  0  0  0  0  0
   61.1760   59.1800   25.3170 C   0  0  0  0  0  0  0  0  0  0  0  0
   60.7560   57.8710   25.3010 C   0  0  0  0  0  0  0  0  0  0  0  0
   65.3030   58.1670   30.1220 C   0  0  0  0  0  0  0  0  0  0  0  0
   66.0510   57.1060   30.6240 C   0  0  0  0  0  0  0  0  0  0  0  0
   67.0570   57.3940   31.5410 C   0  0  0  0  0  0  0  0  0  0  0  0
   67.3270   58.6530   31.9540 N   0  0  0  0  0  0  0  0  0  0  0  0
   66.5740   59.6330   31.4350 C   0  0  0  0  0  0  0  0  0  0  0  0
   65.5740   59.4180   30.5340 N   0  0  0  0  0  0  0  0  0  0  0  0
   66.7350   61.0070   31.7690 N   0  0  0  0  0  0  0  0  0  0  0  0
   67.3090   61.8680   30.8800 C   0  0  0  0  0  0  0  0  0  0  0  0
   67.3740   63.1220   31.3790 N   0  0  0  0  0  0  0  0  0  0  0  0
   66.8180   63.0220   32.6210 C   0  0  0  0  0  0  0  0  0  0  0  0
   66.4390   61.7400   32.8390 N   0  0  0  0  0  0  0  0  0  0  0  0
   63.7312   56.3730   26.2493 H   0  0  0  0  0  0  0  0  0  0  0  0
   60.9905   58.5975   28.7573 H   0  0  0  0  0  0  0  0  0  0  0  0
   61.2597   55.1101   27.0959 H   0  0  0  0  0  0  0  0  0  0  0  0
   59.7160   54.1644   25.4520 H   0  0  0  0  0  0  0  0  0  0  0  0
   58.8034   55.6420   23.6468 H   0  0  0  0  0  0  0  0  0  0  0  0
   58.7392   57.8603   22.6494 H   0  0  0  0  0  0  0  0  0  0  0  0
   59.4326   60.2166   22.5998 H   0  0  0  0  0  0  0  0  0  0  0  0
   61.0126   61.0879   24.3173 H   0  0  0  0  0  0  0  0  0  0  0  0
   61.8734   59.5396   26.0879 H   0  0  0  0  0  0  0  0  0  0  0  0
   65.8530   56.0719   30.3056 H   0  0  0  0  0  0  0  0  0  0  0  0
   67.6562   56.5651   31.9459 H   0  0  0  0  0  0  0  0  0  0  0  0
   67.6728   61.5781   29.8832 H   0  0  0  0  0  0  0  0  0  0  0  0
   66.6967   63.8517   33.3330 H   0  0  0  0  0  0  0  0  0  0  0  0
  1  2  2  0
  1  6  1  0
  2  3  1  0
  3  4  2  0
  5  4  1  0
  5 17  1  0
  6  5  2  0
  7  2  1  0
  8  7  2  0
  9  8  1  0
 10  9  2  0
 11 10  1  0
 11 16  2  0
 12 11  1  0
 13 12  2  0
 13 14  1  0
 14 15  2  0
 16 15  1  0
 16  7  1  0
 17 22  1  0
 17 18  2  0
 18 19  1  0
 19 20  2  0
 21 23  1  0
 21 20  1  0
 22 21  2  0
 23 27  1  0
 24 25  2  0
 24 23  1  0
 25 26  1  0
 26 27  2  0
  1 28  1  0
  3 29  1  0
  8 30  1  0
  9 31  1  0
 10 32  1  0
 12 33  1  0
 13 34  1  0
 14 35  1  0
 15 36  1  0
 18 37  1  0
 19 38  1  0
 24 39  1  0
 26 40  1  0
M  END
>  <Score>  (1) 
-7.4311

$$$$
