
     RDKit          3D

 59 62  0  0  1  0  0  0  0  0999 V2000
   59.7420   56.4760   25.7150 N   0  0  0  0  0  0  0  0  0  0  0  0
   60.8180   60.1520   24.4340 N   0  0  0  0  0  0  0  0  0  0  0  0
   59.9270   59.5370   23.6160 C   0  0  0  0  0  0  0  0  0  0  0  0
   59.6600   58.1040   24.0270 C   0  0  0  0  0  0  0  0  0  0  0  0
   59.4920   57.8820   25.4760 C   0  0  2  0  0  0  0  0  0  0  0  0
   60.3940   58.6860   26.3090 C   0  0  0  0  0  0  0  0  0  0  0  0
   60.5360   60.1010   25.8300 C   0  0  2  0  0  0  0  0  0  0  0  0
   59.5150   61.0550   26.3420 C   0  0  0  0  0  0  0  0  0  0  0  0
   59.9900   62.1200   27.2640 C   0  0  0  0  0  0  0  0  0  0  0  0
   58.8880   61.8030   25.1400 C   0  0  0  0  0  0  0  0  0  0  0  0
   58.4050   60.3070   26.9990 C   0  0  0  0  0  0  0  0  0  0  0  0
   61.0080   56.0080   25.4760 C   0  0  0  0  0  0  0  0  0  0  0  0
   61.6540   55.6100   26.7750 C   0  0  0  0  0  0  0  0  0  0  0  0
   65.1910   56.7550   26.3180 C   0  0  0  0  0  0  0  0  0  0  0  0
   63.9250   56.1780   26.0910 C   0  0  0  0  0  0  0  0  0  0  0  0
   62.9610   56.2230   27.0600 C   0  0  0  0  0  0  0  0  0  0  0  0
   63.2670   56.8360   28.2300 N   0  0  0  0  0  0  0  0  0  0  0  0
   64.4660   57.3850   28.4490 C   0  0  0  0  0  0  0  0  0  0  0  0
   65.4260   57.3480   27.5030 N   0  0  0  0  0  0  0  0  0  0  0  0
   64.7070   58.0120   29.7080 N   0  0  0  0  0  0  0  0  0  0  0  0
   63.9970   59.1260   30.0450 C   0  0  0  0  0  0  0  0  0  0  0  0
   64.3240   59.6130   31.2550 N   0  0  0  0  0  0  0  0  0  0  0  0
   65.2860   58.7740   31.7160 C   0  0  0  0  0  0  0  0  0  0  0  0
   66.0590   58.6600   32.8510 C   0  0  0  0  0  0  0  0  0  0  0  0
   65.9080   59.5110   33.7640 O   0  0  0  0  0  0  0  0  0  0  0  0
   66.9590   57.6420   32.9640 N   0  0  0  0  0  0  0  0  0  0  0  0
   67.1400   56.7130   32.0000 C   0  0  0  0  0  0  0  0  0  0  0  0
   68.1220   55.7320   32.2980 N   0  0  0  0  0  0  0  0  0  0  0  0
   66.3970   56.7880   30.8580 N   0  0  0  0  0  0  0  0  0  0  0  0
   65.5030   57.8060   30.7580 C   0  0  0  0  0  0  0  0  0  0  0  0
   59.5254   56.2881   26.7043 H   0  0  0  0  0  0  0  0  0  0  0  0
   60.8630   61.1437   24.1593 H   0  0  0  0  0  0  0  0  0  0  0  0
   60.3264   59.5420   22.5911 H   0  0  0  0  0  0  0  0  0  0  0  0
   58.9767   60.0872   23.6808 H   0  0  0  0  0  0  0  0  0  0  0  0
   58.7396   57.7725   23.5239 H   0  0  0  0  0  0  0  0  0  0  0  0
   60.5537   57.5333   23.7346 H   0  0  0  0  0  0  0  0  0  0  0  0
   58.4743   58.1901   25.7577 H   0  0  0  0  0  0  0  0  0  0  0  0
   60.0001   58.7023   27.3359 H   0  0  0  0  0  0  0  0  0  0  0  0
   61.3896   58.2212   26.2560 H   0  0  0  0  0  0  0  0  0  0  0  0
   61.4332   60.5107   26.3170 H   0  0  0  0  0  0  0  0  0  0  0  0
   59.8452   61.7952   28.3049 H   0  0  0  0  0  0  0  0  0  0  0  0
   61.0584   62.3106   27.0846 H   0  0  0  0  0  0  0  0  0  0  0  0
   59.4179   63.0422   27.0846 H   0  0  0  0  0  0  0  0  0  0  0  0
   58.2223   62.5971   25.5091 H   0  0  0  0  0  0  0  0  0  0  0  0
   59.6864   62.2486   24.5285 H   0  0  0  0  0  0  0  0  0  0  0  0
   58.3098   61.0947   24.5285 H   0  0  0  0  0  0  0  0  0  0  0  0
   58.5110   60.3784   28.0915 H   0  0  0  0  0  0  0  0  0  0  0  0
   57.4406   60.7402   26.6951 H   0  0  0  0  0  0  0  0  0  0  0  0
   58.4445   59.2506   26.6951 H   0  0  0  0  0  0  0  0  0  0  0  0
   60.9553   55.1336   24.8107 H   0  0  0  0  0  0  0  0  0  0  0  0
   61.6053   56.7990   24.9990 H   0  0  0  0  0  0  0  0  0  0  0  0
   60.9684   55.8851   27.5900 H   0  0  0  0  0  0  0  0  0  0  0  0
   61.8448   54.5298   26.6925 H   0  0  0  0  0  0  0  0  0  0  0  0
   65.9706   56.7212   25.5427 H   0  0  0  0  0  0  0  0  0  0  0  0
   63.7113   55.6889   25.1292 H   0  0  0  0  0  0  0  0  0  0  0  0
   63.2351   59.5797   29.3941 H   0  0  0  0  0  0  0  0  0  0  0  0
   67.5256   57.5785   33.8218 H   0  0  0  0  0  0  0  0  0  0  0  0
   68.3258   54.9846   31.6193 H   0  0  0  0  0  0  0  0  0  0  0  0
   68.6306   55.7677   33.1929 H   0  0  0  0  0  0  0  0  0  0  0  0
  2  7  1  0
  3  4  1  0
  3  2  1  0
  4  5  1  0
  5  1  1  0
  5  6  1  0
  7  6  1  0
  7  8  1  0
  8 11  1  0
  8  9  1  0
 10  8  1  0
 12  1  1  0
 12 13  1  0
 13 16  1  0
 14 19  2  0
 15 14  1  0
 15 16  2  0
 16 17  1  0
 17 18  2  0
 18 20  1  0
 19 18  1  0
 20 21  1  0
 20 30  1  0
 21 22  2  0
 22 23  1  0
 23 24  1  0
 24 26  1  0
 24 25  2  0
 27 28  1  0
 27 26  1  0
 29 27  2  0
 30 29  1  0
 30 23  2  0
  1 31  1  0
  2 32  1  0
  3 33  1  0
  3 34  1  0
  4 35  1  0
  4 36  1  0
  5 37  1  1
  6 38  1  0
  6 39  1  0
  7 40  1  1
  9 41  1  0
  9 42  1  0
  9 43  1  0
 10 44  1  0
 10 45  1  0
 10 46  1  0
 11 47  1  0
 11 48  1  0
 11 49  1  0
 12 50  1  0
 12 51  1  0
 13 52  1  0
 13 53  1  0
 14 54  1  0
 15 55  1  0
 21 56  1  0
 26 57  1  0
 28 58  1  0
 28 59  1  0
M  END
>  <Score>  (1) 
-7.63328

$$$$
