
     RDKit          3D

 41 45  0  0  0  0  0  0  0  0999 V2000
   60.2820   58.5370   25.5020 C   0  0  0  0  0  0  0  0  0  0  0  0
   61.1020   59.2900   24.6830 C   0  0  0  0  0  0  0  0  0  0  0  0
   60.3350   59.9180   23.7110 C   0  0  0  0  0  0  0  0  0  0  0  0
   59.0420   59.5000   24.0000 C   0  0  0  0  0  0  0  0  0  0  0  0
   59.0800   58.7170   25.0290 O   0  0  0  0  0  0  0  0  0  0  0  0
   57.8770   59.9140   23.2300 C   0  0  0  0  0  0  0  0  0  0  0  0
   57.1750   59.2120   22.2640 C   0  0  0  0  0  0  0  0  0  0  0  0
   56.1800   59.9580   21.8140 N   0  0  0  0  0  0  0  0  0  0  0  0
   56.1800   61.1420   22.4380 C   0  0  0  0  0  0  0  0  0  0  0  0
   55.3270   62.2120   22.2780 C   0  0  0  0  0  0  0  0  0  0  0  0
   55.5750   63.3120   23.0710 C   0  0  0  0  0  0  0  0  0  0  0  0
   56.6110   63.3950   23.9920 C   0  0  0  0  0  0  0  0  0  0  0  0
   57.4200   62.2810   24.0910 C   0  0  0  0  0  0  0  0  0  0  0  0
   57.2390   61.1450   23.3380 C   0  0  0  0  0  0  0  0  0  0  0  0
   60.6770   57.7610   26.5940 O   0  0  0  0  0  0  0  0  0  0  0  0
   61.5930   56.7240   26.3300 C   0  0  0  0  0  0  0  0  0  0  0  0
   61.2780   55.6970   25.7110 O   0  0  0  0  0  0  0  0  0  0  0  0
   65.3240   56.9100   26.4520 C   0  0  0  0  0  0  0  0  0  0  0  0
   64.0190   56.7560   25.9370 C   0  0  0  0  0  0  0  0  0  0  0  0
   62.9610   56.8730   26.8060 C   0  0  0  0  0  0  0  0  0  0  0  0
   63.2020   57.1300   28.1180 N   0  0  0  0  0  0  0  0  0  0  0  0
   64.4820   57.2710   28.5700 C   0  0  0  0  0  0  0  0  0  0  0  0
   65.5230   57.1650   27.7650 N   0  0  0  0  0  0  0  0  0  0  0  0
   64.7440   57.5410   29.9430 N   0  0  0  0  0  0  0  0  0  0  0  0
   65.8860   57.1770   30.5820 C   0  0  0  0  0  0  0  0  0  0  0  0
   65.7730   57.6130   31.9060 C   0  0  0  0  0  0  0  0  0  0  0  0
   64.5820   58.2220   32.0440 N   0  0  0  0  0  0  0  0  0  0  0  0
   63.9800   58.1690   30.8570 C   0  0  0  0  0  0  0  0  0  0  0  0
   62.1937   59.3781   24.7855 H   0  0  0  0  0  0  0  0  0  0  0  0
   60.6708   60.5867   22.9047 H   0  0  0  0  0  0  0  0  0  0  0  0
   57.4088   58.1923   21.9240 H   0  0  0  0  0  0  0  0  0  0  0  0
   55.5053   59.6705   21.0908 H   0  0  0  0  0  0  0  0  0  0  0  0
   54.4953   62.1898   21.5584 H   0  0  0  0  0  0  0  0  0  0  0  0
   54.9086   64.1810   22.9674 H   0  0  0  0  0  0  0  0  0  0  0  0
   56.7767   64.2932   24.6049 H   0  0  0  0  0  0  0  0  0  0  0  0
   58.2526   62.3033   24.8095 H   0  0  0  0  0  0  0  0  0  0  0  0
   66.1887   56.8216   25.7779 H   0  0  0  0  0  0  0  0  0  0  0  0
   63.8534   56.5481   24.8696 H   0  0  0  0  0  0  0  0  0  0  0  0
   66.7390   56.6404   30.1411 H   0  0  0  0  0  0  0  0  0  0  0  0
   66.5266   57.4809   32.6963 H   0  0  0  0  0  0  0  0  0  0  0  0
   62.9835   58.5860   30.6493 H   0  0  0  0  0  0  0  0  0  0  0  0
  1 15  1  0
  2  1  2  0
  3  4  2  0
  3  2  1  0
  4  5  1  0
  5  1  1  0
  6 14  1  0
  6  4  1  0
  7  6  2  0
  8  7  1  0
  8  9  1  0
  9 14  2  0
 10  9  1  0
 10 11  2  0
 11 12  1  0
 12 13  2  0
 14 13  1  0
 16 15  1  0
 16 20  1  0
 17 16  2  0
 18 23  2  0
 19 18  1  0
 19 20  2  0
 20 21  1  0
 21 22  2  0
 22 24  1  0
 23 22  1  0
 24 25  1  0
 24 28  1  0
 25 26  2  0
 26 27  1  0
 28 27  2  0
  2 29  1  0
  3 30  1  0
  7 31  1  0
  8 32  1  0
 10 33  1  0
 11 34  1  0
 12 35  1  0
 13 36  1  0
 18 37  1  0
 19 38  1  0
 25 39  1  0
 26 40  1  0
 28 41  1  0
M  END
>  <Score>  (1) 
-7.00238

$$$$
