
     RDKit          3D

 50 54  0  0  0  0  0  0  0  0999 V2000
   60.2900   58.5910   25.4520 C   0  0  0  0  0  0  0  0  0  0  0  0
   61.1680   59.2720   24.6280 C   0  0  0  0  0  0  0  0  0  0  0  0
   60.4420   60.0630   23.7400 C   0  0  0  0  0  0  0  0  0  0  0  0
   59.1240   59.8030   24.0930 C   0  0  0  0  0  0  0  0  0  0  0  0
   59.0880   58.9580   25.0740 O   0  0  0  0  0  0  0  0  0  0  0  0
   57.9890   60.4310   23.4090 C   0  0  0  0  0  0  0  0  0  0  0  0
   57.4040   60.0780   22.2000 C   0  0  0  0  0  0  0  0  0  0  0  0
   56.4030   60.9050   21.9410 N   0  0  0  0  0  0  0  0  0  0  0  0
   56.2840   61.7980   22.9180 C   0  0  0  0  0  0  0  0  0  0  0  0
   55.3900   62.8330   23.0640 C   0  0  0  0  0  0  0  0  0  0  0  0
   55.5180   63.6080   24.2120 C   0  0  0  0  0  0  0  0  0  0  0  0
   56.4800   63.3940   25.1950 C   0  0  0  0  0  0  0  0  0  0  0  0
   57.3390   62.3380   24.9770 C   0  0  0  0  0  0  0  0  0  0  0  0
   57.2750   61.5240   23.8640 C   0  0  0  0  0  0  0  0  0  0  0  0
   60.6250   57.6960   26.4770 O   0  0  0  0  0  0  0  0  0  0  0  0
   61.5830   56.7190   26.1690 C   0  0  0  0  0  0  0  0  0  0  0  0
   61.3240   55.7380   25.4610 O   0  0  0  0  0  0  0  0  0  0  0  0
   65.3050   56.9270   26.4650 C   0  0  0  0  0  0  0  0  0  0  0  0
   64.0320   56.7700   25.8760 C   0  0  0  0  0  0  0  0  0  0  0  0
   62.9300   56.8710   26.7050 C   0  0  0  0  0  0  0  0  0  0  0  0
   63.0980   57.1130   28.0360 N   0  0  0  0  0  0  0  0  0  0  0  0
   64.3590   57.2560   28.5460 C   0  0  0  0  0  0  0  0  0  0  0  0
   65.4420   57.1670   27.7840 N   0  0  0  0  0  0  0  0  0  0  0  0
   64.6130   57.5230   29.9860 C   0  0  0  0  0  0  0  0  0  0  0  0
   64.4960   59.0080   30.2560 C   0  0  0  0  0  0  0  0  0  0  0  0
   64.9580   59.3130   31.6540 C   0  0  0  0  0  0  0  0  0  0  0  0
   65.2080   58.0780   32.4880 C   0  0  0  0  0  0  0  0  0  0  0  0
   66.1790   57.1200   31.8410 C   0  0  0  0  0  0  0  0  0  0  0  0
   66.0320   57.1310   30.3500 C   0  0  0  0  0  0  0  0  0  0  0  0
   62.2650   59.2004   24.6676 H   0  0  0  0  0  0  0  0  0  0  0  0
   60.8203   60.7305   22.9517 H   0  0  0  0  0  0  0  0  0  0  0  0
   57.7221   59.2429   21.5586 H   0  0  0  0  0  0  0  0  0  0  0  0
   55.8039   60.8624   21.1043 H   0  0  0  0  0  0  0  0  0  0  0  0
   54.6139   63.0373   22.3118 H   0  0  0  0  0  0  0  0  0  0  0  0
   54.8149   64.4423   24.3518 H   0  0  0  0  0  0  0  0  0  0  0  0
   56.5505   64.0285   26.0908 H   0  0  0  0  0  0  0  0  0  0  0  0
   58.1155   62.1335   25.7288 H   0  0  0  0  0  0  0  0  0  0  0  0
   66.2034   56.8519   25.8347 H   0  0  0  0  0  0  0  0  0  0  0  0
   63.9209   56.5749   24.7992 H   0  0  0  0  0  0  0  0  0  0  0  0
   63.8820   56.9459   30.5712 H   0  0  0  0  0  0  0  0  0  0  0  0
   65.1201   59.5595   29.5374 H   0  0  0  0  0  0  0  0  0  0  0  0
   63.4449   59.3136   30.1477 H   0  0  0  0  0  0  0  0  0  0  0  0
   65.8937   59.8881   31.5940 H   0  0  0  0  0  0  0  0  0  0  0  0
   64.1524   59.8782   32.1454 H   0  0  0  0  0  0  0  0  0  0  0  0
   65.6164   58.3882   33.4611 H   0  0  0  0  0  0  0  0  0  0  0  0
   64.2478   57.5524   32.5964 H   0  0  0  0  0  0  0  0  0  0  0  0
   67.2053   57.4163   32.1034 H   0  0  0  0  0  0  0  0  0  0  0  0
   65.9654   56.1047   32.2065 H   0  0  0  0  0  0  0  0  0  0  0  0
   66.2491   56.1286   29.9525 H   0  0  0  0  0  0  0  0  0  0  0  0
   66.7360   57.8569   29.9170 H   0  0  0  0  0  0  0  0  0  0  0  0
  1 15  1  0
  2  1  2  0
  3  4  2  0
  3  2  1  0
  4  5  1  0
  5  1  1  0
  6 14  1  0
  6  4  1  0
  7  6  2  0
  8  7  1  0
  8  9  1  0
  9 10  2  0
  9 14  1  0
 10 11  1  0
 11 12  2  0
 13 12  1  0
 14 13  2  0
 16 15  1  0
 16 20  1  0
 17 16  2  0
 18 23  2  0
 19 18  1  0
 19 20  2  0
 20 21  1  0
 21 22  2  0
 22 24  1  0
 23 22  1  0
 24 25  1  0
 24 29  1  0
 25 26  1  0
 26 27  1  0
 28 27  1  0
 29 28  1  0
  2 30  1  0
  3 31  1  0
  7 32  1  0
  8 33  1  0
 10 34  1  0
 11 35  1  0
 12 36  1  0
 13 37  1  0
 18 38  1  0
 19 39  1  0
 24 40  1  0
 25 41  1  0
 25 42  1  0
 26 43  1  0
 26 44  1  0
 27 45  1  0
 27 46  1  0
 28 47  1  0
 28 48  1  0
 29 49  1  0
 29 50  1  0
M  END
>  <Score>  (1) 
-7.39089

$$$$
