
     RDKit          3D

 50 53  0  0  1  0  0  0  0  0999 V2000
   60.8520   56.8310   24.9860 C   0  0  0  0  0  0  0  0  0  0  0  0
   59.4440   56.5770   24.8320 N   0  0  0  0  0  0  0  0  0  0  0  0
   59.0840   55.2180   24.9490 C   0  0  0  0  0  0  0  0  0  0  0  0
   57.5950   55.1280   24.5690 C   0  0  0  0  0  0  0  0  0  0  0  0
   56.8030   55.9710   25.3320 O   0  0  0  0  0  0  0  0  0  0  0  0
   57.2040   57.2780   25.3120 C   0  0  0  0  0  0  0  0  0  0  0  0
   58.6400   57.4130   25.7420 C   0  0  2  0  0  0  0  0  0  0  0  0
   59.1010   58.8080   25.7280 C   0  0  0  0  0  0  0  0  0  0  0  0
   59.8720   59.4260   26.7090 C   0  0  0  0  0  0  0  0  0  0  0  0
   60.2070   60.7490   26.5480 C   0  0  0  0  0  0  0  0  0  0  0  0
   59.8110   61.4810   25.4660 N   0  0  0  0  0  0  0  0  0  0  0  0
   59.0690   60.8470   24.5430 C   0  0  0  0  0  0  0  0  0  0  0  0
   58.7090   59.5500   24.6460 N   0  0  0  0  0  0  0  0  0  0  0  0
   61.4420   55.8840   26.0100 C   0  0  0  0  0  0  0  0  0  0  0  0
   65.0800   56.8010   26.0130 C   0  0  0  0  0  0  0  0  0  0  0  0
   63.8010   56.3780   25.5740 C   0  0  0  0  0  0  0  0  0  0  0  0
   62.7670   56.3310   26.4960 C   0  0  0  0  0  0  0  0  0  0  0  0
   63.0480   56.6970   27.7690 N   0  0  0  0  0  0  0  0  0  0  0  0
   64.2620   57.0930   28.1650 C   0  0  0  0  0  0  0  0  0  0  0  0
   65.2690   57.1490   27.3100 N   0  0  0  0  0  0  0  0  0  0  0  0
   64.5240   57.4720   29.5130 N   0  0  0  0  0  0  0  0  0  0  0  0
   65.6300   56.9770   30.0990 C   0  0  0  0  0  0  0  0  0  0  0  0
   65.8960   57.3330   31.3990 C   0  0  0  0  0  0  0  0  0  0  0  0
   67.0980   56.8300   32.1210 C   0  0  0  0  0  0  0  0  0  0  0  0
   64.9980   58.1820   32.0140 C   0  0  0  0  0  0  0  0  0  0  0  0
   65.2140   58.5290   33.2090 O   0  0  0  0  0  0  0  0  0  0  0  0
   63.8820   58.6850   31.4320 N   0  0  0  0  0  0  0  0  0  0  0  0
   63.6720   58.2980   30.1450 C   0  0  0  0  0  0  0  0  0  0  0  0
   62.6350   58.7690   29.6130 O   0  0  0  0  0  0  0  0  0  0  0  0
   61.0002   57.8681   25.3215 H   0  0  0  0  0  0  0  0  0  0  0  0
   61.3540   56.6752   24.0197 H   0  0  0  0  0  0  0  0  0  0  0  0
   59.6888   54.6041   24.2653 H   0  0  0  0  0  0  0  0  0  0  0  0
   59.2581   54.8460   25.9694 H   0  0  0  0  0  0  0  0  0  0  0  0
   57.4837   55.4018   23.5095 H   0  0  0  0  0  0  0  0  0  0  0  0
   57.2631   54.0960   24.7558 H   0  0  0  0  0  0  0  0  0  0  0  0
   57.0970   57.6706   24.2900 H   0  0  0  0  0  0  0  0  0  0  0  0
   56.5753   57.8462   26.0134 H   0  0  0  0  0  0  0  0  0  0  0  0
   58.7485   57.0787   26.7843 H   0  0  0  0  0  0  0  0  0  0  0  0
   60.2062   58.8664   27.5951 H   0  0  0  0  0  0  0  0  0  0  0  0
   60.8182   61.2373   27.3213 H   0  0  0  0  0  0  0  0  0  0  0  0
   58.7383   61.4127   23.6595 H   0  0  0  0  0  0  0  0  0  0  0  0
   60.7554   55.8182   26.8669 H   0  0  0  0  0  0  0  0  0  0  0  0
   61.5758   54.9063   25.5241 H   0  0  0  0  0  0  0  0  0  0  0  0
   65.9186   56.8471   25.3027 H   0  0  0  0  0  0  0  0  0  0  0  0
   63.6323   56.0933   24.5250 H   0  0  0  0  0  0  0  0  0  0  0  0
   66.3047   56.3036   29.5502 H   0  0  0  0  0  0  0  0  0  0  0  0
   66.9302   56.9002   33.2059 H   0  0  0  0  0  0  0  0  0  0  0  0
   67.2790   55.7806   31.8451 H   0  0  0  0  0  0  0  0  0  0  0  0
   67.9724   57.4377   31.8451 H   0  0  0  0  0  0  0  0  0  0  0  0
   63.2379   59.3162   31.9296 H   0  0  0  0  0  0  0  0  0  0  0  0
  1 14  1  0
  2  3  1  0
  2  1  1  0
  2  7  1  0
  4  3  1  0
  4  5  1  0
  6  5  1  0
  6  7  1  0
  8  7  1  0
  8  9  2  0
 10  9  1  0
 11 10  2  0
 12 13  2  0
 12 11  1  0
 13  8  1  0
 14 17  1  0
 15 20  2  0
 16 15  1  0
 16 17  2  0
 17 18  1  0
 18 19  2  0
 19 21  1  0
 20 19  1  0
 21 22  1  0
 21 28  1  0
 22 23  2  0
 23 25  1  0
 23 24  1  0
 25 26  2  0
 27 25  1  0
 28 27  1  0
 29 28  2  0
  1 30  1  0
  1 31  1  0
  3 32  1  0
  3 33  1  0
  4 34  1  0
  4 35  1  0
  6 36  1  0
  6 37  1  0
  7 38  1  1
  9 39  1  0
 10 40  1  0
 12 41  1  0
 14 42  1  0
 14 43  1  0
 15 44  1  0
 16 45  1  0
 22 46  1  0
 24 47  1  0
 24 48  1  0
 24 49  1  0
 27 50  1  0
M  END
>  <Score>  (1) 
-7.30915

$$$$
