
     RDKit          3D

 53 58  0  0  1  0  0  0  0  0999 V2000
   59.2150   59.0010   24.6130 C   0  0  1  0  0  0  0  0  0  0  0  0
   60.0110   60.2220   24.4400 C   0  0  0  0  0  0  0  0  0  0  0  0
   59.4350   59.4490   23.2300 C   0  0  2  0  0  0  0  0  0  0  0  0
   61.6320   56.9760   26.4690 N   0  0  0  0  0  0  0  0  0  0  0  0
   61.2430   55.7100   26.2550 C   0  0  0  0  0  0  0  0  0  0  0  0
   60.1120   55.5060   25.4480 C   0  0  0  0  0  0  0  0  0  0  0  0
   59.4500   56.6000   24.9090 C   0  0  0  0  0  0  0  0  0  0  0  0
   58.4170   56.4570   24.1690 O   0  0  0  0  0  0  0  0  0  0  0  0
   59.8730   57.8180   25.1500 N   0  0  0  0  0  0  0  0  0  0  0  0
   60.9630   58.0310   25.9290 C   0  0  0  0  0  0  0  0  0  0  0  0
   61.4000   59.1880   26.1850 O   0  0  0  0  0  0  0  0  0  0  0  0
   64.0100   57.1190   26.6190 C   0  0  0  0  0  0  0  0  0  0  0  0
   62.7760   57.1000   27.2910 C   0  0  0  0  0  0  0  0  0  0  0  0
   62.8030   57.2020   28.6340 C   0  0  0  0  0  0  0  0  0  0  0  0
   63.9940   57.3160   29.2860 N   0  0  0  0  0  0  0  0  0  0  0  0
   65.1730   57.3330   28.6210 C   0  0  0  0  0  0  0  0  0  0  0  0
   65.1770   57.2320   27.2550 N   0  0  0  0  0  0  0  0  0  0  0  0
   58.3720   60.1410   22.5320 N   0  0  0  0  0  0  0  0  0  0  0  0
   57.1820   59.5530   22.0170 C   0  0  0  0  0  0  0  0  0  0  0  0
   56.0860   60.3040   21.5700 C   0  0  0  0  0  0  0  0  0  0  0  0
   55.1590   59.3570   21.1600 C   0  0  0  0  0  0  0  0  0  0  0  0
   55.7120   58.1180   21.3700 C   0  0  0  0  0  0  0  0  0  0  0  0
   56.8820   58.2970   21.8670 O   0  0  0  0  0  0  0  0  0  0  0  0
   54.7860   56.6560   20.9490 S   0  0  0  0  0  0  0  0  0  0  0  0
   55.6450   55.6410   19.7960 C   0  0  0  0  0  0  0  0  0  0  0  0
   55.1640   55.7210   18.4970 C   0  0  0  0  0  0  0  0  0  0  0  0
   55.7270   54.9870   17.4630 C   0  0  0  0  0  0  0  0  0  0  0  0
   56.8000   54.1600   17.7740 C   0  0  0  0  0  0  0  0  0  0  0  0
   57.2990   54.0620   19.0560 C   0  0  0  0  0  0  0  0  0  0  0  0
   58.3630   53.2460   19.3860 C   0  0  0  0  0  0  0  0  0  0  0  0
   58.8370   53.1760   20.7000 C   0  0  0  0  0  0  0  0  0  0  0  0
   58.2060   53.9530   21.6670 C   0  0  0  0  0  0  0  0  0  0  0  0
   57.1400   54.7770   21.3730 C   0  0  0  0  0  0  0  0  0  0  0  0
   56.7150   54.8060   20.0590 C   0  0  0  0  0  0  0  0  0  0  0  0
   58.2996   58.7415   25.1650 H   0  0  0  0  0  0  0  0  0  0  0  0
   59.5946   61.2002   24.7224 H   0  0  0  0  0  0  0  0  0  0  0  0
   61.0084   60.5631   24.7543 H   0  0  0  0  0  0  0  0  0  0  0  0
   59.8098   58.9559   22.3209 H   0  0  0  0  0  0  0  0  0  0  0  0
   61.7897   54.8631   26.6954 H   0  0  0  0  0  0  0  0  0  0  0  0
   59.7534   54.4862   25.2446 H   0  0  0  0  0  0  0  0  0  0  0  0
   64.0137   57.0372   25.5221 H   0  0  0  0  0  0  0  0  0  0  0  0
   61.8627   57.1932   29.2048 H   0  0  0  0  0  0  0  0  0  0  0  0
   66.1198   57.4271   29.1730 H   0  0  0  0  0  0  0  0  0  0  0  0
   58.4876   61.1553   22.3949 H   0  0  0  0  0  0  0  0  0  0  0  0
   55.9839   61.3991   21.5490 H   0  0  0  0  0  0  0  0  0  0  0  0
   54.1621   59.5615   20.7425 H   0  0  0  0  0  0  0  0  0  0  0  0
   54.3134   56.3842   18.2812 H   0  0  0  0  0  0  0  0  0  0  0  0
   55.3390   55.0569   16.4361 H   0  0  0  0  0  0  0  0  0  0  0  0
   57.2651   53.5658   16.9736 H   0  0  0  0  0  0  0  0  0  0  0  0
   58.8452   52.6418   18.6034 H   0  0  0  0  0  0  0  0  0  0  0  0
   59.6844   52.5253   20.9617 H   0  0  0  0  0  0  0  0  0  0  0  0
   58.5709   53.9082   22.7037 H   0  0  0  0  0  0  0  0  0  0  0  0
   56.6505   55.3834   22.1493 H   0  0  0  0  0  0  0  0  0  0  0  0
  1  9  1  0
  2  1  1  0
  3  2  1  0
  3  1  1  0
  4 13  1  0
  5  4  1  0
  6  5  2  0
  7  9  1  0
  7  6  1  0
  8  7  2  0
  9 10  1  0
 10 11  2  0
 10  4  1  0
 12 17  2  0
 12 13  1  0
 13 14  2  0
 14 15  1  0
 16 15  2  0
 17 16  1  0
 18  3  1  0
 19 18  1  0
 20 19  2  0
 21 22  2  0
 21 20  1  0
 22 23  1  0
 23 19  1  0
 24 22  1  0
 25 34  1  0
 25 24  1  0
 26 25  2  0
 27 28  2  0
 27 26  1  0
 28 29  1  0
 29 30  1  0
 29 34  2  0
 30 31  2  0
 31 32  1  0
 33 32  2  0
 34 33  1  0
  1 35  1  1
  2 36  1  0
  2 37  1  0
  3 38  1  6
  5 39  1  0
  6 40  1  0
 12 41  1  0
 14 42  1  0
 16 43  1  0
 18 44  1  0
 20 45  1  0
 21 46  1  0
 26 47  1  0
 27 48  1  0
 28 49  1  0
 30 50  1  0
 31 51  1  0
 32 52  1  0
 33 53  1  0
M  END
>  <Score>  (1) 
-7.27991

$$$$
