
     RDKit          3D

 44 48  0  0  0  0  0  0  0  0999 V2000
   63.4950   56.9670   27.1210 C   0  0  0  0  0  0  0  0  0  0  0  0
   62.1770   57.4450   27.3390 C   0  0  0  0  0  0  0  0  0  0  0  0
   61.9640   58.1750   28.5070 C   0  0  0  0  0  0  0  0  0  0  0  0
   62.9890   58.3930   29.3610 N   0  0  0  0  0  0  0  0  0  0  0  0
   64.2240   57.9290   29.1310 C   0  0  0  0  0  0  0  0  0  0  0  0
   64.4840   57.2160   28.0120 N   0  0  0  0  0  0  0  0  0  0  0  0
   61.2610   57.0860   26.2900 C   0  0  0  0  0  0  0  0  0  0  0  0
   60.8460   55.7630   26.2910 C   0  0  0  0  0  0  0  0  0  0  0  0
   59.9750   55.2170   25.3780 C   0  0  0  0  0  0  0  0  0  0  0  0
   59.4730   56.0300   24.3880 C   0  0  0  0  0  0  0  0  0  0  0  0
   59.8610   57.3290   24.3610 C   0  0  0  0  0  0  0  0  0  0  0  0
   59.4030   58.2110   23.4010 C   0  0  0  0  0  0  0  0  0  0  0  0
   59.7900   59.5380   23.3600 C   0  0  0  0  0  0  0  0  0  0  0  0
   60.6680   60.0270   24.3080 C   0  0  0  0  0  0  0  0  0  0  0  0
   61.1510   59.1790   25.2880 C   0  0  0  0  0  0  0  0  0  0  0  0
   60.7310   57.8620   25.2790 C   0  0  0  0  0  0  0  0  0  0  0  0
   65.2890   58.1950   30.0870 C   0  0  0  0  0  0  0  0  0  0  0  0
   65.9860   57.1310   30.6520 C   0  0  0  0  0  0  0  0  0  0  0  0
   67.0010   57.4270   31.5650 C   0  0  0  0  0  0  0  0  0  0  0  0
   67.3180   58.6950   31.9060 N   0  0  0  0  0  0  0  0  0  0  0  0
   66.6060   59.6810   31.3250 C   0  0  0  0  0  0  0  0  0  0  0  0
   65.6050   59.4580   30.4280 N   0  0  0  0  0  0  0  0  0  0  0  0
   66.8610   61.0640   31.6170 N   0  0  0  0  0  0  0  0  0  0  0  0
   67.1340   61.3410   32.9130 C   0  0  0  0  0  0  0  0  0  0  0  0
   67.3910   62.6600   33.2740 C   0  0  0  0  0  0  0  0  0  0  0  0
   67.3340   63.5600   32.2290 C   0  0  0  0  0  0  0  0  0  0  0  0
   67.5650   64.7830   32.5200 O   0  0  0  0  0  0  0  0  0  0  0  0
   67.0670   63.3230   30.9340 N   0  0  0  0  0  0  0  0  0  0  0  0
   66.8280   62.0050   30.6700 C   0  0  0  0  0  0  0  0  0  0  0  0
   66.5670   61.6880   29.4760 O   0  0  0  0  0  0  0  0  0  0  0  0
   63.7169   56.3852   26.2142 H   0  0  0  0  0  0  0  0  0  0  0  0
   60.9638   58.5730   28.7335 H   0  0  0  0  0  0  0  0  0  0  0  0
   61.2415   55.1038   27.0777 H   0  0  0  0  0  0  0  0  0  0  0  0
   59.6868   54.1571   25.4375 H   0  0  0  0  0  0  0  0  0  0  0  0
   58.7735   55.6356   23.6363 H   0  0  0  0  0  0  0  0  0  0  0  0
   58.7017   57.8424   22.6379 H   0  0  0  0  0  0  0  0  0  0  0  0
   59.3999   60.2023   22.5748 H   0  0  0  0  0  0  0  0  0  0  0  0
   60.9802   61.0815   24.2836 H   0  0  0  0  0  0  0  0  0  0  0  0
   61.8510   59.5430   26.0545 H   0  0  0  0  0  0  0  0  0  0  0  0
   65.7454   56.0906   30.3881 H   0  0  0  0  0  0  0  0  0  0  0  0
   67.5618   56.5985   32.0223 H   0  0  0  0  0  0  0  0  0  0  0  0
   67.1524   60.5395   33.6661 H   0  0  0  0  0  0  0  0  0  0  0  0
   67.6206   62.9607   34.3069 H   0  0  0  0  0  0  0  0  0  0  0  0
   67.0449   64.0596   30.2144 H   0  0  0  0  0  0  0  0  0  0  0  0
  1  2  2  0
  1  6  1  0
  2  3  1  0
  3  4  2  0
  5  4  1  0
  5 17  1  0
  6  5  2  0
  7  8  2  0
  7  2  1  0
  9  8  1  0
 10  9  2  0
 11 10  1  0
 11 16  2  0
 12 11  1  0
 13 12  2  0
 13 14  1  0
 14 15  2  0
 16 15  1  0
 16  7  1  0
 17 22  1  0
 17 18  2  0
 18 19  1  0
 19 20  2  0
 21 23  1  0
 21 20  1  0
 22 21  2  0
 23 24  1  0
 24 25  2  0
 26 27  2  0
 26 25  1  0
 28 26  1  0
 29 28  1  0
 29 23  1  0
 30 29  2  0
  1 31  1  0
  3 32  1  0
  8 33  1  0
  9 34  1  0
 10 35  1  0
 12 36  1  0
 13 37  1  0
 14 38  1  0
 15 39  1  0
 18 40  1  0
 19 41  1  0
 24 42  1  0
 25 43  1  0
 28 44  1  0
M  END
>  <Score>  (1) 
-7.73053

$$$$
