
     RDKit          3D

 48 53  0  0  0  0  0  0  0  0999 V2000
   60.3240   58.5280   25.4200 C   0  0  0  0  0  0  0  0  0  0  0  0
   61.2090   59.2880   24.6810 C   0  0  0  0  0  0  0  0  0  0  0  0
   60.4840   60.1200   23.8240 C   0  0  0  0  0  0  0  0  0  0  0  0
   59.1630   59.7930   24.1140 C   0  0  0  0  0  0  0  0  0  0  0  0
   59.1210   58.8810   25.0300 O   0  0  0  0  0  0  0  0  0  0  0  0
   58.0310   60.4250   23.4450 C   0  0  0  0  0  0  0  0  0  0  0  0
   57.4330   60.0820   22.2440 C   0  0  0  0  0  0  0  0  0  0  0  0
   56.4320   60.9120   21.9930 N   0  0  0  0  0  0  0  0  0  0  0  0
   56.3250   61.8020   22.9700 C   0  0  0  0  0  0  0  0  0  0  0  0
   55.4390   62.8310   23.1160 C   0  0  0  0  0  0  0  0  0  0  0  0
   55.5780   63.6050   24.2650 C   0  0  0  0  0  0  0  0  0  0  0  0
   56.5440   63.3890   25.2420 C   0  0  0  0  0  0  0  0  0  0  0  0
   57.3990   62.3270   25.0140 C   0  0  0  0  0  0  0  0  0  0  0  0
   57.3180   61.5270   23.9050 C   0  0  0  0  0  0  0  0  0  0  0  0
   60.6460   57.5660   26.3970 O   0  0  0  0  0  0  0  0  0  0  0  0
   61.6740   56.6660   26.0780 C   0  0  0  0  0  0  0  0  0  0  0  0
   61.4900   55.7250   25.2920 O   0  0  0  0  0  0  0  0  0  0  0  0
   65.3720   56.8920   26.5770 C   0  0  0  0  0  0  0  0  0  0  0  0
   64.1190   56.7020   25.9500 C   0  0  0  0  0  0  0  0  0  0  0  0
   62.9800   56.8540   26.6910 C   0  0  0  0  0  0  0  0  0  0  0  0
   63.1030   57.1800   27.9910 N   0  0  0  0  0  0  0  0  0  0  0  0
   64.3140   57.3590   28.5760 C   0  0  0  0  0  0  0  0  0  0  0  0
   65.4320   57.2180   27.8840 N   0  0  0  0  0  0  0  0  0  0  0  0
   64.3780   57.7130   29.9910 C   0  0  0  0  0  0  0  0  0  0  0  0
   63.4130   58.4050   30.7250 C   0  0  0  0  0  0  0  0  0  0  0  0
   63.8130   58.5440   31.9830 N   0  0  0  0  0  0  0  0  0  0  0  0
   65.0200   57.9560   32.0840 C   0  0  0  0  0  0  0  0  0  0  0  0
   65.8780   57.8070   33.1500 C   0  0  0  0  0  0  0  0  0  0  0  0
   67.0840   57.1520   33.0030 C   0  0  0  0  0  0  0  0  0  0  0  0
   67.4750   56.6250   31.8040 C   0  0  0  0  0  0  0  0  0  0  0  0
   66.5960   56.7840   30.7390 C   0  0  0  0  0  0  0  0  0  0  0  0
   65.3880   57.4350   30.8660 C   0  0  0  0  0  0  0  0  0  0  0  0
   62.3057   59.2454   24.7549 H   0  0  0  0  0  0  0  0  0  0  0  0
   60.8643   60.8537   23.0980 H   0  0  0  0  0  0  0  0  0  0  0  0
   57.7422   59.2476   21.5973 H   0  0  0  0  0  0  0  0  0  0  0  0
   55.8258   60.8720   21.1612 H   0  0  0  0  0  0  0  0  0  0  0  0
   54.6593   63.0368   22.3678 H   0  0  0  0  0  0  0  0  0  0  0  0
   54.8785   64.4415   24.4094 H   0  0  0  0  0  0  0  0  0  0  0  0
   56.6226   64.0222   26.1380 H   0  0  0  0  0  0  0  0  0  0  0  0
   58.1810   62.1144   25.7579 H   0  0  0  0  0  0  0  0  0  0  0  0
   66.2995   56.7737   25.9975 H   0  0  0  0  0  0  0  0  0  0  0  0
   64.0615   56.4364   24.8841 H   0  0  0  0  0  0  0  0  0  0  0  0
   62.4613   58.7799   30.3204 H   0  0  0  0  0  0  0  0  0  0  0  0
   63.2966   59.0138   32.7403 H   0  0  0  0  0  0  0  0  0  0  0  0
   65.5987   58.2155   34.1324 H   0  0  0  0  0  0  0  0  0  0  0  0
   67.7482   57.0514   33.8740 H   0  0  0  0  0  0  0  0  0  0  0  0
   68.4357   56.1020   31.6878 H   0  0  0  0  0  0  0  0  0  0  0  0
   66.8754   56.3744   29.7571 H   0  0  0  0  0  0  0  0  0  0  0  0
  1 15  1  0
  2  1  2  0
  3  4  2  0
  3  2  1  0
  4  5  1  0
  5  1  1  0
  6 14  1  0
  6  4  1  0
  7  6  2  0
  8  7  1  0
  8  9  1  0
  9 10  2  0
  9 14  1  0
 10 11  1  0
 11 12  2  0
 13 12  1  0
 14 13  2  0
 16 15  1  0
 16 20  1  0
 17 16  2  0
 18 23  2  0
 19 18  1  0
 19 20  2  0
 20 21  1  0
 21 22  2  0
 22 24  1  0
 23 22  1  0
 24 25  2  0
 24 32  1  0
 25 26  1  0
 26 27  1  0
 27 28  2  0
 29 28  1  0
 30 29  2  0
 31 32  2  0
 31 30  1  0
 32 27  1  0
  2 33  1  0
  3 34  1  0
  7 35  1  0
  8 36  1  0
 10 37  1  0
 11 38  1  0
 12 39  1  0
 13 40  1  0
 18 41  1  0
 19 42  1  0
 25 43  1  0
 26 44  1  0
 28 45  1  0
 29 46  1  0
 30 47  1  0
 31 48  1  0
M  END
>  <Score>  (1) 
-7.47091

$$$$
