
     RDKit          3D

 46 49  0  0  0  0  0  0  0  0999 V2000
   65.2860   56.7540   26.0280 C   0  0  0  0  0  0  0  0  0  0  0  0
   63.9550   56.7690   25.5560 C   0  0  0  0  0  0  0  0  0  0  0  0
   62.9480   57.0110   26.4360 C   0  0  0  0  0  0  0  0  0  0  0  0
   63.2560   57.2300   27.7490 N   0  0  0  0  0  0  0  0  0  0  0  0
   64.5310   57.2120   28.1740 C   0  0  0  0  0  0  0  0  0  0  0  0
   65.5510   56.9790   27.3460 N   0  0  0  0  0  0  0  0  0  0  0  0
   64.7900   57.4630   29.6060 C   0  0  0  0  0  0  0  0  0  0  0  0
   63.9500   58.0390   30.5290 C   0  0  0  0  0  0  0  0  0  0  0  0
   64.4220   58.1710   31.8070 C   0  0  0  0  0  0  0  0  0  0  0  0
   65.7110   57.7070   32.0490 C   0  0  0  0  0  0  0  0  0  0  0  0
   66.2550   57.0920   30.4960 S   0  0  0  0  0  0  0  0  0  0  0  0
   66.4460   57.7170   33.2450 N   0  0  0  0  0  0  0  0  0  0  0  0
   67.6610   57.0660   33.3670 C   0  0  0  0  0  0  0  0  0  0  0  0
   67.8940   55.9390   32.8030 N   0  0  0  0  0  0  0  0  0  0  0  0
   68.6890   57.6960   34.1680 N   0  0  0  0  0  0  0  0  0  0  0  0
   67.1960   55.4380   32.2490 H   0  0  0  0  0  0  0  0  0  0  0  0
   61.5460   57.0360   26.0090 C   0  0  0  0  0  0  0  0  0  0  0  0
   60.7440   55.9290   25.8400 C   0  0  0  0  0  0  0  0  0  0  0  0
   59.5020   56.3990   25.4340 C   0  0  0  0  0  0  0  0  0  0  0  0
   59.6340   57.7810   25.3820 C   0  0  0  0  0  0  0  0  0  0  0  0
   60.8620   58.0940   25.7320 O   0  0  0  0  0  0  0  0  0  0  0  0
   58.5990   58.6930   25.0140 N   0  0  0  0  0  0  0  0  0  0  0  0
   58.3070   60.0760   25.3400 C   0  0  0  0  0  0  0  0  0  0  0  0
   58.1960   60.9660   24.1230 C   0  0  0  0  0  0  0  0  0  0  0  0
   57.6560   60.3160   22.9010 C   0  0  0  0  0  0  0  0  0  0  0  0
   57.8890   58.8500   22.7670 C   0  0  0  0  0  0  0  0  0  0  0  0
   57.5540   58.2240   24.1240 C   0  0  0  0  0  0  0  0  0  0  0  0
   66.1127   56.5598   25.3288 H   0  0  0  0  0  0  0  0  0  0  0  0
   63.7369   56.5877   24.4932 H   0  0  0  0  0  0  0  0  0  0  0  0
   62.9413   58.3794   30.2523 H   0  0  0  0  0  0  0  0  0  0  0  0
   63.8120   58.6219   32.6037 H   0  0  0  0  0  0  0  0  0  0  0  0
   66.0689   58.2251   34.0577 H   0  0  0  0  0  0  0  0  0  0  0  0
   69.6057   57.2400   34.2808 H   0  0  0  0  0  0  0  0  0  0  0  0
   68.5038   58.6002   34.6251 H   0  0  0  0  0  0  0  0  0  0  0  0
   61.0311   54.8786   25.9960 H   0  0  0  0  0  0  0  0  0  0  0  0
   58.6058   55.8045   25.2031 H   0  0  0  0  0  0  0  0  0  0  0  0
   57.3534   60.1120   25.8872 H   0  0  0  0  0  0  0  0  0  0  0  0
   59.1456   60.4527   25.9440 H   0  0  0  0  0  0  0  0  0  0  0  0
   57.5361   61.8082   24.3784 H   0  0  0  0  0  0  0  0  0  0  0  0
   59.2245   61.2671   23.8749 H   0  0  0  0  0  0  0  0  0  0  0  0
   56.5690   60.4840   22.8861 H   0  0  0  0  0  0  0  0  0  0  0  0
   58.2018   60.7744   22.0631 H   0  0  0  0  0  0  0  0  0  0  0  0
   57.2367   58.4325   21.9858 H   0  0  0  0  0  0  0  0  0  0  0  0
   58.9302   58.6399   22.4811 H   0  0  0  0  0  0  0  0  0  0  0  0
   56.5668   58.5608   24.4734 H   0  0  0  0  0  0  0  0  0  0  0  0
   57.5099   57.1259   24.0762 H   0  0  0  0  0  0  0  0  0  0  0  0
  1  6  2  0
  2  1  1  0
  2  3  2  0
  3  4  1  0
  4  5  2  0
  5  7  1  0
  6  5  1  0
  7 11  1  0
  7  8  2  0
  8  9  1  0
  9 10  2  0
 10 12  1  0
 11 10  1  0
 12 13  1  0
 13 15  1  0
 14 13  2  0
 16 14  1  0
 17  3  1  0
 18 17  2  0
 19 18  1  0
 20 19  2  0
 20 21  1  0
 21 17  1  0
 22 23  1  0
 22 20  1  0
 24 23  1  0
 25 24  1  0
 26 25  1  0
 26 27  1  0
 27 22  1  0
  1 28  1  0
  2 29  1  0
  8 30  1  0
  9 31  1  0
 12 32  1  0
 15 33  1  0
 15 34  1  0
 18 35  1  0
 19 36  1  0
 23 37  1  0
 23 38  1  0
 24 39  1  0
 24 40  1  0
 25 41  1  0
 25 42  1  0
 26 43  1  0
 26 44  1  0
 27 45  1  0
 27 46  1  0
M  END
>  <Score>  (1) 
-7.06469

$$$$
