
     RDKit          3D

 47 51  0  0  0  0  0  0  0  0999 V2000
   63.5150   56.9660   27.1090 C   0  0  0  0  0  0  0  0  0  0  0  0
   62.1980   57.4340   27.3340 C   0  0  0  0  0  0  0  0  0  0  0  0
   61.9870   58.1540   28.5090 C   0  0  0  0  0  0  0  0  0  0  0  0
   63.0100   58.3720   29.3630 N   0  0  0  0  0  0  0  0  0  0  0  0
   64.2500   57.9120   29.1200 C   0  0  0  0  0  0  0  0  0  0  0  0
   64.5070   57.2140   28.0020 N   0  0  0  0  0  0  0  0  0  0  0  0
   65.3150   58.1770   30.0760 C   0  0  0  0  0  0  0  0  0  0  0  0
   66.0350   57.1190   30.6200 C   0  0  0  0  0  0  0  0  0  0  0  0
   67.0470   57.4150   31.5330 C   0  0  0  0  0  0  0  0  0  0  0  0
   67.3420   58.6830   31.8980 N   0  0  0  0  0  0  0  0  0  0  0  0
   66.6110   59.6650   31.3380 C   0  0  0  0  0  0  0  0  0  0  0  0
   65.6100   59.4360   30.4410 N   0  0  0  0  0  0  0  0  0  0  0  0
   66.7700   61.0790   31.5960 N   0  0  0  0  0  0  0  0  0  0  0  0
   65.6850   61.7620   32.0050 C   0  0  0  0  0  0  0  0  0  0  0  0
   65.7780   63.1140   32.2660 C   0  0  0  0  0  0  0  0  0  0  0  0
   64.6030   63.9050   32.7200 C   0  0  0  0  0  0  0  0  0  0  0  0
   67.0120   63.7130   32.0890 C   0  0  0  0  0  0  0  0  0  0  0  0
   67.1440   64.9580   32.3190 O   0  0  0  0  0  0  0  0  0  0  0  0
   68.0900   63.0190   31.6800 N   0  0  0  0  0  0  0  0  0  0  0  0
   67.9760   61.6970   31.4300 C   0  0  0  0  0  0  0  0  0  0  0  0
   68.9250   60.9450   31.0400 O   0  0  0  0  0  0  0  0  0  0  0  0
   61.2770   57.0800   26.2890 C   0  0  0  0  0  0  0  0  0  0  0  0
   60.8600   55.7540   26.2920 C   0  0  0  0  0  0  0  0  0  0  0  0
   59.9820   55.2190   25.3780 C   0  0  0  0  0  0  0  0  0  0  0  0
   59.4770   56.0290   24.3930 C   0  0  0  0  0  0  0  0  0  0  0  0
   59.8690   57.3290   24.3660 C   0  0  0  0  0  0  0  0  0  0  0  0
   59.4110   58.2160   23.4090 C   0  0  0  0  0  0  0  0  0  0  0  0
   59.8000   59.5360   23.3710 C   0  0  0  0  0  0  0  0  0  0  0  0
   60.6840   60.0240   24.3130 C   0  0  0  0  0  0  0  0  0  0  0  0
   61.1690   59.1730   25.2900 C   0  0  0  0  0  0  0  0  0  0  0  0
   60.7450   57.8590   25.2800 C   0  0  0  0  0  0  0  0  0  0  0  0
   63.7379   56.3928   26.1970 H   0  0  0  0  0  0  0  0  0  0  0  0
   60.9854   58.5452   28.7408 H   0  0  0  0  0  0  0  0  0  0  0  0
   65.8129   56.0791   30.3385 H   0  0  0  0  0  0  0  0  0  0  0  0
   67.6252   56.5882   31.9713 H   0  0  0  0  0  0  0  0  0  0  0  0
   64.7237   61.2425   32.1313 H   0  0  0  0  0  0  0  0  0  0  0  0
   64.5759   63.9232   33.8195 H   0  0  0  0  0  0  0  0  0  0  0  0
   64.6836   64.9334   32.3381 H   0  0  0  0  0  0  0  0  0  0  0  0
   63.6805   63.4433   32.3381 H   0  0  0  0  0  0  0  0  0  0  0  0
   68.9962   63.4932   31.5584 H   0  0  0  0  0  0  0  0  0  0  0  0
   61.2571   55.0907   27.0745 H   0  0  0  0  0  0  0  0  0  0  0  0
   59.6900   54.1600   25.4361 H   0  0  0  0  0  0  0  0  0  0  0  0
   58.7731   55.6360   23.6447 H   0  0  0  0  0  0  0  0  0  0  0  0
   58.7067   57.8517   22.6466 H   0  0  0  0  0  0  0  0  0  0  0  0
   59.4063   60.2026   22.5896 H   0  0  0  0  0  0  0  0  0  0  0  0
   60.9990   61.0776   24.2868 H   0  0  0  0  0  0  0  0  0  0  0  0
   61.8734   59.5334   26.0541 H   0  0  0  0  0  0  0  0  0  0  0  0
  1  2  2  0
  1  6  1  0
  2  3  1  0
  3  4  2  0
  5  4  1  0
  5  7  1  0
  6  5  2  0
  7 12  1  0
  7  8  2  0
  8  9  1  0
  9 10  2  0
 11 13  1  0
 11 10  1  0
 12 11  2  0
 13 14  1  0
 14 15  2  0
 15 16  1  0
 17 15  1  0
 17 18  2  0
 19 17  1  0
 20 13  1  0
 20 19  1  0
 21 20  2  0
 22 23  2  0
 22  2  1  0
 24 23  1  0
 25 24  2  0
 26 25  1  0
 26 31  2  0
 27 26  1  0
 28 27  2  0
 28 29  1  0
 29 30  2  0
 31 30  1  0
 31 22  1  0
  1 32  1  0
  3 33  1  0
  8 34  1  0
  9 35  1  0
 14 36  1  0
 16 37  1  0
 16 38  1  0
 16 39  1  0
 19 40  1  0
 23 41  1  0
 24 42  1  0
 25 43  1  0
 27 44  1  0
 28 45  1  0
 29 46  1  0
 30 47  1  0
M  END
>  <Score>  (1) 
-7.88336

$$$$
