
     RDKit          3D

 39 43  0  0  0  0  0  0  0  0999 V2000
   63.5100   56.9690   27.1330 C   0  0  0  0  0  0  0  0  0  0  0  0
   62.1890   57.4520   27.3490 C   0  0  0  0  0  0  0  0  0  0  0  0
   61.9760   58.1770   28.5210 C   0  0  0  0  0  0  0  0  0  0  0  0
   63.0000   58.3830   29.3730 N   0  0  0  0  0  0  0  0  0  0  0  0
   64.2300   57.9210   29.1520 C   0  0  0  0  0  0  0  0  0  0  0  0
   64.4950   57.2110   28.0310 N   0  0  0  0  0  0  0  0  0  0  0  0
   61.2760   57.1000   26.3000 C   0  0  0  0  0  0  0  0  0  0  0  0
   60.8620   55.7670   26.3040 C   0  0  0  0  0  0  0  0  0  0  0  0
   59.9900   55.2280   25.3830 C   0  0  0  0  0  0  0  0  0  0  0  0
   59.4870   56.0290   24.3960 C   0  0  0  0  0  0  0  0  0  0  0  0
   59.8740   57.3320   24.3680 C   0  0  0  0  0  0  0  0  0  0  0  0
   59.4180   58.2150   23.4090 C   0  0  0  0  0  0  0  0  0  0  0  0
   59.8040   59.5460   23.3700 C   0  0  0  0  0  0  0  0  0  0  0  0
   60.6800   60.0290   24.3210 C   0  0  0  0  0  0  0  0  0  0  0  0
   61.1620   59.1750   25.3010 C   0  0  0  0  0  0  0  0  0  0  0  0
   60.7440   57.8720   25.2870 C   0  0  0  0  0  0  0  0  0  0  0  0
   65.2960   58.1740   30.1050 C   0  0  0  0  0  0  0  0  0  0  0  0
   66.0870   57.1280   30.5670 C   0  0  0  0  0  0  0  0  0  0  0  0
   67.0990   57.4320   31.4800 C   0  0  0  0  0  0  0  0  0  0  0  0
   67.3250   58.7030   31.9210 N   0  0  0  0  0  0  0  0  0  0  0  0
   66.5300   59.6530   31.4390 C   0  0  0  0  0  0  0  0  0  0  0  0
   65.5310   59.4210   30.5510 N   0  0  0  0  0  0  0  0  0  0  0  0
   66.7180   61.0360   31.8700 C   0  0  0  0  0  0  0  0  0  0  0  0
   66.4430   61.5850   33.0720 N   0  0  0  0  0  0  0  0  0  0  0  0
   66.7460   62.8370   33.0700 O   0  0  0  0  0  0  0  0  0  0  0  0
   67.2310   63.2050   31.9070 C   0  0  0  0  0  0  0  0  0  0  0  0
   67.2080   62.0780   31.1720 N   0  0  0  0  0  0  0  0  0  0  0  0
   63.7344   56.3912   26.2243 H   0  0  0  0  0  0  0  0  0  0  0  0
   60.9777   58.5786   28.7490 H   0  0  0  0  0  0  0  0  0  0  0  0
   61.2559   55.1063   27.0904 H   0  0  0  0  0  0  0  0  0  0  0  0
   59.7027   54.1678   25.4413 H   0  0  0  0  0  0  0  0  0  0  0  0
   58.7886   55.6304   23.6454 H   0  0  0  0  0  0  0  0  0  0  0  0
   58.7190   57.8467   22.6437 H   0  0  0  0  0  0  0  0  0  0  0  0
   59.4147   60.2127   22.5864 H   0  0  0  0  0  0  0  0  0  0  0  0
   60.9933   61.0833   24.3015 H   0  0  0  0  0  0  0  0  0  0  0  0
   61.8618   59.5352   26.0694 H   0  0  0  0  0  0  0  0  0  0  0  0
   65.9212   56.0958   30.2249 H   0  0  0  0  0  0  0  0  0  0  0  0
   67.7361   56.6183   31.8567 H   0  0  0  0  0  0  0  0  0  0  0  0
   67.5765   64.2042   31.6033 H   0  0  0  0  0  0  0  0  0  0  0  0
  1  2  2  0
  1  6  1  0
  2  3  1  0
  3  4  2  0
  5  4  1  0
  5 17  1  0
  6  5  2  0
  7  8  2  0
  7  2  1  0
  9  8  1  0
 10  9  2  0
 11 10  1  0
 11 16  2  0
 12 11  1  0
 13 12  2  0
 13 14  1  0
 14 15  2  0
 16 15  1  0
 16  7  1  0
 17 22  1  0
 17 18  2  0
 18 19  1  0
 19 20  2  0
 21 23  1  0
 21 20  1  0
 22 21  2  0
 23 24  2  0
 25 24  1  0
 26 25  1  0
 27 23  1  0
 27 26  2  0
  1 28  1  0
  3 29  1  0
  8 30  1  0
  9 31  1  0
 10 32  1  0
 12 33  1  0
 13 34  1  0
 14 35  1  0
 15 36  1  0
 18 37  1  0
 19 38  1  0
 26 39  1  0
M  END
>  <Score>  (1) 
-7.02249

$$$$
