
     RDKit          3D

 50 54  0  0  0  0  0  0  0  0999 V2000
   64.7560   58.0720   30.5150 C   0  0  0  0  0  0  0  0  0  0  0  0
   65.1670   57.5910   31.7560 C   0  0  0  0  0  0  0  0  0  0  0  0
   65.9910   58.3490   32.5740 C   0  0  0  0  0  0  0  0  0  0  0  0
   66.3830   59.5700   32.1230 N   0  0  0  0  0  0  0  0  0  0  0  0
   65.9900   60.0310   30.9330 C   0  0  0  0  0  0  0  0  0  0  0  0
   65.1910   59.2920   30.1470 N   0  0  0  0  0  0  0  0  0  0  0  0
   66.4430   57.9200   33.8420 N   0  0  0  0  0  0  0  0  0  0  0  0
   66.1020   58.2910   35.1030 C   0  0  0  0  0  0  0  0  0  0  0  0
   66.8390   57.5650   35.9920 N   0  0  0  0  0  0  0  0  0  0  0  0
   67.6460   56.7330   35.2780 C   0  0  0  0  0  0  0  0  0  0  0  0
   68.5660   55.8120   35.7390 C   0  0  0  0  0  0  0  0  0  0  0  0
   68.7990   55.6020   36.9570 O   0  0  0  0  0  0  0  0  0  0  0  0
   69.2110   55.1400   34.7660 N   0  0  0  0  0  0  0  0  0  0  0  0
   69.0120   55.3130   33.4560 C   0  0  0  0  0  0  0  0  0  0  0  0
   69.6950   54.6010   32.4600 N   0  0  0  0  0  0  0  0  0  0  0  0
   68.1000   56.2260   33.0180 N   0  0  0  0  0  0  0  0  0  0  0  0
   67.4010   56.9520   33.9330 C   0  0  0  0  0  0  0  0  0  0  0  0
   66.4060   61.3560   30.4280 C   0  0  0  0  0  0  0  0  0  0  0  0
   66.4550   61.4140   29.0610 F   0  0  0  0  0  0  0  0  0  0  0  0
   67.6690   61.7110   30.8990 F   0  0  0  0  0  0  0  0  0  0  0  0
   65.5480   62.3100   30.9850 F   0  0  0  0  0  0  0  0  0  0  0  0
   63.9450   57.2240   29.8120 O   0  0  0  0  0  0  0  0  0  0  0  0
   63.6190   57.3130   28.4690 C   0  0  0  0  0  0  0  0  0  0  0  0
   64.5900   56.8620   27.5780 C   0  0  0  0  0  0  0  0  0  0  0  0
   64.2780   56.9430   26.2090 C   0  0  0  0  0  0  0  0  0  0  0  0
   63.0680   57.4470   25.8210 N   0  0  0  0  0  0  0  0  0  0  0  0
   62.1680   57.8690   26.7250 C   0  0  0  0  0  0  0  0  0  0  0  0
   62.4570   57.7960   28.0360 N   0  0  0  0  0  0  0  0  0  0  0  0
   60.9030   58.3960   26.2950 N   0  0  0  0  0  0  0  0  0  0  0  0
   60.2220   59.3820   27.0960 C   0  0  0  0  0  0  0  0  0  0  0  0
   58.7710   59.4850   26.8600 C   0  0  0  0  0  0  0  0  0  0  0  0
   58.3310   59.2590   25.5250 N   0  0  0  0  0  0  0  0  0  0  0  0
   59.3830   59.0160   24.5770 C   0  0  0  0  0  0  0  0  0  0  0  0
   60.3260   57.9270   25.0570 C   0  0  0  0  0  0  0  0  0  0  0  0
   64.8338   56.5977   32.0912 H   0  0  0  0  0  0  0  0  0  0  0  0
   65.3532   59.0531   35.3649 H   0  0  0  0  0  0  0  0  0  0  0  0
   69.9101   54.4403   35.0533 H   0  0  0  0  0  0  0  0  0  0  0  0
   69.4935   54.7834   31.4665 H   0  0  0  0  0  0  0  0  0  0  0  0
   70.3983   53.8955   32.7217 H   0  0  0  0  0  0  0  0  0  0  0  0
   65.5532   56.4622   27.9278 H   0  0  0  0  0  0  0  0  0  0  0  0
   65.0032   56.6029   25.4551 H   0  0  0  0  0  0  0  0  0  0  0  0
   60.3779   59.1277   28.1548 H   0  0  0  0  0  0  0  0  0  0  0  0
   60.6485   60.3553   26.8120 H   0  0  0  0  0  0  0  0  0  0  0  0
   58.2732   58.7471   27.5063 H   0  0  0  0  0  0  0  0  0  0  0  0
   58.5117   60.5309   27.0810 H   0  0  0  0  0  0  0  0  0  0  0  0
   57.7066   58.4399   25.5277 H   0  0  0  0  0  0  0  0  0  0  0  0
   59.9543   59.9447   24.4316 H   0  0  0  0  0  0  0  0  0  0  0  0
   58.9261   58.6846   23.6328 H   0  0  0  0  0  0  0  0  0  0  0  0
   59.7712   56.9925   25.2270 H   0  0  0  0  0  0  0  0  0  0  0  0
   61.1060   57.7202   24.3094 H   0  0  0  0  0  0  0  0  0  0  0  0
  1  2  2  0
  2  3  1  0
  3  7  1  0
  4  3  2  0
  5  4  1  0
  6  1  1  0
  6  5  2  0
  7 17  1  0
  7  8  1  0
  8  9  2  0
 10 11  1  0
 10  9  1  0
 11 12  2  0
 13 11  1  0
 14 13  1  0
 15 14  1  0
 16 14  2  0
 16 17  1  0
 17 10  2  0
 18 20  1  0
 18  5  1  0
 18 21  1  0
 19 18  1  0
 22  1  1  0
 23 22  1  0
 24 23  2  0
 25 24  1  0
 26 25  2  0
 26 27  1  0
 27 28  2  0
 28 23  1  0
 29 27  1  0
 29 30  1  0
 31 30  1  0
 32 31  1  0
 33 34  1  0
 33 32  1  0
 34 29  1  0
  2 35  1  0
  8 36  1  0
 13 37  1  0
 15 38  1  0
 15 39  1  0
 24 40  1  0
 25 41  1  0
 30 42  1  0
 30 43  1  0
 31 44  1  0
 31 45  1  0
 32 46  1  0
 33 47  1  0
 33 48  1  0
 34 49  1  0
 34 50  1  0
M  END
>  <Score>  (1) 
-7.67977

$$$$
