
     RDKit          3D

 46 49  0  0  0  0  0  0  0  0999 V2000
   63.4910   56.9580   27.1200 C   0  0  0  0  0  0  0  0  0  0  0  0
   62.1720   57.4410   27.3360 C   0  0  0  0  0  0  0  0  0  0  0  0
   61.9670   58.1680   28.5070 C   0  0  0  0  0  0  0  0  0  0  0  0
   62.9910   58.3760   29.3580 N   0  0  0  0  0  0  0  0  0  0  0  0
   64.2280   57.9050   29.1240 C   0  0  0  0  0  0  0  0  0  0  0  0
   64.4800   57.2000   28.0130 N   0  0  0  0  0  0  0  0  0  0  0  0
   61.2580   57.0860   26.2860 C   0  0  0  0  0  0  0  0  0  0  0  0
   60.8440   55.7660   26.2840 C   0  0  0  0  0  0  0  0  0  0  0  0
   59.9710   55.2240   25.3630 C   0  0  0  0  0  0  0  0  0  0  0  0
   59.4690   56.0360   24.3730 C   0  0  0  0  0  0  0  0  0  0  0  0
   59.8600   57.3370   24.3520 C   0  0  0  0  0  0  0  0  0  0  0  0
   59.4060   58.2260   23.3930 C   0  0  0  0  0  0  0  0  0  0  0  0
   59.7950   59.5470   23.3600 C   0  0  0  0  0  0  0  0  0  0  0  0
   60.6730   60.0310   24.3120 C   0  0  0  0  0  0  0  0  0  0  0  0
   61.1520   59.1730   25.2900 C   0  0  0  0  0  0  0  0  0  0  0  0
   60.7320   57.8600   25.2790 C   0  0  0  0  0  0  0  0  0  0  0  0
   65.2890   58.1670   30.0880 C   0  0  0  0  0  0  0  0  0  0  0  0
   66.0780   57.1150   30.5430 C   0  0  0  0  0  0  0  0  0  0  0  0
   67.0850   57.4070   31.4670 C   0  0  0  0  0  0  0  0  0  0  0  0
   67.3080   58.6630   31.9220 N   0  0  0  0  0  0  0  0  0  0  0  0
   66.5080   59.6320   31.4400 C   0  0  0  0  0  0  0  0  0  0  0  0
   65.5110   59.4140   30.5400 N   0  0  0  0  0  0  0  0  0  0  0  0
   66.7280   61.0240   31.9200 C   0  0  0  0  0  0  0  0  0  0  0  0
   65.5590   61.8430   31.4270 C   0  0  0  0  0  0  0  0  0  0  0  0
   66.8750   61.0960   33.4220 C   0  0  0  0  0  0  0  0  0  0  0  0
   67.9890   61.5370   31.2990 C   0  0  0  0  0  0  0  0  0  0  0  0
   63.7124   56.3777   26.2121 H   0  0  0  0  0  0  0  0  0  0  0  0
   60.9699   58.5719   28.7366 H   0  0  0  0  0  0  0  0  0  0  0  0
   61.2372   55.1039   27.0695 H   0  0  0  0  0  0  0  0  0  0  0  0
   59.6825   54.1640   25.4195 H   0  0  0  0  0  0  0  0  0  0  0  0
   58.7706   55.6432   23.6194 H   0  0  0  0  0  0  0  0  0  0  0  0
   58.7061   57.8628   22.6261 H   0  0  0  0  0  0  0  0  0  0  0  0
   59.4076   60.2159   22.5773 H   0  0  0  0  0  0  0  0  0  0  0  0
   60.9879   61.0848   24.2937 H   0  0  0  0  0  0  0  0  0  0  0  0
   61.8523   59.5323   26.0584 H   0  0  0  0  0  0  0  0  0  0  0  0
   65.9144   56.0871   30.1870 H   0  0  0  0  0  0  0  0  0  0  0  0
   67.7188   56.5879   31.8378 H   0  0  0  0  0  0  0  0  0  0  0  0
   64.9979   62.2361   32.2876 H   0  0  0  0  0  0  0  0  0  0  0  0
   65.9291   62.6803   30.8172 H   0  0  0  0  0  0  0  0  0  0  0  0
   64.8985   61.2091   30.8172 H   0  0  0  0  0  0  0  0  0  0  0  0
   65.9848   60.6600   33.8989 H   0  0  0  0  0  0  0  0  0  0  0  0
   67.7687   60.5336   33.7303 H   0  0  0  0  0  0  0  0  0  0  0  0
   66.9786   62.1468   33.7303 H   0  0  0  0  0  0  0  0  0  0  0  0
   68.6967   61.8249   32.0904 H   0  0  0  0  0  0  0  0  0  0  0  0
   68.4371   60.7497   30.6750 H   0  0  0  0  0  0  0  0  0  0  0  0
   67.7602   62.4135   30.6750 H   0  0  0  0  0  0  0  0  0  0  0  0
  1  2  2  0
  1  6  1  0
  2  3  1  0
  3  4  2  0
  5  4  1  0
  5 17  1  0
  6  5  2  0
  7  2  1  0
  8  7  2  0
  9  8  1  0
 10  9  2  0
 11 10  1  0
 11 16  2  0
 12 11  1  0
 13 12  2  0
 13 14  1  0
 14 15  2  0
 16 15  1  0
 16  7  1  0
 17 22  1  0
 17 18  2  0
 18 19  1  0
 19 20  2  0
 21 23  1  0
 21 20  1  0
 22 21  2  0
 23 25  1  0
 24 23  1  0
 26 23  1  0
  1 27  1  0
  3 28  1  0
  8 29  1  0
  9 30  1  0
 10 31  1  0
 12 32  1  0
 13 33  1  0
 14 34  1  0
 15 35  1  0
 18 36  1  0
 19 37  1  0
 24 38  1  0
 24 39  1  0
 24 40  1  0
 25 41  1  0
 25 42  1  0
 25 43  1  0
 26 44  1  0
 26 45  1  0
 26 46  1  0
M  END
>  <Score>  (1) 
-7.06817

$$$$
