
     RDKit          3D

 52 57  0  0  1  0  0  0  0  0999 V2000
   61.6820   56.7830   26.4100 N   0  0  0  0  0  0  0  0  0  0  0  0
   61.1930   55.4640   26.0240 C   0  0  0  0  0  0  0  0  0  0  0  0
   60.1910   55.7460   24.9420 C   0  0  0  0  0  0  0  0  0  0  0  0
   59.5650   57.0260   25.4990 C   0  0  0  0  0  0  0  0  0  0  0  0
   60.9740   57.7930   25.7410 C   0  0  1  0  0  0  0  0  0  0  0  0
   60.6610   59.0280   26.4470 C   0  0  0  0  0  0  0  0  0  0  0  0
   61.0000   59.5370   27.7020 C   0  0  0  0  0  0  0  0  0  0  0  0
   60.4730   60.7740   27.8850 N   0  0  0  0  0  0  0  0  0  0  0  0
   59.7980   61.0890   26.7710 C   0  0  0  0  0  0  0  0  0  0  0  0
   59.1190   62.2530   26.5160 C   0  0  0  0  0  0  0  0  0  0  0  0
   58.5000   62.4260   25.3220 C   0  0  0  0  0  0  0  0  0  0  0  0
   58.5820   61.4140   24.4110 C   0  0  0  0  0  0  0  0  0  0  0  0
   59.2700   60.2440   24.6850 C   0  0  0  0  0  0  0  0  0  0  0  0
   59.9000   60.0460   25.8790 C   0  0  0  0  0  0  0  0  0  0  0  0
   64.0250   57.3340   26.9440 C   0  0  0  0  0  0  0  0  0  0  0  0
   62.7100   56.9900   27.3520 C   0  0  0  0  0  0  0  0  0  0  0  0
   62.5140   56.8960   28.7180 C   0  0  0  0  0  0  0  0  0  0  0  0
   63.5420   57.1340   29.5500 N   0  0  0  0  0  0  0  0  0  0  0  0
   64.7520   57.4550   29.1330 C   0  0  0  0  0  0  0  0  0  0  0  0
   65.0040   57.5550   27.8450 N   0  0  0  0  0  0  0  0  0  0  0  0
   65.6480   57.6520   30.2790 C   0  0  0  0  0  0  0  0  0  0  0  0
   66.4070   56.6410   30.8230 C   0  0  0  0  0  0  0  0  0  0  0  0
   67.2620   56.7680   31.8940 C   0  0  0  0  0  0  0  0  0  0  0  0
   67.3950   57.9920   32.4990 C   0  0  0  0  0  0  0  0  0  0  0  0
   66.6620   59.0430   32.0010 C   0  0  0  0  0  0  0  0  0  0  0  0
   66.8290   60.2530   32.6400 C   0  0  0  0  0  0  0  0  0  0  0  0
   66.1360   61.3650   32.2120 C   0  0  0  0  0  0  0  0  0  0  0  0
   65.2730   61.2090   31.1200 C   0  0  0  0  0  0  0  0  0  0  0  0
   65.1640   59.9660   30.5400 C   0  0  0  0  0  0  0  0  0  0  0  0
   65.8290   58.8490   30.9300 C   0  0  0  0  0  0  0  0  0  0  0  0
   62.0142   54.8396   25.6423 H   0  0  0  0  0  0  0  0  0  0  0  0
   60.7567   54.9119   26.8695 H   0  0  0  0  0  0  0  0  0  0  0  0
   59.4523   54.9366   24.8467 H   0  0  0  0  0  0  0  0  0  0  0  0
   60.6106   55.8343   23.9290 H   0  0  0  0  0  0  0  0  0  0  0  0
   58.9194   57.5381   24.7704 H   0  0  0  0  0  0  0  0  0  0  0  0
   58.8874   56.9263   26.3597 H   0  0  0  0  0  0  0  0  0  0  0  0
   61.5773   58.1523   24.8943 H   0  0  0  0  0  0  0  0  0  0  0  0
   61.6133   59.0055   28.4445 H   0  0  0  0  0  0  0  0  0  0  0  0
   60.5732   61.3620   28.7247 H   0  0  0  0  0  0  0  0  0  0  0  0
   59.0766   63.0447   27.2785 H   0  0  0  0  0  0  0  0  0  0  0  0
   57.9501   63.3514   25.0956 H   0  0  0  0  0  0  0  0  0  0  0  0
   58.0893   61.5303   23.4344 H   0  0  0  0  0  0  0  0  0  0  0  0
   59.3097   59.4540   23.9206 H   0  0  0  0  0  0  0  0  0  0  0  0
   64.2504   57.4222   25.8710 H   0  0  0  0  0  0  0  0  0  0  0  0
   61.5254   56.6288   29.1197 H   0  0  0  0  0  0  0  0  0  0  0  0
   66.3231   55.6457   30.3621 H   0  0  0  0  0  0  0  0  0  0  0  0
   67.8307   55.9003   32.2597 H   0  0  0  0  0  0  0  0  0  0  0  0
   68.0687   58.1286   33.3578 H   0  0  0  0  0  0  0  0  0  0  0  0
   67.5176   60.3314   33.4943 H   0  0  0  0  0  0  0  0  0  0  0  0
   66.2563   62.3386   32.7096 H   0  0  0  0  0  0  0  0  0  0  0  0
   64.6949   62.0617   30.7344 H   0  0  0  0  0  0  0  0  0  0  0  0
   64.4780   59.8692   29.6856 H   0  0  0  0  0  0  0  0  0  0  0  0
  1 16  1  0
  2  1  1  0
  3  4  1  0
  3  2  1  0
  4  5  1  0
  5  1  1  0
  5  6  1  0
  6  7  2  0
  7  8  1  0
  9  8  1  0
 10  9  2  0
 11 10  1  0
 12 13  1  0
 12 11  2  0
 13 14  2  0
 14  6  1  0
 14  9  1  0
 15 16  2  0
 15 20  1  0
 16 17  1  0
 17 18  2  0
 19 18  1  0
 19 21  1  0
 20 19  2  0
 21 22  2  0
 21 30  1  0
 22 23  1  0
 23 24  2  0
 25 24  1  0
 25 26  2  0
 27 26  1  0
 28 27  2  0
 29 30  2  0
 29 28  1  0
 30 25  1  0
  2 31  1  0
  2 32  1  0
  3 33  1  0
  3 34  1  0
  4 35  1  0
  4 36  1  0
  5 37  1  6
  7 38  1  0
  8 39  1  0
 10 40  1  0
 11 41  1  0
 12 42  1  0
 13 43  1  0
 15 44  1  0
 17 45  1  0
 22 46  1  0
 23 47  1  0
 24 48  1  0
 26 49  1  0
 27 50  1  0
 28 51  1  0
 29 52  1  0
M  END
>  <Score>  (1) 
-7.55411

$$$$
