
     RDKit          3D

 46 50  0  0  1  0  0  0  0  0999 V2000
   61.7560   56.8870   26.4310 N   0  0  0  0  0  0  0  0  0  0  0  0
   61.2820   55.5740   26.0140 C   0  0  0  0  0  0  0  0  0  0  0  0
   60.2970   55.8630   24.9270 C   0  0  0  0  0  0  0  0  0  0  0  0
   59.6550   57.1330   25.4840 C   0  0  0  0  0  0  0  0  0  0  0  0
   61.0510   57.9070   25.7740 C   0  0  1  0  0  0  0  0  0  0  0  0
   64.1230   57.2770   27.0100 C   0  0  0  0  0  0  0  0  0  0  0  0
   62.7700   57.0870   27.3910 C   0  0  0  0  0  0  0  0  0  0  0  0
   62.5100   57.1310   28.7600 C   0  0  0  0  0  0  0  0  0  0  0  0
   63.5180   57.3480   29.6210 N   0  0  0  0  0  0  0  0  0  0  0  0
   64.7710   57.5220   29.2120 C   0  0  0  0  0  0  0  0  0  0  0  0
   65.0940   57.4890   27.9160 N   0  0  0  0  0  0  0  0  0  0  0  0
   65.6740   57.7380   30.3030 N   0  0  0  0  0  0  0  0  0  0  0  0
   66.4700   56.7250   30.7260 C   0  0  0  0  0  0  0  0  0  0  0  0
   67.3500   56.9140   31.7770 C   0  0  0  0  0  0  0  0  0  0  0  0
   67.3930   58.1630   32.3850 C   0  0  0  0  0  0  0  0  0  0  0  0
   68.1650   58.3830   33.3320 O   0  0  0  0  0  0  0  0  0  0  0  0
   66.5700   59.0900   31.8940 N   0  0  0  0  0  0  0  0  0  0  0  0
   65.7020   58.9560   30.8790 C   0  0  0  0  0  0  0  0  0  0  0  0
   64.9640   59.8960   30.4880 O   0  0  0  0  0  0  0  0  0  0  0  0
   60.7110   59.1190   26.5080 C   0  0  0  0  0  0  0  0  0  0  0  0
   61.0240   59.6000   27.7800 C   0  0  0  0  0  0  0  0  0  0  0  0
   60.4740   60.8180   27.9970 N   0  0  0  0  0  0  0  0  0  0  0  0
   59.8050   61.1540   26.8850 C   0  0  0  0  0  0  0  0  0  0  0  0
   59.1030   62.3090   26.6390 C   0  0  0  0  0  0  0  0  0  0  0  0
   58.4990   62.5090   25.4460 C   0  0  0  0  0  0  0  0  0  0  0  0
   58.6190   61.5270   24.5190 C   0  0  0  0  0  0  0  0  0  0  0  0
   59.3210   60.3620   24.7650 C   0  0  0  0  0  0  0  0  0  0  0  0
   59.9370   60.1420   25.9630 C   0  0  0  0  0  0  0  0  0  0  0  0
   62.1135   54.9626   25.6335 H   0  0  0  0  0  0  0  0  0  0  0  0
   60.8364   55.0058   26.8438 H   0  0  0  0  0  0  0  0  0  0  0  0
   59.5640   55.0507   24.8134 H   0  0  0  0  0  0  0  0  0  0  0  0
   60.7320   55.9654   23.9219 H   0  0  0  0  0  0  0  0  0  0  0  0
   59.0259   57.6515   24.7455 H   0  0  0  0  0  0  0  0  0  0  0  0
   58.9579   57.0176   26.3271 H   0  0  0  0  0  0  0  0  0  0  0  0
   61.6664   58.2943   24.9486 H   0  0  0  0  0  0  0  0  0  0  0  0
   64.3858   57.2502   25.9422 H   0  0  0  0  0  0  0  0  0  0  0  0
   61.4850   56.9888   29.1331 H   0  0  0  0  0  0  0  0  0  0  0  0
   66.4157   55.7449   30.2296 H   0  0  0  0  0  0  0  0  0  0  0  0
   67.9993   56.0961   32.1226 H   0  0  0  0  0  0  0  0  0  0  0  0
   66.6042   60.0152   32.3454 H   0  0  0  0  0  0  0  0  0  0  0  0
   61.6395   59.0583   28.5133 H   0  0  0  0  0  0  0  0  0  0  0  0
   60.5545   61.3810   28.8557 H   0  0  0  0  0  0  0  0  0  0  0  0
   59.0315   63.0793   27.4210 H   0  0  0  0  0  0  0  0  0  0  0  0
   57.9342   63.4294   25.2364 H   0  0  0  0  0  0  0  0  0  0  0  0
   58.1413   61.6620   23.5374 H   0  0  0  0  0  0  0  0  0  0  0  0
   59.3846   59.5957   23.9784 H   0  0  0  0  0  0  0  0  0  0  0  0
  1  7  1  0
  2  1  1  0
  3  4  1  0
  3  2  1  0
  4  5  1  0
  5  1  1  0
  5 20  1  0
  6  7  2  0
  6 11  1  0
  7  8  1  0
  8  9  2  0
 10  9  1  0
 10 12  1  0
 11 10  2  0
 12 13  1  0
 12 18  1  0
 13 14  2  0
 14 15  1  0
 15 16  2  0
 17 15  1  0
 18 17  1  0
 19 18  2  0
 20 21  2  0
 21 22  1  0
 23 22  1  0
 24 23  2  0
 25 24  1  0
 26 27  1  0
 26 25  2  0
 27 28  2  0
 28 20  1  0
 28 23  1  0
  2 29  1  0
  2 30  1  0
  3 31  1  0
  3 32  1  0
  4 33  1  0
  4 34  1  0
  5 35  1  6
  6 36  1  0
  8 37  1  0
 13 38  1  0
 14 39  1  0
 17 40  1  0
 21 41  1  0
 22 42  1  0
 24 43  1  0
 25 44  1  0
 26 45  1  0
 27 46  1  0
M  END
>  <Score>  (1) 
-7.40368

$$$$
