
     RDKit          3D

 41 45  0  0  0  0  0  0  0  0999 V2000
   63.5110   56.9530   27.1440 C   0  0  0  0  0  0  0  0  0  0  0  0
   62.1930   57.4440   27.3590 C   0  0  0  0  0  0  0  0  0  0  0  0
   61.9850   58.1760   28.5290 C   0  0  0  0  0  0  0  0  0  0  0  0
   63.0060   58.3840   29.3830 N   0  0  0  0  0  0  0  0  0  0  0  0
   64.2390   57.9110   29.1580 C   0  0  0  0  0  0  0  0  0  0  0  0
   64.5010   57.1950   28.0400 N   0  0  0  0  0  0  0  0  0  0  0  0
   61.2810   57.0910   26.3100 C   0  0  0  0  0  0  0  0  0  0  0  0
   60.8630   55.7670   26.3050 C   0  0  0  0  0  0  0  0  0  0  0  0
   59.9920   55.2290   25.3840 C   0  0  0  0  0  0  0  0  0  0  0  0
   59.4930   56.0420   24.3960 C   0  0  0  0  0  0  0  0  0  0  0  0
   59.8840   57.3420   24.3750 C   0  0  0  0  0  0  0  0  0  0  0  0
   59.4310   58.2310   23.4160 C   0  0  0  0  0  0  0  0  0  0  0  0
   59.8200   59.5550   23.3830 C   0  0  0  0  0  0  0  0  0  0  0  0
   60.6970   60.0370   24.3360 C   0  0  0  0  0  0  0  0  0  0  0  0
   61.1740   59.1800   25.3130 C   0  0  0  0  0  0  0  0  0  0  0  0
   60.7530   57.8710   25.2980 C   0  0  0  0  0  0  0  0  0  0  0  0
   65.3010   58.1680   30.1180 C   0  0  0  0  0  0  0  0  0  0  0  0
   66.0650   57.1120   30.6030 C   0  0  0  0  0  0  0  0  0  0  0  0
   67.0740   57.3980   31.5200 C   0  0  0  0  0  0  0  0  0  0  0  0
   67.3290   58.6550   31.9470 N   0  0  0  0  0  0  0  0  0  0  0  0
   66.5580   59.6260   31.4420 C   0  0  0  0  0  0  0  0  0  0  0  0
   65.5540   59.4200   30.5420 N   0  0  0  0  0  0  0  0  0  0  0  0
   66.6970   61.0050   31.7890 N   0  0  0  0  0  0  0  0  0  0  0  0
   67.3260   61.7830   30.8630 C   0  0  0  0  0  0  0  0  0  0  0  0
   67.3460   63.0670   31.4110 C   0  0  0  0  0  0  0  0  0  0  0  0
   66.7520   63.0420   32.6100 N   0  0  0  0  0  0  0  0  0  0  0  0
   66.3630   61.7880   32.8290 C   0  0  0  0  0  0  0  0  0  0  0  0
   63.7307   56.3687   26.2383 H   0  0  0  0  0  0  0  0  0  0  0  0
   60.9880   58.5828   28.7537 H   0  0  0  0  0  0  0  0  0  0  0  0
   61.2540   55.1028   27.0898 H   0  0  0  0  0  0  0  0  0  0  0  0
   59.7018   54.1694   25.4386 H   0  0  0  0  0  0  0  0  0  0  0  0
   58.7949   55.6502   23.6415 H   0  0  0  0  0  0  0  0  0  0  0  0
   58.7321   57.8675   22.6483 H   0  0  0  0  0  0  0  0  0  0  0  0
   59.4331   60.2244   22.6005 H   0  0  0  0  0  0  0  0  0  0  0  0
   61.0128   61.0906   24.3185 H   0  0  0  0  0  0  0  0  0  0  0  0
   61.8733   59.5377   26.0831 H   0  0  0  0  0  0  0  0  0  0  0  0
   65.8778   56.0799   30.2718 H   0  0  0  0  0  0  0  0  0  0  0  0
   67.6853   56.5711   31.9107 H   0  0  0  0  0  0  0  0  0  0  0  0
   67.7316   61.4665   29.8907 H   0  0  0  0  0  0  0  0  0  0  0  0
   67.7808   63.9574   30.9333 H   0  0  0  0  0  0  0  0  0  0  0  0
   65.8417   61.4415   33.7335 H   0  0  0  0  0  0  0  0  0  0  0  0
  1  2  2  0
  1  6  1  0
  2  3  1  0
  3  4  2  0
  5  4  1  0
  5 17  1  0
  6  5  2  0
  7  2  1  0
  8  7  2  0
  9  8  1  0
 10  9  2  0
 11 10  1  0
 11 16  2  0
 12 11  1  0
 13 12  2  0
 13 14  1  0
 14 15  2  0
 16 15  1  0
 16  7  1  0
 17 22  1  0
 17 18  2  0
 18 19  1  0
 19 20  2  0
 21 23  1  0
 21 20  1  0
 22 21  2  0
 23 27  1  0
 24 25  2  0
 24 23  1  0
 25 26  1  0
 26 27  2  0
  1 28  1  0
  3 29  1  0
  8 30  1  0
  9 31  1  0
 10 32  1  0
 12 33  1  0
 13 34  1  0
 14 35  1  0
 15 36  1  0
 18 37  1  0
 19 38  1  0
 24 39  1  0
 25 40  1  0
 27 41  1  0
M  END
>  <Score>  (1) 
-7.44382

$$$$
