
     RDKit          3D

 33 36  0  0  0  0  0  0  0  0999 V2000
   61.2900   57.0800   26.3000 C   0  0  0  0  0  0  0  0  0  0  0  0
   60.8620   55.7510   26.3020 C   0  0  0  0  0  0  0  0  0  0  0  0
   59.9800   55.2280   25.3840 C   0  0  0  0  0  0  0  0  0  0  0  0
   59.4820   56.0560   24.4000 C   0  0  0  0  0  0  0  0  0  0  0  0
   59.8870   57.3630   24.3790 C   0  0  0  0  0  0  0  0  0  0  0  0
   59.4440   58.2640   23.4340 C   0  0  0  0  0  0  0  0  0  0  0  0
   59.8480   59.5820   23.4050 C   0  0  0  0  0  0  0  0  0  0  0  0
   60.7370   60.0410   24.3590 C   0  0  0  0  0  0  0  0  0  0  0  0
   61.2060   59.1750   25.3220 C   0  0  0  0  0  0  0  0  0  0  0  0
   60.7710   57.8660   25.3060 C   0  0  0  0  0  0  0  0  0  0  0  0
   63.5200   56.8950   27.1500 C   0  0  0  0  0  0  0  0  0  0  0  0
   62.2200   57.4120   27.3580 C   0  0  0  0  0  0  0  0  0  0  0  0
   62.0340   58.1460   28.5320 C   0  0  0  0  0  0  0  0  0  0  0  0
   63.0710   58.3140   29.3720 N   0  0  0  0  0  0  0  0  0  0  0  0
   64.2880   57.8140   29.1490 C   0  0  0  0  0  0  0  0  0  0  0  0
   64.5240   57.0910   28.0200 N   0  0  0  0  0  0  0  0  0  0  0  0
   65.3280   58.0430   30.0930 N   0  0  0  0  0  0  0  0  0  0  0  0
   65.5980   59.1410   30.8380 C   0  0  0  0  0  0  0  0  0  0  0  0
   66.7210   58.8190   31.5850 C   0  0  0  0  0  0  0  0  0  0  0  0
   67.1010   57.5540   31.2820 N   0  0  0  0  0  0  0  0  0  0  0  0
   66.2420   57.0760   30.3630 C   0  0  0  0  0  0  0  0  0  0  0  0
   61.2528   55.0826   27.0833 H   0  0  0  0  0  0  0  0  0  0  0  0
   59.6785   54.1713   25.4341 H   0  0  0  0  0  0  0  0  0  0  0  0
   58.7750   55.6743   23.6487 H   0  0  0  0  0  0  0  0  0  0  0  0
   58.7357   57.9153   22.6680 H   0  0  0  0  0  0  0  0  0  0  0  0
   59.4662   60.2623   22.6295 H   0  0  0  0  0  0  0  0  0  0  0  0
   61.0674   61.0902   24.3491 H   0  0  0  0  0  0  0  0  0  0  0  0
   61.9142   59.5207   26.0894 H   0  0  0  0  0  0  0  0  0  0  0  0
   63.7163   56.3093   26.2398 H   0  0  0  0  0  0  0  0  0  0  0  0
   61.0514   58.5813   28.7666 H   0  0  0  0  0  0  0  0  0  0  0  0
   65.0424   60.0903   30.8485 H   0  0  0  0  0  0  0  0  0  0  0  0
   67.2217   59.4821   32.3058 H   0  0  0  0  0  0  0  0  0  0  0  0
   66.2747   56.0746   29.9089 H   0  0  0  0  0  0  0  0  0  0  0  0
  1  2  2  0
  1 12  1  0
  3  2  1  0
  4  3  2  0
  5  4  1  0
  5 10  2  0
  6  5  1  0
  7  6  2  0
  7  8  1  0
  8  9  2  0
 10  9  1  0
 10  1  1  0
 11 12  2  0
 11 16  1  0
 12 13  1  0
 13 14  2  0
 15 14  1  0
 15 17  1  0
 16 15  2  0
 17 21  1  0
 17 18  1  0
 18 19  2  0
 20 19  1  0
 21 20  2  0
  2 22  1  0
  3 23  1  0
  4 24  1  0
  6 25  1  0
  7 26  1  0
  8 27  1  0
  9 28  1  0
 11 29  1  0
 13 30  1  0
 18 31  1  0
 19 32  1  0
 21 33  1  0
M  END
>  <Score>  (1) 
-7.02535

$$$$
