
     RDKit          3D

 50 55  0  0  0  0  0  0  0  0999 V2000
   63.5000   56.9850   27.1020 C   0  0  0  0  0  0  0  0  0  0  0  0
   62.1850   57.4630   27.3340 C   0  0  0  0  0  0  0  0  0  0  0  0
   61.9720   58.1810   28.5080 C   0  0  0  0  0  0  0  0  0  0  0  0
   62.9980   58.3860   29.3530 N   0  0  0  0  0  0  0  0  0  0  0  0
   64.2450   57.9170   29.1060 C   0  0  0  0  0  0  0  0  0  0  0  0
   64.4940   57.2220   27.9900 N   0  0  0  0  0  0  0  0  0  0  0  0
   61.2620   57.1060   26.2810 C   0  0  0  0  0  0  0  0  0  0  0  0
   60.8520   55.7680   26.2980 C   0  0  0  0  0  0  0  0  0  0  0  0
   59.9790   55.2270   25.3860 C   0  0  0  0  0  0  0  0  0  0  0  0
   59.4710   56.0230   24.3990 C   0  0  0  0  0  0  0  0  0  0  0  0
   59.8510   57.3270   24.3570 C   0  0  0  0  0  0  0  0  0  0  0  0
   59.3910   58.2050   23.3980 C   0  0  0  0  0  0  0  0  0  0  0  0
   59.7800   59.5340   23.3560 C   0  0  0  0  0  0  0  0  0  0  0  0
   60.6620   60.0210   24.3010 C   0  0  0  0  0  0  0  0  0  0  0  0
   61.1490   59.1840   25.2780 C   0  0  0  0  0  0  0  0  0  0  0  0
   60.7290   57.8810   25.2700 C   0  0  0  0  0  0  0  0  0  0  0  0
   65.3180   58.1680   30.0630 C   0  0  0  0  0  0  0  0  0  0  0  0
   66.1440   57.1670   30.4850 C   0  0  0  0  0  0  0  0  0  0  0  0
   67.1390   57.4930   31.3980 C   0  0  0  0  0  0  0  0  0  0  0  0
   67.3210   58.7360   31.8780 N   0  0  0  0  0  0  0  0  0  0  0  0
   66.4900   59.7000   31.4410 C   0  0  0  0  0  0  0  0  0  0  0  0
   65.5200   59.3920   30.5540 N   0  0  0  0  0  0  0  0  0  0  0  0
   66.4350   61.1430   31.7660 C   0  0  0  0  0  0  0  0  0  0  0  0
   66.2810   61.6510   33.0440 C   0  0  0  0  0  0  0  0  0  0  0  0
   66.2280   62.9860   33.3350 C   0  0  0  0  0  0  0  0  0  0  0  0
   66.3280   63.9270   32.3390 C   0  0  0  0  0  0  0  0  0  0  0  0
   66.4830   63.4850   31.0460 C   0  0  0  0  0  0  0  0  0  0  0  0
   66.5780   64.4440   30.0760 C   0  0  0  0  0  0  0  0  0  0  0  0
   66.7300   64.0830   28.7620 C   0  0  0  0  0  0  0  0  0  0  0  0
   66.7830   62.7180   28.4620 C   0  0  0  0  0  0  0  0  0  0  0  0
   66.6810   61.8130   29.4940 C   0  0  0  0  0  0  0  0  0  0  0  0
   66.5290   62.1330   30.8170 C   0  0  0  0  0  0  0  0  0  0  0  0
   63.7154   56.4134   26.1872 H   0  0  0  0  0  0  0  0  0  0  0  0
   60.9729   58.5772   28.7423 H   0  0  0  0  0  0  0  0  0  0  0  0
   61.2514   55.1127   27.0861 H   0  0  0  0  0  0  0  0  0  0  0  0
   59.6927   54.1668   25.4496 H   0  0  0  0  0  0  0  0  0  0  0  0
   58.7699   55.6175   23.6547 H   0  0  0  0  0  0  0  0  0  0  0  0
   58.6879   57.8357   22.6369 H   0  0  0  0  0  0  0  0  0  0  0  0
   59.3878   60.1992   22.5727 H   0  0  0  0  0  0  0  0  0  0  0  0
   60.9741   61.0754   24.2723 H   0  0  0  0  0  0  0  0  0  0  0  0
   61.8526   59.5495   26.0405 H   0  0  0  0  0  0  0  0  0  0  0  0
   66.0260   56.1378   30.1151 H   0  0  0  0  0  0  0  0  0  0  0  0
   67.8114   56.6948   31.7456 H   0  0  0  0  0  0  0  0  0  0  0  0
   66.1960   60.9372   33.8766 H   0  0  0  0  0  0  0  0  0  0  0  0
   66.1038   63.3103   34.3787 H   0  0  0  0  0  0  0  0  0  0  0  0
   66.2854   65.0019   32.5689 H   0  0  0  0  0  0  0  0  0  0  0  0
   66.5324   65.5082   30.3506 H   0  0  0  0  0  0  0  0  0  0  0  0
   66.8077   64.8421   27.9697 H   0  0  0  0  0  0  0  0  0  0  0  0
   66.9036   62.3751   27.4238 H   0  0  0  0  0  0  0  0  0  0  0  0
   66.7252   60.7449   29.2349 H   0  0  0  0  0  0  0  0  0  0  0  0
  1  2  2  0
  1  6  1  0
  2  3  1  0
  3  4  2  0
  5  4  1  0
  5 17  1  0
  6  5  2  0
  7  8  2  0
  7  2  1  0
  9  8  1  0
 10  9  2  0
 11 10  1  0
 11 16  2  0
 12 11  1  0
 13 12  2  0
 13 14  1  0
 14 15  2  0
 16 15  1  0
 16  7  1  0
 17 18  2  0
 17 22  1  0
 18 19  1  0
 19 20  2  0
 21 23  1  0
 21 20  1  0
 22 21  2  0
 23 24  2  0
 24 25  1  0
 26 25  2  0
 27 26  1  0
 28 27  2  0
 29 28  1  0
 30 29  2  0
 30 31  1  0
 31 32  2  0
 32 27  1  0
 32 23  1  0
  1 33  1  0
  3 34  1  0
  8 35  1  0
  9 36  1  0
 10 37  1  0
 12 38  1  0
 13 39  1  0
 14 40  1  0
 15 41  1  0
 18 42  1  0
 19 43  1  0
 24 44  1  0
 25 45  1  0
 26 46  1  0
 28 47  1  0
 29 48  1  0
 30 49  1  0
 31 50  1  0
M  END
>  <Score>  (1) 
-8.1958

$$$$
