
     RDKit          3D

 50 54  0  0  0  0  0  0  0  0999 V2000
   63.5230   56.9550   27.1140 C   0  0  0  0  0  0  0  0  0  0  0  0
   62.2020   57.4330   27.3410 C   0  0  0  0  0  0  0  0  0  0  0  0
   61.9970   58.1510   28.5170 C   0  0  0  0  0  0  0  0  0  0  0  0
   63.0160   58.3590   29.3620 N   0  0  0  0  0  0  0  0  0  0  0  0
   64.2560   57.8980   29.1290 C   0  0  0  0  0  0  0  0  0  0  0  0
   64.5080   57.2020   28.0140 N   0  0  0  0  0  0  0  0  0  0  0  0
   61.2760   57.0810   26.2860 C   0  0  0  0  0  0  0  0  0  0  0  0
   60.8620   55.7590   26.2920 C   0  0  0  0  0  0  0  0  0  0  0  0
   59.9860   55.2220   25.3790 C   0  0  0  0  0  0  0  0  0  0  0  0
   59.4810   56.0340   24.3910 C   0  0  0  0  0  0  0  0  0  0  0  0
   59.8720   57.3360   24.3660 C   0  0  0  0  0  0  0  0  0  0  0  0
   59.4180   58.2270   23.4120 C   0  0  0  0  0  0  0  0  0  0  0  0
   59.8120   59.5480   23.3790 C   0  0  0  0  0  0  0  0  0  0  0  0
   60.6930   60.0250   24.3250 C   0  0  0  0  0  0  0  0  0  0  0  0
   61.1760   59.1720   25.2990 C   0  0  0  0  0  0  0  0  0  0  0  0
   60.7500   57.8640   25.2840 C   0  0  0  0  0  0  0  0  0  0  0  0
   65.3190   58.1600   30.0930 C   0  0  0  0  0  0  0  0  0  0  0  0
   66.0570   57.0930   30.5960 C   0  0  0  0  0  0  0  0  0  0  0  0
   67.0680   57.3790   31.5170 C   0  0  0  0  0  0  0  0  0  0  0  0
   67.3400   58.6410   31.9200 N   0  0  0  0  0  0  0  0  0  0  0  0
   66.5890   59.6260   31.3950 C   0  0  0  0  0  0  0  0  0  0  0  0
   65.5890   59.4160   30.4930 N   0  0  0  0  0  0  0  0  0  0  0  0
   66.7840   61.0580   31.7540 C   0  0  0  0  0  0  0  0  0  0  0  0
   65.5170   61.8620   31.6550 C   0  0  0  0  0  0  0  0  0  0  0  0
   65.8530   63.2790   32.0560 C   0  0  0  0  0  0  0  0  0  0  0  0
   66.7600   63.8350   30.9600 C   0  0  0  0  0  0  0  0  0  0  0  0
   68.0600   63.0660   30.9720 C   0  0  0  0  0  0  0  0  0  0  0  0
   67.8400   61.5800   30.8070 C   0  0  0  0  0  0  0  0  0  0  0  0
   63.7472   56.3813   26.2026 H   0  0  0  0  0  0  0  0  0  0  0  0
   60.9982   58.5474   28.7521 H   0  0  0  0  0  0  0  0  0  0  0  0
   61.2591   55.0978   27.0763 H   0  0  0  0  0  0  0  0  0  0  0  0
   59.6946   54.1629   25.4376 H   0  0  0  0  0  0  0  0  0  0  0  0
   58.7793   55.6407   23.6407 H   0  0  0  0  0  0  0  0  0  0  0  0
   58.7134   57.8676   22.6476 H   0  0  0  0  0  0  0  0  0  0  0  0
   59.4238   60.2196   22.5991 H   0  0  0  0  0  0  0  0  0  0  0  0
   61.0098   61.0782   24.3050 H   0  0  0  0  0  0  0  0  0  0  0  0
   61.8809   59.5287   26.0644 H   0  0  0  0  0  0  0  0  0  0  0  0
   65.8515   56.0598   30.2794 H   0  0  0  0  0  0  0  0  0  0  0  0
   67.6627   56.5499   31.9281 H   0  0  0  0  0  0  0  0  0  0  0  0
   67.0935   61.1500   32.8055 H   0  0  0  0  0  0  0  0  0  0  0  0
   65.1383   61.8425   30.6224 H   0  0  0  0  0  0  0  0  0  0  0  0
   64.7386   61.4453   32.3111 H   0  0  0  0  0  0  0  0  0  0  0  0
   64.9352   63.8806   32.1315 H   0  0  0  0  0  0  0  0  0  0  0  0
   66.3498   63.3082   33.0370 H   0  0  0  0  0  0  0  0  0  0  0  0
   66.9583   64.9004   31.1485 H   0  0  0  0  0  0  0  0  0  0  0  0
   66.2715   63.7307   29.9800 H   0  0  0  0  0  0  0  0  0  0  0  0
   68.6927   63.4251   30.1470 H   0  0  0  0  0  0  0  0  0  0  0  0
   68.5440   63.2319   31.9458 H   0  0  0  0  0  0  0  0  0  0  0  0
   67.5208   61.3804   29.7734 H   0  0  0  0  0  0  0  0  0  0  0  0
   68.7862   61.0678   31.0358 H   0  0  0  0  0  0  0  0  0  0  0  0
  1  2  2  0
  1  6  1  0
  2  3  1  0
  3  4  2  0
  5  4  1  0
  5 17  1  0
  6  5  2  0
  7  8  2  0
  7  2  1  0
  9  8  1  0
 10  9  2  0
 11 10  1  0
 11 16  2  0
 12 11  1  0
 13 12  2  0
 13 14  1  0
 14 15  2  0
 16 15  1  0
 16  7  1  0
 17 22  1  0
 17 18  2  0
 18 19  1  0
 19 20  2  0
 21 23  1  0
 21 20  1  0
 22 21  2  0
 24 23  1  0
 24 25  1  0
 26 27  1  0
 26 25  1  0
 28 27  1  0
 28 23  1  0
  1 29  1  0
  3 30  1  0
  8 31  1  0
  9 32  1  0
 10 33  1  0
 12 34  1  0
 13 35  1  0
 14 36  1  0
 15 37  1  0
 18 38  1  0
 19 39  1  0
 23 40  1  0
 24 41  1  0
 24 42  1  0
 25 43  1  0
 25 44  1  0
 26 45  1  0
 26 46  1  0
 27 47  1  0
 27 48  1  0
 28 49  1  0
 28 50  1  0
M  END
>  <Score>  (1) 
-7.32125

$$$$
