
     RDKit          3D

 39 42  0  0  0  0  0  0  0  0999 V2000
   61.3020   57.0560   26.2660 C   0  0  0  0  0  0  0  0  0  0  0  0
   60.8580   55.7290   26.2590 C   0  0  0  0  0  0  0  0  0  0  0  0
   59.9570   55.2290   25.3450 C   0  0  0  0  0  0  0  0  0  0  0  0
   59.4590   56.0680   24.3810 C   0  0  0  0  0  0  0  0  0  0  0  0
   59.8730   57.3660   24.3640 C   0  0  0  0  0  0  0  0  0  0  0  0
   59.4250   58.2700   23.4350 C   0  0  0  0  0  0  0  0  0  0  0  0
   59.8360   59.5860   23.4050 C   0  0  0  0  0  0  0  0  0  0  0  0
   60.7500   60.0410   24.3530 C   0  0  0  0  0  0  0  0  0  0  0  0
   61.2230   59.1580   25.3040 C   0  0  0  0  0  0  0  0  0  0  0  0
   60.7740   57.8610   25.2790 C   0  0  0  0  0  0  0  0  0  0  0  0
   63.5540   56.9300   27.0470 C   0  0  0  0  0  0  0  0  0  0  0  0
   62.2470   57.3720   27.3080 C   0  0  0  0  0  0  0  0  0  0  0  0
   62.0610   58.0380   28.5200 C   0  0  0  0  0  0  0  0  0  0  0  0
   63.1100   58.2180   29.3520 N   0  0  0  0  0  0  0  0  0  0  0  0
   64.3420   57.7760   29.0580 C   0  0  0  0  0  0  0  0  0  0  0  0
   64.5780   57.1250   27.8970 N   0  0  0  0  0  0  0  0  0  0  0  0
   65.3840   58.0120   29.9960 N   0  0  0  0  0  0  0  0  0  0  0  0
   65.4980   59.3280   30.5990 C   0  0  0  0  0  0  0  0  0  0  0  0
   65.3760   59.1240   32.0920 C   0  0  0  0  0  0  0  0  0  0  0  0
   65.8170   57.9070   32.5420 O   0  0  0  0  0  0  0  0  0  0  0  0
   66.7810   57.2860   31.7960 C   0  0  0  0  0  0  0  0  0  0  0  0
   66.3410   56.9900   30.3760 C   0  0  0  0  0  0  0  0  0  0  0  0
   61.2508   55.0464   27.0270 H   0  0  0  0  0  0  0  0  0  0  0  0
   59.6425   54.1758   25.3874 H   0  0  0  0  0  0  0  0  0  0  0  0
   58.7388   55.6998   23.6355 H   0  0  0  0  0  0  0  0  0  0  0  0
   58.7035   57.9291   22.6778 H   0  0  0  0  0  0  0  0  0  0  0  0
   59.4452   60.2713   22.6384 H   0  0  0  0  0  0  0  0  0  0  0  0
   61.0897   61.0872   24.3442 H   0  0  0  0  0  0  0  0  0  0  0  0
   61.9448   59.4874   26.0659 H   0  0  0  0  0  0  0  0  0  0  0  0
   63.7495   56.3995   26.1034 H   0  0  0  0  0  0  0  0  0  0  0  0
   61.0652   58.4146   28.7966 H   0  0  0  0  0  0  0  0  0  0  0  0
   66.4725   59.7757   30.3544 H   0  0  0  0  0  0  0  0  0  0  0  0
   64.7189   60.0079   30.2239 H   0  0  0  0  0  0  0  0  0  0  0  0
   65.9623   59.9078   32.5939 H   0  0  0  0  0  0  0  0  0  0  0  0
   64.3020   59.1706   32.3250 H   0  0  0  0  0  0  0  0  0  0  0  0
   67.6670   57.9368   31.7587 H   0  0  0  0  0  0  0  0  0  0  0  0
   66.9960   56.3212   32.2787 H   0  0  0  0  0  0  0  0  0  0  0  0
   65.8698   55.9972   30.3277 H   0  0  0  0  0  0  0  0  0  0  0  0
   67.2038   56.9930   29.6936 H   0  0  0  0  0  0  0  0  0  0  0  0
  1 12  1  0
  2  1  2  0
  3  2  1  0
  4  3  2  0
  5  4  1  0
  5 10  2  0
  6  5  1  0
  7  6  2  0
  7  8  1  0
  8  9  2  0
 10  9  1  0
 10  1  1  0
 11 12  2  0
 11 16  1  0
 12 13  1  0
 13 14  2  0
 15 14  1  0
 15 17  1  0
 16 15  2  0
 17 22  1  0
 17 18  1  0
 18 19  1  0
 19 20  1  0
 21 20  1  0
 22 21  1  0
  2 23  1  0
  3 24  1  0
  4 25  1  0
  6 26  1  0
  7 27  1  0
  8 28  1  0
  9 29  1  0
 11 30  1  0
 13 31  1  0
 18 32  1  0
 18 33  1  0
 19 34  1  0
 19 35  1  0
 21 36  1  0
 21 37  1  0
 22 38  1  0
 22 39  1  0
M  END
>  <Score>  (1) 
-7.37419

$$$$
