
     RDKit          3D

 38 41  0  0  0  0  0  0  0  0999 V2000
   65.2290   56.7750   26.0140 C   0  0  0  0  0  0  0  0  0  0  0  0
   63.8690   56.7450   25.5610 C   0  0  0  0  0  0  0  0  0  0  0  0
   62.8640   56.9520   26.4730 C   0  0  0  0  0  0  0  0  0  0  0  0
   63.2090   57.1760   27.7660 N   0  0  0  0  0  0  0  0  0  0  0  0
   64.4830   57.2010   28.1750 C   0  0  0  0  0  0  0  0  0  0  0  0
   65.5110   57.0040   27.3210 N   0  0  0  0  0  0  0  0  0  0  0  0
   61.4790   56.9330   26.0810 C   0  0  0  0  0  0  0  0  0  0  0  0
   60.7160   55.8020   25.8680 C   0  0  0  0  0  0  0  0  0  0  0  0
   59.4630   56.1700   25.5120 N   0  0  0  0  0  0  0  0  0  0  0  0
   59.4110   57.5200   25.4950 C   0  0  0  0  0  0  0  0  0  0  0  0
   58.3510   58.3480   25.1930 C   0  0  0  0  0  0  0  0  0  0  0  0
   58.5050   59.7200   25.2340 C   0  0  0  0  0  0  0  0  0  0  0  0
   59.7450   60.1740   25.5850 C   0  0  0  0  0  0  0  0  0  0  0  0
   60.8410   59.3870   25.8960 C   0  0  0  0  0  0  0  0  0  0  0  0
   60.6660   58.0220   25.8490 C   0  0  0  0  0  0  0  0  0  0  0  0
   64.7580   57.4540   29.5880 C   0  0  0  0  0  0  0  0  0  0  0  0
   63.9290   58.0240   30.5310 C   0  0  0  0  0  0  0  0  0  0  0  0
   64.4190   58.1590   31.7980 C   0  0  0  0  0  0  0  0  0  0  0  0
   65.7000   57.7170   32.0390 C   0  0  0  0  0  0  0  0  0  0  0  0
   66.2330   57.1000   30.4660 S   0  0  0  0  0  0  0  0  0  0  0  0
   66.4560   57.7290   33.2240 N   0  0  0  0  0  0  0  0  0  0  0  0
   67.6750   57.0740   33.3380 C   0  0  0  0  0  0  0  0  0  0  0  0
   67.8690   55.9380   32.7840 N   0  0  0  0  0  0  0  0  0  0  0  0
   68.7150   57.7130   34.1020 N   0  0  0  0  0  0  0  0  0  0  0  0
   67.1690   55.4360   32.2360 H   0  0  0  0  0  0  0  0  0  0  0  0
   66.0479   56.6115   25.2980 H   0  0  0  0  0  0  0  0  0  0  0  0
   63.6352   56.5595   24.5023 H   0  0  0  0  0  0  0  0  0  0  0  0
   61.0704   54.7658   25.9713 H   0  0  0  0  0  0  0  0  0  0  0  0
   58.6848   55.5320   25.2923 H   0  0  0  0  0  0  0  0  0  0  0  0
   57.3783   57.9141   24.9182 H   0  0  0  0  0  0  0  0  0  0  0  0
   57.6784   60.4064   24.9981 H   0  0  0  0  0  0  0  0  0  0  0  0
   59.8854   61.2643   25.6241 H   0  0  0  0  0  0  0  0  0  0  0  0
   61.8090   59.8327   26.1686 H   0  0  0  0  0  0  0  0  0  0  0  0
   62.9129   58.3568   30.2725 H   0  0  0  0  0  0  0  0  0  0  0  0
   63.8111   58.6056   32.5986 H   0  0  0  0  0  0  0  0  0  0  0  0
   66.0918   58.2432   34.0388 H   0  0  0  0  0  0  0  0  0  0  0  0
   69.6318   57.2555   34.2073 H   0  0  0  0  0  0  0  0  0  0  0  0
   68.5421   58.6275   34.5432 H   0  0  0  0  0  0  0  0  0  0  0  0
  1  6  2  0
  2  1  1  0
  2  3  2  0
  3  4  1  0
  4  5  2  0
  5 16  1  0
  6  5  1  0
  7  3  1  0
  8  7  2  0
  9  8  1  0
 10  9  1  0
 10 15  2  0
 11 12  2  0
 11 10  1  0
 12 13  1  0
 13 14  2  0
 15 14  1  0
 15  7  1  0
 16 20  1  0
 16 17  2  0
 17 18  1  0
 18 19  2  0
 19 21  1  0
 20 19  1  0
 21 22  1  0
 22 24  1  0
 23 22  2  0
 25 23  1  0
  1 26  1  0
  2 27  1  0
  8 28  1  0
  9 29  1  0
 11 30  1  0
 12 31  1  0
 13 32  1  0
 14 33  1  0
 17 34  1  0
 18 35  1  0
 21 36  1  0
 24 37  1  0
 24 38  1  0
M  END
>  <Score>  (1) 
-7.26004

$$$$
