
     RDKit          3D

 41 45  0  0  0  0  0  0  0  0999 V2000
   63.5110   56.9710   27.1360 C   0  0  0  0  0  0  0  0  0  0  0  0
   62.1940   57.4490   27.3540 C   0  0  0  0  0  0  0  0  0  0  0  0
   61.9880   58.1740   28.5270 C   0  0  0  0  0  0  0  0  0  0  0  0
   63.0050   58.3890   29.3820 N   0  0  0  0  0  0  0  0  0  0  0  0
   64.2470   57.9200   29.1430 C   0  0  0  0  0  0  0  0  0  0  0  0
   64.5070   57.2090   28.0210 N   0  0  0  0  0  0  0  0  0  0  0  0
   61.2800   57.0920   26.3060 C   0  0  0  0  0  0  0  0  0  0  0  0
   60.8660   55.7710   26.3030 C   0  0  0  0  0  0  0  0  0  0  0  0
   59.9960   55.2220   25.3880 C   0  0  0  0  0  0  0  0  0  0  0  0
   59.4930   56.0340   24.3990 C   0  0  0  0  0  0  0  0  0  0  0  0
   59.8810   57.3340   24.3750 C   0  0  0  0  0  0  0  0  0  0  0  0
   59.4230   58.2190   23.4150 C   0  0  0  0  0  0  0  0  0  0  0  0
   59.8100   59.5450   23.3780 C   0  0  0  0  0  0  0  0  0  0  0  0
   60.6880   60.0320   24.3280 C   0  0  0  0  0  0  0  0  0  0  0  0
   61.1710   59.1840   25.3090 C   0  0  0  0  0  0  0  0  0  0  0  0
   60.7510   57.8760   25.2930 C   0  0  0  0  0  0  0  0  0  0  0  0
   65.3130   58.1800   30.0990 C   0  0  0  0  0  0  0  0  0  0  0  0
   66.0620   57.1260   30.6090 C   0  0  0  0  0  0  0  0  0  0  0  0
   67.0720   57.4280   31.5220 C   0  0  0  0  0  0  0  0  0  0  0  0
   67.3410   58.6940   31.9200 N   0  0  0  0  0  0  0  0  0  0  0  0
   66.5840   59.6590   31.3920 C   0  0  0  0  0  0  0  0  0  0  0  0
   65.5810   59.4360   30.4960 N   0  0  0  0  0  0  0  0  0  0  0  0
   66.8240   61.0620   31.7820 C   0  0  0  0  0  0  0  0  0  0  0  0
   67.9890   61.7710   31.5940 C   0  0  0  0  0  0  0  0  0  0  0  0
   67.8030   63.0100   32.0850 N   0  0  0  0  0  0  0  0  0  0  0  0
   66.5610   63.1110   32.5780 C   0  0  0  0  0  0  0  0  0  0  0  0
   65.9530   61.9160   32.3950 N   0  0  0  0  0  0  0  0  0  0  0  0
   63.7284   56.3929   26.2258 H   0  0  0  0  0  0  0  0  0  0  0  0
   60.9884   58.5726   28.7550 H   0  0  0  0  0  0  0  0  0  0  0  0
   61.2612   55.1114   27.0896 H   0  0  0  0  0  0  0  0  0  0  0  0
   59.7107   54.1613   25.4467 H   0  0  0  0  0  0  0  0  0  0  0  0
   58.7940   55.6399   23.6466 H   0  0  0  0  0  0  0  0  0  0  0  0
   58.7225   57.8521   22.6503 H   0  0  0  0  0  0  0  0  0  0  0  0
   59.4203   60.2114   22.5944 H   0  0  0  0  0  0  0  0  0  0  0  0
   61.0006   61.0864   24.3044 H   0  0  0  0  0  0  0  0  0  0  0  0
   61.8696   59.5459   26.0778 H   0  0  0  0  0  0  0  0  0  0  0  0
   65.8646   56.0881   30.3026 H   0  0  0  0  0  0  0  0  0  0  0  0
   67.6739   56.6052   31.9352 H   0  0  0  0  0  0  0  0  0  0  0  0
   68.9091   61.3918   31.1253 H   0  0  0  0  0  0  0  0  0  0  0  0
   66.1170   64.0021   33.0458 H   0  0  0  0  0  0  0  0  0  0  0  0
   64.9881   61.6875   32.6735 H   0  0  0  0  0  0  0  0  0  0  0  0
  1  2  2  0
  1  6  1  0
  2  3  1  0
  3  4  2  0
  5  4  1  0
  5 17  1  0
  6  5  2  0
  7  2  1  0
  8  7  2  0
  9  8  1  0
 10  9  2  0
 11 10  1  0
 11 16  2  0
 12 11  1  0
 13 12  2  0
 13 14  1  0
 14 15  2  0
 16 15  1  0
 16  7  1  0
 17 22  1  0
 17 18  2  0
 18 19  1  0
 19 20  2  0
 21 23  1  0
 21 20  1  0
 22 21  2  0
 23 27  1  0
 24 23  2  0
 24 25  1  0
 25 26  2  0
 27 26  1  0
  1 28  1  0
  3 29  1  0
  8 30  1  0
  9 31  1  0
 10 32  1  0
 12 33  1  0
 13 34  1  0
 14 35  1  0
 15 36  1  0
 18 37  1  0
 19 38  1  0
 24 39  1  0
 26 40  1  0
 27 41  1  0
M  END
>  <Score>  (1) 
-7.02234

$$$$
