
     RDKit          3D

 51 55  0  0  0  0  0  0  0  0999 V2000
   61.4750   57.9600   26.1750 C   0  0  0  0  0  0  0  0  0  0  0  0
   65.0830   56.7530   26.0320 C   0  0  0  0  0  0  0  0  0  0  0  0
   63.7960   57.0980   25.5960 C   0  0  0  0  0  0  0  0  0  0  0  0
   62.8600   57.5700   26.5360 C   0  0  0  0  0  0  0  0  0  0  0  0
   63.2950   57.6610   27.8530 N   0  0  0  0  0  0  0  0  0  0  0  0
   64.5410   57.3150   28.2130 C   0  0  0  0  0  0  0  0  0  0  0  0
   65.4410   56.8640   27.3170 N   0  0  0  0  0  0  0  0  0  0  0  0
   64.9270   57.4380   29.6190 C   0  0  0  0  0  0  0  0  0  0  0  0
   64.0780   58.0360   30.5220 C   0  0  0  0  0  0  0  0  0  0  0  0
   64.4910   58.1250   31.8360 C   0  0  0  0  0  0  0  0  0  0  0  0
   65.6850   57.6490   32.2420 N   0  0  0  0  0  0  0  0  0  0  0  0
   66.4950   57.0710   31.3480 C   0  0  0  0  0  0  0  0  0  0  0  0
   66.1160   56.9690   30.0510 N   0  0  0  0  0  0  0  0  0  0  0  0
   60.6090   56.7960   25.8350 C   0  0  0  0  0  0  0  0  0  0  0  0
   61.5390   58.8700   24.9840 C   0  0  0  0  0  0  0  0  0  0  0  0
   60.8610   58.7450   27.3240 C   0  0  0  0  0  0  0  0  0  0  0  0
   60.1240   59.9360   26.9090 C   0  0  0  0  0  0  0  0  0  0  0  0
   60.4340   61.1910   27.4080 C   0  0  0  0  0  0  0  0  0  0  0  0
   59.5540   62.0850   26.8150 C   0  0  0  0  0  0  0  0  0  0  0  0
   58.7480   61.4110   25.9960 N   0  0  0  0  0  0  0  0  0  0  0  0
   59.1090   60.1550   26.0740 N   0  0  0  0  0  0  0  0  0  0  0  0
   57.7180   62.0140   25.2200 C   0  0  0  0  0  0  0  0  0  0  0  0
   57.6560   61.7220   23.8550 C   0  0  0  0  0  0  0  0  0  0  0  0
   56.6150   62.4000   23.3440 N   0  0  0  0  0  0  0  0  0  0  0  0
   55.9930   63.1240   24.3180 C   0  0  0  0  0  0  0  0  0  0  0  0
   54.9090   63.9760   24.3680 C   0  0  0  0  0  0  0  0  0  0  0  0
   54.5630   64.5460   25.5820 C   0  0  0  0  0  0  0  0  0  0  0  0
   55.2760   64.2880   26.7570 C   0  0  0  0  0  0  0  0  0  0  0  0
   56.3740   63.4300   26.7230 C   0  0  0  0  0  0  0  0  0  0  0  0
   56.6820   62.8850   25.4930 C   0  0  0  0  0  0  0  0  0  0  0  0
   65.8162   56.3822   25.3006 H   0  0  0  0  0  0  0  0  0  0  0  0
   63.5215   57.0014   24.5352 H   0  0  0  0  0  0  0  0  0  0  0  0
   63.1009   58.4307   30.2065 H   0  0  0  0  0  0  0  0  0  0  0  0
   63.8262   58.5983   32.5736 H   0  0  0  0  0  0  0  0  0  0  0  0
   67.4715   56.6774   31.6666 H   0  0  0  0  0  0  0  0  0  0  0  0
   60.2547   56.3197   26.7611 H   0  0  0  0  0  0  0  0  0  0  0  0
   59.7459   57.1406   25.2465 H   0  0  0  0  0  0  0  0  0  0  0  0
   61.1871   56.0684   25.2465 H   0  0  0  0  0  0  0  0  0  0  0  0
   61.6124   59.9137   25.3235 H   0  0  0  0  0  0  0  0  0  0  0  0
   62.4217   58.6188   24.3776 H   0  0  0  0  0  0  0  0  0  0  0  0
   60.6298   58.7448   24.3776 H   0  0  0  0  0  0  0  0  0  0  0  0
   60.1691   58.0819   27.8640 H   0  0  0  0  0  0  0  0  0  0  0  0
   61.6954   59.0921   27.9512 H   0  0  0  0  0  0  0  0  0  0  0  0
   61.2247   61.4319   28.1338 H   0  0  0  0  0  0  0  0  0  0  0  0
   59.5265   63.1703   26.9918 H   0  0  0  0  0  0  0  0  0  0  0  0
   58.3355   61.0582   23.3002 H   0  0  0  0  0  0  0  0  0  0  0  0
   56.3270   62.3764   22.3554 H   0  0  0  0  0  0  0  0  0  0  0  0
   54.3297   64.1987   23.4598 H   0  0  0  0  0  0  0  0  0  0  0  0
   53.6982   65.2245   25.6233 H   0  0  0  0  0  0  0  0  0  0  0  0
   54.9720   64.7597   27.7031 H   0  0  0  0  0  0  0  0  0  0  0  0
   56.9611   63.2005   27.6245 H   0  0  0  0  0  0  0  0  0  0  0  0
  1  4  1  0
  1 16  1  0
  2  7  2  0
  3  2  1  0
  3  4  2  0
  4  5  1  0
  5  6  2  0
  6  8  1  0
  7  6  1  0
  8 13  1  0
  8  9  2  0
  9 10  1  0
 10 11  2  0
 12 11  1  0
 13 12  2  0
 14  1  1  0
 15  1  1  0
 17 16  1  0
 17 18  1  0
 19 18  2  0
 20 21  1  0
 20 19  1  0
 21 17  2  0
 22 30  1  0
 22 20  1  0
 23 22  2  0
 24 23  1  0
 24 25  1  0
 25 26  2  0
 25 30  1  0
 26 27  1  0
 27 28  2  0
 29 28  1  0
 30 29  2  0
  2 31  1  0
  3 32  1  0
  9 33  1  0
 10 34  1  0
 12 35  1  0
 14 36  1  0
 14 37  1  0
 14 38  1  0
 15 39  1  0
 15 40  1  0
 15 41  1  0
 16 42  1  0
 16 43  1  0
 18 44  1  0
 19 45  1  0
 23 46  1  0
 24 47  1  0
 26 48  1  0
 27 49  1  0
 28 50  1  0
 29 51  1  0
M  END
>  <Score>  (1) 
-7.3542

$$$$
