
     RDKit          3D

 58 60  0  0  1  0  0  0  0  0999 V2000
   60.6820   60.3220   24.4710 N   0  0  0  0  0  0  0  0  0  0  0  0
   59.7140   59.7930   23.6920 C   0  0  0  0  0  0  0  0  0  0  0  0
   59.4260   58.3460   24.0420 C   0  0  0  0  0  0  0  0  0  0  0  0
   59.3410   58.0490   25.4920 C   0  0  2  0  0  0  0  0  0  0  0  0
   60.3280   58.7740   26.3000 C   0  0  0  0  0  0  0  0  0  0  0  0
   60.4920   60.2080   25.8740 C   0  0  2  0  0  0  0  0  0  0  0  0
   59.5590   56.6230   25.6310 N   0  0  0  0  0  0  0  0  0  0  0  0
   60.7820   56.1270   25.2530 C   0  0  0  0  0  0  0  0  0  0  0  0
   61.4770   55.5510   26.4660 C   0  0  0  0  0  0  0  0  0  0  0  0
   64.9830   56.8040   26.0450 C   0  0  0  0  0  0  0  0  0  0  0  0
   63.7110   56.2500   25.7930 C   0  0  0  0  0  0  0  0  0  0  0  0
   62.7840   56.1340   26.7960 C   0  0  0  0  0  0  0  0  0  0  0  0
   63.1330   56.5640   28.0200 N   0  0  0  0  0  0  0  0  0  0  0  0
   64.3400   57.0930   28.2750 C   0  0  0  0  0  0  0  0  0  0  0  0
   65.2570   57.2120   27.2970 N   0  0  0  0  0  0  0  0  0  0  0  0
   64.6350   57.5250   29.5910 N   0  0  0  0  0  0  0  0  0  0  0  0
   65.7000   57.0360   30.2550 C   0  0  0  0  0  0  0  0  0  0  0  0
   66.0740   57.3900   31.5350 C   0  0  0  0  0  0  0  0  0  0  0  0
   67.2680   56.7960   32.1890 C   0  0  0  0  0  0  0  0  0  0  0  0
   65.2600   58.3220   32.1360 C   0  0  0  0  0  0  0  0  0  0  0  0
   65.5310   58.7020   33.3070 O   0  0  0  0  0  0  0  0  0  0  0  0
   64.1750   58.8440   31.5050 N   0  0  0  0  0  0  0  0  0  0  0  0
   63.8910   58.4320   30.2480 C   0  0  0  0  0  0  0  0  0  0  0  0
   62.8800   58.9310   29.6840 O   0  0  0  0  0  0  0  0  0  0  0  0
   59.5530   61.1700   26.5120 C   0  0  0  0  0  0  0  0  0  0  0  0
   60.1200   62.0980   27.5320 C   0  0  0  0  0  0  0  0  0  0  0  0
   58.9700   62.0780   25.4080 C   0  0  0  0  0  0  0  0  0  0  0  0
   58.4060   60.4440   27.1210 C   0  0  0  0  0  0  0  0  0  0  0  0
   60.7547   61.3241   24.2444 H   0  0  0  0  0  0  0  0  0  0  0  0
   60.0357   59.8464   22.6414 H   0  0  0  0  0  0  0  0  0  0  0  0
   58.7928   60.3709   23.8577 H   0  0  0  0  0  0  0  0  0  0  0  0
   58.4658   58.0698   23.5818 H   0  0  0  0  0  0  0  0  0  0  0  0
   60.2801   57.7658   23.6626 H   0  0  0  0  0  0  0  0  0  0  0  0
   58.3570   58.3725   25.8624 H   0  0  0  0  0  0  0  0  0  0  0  0
   60.0039   58.7547   27.3510 H   0  0  0  0  0  0  0  0  0  0  0  0
   61.2987   58.2751   26.1624 H   0  0  0  0  0  0  0  0  0  0  0  0
   61.4400   60.5616   26.3055 H   0  0  0  0  0  0  0  0  0  0  0  0
   59.4240   56.3860   26.6242 H   0  0  0  0  0  0  0  0  0  0  0  0
   60.6429   55.3384   24.4988 H   0  0  0  0  0  0  0  0  0  0  0  0
   61.3933   56.9343   24.8234 H   0  0  0  0  0  0  0  0  0  0  0  0
   60.8155   55.6951   27.3330 H   0  0  0  0  0  0  0  0  0  0  0  0
   61.6754   54.4970   26.2217 H   0  0  0  0  0  0  0  0  0  0  0  0
   65.7286   56.8996   25.2419 H   0  0  0  0  0  0  0  0  0  0  0  0
   63.4595   55.9066   24.7787 H   0  0  0  0  0  0  0  0  0  0  0  0
   66.3225   56.2936   29.7341 H   0  0  0  0  0  0  0  0  0  0  0  0
   67.1539   56.8528   33.2816 H   0  0  0  0  0  0  0  0  0  0  0  0
   67.3671   55.7435   31.8849 H   0  0  0  0  0  0  0  0  0  0  0  0
   68.1672   57.3518   31.8849 H   0  0  0  0  0  0  0  0  0  0  0  0
   63.5798   59.5407   31.9754 H   0  0  0  0  0  0  0  0  0  0  0  0
   59.8895   61.7208   28.5393 H   0  0  0  0  0  0  0  0  0  0  0  0
   61.2108   62.1607   27.4046 H   0  0  0  0  0  0  0  0  0  0  0  0
   59.6780   63.0972   27.4046 H   0  0  0  0  0  0  0  0  0  0  0  0
   58.4308   62.9178   25.8707 H   0  0  0  0  0  0  0  0  0  0  0  0
   59.7877   62.4669   24.7833 H   0  0  0  0  0  0  0  0  0  0  0  0
   58.2761   61.4964   24.7833 H   0  0  0  0  0  0  0  0  0  0  0  0
   58.4820   60.4921   28.2173 H   0  0  0  0  0  0  0  0  0  0  0  0
   57.4636   60.9105   26.7980 H   0  0  0  0  0  0  0  0  0  0  0  0
   58.4243   59.3927   26.7980 H   0  0  0  0  0  0  0  0  0  0  0  0
  1  6  1  0
  2  3  1  0
  2  1  1  0
  3  4  1  0
  4  7  1  0
  4  5  1  0
  6  5  1  0
  6 25  1  0
  8  7  1  0
  8  9  1  0
  9 12  1  0
 10 15  2  0
 11 10  1  0
 11 12  2  0
 12 13  1  0
 13 14  2  0
 14 16  1  0
 15 14  1  0
 16 23  1  0
 16 17  1  0
 17 18  2  0
 18 20  1  0
 18 19  1  0
 20 21  2  0
 22 20  1  0
 23 22  1  0
 24 23  2  0
 25 28  1  0
 25 26  1  0
 27 25  1  0
  1 29  1  0
  2 30  1  0
  2 31  1  0
  3 32  1  0
  3 33  1  0
  4 34  1  1
  5 35  1  0
  5 36  1  0
  6 37  1  1
  7 38  1  0
  8 39  1  0
  8 40  1  0
  9 41  1  0
  9 42  1  0
 10 43  1  0
 11 44  1  0
 17 45  1  0
 19 46  1  0
 19 47  1  0
 19 48  1  0
 22 49  1  0
 26 50  1  0
 26 51  1  0
 26 52  1  0
 27 53  1  0
 27 54  1  0
 27 55  1  0
 28 56  1  0
 28 57  1  0
 28 58  1  0
M  END
>  <Score>  (1) 
-7.46339

$$$$
