
     RDKit          3D

 47 51  0  0  0  0  0  0  0  0999 V2000
   63.5190   56.9600   27.1360 C   0  0  0  0  0  0  0  0  0  0  0  0
   62.1970   57.4440   27.3580 C   0  0  0  0  0  0  0  0  0  0  0  0
   61.9950   58.1720   28.5280 C   0  0  0  0  0  0  0  0  0  0  0  0
   63.0140   58.3850   29.3770 N   0  0  0  0  0  0  0  0  0  0  0  0
   64.2520   57.9150   29.1430 C   0  0  0  0  0  0  0  0  0  0  0  0
   64.5030   57.2110   28.0350 N   0  0  0  0  0  0  0  0  0  0  0  0
   61.2810   57.0850   26.3070 C   0  0  0  0  0  0  0  0  0  0  0  0
   60.8680   55.7630   26.3080 C   0  0  0  0  0  0  0  0  0  0  0  0
   59.9980   55.2210   25.3910 C   0  0  0  0  0  0  0  0  0  0  0  0
   59.4950   56.0340   24.4000 C   0  0  0  0  0  0  0  0  0  0  0  0
   59.8840   57.3360   24.3760 C   0  0  0  0  0  0  0  0  0  0  0  0
   59.4290   58.2210   23.4180 C   0  0  0  0  0  0  0  0  0  0  0  0
   59.8160   59.5460   23.3810 C   0  0  0  0  0  0  0  0  0  0  0  0
   60.6920   60.0300   24.3310 C   0  0  0  0  0  0  0  0  0  0  0  0
   61.1730   59.1750   25.3100 C   0  0  0  0  0  0  0  0  0  0  0  0
   60.7550   57.8650   25.2990 C   0  0  0  0  0  0  0  0  0  0  0  0
   65.3150   58.1810   30.1040 C   0  0  0  0  0  0  0  0  0  0  0  0
   66.0310   57.1170   30.6410 C   0  0  0  0  0  0  0  0  0  0  0  0
   67.0430   57.4040   31.5600 C   0  0  0  0  0  0  0  0  0  0  0  0
   67.3380   58.6830   31.9330 N   0  0  0  0  0  0  0  0  0  0  0  0
   66.6110   59.6500   31.3770 C   0  0  0  0  0  0  0  0  0  0  0  0
   65.6090   59.4410   30.4750 N   0  0  0  0  0  0  0  0  0  0  0  0
   66.8710   61.0750   31.7340 C   0  0  0  0  0  0  0  0  0  0  0  0
   67.6140   61.8110   30.6360 C   0  0  0  0  0  0  0  0  0  0  0  0
   67.4920   63.2480   31.1560 C   0  0  0  0  0  0  0  0  0  0  0  0
   66.1600   63.3120   31.8510 C   0  0  0  0  0  0  0  0  0  0  0  0
   65.6300   61.8940   31.8840 C   0  0  0  0  0  0  0  0  0  0  0  0
   63.7428   56.3789   26.2293 H   0  0  0  0  0  0  0  0  0  0  0  0
   60.9972   58.5741   28.7577 H   0  0  0  0  0  0  0  0  0  0  0  0
   61.2620   55.1026   27.0945 H   0  0  0  0  0  0  0  0  0  0  0  0
   59.7102   54.1609   25.4480 H   0  0  0  0  0  0  0  0  0  0  0  0
   58.7964   55.6399   23.6472 H   0  0  0  0  0  0  0  0  0  0  0  0
   58.7290   57.8549   22.6525 H   0  0  0  0  0  0  0  0  0  0  0  0
   59.4275   60.2130   22.5973 H   0  0  0  0  0  0  0  0  0  0  0  0
   61.0055   61.0842   24.3115 H   0  0  0  0  0  0  0  0  0  0  0  0
   61.8729   59.5359   26.0780 H   0  0  0  0  0  0  0  0  0  0  0  0
   65.8071   56.0799   30.3507 H   0  0  0  0  0  0  0  0  0  0  0  0
   67.6191   56.5745   31.9959 H   0  0  0  0  0  0  0  0  0  0  0  0
   67.4327   60.9896   32.6759 H   0  0  0  0  0  0  0  0  0  0  0  0
   67.1261   61.6871   29.6579 H   0  0  0  0  0  0  0  0  0  0  0  0
   68.6435   61.4662   30.4590 H   0  0  0  0  0  0  0  0  0  0  0  0
   68.3052   63.4716   31.8622 H   0  0  0  0  0  0  0  0  0  0  0  0
   67.5632   63.9841   30.3417 H   0  0  0  0  0  0  0  0  0  0  0  0
   66.2822   63.6969   32.8742 H   0  0  0  0  0  0  0  0  0  0  0  0
   65.4669   63.9860   31.3262 H   0  0  0  0  0  0  0  0  0  0  0  0
   64.9321   61.7121   31.0534 H   0  0  0  0  0  0  0  0  0  0  0  0
   65.0619   61.6618   32.7969 H   0  0  0  0  0  0  0  0  0  0  0  0
  1  2  2  0
  1  6  1  0
  2  3  1  0
  3  4  2  0
  5  4  1  0
  5 17  1  0
  6  5  2  0
  7  8  2  0
  7  2  1  0
  9  8  1  0
 10  9  2  0
 11 10  1  0
 11 16  2  0
 12 11  1  0
 13 12  2  0
 13 14  1  0
 14 15  2  0
 16 15  1  0
 16  7  1  0
 17 22  1  0
 17 18  2  0
 18 19  1  0
 19 20  2  0
 21 23  1  0
 21 20  1  0
 22 21  2  0
 23 27  1  0
 24 25  1  0
 24 23  1  0
 25 26  1  0
 26 27  1  0
  1 28  1  0
  3 29  1  0
  8 30  1  0
  9 31  1  0
 10 32  1  0
 12 33  1  0
 13 34  1  0
 14 35  1  0
 15 36  1  0
 18 37  1  0
 19 38  1  0
 23 39  1  0
 24 40  1  0
 24 41  1  0
 25 42  1  0
 25 43  1  0
 26 44  1  0
 26 45  1  0
 27 46  1  0
 27 47  1  0
M  END
>  <Score>  (1) 
-7.15473

$$$$
