
     RDKit          3D

 50 54  0  0  1  0  0  0  0  0999 V2000
   60.8920   56.6930   25.0140 C   0  0  0  0  0  0  0  0  0  0  0  0
   59.4890   56.4200   24.9040 N   0  0  0  0  0  0  0  0  0  0  0  0
   59.1340   55.0670   25.1120 C   0  0  0  0  0  0  0  0  0  0  0  0
   57.6450   54.9440   24.7660 C   0  0  0  0  0  0  0  0  0  0  0  0
   56.8650   55.8170   25.4940 O   0  0  0  0  0  0  0  0  0  0  0  0
   57.2560   57.1270   25.3900 C   0  0  0  0  0  0  0  0  0  0  0  0
   58.6960   57.2940   25.7890 C   0  0  2  0  0  0  0  0  0  0  0  0
   59.1530   58.6900   25.7270 C   0  0  0  0  0  0  0  0  0  0  0  0
   59.9190   59.3520   26.6600 C   0  0  0  0  0  0  0  0  0  0  0  0
   60.2410   60.6670   26.4470 C   0  0  0  0  0  0  0  0  0  0  0  0
   59.8340   61.3550   25.3430 N   0  0  0  0  0  0  0  0  0  0  0  0
   59.0840   60.6740   24.4500 C   0  0  0  0  0  0  0  0  0  0  0  0
   58.7440   59.3800   24.6190 N   0  0  0  0  0  0  0  0  0  0  0  0
   61.5240   55.7960   26.0530 C   0  0  0  0  0  0  0  0  0  0  0  0
   65.1510   56.7300   26.0970 C   0  0  0  0  0  0  0  0  0  0  0  0
   63.8920   56.2490   25.6640 C   0  0  0  0  0  0  0  0  0  0  0  0
   62.8190   56.3050   26.5400 C   0  0  0  0  0  0  0  0  0  0  0  0
   63.0520   56.8230   27.7700 N   0  0  0  0  0  0  0  0  0  0  0  0
   64.2500   57.2750   28.1710 C   0  0  0  0  0  0  0  0  0  0  0  0
   65.2880   57.2340   27.3540 N   0  0  0  0  0  0  0  0  0  0  0  0
   64.3590   57.7980   29.4980 N   0  0  0  0  0  0  0  0  0  0  0  0
   63.5260   58.7080   30.0720 C   0  0  0  0  0  0  0  0  0  0  0  0
   63.9220   58.9810   31.3420 N   0  0  0  0  0  0  0  0  0  0  0  0
   65.0030   58.2430   31.5670 C   0  0  0  0  0  0  0  0  0  0  0  0
   65.8740   58.0480   32.6160 C   0  0  0  0  0  0  0  0  0  0  0  0
   66.9320   57.2180   32.6000 N   0  0  0  0  0  0  0  0  0  0  0  0
   67.1830   56.5040   31.4650 C   0  0  0  0  0  0  0  0  0  0  0  0
   66.3360   56.6900   30.4310 N   0  0  0  0  0  0  0  0  0  0  0  0
   65.2870   57.5030   30.4310 C   0  0  0  0  0  0  0  0  0  0  0  0
   65.6830   58.7530   33.8340 N   0  0  0  0  0  0  0  0  0  0  0  0
   61.0348   57.7436   25.3071 H   0  0  0  0  0  0  0  0  0  0  0  0
   61.3695   56.5034   24.0413 H   0  0  0  0  0  0  0  0  0  0  0  0
   59.7304   54.4137   24.4581 H   0  0  0  0  0  0  0  0  0  0  0  0
   59.3251   54.7631   26.1518 H   0  0  0  0  0  0  0  0  0  0  0  0
   57.5116   55.1589   23.6955 H   0  0  0  0  0  0  0  0  0  0  0  0
   57.3254   53.9209   25.0131 H   0  0  0  0  0  0  0  0  0  0  0  0
   57.1308   57.4579   24.3485 H   0  0  0  0  0  0  0  0  0  0  0  0
   56.6334   57.7327   26.0649 H   0  0  0  0  0  0  0  0  0  0  0  0
   58.8230   57.0082   26.8436 H   0  0  0  0  0  0  0  0  0  0  0  0
   60.2680   58.8323   27.5645 H   0  0  0  0  0  0  0  0  0  0  0  0
   60.8529   61.1885   27.1977 H   0  0  0  0  0  0  0  0  0  0  0  0
   58.7358   61.1967   23.5469 H   0  0  0  0  0  0  0  0  0  0  0  0
   60.8367   55.7106   26.9076 H   0  0  0  0  0  0  0  0  0  0  0  0
   61.7102   54.8214   25.5781 H   0  0  0  0  0  0  0  0  0  0  0  0
   66.0167   56.6965   25.4192 H   0  0  0  0  0  0  0  0  0  0  0  0
   63.7674   55.8384   24.6511 H   0  0  0  0  0  0  0  0  0  0  0  0
   62.6538   59.1594   29.5766 H   0  0  0  0  0  0  0  0  0  0  0  0
   68.0341   55.8106   31.3960 H   0  0  0  0  0  0  0  0  0  0  0  0
   66.3330   58.6089   34.6199 H   0  0  0  0  0  0  0  0  0  0  0  0
   64.8945   59.4084   33.9315 H   0  0  0  0  0  0  0  0  0  0  0  0
  1 14  1  0
  2  1  1  0
  2  3  1  0
  2  7  1  0
  4  3  1  0
  4  5  1  0
  6  5  1  0
  6  7  1  0
  8  7  1  0
  8  9  2  0
 10  9  1  0
 11 10  2  0
 12 13  2  0
 12 11  1  0
 13  8  1  0
 14 17  1  0
 15 20  2  0
 16 15  1  0
 16 17  2  0
 17 18  1  0
 18 19  2  0
 19 21  1  0
 20 19  1  0
 21 22  1  0
 21 29  1  0
 22 23  2  0
 23 24  1  0
 24 25  2  0
 25 30  1  0
 26 25  1  0
 27 26  2  0
 28 29  2  0
 28 27  1  0
 29 24  1  0
  1 31  1  0
  1 32  1  0
  3 33  1  0
  3 34  1  0
  4 35  1  0
  4 36  1  0
  6 37  1  0
  6 38  1  0
  7 39  1  1
  9 40  1  0
 10 41  1  0
 12 42  1  0
 14 43  1  0
 14 44  1  0
 15 45  1  0
 16 46  1  0
 22 47  1  0
 27 48  1  0
 30 49  1  0
 30 50  1  0
M  END
>  <Score>  (1) 
-7.11379

$$$$
