
     RDKit          3D

 41 44  0  0  1  0  0  0  0  0999 V2000
   60.8370   58.8900   26.4760 C   0  0  0  0  0  0  0  0  0  0  0  0
   60.1810   60.0870   26.8180 C   0  0  0  0  0  0  0  0  0  0  0  0
   60.4010   60.5600   28.1220 C   0  0  0  0  0  0  0  0  0  0  0  0
   61.2210   59.8470   28.9630 N   0  0  0  0  0  0  0  0  0  0  0  0
   61.8130   58.7150   28.5720 C   0  0  0  0  0  0  0  0  0  0  0  0
   61.6160   58.2530   27.3440 N   0  0  0  0  0  0  0  0  0  0  0  0
   62.6450   58.0140   29.4670 N   0  0  0  0  0  0  0  0  0  0  0  0
   63.5300   57.0000   28.9860 C   0  0  0  0  0  0  0  0  0  0  0  0
   63.1530   56.3910   27.9180 N   0  0  0  0  0  0  0  0  0  0  0  0
   64.7330   56.7740   29.7370 N   0  0  0  0  0  0  0  0  0  0  0  0
   63.6480   55.6210   27.4750 H   0  0  0  0  0  0  0  0  0  0  0  0
   59.7220   61.8240   28.5570 C   0  0  2  0  0  0  0  0  0  0  0  0
   60.4020   62.7200   29.5460 C   0  0  0  0  0  0  0  0  0  0  0  0
   59.1320   61.9090   29.8940 C   0  0  1  0  0  0  0  0  0  0  0  0
   57.9030   62.6600   30.1500 C   0  0  0  0  0  0  0  0  0  0  0  0
   57.3150   62.3650   31.3370 N   0  0  0  0  0  0  0  0  0  0  0  0
   56.1480   62.9580   31.6720 C   0  0  0  0  0  0  0  0  0  0  0  0
   55.5320   63.8520   30.8540 N   0  0  0  0  0  0  0  0  0  0  0  0
   56.0760   64.1760   29.6690 C   0  0  0  0  0  0  0  0  0  0  0  0
   55.5350   65.0800   28.7780 C   0  0  0  0  0  0  0  0  0  0  0  0
   56.1530   65.3870   27.5710 C   0  0  0  0  0  0  0  0  0  0  0  0
   57.3610   64.7590   27.2540 C   0  0  0  0  0  0  0  0  0  0  0  0
   57.8790   63.8590   28.1610 C   0  0  0  0  0  0  0  0  0  0  0  0
   57.2610   63.5660   29.3440 C   0  0  0  0  0  0  0  0  0  0  0  0
   60.6070   58.3810   25.0690 C   0  0  0  0  0  0  0  0  0  0  0  0
   59.3210   58.4120   24.6850 F   0  0  0  0  0  0  0  0  0  0  0  0
   61.3960   59.1970   24.2230 F   0  0  0  0  0  0  0  0  0  0  0  0
   61.1810   57.1120   24.9430 F   0  0  0  0  0  0  0  0  0  0  0  0
   59.5341   60.6207   26.1061 H   0  0  0  0  0  0  0  0  0  0  0  0
   62.6154   58.2333   30.4729 H   0  0  0  0  0  0  0  0  0  0  0  0
   65.4033   56.0541   29.4314 H   0  0  0  0  0  0  0  0  0  0  0  0
   64.9255   57.3318   30.5812 H   0  0  0  0  0  0  0  0  0  0  0  0
   59.3237   61.9716   27.5423 H   0  0  0  0  0  0  0  0  0  0  0  0
   61.3761   62.4399   29.9734 H   0  0  0  0  0  0  0  0  0  0  0  0
   60.7013   63.7779   29.5819 H   0  0  0  0  0  0  0  0  0  0  0  0
   58.8358   61.1536   30.6368 H   0  0  0  0  0  0  0  0  0  0  0  0
   55.6818   62.7095   32.6369 H   0  0  0  0  0  0  0  0  0  0  0  0
   54.5848   65.5733   29.0306 H   0  0  0  0  0  0  0  0  0  0  0  0
   55.6996   66.1110   26.8780 H   0  0  0  0  0  0  0  0  0  0  0  0
   57.8822   64.9762   26.3100 H   0  0  0  0  0  0  0  0  0  0  0  0
   58.8281   63.3565   27.9227 H   0  0  0  0  0  0  0  0  0  0  0  0
  1  2  2  0
  1  6  1  0
  2  3  1  0
  3 12  1  0
  3  4  2  0
  5  4  1  0
  5  7  1  0
  6  5  2  0
  8  7  1  0
  8 10  1  0
  9  8  2  0
 11  9  1  0
 12 13  1  0
 12 14  1  0
 13 14  1  0
 14 15  1  0
 15 16  2  0
 16 17  1  0
 18 17  2  0
 19 18  1  0
 20 19  2  0
 21 20  1  0
 22 21  2  0
 22 23  1  0
 23 24  2  0
 24 19  1  0
 24 15  1  0
 25  1  1  0
 26 25  1  0
 27 25  1  0
 28 25  1  0
  2 29  1  0
  7 30  1  0
 10 31  1  0
 10 32  1  0
 12 33  1  6
 13 34  1  0
 13 35  1  0
 14 36  1  1
 17 37  1  0
 20 38  1  0
 21 39  1  0
 22 40  1  0
 23 41  1  0
M  END
>  <Score>  (1) 
-7.48969

$$$$
