
     RDKit          3D

 41 45  0  0  0  0  0  0  0  0999 V2000
   63.4870   56.9440   27.1000 C   0  0  0  0  0  0  0  0  0  0  0  0
   62.1680   57.4300   27.3240 C   0  0  0  0  0  0  0  0  0  0  0  0
   61.9660   58.1530   28.5000 C   0  0  0  0  0  0  0  0  0  0  0  0
   62.9890   58.3590   29.3520 N   0  0  0  0  0  0  0  0  0  0  0  0
   64.2220   57.8910   29.1200 C   0  0  0  0  0  0  0  0  0  0  0  0
   64.4770   57.1830   27.9940 N   0  0  0  0  0  0  0  0  0  0  0  0
   61.2520   57.0800   26.2750 C   0  0  0  0  0  0  0  0  0  0  0  0
   60.8330   55.7590   26.2690 C   0  0  0  0  0  0  0  0  0  0  0  0
   59.9590   55.2230   25.3510 C   0  0  0  0  0  0  0  0  0  0  0  0
   59.4600   56.0430   24.3640 C   0  0  0  0  0  0  0  0  0  0  0  0
   59.8520   57.3410   24.3440 C   0  0  0  0  0  0  0  0  0  0  0  0
   59.4000   58.2300   23.3900 C   0  0  0  0  0  0  0  0  0  0  0  0
   59.7920   59.5550   23.3580 C   0  0  0  0  0  0  0  0  0  0  0  0
   60.6720   60.0350   24.3100 C   0  0  0  0  0  0  0  0  0  0  0  0
   61.1530   59.1820   25.2860 C   0  0  0  0  0  0  0  0  0  0  0  0
   60.7270   57.8690   25.2680 C   0  0  0  0  0  0  0  0  0  0  0  0
   65.2930   58.1390   30.0680 C   0  0  0  0  0  0  0  0  0  0  0  0
   66.0700   57.0850   30.5350 C   0  0  0  0  0  0  0  0  0  0  0  0
   67.0870   57.3820   31.4460 C   0  0  0  0  0  0  0  0  0  0  0  0
   67.3340   58.6410   31.8780 N   0  0  0  0  0  0  0  0  0  0  0  0
   66.5510   59.6060   31.3900 C   0  0  0  0  0  0  0  0  0  0  0  0
   65.5430   59.3880   30.5020 N   0  0  0  0  0  0  0  0  0  0  0  0
   66.8380   60.9190   31.8680 N   0  0  0  0  0  0  0  0  0  0  0  0
   67.3040   61.7550   30.9360 N   0  0  0  0  0  0  0  0  0  0  0  0
   67.5430   62.9570   31.4760 C   0  0  0  0  0  0  0  0  0  0  0  0
   67.2090   62.8870   32.8330 C   0  0  0  0  0  0  0  0  0  0  0  0
   66.7680   61.5830   33.0370 C   0  0  0  0  0  0  0  0  0  0  0  0
   63.7055   56.3669   26.1894 H   0  0  0  0  0  0  0  0  0  0  0  0
   60.9691   58.5558   28.7321 H   0  0  0  0  0  0  0  0  0  0  0  0
   61.2259   55.0933   27.0516 H   0  0  0  0  0  0  0  0  0  0  0  0
   59.6659   54.1641   25.4046 H   0  0  0  0  0  0  0  0  0  0  0  0
   58.7600   55.6545   23.6096 H   0  0  0  0  0  0  0  0  0  0  0  0
   58.6987   57.8691   22.6233 H   0  0  0  0  0  0  0  0  0  0  0  0
   59.4047   60.2259   22.5770 H   0  0  0  0  0  0  0  0  0  0  0  0
   60.9874   61.0886   24.2911 H   0  0  0  0  0  0  0  0  0  0  0  0
   61.8546   59.5391   26.0543 H   0  0  0  0  0  0  0  0  0  0  0  0
   65.8904   56.0531   30.1990 H   0  0  0  0  0  0  0  0  0  0  0  0
   67.7115   56.5605   31.8271 H   0  0  0  0  0  0  0  0  0  0  0  0
   67.9318   63.8402   30.9479 H   0  0  0  0  0  0  0  0  0  0  0  0
   67.2799   63.6916   33.5797 H   0  0  0  0  0  0  0  0  0  0  0  0
   66.4204   61.1648   33.9932 H   0  0  0  0  0  0  0  0  0  0  0  0
  1  2  2  0
  1  6  1  0
  2  3  1  0
  3  4  2  0
  5  4  1  0
  5 17  1  0
  6  5  2  0
  7  2  1  0
  8  7  2  0
  9  8  1  0
 10  9  2  0
 11 10  1  0
 11 16  2  0
 12 11  1  0
 13 12  2  0
 13 14  1  0
 14 15  2  0
 16 15  1  0
 16  7  1  0
 17 22  1  0
 17 18  2  0
 18 19  1  0
 19 20  2  0
 21 23  1  0
 21 20  1  0
 22 21  2  0
 23 27  1  0
 24 25  2  0
 24 23  1  0
 25 26  1  0
 26 27  2  0
  1 28  1  0
  3 29  1  0
  8 30  1  0
  9 31  1  0
 10 32  1  0
 12 33  1  0
 13 34  1  0
 14 35  1  0
 15 36  1  0
 18 37  1  0
 19 38  1  0
 25 39  1  0
 26 40  1  0
 27 41  1  0
M  END
>  <Score>  (1) 
-7.38951

$$$$
