
     RDKit          3D

 41 45  0  0  0  0  0  0  0  0999 V2000
   63.4960   56.9300   27.1620 C   0  0  0  0  0  0  0  0  0  0  0  0
   62.1920   57.4350   27.3620 C   0  0  0  0  0  0  0  0  0  0  0  0
   61.9870   58.1720   28.5270 C   0  0  0  0  0  0  0  0  0  0  0  0
   63.0100   58.3650   29.3860 N   0  0  0  0  0  0  0  0  0  0  0  0
   64.2320   57.8790   29.1750 C   0  0  0  0  0  0  0  0  0  0  0  0
   64.4870   57.1560   28.0600 N   0  0  0  0  0  0  0  0  0  0  0  0
   61.2780   57.0920   26.3080 C   0  0  0  0  0  0  0  0  0  0  0  0
   60.8560   55.7630   26.3030 C   0  0  0  0  0  0  0  0  0  0  0  0
   59.9860   55.2310   25.3810 C   0  0  0  0  0  0  0  0  0  0  0  0
   59.4890   56.0480   24.3940 C   0  0  0  0  0  0  0  0  0  0  0  0
   59.8840   57.3450   24.3750 C   0  0  0  0  0  0  0  0  0  0  0  0
   59.4340   58.2390   23.4180 C   0  0  0  0  0  0  0  0  0  0  0  0
   59.8300   59.5610   23.3910 C   0  0  0  0  0  0  0  0  0  0  0  0
   60.7070   60.0400   24.3430 C   0  0  0  0  0  0  0  0  0  0  0  0
   61.1830   59.1830   25.3200 C   0  0  0  0  0  0  0  0  0  0  0  0
   60.7540   57.8670   25.3010 C   0  0  0  0  0  0  0  0  0  0  0  0
   65.2960   58.1150   30.1290 C   0  0  0  0  0  0  0  0  0  0  0  0
   66.0510   57.0610   30.6200 C   0  0  0  0  0  0  0  0  0  0  0  0
   67.0640   57.3550   31.5340 C   0  0  0  0  0  0  0  0  0  0  0  0
   67.3280   58.6260   31.9500 N   0  0  0  0  0  0  0  0  0  0  0  0
   66.5670   59.5900   31.4400 C   0  0  0  0  0  0  0  0  0  0  0  0
   65.5670   59.3730   30.5490 N   0  0  0  0  0  0  0  0  0  0  0  0
   66.7210   61.0390   31.7870 C   0  0  0  0  0  0  0  0  0  0  0  0
   67.0240   62.0060   30.7660 C   0  0  0  0  0  0  0  0  0  0  0  0
   67.1430   63.3000   31.2020 C   0  0  0  0  0  0  0  0  0  0  0  0
   66.9860   63.6720   32.5110 C   0  0  0  0  0  0  0  0  0  0  0  0
   66.6150   61.9860   33.3100 S   0  0  0  0  0  0  0  0  0  0  0  0
   63.7123   56.3408   26.2586 H   0  0  0  0  0  0  0  0  0  0  0  0
   60.9953   58.5948   28.7456 H   0  0  0  0  0  0  0  0  0  0  0  0
   61.2444   55.0971   27.0877 H   0  0  0  0  0  0  0  0  0  0  0  0
   59.6934   54.1719   25.4323 H   0  0  0  0  0  0  0  0  0  0  0  0
   58.7892   55.6600   23.6393 H   0  0  0  0  0  0  0  0  0  0  0  0
   58.7334   57.8815   22.6490 H   0  0  0  0  0  0  0  0  0  0  0  0
   59.4461   60.2336   22.6098 H   0  0  0  0  0  0  0  0  0  0  0  0
   61.0247   61.0930   24.3254 H   0  0  0  0  0  0  0  0  0  0  0  0
   61.8831   59.5379   26.0906 H   0  0  0  0  0  0  0  0  0  0  0  0
   65.8579   56.0266   30.2996 H   0  0  0  0  0  0  0  0  0  0  0  0
   67.6722   56.5301   31.9337 H   0  0  0  0  0  0  0  0  0  0  0  0
   67.1512   61.7266   29.7097 H   0  0  0  0  0  0  0  0  0  0  0  0
   67.3767   64.0801   30.4625 H   0  0  0  0  0  0  0  0  0  0  0  0
   67.0552   64.6684   32.9719 H   0  0  0  0  0  0  0  0  0  0  0  0
  1  2  2  0
  1  6  1  0
  2  3  1  0
  3  4  2  0
  5  4  1  0
  5 17  1  0
  6  5  2  0
  7  2  1  0
  8  7  2  0
  9  8  1  0
 10  9  2  0
 11 10  1  0
 11 16  2  0
 12 11  1  0
 13 12  2  0
 13 14  1  0
 14 15  2  0
 16 15  1  0
 16  7  1  0
 17 22  1  0
 17 18  2  0
 18 19  1  0
 19 20  2  0
 21 23  1  0
 21 20  1  0
 22 21  2  0
 23 27  1  0
 24 25  1  0
 24 23  2  0
 25 26  2  0
 26 27  1  0
  1 28  1  0
  3 29  1  0
  8 30  1  0
  9 31  1  0
 10 32  1  0
 12 33  1  0
 13 34  1  0
 14 35  1  0
 15 36  1  0
 18 37  1  0
 19 38  1  0
 24 39  1  0
 25 40  1  0
 26 41  1  0
M  END
>  <Score>  (1) 
-7.06348

$$$$
