
     RDKit          3D

 47 52  0  0  0  0  0  0  0  0999 V2000
   63.5300   56.9680   27.1340 C   0  0  0  0  0  0  0  0  0  0  0  0
   62.2060   57.4490   27.3620 C   0  0  0  0  0  0  0  0  0  0  0  0
   62.0050   58.1710   28.5360 C   0  0  0  0  0  0  0  0  0  0  0  0
   63.0230   58.3850   29.3870 N   0  0  0  0  0  0  0  0  0  0  0  0
   64.2670   57.9140   29.1410 C   0  0  0  0  0  0  0  0  0  0  0  0
   64.5220   57.2110   28.0240 N   0  0  0  0  0  0  0  0  0  0  0  0
   61.2920   57.0920   26.3130 C   0  0  0  0  0  0  0  0  0  0  0  0
   60.8770   55.7710   26.3100 C   0  0  0  0  0  0  0  0  0  0  0  0
   60.0060   55.2280   25.3950 C   0  0  0  0  0  0  0  0  0  0  0  0
   59.5010   56.0390   24.4030 C   0  0  0  0  0  0  0  0  0  0  0  0
   59.8890   57.3400   24.3790 C   0  0  0  0  0  0  0  0  0  0  0  0
   59.4340   58.2270   23.4220 C   0  0  0  0  0  0  0  0  0  0  0  0
   59.8220   59.5500   23.3880 C   0  0  0  0  0  0  0  0  0  0  0  0
   60.7010   60.0360   24.3380 C   0  0  0  0  0  0  0  0  0  0  0  0
   61.1840   59.1860   25.3170 C   0  0  0  0  0  0  0  0  0  0  0  0
   60.7630   57.8780   25.3010 C   0  0  0  0  0  0  0  0  0  0  0  0
   65.3320   58.1760   30.0980 C   0  0  0  0  0  0  0  0  0  0  0  0
   66.0480   57.1180   30.6480 C   0  0  0  0  0  0  0  0  0  0  0  0
   67.0600   57.4110   31.5600 C   0  0  0  0  0  0  0  0  0  0  0  0
   67.3550   58.6910   31.9190 N   0  0  0  0  0  0  0  0  0  0  0  0
   66.6300   59.6650   31.3550 C   0  0  0  0  0  0  0  0  0  0  0  0
   65.6330   59.4340   30.4590 N   0  0  0  0  0  0  0  0  0  0  0  0
   66.7980   61.0760   31.6110 N   0  0  0  0  0  0  0  0  0  0  0  0
   67.0200   61.7250   32.7680 C   0  0  0  0  0  0  0  0  0  0  0  0
   67.1110   63.0540   32.5200 N   0  0  0  0  0  0  0  0  0  0  0  0
   66.9500   63.2910   31.2070 C   0  0  0  0  0  0  0  0  0  0  0  0
   66.9320   64.3680   30.3430 C   0  0  0  0  0  0  0  0  0  0  0  0
   66.7310   64.1690   29.0250 N   0  0  0  0  0  0  0  0  0  0  0  0
   66.5440   62.9570   28.4920 C   0  0  0  0  0  0  0  0  0  0  0  0
   66.5590   61.9000   29.3190 N   0  0  0  0  0  0  0  0  0  0  0  0
   66.7570   62.0400   30.6560 C   0  0  0  0  0  0  0  0  0  0  0  0
   67.1320   65.6570   30.9130 N   0  0  0  0  0  0  0  0  0  0  0  0
   63.7482   56.3918   26.2227 H   0  0  0  0  0  0  0  0  0  0  0  0
   61.0061   58.5688   28.7683 H   0  0  0  0  0  0  0  0  0  0  0  0
   61.2720   55.1093   27.0950 H   0  0  0  0  0  0  0  0  0  0  0  0
   59.7185   54.1679   25.4541 H   0  0  0  0  0  0  0  0  0  0  0  0
   58.8025   55.6436   23.6508 H   0  0  0  0  0  0  0  0  0  0  0  0
   58.7336   57.8629   22.6559 H   0  0  0  0  0  0  0  0  0  0  0  0
   59.4324   60.2180   22.6057 H   0  0  0  0  0  0  0  0  0  0  0  0
   61.0139   61.0903   24.3157 H   0  0  0  0  0  0  0  0  0  0  0  0
   61.8840   59.5464   26.0851 H   0  0  0  0  0  0  0  0  0  0  0  0
   65.8215   56.0780   30.3705 H   0  0  0  0  0  0  0  0  0  0  0  0
   67.6367   56.5853   32.0023 H   0  0  0  0  0  0  0  0  0  0  0  0
   67.1128   61.2526   33.7570 H   0  0  0  0  0  0  0  0  0  0  0  0
   66.3832   62.8304   27.4112 H   0  0  0  0  0  0  0  0  0  0  0  0
   67.1275   66.4927   30.3109 H   0  0  0  0  0  0  0  0  0  0  0  0
   67.2812   65.7540   31.9275 H   0  0  0  0  0  0  0  0  0  0  0  0
  1  2  2  0
  1  6  1  0
  2  3  1  0
  3  4  2  0
  5  4  1  0
  5 17  1  0
  6  5  2  0
  7  2  1  0
  8  7  2  0
  9  8  1  0
 10  9  2  0
 11 10  1  0
 11 16  2  0
 12 11  1  0
 13 12  2  0
 13 14  1  0
 14 15  2  0
 16 15  1  0
 16  7  1  0
 17 22  1  0
 17 18  2  0
 18 19  1  0
 19 20  2  0
 21 23  1  0
 21 20  1  0
 22 21  2  0
 23 24  1  0
 25 24  2  0
 26 25  1  0
 27 32  1  0
 27 26  2  0
 28 27  1  0
 29 28  2  0
 29 30  1  0
 30 31  2  0
 31 26  1  0
 31 23  1  0
  1 33  1  0
  3 34  1  0
  8 35  1  0
  9 36  1  0
 10 37  1  0
 12 38  1  0
 13 39  1  0
 14 40  1  0
 15 41  1  0
 18 42  1  0
 19 43  1  0
 24 44  1  0
 29 45  1  0
 32 46  1  0
 32 47  1  0
M  END
>  <Score>  (1) 
-8.39359

$$$$
