
     RDKit          3D

 47 52  0  0  1  0  0  0  0  0999 V2000
   61.5000   57.1050   26.2220 N   0  0  0  0  0  0  0  0  0  0  0  0
   61.0850   55.8560   25.6240 C   0  0  0  0  0  0  0  0  0  0  0  0
   60.1390   56.2400   24.5260 C   0  0  0  0  0  0  0  0  0  0  0  0
   59.4990   57.5020   25.0830 C   0  0  0  0  0  0  0  0  0  0  0  0
   60.7410   58.1770   25.6300 C   0  0  1  0  0  0  0  0  0  0  0  0
   63.8810   57.1150   26.9420 C   0  0  0  0  0  0  0  0  0  0  0  0
   62.4750   57.2780   27.2120 C   0  0  0  0  0  0  0  0  0  0  0  0
   62.1410   57.6330   28.5090 C   0  0  0  0  0  0  0  0  0  0  0  0
   63.0940   57.8140   29.4450 N   0  0  0  0  0  0  0  0  0  0  0  0
   64.3990   57.6500   29.1310 C   0  0  0  0  0  0  0  0  0  0  0  0
   64.8050   57.3040   27.9010 N   0  0  0  0  0  0  0  0  0  0  0  0
   65.4670   57.8260   30.0620 N   0  0  0  0  0  0  0  0  0  0  0  0
   66.4720   57.0070   30.4230 C   0  0  0  0  0  0  0  0  0  0  0  0
   67.2560   57.5900   31.3460 N   0  0  0  0  0  0  0  0  0  0  0  0
   66.7300   58.8090   31.5700 C   0  0  0  0  0  0  0  0  0  0  0  0
   67.1260   59.8460   32.4240 C   0  0  0  0  0  0  0  0  0  0  0  0
   66.4020   61.0020   32.4600 N   0  0  0  0  0  0  0  0  0  0  0  0
   65.3160   61.1300   31.6720 C   0  0  0  0  0  0  0  0  0  0  0  0
   64.9520   60.1300   30.8640 N   0  0  0  0  0  0  0  0  0  0  0  0
   65.6150   58.9610   30.7720 C   0  0  0  0  0  0  0  0  0  0  0  0
   60.5010   59.3190   26.4080 N   0  0  0  0  0  0  0  0  0  0  0  0
   60.9500   59.5710   27.6450 C   0  0  0  0  0  0  0  0  0  0  0  0
   60.5200   60.7650   28.0350 N   0  0  0  0  0  0  0  0  0  0  0  0
   59.7660   61.3040   27.0240 C   0  0  0  0  0  0  0  0  0  0  0  0
   59.0890   62.5060   26.9960 C   0  0  0  0  0  0  0  0  0  0  0  0
   59.1300   63.2900   27.9620 O   0  0  0  0  0  0  0  0  0  0  0  0
   58.3900   62.7660   25.8820 N   0  0  0  0  0  0  0  0  0  0  0  0
   58.3560   61.8980   24.8520 C   0  0  0  0  0  0  0  0  0  0  0  0
   57.5980   62.2020   23.6860 N   0  0  0  0  0  0  0  0  0  0  0  0
   59.0350   60.7370   24.9320 N   0  0  0  0  0  0  0  0  0  0  0  0
   59.7680   60.3660   25.9970 C   0  0  0  0  0  0  0  0  0  0  0  0
   61.9525   55.3174   25.2148 H   0  0  0  0  0  0  0  0  0  0  0  0
   60.6126   55.1863   26.3577 H   0  0  0  0  0  0  0  0  0  0  0  0
   59.3884   55.4547   24.3530 H   0  0  0  0  0  0  0  0  0  0  0  0
   60.6280   56.3851   23.5514 H   0  0  0  0  0  0  0  0  0  0  0  0
   59.0164   58.1011   24.2968 H   0  0  0  0  0  0  0  0  0  0  0  0
   58.6896   57.3403   25.8102 H   0  0  0  0  0  0  0  0  0  0  0  0
   61.3415   58.6628   24.8468 H   0  0  0  0  0  0  0  0  0  0  0  0
   64.2055   56.8300   25.9303 H   0  0  0  0  0  0  0  0  0  0  0  0
   61.0833   57.7690   28.7787 H   0  0  0  0  0  0  0  0  0  0  0  0
   66.6304   55.9968   30.0174 H   0  0  0  0  0  0  0  0  0  0  0  0
   68.0148   59.7293   33.0615 H   0  0  0  0  0  0  0  0  0  0  0  0
   64.7282   62.0595   31.6941 H   0  0  0  0  0  0  0  0  0  0  0  0
   61.5771   58.8942   28.2440 H   0  0  0  0  0  0  0  0  0  0  0  0
   57.8665   63.6503   25.8118 H   0  0  0  0  0  0  0  0  0  0  0  0
   57.0793   63.0898   23.6259 H   0  0  0  0  0  0  0  0  0  0  0  0
   57.5683   61.5341   22.9024 H   0  0  0  0  0  0  0  0  0  0  0  0
  1  7  1  0
  2  1  1  0
  3  4  1  0
  3  2  1  0
  4  5  1  0
  5  1  1  0
  5 21  1  0
  6  7  2  0
  6 11  1  0
  7  8  1  0
  8  9  2  0
 10  9  1  0
 10 12  1  0
 11 10  2  0
 12 13  1  0
 12 20  1  0
 13 14  2  0
 14 15  1  0
 15 16  2  0
 16 17  1  0
 18 17  2  0
 19 18  1  0
 20 19  2  0
 20 15  1  0
 21 22  1  0
 22 23  2  0
 24 23  1  0
 25 24  1  0
 25 26  2  0
 27 25  1  0
 28 30  2  0
 28 27  1  0
 29 28  1  0
 30 31  1  0
 31 21  1  0
 31 24  2  0
  2 32  1  0
  2 33  1  0
  3 34  1  0
  3 35  1  0
  4 36  1  0
  4 37  1  0
  5 38  1  6
  6 39  1  0
  8 40  1  0
 13 41  1  0
 16 42  1  0
 18 43  1  0
 22 44  1  0
 27 45  1  0
 29 46  1  0
 29 47  1  0
M  END
>  <Score>  (1) 
-7.58226

$$$$
