
     RDKit          3D

 46 50  0  0  1  0  0  0  0  0999 V2000
   60.4950   58.6790   26.4150 C   0  0  2  0  0  0  0  0  0  0  0  0
   60.9400   58.1690   25.1130 C   0  0  0  0  0  0  0  0  0  0  0  0
   61.4150   59.2310   24.1590 C   0  0  0  0  0  0  0  0  0  0  0  0
   60.2770   60.1970   23.9900 C   0  0  0  0  0  0  0  0  0  0  0  0
   59.9620   60.8990   25.2420 C   0  0  0  0  0  0  0  0  0  0  0  0
   60.0810   60.0880   26.4960 C   0  0  0  0  0  0  0  0  0  0  0  0
   62.4280   58.7180   29.5480 C   0  0  0  0  0  0  0  0  0  0  0  0
   63.4620   57.7970   29.2930 C   0  0  0  0  0  0  0  0  0  0  0  0
   63.4840   57.1670   28.0380 C   0  0  0  0  0  0  0  0  0  0  0  0
   62.5050   57.4860   27.1460 N   0  0  0  0  0  0  0  0  0  0  0  0
   61.5250   58.3750   27.4230 C   0  0  0  0  0  0  0  0  0  0  0  0
   61.5260   58.9570   28.6150 N   0  0  0  0  0  0  0  0  0  0  0  0
   59.7270   60.8940   27.6360 C   0  0  0  0  0  0  0  0  0  0  0  0
   60.6130   61.5640   28.4080 C   0  0  0  0  0  0  0  0  0  0  0  0
   60.2680   62.3560   29.4740 C   0  0  0  0  0  0  0  0  0  0  0  0
   58.9600   62.4850   29.7840 N   0  0  0  0  0  0  0  0  0  0  0  0
   58.0290   61.8460   29.0630 C   0  0  0  0  0  0  0  0  0  0  0  0
   58.4910   61.1260   28.0770 N   0  0  0  0  0  0  0  0  0  0  0  0
   56.5690   61.7880   29.1620 C   0  0  0  0  0  0  0  0  0  0  0  0
   55.7600   62.8720   29.0930 N   0  0  0  0  0  0  0  0  0  0  0  0
   54.4310   62.8200   29.1810 C   0  0  0  0  0  0  0  0  0  0  0  0
   53.7690   61.6600   29.3520 N   0  0  0  0  0  0  0  0  0  0  0  0
   54.4900   60.5100   29.4350 C   0  0  0  0  0  0  0  0  0  0  0  0
   53.8110   59.3320   29.6080 C   0  0  0  0  0  0  0  0  0  0  0  0
   54.5070   58.1450   29.6950 C   0  0  0  0  0  0  0  0  0  0  0  0
   55.9010   58.2090   29.6010 C   0  0  0  0  0  0  0  0  0  0  0  0
   56.5070   59.4210   29.4290 C   0  0  0  0  0  0  0  0  0  0  0  0
   55.8550   60.6250   29.3370 C   0  0  0  0  0  0  0  0  0  0  0  0
   59.5504   58.1497   26.6087 H   0  0  0  0  0  0  0  0  0  0  0  0
   61.7677   57.4649   25.2839 H   0  0  0  0  0  0  0  0  0  0  0  0
   60.0641   57.6957   24.6452 H   0  0  0  0  0  0  0  0  0  0  0  0
   62.2932   59.7479   24.5733 H   0  0  0  0  0  0  0  0  0  0  0  0
   61.7104   58.7936   23.1939 H   0  0  0  0  0  0  0  0  0  0  0  0
   60.5513   60.9391   23.2258 H   0  0  0  0  0  0  0  0  0  0  0  0
   59.3874   59.6253   23.6872 H   0  0  0  0  0  0  0  0  0  0  0  0
   59.6573   61.9558   25.2575 H   0  0  0  0  0  0  0  0  0  0  0  0
   62.3725   59.2344   30.5177 H   0  0  0  0  0  0  0  0  0  0  0  0
   64.2276   57.5781   30.0519 H   0  0  0  0  0  0  0  0  0  0  0  0
   64.2677   56.4384   27.7831 H   0  0  0  0  0  0  0  0  0  0  0  0
   61.6815   61.4674   28.1649 H   0  0  0  0  0  0  0  0  0  0  0  0
   61.0394   62.8741   30.0627 H   0  0  0  0  0  0  0  0  0  0  0  0
   53.8562   63.7553   29.1117 H   0  0  0  0  0  0  0  0  0  0  0  0
   52.7132   59.3336   29.6773 H   0  0  0  0  0  0  0  0  0  0  0  0
   53.9866   57.1857   29.8329 H   0  0  0  0  0  0  0  0  0  0  0  0
   56.5041   57.2913   29.6650 H   0  0  0  0  0  0  0  0  0  0  0  0
   57.6047   59.4329   29.3587 H   0  0  0  0  0  0  0  0  0  0  0  0
  1  6  1  0
  1 11  1  0
  2  1  1  0
  3  2  1  0
  4  3  1  0
  4  5  1  0
  5  6  2  0
  6 13  1  0
  8  7  2  0
  9  8  1  0
 10 11  1  0
 10  9  2  0
 11 12  2  0
 12  7  1  0
 13 18  1  0
 13 14  2  0
 14 15  1  0
 15 16  2  0
 17 19  1  0
 17 16  1  0
 18 17  2  0
 19 28  1  0
 20 19  2  0
 20 21  1  0
 21 22  2  0
 22 23  1  0
 23 24  2  0
 24 25  1  0
 26 25  2  0
 27 26  1  0
 28 27  2  0
 28 23  1  0
  1 29  1  1
  2 30  1  0
  2 31  1  0
  3 32  1  0
  3 33  1  0
  4 34  1  0
  4 35  1  0
  5 36  1  0
  7 37  1  0
  8 38  1  0
  9 39  1  0
 14 40  1  0
 15 41  1  0
 21 42  1  0
 24 43  1  0
 25 44  1  0
 26 45  1  0
 27 46  1  0
M  END
>  <Score>  (1) 
-7.09541

$$$$
