
     RDKit          3D

 39 42  0  0  0  0  0  0  0  0999 V2000
   63.7700   57.2090   26.8700 C   0  0  0  0  0  0  0  0  0  0  0  0
   62.4450   57.2680   27.3280 C   0  0  0  0  0  0  0  0  0  0  0  0
   62.2700   57.5830   28.6860 C   0  0  0  0  0  0  0  0  0  0  0  0
   63.3830   57.8010   29.4290 N   0  0  0  0  0  0  0  0  0  0  0  0
   64.6310   57.7370   28.9620 C   0  0  0  0  0  0  0  0  0  0  0  0
   64.8320   57.4380   27.6700 N   0  0  0  0  0  0  0  0  0  0  0  0
   65.5500   58.0220   30.0220 N   0  0  0  0  0  0  0  0  0  0  0  0
   66.0260   57.0110   30.8110 C   0  0  0  0  0  0  0  0  0  0  0  0
   66.8950   57.3220   31.8060 C   0  0  0  0  0  0  0  0  0  0  0  0
   67.4880   56.3260   32.7350 C   0  0  0  0  0  0  0  0  0  0  0  0
   67.2980   58.6210   32.0280 C   0  0  0  0  0  0  0  0  0  0  0  0
   68.0810   59.1030   32.8820 O   0  0  0  0  0  0  0  0  0  0  0  0
   66.7900   59.5640   31.2140 N   0  0  0  0  0  0  0  0  0  0  0  0
   65.9290   59.3180   30.2160 C   0  0  0  0  0  0  0  0  0  0  0  0
   65.4460   60.1890   29.4470 O   0  0  0  0  0  0  0  0  0  0  0  0
   61.4630   56.9830   26.3070 C   0  0  0  0  0  0  0  0  0  0  0  0
   60.9980   55.6480   26.3040 C   0  0  0  0  0  0  0  0  0  0  0  0
   60.0660   55.1760   25.4150 C   0  0  0  0  0  0  0  0  0  0  0  0
   59.5480   56.0350   24.4720 C   0  0  0  0  0  0  0  0  0  0  0  0
   59.9840   57.3200   24.4600 C   0  0  0  0  0  0  0  0  0  0  0  0
   59.5230   58.2430   23.5510 C   0  0  0  0  0  0  0  0  0  0  0  0
   59.9700   59.5660   23.5280 C   0  0  0  0  0  0  0  0  0  0  0  0
   60.9110   59.9900   24.4460 C   0  0  0  0  0  0  0  0  0  0  0  0
   61.3930   59.0850   25.3760 C   0  0  0  0  0  0  0  0  0  0  0  0
   60.9190   57.7980   25.3510 C   0  0  0  0  0  0  0  0  0  0  0  0
   63.9507   56.9654   25.8126 H   0  0  0  0  0  0  0  0  0  0  0  0
   61.2660   57.6503   29.1305 H   0  0  0  0  0  0  0  0  0  0  0  0
   65.7118   55.9703   30.6429 H   0  0  0  0  0  0  0  0  0  0  0  0
   67.3026   56.6374   33.7736 H   0  0  0  0  0  0  0  0  0  0  0  0
   67.0285   55.3420   32.5597 H   0  0  0  0  0  0  0  0  0  0  0  0
   68.5720   56.2610   32.5597 H   0  0  0  0  0  0  0  0  0  0  0  0
   67.0819   60.5398   31.3676 H   0  0  0  0  0  0  0  0  0  0  0  0
   61.4043   54.9521   27.0528 H   0  0  0  0  0  0  0  0  0  0  0  0
   59.7375   54.1270   25.4550 H   0  0  0  0  0  0  0  0  0  0  0  0
   58.7985   55.6879   23.7455 H   0  0  0  0  0  0  0  0  0  0  0  0
   58.7719   57.9267   22.8122 H   0  0  0  0  0  0  0  0  0  0  0  0
   59.5735   60.2688   22.7804 H   0  0  0  0  0  0  0  0  0  0  0  0
   61.2713   61.0293   24.4382 H   0  0  0  0  0  0  0  0  0  0  0  0
   62.1419   59.3921   26.1209 H   0  0  0  0  0  0  0  0  0  0  0  0
  1  2  2  0
  1  6  1  0
  2  3  1  0
  3  4  2  0
  5  4  1  0
  5  7  1  0
  6  5  2  0
  7 14  1  0
  7  8  1  0
  8  9  2  0
  9 11  1  0
  9 10  1  0
 11 12  2  0
 13 11  1  0
 14 13  1  0
 15 14  2  0
 16  2  1  0
 17 16  2  0
 18 17  1  0
 19 18  2  0
 20 19  1  0
 20 25  2  0
 21 20  1  0
 22 21  2  0
 22 23  1  0
 23 24  2  0
 25 24  1  0
 25 16  1  0
  1 26  1  0
  3 27  1  0
  8 28  1  0
 10 29  1  0
 10 30  1  0
 10 31  1  0
 13 32  1  0
 17 33  1  0
 18 34  1  0
 19 35  1  0
 21 36  1  0
 22 37  1  0
 23 38  1  0
 24 39  1  0
M  END
>  <Score>  (1) 
-7.22809

$$$$
