
     RDKit          3D

 42 45  0  0  0  0  0  0  0  0999 V2000
   61.3830   57.0460   26.2860 C   0  0  0  0  0  0  0  0  0  0  0  0
   60.9470   55.7240   26.3380 C   0  0  0  0  0  0  0  0  0  0  0  0
   60.0170   55.1930   25.4720 C   0  0  0  0  0  0  0  0  0  0  0  0
   59.4820   56.0060   24.4960 C   0  0  0  0  0  0  0  0  0  0  0  0
   59.8990   57.3070   24.4320 C   0  0  0  0  0  0  0  0  0  0  0  0
   59.4190   58.1940   23.4860 C   0  0  0  0  0  0  0  0  0  0  0  0
   59.8330   59.5070   23.4120 C   0  0  0  0  0  0  0  0  0  0  0  0
   60.7700   59.9740   24.3140 C   0  0  0  0  0  0  0  0  0  0  0  0
   61.2780   59.1240   25.2750 C   0  0  0  0  0  0  0  0  0  0  0  0
   60.8270   57.8290   25.2980 C   0  0  0  0  0  0  0  0  0  0  0  0
   63.6870   57.0140   26.9470 C   0  0  0  0  0  0  0  0  0  0  0  0
   62.3680   57.3950   27.2940 C   0  0  0  0  0  0  0  0  0  0  0  0
   62.2160   58.0340   28.5300 C   0  0  0  0  0  0  0  0  0  0  0  0
   63.2970   58.2460   29.2950 N   0  0  0  0  0  0  0  0  0  0  0  0
   64.5310   57.8780   28.9460 C   0  0  0  0  0  0  0  0  0  0  0  0
   64.7360   57.2530   27.7570 N   0  0  0  0  0  0  0  0  0  0  0  0
   65.6190   58.1910   29.9170 C   0  0  0  0  0  0  0  0  0  0  0  0
   65.0060   59.0880   30.9620 C   0  0  0  0  0  0  0  0  0  0  0  0
   64.4340   58.2560   32.0660 C   0  0  0  0  0  0  0  0  0  0  0  0
   65.6060   57.6290   32.7890 C   0  0  0  0  0  0  0  0  0  0  0  0
   66.5830   56.9530   31.8790 C   0  0  0  0  0  0  0  0  0  0  0  0
   66.1670   56.9100   30.4340 C   0  0  0  0  0  0  0  0  0  0  0  0
   61.3688   55.0679   27.1136 H   0  0  0  0  0  0  0  0  0  0  0  0
   59.7073   54.1410   25.5576 H   0  0  0  0  0  0  0  0  0  0  0  0
   58.7374   55.6177   23.7855 H   0  0  0  0  0  0  0  0  0  0  0  0
   58.6738   57.8362   22.7603 H   0  0  0  0  0  0  0  0  0  0  0  0
   59.4214   60.1764   22.6423 H   0  0  0  0  0  0  0  0  0  0  0  0
   61.1095   61.0192   24.2661 H   0  0  0  0  0  0  0  0  0  0  0  0
   62.0243   59.4754   26.0027 H   0  0  0  0  0  0  0  0  0  0  0  0
   63.8601   56.5072   25.9862 H   0  0  0  0  0  0  0  0  0  0  0  0
   61.2215   58.3585   28.8700 H   0  0  0  0  0  0  0  0  0  0  0  0
   66.4768   58.7240   29.4810 H   0  0  0  0  0  0  0  0  0  0  0  0
   65.7790   59.7559   31.3700 H   0  0  0  0  0  0  0  0  0  0  0  0
   64.2052   59.6872   30.5042 H   0  0  0  0  0  0  0  0  0  0  0  0
   63.8563   58.8878   32.7567 H   0  0  0  0  0  0  0  0  0  0  0  0
   63.7549   57.4862   31.6706 H   0  0  0  0  0  0  0  0  0  0  0  0
   66.1357   58.4188   33.3419 H   0  0  0  0  0  0  0  0  0  0  0  0
   65.1963   56.8538   33.4532 H   0  0  0  0  0  0  0  0  0  0  0  0
   67.5408   57.4899   31.9444 H   0  0  0  0  0  0  0  0  0  0  0  0
   66.6502   55.9078   32.2152 H   0  0  0  0  0  0  0  0  0  0  0  0
   65.3952   56.1344   30.3206 H   0  0  0  0  0  0  0  0  0  0  0  0
   67.0753   56.6978   29.8509 H   0  0  0  0  0  0  0  0  0  0  0  0
  1  2  2  0
  1 12  1  0
  3  2  1  0
  4  3  2  0
  5  4  1  0
  5 10  2  0
  6  5  1  0
  7  6  2  0
  7  8  1  0
  8  9  2  0
  9 10  1  0
 10  1  1  0
 11 12  2  0
 11 16  1  0
 12 13  1  0
 13 14  2  0
 15 14  1  0
 15 17  1  0
 16 15  2  0
 17 22  1  0
 17 18  1  0
 18 19  1  0
 19 20  1  0
 21 20  1  0
 22 21  1  0
  2 23  1  0
  3 24  1  0
  4 25  1  0
  6 26  1  0
  7 27  1  0
  8 28  1  0
  9 29  1  0
 11 30  1  0
 13 31  1  0
 17 32  1  0
 18 33  1  0
 18 34  1  0
 19 35  1  0
 19 36  1  0
 20 37  1  0
 20 38  1  0
 21 39  1  0
 21 40  1  0
 22 41  1  0
 22 42  1  0
M  END
>  <Score>  (1) 
-7.33909

$$$$
