
     RDKit          3D

 47 51  0  0  1  0  0  0  0  0999 V2000
   60.3420   58.9290   24.3110 C   0  0  0  0  0  0  0  0  0  0  0  0
   60.1420   58.2980   23.0970 C   0  0  0  0  0  0  0  0  0  0  0  0
   59.0610   58.7450   22.4410 N   0  0  0  0  0  0  0  0  0  0  0  0
   58.5500   59.6900   23.2540 C   0  0  0  0  0  0  0  0  0  0  0  0
   57.4000   60.4530   23.0010 C   0  0  0  0  0  0  0  0  0  0  0  0
   57.0050   61.3820   23.9350 C   0  0  0  0  0  0  0  0  0  0  0  0
   57.7590   61.5310   25.0930 C   0  0  0  0  0  0  0  0  0  0  0  0
   58.8820   60.7750   25.3240 C   0  0  0  0  0  0  0  0  0  0  0  0
   59.3050   59.8280   24.4010 C   0  0  0  0  0  0  0  0  0  0  0  0
   59.5470   61.0560   26.5390 N   0  0  0  0  0  0  0  0  0  0  0  0
   60.5130   60.5220   27.3290 C   0  0  0  0  0  0  0  0  0  0  0  0
   60.6900   61.3000   28.4130 N   0  0  0  0  0  0  0  0  0  0  0  0
   59.8460   62.3530   28.3530 C   0  0  0  0  0  0  0  0  0  0  0  0
   59.7030   63.3840   29.2560 C   0  0  0  0  0  0  0  0  0  0  0  0
   60.4100   63.4210   30.2950 O   0  0  0  0  0  0  0  0  0  0  0  0
   58.7870   64.3270   28.9750 N   0  0  0  0  0  0  0  0  0  0  0  0
   58.0770   64.2050   27.8420 C   0  0  0  0  0  0  0  0  0  0  0  0
   57.1110   65.2160   27.5640 N   0  0  0  0  0  0  0  0  0  0  0  0
   58.2200   63.1990   26.9640 N   0  0  0  0  0  0  0  0  0  0  0  0
   59.1240   62.1970   27.1660 C   0  0  0  0  0  0  0  0  0  0  0  0
   61.3270   58.8050   25.3610 C   0  0  0  0  0  0  0  0  0  0  0  0
   61.2930   57.5600   26.1830 C   0  0  2  0  0  0  0  0  0  0  0  0
   64.9220   57.1490   27.2220 C   0  0  0  0  0  0  0  0  0  0  0  0
   63.8060   57.2900   26.3940 C   0  0  0  0  0  0  0  0  0  0  0  0
   62.5380   57.4090   26.9970 C   0  0  0  0  0  0  0  0  0  0  0  0
   62.4980   57.3750   28.3520 N   0  0  0  0  0  0  0  0  0  0  0  0
   63.6000   57.2380   29.1160 C   0  0  0  0  0  0  0  0  0  0  0  0
   64.8010   57.1250   28.5570 N   0  0  0  0  0  0  0  0  0  0  0  0
   61.1740   56.3110   25.3130 C   0  0  0  0  0  0  0  0  0  0  0  0
   60.8028   57.5091   22.7085 H   0  0  0  0  0  0  0  0  0  0  0  0
   58.7035   58.4366   21.5256 H   0  0  0  0  0  0  0  0  0  0  0  0
   56.8256   60.3109   22.0737 H   0  0  0  0  0  0  0  0  0  0  0  0
   56.1079   61.9964   23.7684 H   0  0  0  0  0  0  0  0  0  0  0  0
   57.4485   62.2731   25.8433 H   0  0  0  0  0  0  0  0  0  0  0  0
   61.0664   59.5955   27.1160 H   0  0  0  0  0  0  0  0  0  0  0  0
   58.6339   65.1219   29.6119 H   0  0  0  0  0  0  0  0  0  0  0  0
   56.5430   65.1637   26.7063 H   0  0  0  0  0  0  0  0  0  0  0  0
   56.9811   65.9987   28.2208 H   0  0  0  0  0  0  0  0  0  0  0  0
   62.3202   58.8652   24.8921 H   0  0  0  0  0  0  0  0  0  0  0  0
   61.0947   59.6170   26.0657 H   0  0  0  0  0  0  0  0  0  0  0  0
   60.4126   57.6560   26.8355 H   0  0  0  0  0  0  0  0  0  0  0  0
   65.9203   57.0558   26.7696 H   0  0  0  0  0  0  0  0  0  0  0  0
   63.9142   57.3077   25.2995 H   0  0  0  0  0  0  0  0  0  0  0  0
   63.5048   57.2195   30.2117 H   0  0  0  0  0  0  0  0  0  0  0  0
   61.0894   55.4228   25.9563 H   0  0  0  0  0  0  0  0  0  0  0  0
   60.2794   56.3904   24.6779 H   0  0  0  0  0  0  0  0  0  0  0  0
   62.0675   56.2200   24.6779 H   0  0  0  0  0  0  0  0  0  0  0  0
  1  9  1  0
  1 21  1  0
  2  1  2  0
  3  2  1  0
  3  4  1  0
  4  9  2  0
  5  4  1  0
  5  6  2  0
  6  7  1  0
  7  8  2  0
  8 10  1  0
  9  8  1  0
 10 20  1  0
 10 11  1  0
 11 12  2  0
 13 12  1  0
 13 14  1  0
 14 15  2  0
 16 14  1  0
 17 16  1  0
 18 17  1  0
 19 20  1  0
 19 17  2  0
 20 13  2  0
 21 22  1  0
 22 25  1  0
 23 28  2  0
 24 25  2  0
 24 23  1  0
 25 26  1  0
 26 27  2  0
 28 27  1  0
 29 22  1  0
  2 30  1  0
  3 31  1  0
  5 32  1  0
  6 33  1  0
  7 34  1  0
 11 35  1  0
 16 36  1  0
 18 37  1  0
 18 38  1  0
 21 39  1  0
 21 40  1  0
 22 41  1  1
 23 42  1  0
 24 43  1  0
 27 44  1  0
 29 45  1  0
 29 46  1  0
 29 47  1  0
M  END
>  <Score>  (1) 
-7.02156

$$$$
