
     RDKit          3D

 49 53  0  0  1  0  0  0  0  0999 V2000
   62.1310   55.9290   25.9710 C   0  0  0  0  0  0  0  0  0  0  0  0
   60.8970   56.6880   25.6460 C   0  0  0  0  0  0  0  0  0  0  0  0
   60.7830   58.0830   25.7280 C   0  0  0  0  0  0  0  0  0  0  0  0
   59.5630   58.6450   25.3900 C   0  0  0  0  0  0  0  0  0  0  0  0
   58.5580   57.8470   25.0050 N   0  0  0  0  0  0  0  0  0  0  0  0
   58.6760   56.5210   24.9300 C   0  0  0  0  0  0  0  0  0  0  0  0
   59.8640   55.9410   25.2550 N   0  0  0  0  0  0  0  0  0  0  0  0
   57.5440   55.7660   24.5080 N   0  0  0  0  0  0  0  0  0  0  0  0
   57.0850   54.6470   25.0950 C   0  0  0  0  0  0  0  0  0  0  0  0
   55.9900   54.2160   24.4070 N   0  0  0  0  0  0  0  0  0  0  0  0
   55.7930   55.0710   23.4130 C   0  0  0  0  0  0  0  0  0  0  0  0
   54.8880   55.2090   22.3820 C   0  0  0  0  0  0  0  0  0  0  0  0
   54.8810   56.1920   21.4570 N   0  0  0  0  0  0  0  0  0  0  0  0
   55.8570   57.1430   21.5400 C   0  0  0  0  0  0  0  0  0  0  0  0
   56.7610   57.0470   22.5310 N   0  0  0  0  0  0  0  0  0  0  0  0
   56.7540   56.0710   23.4360 C   0  0  0  0  0  0  0  0  0  0  0  0
   53.8450   54.2510   22.2370 N   0  0  0  0  0  0  0  0  0  0  0  0
   62.1400   55.7580   27.4900 C   0  0  0  0  0  0  0  0  0  0  0  0
   63.2860   56.3980   28.0990 N   0  0  0  0  0  0  0  0  0  0  0  0
   64.1450   57.1270   27.3760 C   0  0  0  0  0  0  0  0  0  0  0  0
   65.1570   57.4850   28.1500 N   0  0  0  0  0  0  0  0  0  0  0  0
   64.7710   57.2670   29.4300 C   0  0  2  0  0  0  0  0  0  0  0  0
   63.6030   56.6010   29.3670 N   0  0  0  0  0  0  0  0  0  0  0  0
   65.2120   57.5190   30.8240 C   0  0  0  0  0  0  0  0  0  0  0  0
   64.4870   58.1560   31.7950 C   0  0  0  0  0  0  0  0  0  0  0  0
   65.0460   58.3070   33.0400 C   0  0  0  0  0  0  0  0  0  0  0  0
   66.3080   57.8190   33.2740 C   0  0  0  0  0  0  0  0  0  0  0  0
   67.0600   57.1720   32.3090 C   0  0  0  0  0  0  0  0  0  0  0  0
   66.4900   57.0190   31.0420 C   0  0  0  0  0  0  0  0  0  0  0  0
   63.0199   56.4891   25.6452 H   0  0  0  0  0  0  0  0  0  0  0  0
   62.1494   54.9559   25.4583 H   0  0  0  0  0  0  0  0  0  0  0  0
   61.6301   58.7073   26.0485 H   0  0  0  0  0  0  0  0  0  0  0  0
   59.4208   59.7347   25.4372 H   0  0  0  0  0  0  0  0  0  0  0  0
   57.5197   54.1612   25.9810 H   0  0  0  0  0  0  0  0  0  0  0  0
   55.9028   57.9679   20.8138 H   0  0  0  0  0  0  0  0  0  0  0  0
   53.1632   54.3440   21.4706 H   0  0  0  0  0  0  0  0  0  0  0  0
   53.7721   53.4649   22.8985 H   0  0  0  0  0  0  0  0  0  0  0  0
   61.2229   56.2032   27.9033 H   0  0  0  0  0  0  0  0  0  0  0  0
   62.1934   54.6818   27.7113 H   0  0  0  0  0  0  0  0  0  0  0  0
   64.5187   56.5286   26.5320 H   0  0  0  0  0  0  0  0  0  0  0  0
   63.6388   58.0218   26.9847 H   0  0  0  0  0  0  0  0  0  0  0  0
   65.9887   56.9188   27.9297 H   0  0  0  0  0  0  0  0  0  0  0  0
   65.3144   56.3106   29.4310 H   0  0  0  0  0  0  0  0  0  0  0  0
   62.8646   57.1566   29.8220 H   0  0  0  0  0  0  0  0  0  0  0  0
   63.4779   58.5388   31.5823 H   0  0  0  0  0  0  0  0  0  0  0  0
   64.4886   58.8137   33.8417 H   0  0  0  0  0  0  0  0  0  0  0  0
   66.7420   57.9485   34.2764 H   0  0  0  0  0  0  0  0  0  0  0  0
   68.0683   56.7924   32.5308 H   0  0  0  0  0  0  0  0  0  0  0  0
   67.0411   56.5138   30.2351 H   0  0  0  0  0  0  0  0  0  0  0  0
  1 18  1  0
  2  3  2  0
  2  1  1  0
  4  3  1  0
  5  4  2  0
  6  5  1  0
  6  7  2  0
  7  2  1  0
  8  6  1  0
  8  9  1  0
 10  9  2  0
 11 16  2  0
 11 10  1  0
 12 11  1  0
 13 14  1  0
 13 12  2  0
 14 15  2  0
 15 16  1  0
 16  8  1  0
 17 12  1  0
 18 19  1  0
 19 23  1  0
 20 19  1  0
 20 21  1  0
 21 22  1  0
 22 24  1  0
 23 22  1  0
 24 29  1  0
 24 25  2  0
 25 26  1  0
 26 27  2  0
 28 27  1  0
 29 28  2  0
  1 30  1  0
  1 31  1  0
  3 32  1  0
  4 33  1  0
  9 34  1  0
 14 35  1  0
 17 36  1  0
 17 37  1  0
 18 38  1  0
 18 39  1  0
 20 40  1  0
 20 41  1  0
 21 42  1  0
 22 43  1  1
 23 44  1  0
 25 45  1  0
 26 46  1  0
 27 47  1  0
 28 48  1  0
 29 49  1  0
M  END
>  <Score>  (1) 
-7.4635

$$$$
