
     RDKit          3D

 38 41  0  0  1  0  0  0  0  0999 V2000
   61.0790   58.4810   26.7060 C   0  0  0  0  0  0  0  0  0  0  0  0
   60.3530   59.6630   26.8950 C   0  0  0  0  0  0  0  0  0  0  0  0
   60.5310   60.3240   28.1130 C   0  0  0  0  0  0  0  0  0  0  0  0
   61.3900   59.7870   29.0390 N   0  0  0  0  0  0  0  0  0  0  0  0
   62.0570   58.6570   28.8060 C   0  0  0  0  0  0  0  0  0  0  0  0
   61.8980   58.0140   27.6470 N   0  0  0  0  0  0  0  0  0  0  0  0
   62.9310   58.1390   29.7890 N   0  0  0  0  0  0  0  0  0  0  0  0
   63.8670   57.1190   29.4610 C   0  0  0  0  0  0  0  0  0  0  0  0
   63.5410   56.3500   28.4680 N   0  0  0  0  0  0  0  0  0  0  0  0
   65.0520   57.0540   30.2530 N   0  0  0  0  0  0  0  0  0  0  0  0
   64.1050   55.5690   28.1310 H   0  0  0  0  0  0  0  0  0  0  0  0
   59.7720   61.5880   28.3760 C   0  0  2  0  0  0  0  0  0  0  0  0
   60.4890   62.7690   28.9830 C   0  0  0  0  0  0  0  0  0  0  0  0
   59.4240   61.9640   29.7480 C   0  0  1  0  0  0  0  0  0  0  0  0
   58.1570   62.5830   29.9870 N   0  0  0  0  0  0  0  0  0  0  0  0
   57.3410   62.2960   30.9940 C   0  0  0  0  0  0  0  0  0  0  0  0
   56.2220   63.0720   30.9210 N   0  0  0  0  0  0  0  0  0  0  0  0
   56.3390   63.8730   29.8290 C   0  0  0  0  0  0  0  0  0  0  0  0
   55.5350   64.8400   29.2680 C   0  0  0  0  0  0  0  0  0  0  0  0
   55.9400   65.4770   28.1520 N   0  0  0  0  0  0  0  0  0  0  0  0
   57.1210   65.1730   27.5900 C   0  0  0  0  0  0  0  0  0  0  0  0
   57.8780   64.2250   28.1660 N   0  0  0  0  0  0  0  0  0  0  0  0
   57.5490   63.5470   29.2710 C   0  0  0  0  0  0  0  0  0  0  0  0
   60.8880   57.7700   25.3850 C   0  0  0  0  0  0  0  0  0  0  0  0
   59.6290   57.3550   25.1700 F   0  0  0  0  0  0  0  0  0  0  0  0
   61.2790   58.6930   24.3850 F   0  0  0  0  0  0  0  0  0  0  0  0
   61.8270   56.7380   25.2770 F   0  0  0  0  0  0  0  0  0  0  0  0
   59.6748   60.0527   26.1215 H   0  0  0  0  0  0  0  0  0  0  0  0
   62.8898   58.5034   30.7515 H   0  0  0  0  0  0  0  0  0  0  0  0
   65.7628   56.3345   30.0582 H   0  0  0  0  0  0  0  0  0  0  0  0
   65.1966   57.7266   31.0196 H   0  0  0  0  0  0  0  0  0  0  0  0
   59.1851   61.4340   27.4585 H   0  0  0  0  0  0  0  0  0  0  0  0
   61.5506   62.6933   29.2610 H   0  0  0  0  0  0  0  0  0  0  0  0
   60.6443   63.8247   28.7160 H   0  0  0  0  0  0  0  0  0  0  0  0
   59.3906   61.4327   30.7106 H   0  0  0  0  0  0  0  0  0  0  0  0
   57.5382   61.5438   31.7720 H   0  0  0  0  0  0  0  0  0  0  0  0
   54.5679   65.0909   29.7282 H   0  0  0  0  0  0  0  0  0  0  0  0
   57.4604   65.6883   26.6793 H   0  0  0  0  0  0  0  0  0  0  0  0
  1  2  2  0
  1  6  1  0
  2  3  1  0
  3 12  1  0
  3  4  2  0
  5  4  1  0
  5  7  1  0
  6  5  2  0
  8  7  1  0
  8 10  1  0
  9  8  2  0
 11  9  1  0
 12 13  1  0
 12 14  1  0
 13 14  1  0
 14 15  1  0
 15 16  1  0
 17 16  2  0
 18 17  1  0
 19 18  2  0
 20 19  1  0
 21 20  2  0
 21 22  1  0
 22 23  2  0
 23 18  1  0
 23 15  1  0
 24  1  1  0
 25 24  1  0
 26 24  1  0
 27 24  1  0
  2 28  1  0
  7 29  1  0
 10 30  1  0
 10 31  1  0
 12 32  1  6
 13 33  1  0
 13 34  1  0
 14 35  1  1
 16 36  1  0
 19 37  1  0
 21 38  1  0
M  END
>  <Score>  (1) 
-7.16518

$$$$
