
     RDKit          3D

 48 53  0  0  0  0  0  0  0  0999 V2000
   61.5290   56.8980   26.7430 C   0  0  0  0  0  0  0  0  0  0  0  0
   61.1270   55.8110   26.3080 O   0  0  0  0  0  0  0  0  0  0  0  0
   65.2820   56.8640   26.6970 C   0  0  0  0  0  0  0  0  0  0  0  0
   63.9370   56.7220   26.2890 C   0  0  0  0  0  0  0  0  0  0  0  0
   62.9140   57.0350   27.1430 C   0  0  0  0  0  0  0  0  0  0  0  0
   63.2340   57.4820   28.3800 N   0  0  0  0  0  0  0  0  0  0  0  0
   64.5430   57.6120   28.7600 C   0  0  0  0  0  0  0  0  0  0  0  0
   65.5410   57.3170   27.9590 N   0  0  0  0  0  0  0  0  0  0  0  0
   64.7020   58.0980   30.1110 N   0  0  0  0  0  0  0  0  0  0  0  0
   64.3320   57.6560   31.3450 C   0  0  0  0  0  0  0  0  0  0  0  0
   64.7810   58.5680   32.2300 N   0  0  0  0  0  0  0  0  0  0  0  0
   65.4150   59.5640   31.5920 C   0  0  0  0  0  0  0  0  0  0  0  0
   66.0260   60.6970   32.1010 C   0  0  0  0  0  0  0  0  0  0  0  0
   66.0530   60.9380   33.3380 O   0  0  0  0  0  0  0  0  0  0  0  0
   66.6090   61.5690   31.2590 N   0  0  0  0  0  0  0  0  0  0  0  0
   66.5620   61.2850   29.9590 C   0  0  0  0  0  0  0  0  0  0  0  0
   67.1450   62.1310   28.9460 N   0  0  0  0  0  0  0  0  0  0  0  0
   65.9710   60.1860   29.4590 N   0  0  0  0  0  0  0  0  0  0  0  0
   65.3680   59.2660   30.2290 C   0  0  0  0  0  0  0  0  0  0  0  0
   60.6880   58.0190   26.8690 O   0  0  0  0  0  0  0  0  0  0  0  0
   60.3110   58.6520   25.6790 C   0  0  0  0  0  0  0  0  0  0  0  0
   61.1610   59.2350   24.7340 C   0  0  0  0  0  0  0  0  0  0  0  0
   60.3850   59.7550   23.6990 C   0  0  0  0  0  0  0  0  0  0  0  0
   59.0880   59.4570   24.0720 C   0  0  0  0  0  0  0  0  0  0  0  0
   59.1050   58.8310   25.2050 O   0  0  0  0  0  0  0  0  0  0  0  0
   57.9270   59.8240   23.2650 C   0  0  0  0  0  0  0  0  0  0  0  0
   57.2750   59.0760   22.3030 C   0  0  0  0  0  0  0  0  0  0  0  0
   56.2630   59.7830   21.8060 N   0  0  0  0  0  0  0  0  0  0  0  0
   56.2100   60.9750   22.3970 C   0  0  0  0  0  0  0  0  0  0  0  0
   55.3360   62.0100   22.1960 C   0  0  0  0  0  0  0  0  0  0  0  0
   55.5370   63.1500   22.9800 C   0  0  0  0  0  0  0  0  0  0  0  0
   56.5490   63.2770   23.9200 C   0  0  0  0  0  0  0  0  0  0  0  0
   57.3880   62.1940   24.0660 C   0  0  0  0  0  0  0  0  0  0  0  0
   57.2490   61.0340   23.3280 C   0  0  0  0  0  0  0  0  0  0  0  0
   66.1050   56.6144   26.0112 H   0  0  0  0  0  0  0  0  0  0  0  0
   63.7099   56.3568   25.2765 H   0  0  0  0  0  0  0  0  0  0  0  0
   63.7757   56.7352   31.5744 H   0  0  0  0  0  0  0  0  0  0  0  0
   67.0725   62.4210   31.6055 H   0  0  0  0  0  0  0  0  0  0  0  0
   67.0805   61.8648   27.9531 H   0  0  0  0  0  0  0  0  0  0  0  0
   67.6257   63.0011   29.2158 H   0  0  0  0  0  0  0  0  0  0  0  0
   62.2584   59.2764   24.7967 H   0  0  0  0  0  0  0  0  0  0  0  0
   60.7260   60.2807   22.7949 H   0  0  0  0  0  0  0  0  0  0  0  0
   57.5496   58.0560   21.9962 H   0  0  0  0  0  0  0  0  0  0  0  0
   55.6169   59.4567   21.0732 H   0  0  0  0  0  0  0  0  0  0  0  0
   54.5216   61.9479   21.4591 H   0  0  0  0  0  0  0  0  0  0  0  0
   54.8504   63.9984   22.8429 H   0  0  0  0  0  0  0  0  0  0  0  0
   56.6749   64.1926   24.5165 H   0  0  0  0  0  0  0  0  0  0  0  0
   58.2035   62.2553   24.8016 H   0  0  0  0  0  0  0  0  0  0  0  0
  1 20  1  0
  1  5  1  0
  2  1  2  0
  3  8  2  0
  4  3  1  0
  4  5  2  0
  5  6  1  0
  6  7  2  0
  7  9  1  0
  8  7  1  0
  9 19  1  0
  9 10  1  0
 10 11  2  0
 12 13  1  0
 12 11  1  0
 13 14  2  0
 15 13  1  0
 16 15  1  0
 17 16  1  0
 18 16  2  0
 18 19  1  0
 19 12  2  0
 21 20  1  0
 22 21  2  0
 23 24  2  0
 23 22  1  0
 24 25  1  0
 25 21  1  0
 26 34  1  0
 26 24  1  0
 27 26  2  0
 28 27  1  0
 28 29  1  0
 29 34  2  0
 30 29  1  0
 30 31  2  0
 31 32  1  0
 32 33  2  0
 34 33  1  0
  3 35  1  0
  4 36  1  0
 10 37  1  0
 15 38  1  0
 17 39  1  0
 17 40  1  0
 22 41  1  0
 23 42  1  0
 27 43  1  0
 28 44  1  0
 30 45  1  0
 31 46  1  0
 32 47  1  0
 33 48  1  0
M  END
>  <Score>  (1) 
-7.02474

$$$$
