
     RDKit          3D

 47 51  0  0  1  0  0  0  0  0999 V2000
   62.0680   55.9980   27.4580 C   0  0  0  0  0  0  0  0  0  0  0  0
   63.2500   56.5380   28.0880 N   0  0  0  0  0  0  0  0  0  0  0  0
   64.2330   57.0870   27.3590 C   0  0  0  0  0  0  0  0  0  0  0  0
   65.2570   57.3650   28.1490 N   0  0  0  0  0  0  0  0  0  0  0  0
   64.8220   57.2390   29.4240 C   0  0  2  0  0  0  0  0  0  0  0  0
   63.5830   56.7000   29.3580 N   0  0  0  0  0  0  0  0  0  0  0  0
   65.2510   57.4900   30.8220 C   0  0  0  0  0  0  0  0  0  0  0  0
   64.5190   58.1240   31.7850 C   0  0  0  0  0  0  0  0  0  0  0  0
   65.0550   58.2830   33.0420 C   0  0  0  0  0  0  0  0  0  0  0  0
   66.3330   57.7860   33.2800 C   0  0  0  0  0  0  0  0  0  0  0  0
   67.0920   57.1400   32.3190 C   0  0  0  0  0  0  0  0  0  0  0  0
   66.5190   56.9940   31.0490 C   0  0  0  0  0  0  0  0  0  0  0  0
   62.1600   55.9860   25.9480 C   0  0  0  0  0  0  0  0  0  0  0  0
   61.2350   57.0430   25.4410 C   0  0  0  0  0  0  0  0  0  0  0  0
   61.4010   58.4230   25.6300 C   0  0  0  0  0  0  0  0  0  0  0  0
   60.4370   59.2560   25.0850 C   0  0  0  0  0  0  0  0  0  0  0  0
   59.4090   58.7170   24.4160 N   0  0  0  0  0  0  0  0  0  0  0  0
   59.2690   57.4030   24.2490 C   0  0  0  0  0  0  0  0  0  0  0  0
   60.1960   56.5500   24.7690 N   0  0  0  0  0  0  0  0  0  0  0  0
   58.1240   56.9840   23.5140 N   0  0  0  0  0  0  0  0  0  0  0  0
   56.9660   57.6520   23.6770 C   0  0  0  0  0  0  0  0  0  0  0  0
   55.9910   57.1270   22.9140 N   0  0  0  0  0  0  0  0  0  0  0  0
   56.5250   56.0970   22.2400 C   0  0  0  0  0  0  0  0  0  0  0  0
   56.1210   55.1420   21.3130 C   0  0  0  0  0  0  0  0  0  0  0  0
   56.9940   54.2300   20.8510 N   0  0  0  0  0  0  0  0  0  0  0  0
   58.2800   54.2100   21.2680 C   0  0  0  0  0  0  0  0  0  0  0  0
   58.7570   55.1070   22.1730 N   0  0  0  0  0  0  0  0  0  0  0  0
   57.8500   56.0160   22.6200 C   0  0  0  0  0  0  0  0  0  0  0  0
   61.9234   54.9656   27.8092 H   0  0  0  0  0  0  0  0  0  0  0  0
   61.2222   56.6455   27.7324 H   0  0  0  0  0  0  0  0  0  0  0  0
   64.5515   56.3798   26.5789 H   0  0  0  0  0  0  0  0  0  0  0  0
   63.8700   58.0111   26.8854 H   0  0  0  0  0  0  0  0  0  0  0  0
   66.0286   56.7060   27.9723 H   0  0  0  0  0  0  0  0  0  0  0  0
   65.2557   56.2293   29.4722 H   0  0  0  0  0  0  0  0  0  0  0  0
   62.9078   57.3299   29.8142 H   0  0  0  0  0  0  0  0  0  0  0  0
   63.5118   58.5034   31.5580 H   0  0  0  0  0  0  0  0  0  0  0  0
   64.4887   58.7893   33.8376 H   0  0  0  0  0  0  0  0  0  0  0  0
   66.7627   57.9131   34.2846 H   0  0  0  0  0  0  0  0  0  0  0  0
   68.0993   56.7587   32.5426 H   0  0  0  0  0  0  0  0  0  0  0  0
   67.0726   56.4904   30.2428 H   0  0  0  0  0  0  0  0  0  0  0  0
   63.1907   56.2037   25.6315 H   0  0  0  0  0  0  0  0  0  0  0  0
   61.8828   54.9996   25.5477 H   0  0  0  0  0  0  0  0  0  0  0  0
   62.2595   58.8266   26.1869 H   0  0  0  0  0  0  0  0  0  0  0  0
   60.5149   60.3472   25.2003 H   0  0  0  0  0  0  0  0  0  0  0  0
   56.8348   58.5146   24.3469 H   0  0  0  0  0  0  0  0  0  0  0  0
   55.0807   55.1329   20.9557 H   0  0  0  0  0  0  0  0  0  0  0  0
   58.9605   53.4462   20.8637 H   0  0  0  0  0  0  0  0  0  0  0  0
  1  2  1  0
  2  6  1  0
  3  2  1  0
  3  4  1  0
  4  5  1  0
  5  7  1  0
  6  5  1  0
  7 12  1  0
  7  8  2  0
  8  9  1  0
  9 10  2  0
 11 10  1  0
 12 11  2  0
 13  1  1  0
 14 15  2  0
 14 13  1  0
 16 15  1  0
 17 16  2  0
 18 17  1  0
 18 19  2  0
 19 14  1  0
 20 21  1  0
 20 18  1  0
 22 21  2  0
 23 28  2  0
 23 22  1  0
 24 23  1  0
 25 26  1  0
 25 24  2  0
 26 27  2  0
 27 28  1  0
 28 20  1  0
  1 29  1  0
  1 30  1  0
  3 31  1  0
  3 32  1  0
  4 33  1  0
  5 34  1  1
  6 35  1  0
  8 36  1  0
  9 37  1  0
 10 38  1  0
 11 39  1  0
 12 40  1  0
 13 41  1  0
 13 42  1  0
 15 43  1  0
 16 44  1  0
 21 45  1  0
 24 46  1  0
 26 47  1  0
M  END
>  <Score>  (1) 
-7.50566

$$$$
