
     RDKit          3D

 49 52  0  0  1  0  0  0  0  0999 V2000
   62.0880   55.8390   27.4450 C   0  0  0  0  0  0  0  0  0  0  0  0
   63.2380   56.4790   28.0560 N   0  0  0  0  0  0  0  0  0  0  0  0
   64.1450   57.1190   27.3260 C   0  0  0  0  0  0  0  0  0  0  0  0
   65.1660   57.4580   28.1000 N   0  0  0  0  0  0  0  0  0  0  0  0
   64.7680   57.2610   29.3820 C   0  0  2  0  0  0  0  0  0  0  0  0
   63.5710   56.6490   29.3220 N   0  0  0  0  0  0  0  0  0  0  0  0
   65.2180   57.4990   30.7750 C   0  0  0  0  0  0  0  0  0  0  0  0
   64.4880   58.1330   31.7540 C   0  0  0  0  0  0  0  0  0  0  0  0
   65.0370   58.2790   33.0030 C   0  0  0  0  0  0  0  0  0  0  0  0
   66.3070   57.7840   33.2340 C   0  0  0  0  0  0  0  0  0  0  0  0
   67.0480   57.1500   32.2670 C   0  0  0  0  0  0  0  0  0  0  0  0
   66.4860   57.0000   30.9900 C   0  0  0  0  0  0  0  0  0  0  0  0
   62.1090   55.9520   25.9340 C   0  0  0  0  0  0  0  0  0  0  0  0
   60.9790   56.8620   25.5510 C   0  0  0  0  0  0  0  0  0  0  0  0
   61.1180   58.2330   25.3310 C   0  0  0  0  0  0  0  0  0  0  0  0
   59.9610   58.9070   24.9850 C   0  0  0  0  0  0  0  0  0  0  0  0
   58.7930   58.2510   24.8760 N   0  0  0  0  0  0  0  0  0  0  0  0
   58.6860   56.9390   25.0900 C   0  0  0  0  0  0  0  0  0  0  0  0
   59.8090   56.2470   25.4330 N   0  0  0  0  0  0  0  0  0  0  0  0
   57.4470   56.2430   24.9730 N   0  0  0  0  0  0  0  0  0  0  0  0
   56.9820   55.2670   25.9440 C   0  0  0  0  0  0  0  0  0  0  0  0
   56.6510   54.0200   25.1320 C   0  0  0  0  0  0  0  0  0  0  0  0
   55.9070   54.3000   24.0140 O   0  0  0  0  0  0  0  0  0  0  0  0
   56.4710   55.1750   23.1180 C   0  0  0  0  0  0  0  0  0  0  0  0
   56.6070   56.5250   23.8210 C   0  0  0  0  0  0  0  0  0  0  0  0
   62.0863   54.7742   27.7211 H   0  0  0  0  0  0  0  0  0  0  0  0
   61.1835   56.3474   27.8103 H   0  0  0  0  0  0  0  0  0  0  0  0
   64.4981   56.4612   26.5181 H   0  0  0  0  0  0  0  0  0  0  0  0
   63.6966   58.0230   26.8882 H   0  0  0  0  0  0  0  0  0  0  0  0
   65.9832   56.8680   27.8877 H   0  0  0  0  0  0  0  0  0  0  0  0
   65.2695   56.2820   29.3873 H   0  0  0  0  0  0  0  0  0  0  0  0
   62.8618   57.2309   29.7904 H   0  0  0  0  0  0  0  0  0  0  0  0
   63.4799   58.5169   31.5387 H   0  0  0  0  0  0  0  0  0  0  0  0
   64.4769   58.7807   33.8058 H   0  0  0  0  0  0  0  0  0  0  0  0
   66.7433   57.9032   34.2367 H   0  0  0  0  0  0  0  0  0  0  0  0
   68.0562   56.7695   32.4879 H   0  0  0  0  0  0  0  0  0  0  0  0
   67.0408   56.4987   30.1832 H   0  0  0  0  0  0  0  0  0  0  0  0
   63.0670   56.3765   25.5994 H   0  0  0  0  0  0  0  0  0  0  0  0
   61.9971   54.9643   25.4630 H   0  0  0  0  0  0  0  0  0  0  0  0
   62.0867   58.7453   25.4267 H   0  0  0  0  0  0  0  0  0  0  0  0
   59.9970   59.9903   24.7972 H   0  0  0  0  0  0  0  0  0  0  0  0
   57.7701   55.0498   26.6801 H   0  0  0  0  0  0  0  0  0  0  0  0
   56.1116   55.6322   26.5089 H   0  0  0  0  0  0  0  0  0  0  0  0
   57.5918   53.5437   24.8188 H   0  0  0  0  0  0  0  0  0  0  0  0
   56.0527   53.3550   25.7721 H   0  0  0  0  0  0  0  0  0  0  0  0
   55.8252   55.2753   22.2332 H   0  0  0  0  0  0  0  0  0  0  0  0
   57.4537   54.8099   22.7849 H   0  0  0  0  0  0  0  0  0  0  0  0
   57.0857   57.2627   23.1602 H   0  0  0  0  0  0  0  0  0  0  0  0
   55.6340   56.9534   24.1033 H   0  0  0  0  0  0  0  0  0  0  0  0
  1  2  1  0
  2  6  1  0
  3  2  1  0
  3  4  1  0
  4  5  1  0
  5  7  1  0
  6  5  1  0
  7 12  1  0
  7  8  2  0
  8  9  1  0
  9 10  2  0
 11 10  1  0
 12 11  2  0
 13  1  1  0
 14 13  1  0
 15 14  2  0
 16 15  1  0
 17 16  2  0
 17 18  1  0
 18 19  2  0
 19 14  1  0
 20 18  1  0
 20 21  1  0
 22 21  1  0
 23 22  1  0
 24 25  1  0
 24 23  1  0
 25 20  1  0
  1 26  1  0
  1 27  1  0
  3 28  1  0
  3 29  1  0
  4 30  1  0
  5 31  1  1
  6 32  1  0
  8 33  1  0
  9 34  1  0
 10 35  1  0
 11 36  1  0
 12 37  1  0
 13 38  1  0
 13 39  1  0
 15 40  1  0
 16 41  1  0
 21 42  1  0
 21 43  1  0
 22 44  1  0
 22 45  1  0
 24 46  1  0
 24 47  1  0
 25 48  1  0
 25 49  1  0
M  END
>  <Score>  (1) 
-7.18274

$$$$
