
     RDKit          3D

 34 37  0  0  0  0  0  0  0  0999 V2000
   61.4730   56.9220   26.1930 N   0  0  0  0  0  0  0  0  0  0  0  0
   61.0520   55.6410   26.1330 C   0  0  0  0  0  0  0  0  0  0  0  0
   59.8610   55.3690   25.4380 C   0  0  0  0  0  0  0  0  0  0  0  0
   59.1810   56.4160   24.8520 C   0  0  0  0  0  0  0  0  0  0  0  0
   58.0910   56.2290   24.2070 O   0  0  0  0  0  0  0  0  0  0  0  0
   59.6490   57.6730   24.9450 N   0  0  0  0  0  0  0  0  0  0  0  0
   60.7970   57.9170   25.6180 C   0  0  0  0  0  0  0  0  0  0  0  0
   61.2670   59.0950   25.7240 O   0  0  0  0  0  0  0  0  0  0  0  0
   58.9620   58.7690   24.3480 C   0  0  0  0  0  0  0  0  0  0  0  0
   58.3400   58.4720   23.1750 N   0  0  0  0  0  0  0  0  0  0  0  0
   57.6500   59.4090   22.4940 C   0  0  0  0  0  0  0  0  0  0  0  0
   57.5390   60.6930   22.9410 N   0  0  0  0  0  0  0  0  0  0  0  0
   58.1570   60.9990   24.1110 C   0  0  0  0  0  0  0  0  0  0  0  0
   58.1000   62.2810   24.6470 C   0  0  0  0  0  0  0  0  0  0  0  0
   58.7450   62.5610   25.8510 C   0  0  0  0  0  0  0  0  0  0  0  0
   59.4510   61.5800   26.5350 C   0  0  0  0  0  0  0  0  0  0  0  0
   59.5170   60.2840   26.0090 C   0  0  0  0  0  0  0  0  0  0  0  0
   58.8710   60.0620   24.8310 C   0  0  0  0  0  0  0  0  0  0  0  0
   63.8770   57.0300   26.1980 C   0  0  0  0  0  0  0  0  0  0  0  0
   62.6810   57.0770   26.9170 C   0  0  0  0  0  0  0  0  0  0  0  0
   62.7500   57.2730   28.3000 C   0  0  0  0  0  0  0  0  0  0  0  0
   63.9740   57.4100   28.8830 N   0  0  0  0  0  0  0  0  0  0  0  0
   65.1140   57.3600   28.1570 C   0  0  0  0  0  0  0  0  0  0  0  0
   65.0610   57.1690   26.8070 N   0  0  0  0  0  0  0  0  0  0  0  0
   61.6241   54.8338   26.6138 H   0  0  0  0  0  0  0  0  0  0  0  0
   59.4785   54.3404   25.3629 H   0  0  0  0  0  0  0  0  0  0  0  0
   57.1615   59.1295   21.5489 H   0  0  0  0  0  0  0  0  0  0  0  0
   57.5466   63.0733   24.1216 H   0  0  0  0  0  0  0  0  0  0  0  0
   58.6937   63.5780   26.2669 H   0  0  0  0  0  0  0  0  0  0  0  0
   59.9547   61.8194   27.4831 H   0  0  0  0  0  0  0  0  0  0  0  0
   60.0657   59.4817   26.5240 H   0  0  0  0  0  0  0  0  0  0  0  0
   63.8457   56.8757   25.1093 H   0  0  0  0  0  0  0  0  0  0  0  0
   61.8330   57.3158   28.9061 H   0  0  0  0  0  0  0  0  0  0  0  0
   66.0874   57.4737   28.6566 H   0  0  0  0  0  0  0  0  0  0  0  0
  1 20  1  0
  2  1  1  0
  3  2  2  0
  4  6  1  0
  4  3  1  0
  5  4  2  0
  6  7  1  0
  7  8  2  0
  7  1  1  0
  9 18  1  0
  9  6  1  0
 10  9  2  0
 11 12  2  0
 11 10  1  0
 12 13  1  0
 13 14  1  0
 13 18  2  0
 14 15  2  0
 15 16  1  0
 17 16  2  0
 18 17  1  0
 19 24  2  0
 19 20  1  0
 20 21  2  0
 21 22  1  0
 23 22  2  0
 24 23  1  0
  2 25  1  0
  3 26  1  0
 11 27  1  0
 14 28  1  0
 15 29  1  0
 16 30  1  0
 17 31  1  0
 19 32  1  0
 21 33  1  0
 23 34  1  0
M  END
>  <Score>  (1) 
-7.23327

$$$$
