
     RDKit          3D

 45 49  0  0  0  0  0  0  0  0999 V2000
   63.4930   56.9280   27.1240 C   0  0  0  0  0  0  0  0  0  0  0  0
   62.1800   57.4230   27.3370 C   0  0  0  0  0  0  0  0  0  0  0  0
   61.9770   58.1530   28.5070 C   0  0  0  0  0  0  0  0  0  0  0  0
   63.0010   58.3530   29.3600 N   0  0  0  0  0  0  0  0  0  0  0  0
   64.2330   57.8730   29.1350 C   0  0  0  0  0  0  0  0  0  0  0  0
   64.4770   57.1650   28.0240 N   0  0  0  0  0  0  0  0  0  0  0  0
   65.2900   58.1280   30.1010 C   0  0  0  0  0  0  0  0  0  0  0  0
   66.0610   57.0670   30.5600 C   0  0  0  0  0  0  0  0  0  0  0  0
   67.0680   57.3300   31.4850 C   0  0  0  0  0  0  0  0  0  0  0  0
   67.3070   58.5820   31.9390 N   0  0  0  0  0  0  0  0  0  0  0  0
   66.5290   59.5700   31.4570 C   0  0  0  0  0  0  0  0  0  0  0  0
   65.5270   59.3740   30.5520 N   0  0  0  0  0  0  0  0  0  0  0  0
   66.8270   60.8640   31.9700 N   0  0  0  0  0  0  0  0  0  0  0  0
   68.0400   60.9900   32.5670 C   0  0  0  0  0  0  0  0  0  0  0  0
   68.4080   62.2190   33.0930 C   0  0  0  0  0  0  0  0  0  0  0  0
   67.5500   63.3010   33.0100 C   0  0  0  0  0  0  0  0  0  0  0  0
   67.9640   64.5330   33.5590 N   0  0  0  0  0  0  0  0  0  0  0  0
   66.3730   63.1210   32.4130 N   0  0  0  0  0  0  0  0  0  0  0  0
   65.9940   61.9400   31.8970 C   0  0  0  0  0  0  0  0  0  0  0  0
   64.9030   61.7010   31.3230 O   0  0  0  0  0  0  0  0  0  0  0  0
   61.2610   57.0770   26.2830 C   0  0  0  0  0  0  0  0  0  0  0  0
   60.8400   55.7570   26.2750 C   0  0  0  0  0  0  0  0  0  0  0  0
   59.9660   55.2290   25.3540 C   0  0  0  0  0  0  0  0  0  0  0  0
   59.4700   56.0500   24.3700 C   0  0  0  0  0  0  0  0  0  0  0  0
   59.8670   57.3490   24.3550 C   0  0  0  0  0  0  0  0  0  0  0  0
   59.4180   58.2450   23.4030 C   0  0  0  0  0  0  0  0  0  0  0  0
   59.8110   59.5660   23.3740 C   0  0  0  0  0  0  0  0  0  0  0  0
   60.6920   60.0390   24.3270 C   0  0  0  0  0  0  0  0  0  0  0  0
   61.1690   59.1790   25.3010 C   0  0  0  0  0  0  0  0  0  0  0  0
   60.7390   57.8700   25.2780 C   0  0  0  0  0  0  0  0  0  0  0  0
   63.7140   56.3452   26.2176 H   0  0  0  0  0  0  0  0  0  0  0  0
   60.9826   58.5651   28.7337 H   0  0  0  0  0  0  0  0  0  0  0  0
   65.8800   56.0431   30.2010 H   0  0  0  0  0  0  0  0  0  0  0  0
   67.6851   56.4985   31.8562 H   0  0  0  0  0  0  0  0  0  0  0  0
   68.7214   60.1289   32.6325 H   0  0  0  0  0  0  0  0  0  0  0  0
   69.3880   62.3343   33.5792 H   0  0  0  0  0  0  0  0  0  0  0  0
   67.3431   65.3534   33.5098 H   0  0  0  0  0  0  0  0  0  0  0  0
   68.8871   64.6120   34.0090 H   0  0  0  0  0  0  0  0  0  0  0  0
   61.2302   55.0880   27.0561 H   0  0  0  0  0  0  0  0  0  0  0  0
   59.6699   54.1708   25.4039 H   0  0  0  0  0  0  0  0  0  0  0  0
   58.7696   55.6653   23.6141 H   0  0  0  0  0  0  0  0  0  0  0  0
   58.7162   57.8882   22.6347 H   0  0  0  0  0  0  0  0  0  0  0  0
   59.4248   60.2404   22.5955 H   0  0  0  0  0  0  0  0  0  0  0  0
   61.0121   61.0913   24.3120 H   0  0  0  0  0  0  0  0  0  0  0  0
   61.8712   59.5304   26.0713 H   0  0  0  0  0  0  0  0  0  0  0  0
  1  2  2  0
  1  6  1  0
  2  3  1  0
  3  4  2  0
  5  4  1  0
  5  7  1  0
  6  5  2  0
  7 12  1  0
  7  8  2  0
  8  9  1  0
  9 10  2  0
 11 10  1  0
 11 13  1  0
 12 11  2  0
 13 14  1  0
 14 15  2  0
 16 15  1  0
 16 17  1  0
 18 16  2  0
 19 13  1  0
 19 18  1  0
 20 19  2  0
 21  2  1  0
 22 21  2  0
 23 22  1  0
 24 23  2  0
 25 24  1  0
 25 30  2  0
 26 25  1  0
 27 26  2  0
 27 28  1  0
 28 29  2  0
 30 29  1  0
 30 21  1  0
  1 31  1  0
  3 32  1  0
  8 33  1  0
  9 34  1  0
 14 35  1  0
 15 36  1  0
 17 37  1  0
 17 38  1  0
 22 39  1  0
 23 40  1  0
 24 41  1  0
 26 42  1  0
 27 43  1  0
 28 44  1  0
 29 45  1  0
M  END
>  <Score>  (1) 
-7.63394

$$$$
