
     RDKit          3D

 41 45  0  0  1  0  0  0  0  0999 V2000
   64.4170   57.0850   26.8520 C   0  0  0  0  0  0  0  0  0  0  0  0
   63.0680   56.9100   27.1610 C   0  0  0  0  0  0  0  0  0  0  0  0
   62.6970   56.9500   28.5030 C   0  0  0  0  0  0  0  0  0  0  0  0
   63.6730   57.1590   29.4250 N   0  0  0  0  0  0  0  0  0  0  0  0
   64.9700   57.3270   29.1080 C   0  0  0  0  0  0  0  0  0  0  0  0
   65.3400   57.2880   27.8050 N   0  0  0  0  0  0  0  0  0  0  0  0
   65.7780   57.5220   30.2650 N   0  0  0  0  0  0  0  0  0  0  0  0
   66.3440   56.5280   30.9520 C   0  0  0  0  0  0  0  0  0  0  0  0
   67.0510   57.0260   31.9950 N   0  0  0  0  0  0  0  0  0  0  0  0
   66.9170   58.3730   31.9490 C   0  0  0  0  0  0  0  0  0  0  0  0
   67.3730   59.4300   32.6980 C   0  0  2  0  0  0  0  0  0  0  0  0
   67.0430   60.6910   32.3670 N   0  0  0  0  0  0  0  0  0  0  0  0
   66.2450   60.9310   31.2780 C   0  0  0  0  0  0  0  0  0  0  0  0
   65.7790   59.9110   30.5200 N   0  0  0  0  0  0  0  0  0  0  0  0
   66.1150   58.6740   30.8600 C   0  0  0  0  0  0  0  0  0  0  0  0
   65.7910   62.2240   30.7770 C   0  0  0  0  0  0  0  0  0  0  0  0
   64.6270   62.8440   31.2250 C   0  0  0  0  0  0  0  0  0  0  0  0
   64.1730   64.0520   30.7790 C   0  0  0  0  0  0  0  0  0  0  0  0
   64.8610   64.7520   29.8290 C   0  0  0  0  0  0  0  0  0  0  0  0
   66.0180   64.1980   29.3440 C   0  0  0  0  0  0  0  0  0  0  0  0
   66.7100   64.9050   28.3860 C   0  0  0  0  0  0  0  0  0  0  0  0
   67.8820   64.4140   27.8490 C   0  0  0  0  0  0  0  0  0  0  0  0
   68.3330   63.1830   28.3120 C   0  0  0  0  0  0  0  0  0  0  0  0
   67.5950   62.5270   29.2700 C   0  0  0  0  0  0  0  0  0  0  0  0
   66.4280   62.9790   29.8280 C   0  0  0  0  0  0  0  0  0  0  0  0
   68.1790   59.1060   33.8020 N   0  0  0  0  0  0  0  0  0  0  0  0
   64.7328   57.0558   25.7987 H   0  0  0  0  0  0  0  0  0  0  0  0
   62.3212   56.7457   26.3703 H   0  0  0  0  0  0  0  0  0  0  0  0
   61.6481   56.8167   28.8065 H   0  0  0  0  0  0  0  0  0  0  0  0
   66.2503   55.4597   30.7072 H   0  0  0  0  0  0  0  0  0  0  0  0
   66.4772   59.3663   33.3333 H   0  0  0  0  0  0  0  0  0  0  0  0
   65.1799   60.0906   29.7016 H   0  0  0  0  0  0  0  0  0  0  0  0
   64.0324   62.3246   31.9910 H   0  0  0  0  0  0  0  0  0  0  0  0
   63.2409   64.4670   31.1901 H   0  0  0  0  0  0  0  0  0  0  0  0
   64.4998   65.7255   29.4659 H   0  0  0  0  0  0  0  0  0  0  0  0
   66.3224   65.8759   28.0438 H   0  0  0  0  0  0  0  0  0  0  0  0
   68.4385   64.9750   27.0837 H   0  0  0  0  0  0  0  0  0  0  0  0
   69.2615   62.7423   27.9201 H   0  0  0  0  0  0  0  0  0  0  0  0
   67.9748   61.5552   29.6183 H   0  0  0  0  0  0  0  0  0  0  0  0
   67.6679   59.3115   34.6723 H   0  0  0  0  0  0  0  0  0  0  0  0
   68.4164   58.1042   33.7716 H   0  0  0  0  0  0  0  0  0  0  0  0
  1  2  2  0
  1  6  1  0
  2  3  1  0
  3  4  2  0
  5  4  1  0
  5  7  1  0
  6  5  2  0
  7 15  1  0
  7  8  1  0
  8  9  2  0
 10  9  1  0
 10 11  1  0
 11 26  1  0
 12 11  1  0
 13 12  2  0
 14 15  1  0
 14 13  1  0
 15 10  2  0
 16 17  2  0
 16 13  1  0
 18 17  1  0
 19 18  2  0
 20 25  2  0
 20 19  1  0
 21 20  1  0
 22 23  1  0
 22 21  2  0
 23 24  2  0
 24 25  1  0
 25 16  1  0
  1 27  1  0
  2 28  1  0
  3 29  1  0
  8 30  1  0
 11 31  1  1
 14 32  1  0
 17 33  1  0
 18 34  1  0
 19 35  1  0
 21 36  1  0
 22 37  1  0
 23 38  1  0
 24 39  1  0
 26 40  1  0
 26 41  1  0
M  END
>  <Score>  (1) 
-7.00966

$$$$
