
     RDKit          3D

 53 56  0  0  0  0  0  0  0  0999 V2000
   60.9820   58.6870   26.1400 N   0  0  0  0  0  0  0  0  0  0  0  0
   61.2540   58.5390   24.7270 C   0  0  0  0  0  0  0  0  0  0  0  0
   61.2550   59.8170   23.9690 C   0  0  0  0  0  0  0  0  0  0  0  0
   59.8120   60.2830   24.1050 C   0  0  0  0  0  0  0  0  0  0  0  0
   59.6560   60.7310   25.5200 C   0  0  0  0  0  0  0  0  0  0  0  0
   60.2840   59.8810   26.5470 C   0  0  0  0  0  0  0  0  0  0  0  0
   60.1660   60.2650   27.8830 N   0  0  0  0  0  0  0  0  0  0  0  0
   61.2630   60.9560   28.5470 C   0  0  0  0  0  0  0  0  0  0  0  0
   60.7790   62.3750   28.8910 C   0  0  0  0  0  0  0  0  0  0  0  0
   59.4840   62.2880   29.4720 N   0  0  0  0  0  0  0  0  0  0  0  0
   59.0680   60.9880   29.9210 C   0  0  0  0  0  0  0  0  0  0  0  0
   59.0080   60.0440   28.7450 C   0  0  0  0  0  0  0  0  0  0  0  0
   61.3390   57.6780   26.9430 C   0  0  0  0  0  0  0  0  0  0  0  0
   64.9600   57.0170   26.6220 C   0  0  0  0  0  0  0  0  0  0  0  0
   63.6020   57.1810   26.3040 C   0  0  0  0  0  0  0  0  0  0  0  0
   62.7200   57.5030   27.2860 C   0  0  0  0  0  0  0  0  0  0  0  0
   63.2200   57.6400   28.5140 N   0  0  0  0  0  0  0  0  0  0  0  0
   64.5220   57.4830   28.8370 C   0  0  0  0  0  0  0  0  0  0  0  0
   65.3730   57.1720   27.8640 N   0  0  0  0  0  0  0  0  0  0  0  0
   64.9530   57.6560   30.2020 N   0  0  0  0  0  0  0  0  0  0  0  0
   66.0330   56.9610   30.6050 C   0  0  0  0  0  0  0  0  0  0  0  0
   66.4420   57.1310   31.9200 C   0  0  0  0  0  0  0  0  0  0  0  0
   67.6190   56.4360   32.5260 C   0  0  0  0  0  0  0  0  0  0  0  0
   65.7370   57.9920   32.7480 C   0  0  0  0  0  0  0  0  0  0  0  0
   66.1000   58.1600   33.9620 O   0  0  0  0  0  0  0  0  0  0  0  0
   64.6610   58.6560   32.2740 N   0  0  0  0  0  0  0  0  0  0  0  0
   64.2640   58.4920   30.9990 C   0  0  0  0  0  0  0  0  0  0  0  0
   63.2610   59.1070   30.5430 O   0  0  0  0  0  0  0  0  0  0  0  0
   62.2425   58.0700   24.6134 H   0  0  0  0  0  0  0  0  0  0  0  0
   60.4406   57.9260   24.3114 H   0  0  0  0  0  0  0  0  0  0  0  0
   61.5220   59.6534   22.9145 H   0  0  0  0  0  0  0  0  0  0  0  0
   61.9882   60.5472   24.3421 H   0  0  0  0  0  0  0  0  0  0  0  0
   59.6131   61.1170   23.4159 H   0  0  0  0  0  0  0  0  0  0  0  0
   59.1038   59.4788   23.8566 H   0  0  0  0  0  0  0  0  0  0  0  0
   59.1029   61.6451   25.7818 H   0  0  0  0  0  0  0  0  0  0  0  0
   61.5409   60.4212   29.4672 H   0  0  0  0  0  0  0  0  0  0  0  0
   62.1460   60.9973   27.8923 H   0  0  0  0  0  0  0  0  0  0  0  0
   61.4744   62.8400   29.6052 H   0  0  0  0  0  0  0  0  0  0  0  0
   60.7395   62.9884   27.9787 H   0  0  0  0  0  0  0  0  0  0  0  0
   59.4624   62.9212   30.2841 H   0  0  0  0  0  0  0  0  0  0  0  0
   59.7885   60.6076   30.6600 H   0  0  0  0  0  0  0  0  0  0  0  0
   58.0724   61.0613   30.3830 H   0  0  0  0  0  0  0  0  0  0  0  0
   58.0858   60.2276   28.1742 H   0  0  0  0  0  0  0  0  0  0  0  0
   59.0143   59.0056   29.1080 H   0  0  0  0  0  0  0  0  0  0  0  0
   60.7893   57.8103   27.8866 H   0  0  0  0  0  0  0  0  0  0  0  0
   61.1045   56.7813   26.3507 H   0  0  0  0  0  0  0  0  0  0  0  0
   65.6809   56.7585   25.8324 H   0  0  0  0  0  0  0  0  0  0  0  0
   63.2552   57.0498   25.2684 H   0  0  0  0  0  0  0  0  0  0  0  0
   66.5688   56.2867   29.9207 H   0  0  0  0  0  0  0  0  0  0  0  0
   67.5457   56.4793   33.6227 H   0  0  0  0  0  0  0  0  0  0  0  0
   67.6319   55.3853   32.2006 H   0  0  0  0  0  0  0  0  0  0  0  0
   68.5453   56.9321   32.2006 H   0  0  0  0  0  0  0  0  0  0  0  0
   64.1401   59.2931   32.8934 H   0  0  0  0  0  0  0  0  0  0  0  0
  1  6  1  0
  1 13  1  0
  2  1  1  0
  3  4  1  0
  3  2  1  0
  4  5  1  0
  5  6  2  0
  6  7  1  0
  7  8  1  0
  7 12  1  0
  8  9  1  0
  9 10  1  0
 10 11  1  0
 12 11  1  0
 13 16  1  0
 14 19  2  0
 15 14  1  0
 15 16  2  0
 16 17  1  0
 17 18  2  0
 18 20  1  0
 19 18  1  0
 20 21  1  0
 20 27  1  0
 21 22  2  0
 22 23  1  0
 22 24  1  0
 24 25  2  0
 26 24  1  0
 27 26  1  0
 28 27  2  0
  2 29  1  0
  2 30  1  0
  3 31  1  0
  3 32  1  0
  4 33  1  0
  4 34  1  0
  5 35  1  0
  8 36  1  0
  8 37  1  0
  9 38  1  0
  9 39  1  0
 10 40  1  0
 11 41  1  0
 11 42  1  0
 12 43  1  0
 12 44  1  0
 13 45  1  0
 13 46  1  0
 14 47  1  0
 15 48  1  0
 21 49  1  0
 23 50  1  0
 23 51  1  0
 23 52  1  0
 26 53  1  0
M  END
>  <Score>  (1) 
-7.0675

$$$$
