
     RDKit          3D

 52 57  0  0  1  0  0  0  0  0999 V2000
   65.4600   58.5490   32.4350 C   0  0  1  0  0  0  0  0  0  0  0  0
   65.8170   57.8690   33.7320 C   0  0  0  0  0  0  0  0  0  0  0  0
   66.3230   58.9980   34.6020 C   0  0  0  0  0  0  0  0  0  0  0  0
   66.5700   60.1680   33.6600 C   0  0  0  0  0  0  0  0  0  0  0  0
   66.5330   59.5280   32.2800 C   0  0  2  0  0  0  0  0  0  0  0  0
   65.6790   57.8040   29.9880 C   0  0  2  0  0  0  0  0  0  0  0  0
   66.4050   56.8490   30.8480 C   0  0  0  0  0  0  0  0  0  0  0  0
   65.2710   57.5950   31.2590 C   0  0  1  0  0  0  0  0  0  0  0  0
   64.2980   56.9800   26.6480 C   0  0  0  0  0  0  0  0  0  0  0  0
   62.9590   56.5480   26.9750 C   0  0  0  0  0  0  0  0  0  0  0  0
   62.6330   56.5690   28.3220 C   0  0  0  0  0  0  0  0  0  0  0  0
   63.5480   56.9780   29.2280 N   0  0  0  0  0  0  0  0  0  0  0  0
   64.7990   57.3780   28.8720 C   0  0  0  0  0  0  0  0  0  0  0  0
   65.1570   57.3720   27.5800 N   0  0  0  0  0  0  0  0  0  0  0  0
   66.0780   60.5730   31.3400 N   0  0  0  0  0  0  0  0  0  0  0  0
   64.8570   60.9420   30.9710 C   0  0  0  0  0  0  0  0  0  0  0  0
   64.9600   61.9450   30.0780 N   0  0  0  0  0  0  0  0  0  0  0  0
   66.2410   62.2200   29.8740 C   0  0  0  0  0  0  0  0  0  0  0  0
   66.8820   61.3670   30.6590 N   0  0  0  0  0  0  0  0  0  0  0  0
   67.0820   63.1260   29.0900 C   0  0  0  0  0  0  0  0  0  0  0  0
   66.6570   64.1670   28.3520 N   0  0  0  0  0  0  0  0  0  0  0  0
   67.4290   64.9850   27.6440 C   0  0  0  0  0  0  0  0  0  0  0  0
   68.7630   64.8200   27.6120 N   0  0  0  0  0  0  0  0  0  0  0  0
   69.3040   63.7920   28.3270 C   0  0  0  0  0  0  0  0  0  0  0  0
   70.6710   63.6380   28.2840 C   0  0  0  0  0  0  0  0  0  0  0  0
   71.2760   62.6170   28.9860 C   0  0  0  0  0  0  0  0  0  0  0  0
   70.4630   61.7830   29.7120 C   0  0  0  0  0  0  0  0  0  0  0  0
   69.1060   61.9840   29.7170 C   0  0  0  0  0  0  0  0  0  0  0  0
   68.4490   62.9850   29.0360 C   0  0  0  0  0  0  0  0  0  0  0  0
   64.4681   59.0242   32.4540 H   0  0  0  0  0  0  0  0  0  0  0  0
   64.9330   57.3933   34.1817 H   0  0  0  0  0  0  0  0  0  0  0  0
   66.5577   57.0662   33.6023 H   0  0  0  0  0  0  0  0  0  0  0  0
   65.5699   59.2667   35.3574 H   0  0  0  0  0  0  0  0  0  0  0  0
   67.2374   58.7137   35.1433 H   0  0  0  0  0  0  0  0  0  0  0  0
   65.7814   60.9280   33.7620 H   0  0  0  0  0  0  0  0  0  0  0  0
   67.5164   60.6899   33.8646 H   0  0  0  0  0  0  0  0  0  0  0  0
   67.4836   59.1007   31.9282 H   0  0  0  0  0  0  0  0  0  0  0  0
   65.9972   58.6633   29.3794 H   0  0  0  0  0  0  0  0  0  0  0  0
   66.3310   55.7657   30.6717 H   0  0  0  0  0  0  0  0  0  0  0  0
   67.4396   56.7057   31.1931 H   0  0  0  0  0  0  0  0  0  0  0  0
   64.2600   57.3856   31.6384 H   0  0  0  0  0  0  0  0  0  0  0  0
   64.6150   56.9841   25.5947 H   0  0  0  0  0  0  0  0  0  0  0  0
   62.2441   56.2233   26.2046 H   0  0  0  0  0  0  0  0  0  0  0  0
   61.6323   56.2536   28.6524 H   0  0  0  0  0  0  0  0  0  0  0  0
   64.3358   60.0893   30.5114 H   0  0  0  0  0  0  0  0  0  0  0  0
   64.2862   61.2791   31.8488 H   0  0  0  0  0  0  0  0  0  0  0  0
   67.9087   61.3274   30.7308 H   0  0  0  0  0  0  0  0  0  0  0  0
   66.9704   65.8082   27.0765 H   0  0  0  0  0  0  0  0  0  0  0  0
   71.2826   64.3313   27.6880 H   0  0  0  0  0  0  0  0  0  0  0  0
   72.3668   62.4765   28.9650 H   0  0  0  0  0  0  0  0  0  0  0  0
   70.8990   60.9543   30.2892 H   0  0  0  0  0  0  0  0  0  0  0  0
   68.4938   61.2906   30.3123 H   0  0  0  0  0  0  0  0  0  0  0  0
  1  2  1  0
  2  3  1  0
  4  3  1  0
  5  1  1  0
  5  4  1  0
  6  7  1  0
  6  8  1  0
  7  8  1  0
  8  1  1  0
  9 10  2  0
  9 14  1  0
 10 11  1  0
 11 12  2  0
 13 12  1  0
 13  6  1  0
 14 13  2  0
 15 19  1  0
 15  5  1  0
 16 15  1  0
 17 16  1  0
 18 17  2  0
 18 19  1  0
 20 18  1  0
 21 20  2  0
 22 21  1  0
 23 22  2  0
 23 24  1  0
 24 29  2  0
 25 24  1  0
 25 26  2  0
 26 27  1  0
 27 28  2  0
 29 20  1  0
 29 28  1  0
  1 30  1  1
  2 31  1  0
  2 32  1  0
  3 33  1  0
  3 34  1  0
  4 35  1  0
  4 36  1  0
  5 37  1  6
  6 38  1  1
  7 39  1  0
  7 40  1  0
  8 41  1  6
  9 42  1  0
 10 43  1  0
 11 44  1  0
 16 45  1  0
 16 46  1  0
 19 47  1  0
 22 48  1  0
 25 49  1  0
 26 50  1  0
 27 51  1  0
 28 52  1  0
M  END
>  <Score>  (1) 
-7.07731

$$$$
