
     RDKit          3D

 47 50  0  0  0  0  0  0  0  0999 V2000
   65.3110   56.6970   25.9630 C   0  0  0  0  0  0  0  0  0  0  0  0
   63.9840   56.6530   25.4810 C   0  0  0  0  0  0  0  0  0  0  0  0
   62.9450   56.8750   26.3500 C   0  0  0  0  0  0  0  0  0  0  0  0
   63.2480   57.1310   27.6550 N   0  0  0  0  0  0  0  0  0  0  0  0
   64.5210   57.1690   28.0920 C   0  0  0  0  0  0  0  0  0  0  0  0
   65.5640   56.9600   27.2880 N   0  0  0  0  0  0  0  0  0  0  0  0
   64.7360   57.4570   29.5240 C   0  0  0  0  0  0  0  0  0  0  0  0
   63.8920   58.0510   30.4250 C   0  0  0  0  0  0  0  0  0  0  0  0
   64.3340   58.2050   31.6970 C   0  0  0  0  0  0  0  0  0  0  0  0
   65.6160   57.7440   31.9810 C   0  0  0  0  0  0  0  0  0  0  0  0
   66.1870   57.0970   30.4500 S   0  0  0  0  0  0  0  0  0  0  0  0
   66.3300   57.7700   33.1910 N   0  0  0  0  0  0  0  0  0  0  0  0
   67.5450   57.1360   33.3450 C   0  0  0  0  0  0  0  0  0  0  0  0
   67.8070   56.0120   32.7820 N   0  0  0  0  0  0  0  0  0  0  0  0
   68.5250   57.7890   34.1710 N   0  0  0  0  0  0  0  0  0  0  0  0
   67.1260   55.4990   32.2260 H   0  0  0  0  0  0  0  0  0  0  0  0
   61.5600   56.8400   25.8970 C   0  0  0  0  0  0  0  0  0  0  0  0
   60.7290   55.7540   25.9510 C   0  0  0  0  0  0  0  0  0  0  0  0
   59.5140   56.1920   25.4100 C   0  0  0  0  0  0  0  0  0  0  0  0
   59.6980   57.5290   25.0620 C   0  0  0  0  0  0  0  0  0  0  0  0
   60.9270   57.8530   25.3750 O   0  0  0  0  0  0  0  0  0  0  0  0
   58.6600   58.3710   24.4560 C   0  0  0  0  0  0  0  0  0  0  0  0
   59.2140   59.0150   23.1870 C   0  0  0  0  0  0  0  0  0  0  0  0
   58.0610   59.8010   22.5730 C   0  0  0  0  0  0  0  0  0  0  0  0
   57.7520   60.9140   23.5640 C   0  0  0  0  0  0  0  0  0  0  0  0
   57.1700   60.2760   24.7970 C   0  0  0  0  0  0  0  0  0  0  0  0
   58.2500   59.4300   25.4420 C   0  0  0  0  0  0  0  0  0  0  0  0
   66.1485   56.5194   25.2724 H   0  0  0  0  0  0  0  0  0  0  0  0
   63.7852   56.4429   24.4197 H   0  0  0  0  0  0  0  0  0  0  0  0
   62.8896   58.3914   30.1262 H   0  0  0  0  0  0  0  0  0  0  0  0
   63.7074   58.6734   32.4703 H   0  0  0  0  0  0  0  0  0  0  0  0
   65.9316   58.2809   33.9917 H   0  0  0  0  0  0  0  0  0  0  0  0
   69.4476   57.3548   34.3164 H   0  0  0  0  0  0  0  0  0  0  0  0
   68.3041   58.6908   34.6170 H   0  0  0  0  0  0  0  0  0  0  0  0
   60.9651   54.7513   26.3369 H   0  0  0  0  0  0  0  0  0  0  0  0
   58.5963   55.5986   25.2845 H   0  0  0  0  0  0  0  0  0  0  0  0
   57.7816   57.7628   24.1943 H   0  0  0  0  0  0  0  0  0  0  0  0
   60.0471   59.6896   23.4338 H   0  0  0  0  0  0  0  0  0  0  0  0
   59.6011   58.2583   22.4887 H   0  0  0  0  0  0  0  0  0  0  0  0
   58.3581   60.2231   21.6016 H   0  0  0  0  0  0  0  0  0  0  0  0
   57.1840   59.1625   22.3910 H   0  0  0  0  0  0  0  0  0  0  0  0
   58.6750   61.4543   23.8212 H   0  0  0  0  0  0  0  0  0  0  0  0
   57.0422   61.6329   23.1290 H   0  0  0  0  0  0  0  0  0  0  0  0
   56.8374   61.0551   25.4987 H   0  0  0  0  0  0  0  0  0  0  0  0
   56.3039   59.6520   24.5314 H   0  0  0  0  0  0  0  0  0  0  0  0
   57.8592   58.9584   26.3557 H   0  0  0  0  0  0  0  0  0  0  0  0
   59.1137   60.0545   25.7141 H   0  0  0  0  0  0  0  0  0  0  0  0
  1  6  2  0
  2  1  1  0
  2  3  2  0
  3  4  1  0
  4  5  2  0
  5  7  1  0
  6  5  1  0
  7  8  2  0
  7 11  1  0
  8  9  1  0
  9 10  2  0
 10 12  1  0
 11 10  1  0
 12 13  1  0
 13 15  1  0
 14 13  2  0
 16 14  1  0
 17 18  2  0
 17  3  1  0
 19 18  1  0
 20 21  1  0
 20 19  2  0
 21 17  1  0
 22 20  1  0
 22 27  1  0
 23 22  1  0
 24 23  1  0
 24 25  1  0
 25 26  1  0
 26 27  1  0
  1 28  1  0
  2 29  1  0
  8 30  1  0
  9 31  1  0
 12 32  1  0
 15 33  1  0
 15 34  1  0
 18 35  1  0
 19 36  1  0
 22 37  1  0
 23 38  1  0
 23 39  1  0
 24 40  1  0
 24 41  1  0
 25 42  1  0
 25 43  1  0
 26 44  1  0
 26 45  1  0
 27 46  1  0
 27 47  1  0
M  END
>  <Score>  (1) 
-7.17366

$$$$
