
     RDKit          3D

 51 56  0  0  1  0  0  0  0  0999 V2000
   59.1970   59.0120   24.6030 C   0  0  1  0  0  0  0  0  0  0  0  0
   59.9820   60.2440   24.4500 C   0  0  0  0  0  0  0  0  0  0  0  0
   59.4070   59.4740   23.2310 C   0  0  2  0  0  0  0  0  0  0  0  0
   61.6200   56.9840   26.4460 N   0  0  0  0  0  0  0  0  0  0  0  0
   61.2320   55.7230   26.2340 C   0  0  0  0  0  0  0  0  0  0  0  0
   60.0940   55.5120   25.4300 C   0  0  0  0  0  0  0  0  0  0  0  0
   59.4280   56.6080   24.8950 C   0  0  0  0  0  0  0  0  0  0  0  0
   58.3950   56.4740   24.1630 O   0  0  0  0  0  0  0  0  0  0  0  0
   59.8530   57.8280   25.1360 N   0  0  0  0  0  0  0  0  0  0  0  0
   60.9490   58.0280   25.9110 C   0  0  0  0  0  0  0  0  0  0  0  0
   61.3900   59.1920   26.1650 O   0  0  0  0  0  0  0  0  0  0  0  0
   63.9950   57.1230   26.5920 C   0  0  0  0  0  0  0  0  0  0  0  0
   62.7690   57.1000   27.2630 C   0  0  0  0  0  0  0  0  0  0  0  0
   62.7900   57.1880   28.6140 C   0  0  0  0  0  0  0  0  0  0  0  0
   63.9720   57.2970   29.2790 N   0  0  0  0  0  0  0  0  0  0  0  0
   65.1530   57.3180   28.6060 C   0  0  0  0  0  0  0  0  0  0  0  0
   65.1540   57.2290   27.2420 N   0  0  0  0  0  0  0  0  0  0  0  0
   58.3530   60.1540   22.5200 N   0  0  0  0  0  0  0  0  0  0  0  0
   57.1530   59.5770   22.0130 C   0  0  0  0  0  0  0  0  0  0  0  0
   56.0450   60.3210   21.6030 C   0  0  0  0  0  0  0  0  0  0  0  0
   55.1190   59.3720   21.1890 C   0  0  0  0  0  0  0  0  0  0  0  0
   55.6990   58.1250   21.3650 C   0  0  0  0  0  0  0  0  0  0  0  0
   56.8720   58.3180   21.8440 O   0  0  0  0  0  0  0  0  0  0  0  0
   54.7740   56.6720   20.9280 S   0  0  0  0  0  0  0  0  0  0  0  0
   55.5950   55.6800   19.7410 C   0  0  0  0  0  0  0  0  0  0  0  0
   55.2040   55.6880   18.4530 N   0  0  0  0  0  0  0  0  0  0  0  0
   55.7930   54.9500   17.4950 C   0  0  0  0  0  0  0  0  0  0  0  0
   56.8320   54.1500   17.8110 N   0  0  0  0  0  0  0  0  0  0  0  0
   57.3070   54.0690   19.0880 C   0  0  0  0  0  0  0  0  0  0  0  0
   58.3700   53.2470   19.3990 C   0  0  0  0  0  0  0  0  0  0  0  0
   58.8240   53.1900   20.7010 C   0  0  0  0  0  0  0  0  0  0  0  0
   58.1860   53.9730   21.6670 C   0  0  0  0  0  0  0  0  0  0  0  0
   57.1260   54.7770   21.3030 C   0  0  0  0  0  0  0  0  0  0  0  0
   56.6570   54.8530   20.0220 C   0  0  0  0  0  0  0  0  0  0  0  0
   58.2833   58.7362   25.1499 H   0  0  0  0  0  0  0  0  0  0  0  0
   59.5567   61.2145   24.7455 H   0  0  0  0  0  0  0  0  0  0  0  0
   60.9759   60.5923   24.7675 H   0  0  0  0  0  0  0  0  0  0  0  0
   59.7816   58.9897   22.3171 H   0  0  0  0  0  0  0  0  0  0  0  0
   61.7826   54.8777   26.6725 H   0  0  0  0  0  0  0  0  0  0  0  0
   59.7370   54.4913   25.2282 H   0  0  0  0  0  0  0  0  0  0  0  0
   64.0037   57.0515   25.4944 H   0  0  0  0  0  0  0  0  0  0  0  0
   61.8454   57.1713   29.1775 H   0  0  0  0  0  0  0  0  0  0  0  0
   66.1018   57.4061   29.1556 H   0  0  0  0  0  0  0  0  0  0  0  0
   58.4811   61.1637   22.3619 H   0  0  0  0  0  0  0  0  0  0  0  0
   55.9308   61.4150   21.6069 H   0  0  0  0  0  0  0  0  0  0  0  0
   54.1120   59.5727   20.7945 H   0  0  0  0  0  0  0  0  0  0  0  0
   55.4289   54.9987   16.4582 H   0  0  0  0  0  0  0  0  0  0  0  0
   58.8515   52.6424   18.6164 H   0  0  0  0  0  0  0  0  0  0  0  0
   59.6702   52.5419   20.9728 H   0  0  0  0  0  0  0  0  0  0  0  0
   58.5275   53.9482   22.7124 H   0  0  0  0  0  0  0  0  0  0  0  0
   56.6364   55.3841   22.0787 H   0  0  0  0  0  0  0  0  0  0  0  0
  1  9  1  0
  2  1  1  0
  3  2  1  0
  3  1  1  0
  4 13  1  0
  5  4  1  0
  6  5  2  0
  7  9  1  0
  7  6  1  0
  8  7  2  0
  9 10  1  0
 10 11  2  0
 10  4  1  0
 12 17  2  0
 12 13  1  0
 13 14  2  0
 14 15  1  0
 16 15  2  0
 17 16  1  0
 18  3  1  0
 19 18  1  0
 20 19  2  0
 21 22  2  0
 21 20  1  0
 22 23  1  0
 23 19  1  0
 24 22  1  0
 25 34  1  0
 25 24  1  0
 26 25  2  0
 27 28  2  0
 27 26  1  0
 28 29  1  0
 29 30  1  0
 29 34  2  0
 30 31  2  0
 31 32  1  0
 33 32  2  0
 34 33  1  0
  1 35  1  1
  2 36  1  0
  2 37  1  0
  3 38  1  6
  5 39  1  0
  6 40  1  0
 12 41  1  0
 14 42  1  0
 16 43  1  0
 18 44  1  0
 20 45  1  0
 21 46  1  0
 27 47  1  0
 30 48  1  0
 31 49  1  0
 32 50  1  0
 33 51  1  0
M  END
>  <Score>  (1) 
-7.25446

$$$$
