
     RDKit          3D

 38 42  0  0  1  0  0  0  0  0999 V2000
   64.2850   57.0280   26.6700 C   0  0  0  0  0  0  0  0  0  0  0  0
   62.9910   56.6050   26.9850 C   0  0  0  0  0  0  0  0  0  0  0  0
   62.6100   56.6130   28.3440 C   0  0  0  0  0  0  0  0  0  0  0  0
   63.5280   57.0310   29.2360 N   0  0  0  0  0  0  0  0  0  0  0  0
   64.7710   57.4340   28.9050 C   0  0  0  0  0  0  0  0  0  0  0  0
   65.1520   57.4330   27.6070 N   0  0  0  0  0  0  0  0  0  0  0  0
   65.5160   57.8180   30.0490 N   0  0  0  0  0  0  0  0  0  0  0  0
   66.2660   56.9550   30.7730 C   0  0  0  0  0  0  0  0  0  0  0  0
   66.8610   57.6030   31.8020 N   0  0  0  0  0  0  0  0  0  0  0  0
   66.4750   58.8940   31.7220 C   0  0  0  0  0  0  0  0  0  0  0  0
   66.7300   60.0330   32.4610 C   0  0  2  0  0  0  0  0  0  0  0  0
   66.1590   61.2160   32.0920 N   0  0  0  0  0  0  0  0  0  0  0  0
   65.3470   61.2480   31.0000 C   0  0  0  0  0  0  0  0  0  0  0  0
   65.0720   60.1630   30.2530 N   0  0  0  0  0  0  0  0  0  0  0  0
   65.6340   59.0200   30.6240 C   0  0  0  0  0  0  0  0  0  0  0  0
   64.8390   62.5580   30.7620 N   0  0  0  0  0  0  0  0  0  0  0  0
   63.5540   62.9320   30.4940 C   0  0  0  0  0  0  0  0  0  0  0  0
   63.4650   64.2620   30.3260 N   0  0  0  0  0  0  0  0  0  0  0  0
   64.6950   64.7950   30.4810 C   0  0  0  0  0  0  0  0  0  0  0  0
   65.1310   66.0940   30.4090 C   0  0  0  0  0  0  0  0  0  0  0  0
   66.4240   66.3020   30.6120 N   0  0  0  0  0  0  0  0  0  0  0  0
   67.2610   65.2620   30.8780 C   0  0  0  0  0  0  0  0  0  0  0  0
   66.8210   63.9880   30.9470 N   0  0  0  0  0  0  0  0  0  0  0  0
   65.5100   63.7220   30.7470 C   0  0  0  0  0  0  0  0  0  0  0  0
   67.5900   59.8560   33.5700 N   0  0  0  0  0  0  0  0  0  0  0  0
   64.1650   67.1120   30.1230 N   0  0  0  0  0  0  0  0  0  0  0  0
   64.6023   57.0284   25.6168 H   0  0  0  0  0  0  0  0  0  0  0  0
   62.2931   56.2770   26.2006 H   0  0  0  0  0  0  0  0  0  0  0  0
   61.6068   56.2917   28.6607 H   0  0  0  0  0  0  0  0  0  0  0  0
   66.3762   55.8821   30.5567 H   0  0  0  0  0  0  0  0  0  0  0  0
   65.8616   59.8132   33.0994 H   0  0  0  0  0  0  0  0  0  0  0  0
   64.4537   60.2175   29.4311 H   0  0  0  0  0  0  0  0  0  0  0  0
   62.7043   62.2369   30.4248 H   0  0  0  0  0  0  0  0  0  0  0  0
   68.3294   65.4663   31.0418 H   0  0  0  0  0  0  0  0  0  0  0  0
   67.0530   59.9665   34.4420 H   0  0  0  0  0  0  0  0  0  0  0  0
   68.0021   58.9126   33.5378 H   0  0  0  0  0  0  0  0  0  0  0  0
   64.4581   68.0975   30.0618 H   0  0  0  0  0  0  0  0  0  0  0  0
   63.1772   66.8586   29.9786 H   0  0  0  0  0  0  0  0  0  0  0  0
  1  2  2  0
  1  6  1  0
  2  3  1  0
  3  4  2  0
  5  4  1  0
  5  7  1  0
  6  5  2  0
  7 15  1  0
  7  8  1  0
  8  9  2  0
 10  9  1  0
 10 11  1  0
 11 25  1  0
 12 11  1  0
 13 12  2  0
 14 15  1  0
 14 13  1  0
 15 10  2  0
 16 13  1  0
 17 16  1  0
 18 19  1  0
 18 17  2  0
 19 24  2  0
 20 19  1  0
 20 21  2  0
 21 22  1  0
 22 23  2  0
 24 16  1  0
 24 23  1  0
 26 20  1  0
  1 27  1  0
  2 28  1  0
  3 29  1  0
  8 30  1  0
 11 31  1  1
 14 32  1  0
 17 33  1  0
 22 34  1  0
 25 35  1  0
 25 36  1  0
 26 37  1  0
 26 38  1  0
M  END
>  <Score>  (1) 
-7.09903

$$$$
