
     RDKit          3D

 55 59  0  0  1  0  0  0  0  0999 V2000
   60.3620   59.3460   26.4710 C   0  0  1  0  0  0  0  0  0  0  0  0
   60.5660   60.2840   25.3490 C   0  0  0  0  0  0  0  0  0  0  0  0
   61.0010   59.7600   24.0950 C   0  0  0  0  0  0  0  0  0  0  0  0
   59.9340   58.8600   23.4800 C   0  0  0  0  0  0  0  0  0  0  0  0
   58.8350   59.7800   23.0400 C   0  0  0  0  0  0  0  0  0  0  0  0
   58.3180   60.5800   24.1710 C   0  0  0  0  0  0  0  0  0  0  0  0
   59.3070   61.1060   25.1460 C   0  0  0  0  0  0  0  0  0  0  0  0
   61.4680   58.4690   26.7870 C   0  0  0  0  0  0  0  0  0  0  0  0
   62.1950   57.8840   25.8350 C   0  0  0  0  0  0  0  0  0  0  0  0
   63.2380   57.0260   26.1350 C   0  0  0  0  0  0  0  0  0  0  0  0
   63.4610   56.8340   27.4780 N   0  0  0  0  0  0  0  0  0  0  0  0
   62.7170   57.4370   28.4330 C   0  0  0  0  0  0  0  0  0  0  0  0
   61.7050   58.2650   28.0990 N   0  0  0  0  0  0  0  0  0  0  0  0
   59.8750   59.9650   27.7380 C   0  0  0  0  0  0  0  0  0  0  0  0
   60.2480   61.2820   28.0980 C   0  0  0  0  0  0  0  0  0  0  0  0
   59.7220   62.5490   28.0360 C   0  0  0  0  0  0  0  0  0  0  0  0
   60.5670   63.4780   28.5700 C   0  0  0  0  0  0  0  0  0  0  0  0
   61.6320   62.7500   28.9630 N   0  0  0  0  0  0  0  0  0  0  0  0
   61.4700   61.4960   28.7050 N   0  0  0  0  0  0  0  0  0  0  0  0
   62.7760   63.3630   29.5900 C   0  0  0  0  0  0  0  0  0  0  0  0
   64.0000   63.1300   29.0690 N   0  0  0  0  0  0  0  0  0  0  0  0
   65.1250   63.6610   29.5880 C   0  0  0  0  0  0  0  0  0  0  0  0
   65.0890   64.4730   30.6840 N   0  0  0  0  0  0  0  0  0  0  0  0
   63.8880   64.7160   31.2140 C   0  0  0  0  0  0  0  0  0  0  0  0
   63.7250   65.5230   32.3230 C   0  0  0  0  0  0  0  0  0  0  0  0
   62.4970   65.8110   32.9210 C   0  0  0  0  0  0  0  0  0  0  0  0
   61.3700   65.2310   32.3350 C   0  0  0  0  0  0  0  0  0  0  0  0
   61.4820   64.4300   31.2420 C   0  0  0  0  0  0  0  0  0  0  0  0
   62.7170   64.1820   30.6980 C   0  0  0  0  0  0  0  0  0  0  0  0
   59.5594   58.7279   26.0422 H   0  0  0  0  0  0  0  0  0  0  0  0
   61.4282   60.8829   25.6776 H   0  0  0  0  0  0  0  0  0  0  0  0
   61.2075   60.5943   23.4085 H   0  0  0  0  0  0  0  0  0  0  0  0
   61.9103   59.1636   24.2604 H   0  0  0  0  0  0  0  0  0  0  0  0
   60.3438   58.3119   22.6188 H   0  0  0  0  0  0  0  0  0  0  0  0
   59.5728   58.1084   24.1973 H   0  0  0  0  0  0  0  0  0  0  0  0
   59.2248   60.4604   22.2686 H   0  0  0  0  0  0  0  0  0  0  0  0
   58.0110   59.1702   22.6412 H   0  0  0  0  0  0  0  0  0  0  0  0
   57.7821   61.4421   23.7473 H   0  0  0  0  0  0  0  0  0  0  0  0
   57.6981   59.8797   24.7500 H   0  0  0  0  0  0  0  0  0  0  0  0
   59.6130   62.1058   24.8042 H   0  0  0  0  0  0  0  0  0  0  0  0
   58.7917   61.0910   26.1177 H   0  0  0  0  0  0  0  0  0  0  0  0
   61.9588   58.0894   24.7805 H   0  0  0  0  0  0  0  0  0  0  0  0
   63.0173   56.0482   25.6819 H   0  0  0  0  0  0  0  0  0  0  0  0
   64.1488   57.4954   25.7348 H   0  0  0  0  0  0  0  0  0  0  0  0
   62.9393   57.2504   29.4940 H   0  0  0  0  0  0  0  0  0  0  0  0
   61.1331   58.7255   28.8214 H   0  0  0  0  0  0  0  0  0  0  0  0
   58.7762   59.9539   27.6889 H   0  0  0  0  0  0  0  0  0  0  0  0
   60.3682   59.3553   28.5094 H   0  0  0  0  0  0  0  0  0  0  0  0
   58.7373   62.7866   27.6072 H   0  0  0  0  0  0  0  0  0  0  0  0
   60.4153   64.5639   28.6589 H   0  0  0  0  0  0  0  0  0  0  0  0
   66.0933   63.4348   29.1177 H   0  0  0  0  0  0  0  0  0  0  0  0
   64.6268   65.9705   32.7664 H   0  0  0  0  0  0  0  0  0  0  0  0
   62.4212   66.4598   33.8061 H   0  0  0  0  0  0  0  0  0  0  0  0
   60.3760   65.4252   32.7643 H   0  0  0  0  0  0  0  0  0  0  0  0
   60.5831   63.9811   30.7942 H   0  0  0  0  0  0  0  0  0  0  0  0
  1  8  1  0
  1 14  1  0
  2  1  1  0
  3  2  1  0
  4  3  1  0
  5  4  1  0
  5  6  1  0
  6  7  1  0
  7  2  1  0
  8 13  1  0
  9 10  1  0
  9  8  2  0
 10 11  1  0
 11 12  2  0
 13 12  1  0
 14 15  1  0
 15 19  2  0
 16 15  1  0
 16 17  2  0
 17 18  1  0
 18 20  1  0
 19 18  1  0
 20 29  2  0
 21 22  2  0
 21 20  1  0
 22 23  1  0
 23 24  2  0
 24 25  1  0
 25 26  2  0
 27 26  1  0
 28 27  2  0
 29 24  1  0
 29 28  1  0
  1 30  1  6
  2 31  1  0
  3 32  1  0
  3 33  1  0
  4 34  1  0
  4 35  1  0
  5 36  1  0
  5 37  1  0
  6 38  1  0
  6 39  1  0
  7 40  1  0
  7 41  1  0
  9 42  1  0
 10 43  1  0
 10 44  1  0
 12 45  1  0
 13 46  1  0
 14 47  1  0
 14 48  1  0
 16 49  1  0
 17 50  1  0
 22 51  1  0
 25 52  1  0
 26 53  1  0
 27 54  1  0
 28 55  1  0
M  END
>  <Score>  (1) 
-7.12795

$$$$
