
     RDKit          3D

 38 42  0  0  0  0  0  0  0  0999 V2000
   58.7930   55.7560   24.5420 C   0  0  0  0  0  0  0  0  0  0  0  0
   57.9050   55.2230   25.4270 C   0  0  0  0  0  0  0  0  0  0  0  0
   56.8250   54.4900   24.9220 C   0  0  0  0  0  0  0  0  0  0  0  0
   56.7350   54.3590   23.5540 C   0  0  0  0  0  0  0  0  0  0  0  0
   57.6360   54.8980   22.6430 C   0  0  0  0  0  0  0  0  0  0  0  0
   58.6170   55.5710   23.2480 N   0  0  0  0  0  0  0  0  0  0  0  0
   57.3720   54.6540   21.2440 C   0  0  0  0  0  0  0  0  0  0  0  0
   56.4150   55.3450   20.6220 N   0  0  0  0  0  0  0  0  0  0  0  0
   56.1140   55.1740   19.3290 C   0  0  0  0  0  0  0  0  0  0  0  0
   56.7490   54.2890   18.5370 N   0  0  0  0  0  0  0  0  0  0  0  0
   57.7450   53.5400   19.0970 C   0  0  0  0  0  0  0  0  0  0  0  0
   58.4380   52.6160   18.3460 C   0  0  0  0  0  0  0  0  0  0  0  0
   59.4450   51.8520   18.8980 C   0  0  0  0  0  0  0  0  0  0  0  0
   59.7370   52.0530   20.2500 C   0  0  0  0  0  0  0  0  0  0  0  0
   59.0110   52.9900   20.9480 C   0  0  0  0  0  0  0  0  0  0  0  0
   58.0020   53.7660   20.4290 C   0  0  0  0  0  0  0  0  0  0  0  0
   61.7390   57.1250   26.1120 C   0  0  0  0  0  0  0  0  0  0  0  0
   61.3560   58.1140   25.3370 N   0  0  0  0  0  0  0  0  0  0  0  0
   60.2760   57.7400   24.6980 O   0  0  0  0  0  0  0  0  0  0  0  0
   59.9290   56.5390   25.0220 C   0  0  0  0  0  0  0  0  0  0  0  0
   60.8530   56.1150   25.9330 N   0  0  0  0  0  0  0  0  0  0  0  0
   64.2330   57.1750   26.4770 C   0  0  0  0  0  0  0  0  0  0  0  0
   62.9130   57.1600   26.9870 C   0  0  0  0  0  0  0  0  0  0  0  0
   62.7430   57.1810   28.3750 C   0  0  0  0  0  0  0  0  0  0  0  0
   63.8320   57.2120   29.1730 N   0  0  0  0  0  0  0  0  0  0  0  0
   65.0830   57.2240   28.6710 C   0  0  0  0  0  0  0  0  0  0  0  0
   65.2850   57.2060   27.3100 N   0  0  0  0  0  0  0  0  0  0  0  0
   58.0335   55.3650   26.5102 H   0  0  0  0  0  0  0  0  0  0  0  0
   56.0783   54.0369   25.5906 H   0  0  0  0  0  0  0  0  0  0  0  0
   55.8869   53.7851   23.1523 H   0  0  0  0  0  0  0  0  0  0  0  0
   55.3101   55.7851   18.8928 H   0  0  0  0  0  0  0  0  0  0  0  0
   58.1829   52.4848   17.2841 H   0  0  0  0  0  0  0  0  0  0  0  0
   59.9966   51.1135   18.2977 H   0  0  0  0  0  0  0  0  0  0  0  0
   60.5305   51.4742   20.7453 H   0  0  0  0  0  0  0  0  0  0  0  0
   59.2586   53.1301   22.0106 H   0  0  0  0  0  0  0  0  0  0  0  0
   64.3981   57.1611   25.3896 H   0  0  0  0  0  0  0  0  0  0  0  0
   61.7335   57.1724   28.8118 H   0  0  0  0  0  0  0  0  0  0  0  0
   65.9462   57.2483   29.3524 H   0  0  0  0  0  0  0  0  0  0  0  0
  1 20  1  0
  1  2  2  0
  3  2  1  0
  4  3  2  0
  5  6  2  0
  5  4  1  0
  6  1  1  0
  7  5  1  0
  8  7  2  0
  9  8  1  0
 10 11  1  0
 10  9  2  0
 11 16  2  0
 12 13  2  0
 12 11  1  0
 13 14  1  0
 14 15  2  0
 16 15  1  0
 16  7  1  0
 17 23  1  0
 18 17  2  0
 19 20  1  0
 19 18  1  0
 20 21  2  0
 21 17  1  0
 22 23  2  0
 22 27  1  0
 23 24  1  0
 24 25  2  0
 26 25  1  0
 27 26  2  0
  2 28  1  0
  3 29  1  0
  4 30  1  0
  9 31  1  0
 12 32  1  0
 13 33  1  0
 14 34  1  0
 15 35  1  0
 22 36  1  0
 24 37  1  0
 26 38  1  0
M  END
>  <Score>  (1) 
-7.17472

$$$$
