
     RDKit          3D

 42 45  0  0  1  0  0  0  0  0999 V2000
   64.2980   57.4050   27.4500 C   0  0  1  0  0  0  0  0  0  0  0  0
   65.4390   57.0260   26.5770 C   0  0  0  0  0  0  0  0  0  0  0  0
   64.9370   55.9760   25.6280 C   0  0  0  0  0  0  0  0  0  0  0  0
   63.4210   56.1240   25.7120 C   0  0  0  0  0  0  0  0  0  0  0  0
   63.1410   56.4920   27.1800 C   0  0  2  0  0  0  0  0  0  0  0  0
   64.7360   57.4300   28.8650 C   0  0  0  0  0  0  0  0  0  0  0  0
   63.8370   58.0430   29.7610 C   0  0  0  0  0  0  0  0  0  0  0  0
   64.2300   58.0970   31.0970 C   0  0  0  0  0  0  0  0  0  0  0  0
   65.4460   57.5620   31.4720 N   0  0  0  0  0  0  0  0  0  0  0  0
   66.2650   56.9880   30.5730 C   0  0  0  0  0  0  0  0  0  0  0  0
   65.9310   56.9110   29.2640 N   0  0  0  0  0  0  0  0  0  0  0  0
   61.8120   57.1920   27.3000 C   0  0  0  0  0  0  0  0  0  0  0  0
   60.9220   56.8970   26.1530 C   0  0  0  0  0  0  0  0  0  0  0  0
   60.4110   55.5960   26.0410 C   0  0  0  0  0  0  0  0  0  0  0  0
   59.5600   55.1830   25.0430 C   0  0  0  0  0  0  0  0  0  0  0  0
   59.2190   56.1490   24.1230 C   0  0  0  0  0  0  0  0  0  0  0  0
   59.6670   57.4310   24.1560 C   0  0  0  0  0  0  0  0  0  0  0  0
   59.3100   58.3730   23.2140 C   0  0  0  0  0  0  0  0  0  0  0  0
   59.7830   59.6730   23.2630 C   0  0  0  0  0  0  0  0  0  0  0  0
   60.6370   59.9750   24.3140 C   0  0  0  0  0  0  0  0  0  0  0  0
   61.0320   59.0820   25.2880 C   0  0  0  0  0  0  0  0  0  0  0  0
   60.5270   57.7960   25.1870 C   0  0  0  0  0  0  0  0  0  0  0  0
   63.9479   58.4232   27.2249 H   0  0  0  0  0  0  0  0  0  0  0  0
   65.7932   57.9036   26.0162 H   0  0  0  0  0  0  0  0  0  0  0  0
   66.2802   56.6447   27.1745 H   0  0  0  0  0  0  0  0  0  0  0  0
   65.2534   54.9721   25.9476 H   0  0  0  0  0  0  0  0  0  0  0  0
   65.3257   56.0977   24.6062 H   0  0  0  0  0  0  0  0  0  0  0  0
   63.0719   56.9215   25.0395 H   0  0  0  0  0  0  0  0  0  0  0  0
   62.8973   55.2058   25.4076 H   0  0  0  0  0  0  0  0  0  0  0  0
   63.0681   55.6480   27.8817 H   0  0  0  0  0  0  0  0  0  0  0  0
   62.8755   58.4571   29.4234 H   0  0  0  0  0  0  0  0  0  0  0  0
   63.5752   58.5631   31.8480 H   0  0  0  0  0  0  0  0  0  0  0  0
   67.2265   56.5724   30.9088 H   0  0  0  0  0  0  0  0  0  0  0  0
   61.3190   56.8611   28.2260 H   0  0  0  0  0  0  0  0  0  0  0  0
   61.9996   58.2758   27.3136 H   0  0  0  0  0  0  0  0  0  0  0  0
   60.7101   54.8584   26.8003 H   0  0  0  0  0  0  0  0  0  0  0  0
   59.1784   54.1530   24.9838 H   0  0  0  0  0  0  0  0  0  0  0  0
   58.5386   55.8637   23.3071 H   0  0  0  0  0  0  0  0  0  0  0  0
   58.6295   58.0828   22.3999 H   0  0  0  0  0  0  0  0  0  0  0  0
   59.4980   60.4239   22.5114 H   0  0  0  0  0  0  0  0  0  0  0  0
   61.0275   61.0016   24.3748 H   0  0  0  0  0  0  0  0  0  0  0  0
   61.7117   59.3753   26.1016 H   0  0  0  0  0  0  0  0  0  0  0  0
  1  6  1  0
  2  1  1  0
  3  4  1  0
  3  2  1  0
  4  5  1  0
  5 12  1  0
  5  1  1  0
  6 11  1  0
  6  7  2  0
  7  8  1  0
  8  9  2  0
 10  9  1  0
 11 10  2  0
 13 12  1  0
 14 13  2  0
 15 14  1  0
 16 17  1  0
 16 15  2  0
 17 22  2  0
 18 19  2  0
 18 17  1  0
 19 20  1  0
 20 21  2  0
 22 21  1  0
 22 13  1  0
  1 23  1  6
  2 24  1  0
  2 25  1  0
  3 26  1  0
  3 27  1  0
  4 28  1  0
  4 29  1  0
  5 30  1  1
  7 31  1  0
  8 32  1  0
 10 33  1  0
 12 34  1  0
 12 35  1  0
 14 36  1  0
 15 37  1  0
 16 38  1  0
 18 39  1  0
 19 40  1  0
 20 41  1  0
 21 42  1  0
M  END
>  <Score>  (1) 
-7.07408

$$$$
