
     RDKit          3D

 35 38  0  0  0  0  0  0  0  0999 V2000
   64.9440   57.7400   30.7200 C   0  0  0  0  0  0  0  0  0  0  0  0
   64.0510   58.1520   31.6850 C   0  0  0  0  0  0  0  0  0  0  0  0
   64.6170   58.3960   32.9340 C   0  0  0  0  0  0  0  0  0  0  0  0
   65.9670   58.2220   33.1210 C   0  0  0  0  0  0  0  0  0  0  0  0
   66.8430   57.8100   32.1450 C   0  0  0  0  0  0  0  0  0  0  0  0
   66.2290   57.5970   30.9780 N   0  0  0  0  0  0  0  0  0  0  0  0
   68.2290   57.6850   32.5380 C   0  0  0  0  0  0  0  0  0  0  0  0
   69.1500   58.5420   32.0660 N   0  0  0  0  0  0  0  0  0  0  0  0
   70.4510   58.4960   32.3790 C   0  0  0  0  0  0  0  0  0  0  0  0
   70.9530   57.5800   33.2010 N   0  0  0  0  0  0  0  0  0  0  0  0
   70.1060   56.6710   33.7290 C   0  0  0  0  0  0  0  0  0  0  0  0
   70.5760   55.7090   34.5810 C   0  0  0  0  0  0  0  0  0  0  0  0
   69.7310   54.7610   35.1390 C   0  0  0  0  0  0  0  0  0  0  0  0
   68.3890   54.8350   34.7950 C   0  0  0  0  0  0  0  0  0  0  0  0
   67.9620   55.8180   33.9370 C   0  0  0  0  0  0  0  0  0  0  0  0
   68.7830   56.7520   33.3840 C   0  0  0  0  0  0  0  0  0  0  0  0
   64.9000   57.0520   27.1230 C   0  0  0  0  0  0  0  0  0  0  0  0
   63.5470   56.8790   26.8360 C   0  0  0  0  0  0  0  0  0  0  0  0
   62.6380   57.0050   27.9290 C   0  0  0  0  0  0  0  0  0  0  0  0
   63.1580   57.2820   29.1510 N   0  0  0  0  0  0  0  0  0  0  0  0
   64.4800   57.4400   29.3740 C   0  0  0  0  0  0  0  0  0  0  0  0
   65.3580   57.3230   28.3460 N   0  0  0  0  0  0  0  0  0  0  0  0
   65.8030   56.9360   26.0440 N   0  0  0  0  0  0  0  0  0  0  0  0
   62.9767   58.2782   31.4849 H   0  0  0  0  0  0  0  0  0  0  0  0
   63.9837   58.7277   33.7700 H   0  0  0  0  0  0  0  0  0  0  0  0
   66.3754   58.4267   34.1217 H   0  0  0  0  0  0  0  0  0  0  0  0
   71.1287   59.2431   31.9401 H   0  0  0  0  0  0  0  0  0  0  0  0
   71.6475   55.6869   34.8289 H   0  0  0  0  0  0  0  0  0  0  0  0
   70.1077   53.9861   35.8229 H   0  0  0  0  0  0  0  0  0  0  0  0
   67.6714   54.1104   35.2073 H   0  0  0  0  0  0  0  0  0  0  0  0
   66.8927   55.8528   33.6813 H   0  0  0  0  0  0  0  0  0  0  0  0
   63.1971   56.6563   25.8172 H   0  0  0  0  0  0  0  0  0  0  0  0
   61.5543   56.8819   27.7857 H   0  0  0  0  0  0  0  0  0  0  0  0
   65.4517   56.7268   25.0986 H   0  0  0  0  0  0  0  0  0  0  0  0
   66.8131   57.0606   26.2021 H   0  0  0  0  0  0  0  0  0  0  0  0
  1  6  1  0
  1  2  2  0
  2  3  1  0
  3  4  2  0
  5  7  1  0
  5  4  1  0
  6  5  2  0
  7 16  2  0
  8  9  2  0
  8  7  1  0
  9 10  1  0
 10 11  2  0
 11 12  1  0
 12 13  2  0
 14 13  1  0
 15 14  2  0
 16 11  1  0
 16 15  1  0
 17 22  2  0
 18 17  1  0
 18 19  2  0
 19 20  1  0
 20 21  2  0
 21  1  1  0
 22 21  1  0
 23 17  1  0
  2 24  1  0
  3 25  1  0
  4 26  1  0
  9 27  1  0
 12 28  1  0
 13 29  1  0
 14 30  1  0
 15 31  1  0
 18 32  1  0
 19 33  1  0
 23 34  1  0
 23 35  1  0
M  END
>  <Score>  (1) 
-7.10813

$$$$
