
     RDKit          3D

 49 54  0  0  1  0  0  0  0  0999 V2000
   61.5140   57.0940   26.2420 N   0  0  0  0  0  0  0  0  0  0  0  0
   61.0930   55.8320   25.6710 C   0  0  0  0  0  0  0  0  0  0  0  0
   60.1670   56.2210   24.5500 C   0  0  0  0  0  0  0  0  0  0  0  0
   59.4870   57.4580   25.1410 C   0  0  0  0  0  0  0  0  0  0  0  0
   60.7320   58.1540   25.6560 C   0  0  1  0  0  0  0  0  0  0  0  0
   63.9150   57.1400   26.9080 C   0  0  0  0  0  0  0  0  0  0  0  0
   62.5120   57.2910   27.2030 C   0  0  0  0  0  0  0  0  0  0  0  0
   62.2060   57.6560   28.5020 C   0  0  0  0  0  0  0  0  0  0  0  0
   63.1790   57.8570   29.4120 N   0  0  0  0  0  0  0  0  0  0  0  0
   64.4730   57.7040   29.0750 C   0  0  0  0  0  0  0  0  0  0  0  0
   64.8550   57.3490   27.8460 N   0  0  0  0  0  0  0  0  0  0  0  0
   65.4680   57.9300   30.0720 N   0  0  0  0  0  0  0  0  0  0  0  0
   66.3940   56.9980   30.3640 C   0  0  0  0  0  0  0  0  0  0  0  0
   67.2150   57.4260   31.3220 N   0  0  0  0  0  0  0  0  0  0  0  0
   66.8330   58.6570   31.6730 C   0  0  0  0  0  0  0  0  0  0  0  0
   67.2080   59.6570   32.5610 C   0  0  0  0  0  0  0  0  0  0  0  0
   66.5690   60.8350   32.6580 N   0  0  0  0  0  0  0  0  0  0  0  0
   65.4970   61.0840   31.8580 C   0  0  0  0  0  0  0  0  0  0  0  0
   65.0930   60.1300   30.9710 N   0  0  0  0  0  0  0  0  0  0  0  0
   65.7430   58.9640   30.8890 C   0  0  0  0  0  0  0  0  0  0  0  0
   68.3450   59.3680   33.3970 N   0  0  0  0  0  0  0  0  0  0  0  0
   60.4940   59.2990   26.4310 N   0  0  0  0  0  0  0  0  0  0  0  0
   60.9430   59.5550   27.6670 C   0  0  0  0  0  0  0  0  0  0  0  0
   60.5200   60.7550   28.0470 N   0  0  0  0  0  0  0  0  0  0  0  0
   59.7700   61.2940   27.0300 C   0  0  0  0  0  0  0  0  0  0  0  0
   59.1060   62.5000   27.0000 C   0  0  0  0  0  0  0  0  0  0  0  0
   59.1590   63.2910   27.9660 O   0  0  0  0  0  0  0  0  0  0  0  0
   58.4040   62.7560   25.8750 N   0  0  0  0  0  0  0  0  0  0  0  0
   58.3670   61.8860   24.8610 C   0  0  0  0  0  0  0  0  0  0  0  0
   57.6160   62.1910   23.6930 N   0  0  0  0  0  0  0  0  0  0  0  0
   59.0380   60.7200   24.9450 N   0  0  0  0  0  0  0  0  0  0  0  0
   59.7700   60.3490   26.0130 C   0  0  0  0  0  0  0  0  0  0  0  0
   61.9572   55.2712   25.2856 H   0  0  0  0  0  0  0  0  0  0  0  0
   60.6067   55.1780   26.4098 H   0  0  0  0  0  0  0  0  0  0  0  0
   59.4388   55.4252   24.3343 H   0  0  0  0  0  0  0  0  0  0  0  0
   60.6718   56.3994   23.5891 H   0  0  0  0  0  0  0  0  0  0  0  0
   58.9634   58.0512   24.3769 H   0  0  0  0  0  0  0  0  0  0  0  0
   58.6972   57.2679   25.8827 H   0  0  0  0  0  0  0  0  0  0  0  0
   61.3101   58.6416   24.8573 H   0  0  0  0  0  0  0  0  0  0  0  0
   64.2230   56.8474   25.8934 H   0  0  0  0  0  0  0  0  0  0  0  0
   61.1537   57.7839   28.7959 H   0  0  0  0  0  0  0  0  0  0  0  0
   66.4637   56.0143   29.8768 H   0  0  0  0  0  0  0  0  0  0  0  0
   64.9626   62.0431   31.9258 H   0  0  0  0  0  0  0  0  0  0  0  0
   68.6750   60.0673   34.0774 H   0  0  0  0  0  0  0  0  0  0  0  0
   68.8280   58.4620   33.3143 H   0  0  0  0  0  0  0  0  0  0  0  0
   61.5641   58.8779   28.2717 H   0  0  0  0  0  0  0  0  0  0  0  0
   57.8851   63.6423   25.7966 H   0  0  0  0  0  0  0  0  0  0  0  0
   57.1032   63.0819   23.6285 H   0  0  0  0  0  0  0  0  0  0  0  0
   57.5848   61.5210   22.9113 H   0  0  0  0  0  0  0  0  0  0  0  0
  1  7  1  0
  2  1  1  0
  3  4  1  0
  3  2  1  0
  4  5  1  0
  5  1  1  0
  5 22  1  0
  6  7  2  0
  6 11  1  0
  7  8  1  0
  8  9  2  0
 10  9  1  0
 10 12  1  0
 11 10  2  0
 12 13  1  0
 12 20  1  0
 13 14  2  0
 14 15  1  0
 15 16  2  0
 16 17  1  0
 16 21  1  0
 18 17  2  0
 19 18  1  0
 20 19  2  0
 20 15  1  0
 22 23  1  0
 23 24  2  0
 25 24  1  0
 26 25  1  0
 26 27  2  0
 28 26  1  0
 29 31  2  0
 29 28  1  0
 30 29  1  0
 31 32  1  0
 32 22  1  0
 32 25  2  0
  2 33  1  0
  2 34  1  0
  3 35  1  0
  3 36  1  0
  4 37  1  0
  4 38  1  0
  5 39  1  6
  6 40  1  0
  8 41  1  0
 13 42  1  0
 18 43  1  0
 21 44  1  0
 21 45  1  0
 23 46  1  0
 28 47  1  0
 30 48  1  0
 30 49  1  0
M  END
>  <Score>  (1) 
-7.76308

$$$$
