
     RDKit          3D

 41 45  0  0  0  0  0  0  0  0999 V2000
   63.5010   56.9430   27.1330 C   0  0  0  0  0  0  0  0  0  0  0  0
   62.1830   57.4420   27.3530 C   0  0  0  0  0  0  0  0  0  0  0  0
   61.9830   58.1700   28.5230 C   0  0  0  0  0  0  0  0  0  0  0  0
   63.0060   58.3700   29.3720 N   0  0  0  0  0  0  0  0  0  0  0  0
   64.2460   57.8850   29.1380 C   0  0  0  0  0  0  0  0  0  0  0  0
   64.4900   57.1780   28.0270 N   0  0  0  0  0  0  0  0  0  0  0  0
   61.2680   57.0920   26.2980 C   0  0  0  0  0  0  0  0  0  0  0  0
   60.8510   55.7650   26.2930 C   0  0  0  0  0  0  0  0  0  0  0  0
   59.9820   55.2300   25.3730 C   0  0  0  0  0  0  0  0  0  0  0  0
   59.4830   56.0450   24.3850 C   0  0  0  0  0  0  0  0  0  0  0  0
   59.8760   57.3450   24.3670 C   0  0  0  0  0  0  0  0  0  0  0  0
   59.4230   58.2360   23.4100 C   0  0  0  0  0  0  0  0  0  0  0  0
   59.8150   59.5600   23.3810 C   0  0  0  0  0  0  0  0  0  0  0  0
   60.6900   60.0400   24.3320 C   0  0  0  0  0  0  0  0  0  0  0  0
   61.1720   59.1900   25.3110 C   0  0  0  0  0  0  0  0  0  0  0  0
   60.7460   57.8840   25.2890 C   0  0  0  0  0  0  0  0  0  0  0  0
   65.3010   58.1420   30.1050 C   0  0  0  0  0  0  0  0  0  0  0  0
   66.0690   57.0850   30.5820 C   0  0  0  0  0  0  0  0  0  0  0  0
   67.0710   57.3660   31.5080 C   0  0  0  0  0  0  0  0  0  0  0  0
   67.3120   58.6240   31.9480 N   0  0  0  0  0  0  0  0  0  0  0  0
   66.5390   59.5960   31.4510 C   0  0  0  0  0  0  0  0  0  0  0  0
   65.5460   59.3860   30.5460 N   0  0  0  0  0  0  0  0  0  0  0  0
   66.7190   60.9900   31.8630 C   0  0  0  0  0  0  0  0  0  0  0  0
   67.5520   61.8510   31.1720 C   0  0  0  0  0  0  0  0  0  0  0  0
   67.5190   63.1000   31.7940 C   0  0  0  0  0  0  0  0  0  0  0  0
   66.6570   62.9140   32.8390 C   0  0  0  0  0  0  0  0  0  0  0  0
   66.2130   61.6910   32.8540 O   0  0  0  0  0  0  0  0  0  0  0  0
   63.7165   56.3599   26.2255 H   0  0  0  0  0  0  0  0  0  0  0  0
   60.9888   58.5811   28.7524 H   0  0  0  0  0  0  0  0  0  0  0  0
   61.2427   55.1003   27.0771 H   0  0  0  0  0  0  0  0  0  0  0  0
   59.6914   54.1704   25.4261 H   0  0  0  0  0  0  0  0  0  0  0  0
   58.7847   55.6551   23.6298 H   0  0  0  0  0  0  0  0  0  0  0  0
   58.7229   57.8755   22.6419 H   0  0  0  0  0  0  0  0  0  0  0  0
   59.4292   60.2311   22.5995 H   0  0  0  0  0  0  0  0  0  0  0  0
   61.0035   61.0942   24.3124 H   0  0  0  0  0  0  0  0  0  0  0  0
   61.8721   59.5473   26.0805 H   0  0  0  0  0  0  0  0  0  0  0  0
   65.8901   56.0557   30.2376 H   0  0  0  0  0  0  0  0  0  0  0  0
   67.6861   56.5398   31.8942 H   0  0  0  0  0  0  0  0  0  0  0  0
   68.1425   61.5941   30.2802 H   0  0  0  0  0  0  0  0  0  0  0  0
   68.0582   64.0161   31.5109 H   0  0  0  0  0  0  0  0  0  0  0  0
   66.3776   63.6906   33.5662 H   0  0  0  0  0  0  0  0  0  0  0  0
  1  2  2  0
  1  6  1  0
  2  3  1  0
  3  4  2  0
  5  4  1  0
  5 17  1  0
  6  5  2  0
  7  2  1  0
  8  7  2  0
  9  8  1  0
 10  9  2  0
 11 10  1  0
 11 16  2  0
 12 11  1  0
 13 12  2  0
 13 14  1  0
 14 15  2  0
 16 15  1  0
 16  7  1  0
 17 22  1  0
 17 18  2  0
 18 19  1  0
 19 20  2  0
 21 23  1  0
 21 20  1  0
 22 21  2  0
 23 27  1  0
 24 25  1  0
 24 23  2  0
 25 26  2  0
 26 27  1  0
  1 28  1  0
  3 29  1  0
  8 30  1  0
  9 31  1  0
 10 32  1  0
 12 33  1  0
 13 34  1  0
 14 35  1  0
 15 36  1  0
 18 37  1  0
 19 38  1  0
 24 39  1  0
 25 40  1  0
 26 41  1  0
M  END
>  <Score>  (1) 
-7.03209

$$$$
