
     RDKit          3D

 55 59  0  0  1  0  0  0  0  0999 V2000
   60.8770   58.1320   26.0190 C   0  0  2  0  0  0  0  0  0  0  0  0
   64.4410   57.1090   26.6500 C   0  0  0  0  0  0  0  0  0  0  0  0
   63.2850   57.4270   25.9270 C   0  0  0  0  0  0  0  0  0  0  0  0
   62.1450   57.7990   26.6770 C   0  0  0  0  0  0  0  0  0  0  0  0
   62.2520   57.8220   28.0220 N   0  0  0  0  0  0  0  0  0  0  0  0
   63.3730   57.5130   28.6990 C   0  0  0  0  0  0  0  0  0  0  0  0
   64.4880   57.1480   27.9760 N   0  0  0  0  0  0  0  0  0  0  0  0
   61.1100   59.0700   24.8540 C   0  0  0  0  0  0  0  0  0  0  0  0
   59.9790   58.8310   26.9890 C   0  0  0  0  0  0  0  0  0  0  0  0
   59.3890   60.1020   26.4880 C   0  0  0  0  0  0  0  0  0  0  0  0
   59.9920   61.2820   26.0190 C   0  0  0  0  0  0  0  0  0  0  0  0
   59.0100   62.1280   25.6870 N   0  0  0  0  0  0  0  0  0  0  0  0
   57.8340   61.5640   25.9150 C   0  0  0  0  0  0  0  0  0  0  0  0
   58.0810   60.3400   26.3990 N   0  0  0  0  0  0  0  0  0  0  0  0
   55.1940   58.2410   26.9580 N   0  0  0  0  0  0  0  0  0  0  0  0
   55.9790   58.8520   26.0640 N   0  0  0  0  0  0  0  0  0  0  0  0
   56.9480   59.5120   26.7330 C   0  0  0  0  0  0  0  0  0  0  0  0
   56.7730   59.3130   28.1000 C   0  0  0  0  0  0  0  0  0  0  0  0
   55.6300   58.4860   28.2150 C   0  0  0  0  0  0  0  0  0  0  0  0
   55.0210   57.9780   29.4220 C   0  0  0  0  0  0  0  0  0  0  0  0
   53.8790   58.4080   29.7120 O   0  0  0  0  0  0  0  0  0  0  0  0
   55.7060   57.0460   30.2100 O   0  0  0  0  0  0  0  0  0  0  0  0
   60.1030   56.9320   25.5450 C   0  0  0  0  0  0  0  0  0  0  0  0
   59.0080   57.0340   24.6390 C   0  0  0  0  0  0  0  0  0  0  0  0
   59.0240   58.1200   23.7850 C   0  0  0  0  0  0  0  0  0  0  0  0
   58.0760   58.3570   22.7960 C   0  0  0  0  0  0  0  0  0  0  0  0
   57.0310   57.4440   22.6470 C   0  0  0  0  0  0  0  0  0  0  0  0
   56.9950   56.3550   23.4890 C   0  0  0  0  0  0  0  0  0  0  0  0
   55.9690   55.4020   23.4280 C   0  0  0  0  0  0  0  0  0  0  0  0
   55.8950   54.3190   24.2760 C   0  0  0  0  0  0  0  0  0  0  0  0
   56.8580   54.1340   25.2380 C   0  0  0  0  0  0  0  0  0  0  0  0
   57.8890   55.0350   25.3440 C   0  0  0  0  0  0  0  0  0  0  0  0
   57.9470   56.1270   24.4740 C   0  0  0  0  0  0  0  0  0  0  0  0
   65.3457   56.8153   26.0976 H   0  0  0  0  0  0  0  0  0  0  0  0
   63.2643   57.3893   24.8278 H   0  0  0  0  0  0  0  0  0  0  0  0
   63.3987   57.5506   29.7981 H   0  0  0  0  0  0  0  0  0  0  0  0
   61.3589   60.0718   25.2340 H   0  0  0  0  0  0  0  0  0  0  0  0
   61.9419   58.6934   24.2407 H   0  0  0  0  0  0  0  0  0  0  0  0
   60.1986   59.1264   24.2407 H   0  0  0  0  0  0  0  0  0  0  0  0
   59.1551   58.1488   27.2455 H   0  0  0  0  0  0  0  0  0  0  0  0
   60.6049   59.0992   27.8529 H   0  0  0  0  0  0  0  0  0  0  0  0
   61.0721   61.4744   25.9396 H   0  0  0  0  0  0  0  0  0  0  0  0
   56.8454   62.0138   25.7406 H   0  0  0  0  0  0  0  0  0  0  0  0
   54.3732   57.6651   26.7226 H   0  0  0  0  0  0  0  0  0  0  0  0
   57.3915   59.7133   28.9168 H   0  0  0  0  0  0  0  0  0  0  0  0
   55.2900   56.6967   31.0377 H   0  0  0  0  0  0  0  0  0  0  0  0
   60.8356   56.2668   25.0645 H   0  0  0  0  0  0  0  0  0  0  0  0
   59.6007   56.6095   26.4689 H   0  0  0  0  0  0  0  0  0  0  0  0
   59.8425   58.8466   23.8951 H   0  0  0  0  0  0  0  0  0  0  0  0
   58.1478   59.2422   22.1470 H   0  0  0  0  0  0  0  0  0  0  0  0
   56.2577   57.5902   21.8784 H   0  0  0  0  0  0  0  0  0  0  0  0
   55.1851   55.5249   22.6662 H   0  0  0  0  0  0  0  0  0  0  0  0
   55.0653   53.6028   24.1829 H   0  0  0  0  0  0  0  0  0  0  0  0
   56.8038   53.2711   25.9180 H   0  0  0  0  0  0  0  0  0  0  0  0
   58.6659   54.8977   26.1105 H   0  0  0  0  0  0  0  0  0  0  0  0
  1  8  1  6
  1  4  1  0
  1  9  1  0
  2  7  2  0
  3  2  1  0
  3  4  2  0
  4  5  1  0
  5  6  2  0
  7  6  1  0
 10  9  1  0
 11 10  2  0
 12 13  2  0
 12 11  1  0
 13 14  1  0
 14 10  1  0
 14 17  1  0
 15 19  1  0
 16 17  2  0
 16 15  1  0
 17 18  1  0
 18 19  2  0
 19 20  1  0
 20 21  2  0
 20 22  1  0
 23  1  1  0
 24 23  1  0
 25 24  2  0
 26 25  1  0
 27 26  2  0
 27 28  1  0
 28 33  2  0
 29 28  1  0
 29 30  2  0
 30 31  1  0
 31 32  2  0
 33 24  1  0
 33 32  1  0
  2 34  1  0
  3 35  1  0
  6 36  1  0
  8 37  1  0
  8 38  1  0
  8 39  1  0
  9 40  1  0
  9 41  1  0
 11 42  1  0
 13 43  1  0
 15 44  1  0
 18 45  1  0
 22 46  1  0
 23 47  1  0
 23 48  1  0
 25 49  1  0
 26 50  1  0
 27 51  1  0
 29 52  1  0
 30 53  1  0
 31 54  1  0
 32 55  1  0
M  END
>  <Score>  (1) 
-7.04653

$$$$
