
     RDKit          3D

 50 55  0  0  1  0  0  0  0  0999 V2000
   61.4850   56.8700   26.3350 N   0  0  0  0  0  0  0  0  0  0  0  0
   60.9790   55.5430   26.0120 C   0  0  0  0  0  0  0  0  0  0  0  0
   60.0640   55.7770   24.8500 C   0  0  0  0  0  0  0  0  0  0  0  0
   59.4210   57.0880   25.3120 C   0  0  0  0  0  0  0  0  0  0  0  0
   60.8270   57.8520   25.5790 C   0  0  1  0  0  0  0  0  0  0  0  0
   63.8570   57.1520   26.9540 C   0  0  0  0  0  0  0  0  0  0  0  0
   62.4790   57.1160   27.3030 C   0  0  0  0  0  0  0  0  0  0  0  0
   62.1780   57.3590   28.6410 C   0  0  0  0  0  0  0  0  0  0  0  0
   63.1720   57.6140   29.5090 N   0  0  0  0  0  0  0  0  0  0  0  0
   64.4470   57.6410   29.1360 C   0  0  0  0  0  0  0  0  0  0  0  0
   64.8100   57.4130   27.8700 N   0  0  0  0  0  0  0  0  0  0  0  0
   65.4630   57.9180   30.0960 N   0  0  0  0  0  0  0  0  0  0  0  0
   66.3920   56.9780   30.4400 C   0  0  0  0  0  0  0  0  0  0  0  0
   67.2800   57.4190   31.3680 N   0  0  0  0  0  0  0  0  0  0  0  0
   66.9000   58.6840   31.6230 C   0  0  0  0  0  0  0  0  0  0  0  0
   67.3630   59.6900   32.4540 C   0  0  0  0  0  0  0  0  0  0  0  0
   68.3720   59.4450   33.1750 O   0  0  0  0  0  0  0  0  0  0  0  0
   66.7270   60.8750   32.4610 N   0  0  0  0  0  0  0  0  0  0  0  0
   65.6470   61.1400   31.6920 C   0  0  0  0  0  0  0  0  0  0  0  0
   65.1040   62.4620   31.8370 N   0  0  0  0  0  0  0  0  0  0  0  0
   65.1650   60.1710   30.8600 N   0  0  0  0  0  0  0  0  0  0  0  0
   65.8080   58.9750   30.8540 C   0  0  0  0  0  0  0  0  0  0  0  0
   60.5060   59.1280   26.1930 C   0  0  0  0  0  0  0  0  0  0  0  0
   60.8900   59.7550   27.3780 C   0  0  0  0  0  0  0  0  0  0  0  0
   60.3380   60.9920   27.4810 N   0  0  0  0  0  0  0  0  0  0  0  0
   59.6020   61.1900   26.3810 C   0  0  0  0  0  0  0  0  0  0  0  0
   58.8770   62.3100   26.0640 C   0  0  0  0  0  0  0  0  0  0  0  0
   58.1880   62.3620   24.8920 C   0  0  0  0  0  0  0  0  0  0  0  0
   58.2520   61.2740   24.0710 C   0  0  0  0  0  0  0  0  0  0  0  0
   58.9910   60.1480   24.4070 C   0  0  0  0  0  0  0  0  0  0  0  0
   59.6880   60.0760   25.5770 C   0  0  0  0  0  0  0  0  0  0  0  0
   61.8015   54.8683   25.7323 H   0  0  0  0  0  0  0  0  0  0  0  0
   60.4699   55.0656   26.8622 H   0  0  0  0  0  0  0  0  0  0  0  0
   59.3236   54.9710   24.7391 H   0  0  0  0  0  0  0  0  0  0  0  0
   60.5504   55.8103   23.8639 H   0  0  0  0  0  0  0  0  0  0  0  0
   58.8147   57.5672   24.5292 H   0  0  0  0  0  0  0  0  0  0  0  0
   58.7014   57.0385   26.1425 H   0  0  0  0  0  0  0  0  0  0  0  0
   61.4750   58.1578   24.7443 H   0  0  0  0  0  0  0  0  0  0  0  0
   64.1520   56.9623   25.9114 H   0  0  0  0  0  0  0  0  0  0  0  0
   61.1334   57.3423   28.9852 H   0  0  0  0  0  0  0  0  0  0  0  0
   66.4183   55.9663   30.0091 H   0  0  0  0  0  0  0  0  0  0  0  0
   67.0799   61.6168   33.0824 H   0  0  0  0  0  0  0  0  0  0  0  0
   64.2805   62.7438   31.2863 H   0  0  0  0  0  0  0  0  0  0  0  0
   65.5382   63.1281   32.4917 H   0  0  0  0  0  0  0  0  0  0  0  0
   61.5538   59.3061   28.1316 H   0  0  0  0  0  0  0  0  0  0  0  0
   60.4627   61.6539   28.2602 H   0  0  0  0  0  0  0  0  0  0  0  0
   58.8526   63.1647   26.7560 H   0  0  0  0  0  0  0  0  0  0  0  0
   57.6001   63.2498   24.6160 H   0  0  0  0  0  0  0  0  0  0  0  0
   57.7035   61.2896   23.1177 H   0  0  0  0  0  0  0  0  0  0  0  0
   59.0150   59.2943   23.7137 H   0  0  0  0  0  0  0  0  0  0  0  0
  1  7  1  0
  2  1  1  0
  3  4  1  0
  3  2  1  0
  4  5  1  0
  5 23  1  0
  5  1  1  0
  6  7  2  0
  6 11  1  0
  7  8  1  0
  8  9  2  0
 10  9  1  0
 10 12  1  0
 11 10  2  0
 12 13  1  0
 12 22  1  0
 13 14  2  0
 14 15  1  0
 15 16  1  0
 16 18  1  0
 16 17  2  0
 19 20  1  0
 19 18  1  0
 21 19  2  0
 22 21  1  0
 22 15  2  0
 23 24  2  0
 24 25  1  0
 26 25  1  0
 27 26  2  0
 28 27  1  0
 29 30  1  0
 29 28  2  0
 30 31  2  0
 31 23  1  0
 31 26  1  0
  2 32  1  0
  2 33  1  0
  3 34  1  0
  3 35  1  0
  4 36  1  0
  4 37  1  0
  5 38  1  6
  6 39  1  0
  8 40  1  0
 13 41  1  0
 18 42  1  0
 20 43  1  0
 20 44  1  0
 24 45  1  0
 25 46  1  0
 27 47  1  0
 28 48  1  0
 29 49  1  0
 30 50  1  0
M  END
>  <Score>  (1) 
-7.49281

$$$$
