
     RDKit          3D

 47 51  0  0  1  0  0  0  0  0999 V2000
   59.9920   59.5160   24.2180 C   0  0  0  0  0  0  0  0  0  0  0  0
   59.7870   58.9800   22.9600 C   0  0  0  0  0  0  0  0  0  0  0  0
   58.6680   59.4450   22.3620 N   0  0  0  0  0  0  0  0  0  0  0  0
   58.1410   60.3030   23.2650 C   0  0  0  0  0  0  0  0  0  0  0  0
   56.9680   61.0310   23.0830 C   0  0  0  0  0  0  0  0  0  0  0  0
   56.5640   61.8630   24.0860 C   0  0  0  0  0  0  0  0  0  0  0  0
   57.3410   61.9470   25.2400 C   0  0  0  0  0  0  0  0  0  0  0  0
   58.4950   61.2240   25.4040 C   0  0  0  0  0  0  0  0  0  0  0  0
   58.9250   60.3700   24.4040 C   0  0  0  0  0  0  0  0  0  0  0  0
   59.0960   61.4910   26.6670 C   0  0  0  0  0  0  0  0  0  0  0  0
   60.1400   62.2350   27.0550 N   0  0  0  0  0  0  0  0  0  0  0  0
   60.4730   62.3060   28.3500 C   0  0  0  0  0  0  0  0  0  0  0  0
   59.8300   61.6750   29.3470 N   0  0  0  0  0  0  0  0  0  0  0  0
   58.7600   60.9020   29.0480 C   0  0  0  0  0  0  0  0  0  0  0  0
   58.1200   60.2870   30.0890 C   0  0  0  0  0  0  0  0  0  0  0  0
   57.0190   59.5120   29.8160 C   0  0  0  0  0  0  0  0  0  0  0  0
   56.5930   59.3770   28.5110 C   0  0  0  0  0  0  0  0  0  0  0  0
   57.2960   60.0300   27.5240 C   0  0  0  0  0  0  0  0  0  0  0  0
   58.4210   60.8320   27.7100 C   0  0  0  0  0  0  0  0  0  0  0  0
   60.9800   59.3510   25.2690 C   0  0  0  0  0  0  0  0  0  0  0  0
   60.7890   58.1980   26.1960 C   0  0  2  0  0  0  0  0  0  0  0  0
   64.3750   57.0370   26.6420 C   0  0  0  0  0  0  0  0  0  0  0  0
   63.1850   57.4180   26.0020 C   0  0  0  0  0  0  0  0  0  0  0  0
   62.0910   57.7750   26.8140 C   0  0  0  0  0  0  0  0  0  0  0  0
   62.2510   57.7320   28.1670 N   0  0  0  0  0  0  0  0  0  0  0  0
   63.4170   57.3590   28.7430 C   0  0  0  0  0  0  0  0  0  0  0  0
   64.4650   57.0150   27.9920 N   0  0  0  0  0  0  0  0  0  0  0  0
   60.2010   56.9720   25.5270 C   0  0  0  0  0  0  0  0  0  0  0  0
   60.4652   58.2500   22.4939 H   0  0  0  0  0  0  0  0  0  0  0  0
   58.3004   59.2016   21.4311 H   0  0  0  0  0  0  0  0  0  0  0  0
   56.3832   60.9378   22.1560 H   0  0  0  0  0  0  0  0  0  0  0  0
   55.6429   62.4560   23.9858 H   0  0  0  0  0  0  0  0  0  0  0  0
   57.0168   62.6179   26.0492 H   0  0  0  0  0  0  0  0  0  0  0  0
   61.3393   62.9286   28.6182 H   0  0  0  0  0  0  0  0  0  0  0  0
   58.4789   60.4103   31.1215 H   0  0  0  0  0  0  0  0  0  0  0  0
   56.4821   59.0038   30.6306 H   0  0  0  0  0  0  0  0  0  0  0  0
   55.7139   58.7632   28.2653 H   0  0  0  0  0  0  0  0  0  0  0  0
   56.9364   59.9075   26.4917 H   0  0  0  0  0  0  0  0  0  0  0  0
   61.9617   59.2317   24.7873 H   0  0  0  0  0  0  0  0  0  0  0  0
   60.8821   60.2469   25.8996 H   0  0  0  0  0  0  0  0  0  0  0  0
   60.0828   58.5677   26.9541 H   0  0  0  0  0  0  0  0  0  0  0  0
   65.2480   56.7519   26.0365 H   0  0  0  0  0  0  0  0  0  0  0  0
   63.1097   57.4370   24.9047 H   0  0  0  0  0  0  0  0  0  0  0  0
   63.5018   57.3391   29.8395 H   0  0  0  0  0  0  0  0  0  0  0  0
   59.8607   56.2625   26.2957 H   0  0  0  0  0  0  0  0  0  0  0  0
   59.3479   57.2702   24.8998 H   0  0  0  0  0  0  0  0  0  0  0  0
   60.9675   56.4934   24.8998 H   0  0  0  0  0  0  0  0  0  0  0  0
  1  9  1  0
  1 20  1  0
  2  1  2  0
  3  2  1  0
  3  4  1  0
  4  9  2  0
  5  4  1  0
  5  6  2  0
  6  7  1  0
  7  8  2  0
  8 10  1  0
  9  8  1  0
 10 11  2  0
 10 19  1  0
 11 12  1  0
 12 13  2  0
 14 13  1  0
 14 15  2  0
 16 15  1  0
 17 16  2  0
 18 19  2  0
 18 17  1  0
 19 14  1  0
 20 21  1  0
 21 24  1  0
 22 27  2  0
 23 22  1  0
 23 24  2  0
 24 25  1  0
 25 26  2  0
 27 26  1  0
 28 21  1  0
  2 29  1  0
  3 30  1  0
  5 31  1  0
  6 32  1  0
  7 33  1  0
 12 34  1  0
 15 35  1  0
 16 36  1  0
 17 37  1  0
 18 38  1  0
 20 39  1  0
 20 40  1  0
 21 41  1  1
 22 42  1  0
 23 43  1  0
 26 44  1  0
 28 45  1  0
 28 46  1  0
 28 47  1  0
M  END
>  <Score>  (1) 
-7.11964

$$$$
