
     RDKit          3D

 46 50  0  0  0  0  0  0  0  0999 V2000
   39.2370   31.9270   44.9760 C   0  0  0  0  0  0  0  0  0  0  0  0
   38.1420   32.5660   45.1110 O   0  0  0  0  0  0  0  0  0  0  0  0
   39.9250   31.6590   46.1810 N   0  0  0  0  0  0  0  0  0  0  0  0
   39.1190   32.2660   42.5920 C   0  0  0  0  0  0  0  0  0  0  0  0
   39.6600   31.5500   43.6520 C   0  0  0  0  0  0  0  0  0  0  0  0
   40.5700   30.5140   43.4800 C   0  0  0  0  0  0  0  0  0  0  0  0
   40.9500   30.1850   42.1930 C   0  0  0  0  0  0  0  0  0  0  0  0
   41.7920   29.2530   41.7080 N   0  0  0  0  0  0  0  0  0  0  0  0
   41.7910   29.3670   40.3840 C   0  0  0  0  0  0  0  0  0  0  0  0
   40.9660   30.3490   40.0300 N   0  0  0  0  0  0  0  0  0  0  0  0
   40.4070   30.9020   41.1300 C   0  0  0  0  0  0  0  0  0  0  0  0
   39.5100   31.9230   41.3040 C   0  0  0  0  0  0  0  0  0  0  0  0
   38.9210   32.6960   40.2240 C   0  0  0  0  0  0  0  0  0  0  0  0
   37.8410   33.5380   40.3210 C   0  0  0  0  0  0  0  0  0  0  0  0
   37.3150   34.2520   39.2660 C   0  0  0  0  0  0  0  0  0  0  0  0
   37.8850   34.1400   38.0140 C   0  0  0  0  0  0  0  0  0  0  0  0
   38.9700   33.2920   37.9250 C   0  0  0  0  0  0  0  0  0  0  0  0
   39.4530   32.6090   38.9930 N   0  0  0  0  0  0  0  0  0  0  0  0
   38.0900   30.1610   47.5130 F   0  0  0  0  0  0  0  0  0  0  0  0
   38.3590   31.4100   48.0160 C   0  0  0  0  0  0  0  0  0  0  0  0
   37.7090   31.8370   49.1390 C   0  0  0  0  0  0  0  0  0  0  0  0
   38.0230   33.0870   49.5860 C   0  0  0  0  0  0  0  0  0  0  0  0
   38.9320   33.8980   48.9740 C   0  0  0  0  0  0  0  0  0  0  0  0
   39.5780   33.4410   47.8380 C   0  0  0  0  0  0  0  0  0  0  0  0
   39.2930   32.1910   47.3520 C   0  0  0  0  0  0  0  0  0  0  0  0
   36.0790   29.3360   51.4700 C   0  0  0  0  0  0  0  0  0  0  0  0
   37.0340   30.1980   50.8930 C   0  0  0  0  0  0  0  0  0  0  0  0
   36.7400   30.9330   49.7650 C   0  0  0  0  0  0  0  0  0  0  0  0
   35.4870   30.7810   49.2440 N   0  0  0  0  0  0  0  0  0  0  0  0
   34.5730   29.9630   49.7890 C   0  0  0  0  0  0  0  0  0  0  0  0
   34.8720   29.2560   50.8830 N   0  0  0  0  0  0  0  0  0  0  0  0
   40.8060   31.1264   46.2147 H   0  0  0  0  0  0  0  0  0  0  0  0
   38.4016   33.0812   42.7674 H   0  0  0  0  0  0  0  0  0  0  0  0
   40.9769   29.9704   44.3454 H   0  0  0  0  0  0  0  0  0  0  0  0
   42.3367   28.5762   42.2613 H   0  0  0  0  0  0  0  0  0  0  0  0
   42.3790   28.7477   39.6907 H   0  0  0  0  0  0  0  0  0  0  0  0
   37.3640   33.6502   41.3058 H   0  0  0  0  0  0  0  0  0  0  0  0
   36.4455   34.9077   39.4210 H   0  0  0  0  0  0  0  0  0  0  0  0
   37.4994   34.6910   37.1435 H   0  0  0  0  0  0  0  0  0  0  0  0
   39.4626   33.1648   36.9497 H   0  0  0  0  0  0  0  0  0  0  0  0
   37.5159   33.4603   50.4880 H   0  0  0  0  0  0  0  0  0  0  0  0
   39.1485   34.8987   49.3761 H   0  0  0  0  0  0  0  0  0  0  0  0
   40.3161   34.0774   47.3279 H   0  0  0  0  0  0  0  0  0  0  0  0
   36.3135   28.7487   52.3701 H   0  0  0  0  0  0  0  0  0  0  0  0
   38.0304   30.2853   51.3509 H   0  0  0  0  0  0  0  0  0  0  0  0
   33.5754   29.8743   49.3341 H   0  0  0  0  0  0  0  0  0  0  0  0
  1  2  2  0
  1  3  1  0
  3 25  1  0
  4  5  2  0
  5  1  1  0
  6  5  1  0
  7  6  2  0
  8  7  1  0
  9  8  1  0
 10  9  2  0
 10 11  1  0
 11 12  2  0
 11  7  1  0
 12  4  1  0
 13 14  2  0
 13 12  1  0
 15 14  1  0
 16 15  2  0
 17 16  1  0
 17 18  2  0
 18 13  1  0
 19 20  1  0
 20 21  2  0
 21 22  1  0
 21 28  1  0
 23 22  2  0
 24 23  1  0
 25 24  2  0
 25 20  1  0
 27 26  2  0
 28 27  1  0
 29 28  2  0
 29 30  1  0
 30 31  2  0
 31 26  1  0
  3 32  1  0
  4 33  1  0
  6 34  1  0
  8 35  1  0
  9 36  1  0
 14 37  1  0
 15 38  1  0
 16 39  1  0
 17 40  1  0
 22 41  1  0
 23 42  1  0
 24 43  1  0
 26 44  1  0
 27 45  1  0
 30 46  1  0
M  END
>  <Score>  (1) 
-7.59901

>  <Score_dual>  (1) 
-7.11

>  <Choices>  (1) 
[None, 8, ['9-19', 285], 19, ['12-4', 210], 22, ['34-10', 105], 36, ['6-15', 180]]

$$$$
