
     RDKit          3D

 48 51  0  0  1  0  0  0  0  0999 V2000
   34.1700   30.1310   48.2320 F   0  0  0  0  0  0  0  0  0  0  0  0
   34.5120   29.8150   46.9410 C   0  0  0  0  0  0  0  0  0  0  0  0
   33.6300   29.1730   46.0930 C   0  0  0  0  0  0  0  0  0  0  0  0
   34.0300   28.8970   44.8080 C   0  0  0  0  0  0  0  0  0  0  0  0
   35.3050   29.2600   44.3680 C   0  0  0  0  0  0  0  0  0  0  0  0
   36.1440   29.9000   45.2630 C   0  0  0  0  0  0  0  0  0  0  0  0
   35.7890   30.1870   46.5290 C   0  0  0  0  0  0  0  0  0  0  0  0
   37.8790   32.1580   45.2840 Br  0  0  0  0  0  0  0  0  0  0  0  0
   37.6830   31.7700   47.1360 C   0  0  0  0  0  0  0  0  0  0  0  0
   36.7100   30.8520   47.4330 C   0  0  0  0  0  0  0  0  0  0  0  0
   36.5330   30.4940   48.7800 C   0  0  0  0  0  0  0  0  0  0  0  0
   37.3040   31.0420   49.7530 C   0  0  0  0  0  0  0  0  0  0  0  0
   38.2720   31.9690   49.3850 C   0  0  0  0  0  0  0  0  0  0  0  0
   38.4690   32.3450   48.0480 C   0  0  0  0  0  0  0  0  0  0  0  0
   39.3960   33.2460   47.6230 O   0  0  0  0  0  0  0  0  0  0  0  0
   32.3210   27.8440   47.6300 C   0  0  0  0  0  0  0  0  0  0  0  0
   32.3550   28.8540   46.6630 C   0  0  0  0  0  0  0  0  0  0  0  0
   31.1570   29.4650   46.3370 C   0  0  0  0  0  0  0  0  0  0  0  0
   30.0140   29.0810   46.9470 N   0  0  0  0  0  0  0  0  0  0  0  0
   30.0130   28.1090   47.8700 C   0  0  0  0  0  0  0  0  0  0  0  0
   31.1440   27.5060   48.2020 N   0  0  0  0  0  0  0  0  0  0  0  0
   27.7890   27.2670   47.4680 C   0  0  1  0  0  0  0  0  0  0  0  0
   28.7600   27.6800   48.5470 C   0  0  2  0  0  0  0  0  0  0  0  0
   28.2540   28.5660   49.4480 O   0  0  0  0  0  0  0  0  0  0  0  0
   27.5320   29.6200   48.9770 C   0  0  0  0  0  0  0  0  0  0  0  0
   26.5640   29.3270   47.8830 C   0  0  1  0  0  0  0  0  0  0  0  0
   27.1320   28.4460   46.7980 C   0  0  2  0  0  0  0  0  0  0  0  0
   28.5230   26.5860   46.4960 O   0  0  0  0  0  0  0  0  0  0  0  0
   25.3620   28.7920   48.3390 O   0  0  0  0  0  0  0  0  0  0  0  0
   26.0700   27.9640   46.0340 O   0  0  0  0  0  0  0  0  0  0  0  0
   33.3405   28.3859   44.1200 H   0  0  0  0  0  0  0  0  0  0  0  0
   35.6324   29.0435   43.3404 H   0  0  0  0  0  0  0  0  0  0  0  0
   37.1498   30.1881   44.9233 H   0  0  0  0  0  0  0  0  0  0  0  0
   35.7593   29.7599   49.0494 H   0  0  0  0  0  0  0  0  0  0  0  0
   37.1662   30.7595   50.8071 H   0  0  0  0  0  0  0  0  0  0  0  0
   38.9021   32.4211   50.1651 H   0  0  0  0  0  0  0  0  0  0  0  0
   39.9928   33.6883   48.2775 H   0  0  0  0  0  0  0  0  0  0  0  0
   33.2470   27.3277   47.9233 H   0  0  0  0  0  0  0  0  0  0  0  0
   31.1351   30.2637   45.5809 H   0  0  0  0  0  0  0  0  0  0  0  0
   26.9988   26.6549   47.9273 H   0  0  0  0  0  0  0  0  0  0  0  0
   28.9822   26.8237   49.2007 H   0  0  0  0  0  0  0  0  0  0  0  0
   26.9654   30.0406   49.8208 H   0  0  0  0  0  0  0  0  0  0  0  0
   28.2710   30.3051   48.5360 H   0  0  0  0  0  0  0  0  0  0  0  0
   26.3554   30.3141   47.4447 H   0  0  0  0  0  0  0  0  0  0  0  0
   27.8466   28.9998   46.1713 H   0  0  0  0  0  0  0  0  0  0  0  0
   29.1732   25.9828   46.9359 H   0  0  0  0  0  0  0  0  0  0  0  0
   25.3564   28.7895   49.3290 H   0  0  0  0  0  0  0  0  0  0  0  0
   25.3529   27.6385   46.6339 H   0  0  0  0  0  0  0  0  0  0  0  0
  2  1  1  0
  3 17  1  0
  3  2  2  0
  4  3  1  0
  5  4  2  0
  5  6  1  0
  6  7  2  0
  7  2  1  0
  7 10  1  0
  8  9  1  0
  9 10  2  0
  9 14  1  0
 10 11  1  0
 11 12  2  0
 13 12  1  0
 14 13  2  0
 15 14  1  0
 16 21  2  0
 17 16  1  0
 18 17  2  0
 18 19  1  0
 19 20  2  0
 20 21  1  0
 22 28  1  0
 22 23  1  0
 23 20  1  0
 23 24  1  0
 25 24  1  0
 26 29  1  0
 26 25  1  0
 27 30  1  0
 27 22  1  0
 27 26  1  0
  4 31  1  0
  5 32  1  0
  6 33  1  0
 11 34  1  0
 12 35  1  0
 13 36  1  0
 15 37  1  0
 16 38  1  0
 18 39  1  0
 22 40  1  1
 23 41  1  1
 25 42  1  0
 25 43  1  0
 26 44  1  6
 27 45  1  6
 28 46  1  0
 29 47  1  0
 30 48  1  0
M  END
>  <Score>  (1) 
-7.79664

>  <Score_dual>  (1) 
-7.92

>  <Choices>  (1) 
[None, 7, ['9-17', 0], 19, ['39-21', 75], 29, ['2-1', 0], 30, ['21-23', 210]]

$$$$
