
     RDKit          3D

 46 50  0  0  0  0  0  0  0  0999 V2000
   35.4330   29.2580   50.3980 C   0  0  0  0  0  0  0  0  0  0  0  0
   36.2350   29.9500   49.4890 C   0  0  0  0  0  0  0  0  0  0  0  0
   35.8990   29.8850   48.1520 C   0  0  0  0  0  0  0  0  0  0  0  0
   34.8160   29.1570   47.8120 N   0  0  0  0  0  0  0  0  0  0  0  0
   34.0510   28.4960   48.6890 C   0  0  0  0  0  0  0  0  0  0  0  0
   34.3780   28.5580   49.9980 N   0  0  0  0  0  0  0  0  0  0  0  0
   36.6460   30.5530   47.1180 C   0  0  0  0  0  0  0  0  0  0  0  0
   36.2140   30.4280   45.8140 C   0  0  0  0  0  0  0  0  0  0  0  0
   36.8210   31.0050   44.7210 C   0  0  0  0  0  0  0  0  0  0  0  0
   37.9510   31.7660   44.9730 C   0  0  0  0  0  0  0  0  0  0  0  0
   38.5820   32.3530   43.9390 N   0  0  0  0  0  0  0  0  0  0  0  0
   39.6710   33.0890   44.1570 C   0  0  0  0  0  0  0  0  0  0  0  0
   40.1280   33.2340   45.4410 C   0  0  0  0  0  0  0  0  0  0  0  0
   39.5280   32.6620   46.5380 C   0  0  0  0  0  0  0  0  0  0  0  0
   38.3990   31.9020   46.2810 C   0  0  0  0  0  0  0  0  0  0  0  0
   37.7710   31.3120   47.3610 C   0  0  0  0  0  0  0  0  0  0  0  0
   32.8850   27.7220   48.2370 C   0  0  0  0  0  0  0  0  0  0  0  0
   33.0920   26.4900   47.6450 C   0  0  0  0  0  0  0  0  0  0  0  0
   31.9360   25.8560   47.2600 C   0  0  0  0  0  0  0  0  0  0  0  0
   30.6810   26.3930   47.4450 C   0  0  0  0  0  0  0  0  0  0  0  0
   30.5780   27.6200   48.0420 C   0  0  0  0  0  0  0  0  0  0  0  0
   31.6860   28.2760   48.4350 N   0  0  0  0  0  0  0  0  0  0  0  0
   29.1770   26.9450   50.6320 Cl  0  0  0  0  0  0  0  0  0  0  0  0
   28.5570   28.0060   49.4060 C   0  0  0  0  0  0  0  0  0  0  0  0
   29.2840   28.2380   48.2670 C   0  0  0  0  0  0  0  0  0  0  0  0
   28.6590   29.1080   47.3820 C   0  0  0  0  0  0  0  0  0  0  0  0
   27.4480   29.7020   47.5700 C   0  0  0  0  0  0  0  0  0  0  0  0
   26.7510   29.4320   48.7420 C   0  0  0  0  0  0  0  0  0  0  0  0
   25.1980   30.1590   49.0420 Cl  0  0  0  0  0  0  0  0  0  0  0  0
   27.3240   28.5820   49.6450 C   0  0  0  0  0  0  0  0  0  0  0  0
   35.7010   29.2640   51.8180 N   0  0  0  0  0  0  0  0  0  0  0  0
   37.1071   30.5287   49.8275 H   0  0  0  0  0  0  0  0  0  0  0  0
   35.3150   29.8204   45.6333 H   0  0  0  0  0  0  0  0  0  0  0  0
   36.4296   30.8690   43.7020 H   0  0  0  0  0  0  0  0  0  0  0  0
   40.1951   33.5727   43.3196 H   0  0  0  0  0  0  0  0  0  0  0  0
   41.0285   33.8444   45.6036 H   0  0  0  0  0  0  0  0  0  0  0  0
   39.9203   32.7995   47.5564 H   0  0  0  0  0  0  0  0  0  0  0  0
   38.1565   31.4437   48.3828 H   0  0  0  0  0  0  0  0  0  0  0  0
   34.0920   26.0567   47.4958 H   0  0  0  0  0  0  0  0  0  0  0  0
   32.0164   24.8697   46.7797 H   0  0  0  0  0  0  0  0  0  0  0  0
   29.7823   25.8480   47.1203 H   0  0  0  0  0  0  0  0  0  0  0  0
   29.1896   29.3374   46.4462 H   0  0  0  0  0  0  0  0  0  0  0  0
   27.0307   30.3804   46.8113 H   0  0  0  0  0  0  0  0  0  0  0  0
   26.7934   28.3516   50.5806 H   0  0  0  0  0  0  0  0  0  0  0  0
   35.0878   28.7418   52.4600 H   0  0  0  0  0  0  0  0  0  0  0  0
   36.5052   29.7905   52.1881 H   0  0  0  0  0  0  0  0  0  0  0  0
  1 31  1  0
  2  1  2  0
  3  2  1  0
  4  3  2  0
  4  5  1  0
  5  6  2  0
  6  1  1  0
  7 16  1  0
  7  3  1  0
  8  7  2  0
  9 10  2  0
  9  8  1  0
 10 15  1  0
 11 12  2  0
 11 10  1  0
 12 13  1  0
 13 14  2  0
 15 14  1  0
 15 16  2  0
 17 22  1  0
 17  5  1  0
 18 17  2  0
 19 20  2  0
 19 18  1  0
 20 21  1  0
 21 25  1  0
 21 22  2  0
 24 30  2  0
 24 23  1  0
 25 24  1  0
 26 27  1  0
 26 25  2  0
 27 28  2  0
 28 29  1  0
 28 30  1  0
  2 32  1  0
  8 33  1  0
  9 34  1  0
 12 35  1  0
 13 36  1  0
 14 37  1  0
 16 38  1  0
 18 39  1  0
 19 40  1  0
 20 41  1  0
 26 42  1  0
 27 43  1  0
 30 44  1  0
 31 45  1  0
 31 46  1  0
M  END
>  <Score>  (1) 
-8.26832

>  <Score_dual>  (1) 
-7.49

>  <Choices>  (1) 
[None, 6, ['0-3', 0], 9, ['6-14', 330], 18, ['29-19', 180], 28, ['36-27', 300]]

$$$$
