
     RDKit          3D

 41 44  0  0  0  0  0  0  0  0999 V2000
   34.7030   29.0040   48.2470 C   0  0  0  0  0  0  0  0  0  0  0  0
   34.3250   27.7580   48.7150 C   0  0  0  0  0  0  0  0  0  0  0  0
   33.1670   27.2880   48.1500 C   0  0  0  0  0  0  0  0  0  0  0  0
   32.4440   27.9840   47.2060 C   0  0  0  0  0  0  0  0  0  0  0  0
   32.8970   29.2100   46.8060 C   0  0  0  0  0  0  0  0  0  0  0  0
   34.0300   29.7130   47.3340 N   0  0  0  0  0  0  0  0  0  0  0  0
   29.8770   29.1080   46.9320 Cl  0  0  0  0  0  0  0  0  0  0  0  0
   30.8080   30.0180   45.7890 C   0  0  0  0  0  0  0  0  0  0  0  0
   32.1820   29.9940   45.8190 C   0  0  0  0  0  0  0  0  0  0  0  0
   32.7900   30.7740   44.8430 C   0  0  0  0  0  0  0  0  0  0  0  0
   32.1230   31.5170   43.9120 C   0  0  0  0  0  0  0  0  0  0  0  0
   30.7360   31.5140   43.9140 C   0  0  0  0  0  0  0  0  0  0  0  0
   29.8590   32.4530   42.7350 Cl  0  0  0  0  0  0  0  0  0  0  0  0
   30.0890   30.7590   44.8580 C   0  0  0  0  0  0  0  0  0  0  0  0
   37.3550   30.0820   50.5540 C   0  0  0  0  0  0  0  0  0  0  0  0
   38.2560   30.7300   49.7040 C   0  0  0  0  0  0  0  0  0  0  0  0
   37.9490   30.7930   48.3630 C   0  0  0  0  0  0  0  0  0  0  0  0
   36.7920   30.2210   47.9630 N   0  0  0  0  0  0  0  0  0  0  0  0
   35.9320   29.6000   48.7800 C   0  0  0  0  0  0  0  0  0  0  0  0
   36.2430   29.5470   50.0810 N   0  0  0  0  0  0  0  0  0  0  0  0
   39.0020   33.4840   48.3640 F   0  0  0  0  0  0  0  0  0  0  0  0
   39.2610   32.6850   47.3090 C   0  0  0  0  0  0  0  0  0  0  0  0
   38.7520   31.4180   47.3350 C   0  0  0  0  0  0  0  0  0  0  0  0
   39.0750   30.6880   46.2100 C   0  0  0  0  0  0  0  0  0  0  0  0
   39.8350   31.1890   45.1740 C   0  0  0  0  0  0  0  0  0  0  0  0
   40.3200   32.4770   45.2100 C   0  0  0  0  0  0  0  0  0  0  0  0
   40.0240   33.2470   46.3120 C   0  0  0  0  0  0  0  0  0  0  0  0
   37.5860   29.9630   51.9710 N   0  0  0  0  0  0  0  0  0  0  0  0
   34.8985   27.1979   49.4683 H   0  0  0  0  0  0  0  0  0  0  0  0
   32.7956   26.3025   48.4676 H   0  0  0  0  0  0  0  0  0  0  0  0
   31.5208   27.5615   46.7827 H   0  0  0  0  0  0  0  0  0  0  0  0
   33.8895   30.7943   44.8187 H   0  0  0  0  0  0  0  0  0  0  0  0
   32.6781   32.1101   43.1703 H   0  0  0  0  0  0  0  0  0  0  0  0
   28.9894   30.7393   44.8790 H   0  0  0  0  0  0  0  0  0  0  0  0
   39.1825   31.1762   50.0946 H   0  0  0  0  0  0  0  0  0  0  0  0
   38.7077   29.6538   46.1355 H   0  0  0  0  0  0  0  0  0  0  0  0
   40.0569   30.5503   44.3064 H   0  0  0  0  0  0  0  0  0  0  0  0
   40.9253   32.8783   44.3838 H   0  0  0  0  0  0  0  0  0  0  0  0
   40.3873   34.2821   46.3930 H   0  0  0  0  0  0  0  0  0  0  0  0
   36.8990   29.4782   52.5659 H   0  0  0  0  0  0  0  0  0  0  0  0
   38.4382   30.3627   52.3892 H   0  0  0  0  0  0  0  0  0  0  0  0
  1  2  2  0
  1 19  1  0
  3  2  1  0
  4  3  2  0
  5  4  1  0
  5  6  2  0
  6  1  1  0
  8  9  2  0
  8  7  1  0
  9  5  1  0
 10  9  1  0
 11 12  1  0
 11 10  2  0
 12 14  2  0
 13 12  1  0
 14  8  1  0
 15 28  1  0
 16 15  2  0
 17 16  1  0
 18 17  2  0
 18 19  1  0
 19 20  2  0
 20 15  1  0
 22 23  2  0
 22 21  1  0
 23 17  1  0
 24 23  1  0
 25 26  1  0
 25 24  2  0
 26 27  2  0
 27 22  1  0
  2 29  1  0
  3 30  1  0
  4 31  1  0
 10 32  1  0
 11 33  1  0
 14 34  1  0
 16 35  1  0
 24 36  1  0
 25 37  1  0
 26 38  1  0
 27 39  1  0
 28 40  1  0
 28 41  1  0
M  END
>  <Score>  (1) 
-7.75213

>  <Score_dual>  (1) 
-7.11

>  <Choices>  (1) 
[None, 6, ['0-3', 0], 9, ['6-14', 330], 18, ['29-19', 180], 28, ['9-16', 0]]

$$$$
