
     RDKit          3D

 47 51  0  0  1  0  0  0  0  0999 V2000
   35.8780   29.7530   47.8110 C   0  0  0  0  0  0  0  0  0  0  0  0
   35.8850   30.3970   46.5640 C   0  0  0  0  0  0  0  0  0  0  0  0
   35.0310   29.8830   45.5810 C   0  0  0  0  0  0  0  0  0  0  0  0
   34.2550   28.7910   45.9150 N   0  0  0  0  0  0  0  0  0  0  0  0
   34.2870   28.2160   47.1150 C   0  0  0  0  0  0  0  0  0  0  0  0
   35.0990   28.6900   48.0780 N   0  0  0  0  0  0  0  0  0  0  0  0
   36.7540   30.2780   48.8250 N   0  0  0  0  0  0  0  0  0  0  0  0
   38.0930   30.7520   48.6380 C   0  0  0  0  0  0  0  0  0  0  0  0
   38.2290   31.7850   49.7590 C   0  0  2  0  0  0  0  0  0  0  0  0
   36.8560   31.8890   50.4140 C   0  0  0  0  0  0  0  0  0  0  0  0
   36.4490   30.4300   50.2350 C   0  0  0  0  0  0  0  0  0  0  0  0
   38.7110   33.1100   49.2410 C   0  0  0  0  0  0  0  0  0  0  0  0
   37.5850   33.8860   49.0440 F   0  0  0  0  0  0  0  0  0  0  0  0
   39.2610   32.9030   47.9990 F   0  0  0  0  0  0  0  0  0  0  0  0
   39.6070   33.7230   50.0810 F   0  0  0  0  0  0  0  0  0  0  0  0
   33.2580   26.8110   47.4700 S   0  0  0  0  0  0  0  0  0  0  0  0
   31.6710   27.0880   47.9660 C   0  0  0  0  0  0  0  0  0  0  0  0
   30.7250   26.6800   48.8540 C   0  0  0  0  0  0  0  0  0  0  0  0
   29.4570   27.1790   48.9620 C   0  0  0  0  0  0  0  0  0  0  0  0
   29.1800   28.2560   47.9810 C   0  0  0  0  0  0  0  0  0  0  0  0
   30.7320   28.4160   47.0550 S   0  0  0  0  0  0  0  0  0  0  0  0
   28.0880   29.0840   47.7660 C   0  0  0  0  0  0  0  0  0  0  0  0
   28.2340   30.0000   46.7540 N   0  0  0  0  0  0  0  0  0  0  0  0
   27.3310   30.9490   46.4740 C   0  0  0  0  0  0  0  0  0  0  0  0
   26.1890   31.0870   47.1700 N   0  0  0  0  0  0  0  0  0  0  0  0
   25.9360   30.2440   48.1830 C   0  0  0  0  0  0  0  0  0  0  0  0
   24.7860   30.2720   48.9440 C   0  0  0  0  0  0  0  0  0  0  0  0
   24.5450   29.3520   49.9690 C   0  0  0  0  0  0  0  0  0  0  0  0
   25.5370   28.3890   50.1910 C   0  0  0  0  0  0  0  0  0  0  0  0
   26.6650   28.3940   49.4160 C   0  0  0  0  0  0  0  0  0  0  0  0
   26.9010   29.2950   48.4170 C   0  0  0  0  0  0  0  0  0  0  0  0
   36.5314   31.2652   46.3682 H   0  0  0  0  0  0  0  0  0  0  0  0
   34.9801   30.3330   44.5785 H   0  0  0  0  0  0  0  0  0  0  0  0
   38.8241   29.9384   48.7544 H   0  0  0  0  0  0  0  0  0  0  0  0
   38.2806   31.1617   47.6345 H   0  0  0  0  0  0  0  0  0  0  0  0
   38.9865   31.4730   50.4931 H   0  0  0  0  0  0  0  0  0  0  0  0
   36.9166   32.1814   51.4727 H   0  0  0  0  0  0  0  0  0  0  0  0
   36.1709   32.6439   50.0007 H   0  0  0  0  0  0  0  0  0  0  0  0
   35.3809   30.2715   50.4449 H   0  0  0  0  0  0  0  0  0  0  0  0
   36.9480   29.7150   50.9057 H   0  0  0  0  0  0  0  0  0  0  0  0
   31.0060   25.8748   49.5488 H   0  0  0  0  0  0  0  0  0  0  0  0
   28.7215   26.8204   49.6972 H   0  0  0  0  0  0  0  0  0  0  0  0
   27.5314   31.6416   45.6432 H   0  0  0  0  0  0  0  0  0  0  0  0
   24.0317   31.0455   48.7372 H   0  0  0  0  0  0  0  0  0  0  0  0
   23.6240   29.3831   50.5697 H   0  0  0  0  0  0  0  0  0  0  0  0
   25.4107   27.6348   50.9817 H   0  0  0  0  0  0  0  0  0  0  0  0
   27.4280   27.6256   49.6094 H   0  0  0  0  0  0  0  0  0  0  0  0
  1  6  1  0
  1  7  1  0
  2  1  2  0
  3  4  2  0
  3  2  1  0
  4  5  1  0
  5 16  1  0
  5  6  2  0
  7 11  1  0
  8  7  1  0
  8  9  1  0
  9 10  1  0
 11 10  1  0
 12  9  1  0
 12 15  1  0
 13 12  1  0
 14 12  1  0
 16 17  1  0
 17 18  2  0
 18 19  1  0
 20 19  2  0
 21 17  1  0
 21 20  1  0
 22 20  1  0
 22 31  1  0
 23 22  2  0
 24 23  1  0
 24 25  2  0
 25 26  1  0
 26 31  2  0
 26 27  1  0
 27 28  2  0
 28 29  1  0
 30 29  2  0
 31 30  1  0
  2 32  1  0
  3 33  1  0
  8 34  1  0
  8 35  1  0
  9 36  1  1
 10 37  1  0
 10 38  1  0
 11 39  1  0
 11 40  1  0
 18 41  1  0
 19 42  1  0
 24 43  1  0
 27 44  1  0
 28 45  1  0
 29 46  1  0
 30 47  1  0
M  END
>  <Score>  (1) 
-7.28995

>  <Score_dual>  (1) 
-7.09

>  <Choices>  (1) 
[None, 6, ['13-5', 105], 17, ['11-12', 165], 24, ['17-12', 15], 25, ['25-11', 135], 32, ['47-22', 0]]

$$$$
