
     RDKit          3D

 49 53  0  0  0  0  0  0  0  0999 V2000
   36.5920   30.6670   49.3350 C   0  0  0  0  0  0  0  0  0  0  0  0
   36.6710   30.3100   50.6850 C   0  0  0  0  0  0  0  0  0  0  0  0
   35.7680   29.4060   51.2360 C   0  0  0  0  0  0  0  0  0  0  0  0
   34.8120   28.8990   50.3720 C   0  0  0  0  0  0  0  0  0  0  0  0
   34.7270   29.2490   49.0330 C   0  0  0  0  0  0  0  0  0  0  0  0
   35.6350   30.1370   48.5510 N   0  0  0  0  0  0  0  0  0  0  0  0
   33.7190   28.6750   48.2490 N   0  0  0  0  0  0  0  0  0  0  0  0
   32.6320   27.9990   48.9060 C   0  0  0  0  0  0  0  0  0  0  0  0
   31.7850   27.3500   47.8390 C   0  0  0  0  0  0  0  0  0  0  0  0
   31.2760   28.4000   46.8760 C   0  0  0  0  0  0  0  0  0  0  0  0
   32.3680   29.2810   46.3630 C   0  0  0  0  0  0  0  0  0  0  0  0
   33.6940   28.7160   46.7980 C   0  0  0  0  0  0  0  0  0  0  0  0
   38.9390   33.4600   49.0730 C   0  0  0  0  0  0  0  0  0  0  0  0
   39.3760   33.3690   47.7330 C   0  0  0  0  0  0  0  0  0  0  0  0
   38.8570   32.3580   46.9590 C   0  0  0  0  0  0  0  0  0  0  0  0
   37.9550   31.5100   47.5350 N   0  0  0  0  0  0  0  0  0  0  0  0
   37.5520   31.6130   48.8110 C   0  0  0  0  0  0  0  0  0  0  0  0
   38.0500   32.5830   49.5550 N   0  0  0  0  0  0  0  0  0  0  0  0
   39.2260   32.1600   45.5730 C   0  0  0  0  0  0  0  0  0  0  0  0
   39.5760   33.1790   44.7200 C   0  0  0  0  0  0  0  0  0  0  0  0
   39.9150   32.9150   43.4160 C   0  0  0  0  0  0  0  0  0  0  0  0
   39.9260   31.6470   42.8860 C   0  0  0  0  0  0  0  0  0  0  0  0
   40.2600   31.4190   41.6140 N   0  0  0  0  0  0  0  0  0  0  0  0
   40.2850   30.1940   41.0490 C   0  0  0  0  0  0  0  0  0  0  0  0
   39.9370   29.1650   41.8900 C   0  0  0  0  0  0  0  0  0  0  0  0
   39.5790   29.3190   43.2180 C   0  0  0  0  0  0  0  0  0  0  0  0
   39.5760   30.5930   43.7220 C   0  0  0  0  0  0  0  0  0  0  0  0
   39.2430   30.8970   45.0240 C   0  0  0  0  0  0  0  0  0  0  0  0
   37.4560   30.7489   51.3184 H   0  0  0  0  0  0  0  0  0  0  0  0
   35.8110   29.1116   52.2950 H   0  0  0  0  0  0  0  0  0  0  0  0
   34.0806   28.1798   50.7693 H   0  0  0  0  0  0  0  0  0  0  0  0
   33.0257   27.2326   49.5898 H   0  0  0  0  0  0  0  0  0  0  0  0
   32.0337   28.7110   49.4935 H   0  0  0  0  0  0  0  0  0  0  0  0
   32.3909   26.6144   47.2897 H   0  0  0  0  0  0  0  0  0  0  0  0
   30.9287   26.8473   48.3124 H   0  0  0  0  0  0  0  0  0  0  0  0
   30.7995   27.8951   46.0227 H   0  0  0  0  0  0  0  0  0  0  0  0
   30.5611   29.0349   47.4199 H   0  0  0  0  0  0  0  0  0  0  0  0
   32.2468   30.2953   46.7711 H   0  0  0  0  0  0  0  0  0  0  0  0
   32.3246   29.3280   45.2649 H   0  0  0  0  0  0  0  0  0  0  0  0
   33.8152   27.6996   46.3952 H   0  0  0  0  0  0  0  0  0  0  0  0
   34.5149   29.3447   46.4228 H   0  0  0  0  0  0  0  0  0  0  0  0
   39.3311   34.2555   49.7237 H   0  0  0  0  0  0  0  0  0  0  0  0
   40.1062   34.0822   47.3228 H   0  0  0  0  0  0  0  0  0  0  0  0
   39.5846   34.2164   45.0856 H   0  0  0  0  0  0  0  0  0  0  0  0
   40.1907   33.7578   42.7650 H   0  0  0  0  0  0  0  0  0  0  0  0
   40.5624   30.0319   39.9970 H   0  0  0  0  0  0  0  0  0  0  0  0
   39.9433   28.1450   41.4782 H   0  0  0  0  0  0  0  0  0  0  0  0
   39.3083   28.4549   43.8425 H   0  0  0  0  0  0  0  0  0  0  0  0
   38.9671   30.0592   45.6812 H   0  0  0  0  0  0  0  0  0  0  0  0
  1  2  2  0
  2  3  1  0
  4  3  2  0
  5  4  1  0
  6  5  2  0
  6  1  1  0
  7  8  1  0
  7  5  1  0
  9  8  1  0
 10  9  1  0
 11 12  1  0
 11 10  1  0
 12  7  1  0
 13 18  2  0
 14 13  1  0
 15 16  1  0
 15 14  2  0
 16 17  2  0
 17  1  1  0
 17 18  1  0
 19 15  1  0
 20 19  2  0
 21 20  1  0
 22 21  2  0
 22 27  1  0
 23 22  1  0
 24 23  2  0
 24 25  1  0
 25 26  2  0
 26 27  1  0
 27 28  2  0
 28 19  1  0
  2 29  1  0
  3 30  1  0
  4 31  1  0
  8 32  1  0
  8 33  1  0
  9 34  1  0
  9 35  1  0
 10 36  1  0
 10 37  1  0
 11 38  1  0
 11 39  1  0
 12 40  1  0
 12 41  1  0
 13 42  1  0
 14 43  1  0
 20 44  1  0
 21 45  1  0
 24 46  1  0
 25 47  1  0
 26 48  1  0
 28 49  1  0
M  END
>  <Score>  (1) 
-7.68903

>  <Score_dual>  (1) 
-7.17

>  <Choices>  (1) 
[None, 9, ['6-17', 90], 18, ['8-3', 15], 33, ['36-26', 345]]

$$$$
