
     RDKit          3D

 53 57  0  0  0  0  0  0  0  0999 V2000
   39.2430   31.7570   45.1460 C   0  0  0  0  0  0  0  0  0  0  0  0
   38.1300   32.3950   45.2090 O   0  0  0  0  0  0  0  0  0  0  0  0
   39.8820   31.5260   46.3810 N   0  0  0  0  0  0  0  0  0  0  0  0
   39.3000   32.0780   42.7650 C   0  0  0  0  0  0  0  0  0  0  0  0
   39.7230   31.3460   43.8410 C   0  0  0  0  0  0  0  0  0  0  0  0
   40.5590   30.2700   43.7250 C   0  0  0  0  0  0  0  0  0  0  0  0
   41.0130   29.8820   42.4640 C   0  0  0  0  0  0  0  0  0  0  0  0
   41.8120   28.9060   42.0470 N   0  0  0  0  0  0  0  0  0  0  0  0
   41.9080   28.9960   40.7340 C   0  0  0  0  0  0  0  0  0  0  0  0
   41.1710   30.0320   40.3130 N   0  0  0  0  0  0  0  0  0  0  0  0
   40.5800   30.6300   41.3790 C   0  0  0  0  0  0  0  0  0  0  0  0
   39.7270   31.7300   41.4760 C   0  0  0  0  0  0  0  0  0  0  0  0
   39.3260   32.4350   40.3840 O   0  0  0  0  0  0  0  0  0  0  0  0
   35.4770   33.4020   39.9520 N   0  0  0  0  0  0  0  0  0  0  0  0
   36.2040   34.2640   40.8790 C   0  0  0  0  0  0  0  0  0  0  0  0
   37.6720   34.0480   40.7260 C   0  0  0  0  0  0  0  0  0  0  0  0
   38.0300   32.7480   40.0210 C   0  0  0  0  0  0  0  0  0  0  0  0
   37.0810   31.6360   40.4400 C   0  0  0  0  0  0  0  0  0  0  0  0
   35.6440   32.0440   40.4420 C   0  0  0  0  0  0  0  0  0  0  0  0
   37.9770   30.0340   47.6500 F   0  0  0  0  0  0  0  0  0  0  0  0
   38.2050   31.2800   48.1440 C   0  0  0  0  0  0  0  0  0  0  0  0
   37.5050   31.7440   49.2220 C   0  0  0  0  0  0  0  0  0  0  0  0
   37.7910   33.0080   49.6600 C   0  0  0  0  0  0  0  0  0  0  0  0
   38.7370   33.8060   49.0650 C   0  0  0  0  0  0  0  0  0  0  0  0
   39.4420   33.3230   47.9700 C   0  0  0  0  0  0  0  0  0  0  0  0
   39.1600   32.0350   47.5110 C   0  0  0  0  0  0  0  0  0  0  0  0
   35.7880   29.2220   51.4730 C   0  0  0  0  0  0  0  0  0  0  0  0
   36.7810   30.0720   50.9240 C   0  0  0  0  0  0  0  0  0  0  0  0
   36.5100   30.8550   49.8190 C   0  0  0  0  0  0  0  0  0  0  0  0
   35.2460   30.7660   49.2880 N   0  0  0  0  0  0  0  0  0  0  0  0
   34.3100   29.9590   49.8130 C   0  0  0  0  0  0  0  0  0  0  0  0
   34.5800   29.2030   50.8850 N   0  0  0  0  0  0  0  0  0  0  0  0
   40.7845   31.0366   46.4643 H   0  0  0  0  0  0  0  0  0  0  0  0
   38.6275   32.9362   42.9110 H   0  0  0  0  0  0  0  0  0  0  0  0
   40.8718   29.7135   44.6208 H   0  0  0  0  0  0  0  0  0  0  0  0
   42.2742   28.2041   42.6425 H   0  0  0  0  0  0  0  0  0  0  0  0
   42.4981   28.3280   40.0893 H   0  0  0  0  0  0  0  0  0  0  0  0
   35.8675   33.4893   39.0029 H   0  0  0  0  0  0  0  0  0  0  0  0
   35.9654   35.3158   40.6628 H   0  0  0  0  0  0  0  0  0  0  0  0
   35.9070   34.0203   41.9097 H   0  0  0  0  0  0  0  0  0  0  0  0
   38.0870   34.8841   40.1440 H   0  0  0  0  0  0  0  0  0  0  0  0
   38.0953   33.9905   41.7397 H   0  0  0  0  0  0  0  0  0  0  0  0
   37.9444   32.8606   38.9301 H   0  0  0  0  0  0  0  0  0  0  0  0
   37.2023   30.7942   39.7424 H   0  0  0  0  0  0  0  0  0  0  0  0
   37.3401   31.3639   41.4738 H   0  0  0  0  0  0  0  0  0  0  0  0
   35.2566   31.9843   41.4698 H   0  0  0  0  0  0  0  0  0  0  0  0
   35.0908   31.3655   39.7760 H   0  0  0  0  0  0  0  0  0  0  0  0
   37.2394   33.4022   50.5262 H   0  0  0  0  0  0  0  0  0  0  0  0
   38.9343   34.8168   49.4514 H   0  0  0  0  0  0  0  0  0  0  0  0
   40.2055   33.9415   47.4755 H   0  0  0  0  0  0  0  0  0  0  0  0
   36.0000   28.5973   52.3532 H   0  0  0  0  0  0  0  0  0  0  0  0
   37.7796   30.1083   51.3838 H   0  0  0  0  0  0  0  0  0  0  0  0
   33.3097   29.9184   49.3572 H   0  0  0  0  0  0  0  0  0  0  0  0
  1  2  2  0
  1  3  1  0
  3 26  1  0
  4  5  2  0
  5  1  1  0
  6  5  1  0
  7  6  2  0
  8  7  1  0
  9  8  1  0
 10  9  2  0
 10 11  1  0
 11 12  2  0
 11  7  1  0
 12  4  1  0
 13 12  1  0
 14 19  1  0
 14 15  1  0
 16 15  1  0
 17 13  1  0
 17 18  1  0
 17 16  1  0
 18 19  1  0
 20 21  1  0
 21 22  2  0
 22 23  1  0
 22 29  1  0
 24 23  2  0
 25 24  1  0
 26 25  2  0
 26 21  1  0
 28 27  2  0
 29 28  1  0
 30 31  1  0
 30 29  2  0
 31 32  2  0
 32 27  1  0
  3 33  1  0
  4 34  1  0
  6 35  1  0
  8 36  1  0
  9 37  1  0
 14 38  1  0
 15 39  1  0
 15 40  1  0
 16 41  1  0
 16 42  1  0
 17 43  1  0
 18 44  1  0
 18 45  1  0
 19 46  1  0
 19 47  1  0
 23 48  1  0
 24 49  1  0
 25 50  1  0
 27 51  1  0
 28 52  1  0
 31 53  1  0
M  END
>  <Score>  (1) 
-7.42785

>  <Score_dual>  (1) 
-7.38

>  <Choices>  (1) 
[None, 8, ['9-19', 285], 19, ['12-4', 210], 22, ['34-10', 105], 36, ['2-1', 0], 37, ['8-15', 150]]

$$$$
