
     RDKit          3D

 43 47  0  0  0  0  0  0  0  0999 V2000
   38.8000   31.5720   47.1140 C   0  0  0  0  0  0  0  0  0  0  0  0
   39.4250   32.7940   47.0610 C   0  0  0  0  0  0  0  0  0  0  0  0
   40.2080   33.1910   46.0030 C   0  0  0  0  0  0  0  0  0  0  0  0
   40.3960   32.3590   44.9380 C   0  0  0  0  0  0  0  0  0  0  0  0
   39.7550   31.1390   45.0230 C   0  0  0  0  0  0  0  0  0  0  0  0
   39.0020   30.7650   46.0460 N   0  0  0  0  0  0  0  0  0  0  0  0
   39.1050   29.0870   43.7190 C   0  0  0  0  0  0  0  0  0  0  0  0
   39.9080   30.2000   43.9260 C   0  0  0  0  0  0  0  0  0  0  0  0
   40.8910   30.3290   42.9640 C   0  0  0  0  0  0  0  0  0  0  0  0
   41.0870   29.4710   41.9010 C   0  0  0  0  0  0  0  0  0  0  0  0
   41.9790   29.4510   40.8930 N   0  0  0  0  0  0  0  0  0  0  0  0
   41.7190   28.3810   40.1260 C   0  0  0  0  0  0  0  0  0  0  0  0
   40.6400   27.6930   40.6420 C   0  0  0  0  0  0  0  0  0  0  0  0
   40.2540   28.3990   41.7650 C   0  0  0  0  0  0  0  0  0  0  0  0
   39.2580   28.2040   42.6770 C   0  0  0  0  0  0  0  0  0  0  0  0
   37.4130   30.9120   50.5540 C   0  0  0  0  0  0  0  0  0  0  0  0
   38.3080   31.3680   49.5760 C   0  0  0  0  0  0  0  0  0  0  0  0
   37.9690   31.1540   48.2390 C   0  0  0  0  0  0  0  0  0  0  0  0
   36.8060   30.5240   47.9670 N   0  0  0  0  0  0  0  0  0  0  0  0
   35.9550   30.0920   48.9360 C   0  0  0  0  0  0  0  0  0  0  0  0
   36.2640   30.2880   50.2100 N   0  0  0  0  0  0  0  0  0  0  0  0
   34.7290   29.4260   48.5110 C   0  0  0  0  0  0  0  0  0  0  0  0
   34.1310   28.4980   49.3360 C   0  0  0  0  0  0  0  0  0  0  0  0
   32.9640   27.9090   48.8530 C   0  0  0  0  0  0  0  0  0  0  0  0
   32.4250   28.2200   47.6330 C   0  0  0  0  0  0  0  0  0  0  0  0
   33.0420   29.1570   46.8170 C   0  0  0  0  0  0  0  0  0  0  0  0
   34.2010   29.7600   47.2650 C   0  0  0  0  0  0  0  0  0  0  0  0
   39.2928   33.4874   47.9046 H   0  0  0  0  0  0  0  0  0  0  0  0
   40.6844   34.1824   46.0151 H   0  0  0  0  0  0  0  0  0  0  0  0
   41.0145   32.6403   44.0729 H   0  0  0  0  0  0  0  0  0  0  0  0
   38.2925   28.8992   44.4363 H   0  0  0  0  0  0  0  0  0  0  0  0
   41.5741   31.1866   43.0526 H   0  0  0  0  0  0  0  0  0  0  0  0
   42.7307   30.1378   40.7374 H   0  0  0  0  0  0  0  0  0  0  0  0
   42.2802   28.0960   39.2239 H   0  0  0  0  0  0  0  0  0  0  0  0
   40.1832   26.7753   40.2431 H   0  0  0  0  0  0  0  0  0  0  0  0
   38.5801   27.3433   42.5786 H   0  0  0  0  0  0  0  0  0  0  0  0
   37.6492   31.0642   51.6175 H   0  0  0  0  0  0  0  0  0  0  0  0
   39.2437   31.8761   49.8523 H   0  0  0  0  0  0  0  0  0  0  0  0
   34.5506   28.2373   50.3189 H   0  0  0  0  0  0  0  0  0  0  0  0
   32.4537   27.1620   49.4787 H   0  0  0  0  0  0  0  0  0  0  0  0
   31.5007   27.7257   47.2994 H   0  0  0  0  0  0  0  0  0  0  0  0
   32.6177   29.4140   45.8352 H   0  0  0  0  0  0  0  0  0  0  0  0
   34.7090   30.5062   46.6365 H   0  0  0  0  0  0  0  0  0  0  0  0
  1 18  1  0
  2  1  2  0
  3  2  1  0
  4  5  1  0
  4  3  2  0
  5  6  2  0
  6  1  1  0
  7  8  2  0
  8  5  1  0
  9  8  1  0
 10  9  2  0
 11 10  1  0
 12 13  2  0
 12 11  1  0
 13 14  1  0
 14 10  1  0
 14 15  2  0
 15  7  1  0
 17 16  2  0
 18 17  1  0
 19 18  2  0
 19 20  1  0
 20 21  2  0
 21 16  1  0
 22 20  1  0
 22 23  2  0
 24 23  1  0
 25 24  2  0
 26 27  2  0
 26 25  1  0
 27 22  1  0
  2 28  1  0
  3 29  1  0
  4 30  1  0
  7 31  1  0
  9 32  1  0
 11 33  1  0
 12 34  1  0
 13 35  1  0
 15 36  1  0
 16 37  1  0
 17 38  1  0
 23 39  1  0
 24 40  1  0
 25 41  1  0
 26 42  1  0
 27 43  1  0
M  END
>  <Score>  (1) 
-7.79358

>  <Score_dual>  (1) 
-7.4

>  <Choices>  (1) 
[None, 8, ['6-17', 345], 18, ['24-9', 180], 32, ['1-27', 30]]

$$$$
