
     RDKit          3D

 58 61  0  0  1  0  0  0  0  0999 V2000
   31.2130   26.9270   46.9780 C   0  0  0  0  0  0  0  0  0  0  0  0
   32.3870   26.6530   47.6360 C   0  0  0  0  0  0  0  0  0  0  0  0
   32.8020   25.3810   47.4940 C   0  0  0  0  0  0  0  0  0  0  0  0
   32.1350   24.4710   46.7810 N   0  0  0  0  0  0  0  0  0  0  0  0
   31.0050   24.7270   46.1460 C   0  0  0  0  0  0  0  0  0  0  0  0
   30.5300   25.9670   46.2400 N   0  0  0  0  0  0  0  0  0  0  0  0
   30.5760   28.2860   47.0130 C   0  0  1  0  0  0  0  0  0  0  0  0
   29.3240   28.5240   46.4080 C   0  0  0  0  0  0  0  0  0  0  0  0
   29.3570   28.3280   47.9240 C   0  0  1  0  0  0  0  0  0  0  0  0
   27.2360   27.2840   48.5340 C   0  0  2  0  0  0  0  0  0  0  0  0
   28.7690   27.1670   48.5710 C   0  0  2  0  0  0  0  0  0  0  0  0
   29.1070   26.8280   49.8290 O   0  0  0  0  0  0  0  0  0  0  0  0
   28.5740   27.4330   50.8990 C   0  0  0  0  0  0  0  0  0  0  0  0
   27.6040   28.5380   50.6730 C   0  0  2  0  0  0  0  0  0  0  0  0
   26.7240   28.3450   49.4640 C   0  0  1  0  0  0  0  0  0  0  0  0
   26.7620   26.0450   48.9700 O   0  0  0  0  0  0  0  0  0  0  0  0
   28.2650   29.7670   50.6700 O   0  0  0  0  0  0  0  0  0  0  0  0
   26.5120   29.5740   48.8370 O   0  0  0  0  0  0  0  0  0  0  0  0
   33.0730   27.6620   48.3880 C   0  0  0  0  0  0  0  0  0  0  0  0
   34.0920   28.4500   47.6470 C   0  0  0  0  0  0  0  0  0  0  0  0
   35.4370   30.6320   46.5590 F   0  0  0  0  0  0  0  0  0  0  0  0
   35.7640   30.1400   47.8030 C   0  0  0  0  0  0  0  0  0  0  0  0
   35.1160   29.0560   48.4090 C   0  0  0  0  0  0  0  0  0  0  0  0
   35.5760   28.7430   49.6210 C   0  0  0  0  0  0  0  0  0  0  0  0
   36.5890   29.3870   50.2610 C   0  0  0  0  0  0  0  0  0  0  0  0
   37.2360   30.4640   49.6620 C   0  0  0  0  0  0  0  0  0  0  0  0
   36.7760   30.7890   48.4320 C   0  0  0  0  0  0  0  0  0  0  0  0
   38.3290   31.1540   50.3580 C   0  0  0  0  0  0  0  0  0  0  0  0
   37.4580   31.8940   47.8180 O   0  0  0  0  0  0  0  0  0  0  0  0
   38.4860   31.5590   46.9860 C   0  0  0  0  0  0  0  0  0  0  0  0
   39.4180   32.4550   47.0450 O   0  0  0  0  0  0  0  0  0  0  0  0
   38.7250   30.4920   46.1230 N   0  0  0  0  0  0  0  0  0  0  0  0
   33.7358   25.0765   47.9893 H   0  0  0  0  0  0  0  0  0  0  0  0
   30.4814   23.9520   45.5670 H   0  0  0  0  0  0  0  0  0  0  0  0
   31.5305   28.8214   46.9026 H   0  0  0  0  0  0  0  0  0  0  0  0
   29.1008   29.5180   45.9930 H   0  0  0  0  0  0  0  0  0  0  0  0
   28.7684   28.0467   45.5873 H   0  0  0  0  0  0  0  0  0  0  0  0
   29.0611   28.8797   48.8285 H   0  0  0  0  0  0  0  0  0  0  0  0
   26.9012   27.5555   47.5220 H   0  0  0  0  0  0  0  0  0  0  0  0
   29.2109   26.3599   47.9682 H   0  0  0  0  0  0  0  0  0  0  0  0
   28.0565   26.6601   51.4862 H   0  0  0  0  0  0  0  0  0  0  0  0
   29.4296   27.9187   51.3910 H   0  0  0  0  0  0  0  0  0  0  0  0
   26.9009   28.5252   51.5188 H   0  0  0  0  0  0  0  0  0  0  0  0
   25.7485   27.9644   49.8009 H   0  0  0  0  0  0  0  0  0  0  0  0
   26.7541   26.0244   49.9598 H   0  0  0  0  0  0  0  0  0  0  0  0
   28.4223   30.0594   51.6027 H   0  0  0  0  0  0  0  0  0  0  0  0
   26.3906   30.2777   49.5227 H   0  0  0  0  0  0  0  0  0  0  0  0
   32.3194   28.3648   48.7731 H   0  0  0  0  0  0  0  0  0  0  0  0
   33.6278   27.1221   49.1695 H   0  0  0  0  0  0  0  0  0  0  0  0
   34.5725   27.7740   46.9244 H   0  0  0  0  0  0  0  0  0  0  0  0
   33.5353   29.2875   47.2013 H   0  0  0  0  0  0  0  0  0  0  0  0
   35.1000   27.8998   50.1430 H   0  0  0  0  0  0  0  0  0  0  0  0
   36.8999   29.0533   51.2620 H   0  0  0  0  0  0  0  0  0  0  0  0
   38.1862   31.0639   51.4450 H   0  0  0  0  0  0  0  0  0  0  0  0
   39.2893   30.6981   50.0753 H   0  0  0  0  0  0  0  0  0  0  0  0
   38.3304   32.2170   50.0753 H   0  0  0  0  0  0  0  0  0  0  0  0
   38.0260   29.7418   46.0258 H   0  0  0  0  0  0  0  0  0  0  0  0
   39.6007   30.4533   45.5821 H   0  0  0  0  0  0  0  0  0  0  0  0
  1  7  1  0
  1  2  1  0
  2 19  1  0
  3  2  2  0
  4  3  1  0
  5  6  1  0
  5  4  2  0
  6  1  2  0
  7  9  1  0
  8  7  1  0
  8  9  1  0
  9 11  1  0
 10 11  1  0
 10 16  1  0
 10 15  1  0
 11 12  1  0
 12 13  1  0
 14 17  1  0
 14 13  1  0
 15 18  1  0
 15 14  1  0
 20 19  1  0
 20 23  1  0
 21 22  1  0
 22 23  2  0
 22 27  1  0
 23 24  1  0
 24 25  2  0
 26 25  1  0
 26 28  1  0
 27 26  2  0
 29 27  1  0
 30 31  2  0
 30 29  1  0
 32 30  1  0
  3 33  1  0
  5 34  1  0
  7 35  1  1
  8 36  1  0
  8 37  1  0
  9 38  1  1
 10 39  1  6
 11 40  1  6
 13 41  1  0
 13 42  1  0
 14 43  1  1
 15 44  1  1
 16 45  1  0
 17 46  1  0
 18 47  1  0
 19 48  1  0
 19 49  1  0
 20 50  1  0
 20 51  1  0
 24 52  1  0
 25 53  1  0
 28 54  1  0
 28 55  1  0
 28 56  1  0
 32 57  1  0
 32 58  1  0
M  END
>  <Score>  (1) 
-7.61667

>  <Score_dual>  (1) 
-7.02

>  <Choices>  (1) 
[None, 6, ['16-25', 105], 9, ['4-12', 90], 22, ['9-10', 60], 32, ['2-1', 0], 33, ['12-1', 285], 35, ['3-5', 0], 40, ['21-24', 105]]

$$$$
