
     RDKit          3D

 42 46  0  0  0  0  0  0  0  0999 V2000
   38.7880   31.5540   47.0360 C   0  0  0  0  0  0  0  0  0  0  0  0
   39.4540   32.7530   47.0100 C   0  0  0  0  0  0  0  0  0  0  0  0
   40.2820   33.1310   45.9760 C   0  0  0  0  0  0  0  0  0  0  0  0
   40.4690   32.2930   44.9090 C   0  0  0  0  0  0  0  0  0  0  0  0
   39.7850   31.0960   44.9660 C   0  0  0  0  0  0  0  0  0  0  0  0
   38.9860   30.7400   45.9730 N   0  0  0  0  0  0  0  0  0  0  0  0
   39.1420   29.0510   43.6710 C   0  0  0  0  0  0  0  0  0  0  0  0
   39.9430   30.1670   43.8670 C   0  0  0  0  0  0  0  0  0  0  0  0
   40.9160   30.3070   42.8980 C   0  0  0  0  0  0  0  0  0  0  0  0
   41.1190   29.4610   41.8300 C   0  0  0  0  0  0  0  0  0  0  0  0
   41.9970   29.4400   40.8100 N   0  0  0  0  0  0  0  0  0  0  0  0
   41.7180   28.3570   40.0550 C   0  0  0  0  0  0  0  0  0  0  0  0
   40.6440   27.6600   40.5850 C   0  0  0  0  0  0  0  0  0  0  0  0
   40.2810   28.3740   41.7050 C   0  0  0  0  0  0  0  0  0  0  0  0
   39.2950   28.1670   42.6210 C   0  0  0  0  0  0  0  0  0  0  0  0
   37.2880   30.9200   50.4350 C   0  0  0  0  0  0  0  0  0  0  0  0
   38.2010   31.3530   49.4710 C   0  0  0  0  0  0  0  0  0  0  0  0
   37.9090   31.1440   48.1270 C   0  0  0  0  0  0  0  0  0  0  0  0
   36.7560   30.5340   47.8460 N   0  0  0  0  0  0  0  0  0  0  0  0
   35.8740   30.1160   48.7790 C   0  0  0  0  0  0  0  0  0  0  0  0
   36.1450   30.3100   50.0660 N   0  0  0  0  0  0  0  0  0  0  0  0
   34.6390   29.4580   48.3660 C   0  0  0  0  0  0  0  0  0  0  0  0
   34.0660   28.5110   49.1870 C   0  0  0  0  0  0  0  0  0  0  0  0
   32.9020   27.8790   48.8150 C   0  0  0  0  0  0  0  0  0  0  0  0
   32.3100   28.2010   47.6100 C   0  0  0  0  0  0  0  0  0  0  0  0
   32.9070   29.1630   46.7890 C   0  0  0  0  0  0  0  0  0  0  0  0
   34.0540   29.7620   47.1940 N   0  0  0  0  0  0  0  0  0  0  0  0
   39.3206   33.4451   47.8545 H   0  0  0  0  0  0  0  0  0  0  0  0
   40.7925   34.1049   46.0073 H   0  0  0  0  0  0  0  0  0  0  0  0
   41.1209   32.5566   44.0631 H   0  0  0  0  0  0  0  0  0  0  0  0
   38.3368   28.8589   44.3954 H   0  0  0  0  0  0  0  0  0  0  0  0
   41.5899   31.1719   42.9866 H   0  0  0  0  0  0  0  0  0  0  0  0
   42.7457   30.1259   40.6372 H   0  0  0  0  0  0  0  0  0  0  0  0
   42.2662   28.0680   39.1462 H   0  0  0  0  0  0  0  0  0  0  0  0
   40.1832   26.7397   40.1968 H   0  0  0  0  0  0  0  0  0  0  0  0
   38.6241   27.3006   42.5252 H   0  0  0  0  0  0  0  0  0  0  0  0
   37.5035   31.0780   51.5020 H   0  0  0  0  0  0  0  0  0  0  0  0
   39.1353   31.8510   49.7694 H   0  0  0  0  0  0  0  0  0  0  0  0
   34.5424   28.2588   50.1459 H   0  0  0  0  0  0  0  0  0  0  0  0
   32.4468   27.1234   49.4722 H   0  0  0  0  0  0  0  0  0  0  0  0
   31.3783   27.7059   47.2989 H   0  0  0  0  0  0  0  0  0  0  0  0
   32.4507   29.4309   45.8246 H   0  0  0  0  0  0  0  0  0  0  0  0
  1 18  1  0
  2  1  2  0
  3  2  1  0
  4  5  1  0
  4  3  2  0
  5  6  2  0
  6  1  1  0
  7  8  2  0
  8  5  1  0
  9  8  1  0
 10  9  2  0
 11 10  1  0
 12 13  2  0
 12 11  1  0
 13 14  1  0
 14 10  1  0
 14 15  2  0
 15  7  1  0
 17 16  2  0
 18 17  1  0
 19 18  2  0
 19 20  1  0
 20 21  2  0
 21 16  1  0
 22 20  1  0
 22 23  2  0
 24 23  1  0
 25 24  2  0
 26 27  2  0
 26 25  1  0
 27 22  1  0
  2 28  1  0
  3 29  1  0
  4 30  1  0
  7 31  1  0
  9 32  1  0
 11 33  1  0
 12 34  1  0
 13 35  1  0
 15 36  1  0
 16 37  1  0
 17 38  1  0
 23 39  1  0
 24 40  1  0
 25 41  1  0
 26 42  1  0
M  END
>  <Score>  (1) 
-7.50493

>  <Score_dual>  (1) 
-7.28

>  <Choices>  (1) 
[None, 8, ['6-17', 345], 18, ['24-9', 180], 32, ['6-13', 45]]

$$$$
