
     RDKit          3D

 45 49  0  0  0  0  0  0  0  0999 V2000
   39.2610   31.9140   44.9600 C   0  0  0  0  0  0  0  0  0  0  0  0
   38.1680   32.5570   45.0870 O   0  0  0  0  0  0  0  0  0  0  0  0
   39.9490   31.6520   46.1720 N   0  0  0  0  0  0  0  0  0  0  0  0
   39.1480   32.2240   42.5720 C   0  0  0  0  0  0  0  0  0  0  0  0
   39.6890   31.5210   43.6370 C   0  0  0  0  0  0  0  0  0  0  0  0
   40.5940   30.4940   43.4790 C   0  0  0  0  0  0  0  0  0  0  0  0
   40.9740   30.1550   42.1850 C   0  0  0  0  0  0  0  0  0  0  0  0
   41.8270   29.2090   41.7230 N   0  0  0  0  0  0  0  0  0  0  0  0
   41.8260   29.3090   40.4020 C   0  0  0  0  0  0  0  0  0  0  0  0
   40.9980   30.2900   40.0250 N   0  0  0  0  0  0  0  0  0  0  0  0
   40.4400   30.8480   41.1280 C   0  0  0  0  0  0  0  0  0  0  0  0
   39.5400   31.8700   41.2890 C   0  0  0  0  0  0  0  0  0  0  0  0
   38.9480   32.6320   40.2030 C   0  0  0  0  0  0  0  0  0  0  0  0
   39.3230   32.6100   38.8810 C   0  0  0  0  0  0  0  0  0  0  0  0
   38.7080   33.3680   37.9060 C   0  0  0  0  0  0  0  0  0  0  0  0
   37.6910   34.1800   38.2130 N   0  0  0  0  0  0  0  0  0  0  0  0
   37.3170   34.2070   39.5050 C   0  0  0  0  0  0  0  0  0  0  0  0
   37.9240   33.4620   40.4650 N   0  0  0  0  0  0  0  0  0  0  0  0
   38.1060   30.1560   47.5080 F   0  0  0  0  0  0  0  0  0  0  0  0
   38.3680   31.3970   48.0000 C   0  0  0  0  0  0  0  0  0  0  0  0
   37.7090   31.8350   49.1230 C   0  0  0  0  0  0  0  0  0  0  0  0
   38.0210   33.0850   49.5580 C   0  0  0  0  0  0  0  0  0  0  0  0
   38.9320   33.8950   48.9450 C   0  0  0  0  0  0  0  0  0  0  0  0
   39.5780   33.4230   47.8160 C   0  0  0  0  0  0  0  0  0  0  0  0
   39.3000   32.1710   47.3370 C   0  0  0  0  0  0  0  0  0  0  0  0
   36.0780   29.3470   51.4580 C   0  0  0  0  0  0  0  0  0  0  0  0
   37.0260   30.2060   50.8740 C   0  0  0  0  0  0  0  0  0  0  0  0
   36.7400   30.9330   49.7490 C   0  0  0  0  0  0  0  0  0  0  0  0
   35.4800   30.7790   49.2210 N   0  0  0  0  0  0  0  0  0  0  0  0
   34.5800   29.9630   49.7750 C   0  0  0  0  0  0  0  0  0  0  0  0
   34.8740   29.2600   50.8740 N   0  0  0  0  0  0  0  0  0  0  0  0
   40.8381   31.1335   46.2104 H   0  0  0  0  0  0  0  0  0  0  0  0
   38.4286   33.0391   42.7392 H   0  0  0  0  0  0  0  0  0  0  0  0
   41.0029   29.9592   44.3489 H   0  0  0  0  0  0  0  0  0  0  0  0
   42.3706   28.5418   42.2889 H   0  0  0  0  0  0  0  0  0  0  0  0
   42.4164   28.6808   39.7187 H   0  0  0  0  0  0  0  0  0  0  0  0
   40.1557   31.9548   38.5853 H   0  0  0  0  0  0  0  0  0  0  0  0
   39.0580   33.3037   36.8651 H   0  0  0  0  0  0  0  0  0  0  0  0
   36.4825   34.8615   39.7970 H   0  0  0  0  0  0  0  0  0  0  0  0
   37.5099   33.4647   50.4550 H   0  0  0  0  0  0  0  0  0  0  0  0
   39.1477   34.8992   49.3389 H   0  0  0  0  0  0  0  0  0  0  0  0
   40.3168   34.0554   47.3020 H   0  0  0  0  0  0  0  0  0  0  0  0
   36.3157   28.7670   52.3619 H   0  0  0  0  0  0  0  0  0  0  0  0
   38.0220   30.2963   51.3321 H   0  0  0  0  0  0  0  0  0  0  0  0
   33.5826   29.8676   49.3210 H   0  0  0  0  0  0  0  0  0  0  0  0
  1  2  2  0
  1  3  1  0
  3 25  1  0
  4  5  2  0
  5  1  1  0
  6  5  1  0
  7  6  2  0
  8  7  1  0
  9  8  1  0
 10  9  2  0
 10 11  1  0
 11 12  2  0
 11  7  1  0
 12  4  1  0
 13 18  1  0
 13 12  1  0
 14 13  2  0
 15 16  2  0
 15 14  1  0
 16 17  1  0
 17 18  2  0
 19 20  1  0
 20 21  2  0
 21 22  1  0
 21 28  1  0
 23 22  2  0
 24 23  1  0
 25 24  2  0
 25 20  1  0
 27 26  2  0
 28 27  1  0
 29 28  2  0
 29 30  1  0
 30 31  2  0
 31 26  1  0
  3 32  1  0
  4 33  1  0
  6 34  1  0
  8 35  1  0
  9 36  1  0
 14 37  1  0
 15 38  1  0
 17 39  1  0
 22 40  1  0
 23 41  1  0
 24 42  1  0
 26 43  1  0
 27 44  1  0
 30 45  1  0
M  END
>  <Score>  (1) 
-7.58527

>  <Score_dual>  (1) 
-7.09

>  <Choices>  (1) 
[None, 8, ['9-19', 285], 19, ['12-4', 210], 22, ['34-10', 105], 36, ['19-18', 345]]

$$$$
