
     RDKit          3D

 44 48  0  0  0  0  0  0  0  0999 V2000
   38.7250   31.4590   46.9920 C   0  0  0  0  0  0  0  0  0  0  0  0
   39.4050   32.6520   46.9970 C   0  0  0  0  0  0  0  0  0  0  0  0
   40.2620   33.0390   45.9870 C   0  0  0  0  0  0  0  0  0  0  0  0
   40.4690   32.2210   44.9110 C   0  0  0  0  0  0  0  0  0  0  0  0
   39.7730   31.0270   44.9300 C   0  0  0  0  0  0  0  0  0  0  0  0
   38.9470   30.6620   45.9100 N   0  0  0  0  0  0  0  0  0  0  0  0
   39.1620   29.0000   43.5850 C   0  0  0  0  0  0  0  0  0  0  0  0
   39.9440   30.1150   43.8170 C   0  0  0  0  0  0  0  0  0  0  0  0
   40.9300   30.2880   42.8580 C   0  0  0  0  0  0  0  0  0  0  0  0
   41.1330   29.4540   41.7770 C   0  0  0  0  0  0  0  0  0  0  0  0
   42.0200   29.4680   40.7670 N   0  0  0  0  0  0  0  0  0  0  0  0
   41.7820   28.4190   39.9720 C   0  0  0  0  0  0  0  0  0  0  0  0
   40.7240   27.7070   40.4690 C   0  0  0  0  0  0  0  0  0  0  0  0
   40.3140   28.3690   41.6180 C   0  0  0  0  0  0  0  0  0  0  0  0
   39.3230   28.1400   42.5250 C   0  0  0  0  0  0  0  0  0  0  0  0
   37.1390   30.8130   50.3420 C   0  0  0  0  0  0  0  0  0  0  0  0
   38.0780   31.2780   49.4060 C   0  0  0  0  0  0  0  0  0  0  0  0
   37.8220   31.0290   48.0420 C   0  0  0  0  0  0  0  0  0  0  0  0
   36.7000   30.3640   47.7150 N   0  0  0  0  0  0  0  0  0  0  0  0
   35.8130   29.9260   48.6330 C   0  0  0  0  0  0  0  0  0  0  0  0
   36.0420   30.1560   49.9400 N   0  0  0  0  0  0  0  0  0  0  0  0
   34.0650   29.0880   47.0320 C   0  0  0  0  0  0  0  0  0  0  0  0
   34.5830   29.2190   48.3010 C   0  0  0  0  0  0  0  0  0  0  0  0
   33.8220   28.6190   49.2790 C   0  0  0  0  0  0  0  0  0  0  0  0
   32.6480   27.9440   49.0260 C   0  0  0  0  0  0  0  0  0  0  0  0
   32.1700   27.8360   47.7530 C   0  0  0  0  0  0  0  0  0  0  0  0
   32.8970   28.4210   46.7420 C   0  0  0  0  0  0  0  0  0  0  0  0
   35.3190   30.1810   45.0760 N   0  0  0  0  0  0  0  0  0  0  0  0
   34.7710   29.6890   45.9450 C   0  0  0  0  0  0  0  0  0  0  0  0
   39.2593   33.3330   47.8484 H   0  0  0  0  0  0  0  0  0  0  0  0
   40.7797   34.0076   46.0476 H   0  0  0  0  0  0  0  0  0  0  0  0
   41.1436   32.4946   44.0863 H   0  0  0  0  0  0  0  0  0  0  0  0
   38.3533   28.7853   44.2991 H   0  0  0  0  0  0  0  0  0  0  0  0
   41.6000   31.1537   42.9665 H   0  0  0  0  0  0  0  0  0  0  0  0
   42.7605   30.1704   40.6283 H   0  0  0  0  0  0  0  0  0  0  0  0
   42.3473   28.1681   39.0624 H   0  0  0  0  0  0  0  0  0  0  0  0
   40.2859   26.7924   40.0428 H   0  0  0  0  0  0  0  0  0  0  0  0
   38.6564   27.2727   42.4095 H   0  0  0  0  0  0  0  0  0  0  0  0
   37.3057   30.9898   51.4148 H   0  0  0  0  0  0  0  0  0  0  0  0
   38.9815   31.8176   49.7262 H   0  0  0  0  0  0  0  0  0  0  0  0
   34.1708   28.6821   50.3203 H   0  0  0  0  0  0  0  0  0  0  0  0
   32.0911   27.4881   49.8579 H   0  0  0  0  0  0  0  0  0  0  0  0
   31.2337   27.2987   47.5416 H   0  0  0  0  0  0  0  0  0  0  0  0
   32.5446   28.3555   45.7020 H   0  0  0  0  0  0  0  0  0  0  0  0
  1  2  2  0
  1 18  1  0
  3  2  1  0
  4  5  1  0
  4  3  2  0
  5  6  2  0
  6  1  1  0
  7  8  2  0
  8  5  1  0
  9  8  1  0
 10  9  2  0
 11 10  1  0
 12 13  2  0
 12 11  1  0
 13 14  1  0
 14 10  1  0
 14 15  2  0
 15  7  1  0
 17 16  2  0
 18 17  1  0
 19 18  2  0
 19 20  1  0
 20 21  2  0
 21 16  1  0
 22 23  2  0
 23 20  1  0
 23 24  1  0
 25 24  2  0
 26 25  1  0
 27 22  1  0
 27 26  2  0
 28 29  3  0
 29 22  1  0
  2 30  1  0
  3 31  1  0
  4 32  1  0
  7 33  1  0
  9 34  1  0
 11 35  1  0
 12 36  1  0
 13 37  1  0
 15 38  1  0
 16 39  1  0
 17 40  1  0
 24 41  1  0
 25 42  1  0
 26 43  1  0
 27 44  1  0
M  END
>  <Score>  (1) 
-7.42752

>  <Score_dual>  (1) 
-7.13

>  <Choices>  (1) 
[None, 8, ['6-17', 345], 18, ['24-9', 180], 32, ['40-20', 15]]

$$$$
