
     RDKit          3D

 38 40  0  0  0  0  0  0  0  0999 V2000
   40.9360   24.3730   35.2750 C   0  0  0  0  0  0  0  0  0  0  0  0
   40.5360   23.3070   36.0620 C   0  0  0  0  0  0  0  0  0  0  0  0
   39.1650   23.1020   36.2510 C   0  0  0  0  0  0  0  0  0  0  0  0
   38.3100   23.9570   35.6540 N   0  0  0  0  0  0  0  0  0  0  0  0
   38.7510   24.9960   34.8850 C   0  0  0  0  0  0  0  0  0  0  0  0
   40.0490   25.2040   34.6970 N   0  0  0  0  0  0  0  0  0  0  0  0
   37.7410   25.8140   34.3180 N   0  0  0  0  0  0  0  0  0  0  0  0
   36.9950   26.7380   35.0800 C   0  0  0  0  0  0  0  0  0  0  0  0
   36.6810   28.0370   34.4260 C   0  0  0  0  0  0  0  0  0  0  0  0
   36.7240   28.0730   32.9370 C   0  0  0  0  0  0  0  0  0  0  0  0
   37.7700   27.1300   32.3460 C   0  0  0  0  0  0  0  0  0  0  0  0
   37.4060   25.7520   32.8960 C   0  0  0  0  0  0  0  0  0  0  0  0
   42.3800   24.6270   35.0380 C   0  0  0  0  0  0  0  0  0  0  0  0
   42.6980   24.9050   33.6640 N   0  0  0  0  0  0  0  0  0  0  0  0
   42.5940   23.9310   32.7140 C   0  0  0  0  0  0  0  0  0  0  0  0
   42.8870   24.1370   31.3730 C   0  0  0  0  0  0  0  0  0  0  0  0
   43.2970   25.4000   31.0310 C   0  0  0  0  0  0  0  0  0  0  0  0
   43.5620   25.5800   29.8070 O   0  0  0  0  0  0  0  0  0  0  0  0
   43.4030   26.3600   31.9480 N   0  0  0  0  0  0  0  0  0  0  0  0
   43.1070   26.1090   33.2350 C   0  0  0  0  0  0  0  0  0  0  0  0
   43.2280   27.0590   34.0520 O   0  0  0  0  0  0  0  0  0  0  0  0
   41.2762   22.6389   36.5264 H   0  0  0  0  0  0  0  0  0  0  0  0
   38.7959   22.2691   36.8675 H   0  0  0  0  0  0  0  0  0  0  0  0
   36.0414   26.2588   35.3465 H   0  0  0  0  0  0  0  0  0  0  0  0
   37.6345   26.9911   35.9385 H   0  0  0  0  0  0  0  0  0  0  0  0
   35.6663   28.3276   34.7357 H   0  0  0  0  0  0  0  0  0  0  0  0
   37.4790   28.7206   34.7512 H   0  0  0  0  0  0  0  0  0  0  0  0
   35.7350   27.7853   32.5509 H   0  0  0  0  0  0  0  0  0  0  0  0
   36.9994   29.0960   32.6410 H   0  0  0  0  0  0  0  0  0  0  0  0
   38.7807   27.4214   32.6678 H   0  0  0  0  0  0  0  0  0  0  0  0
   37.7746   27.1508   31.2462 H   0  0  0  0  0  0  0  0  0  0  0  0
   36.3330   25.5519   32.7595 H   0  0  0  0  0  0  0  0  0  0  0  0
   37.9443   24.9442   32.3786 H   0  0  0  0  0  0  0  0  0  0  0  0
   42.6857   25.4904   35.6471 H   0  0  0  0  0  0  0  0  0  0  0  0
   42.9184   23.7083   35.3140 H   0  0  0  0  0  0  0  0  0  0  0  0
   42.2606   22.9306   33.0272 H   0  0  0  0  0  0  0  0  0  0  0  0
   42.7956   23.3333   30.6275 H   0  0  0  0  0  0  0  0  0  0  0  0
   43.7140   27.3015   31.6691 H   0  0  0  0  0  0  0  0  0  0  0  0
  1  2  2  0
  2  3  1  0
  4  3  2  0
  5  4  1  0
  6  5  2  0
  6  1  1  0
  7  5  1  0
  7  8  1  0
  9  8  1  0
 10  9  1  0
 11 12  1  0
 11 10  1  0
 12  7  1  0
 13  1  1  0
 14 13  1  0
 15 14  1  0
 16 15  2  0
 17 16  1  0
 17 19  1  0
 18 17  2  0
 19 20  1  0
 20 14  1  0
 20 21  2  0
  2 22  1  0
  3 23  1  0
  8 24  1  0
  8 25  1  0
  9 26  1  0
  9 27  1  0
 10 28  1  0
 10 29  1  0
 11 30  1  0
 11 31  1  0
 12 32  1  0
 12 33  1  0
 13 34  1  0
 13 35  1  0
 15 36  1  0
 16 37  1  0
 19 38  1  0
M  ISO  8  22  14  23  14  24  13  25  13  26  13  27  13  28  13  29  13
M  ISO  8  30  13  31  13  32  13  33  13  34   8  35   8  36  14  37  14
M  ISO  1  38   9
M  END
>  <minimizedAffinity>  (1) 
-3.82892537

>  <minimizedRMSD>  (1) 
4.97556639

$$$$
