
     RDKit          3D

 30 32  0  0  0  0  0  0  0  0999 V2000
   38.7540   24.3180   31.7600 C   0  0  0  0  0  0  0  0  0  0  0  0
   37.6350   23.8350   32.4050 C   0  0  0  0  0  0  0  0  0  0  0  0
   37.7350   23.6750   33.7700 C   0  0  0  0  0  0  0  0  0  0  0  0
   38.8680   23.9670   34.4950 C   0  0  0  0  0  0  0  0  0  0  0  0
   39.9600   24.4480   33.8050 C   0  0  0  0  0  0  0  0  0  0  0  0
   39.9370   24.6360   32.4230 C   0  0  0  0  0  0  0  0  0  0  0  0
   39.8040   22.8050   37.8370 C   0  0  0  0  0  0  0  0  0  0  0  0
   38.8530   23.4140   38.6620 C   0  0  0  0  0  0  0  0  0  0  0  0
   37.8960   24.2200   38.0610 C   0  0  0  0  0  0  0  0  0  0  0  0
   37.9320   24.3760   36.7080 N   0  0  0  0  0  0  0  0  0  0  0  0
   38.8780   23.7630   35.9540 C   0  0  0  0  0  0  0  0  0  0  0  0
   39.8230   22.9730   36.4910 N   0  0  0  0  0  0  0  0  0  0  0  0
   38.6730   24.5350   30.0380 S   0  0  0  0  0  0  0  0  0  0  0  0
   39.5380   25.6630   29.5630 O   0  0  0  0  0  0  0  0  0  0  0  0
   39.1030   23.2310   29.4050 O   0  0  0  0  0  0  0  0  0  0  0  0
   36.1270   23.4220   31.5930 S   0  0  0  0  0  0  0  0  0  0  0  0
   36.0090   21.6200   31.4660 C   0  0  0  0  0  0  0  0  0  0  0  0
   36.9100   20.8110   30.8120 C   0  0  0  0  0  0  0  0  0  0  0  0
   36.2340   19.1780   31.0530 S   0  0  0  0  0  0  0  0  0  0  0  0
   34.7640   19.8620   32.0510 C   0  0  0  0  0  0  0  0  0  0  0  0
   34.9600   21.0910   32.0650 N   0  0  0  0  0  0  0  0  0  0  0  0
   36.8580   23.2915   34.3120 H   0  0  0  0  0  0  0  0  0  0  0  0
   40.8775   24.6910   34.3611 H   0  0  0  0  0  0  0  0  0  0  0  0
   40.8143   25.0185   31.8807 H   0  0  0  0  0  0  0  0  0  0  0  0
   40.5685   22.1630   38.2988 H   0  0  0  0  0  0  0  0  0  0  0  0
   38.8631   23.2594   39.7510 H   0  0  0  0  0  0  0  0  0  0  0  0
   37.1251   24.7220   38.6641 H   0  0  0  0  0  0  0  0  0  0  0  0
   37.3932   24.8658   29.6780 H   0  0  0  0  0  0  0  0  0  0  0  0
   37.8238   21.1006   30.2725 H   0  0  0  0  0  0  0  0  0  0  0  0
   33.9351   19.3019   32.5084 H   0  0  0  0  0  0  0  0  0  0  0  0
  1  2  2  0
  1  6  1  0
  2  3  1  0
  3  4  2  0
  4 11  1  0
  5  4  1  0
  6  5  2  0
  7  8  2  0
  9  8  1  0
 10  9  2  0
 11 12  2  0
 11 10  1  0
 12  7  1  0
 13  1  1  0
 14 13  2  0
 15 13  2  0
 16  2  1  0
 17 16  1  0
 17 21  1  0
 18 19  1  0
 18 17  2  0
 19 20  1  0
 20 21  2  0
  3 22  1  0
  5 23  1  0
  6 24  1  0
  7 25  1  0
  8 26  1  0
  9 27  1  0
 13 28  1  0
 18 29  1  0
 20 30  1  0
M  ISO  8  22  14  23  14  24  14  25  14  26  14  27  14  28  11  29  14
M  ISO  1  30  14
M  END
>  <minimizedAffinity>  (1) 
-4.55795813

>  <minimizedRMSD>  (1) 
3.00017881

$$$$
