
     RDKit          3D

 33 35  0  0  1  0  0  0  0  0999 V2000
   37.8880   24.2570   33.5740 N   0  0  0  0  0  0  0  0  0  0  0  0
   38.4710   23.5510   32.4830 C   0  0  0  0  0  0  0  0  0  0  0  0
   37.4670   23.6280   31.3640 C   0  0  0  0  0  0  0  0  0  0  0  0
   36.3360   24.4690   31.9230 C   0  0  0  0  0  0  0  0  0  0  0  0
   37.1500   25.3310   32.9200 C   0  0  2  0  0  0  0  0  0  0  0  0
   38.8380   24.8930   34.4430 C   0  0  0  0  0  0  0  0  0  0  0  0
   37.9540   24.2130   38.0570 C   0  0  0  0  0  0  0  0  0  0  0  0
   37.9300   24.7810   36.7860 C   0  0  0  0  0  0  0  0  0  0  0  0
   38.8200   24.3230   35.8150 C   0  0  0  0  0  0  0  0  0  0  0  0
   39.6890   23.3150   36.1800 N   0  0  0  0  0  0  0  0  0  0  0  0
   39.6730   22.7970   37.4220 C   0  0  0  0  0  0  0  0  0  0  0  0
   38.8150   23.2450   38.3450 N   0  0  0  0  0  0  0  0  0  0  0  0
   37.9360   26.2350   32.2880 O   0  0  0  0  0  0  0  0  0  0  0  0
   37.3740   27.3700   31.6510 C   0  0  0  0  0  0  0  0  0  0  0  0
   37.5470   27.9330   30.4000 C   0  0  0  0  0  0  0  0  0  0  0  0
   36.8560   29.0380   30.0750 C   0  0  0  0  0  0  0  0  0  0  0  0
   35.9490   29.6190   31.0290 C   0  0  0  0  0  0  0  0  0  0  0  0
   36.1650   28.4180   32.4880 S   0  0  0  0  0  0  0  0  0  0  0  0
   39.4175   24.0240   32.1822 H   0  0  0  0  0  0  0  0  0  0  0  0
   38.7012   22.5092   32.7505 H   0  0  0  0  0  0  0  0  0  0  0  0
   37.1079   22.6238   31.0946 H   0  0  0  0  0  0  0  0  0  0  0  0
   37.8954   24.0606   30.4478 H   0  0  0  0  0  0  0  0  0  0  0  0
   35.8533   25.0806   31.1465 H   0  0  0  0  0  0  0  0  0  0  0  0
   35.4965   23.9065   32.3576 H   0  0  0  0  0  0  0  0  0  0  0  0
   36.5730   25.9744   33.6005 H   0  0  0  0  0  0  0  0  0  0  0  0
   39.8452   24.7642   34.0200 H   0  0  0  0  0  0  0  0  0  0  0  0
   38.5654   25.9561   34.5176 H   0  0  0  0  0  0  0  0  0  0  0  0
   37.2545   24.5690   38.8277 H   0  0  0  0  0  0  0  0  0  0  0  0
   37.2157   25.5835   36.5500 H   0  0  0  0  0  0  0  0  0  0  0  0
   40.3766   21.9925   37.6821 H   0  0  0  0  0  0  0  0  0  0  0  0
   38.2433   27.4807   29.6785 H   0  0  0  0  0  0  0  0  0  0  0  0
   36.9830   29.4970   29.0834 H   0  0  0  0  0  0  0  0  0  0  0  0
   35.3092   30.5093   30.9395 H   0  0  0  0  0  0  0  0  0  0  0  0
  1  6  1  0
  2  1  1  0
  3  4  1  0
  3  2  1  0
  4  5  1  0
  5  1  1  0
  6  9  1  0
  7 12  2  0
  8  7  1  0
  9 10  1  0
  9  8  2  0
 10 11  2  0
 11 12  1  0
 13  5  1  0
 14 13  1  0
 14 18  1  0
 15 14  2  0
 16 15  1  0
 16 17  2  0
 17 18  1  0
  2 19  1  0
  2 20  1  0
  3 21  1  0
  3 22  1  0
  4 23  1  0
  4 24  1  0
  5 25  1  1
  6 26  1  0
  6 27  1  0
  7 28  1  0
  8 29  1  0
 11 30  1  0
 15 31  1  0
 16 32  1  0
 17 33  1  0
M  ISO  8  19  13  20  13  21  13  22  13  23  13  24  13  25  13  26   8
M  ISO  7  27   8  28  14  29  14  30  14  31  14  32  14  33  14
M  END
>  <minimizedAffinity>  (1) 
-4.23176575

>  <minimizedRMSD>  (1) 
3.55101824

$$$$
