
     RDKit          3D

 49 53  0  0  0  0  0  0  0  0999 V2000
   41.2020   22.5790   34.3940 C   0  0  0  0  0  0  0  0  0  0  0  0
   41.1070   23.7490   35.1650 C   0  0  0  0  0  0  0  0  0  0  0  0
   39.8370   24.2360   35.4570 C   0  0  0  0  0  0  0  0  0  0  0  0
   38.7650   23.5730   34.9940 N   0  0  0  0  0  0  0  0  0  0  0  0
   38.8560   22.4610   34.2600 C   0  0  0  0  0  0  0  0  0  0  0  0
   40.0690   21.9590   33.9580 N   0  0  0  0  0  0  0  0  0  0  0  0
   37.7410   21.7490   33.7640 N   0  0  0  0  0  0  0  0  0  0  0  0
   37.5910   21.4270   32.4330 C   0  0  0  0  0  0  0  0  0  0  0  0
   36.4600   20.7280   32.0660 C   0  0  0  0  0  0  0  0  0  0  0  0
   35.5350   20.3830   33.0240 C   0  0  0  0  0  0  0  0  0  0  0  0
   34.5000   19.7480   32.7060 O   0  0  0  0  0  0  0  0  0  0  0  0
   35.6660   20.6880   34.3090 N   0  0  0  0  0  0  0  0  0  0  0  0
   36.7930   21.3780   34.6440 C   0  0  0  0  0  0  0  0  0  0  0  0
   36.9450   21.6800   35.8560 O   0  0  0  0  0  0  0  0  0  0  0  0
   42.4170   24.2430   35.5230 C   0  0  0  0  0  0  0  0  0  0  0  0
   43.0940   23.5650   36.5390 C   0  0  0  0  0  0  0  0  0  0  0  0
   44.3390   23.9080   36.9860 C   0  0  0  0  0  0  0  0  0  0  0  0
   44.9970   24.9700   36.4350 C   0  0  0  0  0  0  0  0  0  0  0  0
   44.3660   25.6690   35.4280 C   0  0  0  0  0  0  0  0  0  0  0  0
   44.9450   26.7580   34.8060 C   0  0  0  0  0  0  0  0  0  0  0  0
   44.3210   27.4660   33.7940 C   0  0  0  0  0  0  0  0  0  0  0  0
   43.0670   27.0710   33.3880 C   0  0  0  0  0  0  0  0  0  0  0  0
   42.4700   25.9910   33.9920 C   0  0  0  0  0  0  0  0  0  0  0  0
   43.1160   25.3000   35.0010 C   0  0  0  0  0  0  0  0  0  0  0  0
   36.2420   20.3550   30.6740 C   0  0  0  0  0  0  0  0  0  0  0  0
   37.3080   19.5860   30.0830 N   0  0  0  0  0  0  0  0  0  0  0  0
   38.2930   20.1690   29.4010 C   0  0  0  0  0  0  0  0  0  0  0  0
   39.3370   19.4890   28.8150 C   0  0  0  0  0  0  0  0  0  0  0  0
   39.3170   18.1030   28.9760 C   0  0  0  0  0  0  0  0  0  0  0  0
   40.2250   17.3970   28.4790 O   0  0  0  0  0  0  0  0  0  0  0  0
   38.3150   17.5390   29.6680 N   0  0  0  0  0  0  0  0  0  0  0  0
   37.3060   18.2290   30.2300 C   0  0  0  0  0  0  0  0  0  0  0  0
   36.3630   17.7090   30.8810 O   0  0  0  0  0  0  0  0  0  0  0  0
   42.1890   22.1636   34.1424 H   0  0  0  0  0  0  0  0  0  0  0  0
   39.7130   25.1493   36.0574 H   0  0  0  0  0  0  0  0  0  0  0  0
   38.3471   21.7173   31.6886 H   0  0  0  0  0  0  0  0  0  0  0  0
   34.9601   20.4200   35.0096 H   0  0  0  0  0  0  0  0  0  0  0  0
   42.5954   22.7036   37.0074 H   0  0  0  0  0  0  0  0  0  0  0  0
   44.8121   23.3272   37.7915 H   0  0  0  0  0  0  0  0  0  0  0  0
   45.9995   25.2589   36.7837 H   0  0  0  0  0  0  0  0  0  0  0  0
   45.9469   27.0766   35.1296 H   0  0  0  0  0  0  0  0  0  0  0  0
   44.8175   28.3274   33.3235 H   0  0  0  0  0  0  0  0  0  0  0  0
   42.5467   27.6155   32.5863 H   0  0  0  0  0  0  0  0  0  0  0  0
   41.4677   25.6725   33.6697 H   0  0  0  0  0  0  0  0  0  0  0  0
   35.3188   19.7595   30.6193 H   0  0  0  0  0  0  0  0  0  0  0  0
   36.1847   21.2950   30.1056 H   0  0  0  0  0  0  0  0  0  0  0  0
   38.2707   21.2641   29.2996 H   0  0  0  0  0  0  0  0  0  0  0  0
   40.1333   20.0037   28.2574 H   0  0  0  0  0  0  0  0  0  0  0  0
   38.3187   16.5146   29.7755 H   0  0  0  0  0  0  0  0  0  0  0  0
  1  2  2  0
  2  3  1  0
  2 15  1  0
  4  3  2  0
  5  4  1  0
  6  5  2  0
  6  1  1  0
  7  5  1  0
  7 13  1  0
  8  7  1  0
  9  8  2  0
  9 10  1  0
 10 12  1  0
 11 10  2  0
 12 13  1  0
 13 14  2  0
 15 16  2  0
 16 17  1  0
 18 17  2  0
 19 18  1  0
 20 19  2  0
 21 20  1  0
 22 21  2  0
 22 23  1  0
 23 24  2  0
 24 19  1  0
 24 15  1  0
 25  9  1  0
 26 32  1  0
 26 25  1  0
 27 26  1  0
 28 29  1  0
 28 27  2  0
 29 31  1  0
 30 29  2  0
 31 32  1  0
 32 33  2  0
  1 34  1  0
  3 35  1  0
  8 36  1  0
 12 37  1  0
 16 38  1  0
 17 39  1  0
 18 40  1  0
 20 41  1  0
 21 42  1  0
 22 43  1  0
 23 44  1  0
 25 45  1  0
 25 46  1  0
 27 47  1  0
 28 48  1  0
 31 49  1  0
M  ISO  8  34  14  35  14  36  14  37   9  38  14  39  14  40  14  41  14
M  ISO  8  42  14  43  14  44  14  45   8  46   8  47  14  48  14  49   9
M  END
>  <minimizedAffinity>  (1) 
-5.74727201

>  <minimizedRMSD>  (1) 
1.55670524

$$$$
