
     RDKit          3D

 30 32  0  0  1  0  0  0  0  0999 V2000
   38.0630   23.5000   34.6500 C   0  0  0  0  0  0  0  0  0  0  0  0
   38.2950   24.6050   33.8400 C   0  0  0  0  0  0  0  0  0  0  0  0
   37.8140   24.2200   32.6260 N   0  0  0  0  0  0  0  0  0  0  0  0
   37.3430   22.9830   32.7470 C   0  0  0  0  0  0  0  0  0  0  0  0
   37.4840   22.5020   34.0020 N   0  0  0  0  0  0  0  0  0  0  0  0
   38.4140   23.4270   36.0700 C   0  0  0  0  0  0  0  0  0  0  0  0
   39.6130   22.8340   36.4640 C   0  0  0  0  0  0  0  0  0  0  0  0
   39.9060   22.7880   37.8450 C   0  0  0  0  0  0  0  0  0  0  0  0
   39.0230   23.3130   38.7020 N   0  0  0  0  0  0  0  0  0  0  0  0
   37.8560   23.8890   38.2890 C   0  0  0  0  0  0  0  0  0  0  0  0
   37.5420   23.9520   36.9760 N   0  0  0  0  0  0  0  0  0  0  0  0
   37.0610   21.1980   34.4030 C   0  0  1  0  0  0  0  0  0  0  0  0
   35.9710   20.9810   35.3520 C   0  0  0  0  0  0  0  0  0  0  0  0
   35.6610   20.8380   33.8890 C   0  0  2  0  0  0  0  0  0  0  0  0
   35.4940   19.5240   33.2150 C   0  0  0  0  0  0  0  0  0  0  0  0
   34.7000   19.5620   31.9440 C   0  0  0  0  0  0  0  0  0  0  0  0
   38.7580   25.5642   34.1148 H   0  0  0  0  0  0  0  0  0  0  0  0
   36.8903   22.4158   31.9203 H   0  0  0  0  0  0  0  0  0  0  0  0
   40.3090   22.4151   35.7224 H   0  0  0  0  0  0  0  0  0  0  0  0
   40.8387   22.3311   38.2074 H   0  0  0  0  0  0  0  0  0  0  0  0
   37.1629   24.3069   39.0340 H   0  0  0  0  0  0  0  0  0  0  0  0
   38.0859   20.7994   34.3777 H   0  0  0  0  0  0  0  0  0  0  0  0
   35.9801   20.0888   35.9953 H   0  0  0  0  0  0  0  0  0  0  0  0
   35.5398   21.5776   36.1694 H   0  0  0  0  0  0  0  0  0  0  0  0
   34.8881   21.2637   33.2322 H   0  0  0  0  0  0  0  0  0  0  0  0
   36.4943   19.1305   32.9812 H   0  0  0  0  0  0  0  0  0  0  0  0
   34.9281   18.8894   33.9129 H   0  0  0  0  0  0  0  0  0  0  0  0
   33.6275   19.6133   32.1831 H   0  0  0  0  0  0  0  0  0  0  0  0
   34.9879   20.4474   31.3582 H   0  0  0  0  0  0  0  0  0  0  0  0
   34.9020   18.6532   31.3582 H   0  0  0  0  0  0  0  0  0  0  0  0
  1  6  1  0
  2  1  2  0
  3  4  2  0
  3  2  1  0
  4  5  1  0
  5 12  1  0
  5  1  1  0
  6  7  2  0
  6 11  1  0
  7  8  1  0
  8  9  2  0
 10  9  1  0
 11 10  2  0
 12 13  1  0
 14 12  1  0
 14 13  1  0
 15 14  1  0
 16 15  1  0
  2 17  1  0
  4 18  1  0
  7 19  1  0
  8 20  1  0
 10 21  1  0
 12 22  1  1
 13 23  1  0
 13 24  1  0
 14 25  1  6
 15 26  1  0
 15 27  1  0
 16 28  1  0
 16 29  1  0
 16 30  1  0
M  ISO  8  17  14  18  14  19  14  20  14  21  14  22  13  23  13  24  13
M  ISO  6  25  13  26   8  27   8  28   8  29   8  30   8
M  END
>  <minimizedAffinity>  (1) 
-4.44785976

>  <minimizedRMSD>  (1) 
0.316969812

$$$$
