
     RDKit          3D

 22 22  0  0  0  0  0  0  0  0999 V2000
   39.3250   24.1080   35.9050 C   0  0  0  0  0  0  0  0  0  0  0  0
   38.5500   24.7010   36.9120 C   0  0  0  0  0  0  0  0  0  0  0  0
   38.2120   26.0540   36.7730 C   0  0  0  0  0  0  0  0  0  0  0  0
   38.6430   26.7350   35.6800 N   0  0  0  0  0  0  0  0  0  0  0  0
   39.3870   26.1270   34.7370 C   0  0  0  0  0  0  0  0  0  0  0  0
   39.7190   24.8510   34.8450 N   0  0  0  0  0  0  0  0  0  0  0  0
   38.0900   23.9540   38.0880 C   0  0  0  0  0  0  0  0  0  0  0  0
   39.1790   23.4540   38.7360 F   0  0  0  0  0  0  0  0  0  0  0  0
   37.2450   22.9290   37.8150 F   0  0  0  0  0  0  0  0  0  0  0  0
   37.5210   24.8410   39.0420 F   0  0  0  0  0  0  0  0  0  0  0  0
   39.7910   22.7070   35.8600 C   0  0  0  0  0  0  0  0  0  0  0  0
   40.4060   22.4220   34.6580 F   0  0  0  0  0  0  0  0  0  0  0  0
   40.6530   22.4420   36.9240 F   0  0  0  0  0  0  0  0  0  0  0  0
   38.7910   21.7920   36.0060 F   0  0  0  0  0  0  0  0  0  0  0  0
   39.8200   26.9500   33.5640 C   0  0  0  0  0  0  0  0  0  0  0  0
   38.5640   27.1760   32.7110 C   0  0  0  0  0  0  0  0  0  0  0  0
   37.6052   26.5580   37.5397 H   0  0  0  0  0  0  0  0  0  0  0  0
   40.2281   27.9132   33.9041 H   0  0  0  0  0  0  0  0  0  0  0  0
   40.6089   26.4433   32.9887 H   0  0  0  0  0  0  0  0  0  0  0  0
   37.6968   27.3320   33.3695 H   0  0  0  0  0  0  0  0  0  0  0  0
   38.7066   28.0629   32.0761 H   0  0  0  0  0  0  0  0  0  0  0  0
   38.3885   26.2950   32.0761 H   0  0  0  0  0  0  0  0  0  0  0  0
  1  2  2  0
  2  7  1  0
  3  2  1  0
  4  3  2  0
  5  6  2  0
  5  4  1  0
  6  1  1  0
  7  8  1  0
  7 10  1  0
  9  7  1  0
 11  1  1  0
 11 14  1  0
 11 13  1  0
 12 11  1  0
 15  5  1  0
 16 15  1  0
  3 17  1  0
 15 18  1  0
 15 19  1  0
 16 20  1  0
 16 21  1  0
 16 22  1  0
M  ISO  6  17  14  18   8  19   8  20   8  21   8  22   8
M  END
>  <minimizedAffinity>  (1) 
-4.2923007

>  <minimizedRMSD>  (1) 
1.47982979

$$$$
