
     RDKit          3D

 39 41  0  0  1  0  0  0  0  0999 V2000
   37.5870   25.5680   34.5980 N   0  0  0  0  0  0  0  0  0  0  0  0
   37.0600   25.8260   33.2740 C   0  0  0  0  0  0  0  0  0  0  0  0
   36.9950   27.3100   33.1480 C   0  0  0  0  0  0  0  0  0  0  0  0
   37.5350   27.8170   34.4760 C   0  0  0  0  0  0  0  0  0  0  0  0
   38.4970   26.6400   34.8160 C   0  0  2  0  0  0  0  0  0  0  0  0
   38.3420   24.3480   34.6400 C   0  0  0  0  0  0  0  0  0  0  0  0
   37.9640   23.7130   38.3590 C   0  0  0  0  0  0  0  0  0  0  0  0
   37.6600   24.1440   37.0650 C   0  0  0  0  0  0  0  0  0  0  0  0
   38.6070   23.9120   36.0480 C   0  0  0  0  0  0  0  0  0  0  0  0
   39.7650   23.2780   36.3990 N   0  0  0  0  0  0  0  0  0  0  0  0
   40.0020   22.8870   37.6560 C   0  0  0  0  0  0  0  0  0  0  0  0
   39.1010   23.1070   38.6260 N   0  0  0  0  0  0  0  0  0  0  0  0
   39.5760   26.6100   33.9810 O   0  0  0  0  0  0  0  0  0  0  0  0
   40.7930   26.6490   34.6130 C   0  0  2  0  0  0  0  0  0  0  0  0
   41.9350   27.1630   33.7900 C   0  0  0  0  0  0  0  0  0  0  0  0
   41.8980   25.7260   34.2090 C   0  0  1  0  0  0  0  0  0  0  0  0
   42.8060   25.2740   35.3270 C   0  0  0  0  0  0  0  0  0  0  0  0
   44.2330   25.7300   35.1540 C   0  0  0  0  0  0  0  0  0  0  0  0
   37.7266   25.4048   32.5070 H   0  0  0  0  0  0  0  0  0  0  0  0
   36.0723   25.3628   33.1327 H   0  0  0  0  0  0  0  0  0  0  0  0
   37.6202   27.6591   32.3130 H   0  0  0  0  0  0  0  0  0  0  0  0
   35.9777   27.6726   32.9389 H   0  0  0  0  0  0  0  0  0  0  0  0
   38.0730   28.7701   34.3652 H   0  0  0  0  0  0  0  0  0  0  0  0
   36.7758   28.0419   35.2395 H   0  0  0  0  0  0  0  0  0  0  0  0
   38.9684   26.6599   35.8097 H   0  0  0  0  0  0  0  0  0  0  0  0
   37.7755   23.5596   34.1228 H   0  0  0  0  0  0  0  0  0  0  0  0
   39.3092   24.5247   34.1467 H   0  0  0  0  0  0  0  0  0  0  0  0
   37.2396   23.8834   39.1691 H   0  0  0  0  0  0  0  0  0  0  0  0
   36.7081   24.6502   36.8466 H   0  0  0  0  0  0  0  0  0  0  0  0
   40.9472   22.3788   37.8977 H   0  0  0  0  0  0  0  0  0  0  0  0
   40.3278   26.8784   35.5830 H   0  0  0  0  0  0  0  0  0  0  0  0
   42.6709   27.8477   34.2368 H   0  0  0  0  0  0  0  0  0  0  0  0
   42.0265   27.6918   32.8298 H   0  0  0  0  0  0  0  0  0  0  0  0
   41.9820   24.7740   33.6643 H   0  0  0  0  0  0  0  0  0  0  0  0
   42.4219   25.6791   36.2748 H   0  0  0  0  0  0  0  0  0  0  0  0
   42.8110   24.1740   35.3198 H   0  0  0  0  0  0  0  0  0  0  0  0
   44.6933   25.8771   36.1422 H   0  0  0  0  0  0  0  0  0  0  0  0
   44.7967   24.9672   34.5968 H   0  0  0  0  0  0  0  0  0  0  0  0
   44.2499   26.6783   34.5968 H   0  0  0  0  0  0  0  0  0  0  0  0
  1  6  1  0
  1  5  1  0
  2  1  1  0
  3  2  1  0
  3  4  1  0
  4  5  1  0
  6  9  1  0
  7 12  2  0
  8  7  1  0
  9 10  1  0
  9  8  2  0
 10 11  2  0
 11 12  1  0
 13 14  1  0
 13  5  1  0
 15 16  1  0
 15 14  1  0
 16 14  1  0
 16 17  1  0
 18 17  1  0
  2 19  1  0
  2 20  1  0
  3 21  1  0
  3 22  1  0
  4 23  1  0
  4 24  1  0
  5 25  1  1
  6 26  1  0
  6 27  1  0
  7 28  1  0
  8 29  1  0
 11 30  1  0
 14 31  1  1
 15 32  1  0
 15 33  1  0
 16 34  1  6
 17 35  1  0
 17 36  1  0
 18 37  1  0
 18 38  1  0
 18 39  1  0
M  ISO  8  19  13  20  13  21  13  22  13  23  13  24  13  25  13  26   8
M  ISO  8  27   8  28  14  29  14  30  14  31  13  32  13  33  13  34  13
M  ISO  5  35   8  36   8  37   8  38   8  39   8
M  END
>  <minimizedAffinity>  (1) 
-4.143085

>  <minimizedRMSD>  (1) 
0.551025629

$$$$
