
     RDKit          3D

 43 47  0  0  0  0  0  0  0  0999 V2000
   39.6990   25.6130   32.5480 C   0  0  0  0  0  0  0  0  0  0  0  0
   39.9430   26.0070   33.9030 C   0  0  0  0  0  0  0  0  0  0  0  0
   40.8810   27.0200   34.0960 C   0  0  0  0  0  0  0  0  0  0  0  0
   41.5210   27.5860   33.0360 N   0  0  0  0  0  0  0  0  0  0  0  0
   41.2710   27.1800   31.7760 C   0  0  0  0  0  0  0  0  0  0  0  0
   40.3960   26.2350   31.5840 N   0  0  0  0  0  0  0  0  0  0  0  0
   38.7710   24.5850   32.1980 C   0  0  0  0  0  0  0  0  0  0  0  0
   39.1730   23.2720   32.2500 C   0  0  0  0  0  0  0  0  0  0  0  0
   38.3160   22.2180   31.9180 C   0  0  0  0  0  0  0  0  0  0  0  0
   37.0130   22.4910   31.5230 C   0  0  0  0  0  0  0  0  0  0  0  0
   36.6030   23.8070   31.4690 C   0  0  0  0  0  0  0  0  0  0  0  0
   35.3280   24.0690   31.0690 C   0  0  0  0  0  0  0  0  0  0  0  0
   34.8570   25.3590   30.9780 C   0  0  0  0  0  0  0  0  0  0  0  0
   35.7390   26.3790   31.3110 C   0  0  0  0  0  0  0  0  0  0  0  0
   37.0230   26.0900   31.7140 C   0  0  0  0  0  0  0  0  0  0  0  0
   37.4830   24.8040   31.8030 C   0  0  0  0  0  0  0  0  0  0  0  0
   37.7990   27.3100   31.9990 C   0  0  0  0  0  0  0  0  0  0  0  0
   36.9100   28.5870   31.7600 C   0  0  0  0  0  0  0  0  0  0  0  0
   39.2750   25.3840   34.9280 N   0  0  0  0  0  0  0  0  0  0  0  0
   38.0350   25.6610   35.3460 C   0  0  0  0  0  0  0  0  0  0  0  0
   37.6710   24.8630   36.3840 N   0  0  0  0  0  0  0  0  0  0  0  0
   38.7310   24.0530   36.6230 C   0  0  0  0  0  0  0  0  0  0  0  0
   38.9720   23.0550   37.5230 C   0  0  0  0  0  0  0  0  0  0  0  0
   40.1340   22.3600   37.5830 N   0  0  0  0  0  0  0  0  0  0  0  0
   41.0700   22.7220   36.6720 C   0  0  0  0  0  0  0  0  0  0  0  0
   40.8190   23.6950   35.8030 N   0  0  0  0  0  0  0  0  0  0  0  0
   39.7070   24.3950   35.7100 C   0  0  0  0  0  0  0  0  0  0  0  0
   41.1065   27.3657   35.1156 H   0  0  0  0  0  0  0  0  0  0  0  0
   41.7963   27.6383   30.9251 H   0  0  0  0  0  0  0  0  0  0  0  0
   40.2023   23.0426   32.5629 H   0  0  0  0  0  0  0  0  0  0  0  0
   38.6720   21.1785   31.9695 H   0  0  0  0  0  0  0  0  0  0  0  0
   36.3231   21.6759   31.2590 H   0  0  0  0  0  0  0  0  0  0  0  0
   34.6609   23.2326   30.8134 H   0  0  0  0  0  0  0  0  0  0  0  0
   33.8272   25.5728   30.6557 H   0  0  0  0  0  0  0  0  0  0  0  0
   35.4086   27.4266   31.2522 H   0  0  0  0  0  0  0  0  0  0  0  0
   38.1341   27.2912   33.0466 H   0  0  0  0  0  0  0  0  0  0  0  0
   38.6693   27.3473   31.3273 H   0  0  0  0  0  0  0  0  0  0  0  0
   36.6130   29.0137   32.7294 H   0  0  0  0  0  0  0  0  0  0  0  0
   37.4850   29.3330   31.1918 H   0  0  0  0  0  0  0  0  0  0  0  0
   36.0108   28.3067   31.1918 H   0  0  0  0  0  0  0  0  0  0  0  0
   37.3913   26.4366   34.9053 H   0  0  0  0  0  0  0  0  0  0  0  0
   38.1778   22.8005   38.2403 H   0  0  0  0  0  0  0  0  0  0  0  0
   42.0421   22.2077   36.6521 H   0  0  0  0  0  0  0  0  0  0  0  0
  1  2  1  0
  2  3  2  0
  2 19  1  0
  4  3  1  0
  5  4  2  0
  6  5  1  0
  6  1  2  0
  7  8  2  0
  7  1  1  0
  9  8  1  0
 10  9  2  0
 11 10  1  0
 11 16  2  0
 12 11  1  0
 13 12  2  0
 13 14  1  0
 14 15  2  0
 15 16  1  0
 15 17  1  0
 16  7  1  0
 18 17  1  0
 19 20  1  0
 19 27  1  0
 20 21  2  0
 21 22  1  0
 22 23  2  0
 23 24  1  0
 25 24  2  0
 26 25  1  0
 27 26  2  0
 27 22  1  0
  3 28  1  0
  5 29  1  0
  8 30  1  0
  9 31  1  0
 10 32  1  0
 12 33  1  0
 13 34  1  0
 14 35  1  0
 17 36  1  0
 17 37  1  0
 18 38  1  0
 18 39  1  0
 18 40  1  0
 20 41  1  0
 23 42  1  0
 25 43  1  0
M  ISO  8  28  14  29  14  30  14  31  14  32  14  33  14  34  14  35  14
M  ISO  8  36   8  37   8  38   8  39   8  40   8  41  14  42  14  43  14
M  END
>  <minimizedAffinity>  (1) 
-5.96064568

>  <minimizedRMSD>  (1) 
0.120576724

$$$$
