
     RDKit          3D

 31 33  0  0  0  0  0  0  0  0999 V2000
   39.6810   22.6050   38.2420 N   0  0  0  0  0  0  0  0  0  0  0  0
   38.5850   23.3560   38.0900 N   0  0  0  0  0  0  0  0  0  0  0  0
   38.6210   23.9440   36.8650 C   0  0  0  0  0  0  0  0  0  0  0  0
   39.7770   23.5540   36.2160 C   0  0  0  0  0  0  0  0  0  0  0  0
   40.4050   22.7260   37.1000 C   0  0  0  0  0  0  0  0  0  0  0  0
   41.6920   22.0560   36.8490 C   0  0  0  0  0  0  0  0  0  0  0  0
   42.7080   22.7650   36.2190 C   0  0  0  0  0  0  0  0  0  0  0  0
   43.8700   22.0520   36.0310 C   0  0  0  0  0  0  0  0  0  0  0  0
   44.0960   20.7850   36.3870 N   0  0  0  0  0  0  0  0  0  0  0  0
   43.0710   20.1280   37.0010 C   0  0  0  0  0  0  0  0  0  0  0  0
   41.9220   20.7880   37.2030 N   0  0  0  0  0  0  0  0  0  0  0  0
   37.5720   24.7970   36.4520 O   0  0  0  0  0  0  0  0  0  0  0  0
   37.8200   26.0580   35.9760 C   0  0  0  0  0  0  0  0  0  0  0  0
   38.4420   26.8970   36.6740 O   0  0  0  0  0  0  0  0  0  0  0  0
   37.3530   26.4420   34.6280 C   0  0  0  0  0  0  0  0  0  0  0  0
   37.5090   25.5200   33.6170 C   0  0  0  0  0  0  0  0  0  0  0  0
   37.0660   25.8780   32.3260 C   0  0  0  0  0  0  0  0  0  0  0  0
   36.5210   27.1130   32.2000 N   0  0  0  0  0  0  0  0  0  0  0  0
   36.3890   27.9700   33.1910 C   0  0  0  0  0  0  0  0  0  0  0  0
   36.7990   27.6720   34.4490 N   0  0  0  0  0  0  0  0  0  0  0  0
   35.7850   29.3170   33.0020 C   0  0  0  0  0  0  0  0  0  0  0  0
   35.8590   30.0620   34.1810 F   0  0  0  0  0  0  0  0  0  0  0  0
   34.4520   29.2650   32.6550 F   0  0  0  0  0  0  0  0  0  0  0  0
   36.4660   30.0240   32.0350 F   0  0  0  0  0  0  0  0  0  0  0  0
   39.9287   22.0420   39.0682 H   0  0  0  0  0  0  0  0  0  0  0  0
   40.1154   23.8460   35.2109 H   0  0  0  0  0  0  0  0  0  0  0  0
   42.5927   23.8105   35.8970 H   0  0  0  0  0  0  0  0  0  0  0  0
   44.6983   22.5805   35.5363 H   0  0  0  0  0  0  0  0  0  0  0  0
   43.1843   19.0822   37.3226 H   0  0  0  0  0  0  0  0  0  0  0  0
   37.9638   24.5371   33.8095 H   0  0  0  0  0  0  0  0  0  0  0  0
   37.1577   25.1935   31.4698 H   0  0  0  0  0  0  0  0  0  0  0  0
  2  1  1  0
  3  2  2  0
  4  3  1  0
  4  5  2  0
  5  1  1  0
  6  5  1  0
  6 11  1  0
  7  6  2  0
  8  7  1  0
  8  9  2  0
  9 10  1  0
 10 11  2  0
 12  3  1  0
 13 12  1  0
 13 14  2  0
 15 13  1  0
 16 15  2  0
 17 16  1  0
 18 17  2  0
 18 19  1  0
 19 20  2  0
 20 15  1  0
 21 19  1  0
 21 22  1  0
 23 21  1  0
 24 21  1  0
  1 25  1  0
  4 26  1  0
  7 27  1  0
  8 28  1  0
 10 29  1  0
 16 30  1  0
 17 31  1  0
M  ISO  7  25   9  26  14  27  14  28  14  29  14  30  14  31  14
M  END
>  <minimizedAffinity>  (1) 
-5.56788301

>  <minimizedRMSD>  (1) 
0.3072851

$$$$
