
     RDKit          3D

 44 48  0  0  0  0  0  0  0  0999 V2000
   36.6970   28.3880   33.1030 C   0  0  0  0  0  0  0  0  0  0  0  0
   35.8210   29.2180   33.8260 C   0  0  0  0  0  0  0  0  0  0  0  0
   35.2530   30.2370   33.1460 C   0  0  0  0  0  0  0  0  0  0  0  0
   35.5640   30.3850   31.8220 C   0  0  0  0  0  0  0  0  0  0  0  0
   36.7630   28.9840   31.4640 S   0  0  0  0  0  0  0  0  0  0  0  0
   37.1180   26.7110   34.9520 C   0  0  0  0  0  0  0  0  0  0  0  0
   37.3880   27.2470   33.7010 C   0  0  0  0  0  0  0  0  0  0  0  0
   38.3990   26.6970   32.8920 C   0  0  0  0  0  0  0  0  0  0  0  0
   39.0450   25.6370   33.4470 N   0  0  0  0  0  0  0  0  0  0  0  0
   38.7800   25.1180   34.6640 C   0  0  0  0  0  0  0  0  0  0  0  0
   37.8070   25.6750   35.4010 N   0  0  0  0  0  0  0  0  0  0  0  0
   39.5770   23.9760   35.1080 C   0  0  0  0  0  0  0  0  0  0  0  0
   40.3590   23.4020   34.1800 C   0  0  0  0  0  0  0  0  0  0  0  0
   41.2100   22.0100   35.0940 S   0  0  0  0  0  0  0  0  0  0  0  0
   40.2470   22.5340   36.6880 C   0  0  0  0  0  0  0  0  0  0  0  0
   39.6860   23.3870   36.2520 N   0  0  0  0  0  0  0  0  0  0  0  0
   40.3690   21.8830   37.9540 N   0  0  0  0  0  0  0  0  0  0  0  0
   35.2200   31.2750   30.7540 C   0  0  0  0  0  0  0  0  0  0  0  0
   36.0710   31.8450   30.0850 O   0  0  0  0  0  0  0  0  0  0  0  0
   33.8340   31.5240   30.4380 N   0  0  0  0  0  0  0  0  0  0  0  0
   34.1120   31.4620   33.7590 S   0  0  0  0  0  0  0  0  0  0  0  0
   33.2860   30.9660   35.2370 C   0  0  0  0  0  0  0  0  0  0  0  0
   33.5670   31.5730   36.3860 N   0  0  0  0  0  0  0  0  0  0  0  0
   32.9570   31.2210   37.5310 C   0  0  0  0  0  0  0  0  0  0  0  0
   32.0400   30.2360   37.5320 N   0  0  0  0  0  0  0  0  0  0  0  0
   31.7440   29.6110   36.3810 C   0  0  0  0  0  0  0  0  0  0  0  0
   30.8000   28.5800   36.3240 C   0  0  0  0  0  0  0  0  0  0  0  0
   30.5300   27.9700   35.1160 C   0  0  0  0  0  0  0  0  0  0  0  0
   31.1480   28.3200   33.9330 C   0  0  0  0  0  0  0  0  0  0  0  0
   32.0970   29.3490   33.9660 C   0  0  0  0  0  0  0  0  0  0  0  0
   32.3470   29.9420   35.1860 C   0  0  0  0  0  0  0  0  0  0  0  0
   35.6094   29.0456   34.8916 H   0  0  0  0  0  0  0  0  0  0  0  0
   36.3252   27.1508   35.5749 H   0  0  0  0  0  0  0  0  0  0  0  0
   38.6459   27.0910   31.8951 H   0  0  0  0  0  0  0  0  0  0  0  0
   40.4731   23.6857   33.1233 H   0  0  0  0  0  0  0  0  0  0  0  0
   39.8232   22.2187   38.7604 H   0  0  0  0  0  0  0  0  0  0  0  0
   41.0028   21.0780   38.0602 H   0  0  0  0  0  0  0  0  0  0  0  0
   33.5880   32.1643   29.6696 H   0  0  0  0  0  0  0  0  0  0  0  0
   33.0909   31.0614   30.9808 H   0  0  0  0  0  0  0  0  0  0  0  0
   33.2077   31.7388   38.4685 H   0  0  0  0  0  0  0  0  0  0  0  0
   30.2764   28.2577   37.2362 H   0  0  0  0  0  0  0  0  0  0  0  0
   29.7832   27.1626   35.0951 H   0  0  0  0  0  0  0  0  0  0  0  0
   30.9024   27.8059   32.9920 H   0  0  0  0  0  0  0  0  0  0  0  0
   32.6224   29.6717   33.0550 H   0  0  0  0  0  0  0  0  0  0  0  0
  1  7  1  0
  1  2  2  0
  3 21  1  0
  3  2  1  0
  4  3  2  0
  5  4  1  0
  5  1  1  0
  6 11  2  0
  7  6  1  0
  8  9  1  0
  8  7  2  0
  9 10  2  0
 10 12  1  0
 10 11  1  0
 12 16  1  0
 13 14  1  0
 13 12  2  0
 14 15  1  0
 15 17  1  0
 16 15  2  0
 18  4  1  0
 19 18  2  0
 20 18  1  0
 21 22  1  0
 22 23  2  0
 23 24  1  0
 24 25  2  0
 26 25  1  0
 27 26  2  0
 28 27  1  0
 29 30  1  0
 29 28  2  0
 30 31  2  0
 31 22  1  0
 31 26  1  0
  2 32  1  0
  6 33  1  0
  8 34  1  0
 13 35  1  0
 17 36  1  0
 17 37  1  0
 20 38  1  0
 20 39  1  0
 24 40  1  0
 27 41  1  0
 28 42  1  0
 29 43  1  0
 30 44  1  0
M  ISO  8  32  14  33  14  34  14  35  14  40  14  41  14  42  14  43  14
M  ISO  1  44  14
M  END
>  <minimizedAffinity>  (1) 
-6.25290728

>  <minimizedRMSD>  (1) 
2.04363966

$$$$
