
     RDKit          3D

 34 35  0  0  1  0  0  0  0  0999 V2000
   37.8890   24.9390   34.1110 N   0  0  0  0  0  0  0  0  0  0  0  0
   37.0890   24.9110   32.9050 C   0  0  0  0  0  0  0  0  0  0  0  0
   37.4220   26.1880   32.1770 C   0  0  0  0  0  0  0  0  0  0  0  0
   38.3080   26.9290   33.1670 C   0  0  0  0  0  0  0  0  0  0  0  0
   39.0200   25.6720   33.7430 C   0  0  1  0  0  0  0  0  0  0  0  0
   38.2620   23.6170   34.5290 C   0  0  0  0  0  0  0  0  0  0  0  0
   37.8580   23.9530   38.2560 C   0  0  0  0  0  0  0  0  0  0  0  0
   37.5790   24.0990   36.8920 C   0  0  0  0  0  0  0  0  0  0  0  0
   38.4900   23.5420   35.9970 C   0  0  0  0  0  0  0  0  0  0  0  0
   39.6020   22.8890   36.4900 N   0  0  0  0  0  0  0  0  0  0  0  0
   39.8250   22.7760   37.8110 C   0  0  0  0  0  0  0  0  0  0  0  0
   38.9580   23.3050   38.6810 N   0  0  0  0  0  0  0  0  0  0  0  0
   39.9370   26.2490   34.7430 C   0  0  0  0  0  0  0  0  0  0  0  0
   39.0760   27.2380   35.5670 C   0  0  0  0  0  0  0  0  0  0  0  0
   41.0650   27.1080   34.2420 C   0  0  0  0  0  0  0  0  0  0  0  0
   37.3501   24.0374   32.2897 H   0  0  0  0  0  0  0  0  0  0  0  0
   36.0145   24.8340   33.1274 H   0  0  0  0  0  0  0  0  0  0  0  0
   37.9629   25.9799   31.2420 H   0  0  0  0  0  0  0  0  0  0  0  0
   36.5313   26.7615   31.8807 H   0  0  0  0  0  0  0  0  0  0  0  0
   39.0061   27.6213   32.6736 H   0  0  0  0  0  0  0  0  0  0  0  0
   37.8032   27.5882   33.8885 H   0  0  0  0  0  0  0  0  0  0  0  0
   39.6685   24.9938   33.1690 H   0  0  0  0  0  0  0  0  0  0  0  0
   37.4568   22.9182   34.2582 H   0  0  0  0  0  0  0  0  0  0  0  0
   39.2031   23.3532   34.0244 H   0  0  0  0  0  0  0  0  0  0  0  0
   37.1633   24.3770   38.9960 H   0  0  0  0  0  0  0  0  0  0  0  0
   36.6810   24.6296   36.5426 H   0  0  0  0  0  0  0  0  0  0  0  0
   40.7192   22.2493   38.1756 H   0  0  0  0  0  0  0  0  0  0  0  0
   40.3892   25.3837   35.2497 H   0  0  0  0  0  0  0  0  0  0  0  0
   39.2345   27.0560   36.6402 H   0  0  0  0  0  0  0  0  0  0  0  0
   39.3684   28.2700   35.3230 H   0  0  0  0  0  0  0  0  0  0  0  0
   38.0136   27.0905   35.3230 H   0  0  0  0  0  0  0  0  0  0  0  0
   41.6149   27.5268   35.0977 H   0  0  0  0  0  0  0  0  0  0  0  0
   41.7467   26.4982   33.6309 H   0  0  0  0  0  0  0  0  0  0  0  0
   40.6585   27.9273   33.6309 H   0  0  0  0  0  0  0  0  0  0  0  0
  1  6  1  0
  2  1  1  0
  3  2  1  0
  3  4  1  0
  4  5  1  0
  5  1  1  0
  5 13  1  0
  6  9  1  0
  7 12  2  0
  8  7  1  0
  9 10  1  0
  9  8  2  0
 10 11  2  0
 11 12  1  0
 13 14  1  0
 15 13  1  0
  2 16  1  0
  2 17  1  0
  3 18  1  0
  3 19  1  0
  4 20  1  0
  4 21  1  0
  5 22  1  6
  6 23  1  0
  6 24  1  0
  7 25  1  0
  8 26  1  0
 11 27  1  0
 13 28  1  0
 14 29  1  0
 14 30  1  0
 14 31  1  0
 15 32  1  0
 15 33  1  0
 15 34  1  0
M  ISO  8  16  13  17  13  18  13  19  13  20  13  21  13  22  13  23   8
M  ISO  8  24   8  25  14  26  14  27  14  28   8  29   8  30   8  31   8
M  ISO  3  32   8  33   8  34   8
M  END
>  <minimizedAffinity>  (1) 
-4.27651262

>  <minimizedRMSD>  (1) 
1.17209077

$$$$
