
     RDKit          3D

 53 56  0  0  0  0  0  0  0  0999 V2000
   37.2770   26.5640   34.6760 C   0  0  0  0  0  0  0  0  0  0  0  0
   37.4280   25.7290   33.5880 C   0  0  0  0  0  0  0  0  0  0  0  0
   36.9150   26.1510   32.3400 C   0  0  0  0  0  0  0  0  0  0  0  0
   36.3080   27.3470   32.2940 N   0  0  0  0  0  0  0  0  0  0  0  0
   36.1730   28.1380   33.3610 C   0  0  0  0  0  0  0  0  0  0  0  0
   36.6570   27.7570   34.5780 N   0  0  0  0  0  0  0  0  0  0  0  0
   37.8130   26.1100   35.9610 C   0  0  0  0  0  0  0  0  0  0  0  0
   38.4980   26.9030   36.6520 O   0  0  0  0  0  0  0  0  0  0  0  0
   37.5730   24.8470   36.3970 O   0  0  0  0  0  0  0  0  0  0  0  0
   39.6540   22.6380   38.2030 N   0  0  0  0  0  0  0  0  0  0  0  0
   38.5680   23.3910   38.0340 N   0  0  0  0  0  0  0  0  0  0  0  0
   38.6120   23.9920   36.8210 C   0  0  0  0  0  0  0  0  0  0  0  0
   39.7730   23.6070   36.1880 C   0  0  0  0  0  0  0  0  0  0  0  0
   40.3880   22.7700   37.0790 C   0  0  0  0  0  0  0  0  0  0  0  0
   41.6910   22.1040   36.8220 C   0  0  0  0  0  0  0  0  0  0  0  0
   42.7000   22.8160   36.2080 C   0  0  0  0  0  0  0  0  0  0  0  0
   43.8680   22.0920   36.0210 C   0  0  0  0  0  0  0  0  0  0  0  0
   44.0780   20.8090   36.3760 N   0  0  0  0  0  0  0  0  0  0  0  0
   43.0460   20.1600   36.9780 C   0  0  0  0  0  0  0  0  0  0  0  0
   41.8930   20.8130   37.1830 N   0  0  0  0  0  0  0  0  0  0  0  0
   35.4780   29.4630   33.2170 C   0  0  0  0  0  0  0  0  0  0  0  0
   35.6590   30.1950   34.5290 C   0  0  0  0  0  0  0  0  0  0  0  0
   34.0080   29.1540   33.0320 C   0  0  0  0  0  0  0  0  0  0  0  0
   36.0240   30.2470   32.0630 C   0  0  0  0  0  0  0  0  0  0  0  0
   35.3100   31.4500   31.7540 N   0  0  0  0  0  0  0  0  0  0  0  0
   34.0810   31.4000   31.1600 C   0  0  0  0  0  0  0  0  0  0  0  0
   33.3230   32.4810   30.8250 C   0  0  0  0  0  0  0  0  0  0  0  0
   31.9910   32.3340   30.1800 C   0  0  0  0  0  0  0  0  0  0  0  0
   33.8360   33.7500   31.1060 C   0  0  0  0  0  0  0  0  0  0  0  0
   33.1630   34.7700   30.8080 O   0  0  0  0  0  0  0  0  0  0  0  0
   35.0390   33.8110   31.6860 N   0  0  0  0  0  0  0  0  0  0  0  0
   35.7370   32.7030   31.9920 C   0  0  0  0  0  0  0  0  0  0  0  0
   36.8520   32.8510   32.5330 O   0  0  0  0  0  0  0  0  0  0  0  0
   37.9354   24.7583   33.6892 H   0  0  0  0  0  0  0  0  0  0  0  0
   37.0097   25.5234   31.4416 H   0  0  0  0  0  0  0  0  0  0  0  0
   39.8870   22.0679   39.0286 H   0  0  0  0  0  0  0  0  0  0  0  0
   40.1266   23.9054   35.1900 H   0  0  0  0  0  0  0  0  0  0  0  0
   42.5883   23.8645   35.8946 H   0  0  0  0  0  0  0  0  0  0  0  0
   44.7045   22.6160   35.5356 H   0  0  0  0  0  0  0  0  0  0  0  0
   43.1557   19.1118   37.2931 H   0  0  0  0  0  0  0  0  0  0  0  0
   35.4870   29.4995   35.3637 H   0  0  0  0  0  0  0  0  0  0  0  0
   36.6827   30.5932   34.5885 H   0  0  0  0  0  0  0  0  0  0  0  0
   34.9389   31.0244   34.5885 H   0  0  0  0  0  0  0  0  0  0  0  0
   33.5278   29.0531   34.0165 H   0  0  0  0  0  0  0  0  0  0  0  0
   33.5291   29.9711   32.4725 H   0  0  0  0  0  0  0  0  0  0  0  0
   33.8986   28.2132   32.4725 H   0  0  0  0  0  0  0  0  0  0  0  0
   37.0640   30.5184   32.2970 H   0  0  0  0  0  0  0  0  0  0  0  0
   35.9289   29.5986   31.1795 H   0  0  0  0  0  0  0  0  0  0  0  0
   33.6697   30.4052   30.9336 H   0  0  0  0  0  0  0  0  0  0  0  0
   31.2155   32.2484   30.9555 H   0  0  0  0  0  0  0  0  0  0  0  0
   31.7876   33.2152   29.5537 H   0  0  0  0  0  0  0  0  0  0  0  0
   31.9847   31.4297   29.5537 H   0  0  0  0  0  0  0  0  0  0  0  0
   35.4428   34.7330   31.9047 H   0  0  0  0  0  0  0  0  0  0  0  0
  1  7  1  0
  2  1  2  0
  3  2  1  0
  4  3  2  0
  4  5  1  0
  5  6  2  0
  6  1  1  0
  7  9  1  0
  7  8  2  0
  9 12  1  0
 11 10  1  0
 12 11  2  0
 13 12  1  0
 13 14  2  0
 14 10  1  0
 15 14  1  0
 15 20  1  0
 16 15  2  0
 17 16  1  0
 17 18  2  0
 18 19  1  0
 19 20  2  0
 21  5  1  0
 21 22  1  0
 23 21  1  0
 24 21  1  0
 25 32  1  0
 25 24  1  0
 26 25  1  0
 27 29  1  0
 27 26  2  0
 28 27  1  0
 29 31  1  0
 30 29  2  0
 31 32  1  0
 32 33  2  0
  2 34  1  0
  3 35  1  0
 10 36  1  0
 13 37  1  0
 16 38  1  0
 17 39  1  0
 19 40  1  0
 22 41  1  0
 22 42  1  0
 22 43  1  0
 23 44  1  0
 23 45  1  0
 23 46  1  0
 24 47  1  0
 24 48  1  0
 26 49  1  0
 28 50  1  0
 28 51  1  0
 28 52  1  0
 31 53  1  0
M  ISO  8  34  14  35  14  36   9  37  14  38  14  39  14  40  14  41   8
M  ISO  8  42   8  43   8  44   8  45   8  46   8  47   8  48   8  49  14
M  ISO  4  50   8  51   8  52   8  53   9
M  END
>  <minimizedAffinity>  (1) 
-5.90460062

>  <minimizedRMSD>  (1) 
0.319464326

$$$$
