
     RDKit          3D

 40 43  0  0  1  0  0  0  0  0999 V2000
   36.1810   19.8550   30.6960 C   0  0  0  0  0  0  0  0  0  0  0  0
   35.4710   19.2760   31.7710 C   0  0  0  0  0  0  0  0  0  0  0  0
   34.9640   20.0980   32.7650 C   0  0  0  0  0  0  0  0  0  0  0  0
   35.1840   21.4460   32.6420 N   0  0  0  0  0  0  0  0  0  0  0  0
   35.8660   21.9550   31.5990 C   0  0  0  0  0  0  0  0  0  0  0  0
   36.3580   21.1820   30.6410 N   0  0  0  0  0  0  0  0  0  0  0  0
   36.0220   23.3730   31.5960 N   0  0  0  0  0  0  0  0  0  0  0  0
   35.0090   24.0160   31.0870 N   0  0  0  0  0  0  0  0  0  0  0  0
   35.2520   25.3450   31.1300 C   0  0  0  0  0  0  0  0  0  0  0  0
   36.4750   25.5250   31.6940 C   0  0  0  0  0  0  0  0  0  0  0  0
   36.9530   24.2590   31.9850 C   0  0  0  0  0  0  0  0  0  0  0  0
   38.1630   23.7160   32.5800 C   0  0  0  0  0  0  0  0  0  0  0  0
   39.3500   23.3940   32.0600 N   0  0  0  0  0  0  0  0  0  0  0  0
   40.1400   22.9410   32.9800 O   0  0  0  0  0  0  0  0  0  0  0  0
   39.4340   22.9750   34.1200 C   0  0  0  0  0  0  0  0  0  0  0  0
   38.1980   23.4500   33.9230 N   0  0  0  0  0  0  0  0  0  0  0  0
   39.9480   22.5440   35.4520 C   0  0  2  0  0  0  0  0  0  0  0  0
   39.5880   23.3020   36.6850 C   0  0  0  0  0  0  0  0  0  0  0  0
   41.0010   23.3480   36.1340 C   0  0  1  0  0  0  0  0  0  0  0  0
   42.1300   22.6340   36.8130 C   0  0  0  0  0  0  0  0  0  0  0  0
   43.4840   23.2400   36.5860 C   0  0  0  0  0  0  0  0  0  0  0  0
   42.1390   21.1610   36.5800 C   0  0  0  0  0  0  0  0  0  0  0  0
   36.7050   19.0150   29.6750 N   0  0  0  0  0  0  0  0  0  0  0  0
   35.3224   18.1871   31.8186 H   0  0  0  0  0  0  0  0  0  0  0  0
   34.4070   19.6854   33.6191 H   0  0  0  0  0  0  0  0  0  0  0  0
   34.5798   26.1389   30.7723 H   0  0  0  0  0  0  0  0  0  0  0  0
   36.9824   26.4828   31.8814 H   0  0  0  0  0  0  0  0  0  0  0  0
   39.8531   21.4922   35.1442 H   0  0  0  0  0  0  0  0  0  0  0  0
   38.9406   24.1888   36.6182 H   0  0  0  0  0  0  0  0  0  0  0  0
   39.1351   23.0475   37.6546 H   0  0  0  0  0  0  0  0  0  0  0  0
   41.6880   24.1607   35.8555 H   0  0  0  0  0  0  0  0  0  0  0  0
   41.9126   22.7848   37.8807 H   0  0  0  0  0  0  0  0  0  0  0  0
   43.9580   23.4521   37.5557 H   0  0  0  0  0  0  0  0  0  0  0  0
   44.1101   22.5362   36.0180 H   0  0  0  0  0  0  0  0  0  0  0  0
   43.3763   24.1758   36.0180 H   0  0  0  0  0  0  0  0  0  0  0  0
   42.1422   20.6368   37.5471 H   0  0  0  0  0  0  0  0  0  0  0  0
   41.2426   20.8744   36.0105 H   0  0  0  0  0  0  0  0  0  0  0  0
   43.0388   20.8853   36.0105 H   0  0  0  0  0  0  0  0  0  0  0  0
   37.2245   19.4259   28.8862 H   0  0  0  0  0  0  0  0  0  0  0  0
   36.5650   17.9957   29.7244 H   0  0  0  0  0  0  0  0  0  0  0  0
  1  2  2  0
  2  3  1  0
  4  3  2  0
  5  4  1  0
  6  1  1  0
  6  5  2  0
  7  5  1  0
  7 11  1  0
  8  9  2  0
  8  7  1  0
  9 10  1  0
 10 11  2  0
 11 12  1  0
 12 16  1  0
 13 12  2  0
 13 14  1  0
 14 15  1  0
 15 17  1  0
 16 15  2  0
 17 19  1  0
 17 18  1  0
 19 18  1  0
 19 20  1  0
 21 20  1  0
 22 20  1  0
 23  1  1  0
  2 24  1  0
  3 25  1  0
  9 26  1  0
 10 27  1  0
 17 28  1  1
 18 29  1  0
 18 30  1  0
 19 31  1  6
 20 32  1  0
 21 33  1  0
 21 34  1  0
 21 35  1  0
 22 36  1  0
 22 37  1  0
 22 38  1  0
 23 39  1  0
 23 40  1  0
M  ISO  8  24  14  25  14  26  14  27  14  28  13  29  13  30  13  31  13
M  ISO  7  32   8  33   8  34   8  35   8  36   8  37   8  38   8
M  END
>  <minimizedAffinity>  (1) 
-5.14677954

>  <minimizedRMSD>  (1) 
4.86533976

$$$$
