
     RDKit          3D

 53 58  0  0  0  0  0  0  0  0999 V2000
   43.0110   23.5900   34.1980 C   0  0  0  0  0  0  0  0  0  0  0  0
   43.1010   23.4880   35.5960 C   0  0  0  0  0  0  0  0  0  0  0  0
   41.9070   23.4380   36.3150 C   0  0  0  0  0  0  0  0  0  0  0  0
   40.7460   23.4890   35.6540 N   0  0  0  0  0  0  0  0  0  0  0  0
   40.6670   23.5870   34.3090 C   0  0  0  0  0  0  0  0  0  0  0  0
   41.7870   23.6360   33.6030 N   0  0  0  0  0  0  0  0  0  0  0  0
   39.4510   23.6390   33.5930 N   0  0  0  0  0  0  0  0  0  0  0  0
   39.1610   24.6240   32.6820 C   0  0  0  0  0  0  0  0  0  0  0  0
   37.9420   24.5700   32.0420 C   0  0  0  0  0  0  0  0  0  0  0  0
   37.0750   23.5460   32.3380 C   0  0  0  0  0  0  0  0  0  0  0  0
   35.9580   23.4930   31.7560 O   0  0  0  0  0  0  0  0  0  0  0  0
   37.3330   22.5870   33.2140 N   0  0  0  0  0  0  0  0  0  0  0  0
   38.5440   22.6680   33.8270 C   0  0  0  0  0  0  0  0  0  0  0  0
   38.8240   21.7720   34.6650 O   0  0  0  0  0  0  0  0  0  0  0  0
   44.4750   23.4530   36.0350 C   0  0  0  0  0  0  0  0  0  0  0  0
   45.3070   22.5120   35.4280 C   0  0  0  0  0  0  0  0  0  0  0  0
   46.6360   22.3680   35.7400 C   0  0  0  0  0  0  0  0  0  0  0  0
   47.2170   23.1580   36.6830 C   0  0  0  0  0  0  0  0  0  0  0  0
   46.4240   24.0900   37.2930 C   0  0  0  0  0  0  0  0  0  0  0  0
   46.9160   24.9560   38.2740 C   0  0  0  0  0  0  0  0  0  0  0  0
   46.1370   25.9010   38.9000 C   0  0  0  0  0  0  0  0  0  0  0  0
   44.8070   26.0100   38.5540 C   0  0  0  0  0  0  0  0  0  0  0  0
   44.2950   25.1730   37.5950 C   0  0  0  0  0  0  0  0  0  0  0  0
   45.0960   24.2400   36.9880 C   0  0  0  0  0  0  0  0  0  0  0  0
   37.5870   25.6030   31.0650 C   0  0  0  0  0  0  0  0  0  0  0  0
   37.1380   26.8330   31.6860 N   0  0  0  0  0  0  0  0  0  0  0  0
   36.6750   27.2180   32.8870 C   0  0  0  0  0  0  0  0  0  0  0  0
   36.4120   28.5360   32.8610 N   0  0  0  0  0  0  0  0  0  0  0  0
   36.6890   29.0400   31.6650 C   0  0  0  0  0  0  0  0  0  0  0  0
   36.6080   30.2970   31.1080 C   0  0  0  0  0  0  0  0  0  0  0  0
   36.1970   31.2750   31.7650 O   0  0  0  0  0  0  0  0  0  0  0  0
   36.9630   30.5390   29.8380 N   0  0  0  0  0  0  0  0  0  0  0  0
   37.4070   29.4980   29.1210 C   0  0  0  0  0  0  0  0  0  0  0  0
   37.8460   29.4600   27.7680 N   0  0  0  0  0  0  0  0  0  0  0  0
   37.4920   28.2760   29.6380 N   0  0  0  0  0  0  0  0  0  0  0  0
   37.1470   27.9650   30.9200 C   0  0  0  0  0  0  0  0  0  0  0  0
   43.9246   23.6325   33.5869 H   0  0  0  0  0  0  0  0  0  0  0  0
   41.9203   23.3576   37.4120 H   0  0  0  0  0  0  0  0  0  0  0  0
   39.8785   25.4303   32.4698 H   0  0  0  0  0  0  0  0  0  0  0  0
   36.6626   21.8318   33.4170 H   0  0  0  0  0  0  0  0  0  0  0  0
   44.8763   21.8521   34.6606 H   0  0  0  0  0  0  0  0  0  0  0  0
   47.2373   21.6061   35.2223 H   0  0  0  0  0  0  0  0  0  0  0  0
   48.2803   23.0514   36.9438 H   0  0  0  0  0  0  0  0  0  0  0  0
   47.9757   24.8780   38.5585 H   0  0  0  0  0  0  0  0  0  0  0  0
   46.5694   26.5610   39.6665 H   0  0  0  0  0  0  0  0  0  0  0  0
   44.1644   26.7585   39.0406 H   0  0  0  0  0  0  0  0  0  0  0  0
   43.2351   25.2508   37.3112 H   0  0  0  0  0  0  0  0  0  0  0  0
   36.7802   25.2180   30.4240 H   0  0  0  0  0  0  0  0  0  0  0  0
   38.4926   25.8360   30.4856 H   0  0  0  0  0  0  0  0  0  0  0  0
   36.5333   26.5581   33.7556 H   0  0  0  0  0  0  0  0  0  0  0  0
   36.8973   31.4832   29.4317 H   0  0  0  0  0  0  0  0  0  0  0  0
   37.8499   30.3215   27.2034 H   0  0  0  0  0  0  0  0  0  0  0  0
   38.1599   28.5710   27.3532 H   0  0  0  0  0  0  0  0  0  0  0  0
  1  2  2  0
  2 15  1  0
  2  3  1  0
  4  3  2  0
  5  4  1  0
  6  1  1  0
  6  5  2  0
  7 13  1  0
  7  5  1  0
  8  7  1  0
  9 10  1  0
  9  8  2  0
 10 12  1  0
 11 10  2  0
 12 13  1  0
 13 14  2  0
 15 24  2  0
 16 17  2  0
 16 15  1  0
 17 18  1  0
 18 19  2  0
 19 20  1  0
 20 21  2  0
 22 21  1  0
 23 22  2  0
 24 19  1  0
 24 23  1  0
 25 26  1  0
 25  9  1  0
 26 27  1  0
 28 27  2  0
 29 28  1  0
 30 29  1  0
 30 31  2  0
 32 30  1  0
 33 35  2  0
 33 32  1  0
 34 33  1  0
 35 36  1  0
 36 29  2  0
 36 26  1  0
  1 37  1  0
  3 38  1  0
  8 39  1  0
 12 40  1  0
 16 41  1  0
 17 42  1  0
 18 43  1  0
 20 44  1  0
 21 45  1  0
 22 46  1  0
 23 47  1  0
 25 48  1  0
 25 49  1  0
 27 50  1  0
 32 51  1  0
 34 52  1  0
 34 53  1  0
M  END
>  <minimizedAffinity>  (1) 
-7.5243659

>  <minimizedRMSD>  (1) 
5.85971165

$$$$
