
     RDKit          3D

 42 46  0  0  0  0  0  0  0  0999 V2000
   38.1700   26.3140   33.8070 C   0  0  0  0  0  0  0  0  0  0  0  0
   39.3480   26.2820   33.0870 C   0  0  0  0  0  0  0  0  0  0  0  0
   40.2480   25.3340   33.4450 C   0  0  0  0  0  0  0  0  0  0  0  0
   39.9430   24.4780   34.4820 C   0  0  0  0  0  0  0  0  0  0  0  0
   38.2440   25.0360   35.0180 S   0  0  0  0  0  0  0  0  0  0  0  0
   41.5270   25.0950   32.8610 N   0  0  0  0  0  0  0  0  0  0  0  0
   41.8140   24.2620   31.8190 C   0  0  0  0  0  0  0  0  0  0  0  0
   43.1290   24.2870   31.5360 N   0  0  0  0  0  0  0  0  0  0  0  0
   43.7310   25.1370   32.3850 C   0  0  0  0  0  0  0  0  0  0  0  0
   45.0530   25.5050   32.5010 C   0  0  0  0  0  0  0  0  0  0  0  0
   45.3380   26.3910   33.4710 N   0  0  0  0  0  0  0  0  0  0  0  0
   44.3530   26.8690   34.2640 C   0  0  0  0  0  0  0  0  0  0  0  0
   43.0540   26.5150   34.1590 N   0  0  0  0  0  0  0  0  0  0  0  0
   42.7160   25.6240   33.1970 C   0  0  0  0  0  0  0  0  0  0  0  0
   46.0120   24.9260   31.5950 N   0  0  0  0  0  0  0  0  0  0  0  0
   36.4060   27.3740   32.3230 C   0  0  0  0  0  0  0  0  0  0  0  0
   37.0840   27.2540   33.5620 C   0  0  0  0  0  0  0  0  0  0  0  0
   36.7360   28.0560   34.6340 C   0  0  0  0  0  0  0  0  0  0  0  0
   35.7210   28.9380   34.4030 N   0  0  0  0  0  0  0  0  0  0  0  0
   35.0760   29.0470   33.2100 C   0  0  0  0  0  0  0  0  0  0  0  0
   35.4350   28.2600   32.1950 N   0  0  0  0  0  0  0  0  0  0  0  0
   34.0050   30.0510   33.1160 C   0  0  0  0  0  0  0  0  0  0  0  0
   33.8770   30.8750   34.1920 C   0  0  0  0  0  0  0  0  0  0  0  0
   32.4350   31.9780   33.7000 S   0  0  0  0  0  0  0  0  0  0  0  0
   32.2990   31.0280   32.0300 C   0  0  0  0  0  0  0  0  0  0  0  0
   33.1360   30.3020   32.1830 N   0  0  0  0  0  0  0  0  0  0  0  0
   31.3360   31.3310   31.0340 N   0  0  0  0  0  0  0  0  0  0  0  0
   40.5790   23.3990   35.1470 C   0  0  0  0  0  0  0  0  0  0  0  0
   41.3520   23.5880   36.0790 O   0  0  0  0  0  0  0  0  0  0  0  0
   40.3280   22.0480   34.7370 N   0  0  0  0  0  0  0  0  0  0  0  0
   39.5453   26.9881   32.2669 H   0  0  0  0  0  0  0  0  0  0  0  0
   41.0711   23.6528   31.2832 H   0  0  0  0  0  0  0  0  0  0  0  0
   44.6273   27.5931   35.0453 H   0  0  0  0  0  0  0  0  0  0  0  0
   47.0064   25.1859   31.6625 H   0  0  0  0  0  0  0  0  0  0  0  0
   45.7032   24.2522   30.8798 H   0  0  0  0  0  0  0  0  0  0  0  0
   36.6867   26.7335   31.4739 H   0  0  0  0  0  0  0  0  0  0  0  0
   37.2436   27.9873   35.6075 H   0  0  0  0  0  0  0  0  0  0  0  0
   34.4695   30.8917   35.1187 H   0  0  0  0  0  0  0  0  0  0  0  0
   30.6613   32.0944   31.1853 H   0  0  0  0  0  0  0  0  0  0  0  0
   31.3112   30.7876   30.1593 H   0  0  0  0  0  0  0  0  0  0  0  0
   40.7923   21.2676   35.2231 H   0  0  0  0  0  0  0  0  0  0  0  0
   39.6834   21.8580   33.9564 H   0  0  0  0  0  0  0  0  0  0  0  0
  1  5  1  0
  2  3  1  0
  2  1  2  0
  3  4  2  0
  4  5  1  0
  4 28  1  0
  6 14  1  0
  6  3  1  0
  7  6  1  0
  8  7  2  0
  8  9  1  0
  9 10  2  0
  9 14  1  0
 10 11  1  0
 11 12  2  0
 13 12  1  0
 14 13  2  0
 15 10  1  0
 16 17  2  0
 17  1  1  0
 17 18  1  0
 19 18  2  0
 20 19  1  0
 21 16  1  0
 21 20  2  0
 22 20  1  0
 22 23  2  0
 24 23  1  0
 25 26  2  0
 25 24  1  0
 26 22  1  0
 27 25  1  0
 28 29  2  0
 30 28  1  0
  2 31  1  0
  7 32  1  0
 12 33  1  0
 15 34  1  0
 15 35  1  0
 16 36  1  0
 18 37  1  0
 23 38  1  0
 27 39  1  0
 27 40  1  0
 30 41  1  0
 30 42  1  0
M  ISO  6  31  14  32  14  33  14  36  14  37  14  38  14
M  END
>  <minimizedAffinity>  (1) 
-4.48710346

>  <minimizedRMSD>  (1) 
10.1954193

$$$$
