
     RDKit          3D

 37 41  0  0  1  0  0  0  0  0999 V2000
   37.3960   21.6270   33.8560 C   0  0  1  0  0  0  0  0  0  0  0  0
   36.2720   21.1950   34.6870 C   0  0  0  0  0  0  0  0  0  0  0  0
   36.0660   21.2670   33.1940 C   0  0  2  0  0  0  0  0  0  0  0  0
   35.9950   19.9500   32.5590 N   0  0  0  0  0  0  0  0  0  0  0  0
   35.3370   18.8780   33.0220 C   0  0  0  0  0  0  0  0  0  0  0  0
   35.4910   17.8240   32.1690 N   0  0  0  0  0  0  0  0  0  0  0  0
   36.2630   18.2890   31.1720 C   0  0  0  0  0  0  0  0  0  0  0  0
   36.7880   17.7600   30.0120 C   0  0  0  0  0  0  0  0  0  0  0  0
   37.5640   18.4860   29.1580 N   0  0  0  0  0  0  0  0  0  0  0  0
   37.8450   19.7880   29.4430 C   0  0  0  0  0  0  0  0  0  0  0  0
   37.3470   20.3330   30.5670 N   0  0  0  0  0  0  0  0  0  0  0  0
   36.5900   19.6080   31.3910 C   0  0  0  0  0  0  0  0  0  0  0  0
   36.5220   16.4030   29.6730 N   0  0  0  0  0  0  0  0  0  0  0  0
   38.2210   23.9230   34.5150 C   0  0  0  0  0  0  0  0  0  0  0  0
   38.4140   25.1480   33.8910 C   0  0  0  0  0  0  0  0  0  0  0  0
   38.0280   24.9300   32.6030 N   0  0  0  0  0  0  0  0  0  0  0  0
   37.6410   23.6660   32.5080 C   0  0  0  0  0  0  0  0  0  0  0  0
   37.7460   23.0020   33.6790 N   0  0  0  0  0  0  0  0  0  0  0  0
   38.4970   23.6540   35.9160 C   0  0  0  0  0  0  0  0  0  0  0  0
   39.7040   23.0420   36.3000 C   0  0  0  0  0  0  0  0  0  0  0  0
   39.9190   22.8050   37.6770 C   0  0  0  0  0  0  0  0  0  0  0  0
   38.9630   23.1730   38.5400 N   0  0  0  0  0  0  0  0  0  0  0  0
   37.8010   23.7640   38.1450 C   0  0  0  0  0  0  0  0  0  0  0  0
   37.5720   24.0020   36.8360 N   0  0  0  0  0  0  0  0  0  0  0  0
   38.4469   21.3021   33.8476 H   0  0  0  0  0  0  0  0  0  0  0  0
   36.3080   20.2150   35.1853 H   0  0  0  0  0  0  0  0  0  0  0  0
   35.7501   21.6253   35.5545 H   0  0  0  0  0  0  0  0  0  0  0  0
   35.3861   21.7722   32.4923 H   0  0  0  0  0  0  0  0  0  0  0  0
   34.7561   18.8516   33.9557 H   0  0  0  0  0  0  0  0  0  0  0  0
   38.4705   20.3853   28.7633 H   0  0  0  0  0  0  0  0  0  0  0  0
   36.9115   16.0025   28.8077 H   0  0  0  0  0  0  0  0  0  0  0  0
   35.9400   15.8218   30.2930 H   0  0  0  0  0  0  0  0  0  0  0  0
   38.7920   26.0808   34.3349 H   0  0  0  0  0  0  0  0  0  0  0  0
   37.2745   23.2081   31.5774 H   0  0  0  0  0  0  0  0  0  0  0  0
   40.4578   22.7565   35.5514 H   0  0  0  0  0  0  0  0  0  0  0  0
   40.8466   22.3310   38.0303 H   0  0  0  0  0  0  0  0  0  0  0  0
   37.0475   24.0480   38.8944 H   0  0  0  0  0  0  0  0  0  0  0  0
  1  2  1  0
  3  1  1  0
  3  2  1  0
  4  5  1  0
  4  3  1  0
  6  5  2  0
  7 12  2  0
  7  6  1  0
  8  7  1  0
  9 10  1  0
  9  8  2  0
 10 11  2  0
 11 12  1  0
 12  4  1  0
 13  8  1  0
 14 19  1  0
 15 14  2  0
 16 15  1  0
 17 16  2  0
 17 18  1  0
 18  1  1  0
 18 14  1  0
 19 20  2  0
 19 24  1  0
 20 21  1  0
 21 22  2  0
 23 22  1  0
 24 23  2  0
  1 25  1  6
  2 26  1  0
  2 27  1  0
  3 28  1  1
  5 29  1  0
 10 30  1  0
 13 31  1  0
 13 32  1  0
 15 33  1  0
 17 34  1  0
 20 35  1  0
 21 36  1  0
 23 37  1  0
M  ISO  8  25  13  26  13  27  13  28  13  29  14  30  14  33  14  34  14
M  ISO  3  35  14  36  14  37  14
M  END
>  <minimizedAffinity>  (1) 
-5.25503492

>  <minimizedRMSD>  (1) 
2.02208519

$$$$
