
     RDKit          3D

 46 50  0  0  1  0  0  0  0  0999 V2000
   37.3900   25.9150   32.9480 N   0  0  0  0  0  0  0  0  0  0  0  0
   36.9580   24.8540   32.2650 C   0  0  0  0  0  0  0  0  0  0  0  0
   35.8980   25.1210   31.4240 C   0  0  0  0  0  0  0  0  0  0  0  0
   35.6660   26.4220   31.5990 N   0  0  0  0  0  0  0  0  0  0  0  0
   36.5580   26.9020   32.5100 C   0  0  0  0  0  0  0  0  0  0  0  0
   36.5320   28.3580   32.8710 C   0  0  1  0  0  0  0  0  0  0  0  0
   35.7270   29.2730   32.0380 C   0  0  0  0  0  0  0  0  0  0  0  0
   35.1950   28.8870   33.3980 C   0  0  2  0  0  0  0  0  0  0  0  0
   35.2120   29.8660   34.4440 N   0  0  0  0  0  0  0  0  0  0  0  0
   36.2620   30.4530   35.0410 C   0  0  0  0  0  0  0  0  0  0  0  0
   35.7840   31.3130   35.9760 N   0  0  0  0  0  0  0  0  0  0  0  0
   34.4510   31.2610   35.9620 C   0  0  0  0  0  0  0  0  0  0  0  0
   33.4930   31.9320   36.7090 C   0  0  0  0  0  0  0  0  0  0  0  0
   32.1910   31.6780   36.4770 N   0  0  0  0  0  0  0  0  0  0  0  0
   31.8130   30.7900   35.5390 C   0  0  0  0  0  0  0  0  0  0  0  0
   32.7700   30.1500   34.8240 N   0  0  0  0  0  0  0  0  0  0  0  0
   34.0870   30.3490   34.9970 C   0  0  0  0  0  0  0  0  0  0  0  0
   33.8400   32.8800   37.7120 N   0  0  0  0  0  0  0  0  0  0  0  0
   38.4010   26.1380   33.9040 C   0  0  0  0  0  0  0  0  0  0  0  0
   37.9230   26.0780   35.3070 C   0  0  1  0  0  0  0  0  0  0  0  0
   38.5240   23.4680   37.9770 C   0  0  0  0  0  0  0  0  0  0  0  0
   37.9300   24.5620   37.3350 C   0  0  0  0  0  0  0  0  0  0  0  0
   38.4800   24.9520   36.0790 C   0  0  0  0  0  0  0  0  0  0  0  0
   39.5520   24.2380   35.5730 N   0  0  0  0  0  0  0  0  0  0  0  0
   40.0890   23.2080   36.2060 C   0  0  0  0  0  0  0  0  0  0  0  0
   39.5690   22.8120   37.4290 N   0  0  0  0  0  0  0  0  0  0  0  0
   38.2160   27.3960   36.0180 C   0  0  0  0  0  0  0  0  0  0  0  0
   37.4072   23.8548   32.3637 H   0  0  0  0  0  0  0  0  0  0  0  0
   35.3666   24.4217   30.7617 H   0  0  0  0  0  0  0  0  0  0  0  0
   37.5769   28.3619   33.2147 H   0  0  0  0  0  0  0  0  0  0  0  0
   36.0778   30.3005   31.8612 H   0  0  0  0  0  0  0  0  0  0  0  0
   35.3253   29.2270   31.0150 H   0  0  0  0  0  0  0  0  0  0  0  0
   34.2663   28.4416   33.7842 H   0  0  0  0  0  0  0  0  0  0  0  0
   37.3222   30.2693   34.8126 H   0  0  0  0  0  0  0  0  0  0  0  0
   30.7474   30.5875   35.3561 H   0  0  0  0  0  0  0  0  0  0  0  0
   33.1007   33.3584   38.2463 H   0  0  0  0  0  0  0  0  0  0  0  0
   34.8305   33.0878   37.9037 H   0  0  0  0  0  0  0  0  0  0  0  0
   39.1797   25.3727   33.7700 H   0  0  0  0  0  0  0  0  0  0  0  0
   38.7792   27.1575   33.7380 H   0  0  0  0  0  0  0  0  0  0  0  0
   36.8377   25.9070   35.2538 H   0  0  0  0  0  0  0  0  0  0  0  0
   38.1304   23.1360   38.9490 H   0  0  0  0  0  0  0  0  0  0  0  0
   37.0775   25.0962   37.7799 H   0  0  0  0  0  0  0  0  0  0  0  0
   40.9414   22.6699   35.7657 H   0  0  0  0  0  0  0  0  0  0  0  0
   38.1815   27.2410   37.1065 H   0  0  0  0  0  0  0  0  0  0  0  0
   39.2156   27.7537   35.7300 H   0  0  0  0  0  0  0  0  0  0  0  0
   37.4621   28.1435   35.7300 H   0  0  0  0  0  0  0  0  0  0  0  0
  1 19  1  0
  2  1  1  0
  3  4  1  0
  3  2  2  0
  4  5  2  0
  5  6  1  0
  5  1  1  0
  6  8  1  0
  7  6  1  0
  7  8  1  0
  8  9  1  0
  9 17  1  0
  9 10  1  0
 10 11  2  0
 12 11  1  0
 12 13  2  0
 13 18  1  0
 14 13  1  0
 15 14  2  0
 16 17  2  0
 16 15  1  0
 17 12  1  0
 19 20  1  0
 20 27  1  0
 20 23  1  0
 22 21  2  0
 23 22  1  0
 24 23  2  0
 24 25  1  0
 25 26  2  0
 26 21  1  0
  2 28  1  0
  3 29  1  0
  6 30  1  1
  7 31  1  0
  7 32  1  0
  8 33  1  6
 10 34  1  0
 15 35  1  0
 18 36  1  0
 18 37  1  0
 19 38  1  0
 19 39  1  0
 20 40  1  6
 21 41  1  0
 22 42  1  0
 25 43  1  0
 27 44  1  0
 27 45  1  0
 27 46  1  0
M  ISO  8  28  14  29  14  30  13  31  13  32  13  33  13  34  14  35  14
M  ISO  8  38   8  39   8  40   8  41  14  42  14  43  14  44   8  45   8
M  ISO  1  46   8
M  END
>  <minimizedAffinity>  (1) 
-6.01412344

>  <minimizedRMSD>  (1) 
1.31400418

$$$$
