
     RDKit          3D

 37 40  0  0  0  0  0  0  0  0999 V2000
   38.8910   23.7770   34.5250 N   0  0  0  0  0  0  0  0  0  0  0  0
   39.1490   22.8360   33.6310 N   0  0  0  0  0  0  0  0  0  0  0  0
   39.1340   23.3250   32.3850 C   0  0  0  0  0  0  0  0  0  0  0  0
   38.8440   24.6690   32.5300 C   0  0  0  0  0  0  0  0  0  0  0  0
   38.6900   24.9560   33.8860 C   0  0  0  0  0  0  0  0  0  0  0  0
   37.6730   23.8750   36.6200 C   0  0  0  0  0  0  0  0  0  0  0  0
   38.8350   23.5850   35.9150 C   0  0  0  0  0  0  0  0  0  0  0  0
   39.9670   23.0970   36.5890 C   0  0  0  0  0  0  0  0  0  0  0  0
   39.8420   22.9330   37.9460 N   0  0  0  0  0  0  0  0  0  0  0  0
   38.7240   23.2130   38.6120 C   0  0  0  0  0  0  0  0  0  0  0  0
   37.6300   23.6870   37.9540 N   0  0  0  0  0  0  0  0  0  0  0  0
   38.7380   25.5510   31.4150 N   0  0  0  0  0  0  0  0  0  0  0  0
   39.5980   25.4350   30.3640 C   0  0  0  0  0  0  0  0  0  0  0  0
   39.2990   26.3780   29.4330 N   0  0  0  0  0  0  0  0  0  0  0  0
   38.2580   27.0960   29.8790 C   0  0  0  0  0  0  0  0  0  0  0  0
   37.4940   28.1660   29.4220 C   0  0  0  0  0  0  0  0  0  0  0  0
   36.4830   28.6330   30.1850 N   0  0  0  0  0  0  0  0  0  0  0  0
   36.1800   28.0980   31.3810 C   0  0  0  0  0  0  0  0  0  0  0  0
   36.8910   27.0470   31.8830 N   0  0  0  0  0  0  0  0  0  0  0  0
   37.9060   26.5750   31.1240 C   0  0  0  0  0  0  0  0  0  0  0  0
   37.8580   28.6950   28.1500 N   0  0  0  0  0  0  0  0  0  0  0  0
   38.3840   26.2410   34.4260 N   0  0  0  0  0  0  0  0  0  0  0  0
   39.2880   26.9500   35.2690 C   0  0  0  0  0  0  0  0  0  0  0  0
   40.5560   26.8350   34.9820 N   0  0  0  0  0  0  0  0  0  0  0  0
   38.7250   27.7150   36.3400 N   0  0  0  0  0  0  0  0  0  0  0  0
   41.2080   27.3560   35.5990 H   0  0  0  0  0  0  0  0  0  0  0  0
   39.3135   22.7764   31.4486 H   0  0  0  0  0  0  0  0  0  0  0  0
   36.7887   24.2578   36.0895 H   0  0  0  0  0  0  0  0  0  0  0  0
   40.9012   22.8596   36.0589 H   0  0  0  0  0  0  0  0  0  0  0  0
   38.6836   23.0606   39.7006 H   0  0  0  0  0  0  0  0  0  0  0  0
   40.4071   24.6942   30.2825 H   0  0  0  0  0  0  0  0  0  0  0  0
   35.3454   28.5144   31.9642 H   0  0  0  0  0  0  0  0  0  0  0  0
   37.3337   29.4876   27.7527 H   0  0  0  0  0  0  0  0  0  0  0  0
   38.6454   28.2848   27.6278 H   0  0  0  0  0  0  0  0  0  0  0  0
   37.4766   26.6717   34.1981 H   0  0  0  0  0  0  0  0  0  0  0  0
   39.3406   28.2435   36.9745 H   0  0  0  0  0  0  0  0  0  0  0  0
   37.7043   27.7369   36.4761 H   0  0  0  0  0  0  0  0  0  0  0  0
  1  7  1  0
  2  1  1  0
  3  4  1  0
  3  2  2  0
  4  5  2  0
  5 22  1  0
  5  1  1  0
  6 11  2  0
  7  8  2  0
  7  6  1  0
  8  9  1  0
  9 10  2  0
 11 10  1  0
 12  4  1  0
 13 12  1  0
 14 15  1  0
 14 13  2  0
 15 20  2  0
 16 15  1  0
 16 17  2  0
 17 18  1  0
 18 19  2  0
 20 12  1  0
 20 19  1  0
 21 16  1  0
 22 23  1  0
 23 25  1  0
 24 23  2  0
 24 26  1  0
  3 27  1  0
  6 28  1  0
  8 29  1  0
 10 30  1  0
 13 31  1  0
 18 32  1  0
 21 33  1  0
 21 34  1  0
 22 35  1  0
 25 36  1  0
 25 37  1  0
M  ISO  6  27  14  28  14  29  14  30  14  31  14  32  14
M  END
>  <minimizedAffinity>  (1) 
-5.79479265

>  <minimizedRMSD>  (1) 
1.12961042

$$$$
