
     RDKit          3D

 46 50  0  0  0  0  0  0  0  0999 V2000
   44.8560   24.8450   37.2050 N   0  0  0  0  0  0  0  0  0  0  0  0
   44.3280   25.6060   38.1570 N   0  0  0  0  0  0  0  0  0  0  0  0
   45.1920   25.9420   39.0910 C   0  0  0  0  0  0  0  0  0  0  0  0
   46.4040   25.3770   38.7660 C   0  0  0  0  0  0  0  0  0  0  0  0
   46.1550   24.6840   37.5570 C   0  0  0  0  0  0  0  0  0  0  0  0
   47.1940   23.9110   36.8220 C   0  0  0  0  0  0  0  0  0  0  0  0
   48.2260   24.5830   36.1260 C   0  0  0  0  0  0  0  0  0  0  0  0
   49.1900   23.1920   35.4260 S   0  0  0  0  0  0  0  0  0  0  0  0
   48.0230   21.9180   36.2010 C   0  0  0  0  0  0  0  0  0  0  0  0
   47.2970   22.6010   36.7180 N   0  0  0  0  0  0  0  0  0  0  0  0
   48.4950   25.9580   35.9730 N   0  0  0  0  0  0  0  0  0  0  0  0
   49.3450   26.6460   36.7900 C   0  0  0  0  0  0  0  0  0  0  0  0
   49.5810   27.9920   36.6080 C   0  0  0  0  0  0  0  0  0  0  0  0
   48.9650   28.6840   35.5900 C   0  0  0  0  0  0  0  0  0  0  0  0
   49.1260   29.9060   35.3570 O   0  0  0  0  0  0  0  0  0  0  0  0
   48.1270   27.9610   34.7990 N   0  0  0  0  0  0  0  0  0  0  0  0
   47.8750   26.6320   34.9590 C   0  0  0  0  0  0  0  0  0  0  0  0
   47.0770   26.0530   34.1680 O   0  0  0  0  0  0  0  0  0  0  0  0
   48.2190   20.4630   36.0300 C   0  0  0  0  0  0  0  0  0  0  0  0
   48.0110   20.0650   34.7250 F   0  0  0  0  0  0  0  0  0  0  0  0
   47.2540   19.8720   36.8380 F   0  0  0  0  0  0  0  0  0  0  0  0
   49.4580   20.0500   36.5160 F   0  0  0  0  0  0  0  0  0  0  0  0
   44.2470   24.2790   36.0270 C   0  0  0  0  0  0  0  0  0  0  0  0
   41.0690   22.4700   36.9880 C   0  0  0  0  0  0  0  0  0  0  0  0
   41.9650   23.4660   36.6610 C   0  0  0  0  0  0  0  0  0  0  0  0
   43.2990   23.1750   36.3790 C   0  0  0  0  0  0  0  0  0  0  0  0
   43.6540   21.8590   36.4450 N   0  0  0  0  0  0  0  0  0  0  0  0
   42.7680   20.8950   36.7650 C   0  0  0  0  0  0  0  0  0  0  0  0
   41.4960   21.2310   37.0280 N   0  0  0  0  0  0  0  0  0  0  0  0
   39.6770   22.8430   37.2750 C   0  0  0  0  0  0  0  0  0  0  0  0
   38.6630   22.8370   36.3360 C   0  0  0  0  0  0  0  0  0  0  0  0
   37.5650   23.2500   37.0560 C   0  0  0  0  0  0  0  0  0  0  0  0
   37.9300   23.4830   38.3530 C   0  0  0  0  0  0  0  0  0  0  0  0
   39.2280   23.2180   38.4300 O   0  0  0  0  0  0  0  0  0  0  0  0
   44.9827   26.5636   39.9740 H   0  0  0  0  0  0  0  0  0  0  0  0
   47.3516   25.4478   39.3201 H   0  0  0  0  0  0  0  0  0  0  0  0
   49.8517   26.1159   37.6099 H   0  0  0  0  0  0  0  0  0  0  0  0
   50.2698   28.5193   37.2844 H   0  0  0  0  0  0  0  0  0  0  0  0
   47.6515   28.4511   34.0279 H   0  0  0  0  0  0  0  0  0  0  0  0
   45.0360   23.8785   35.3735 H   0  0  0  0  0  0  0  0  0  0  0  0
   43.6811   25.0713   35.5152 H   0  0  0  0  0  0  0  0  0  0  0  0
   41.6206   24.5100   36.6219 H   0  0  0  0  0  0  0  0  0  0  0  0
   43.0849   19.8426   36.8101 H   0  0  0  0  0  0  0  0  0  0  0  0
   38.7197   22.5674   35.2710 H   0  0  0  0  0  0  0  0  0  0  0  0
   36.5500   23.3736   36.6504 H   0  0  0  0  0  0  0  0  0  0  0  0
   37.2771   23.8228   39.1705 H   0  0  0  0  0  0  0  0  0  0  0  0
  1  5  1  0
  1  2  1  0
  2  3  2  0
  4  3  1  0
  5  4  2  0
  6  5  1  0
  7  6  2  0
  8  7  1  0
  8  9  1  0
  9 10  2  0
 10  6  1  0
 11  7  1  0
 11 12  1  0
 13 12  2  0
 14 13  1  0
 15 14  2  0
 16 17  1  0
 16 14  1  0
 17 11  1  0
 18 17  2  0
 19  9  1  0
 19 22  1  0
 19 21  1  0
 20 19  1  0
 23 26  1  0
 23  1  1  0
 24 29  1  0
 24 30  1  0
 25 24  2  0
 26 27  2  0
 26 25  1  0
 27 28  1  0
 28 29  2  0
 30 34  1  0
 31 32  1  0
 31 30  2  0
 32 33  2  0
 33 34  1  0
  3 35  1  0
  4 36  1  0
 12 37  1  0
 13 38  1  0
 16 39  1  0
 23 40  1  0
 23 41  1  0
 25 42  1  0
 28 43  1  0
 31 44  1  0
 32 45  1  0
 33 46  1  0
M  ISO  8  35  14  36  14  37  14  38  14  39   9  40   8  41   8  42  14
M  ISO  4  43  14  44  14  45  14  46  14
M  END
>  <minimizedAffinity>  (1) 
-5.61429834

>  <minimizedRMSD>  (1) 
0.592472434

$$$$
