
     RDKit          3D

 45 49  0  0  1  0  0  0  0  0999 V2000
   37.9850   26.4520   36.5290 C   0  0  1  0  0  0  0  0  0  0  0  0
   38.8580   27.3290   35.7130 C   0  0  0  0  0  0  0  0  0  0  0  0
   37.5580   26.8430   35.1680 C   0  0  1  0  0  0  0  0  0  0  0  0
   37.6470   26.1220   33.9660 N   0  0  0  0  0  0  0  0  0  0  0  0
   37.6870   24.7890   33.8090 C   0  0  0  0  0  0  0  0  0  0  0  0
   37.7750   24.1430   32.6020 C   0  0  0  0  0  0  0  0  0  0  0  0
   37.8260   24.9150   31.4350 C   0  0  0  0  0  0  0  0  0  0  0  0
   37.9080   24.3740   30.3070 O   0  0  0  0  0  0  0  0  0  0  0  0
   37.7880   26.2770   31.5240 N   0  0  0  0  0  0  0  0  0  0  0  0
   37.7030   26.8020   32.7590 C   0  0  0  0  0  0  0  0  0  0  0  0
   37.6680   28.0760   32.8140 O   0  0  0  0  0  0  0  0  0  0  0  0
   37.1420   28.4600   28.7830 N   0  0  0  0  0  0  0  0  0  0  0  0
   36.7560   27.7630   29.8240 N   0  0  0  0  0  0  0  0  0  0  0  0
   37.8150   27.1260   30.3810 C   0  0  0  0  0  0  0  0  0  0  0  0
   38.9070   27.4580   29.6330 C   0  0  0  0  0  0  0  0  0  0  0  0
   38.4730   28.2980   28.6290 C   0  0  0  0  0  0  0  0  0  0  0  0
   38.4250   25.0770   36.8760 C   0  0  0  0  0  0  0  0  0  0  0  0
   37.8440   24.5140   38.0190 C   0  0  0  0  0  0  0  0  0  0  0  0
   38.2020   23.2440   38.4080 C   0  0  0  0  0  0  0  0  0  0  0  0
   39.1210   22.6000   37.6410 N   0  0  0  0  0  0  0  0  0  0  0  0
   39.6570   23.1710   36.5520 C   0  0  0  0  0  0  0  0  0  0  0  0
   39.3300   24.3990   36.1500 N   0  0  0  0  0  0  0  0  0  0  0  0
   40.6280   22.4620   35.7610 N   0  0  0  0  0  0  0  0  0  0  0  0
   40.7900   22.5550   34.4270 C   0  0  0  0  0  0  0  0  0  0  0  0
   41.7710   21.8070   33.8080 C   0  0  0  0  0  0  0  0  0  0  0  0
   42.5450   20.9890   34.6060 C   0  0  0  0  0  0  0  0  0  0  0  0
   43.5620   20.2130   33.9730 N   0  0  0  0  0  0  0  0  0  0  0  0
   42.3910   20.8890   35.9380 N   0  0  0  0  0  0  0  0  0  0  0  0
   41.4110   21.6460   36.5090 C   0  0  0  0  0  0  0  0  0  0  0  0
   41.3140   21.5110   37.7490 O   0  0  0  0  0  0  0  0  0  0  0  0
   37.5078   26.5080   37.5185 H   0  0  0  0  0  0  0  0  0  0  0  0
   38.9809   28.3884   35.9823 H   0  0  0  0  0  0  0  0  0  0  0  0
   39.9055   27.2937   35.3792 H   0  0  0  0  0  0  0  0  0  0  0  0
   36.5779   27.2048   34.8238 H   0  0  0  0  0  0  0  0  0  0  0  0
   37.6461   24.1685   34.7163 H   0  0  0  0  0  0  0  0  0  0  0  0
   37.8048   23.0445   32.5522 H   0  0  0  0  0  0  0  0  0  0  0  0
   36.5323   29.0344   28.1837 H   0  0  0  0  0  0  0  0  0  0  0  0
   39.9401   27.1190   29.7997 H   0  0  0  0  0  0  0  0  0  0  0  0
   39.0974   28.7528   27.8459 H   0  0  0  0  0  0  0  0  0  0  0  0
   37.1058   25.0839   38.6023 H   0  0  0  0  0  0  0  0  0  0  0  0
   37.7643   22.7710   39.2995 H   0  0  0  0  0  0  0  0  0  0  0  0
   40.1455   23.2219   33.8355 H   0  0  0  0  0  0  0  0  0  0  0  0
   41.9298   21.8607   32.7209 H   0  0  0  0  0  0  0  0  0  0  0  0
   44.1599   19.5907   34.5353 H   0  0  0  0  0  0  0  0  0  0  0  0
   43.6980   20.2753   32.9539 H   0  0  0  0  0  0  0  0  0  0  0  0
  1 17  1  0
  2  1  1  0
  3  2  1  0
  3  1  1  0
  4  3  1  0
  5  4  1  0
  6  5  2  0
  7  9  1  0
  7  6  1  0
  8  7  2  0
  9 10  1  0
 10 11  2  0
 10  4  1  0
 12 13  1  0
 13 14  2  0
 14  9  1  0
 15 14  1  0
 16 12  1  0
 16 15  2  0
 17 18  2  0
 18 19  1  0
 20 19  2  0
 21 20  1  0
 22 21  2  0
 22 17  1  0
 23 29  1  0
 23 21  1  0
 24 23  1  0
 25 24  2  0
 25 26  1  0
 26 28  2  0
 27 26  1  0
 28 29  1  0
 29 30  2  0
  1 31  1  1
  2 32  1  0
  2 33  1  0
  3 34  1  1
  5 35  1  0
  6 36  1  0
 12 37  1  0
 15 38  1  0
 16 39  1  0
 18 40  1  0
 19 41  1  0
 24 42  1  0
 25 43  1  0
 27 44  1  0
 27 45  1  0
M  ISO  8  31  13  32  13  33  13  34  13  35  14  36  14  37   9  38  14
M  ISO  5  39  14  40  14  41  14  42  14  43  14
M  END
>  <minimizedAffinity>  (1) 
-6.45996237

>  <minimizedRMSD>  (1) 
0.49515447

$$$$
