
     RDKit          3D

 56 60  0  0  1  0  0  0  0  0999 V2000
   38.7680   25.9700   34.7270 C   0  0  2  0  0  0  0  0  0  0  0  0
   39.0810   23.0560   36.9690 C   0  0  0  0  0  0  0  0  0  0  0  0
   38.4340   23.4470   38.1240 C   0  0  0  0  0  0  0  0  0  0  0  0
   37.8930   24.7190   38.1120 C   0  0  0  0  0  0  0  0  0  0  0  0
   38.0160   25.5020   37.0070 N   0  0  0  0  0  0  0  0  0  0  0  0
   38.6600   25.0790   35.8960 C   0  0  0  0  0  0  0  0  0  0  0  0
   39.1950   23.8300   35.8970 N   0  0  0  0  0  0  0  0  0  0  0  0
   38.3790   22.5350   39.2030 N   0  0  0  0  0  0  0  0  0  0  0  0
   39.1750   27.3510   35.1590 C   0  0  0  0  0  0  0  0  0  0  0  0
   37.4130   25.9840   34.0700 C   0  0  0  0  0  0  0  0  0  0  0  0
   37.0040   27.2320   33.4930 N   0  0  0  0  0  0  0  0  0  0  0  0
   36.3770   28.0850   34.3290 C   0  0  0  0  0  0  0  0  0  0  0  0
   35.9260   29.3290   33.9250 C   0  0  0  0  0  0  0  0  0  0  0  0
   36.1370   29.6910   32.6140 C   0  0  0  0  0  0  0  0  0  0  0  0
   35.6690   30.9740   32.2200 N   0  0  0  0  0  0  0  0  0  0  0  0
   36.7640   28.8330   31.7850 N   0  0  0  0  0  0  0  0  0  0  0  0
   37.1750   27.6460   32.2350 C   0  0  0  0  0  0  0  0  0  0  0  0
   37.7510   26.8540   31.4670 O   0  0  0  0  0  0  0  0  0  0  0  0
   35.2380   30.2100   34.8840 C   0  0  0  0  0  0  0  0  0  0  0  0
   35.9230   31.1080   35.6530 C   0  0  0  0  0  0  0  0  0  0  0  0
   35.2620   31.9260   36.5500 C   0  0  0  0  0  0  0  0  0  0  0  0
   33.9140   31.7920   36.6270 C   0  0  0  0  0  0  0  0  0  0  0  0
   33.1780   30.9080   35.8800 C   0  0  0  0  0  0  0  0  0  0  0  0
   33.8530   30.0860   34.9770 C   0  0  0  0  0  0  0  0  0  0  0  0
   39.7780   25.4230   33.7250 C   0  0  0  0  0  0  0  0  0  0  0  0
   41.0910   25.9400   33.7510 N   0  0  0  0  0  0  0  0  0  0  0  0
   41.2190   26.9050   32.7710 C   0  0  0  0  0  0  0  0  0  0  0  0
   42.4630   27.4770   32.7800 N   0  0  0  0  0  0  0  0  0  0  0  0
   43.1920   26.9110   33.7580 C   0  0  0  0  0  0  0  0  0  0  0  0
   44.4380   26.8960   34.3710 C   0  0  0  0  0  0  0  0  0  0  0  0
   44.7030   26.0530   35.3860 N   0  0  0  0  0  0  0  0  0  0  0  0
   43.8110   25.1760   35.8820 C   0  0  0  0  0  0  0  0  0  0  0  0
   42.6040   25.1870   35.2930 N   0  0  0  0  0  0  0  0  0  0  0  0
   42.3120   26.0190   34.2790 C   0  0  0  0  0  0  0  0  0  0  0  0
   39.5253   22.0503   36.9354 H   0  0  0  0  0  0  0  0  0  0  0  0
   37.3622   25.0984   38.9976 H   0  0  0  0  0  0  0  0  0  0  0  0
   37.9028   22.7996   40.0772 H   0  0  0  0  0  0  0  0  0  0  0  0
   38.8151   21.6061   39.1149 H   0  0  0  0  0  0  0  0  0  0  0  0
   39.1900   27.4020   36.2577 H   0  0  0  0  0  0  0  0  0  0  0  0
   40.1779   27.5769   34.7677 H   0  0  0  0  0  0  0  0  0  0  0  0
   38.4549   28.0847   34.7677 H   0  0  0  0  0  0  0  0  0  0  0  0
   37.4200   25.2298   33.2692 H   0  0  0  0  0  0  0  0  0  0  0  0
   36.6921   25.7807   34.8756 H   0  0  0  0  0  0  0  0  0  0  0  0
   36.2179   27.7793   35.3736 H   0  0  0  0  0  0  0  0  0  0  0  0
   35.8010   31.2949   31.2502 H   0  0  0  0  0  0  0  0  0  0  0  0
   35.1978   31.5828   32.9043 H   0  0  0  0  0  0  0  0  0  0  0  0
   37.0164   31.1810   35.5569 H   0  0  0  0  0  0  0  0  0  0  0  0
   35.8042   32.6525   37.1731 H   0  0  0  0  0  0  0  0  0  0  0  0
   33.3747   32.4363   37.3369 H   0  0  0  0  0  0  0  0  0  0  0  0
   32.0851   30.8487   35.9898 H   0  0  0  0  0  0  0  0  0  0  0  0
   33.3073   29.3604   34.3559 H   0  0  0  0  0  0  0  0  0  0  0  0
   39.8511   24.3386   33.8947 H   0  0  0  0  0  0  0  0  0  0  0  0
   39.3836   25.7306   32.7453 H   0  0  0  0  0  0  0  0  0  0  0  0
   40.4186   27.1805   32.0685 H   0  0  0  0  0  0  0  0  0  0  0  0
   45.2213   27.5845   34.0211 H   0  0  0  0  0  0  0  0  0  0  0  0
   44.0537   24.4969   36.7126 H   0  0  0  0  0  0  0  0  0  0  0  0
  1 25  1  6
  1  9  1  0
  1  6  1  0
  2  3  2  0
  3  8  1  0
  4  3  1  0
  5  4  2  0
  6  7  2  0
  6  5  1  0
  7  2  1  0
 10  1  1  0
 11 10  1  0
 11 12  1  0
 13 12  2  0
 13 19  1  0
 14 13  1  0
 15 14  1  0
 16 17  1  0
 16 14  2  0
 17 11  1  0
 18 17  2  0
 19 24  1  0
 19 20  2  0
 20 21  1  0
 21 22  2  0
 23 22  1  0
 24 23  2  0
 25 26  1  0
 26 34  1  0
 27 28  2  0
 27 26  1  0
 28 29  1  0
 29 34  2  0
 29 30  1  0
 30 31  2  0
 31 32  1  0
 33 32  2  0
 34 33  1  0
  2 35  1  0
  4 36  1  0
  8 37  1  0
  8 38  1  0
  9 39  1  0
  9 40  1  0
  9 41  1  0
 10 42  1  0
 10 43  1  0
 12 44  1  0
 15 45  1  0
 15 46  1  0
 20 47  1  0
 21 48  1  0
 22 49  1  0
 23 50  1  0
 24 51  1  0
 25 52  1  0
 25 53  1  0
 27 54  1  0
 30 55  1  0
 32 56  1  0
M  END
>  <minimizedAffinity>  (1) 
-7.11767197

>  <minimizedRMSD>  (1) 
1.47784626

$$$$
