
     RDKit          3D

 48 51  0  0  0  0  0  0  0  0999 V2000
   37.1580   26.6590   34.3270 C   0  0  0  0  0  0  0  0  0  0  0  0
   37.1750   25.7010   33.3130 C   0  0  0  0  0  0  0  0  0  0  0  0
   36.5420   25.9980   32.0910 C   0  0  0  0  0  0  0  0  0  0  0  0
   35.9520   27.2020   31.9800 N   0  0  0  0  0  0  0  0  0  0  0  0
   35.9400   28.1200   32.9630 C   0  0  0  0  0  0  0  0  0  0  0  0
   36.5460   27.8620   34.1610 N   0  0  0  0  0  0  0  0  0  0  0  0
   37.8180   26.3440   35.5930 C   0  0  0  0  0  0  0  0  0  0  0  0
   38.6730   27.1200   36.0400 O   0  0  0  0  0  0  0  0  0  0  0  0
   37.4750   25.1970   36.2600 O   0  0  0  0  0  0  0  0  0  0  0  0
   39.3780   22.8940   38.1510 N   0  0  0  0  0  0  0  0  0  0  0  0
   38.3360   23.6930   37.9410 N   0  0  0  0  0  0  0  0  0  0  0  0
   38.4580   24.2920   36.7290 C   0  0  0  0  0  0  0  0  0  0  0  0
   39.6220   23.8630   36.1420 C   0  0  0  0  0  0  0  0  0  0  0  0
   40.1600   22.9970   37.0590 C   0  0  0  0  0  0  0  0  0  0  0  0
   41.4440   22.2730   36.8570 C   0  0  0  0  0  0  0  0  0  0  0  0
   42.4890   22.9070   36.2120 C   0  0  0  0  0  0  0  0  0  0  0  0
   43.6250   22.1610   36.0740 C   0  0  0  0  0  0  0  0  0  0  0  0
   43.8050   20.8910   36.5050 N   0  0  0  0  0  0  0  0  0  0  0  0
   42.7410   20.3070   37.1380 C   0  0  0  0  0  0  0  0  0  0  0  0
   41.6030   21.0080   37.2940 N   0  0  0  0  0  0  0  0  0  0  0  0
   35.2640   29.4250   32.7500 C   0  0  0  0  0  0  0  0  0  0  0  0
   35.8640   30.4140   33.7110 C   0  0  0  0  0  0  0  0  0  0  0  0
   33.7970   29.2270   33.0740 C   0  0  0  0  0  0  0  0  0  0  0  0
   35.4160   29.8820   31.3130 C   0  0  0  0  0  0  0  0  0  0  0  0
   36.8040   30.0440   31.1050 O   0  0  0  0  0  0  0  0  0  0  0  0
   37.9030   28.6160   28.0750 N   0  0  0  0  0  0  0  0  0  0  0  0
   37.1670   28.6160   29.1730 N   0  0  0  0  0  0  0  0  0  0  0  0
   37.4060   29.7230   29.8910 C   0  0  0  0  0  0  0  0  0  0  0  0
   38.3580   30.5050   29.2310 C   0  0  0  0  0  0  0  0  0  0  0  0
   38.6380   29.7620   28.0900 C   0  0  0  0  0  0  0  0  0  0  0  0
   37.6734   24.7323   33.4653 H   0  0  0  0  0  0  0  0  0  0  0  0
   36.5303   25.2757   31.2615 H   0  0  0  0  0  0  0  0  0  0  0  0
   39.5524   22.3123   38.9829 H   0  0  0  0  0  0  0  0  0  0  0  0
   40.0298   24.1484   35.1610 H   0  0  0  0  0  0  0  0  0  0  0  0
   42.4116   23.9381   35.8368 H   0  0  0  0  0  0  0  0  0  0  0  0
   44.4746   22.6383   35.5638 H   0  0  0  0  0  0  0  0  0  0  0  0
   42.8154   19.2763   37.5149 H   0  0  0  0  0  0  0  0  0  0  0  0
   35.6665   30.0885   34.7430 H   0  0  0  0  0  0  0  0  0  0  0  0
   36.9500   30.4726   33.5464 H   0  0  0  0  0  0  0  0  0  0  0  0
   35.4143   31.4043   33.5464 H   0  0  0  0  0  0  0  0  0  0  0  0
   33.6618   29.2088   34.1655 H   0  0  0  0  0  0  0  0  0  0  0  0
   33.2120   30.0543   32.6458 H   0  0  0  0  0  0  0  0  0  0  0  0
   33.4523   28.2742   32.6458 H   0  0  0  0  0  0  0  0  0  0  0  0
   35.0115   29.1246   30.6254 H   0  0  0  0  0  0  0  0  0  0  0  0
   34.8669   30.8165   31.1253 H   0  0  0  0  0  0  0  0  0  0  0  0
   37.9177   27.8877   27.3468 H   0  0  0  0  0  0  0  0  0  0  0  0
   38.7821   31.4721   29.5391 H   0  0  0  0  0  0  0  0  0  0  0  0
   39.3532   30.0584   27.3086 H   0  0  0  0  0  0  0  0  0  0  0  0
  1  7  1  0
  2  1  2  0
  3  2  1  0
  4  3  2  0
  4  5  1  0
  5  6  2  0
  6  1  1  0
  7  8  2  0
  7  9  1  0
  9 12  1  0
 11 10  1  0
 12 11  2  0
 13 12  1  0
 13 14  2  0
 14 10  1  0
 15 14  1  0
 15 20  1  0
 16 15  2  0
 17 16  1  0
 17 18  2  0
 18 19  1  0
 19 20  2  0
 21  5  1  0
 21 23  1  0
 21 22  1  0
 24 21  1  0
 25 24  1  0
 26 30  1  0
 26 27  1  0
 27 28  2  0
 28 25  1  0
 29 28  1  0
 30 29  2  0
  2 31  1  0
  3 32  1  0
 10 33  1  0
 13 34  1  0
 16 35  1  0
 17 36  1  0
 19 37  1  0
 22 38  1  0
 22 39  1  0
 22 40  1  0
 23 41  1  0
 23 42  1  0
 23 43  1  0
 24 44  1  0
 24 45  1  0
 26 46  1  0
 29 47  1  0
 30 48  1  0
M  ISO  8  31  14  32  14  33   9  34  14  35  14  36  14  37  14  38   8
M  ISO  8  39   8  40   8  41   8  42   8  43   8  44   8  45   8  46   9
M  ISO  2  47  14  48  14
M  END
>  <minimizedAffinity>  (1) 
-5.85268164

>  <minimizedRMSD>  (1) 
0.594554842

$$$$
