
     RDKit          3D

 32 35  0  0  0  0  0  0  0  0999 V2000
   41.8510   22.0850   36.8180 C   0  0  0  0  0  0  0  0  0  0  0  0
   42.3960   23.2130   36.2520 C   0  0  0  0  0  0  0  0  0  0  0  0
   43.6640   22.9970   35.8430 N   0  0  0  0  0  0  0  0  0  0  0  0
   43.9940   21.7110   36.1310 C   0  0  0  0  0  0  0  0  0  0  0  0
   45.1530   20.9800   35.9280 C   0  0  0  0  0  0  0  0  0  0  0  0
   45.1960   19.6460   36.3390 C   0  0  0  0  0  0  0  0  0  0  0  0
   44.0840   19.0710   36.9420 C   0  0  0  0  0  0  0  0  0  0  0  0
   42.9400   19.8290   37.1310 C   0  0  0  0  0  0  0  0  0  0  0  0
   42.8800   21.1540   36.7290 C   0  0  0  0  0  0  0  0  0  0  0  0
   40.5900   21.9510   37.3350 O   0  0  0  0  0  0  0  0  0  0  0  0
   39.6110   22.9110   37.3370 C   0  0  0  0  0  0  0  0  0  0  0  0
   39.0530   23.2350   38.5750 C   0  0  0  0  0  0  0  0  0  0  0  0
   38.0440   24.2250   38.5730 C   0  0  0  0  0  0  0  0  0  0  0  0
   37.6770   24.7970   37.3960 N   0  0  0  0  0  0  0  0  0  0  0  0
   38.2580   24.4380   36.2330 C   0  0  0  0  0  0  0  0  0  0  0  0
   39.2110   23.5090   36.2060 N   0  0  0  0  0  0  0  0  0  0  0  0
   37.9290   24.9900   34.9640 N   0  0  0  0  0  0  0  0  0  0  0  0
   38.0490   24.5950   33.6830 C   0  0  0  0  0  0  0  0  0  0  0  0
   37.5230   25.6190   32.9240 C   0  0  0  0  0  0  0  0  0  0  0  0
   37.0880   26.6200   33.7320 N   0  0  0  0  0  0  0  0  0  0  0  0
   37.3510   26.2070   34.9870 C   0  0  0  0  0  0  0  0  0  0  0  0
   41.8656   24.1708   36.1458 H   0  0  0  0  0  0  0  0  0  0  0  0
   44.2771   23.6894   35.3896 H   0  0  0  0  0  0  0  0  0  0  0  0
   46.0279   21.4441   35.4494 H   0  0  0  0  0  0  0  0  0  0  0  0
   46.1087   19.0514   36.1856 H   0  0  0  0  0  0  0  0  0  0  0  0
   44.1119   18.0205   37.2672 H   0  0  0  0  0  0  0  0  0  0  0  0
   42.0621   19.3703   37.6095 H   0  0  0  0  0  0  0  0  0  0  0  0
   39.3814   22.7454   39.5037 H   0  0  0  0  0  0  0  0  0  0  0  0
   37.5613   24.5290   39.5135 H   0  0  0  0  0  0  0  0  0  0  0  0
   38.4780   23.6505   33.3171 H   0  0  0  0  0  0  0  0  0  0  0  0
   37.4644   25.6243   31.8256 H   0  0  0  0  0  0  0  0  0  0  0  0
   37.1264   26.7803   35.8986 H   0  0  0  0  0  0  0  0  0  0  0  0
  1 10  1  0
  2  1  2  0
  3  4  1  0
  3  2  1  0
  4  9  2  0
  5  4  1  0
  5  6  2  0
  6  7  1  0
  7  8  2  0
  9  1  1  0
  9  8  1  0
 10 11  1  0
 11 12  2  0
 13 12  1  0
 14 13  2  0
 15 14  1  0
 16 15  2  0
 16 11  1  0
 17 21  1  0
 17 15  1  0
 18 17  1  0
 19 18  2  0
 19 20  1  0
 20 21  2  0
  2 22  1  0
  3 23  1  0
  5 24  1  0
  6 25  1  0
  7 26  1  0
  8 27  1  0
 12 28  1  0
 13 29  1  0
 18 30  1  0
 19 31  1  0
 21 32  1  0
M  ISO  8  22  14  23   9  24  14  25  14  26  14  27  14  28  14  29  14
M  ISO  3  30  14  31  14  32  14
M  END
>  <minimizedAffinity>  (1) 
-5.29506731

>  <minimizedRMSD>  (1) 
1.06524181

$$$$
