
     RDKit          3D

 49 53  0  0  0  0  0  0  0  0999 V2000
   44.8550   24.8640   37.1970 N   0  0  0  0  0  0  0  0  0  0  0  0
   44.3350   25.6150   38.1590 N   0  0  0  0  0  0  0  0  0  0  0  0
   45.2030   25.9590   39.0810 C   0  0  0  0  0  0  0  0  0  0  0  0
   46.4210   25.4090   38.7420 C   0  0  0  0  0  0  0  0  0  0  0  0
   46.1580   24.7160   37.5320 C   0  0  0  0  0  0  0  0  0  0  0  0
   47.1970   23.9560   36.7830 C   0  0  0  0  0  0  0  0  0  0  0  0
   48.1760   24.6460   36.0240 C   0  0  0  0  0  0  0  0  0  0  0  0
   49.1660   23.2670   35.3360 S   0  0  0  0  0  0  0  0  0  0  0  0
   48.0790   21.9780   36.1960 C   0  0  0  0  0  0  0  0  0  0  0  0
   47.3510   22.6510   36.7160 N   0  0  0  0  0  0  0  0  0  0  0  0
   48.3830   26.0250   35.8180 N   0  0  0  0  0  0  0  0  0  0  0  0
   49.3450   26.6610   36.5430 C   0  0  0  0  0  0  0  0  0  0  0  0
   49.5830   28.0130   36.3750 C   0  0  0  0  0  0  0  0  0  0  0  0
   50.6470   28.7130   37.1780 C   0  0  0  0  0  0  0  0  0  0  0  0
   48.8430   28.7140   35.4680 C   0  0  0  0  0  0  0  0  0  0  0  0
   49.0460   29.9580   35.2980 O   0  0  0  0  0  0  0  0  0  0  0  0
   47.8780   28.0790   34.7400 N   0  0  0  0  0  0  0  0  0  0  0  0
   47.6570   26.7460   34.9190 C   0  0  0  0  0  0  0  0  0  0  0  0
   46.7740   26.1190   34.2660 O   0  0  0  0  0  0  0  0  0  0  0  0
   48.3270   20.5270   36.0640 C   0  0  0  0  0  0  0  0  0  0  0  0
   48.2090   20.0940   34.7670 F   0  0  0  0  0  0  0  0  0  0  0  0
   47.3490   19.9250   36.8500 F   0  0  0  0  0  0  0  0  0  0  0  0
   49.5530   20.1640   36.6260 F   0  0  0  0  0  0  0  0  0  0  0  0
   44.2360   24.2940   36.0270 C   0  0  0  0  0  0  0  0  0  0  0  0
   41.0650   22.4700   37.0030 C   0  0  0  0  0  0  0  0  0  0  0  0
   41.9600   23.4710   36.6670 C   0  0  0  0  0  0  0  0  0  0  0  0
   43.2900   23.1910   36.3870 C   0  0  0  0  0  0  0  0  0  0  0  0
   43.6520   21.8680   36.4660 N   0  0  0  0  0  0  0  0  0  0  0  0
   42.7760   20.8970   36.7940 C   0  0  0  0  0  0  0  0  0  0  0  0
   41.5010   21.2350   37.0540 N   0  0  0  0  0  0  0  0  0  0  0  0
   39.6720   22.8450   37.2870 C   0  0  0  0  0  0  0  0  0  0  0  0
   38.6590   22.8380   36.3300 C   0  0  0  0  0  0  0  0  0  0  0  0
   37.5590   23.2530   37.0560 C   0  0  0  0  0  0  0  0  0  0  0  0
   37.9270   23.4880   38.3690 C   0  0  0  0  0  0  0  0  0  0  0  0
   39.2150   23.2220   38.4400 O   0  0  0  0  0  0  0  0  0  0  0  0
   44.9956   26.5767   39.9673 H   0  0  0  0  0  0  0  0  0  0  0  0
   47.3750   25.4889   39.2837 H   0  0  0  0  0  0  0  0  0  0  0  0
   49.9405   26.0916   37.2718 H   0  0  0  0  0  0  0  0  0  0  0  0
   50.4440   28.5795   38.2508 H   0  0  0  0  0  0  0  0  0  0  0  0
   51.6308   28.2851   36.9349 H   0  0  0  0  0  0  0  0  0  0  0  0
   50.6435   29.7858   36.9349 H   0  0  0  0  0  0  0  0  0  0  0  0
   47.3174   28.6070   34.0560 H   0  0  0  0  0  0  0  0  0  0  0  0
   45.0198   23.8915   35.3685 H   0  0  0  0  0  0  0  0  0  0  0  0
   43.6651   25.0854   35.5193 H   0  0  0  0  0  0  0  0  0  0  0  0
   41.6089   24.5124   36.6209 H   0  0  0  0  0  0  0  0  0  0  0  0
   43.0988   19.8468   36.8479 H   0  0  0  0  0  0  0  0  0  0  0  0
   38.7198   22.5697   35.2650 H   0  0  0  0  0  0  0  0  0  0  0  0
   36.5438   23.3777   36.6512 H   0  0  0  0  0  0  0  0  0  0  0  0
   37.2758   23.8281   39.1877 H   0  0  0  0  0  0  0  0  0  0  0  0
  1  5  1  0
  1  2  1  0
  2  3  2  0
  4  3  1  0
  5  4  2  0
  6  5  1  0
  7  6  2  0
  8  7  1  0
  8  9  1  0
  9 10  2  0
 10  6  1  0
 11  7  1  0
 11 12  1  0
 13 12  2  0
 13 14  1  0
 15 13  1  0
 16 15  2  0
 17 18  1  0
 17 15  1  0
 18 11  1  0
 19 18  2  0
 20  9  1  0
 20 23  1  0
 20 22  1  0
 21 20  1  0
 24 27  1  0
 24  1  1  0
 25 30  1  0
 25 31  1  0
 26 25  2  0
 27 28  2  0
 27 26  1  0
 28 29  1  0
 29 30  2  0
 31 35  1  0
 32 33  1  0
 32 31  2  0
 33 34  2  0
 34 35  1  0
  3 36  1  0
  4 37  1  0
 12 38  1  0
 14 39  1  0
 14 40  1  0
 14 41  1  0
 17 42  1  0
 24 43  1  0
 24 44  1  0
 26 45  1  0
 29 46  1  0
 32 47  1  0
 33 48  1  0
 34 49  1  0
M  ISO  8  36  14  37  14  38  14  39   8  40   8  41   8  42   9  43   8
M  ISO  6  44   8  45  14  46  14  47  14  48  14  49  14
M  END
>  <minimizedAffinity>  (1) 
-5.74636745

>  <minimizedRMSD>  (1) 
0.522224128

$$$$
