
     RDKit          3D

 50 55  0  0  0  0  0  0  0  0999 V2000
   39.5220   23.4150   32.4350 C   0  0  0  0  0  0  0  0  0  0  0  0
   40.3120   22.3910   32.9350 C   0  0  0  0  0  0  0  0  0  0  0  0
   39.8840   21.0610   32.9510 C   0  0  0  0  0  0  0  0  0  0  0  0
   38.6280   20.7350   32.4550 C   0  0  0  0  0  0  0  0  0  0  0  0
   37.8210   21.7390   31.9510 C   0  0  0  0  0  0  0  0  0  0  0  0
   36.5780   21.4310   31.4650 C   0  0  0  0  0  0  0  0  0  0  0  0
   35.7340   22.3810   30.9580 C   0  0  0  0  0  0  0  0  0  0  0  0
   36.1940   23.7010   30.9480 C   0  0  0  0  0  0  0  0  0  0  0  0
   37.4570   23.9700   31.4460 C   0  0  0  0  0  0  0  0  0  0  0  0
   38.3000   23.0310   31.9600 C   0  0  0  0  0  0  0  0  0  0  0  0
   37.6060   25.3500   31.1680 N   0  0  0  0  0  0  0  0  0  0  0  0
   38.2080   26.1630   30.3060 C   0  0  0  0  0  0  0  0  0  0  0  0
   38.2210   27.5230   30.3180 C   0  0  0  0  0  0  0  0  0  0  0  0
   38.9830   28.1560   29.2180 C   0  0  0  0  0  0  0  0  0  0  0  0
   37.5540   28.2040   31.3110 C   0  0  0  0  0  0  0  0  0  0  0  0
   37.6220   29.4530   31.2390 O   0  0  0  0  0  0  0  0  0  0  0  0
   36.9090   27.4800   32.2380 N   0  0  0  0  0  0  0  0  0  0  0  0
   36.9520   26.1170   32.1430 C   0  0  0  0  0  0  0  0  0  0  0  0
   36.2870   25.5900   33.1050 O   0  0  0  0  0  0  0  0  0  0  0  0
   39.9870   24.7740   32.4540 C   0  0  0  0  0  0  0  0  0  0  0  0
   39.8410   25.6230   33.5750 C   0  0  0  0  0  0  0  0  0  0  0  0
   40.3440   26.9230   33.4800 C   0  0  0  0  0  0  0  0  0  0  0  0
   40.9530   27.3230   32.3230 N   0  0  0  0  0  0  0  0  0  0  0  0
   41.0780   26.4800   31.2670 C   0  0  0  0  0  0  0  0  0  0  0  0
   40.6060   25.2610   31.3560 N   0  0  0  0  0  0  0  0  0  0  0  0
   39.2420   25.1530   34.7280 N   0  0  0  0  0  0  0  0  0  0  0  0
   38.0120   25.4480   35.1640 C   0  0  0  0  0  0  0  0  0  0  0  0
   37.7150   24.8260   36.3250 N   0  0  0  0  0  0  0  0  0  0  0  0
   38.8210   24.0950   36.6400 C   0  0  0  0  0  0  0  0  0  0  0  0
   39.1330   23.2620   37.6810 C   0  0  0  0  0  0  0  0  0  0  0  0
   40.3120   22.6210   37.7990 N   0  0  0  0  0  0  0  0  0  0  0  0
   41.2040   22.8540   36.8020 C   0  0  0  0  0  0  0  0  0  0  0  0
   40.8800   23.6670   35.8020 N   0  0  0  0  0  0  0  0  0  0  0  0
   39.7410   24.3160   35.6410 C   0  0  0  0  0  0  0  0  0  0  0  0
   41.3086   22.6337   33.3322 H   0  0  0  0  0  0  0  0  0  0  0  0
   40.5391   20.2750   33.3548 H   0  0  0  0  0  0  0  0  0  0  0  0
   38.2796   19.6916   32.4630 H   0  0  0  0  0  0  0  0  0  0  0  0
   36.2465   20.3823   31.4830 H   0  0  0  0  0  0  0  0  0  0  0  0
   34.7370   22.1176   30.5750 H   0  0  0  0  0  0  0  0  0  0  0  0
   35.5639   24.5109   30.5517 H   0  0  0  0  0  0  0  0  0  0  0  0
   38.7604   25.6793   29.4869 H   0  0  0  0  0  0  0  0  0  0  0  0
   39.7645   28.8052   29.6396 H   0  0  0  0  0  0  0  0  0  0  0  0
   39.4493   27.3757   28.5985 H   0  0  0  0  0  0  0  0  0  0  0  0
   38.3014   28.7574   28.5985 H   0  0  0  0  0  0  0  0  0  0  0  0
   36.3941   27.9397   33.0025 H   0  0  0  0  0  0  0  0  0  0  0  0
   40.2510   27.6179   34.3277 H   0  0  0  0  0  0  0  0  0  0  0  0
   41.5716   26.8174   30.3437 H   0  0  0  0  0  0  0  0  0  0  0  0
   37.3207   26.1213   34.6361 H   0  0  0  0  0  0  0  0  0  0  0  0
   38.3778   23.1074   38.4657 H   0  0  0  0  0  0  0  0  0  0  0  0
   42.1921   22.3711   36.8221 H   0  0  0  0  0  0  0  0  0  0  0  0
  1 20  1  0
  1  2  2  0
  2  3  1  0
  4  3  2  0
  5 10  2  0
  5  4  1  0
  6  5  1  0
  7  6  2  0
  8  7  1  0
  8  9  2  0
  9 10  1  0
 10  1  1  0
 11  9  1  0
 11 18  1  0
 12 13  2  0
 12 11  1  0
 13 15  1  0
 14 13  1  0
 15 17  1  0
 16 15  2  0
 18 17  1  0
 18 19  2  0
 20 21  1  0
 21 26  1  0
 22 21  2  0
 23 22  1  0
 24 25  1  0
 24 23  2  0
 25 20  2  0
 26 27  1  0
 26 34  1  0
 27 28  2  0
 28 29  1  0
 29 30  2  0
 30 31  1  0
 32 31  2  0
 33 32  1  0
 34 33  2  0
 34 29  1  0
  2 35  1  0
  3 36  1  0
  4 37  1  0
  6 38  1  0
  7 39  1  0
  8 40  1  0
 12 41  1  0
 14 42  1  0
 14 43  1  0
 14 44  1  0
 17 45  1  0
 22 46  1  0
 24 47  1  0
 27 48  1  0
 30 49  1  0
 32 50  1  0
M  ISO  8  35  14  36  14  37  14  38  14  39  14  40  14  41  14  42   8
M  ISO  8  43   8  44   8  45   9  46  14  47  14  48  14  49  14  50  14
M  END
>  <minimizedAffinity>  (1) 
-5.53687239

>  <minimizedRMSD>  (1) 
1.78782201

$$$$
