
     RDKit          3D

 37 40  0  0  1  0  0  0  0  0999 V2000
   38.0260   22.6790   33.9680 C   0  0  1  0  0  0  0  0  0  0  0  0
   38.7380   23.0720   32.7420 C   0  0  0  0  0  0  0  0  0  0  0  0
   39.3780   22.0850   33.6640 C   0  0  1  0  0  0  0  0  0  0  0  0
   40.5860   22.4130   34.3130 N   0  0  0  0  0  0  0  0  0  0  0  0
   40.8710   21.7730   35.4980 C   0  0  0  0  0  0  0  0  0  0  0  0
   41.9750   21.9230   36.3070 C   0  0  0  0  0  0  0  0  0  0  0  0
   42.1430   21.1680   37.5510 C   0  0  0  0  0  0  0  0  0  0  0  0
   42.9190   22.8300   35.8800 C   0  0  0  0  0  0  0  0  0  0  0  0
   43.9690   23.0560   36.5290 O   0  0  0  0  0  0  0  0  0  0  0  0
   42.6940   23.4820   34.7330 N   0  0  0  0  0  0  0  0  0  0  0  0
   41.5830   23.2640   34.0140 C   0  0  0  0  0  0  0  0  0  0  0  0
   41.4630   23.9240   32.9530 O   0  0  0  0  0  0  0  0  0  0  0  0
   38.0960   24.8000   35.3060 C   0  0  0  0  0  0  0  0  0  0  0  0
   38.0150   25.1600   36.6570 C   0  0  0  0  0  0  0  0  0  0  0  0
   37.8490   23.9500   37.2890 N   0  0  0  0  0  0  0  0  0  0  0  0
   37.8400   23.0030   36.3780 C   0  0  0  0  0  0  0  0  0  0  0  0
   37.9910   23.4920   35.1420 N   0  0  0  0  0  0  0  0  0  0  0  0
   38.2710   25.7580   34.2130 C   0  0  0  0  0  0  0  0  0  0  0  0
   37.1460   26.1470   33.4590 C   0  0  0  0  0  0  0  0  0  0  0  0
   37.3530   27.0710   32.4150 C   0  0  0  0  0  0  0  0  0  0  0  0
   38.6140   27.5200   32.2080 N   0  0  0  0  0  0  0  0  0  0  0  0
   39.6720   27.1160   32.9610 C   0  0  0  0  0  0  0  0  0  0  0  0
   39.5010   26.2340   33.9650 N   0  0  0  0  0  0  0  0  0  0  0  0
   36.9917   22.3417   34.1305 H   0  0  0  0  0  0  0  0  0  0  0  0
   39.1541   24.0863   32.6525 H   0  0  0  0  0  0  0  0  0  0  0  0
   38.4858   23.0762   31.6713 H   0  0  0  0  0  0  0  0  0  0  0  0
   39.7539   21.0518   33.6278 H   0  0  0  0  0  0  0  0  0  0  0  0
   40.1194   21.0478   35.8433 H   0  0  0  0  0  0  0  0  0  0  0  0
   41.9938   21.8387   38.4100 H   0  0  0  0  0  0  0  0  0  0  0  0
   41.4040   20.3541   37.5886 H   0  0  0  0  0  0  0  0  0  0  0  0
   43.1574   20.7442   37.5886 H   0  0  0  0  0  0  0  0  0  0  0  0
   43.3877   24.1646   34.3958 H   0  0  0  0  0  0  0  0  0  0  0  0
   38.0705   26.1640   37.1030 H   0  0  0  0  0  0  0  0  0  0  0  0
   37.7221   21.9332   36.6052 H   0  0  0  0  0  0  0  0  0  0  0  0
   36.1454   25.7453   33.6766 H   0  0  0  0  0  0  0  0  0  0  0  0
   36.5174   27.4164   31.7885 H   0  0  0  0  0  0  0  0  0  0  0  0
   40.6758   27.5127   32.7485 H   0  0  0  0  0  0  0  0  0  0  0  0
  1 17  1  0
  2  3  1  0
  2  1  1  0
  3  1  1  0
  3  4  1  0
  4  5  1  0
  5  6  2  0
  6  7  1  0
  8  6  1  0
  8  9  2  0
 10  8  1  0
 11  4  1  0
 11 10  1  0
 12 11  2  0
 13 14  2  0
 14 15  1  0
 16 15  2  0
 17 13  1  0
 17 16  1  0
 18 13  1  0
 19 18  2  0
 20 19  1  0
 21 20  2  0
 21 22  1  0
 22 23  2  0
 23 18  1  0
  1 24  1  6
  2 25  1  0
  2 26  1  0
  3 27  1  6
  5 28  1  0
  7 29  1  0
  7 30  1  0
  7 31  1  0
 10 32  1  0
 14 33  1  0
 16 34  1  0
 19 35  1  0
 20 36  1  0
 22 37  1  0
M  ISO  8  24  13  25  13  26  13  27  13  28  14  29   8  30   8  31   8
M  ISO  6  32   9  33  14  34  14  35  14  36  14  37  14
M  END
>  <minimizedAffinity>  (1) 
-4.21095276

>  <minimizedRMSD>  (1) 
6.8628974

$$$$
