
     RDKit          3D

 14 14  0  0  0  0  0  0  0  0999 V2000
   39.7330   22.8320   37.6740 C   0  0  0  0  0  0  0  0  0  0  0  0
   38.9040   23.3170   38.7000 C   0  0  0  0  0  0  0  0  0  0  0  0
   37.9320   24.2630   38.3600 C   0  0  0  0  0  0  0  0  0  0  0  0
   37.8310   24.6750   37.0390 N   0  0  0  0  0  0  0  0  0  0  0  0
   38.6570   24.1770   36.0800 C   0  0  0  0  0  0  0  0  0  0  0  0
   39.5940   23.2640   36.4160 N   0  0  0  0  0  0  0  0  0  0  0  0
   38.5150   24.7160   34.3890 S   0  0  0  0  0  0  0  0  0  0  0  0
   37.3990   26.1420   34.3160 C   0  0  0  0  0  0  0  0  0  0  0  0
   40.5071   22.0866   37.9090 H   0  0  0  0  0  0  0  0  0  0  0  0
   39.0160   22.9642   39.7359 H   0  0  0  0  0  0  0  0  0  0  0  0
   37.2588   24.6736   39.1269 H   0  0  0  0  0  0  0  0  0  0  0  0
   37.1475   26.4634   35.3375 H   0  0  0  0  0  0  0  0  0  0  0  0
   37.8934   26.9676   33.7831 H   0  0  0  0  0  0  0  0  0  0  0  0
   36.4788   25.8605   33.7831 H   0  0  0  0  0  0  0  0  0  0  0  0
  1  2  2  0
  3  2  1  0
  4  3  2  0
  5  6  2  0
  5  4  1  0
  6  1  1  0
  7  5  1  0
  8  7  1  0
  1  9  1  0
  2 10  1  0
  3 11  1  0
  8 12  1  0
  8 13  1  0
  8 14  1  0
M  ISO  6   9  14  10  14  11  14  12   8  13   8  14   8
M  END
>  <minimizedAffinity>  (1) 
-2.74218678

>  <minimizedRMSD>  (1) 
0.329329967

$$$$
