
     RDKit          3D

 44 47  0  0  1  0  0  0  0  0999 V2000
   37.0110   21.4920   34.1890 C   0  0  0  0  0  0  0  0  0  0  0  0
   36.6210   21.2840   35.3540 O   0  0  0  0  0  0  0  0  0  0  0  0
   36.4570   20.6870   33.1830 N   0  0  0  0  0  0  0  0  0  0  0  0
   36.0540   19.3310   33.6140 C   0  0  0  0  0  0  0  0  0  0  0  0
   35.2240   18.6280   32.5970 C   0  0  0  0  0  0  0  0  0  0  0  0
   34.3520   19.4200   31.9070 O   0  0  0  0  0  0  0  0  0  0  0  0
   34.7450   20.6480   31.5650 C   0  0  0  0  0  0  0  0  0  0  0  0
   36.2010   20.9230   31.7630 C   0  0  1  0  0  0  0  0  0  0  0  0
   40.1260   23.2980   33.4080 C   0  0  0  0  0  0  0  0  0  0  0  0
   39.7810   24.6260   33.6860 C   0  0  0  0  0  0  0  0  0  0  0  0
   38.5010   24.8770   34.1300 C   0  0  0  0  0  0  0  0  0  0  0  0
   37.6860   23.8030   34.2580 N   0  0  0  0  0  0  0  0  0  0  0  0
   38.0060   22.5560   33.9990 C   0  0  0  0  0  0  0  0  0  0  0  0
   39.2650   22.2960   33.5610 N   0  0  0  0  0  0  0  0  0  0  0  0
   36.4420   22.3340   31.3540 C   0  0  0  0  0  0  0  0  0  0  0  0
   37.4640   22.9390   30.7710 N   0  0  0  0  0  0  0  0  0  0  0  0
   37.2080   24.1890   30.5870 O   0  0  0  0  0  0  0  0  0  0  0  0
   35.9890   24.4380   31.0550 C   0  0  0  0  0  0  0  0  0  0  0  0
   35.4580   23.2910   31.5550 N   0  0  0  0  0  0  0  0  0  0  0  0
   35.2390   25.7130   31.0770 C   0  0  0  0  0  0  0  0  0  0  0  0
   34.0140   25.7750   30.8410 O   0  0  0  0  0  0  0  0  0  0  0  0
   36.0100   26.8960   31.3930 N   0  0  0  0  0  0  0  0  0  0  0  0
   36.4110   27.6710   32.5760 C   0  0  0  0  0  0  0  0  0  0  0  0
   37.8890   27.9370   32.4010 C   0  0  0  0  0  0  0  0  0  0  0  0
   38.0990   27.8400   30.8940 C   0  0  0  0  0  0  0  0  0  0  0  0
   36.6780   27.7140   30.3690 C   0  0  0  0  0  0  0  0  0  0  0  0
   36.9608   18.7368   33.8000 H   0  0  0  0  0  0  0  0  0  0  0  0
   35.4447   19.4387   34.5235 H   0  0  0  0  0  0  0  0  0  0  0  0
   35.9029   18.1571   31.8708 H   0  0  0  0  0  0  0  0  0  0  0  0
   34.6060   17.9081   33.1536 H   0  0  0  0  0  0  0  0  0  0  0  0
   34.1761   21.3693   32.1700 H   0  0  0  0  0  0  0  0  0  0  0  0
   34.5585   20.7410   30.4849 H   0  0  0  0  0  0  0  0  0  0  0  0
   36.8731   20.2874   31.1678 H   0  0  0  0  0  0  0  0  0  0  0  0
   41.1426   23.0760   33.0513 H   0  0  0  0  0  0  0  0  0  0  0  0
   40.5073   25.4416   33.5544 H   0  0  0  0  0  0  0  0  0  0  0  0
   38.1594   25.8952   34.3678 H   0  0  0  0  0  0  0  0  0  0  0  0
   35.8527   28.6176   32.6231 H   0  0  0  0  0  0  0  0  0  0  0  0
   36.2011   27.1291   33.5099 H   0  0  0  0  0  0  0  0  0  0  0  0
   38.1534   28.9390   32.7700 H   0  0  0  0  0  0  0  0  0  0  0  0
   38.5181   27.2325   32.9648 H   0  0  0  0  0  0  0  0  0  0  0  0
   38.5884   28.7439   30.5022 H   0  0  0  0  0  0  0  0  0  0  0  0
   38.7513   27.0060   30.5958 H   0  0  0  0  0  0  0  0  0  0  0  0
   36.2015   28.7015   30.2810 H   0  0  0  0  0  0  0  0  0  0  0  0
   36.6284   27.2701   29.3638 H   0  0  0  0  0  0  0  0  0  0  0  0
  1  2  2  0
  3  4  1  0
  3  1  1  0
  5  4  1  0
  6  5  1  0
  7  8  1  0
  7  6  1  0
  8  3  1  0
  9 14  2  0
  9 10  1  0
 10 11  2  0
 11 12  1  0
 13  1  1  0
 13 12  2  0
 14 13  1  0
 15 19  1  0
 15  8  1  0
 16 15  2  0
 17 16  1  0
 17 18  1  0
 18 20  1  0
 18 19  2  0
 20 22  1  0
 21 20  2  0
 22 23  1  0
 24 23  1  0
 25 24  1  0
 26 25  1  0
 26 22  1  0
  4 27  1  0
  4 28  1  0
  5 29  1  0
  5 30  1  0
  7 31  1  0
  7 32  1  0
  8 33  1  6
  9 34  1  0
 10 35  1  0
 11 36  1  0
 23 37  1  0
 23 38  1  0
 24 39  1  0
 24 40  1  0
 25 41  1  0
 25 42  1  0
 26 43  1  0
 26 44  1  0
M  ISO  8  27  13  28  13  29  13  30  13  31  13  32  13  33  13  34  14
M  ISO  8  35  14  36  14  37  13  38  13  39  13  40  13  41  13  42  13
M  ISO  2  43  13  44  13
M  END
>  <minimizedAffinity>  (1) 
-4.69658422

>  <minimizedRMSD>  (1) 
4.44160986

$$$$
