
     RDKit          3D

 45 49  0  0  0  0  0  0  0  0999 V2000
   37.7730   27.2650   35.1930 C   0  0  0  0  0  0  0  0  0  0  0  0
   38.9950   26.4830   35.1010 C   0  0  0  0  0  0  0  0  0  0  0  0
   40.1100   26.9830   34.4320 C   0  0  0  0  0  0  0  0  0  0  0  0
   41.2710   26.2660   34.3490 C   0  0  0  0  0  0  0  0  0  0  0  0
   41.3750   25.0020   34.9370 C   0  0  0  0  0  0  0  0  0  0  0  0
   40.2680   24.4990   35.6060 C   0  0  0  0  0  0  0  0  0  0  0  0
   40.3570   23.2500   36.1920 C   0  0  0  0  0  0  0  0  0  0  0  0
   39.2840   22.7080   36.8670 C   0  0  0  0  0  0  0  0  0  0  0  0
   38.1060   23.4370   36.9500 C   0  0  0  0  0  0  0  0  0  0  0  0
   38.0510   24.6890   36.3490 C   0  0  0  0  0  0  0  0  0  0  0  0
   39.1010   25.2630   35.6680 C   0  0  0  0  0  0  0  0  0  0  0  0
   35.8590   28.6800   32.4030 C   0  0  0  0  0  0  0  0  0  0  0  0
   35.5940   27.6050   31.5800 C   0  0  0  0  0  0  0  0  0  0  0  0
   36.0820   26.3400   31.9840 C   0  0  0  0  0  0  0  0  0  0  0  0
   36.7830   26.2480   33.1540 N   0  0  0  0  0  0  0  0  0  0  0  0
   37.0060   27.3170   33.9040 C   0  0  0  0  0  0  0  0  0  0  0  0
   36.5490   28.5360   33.5360 N   0  0  0  0  0  0  0  0  0  0  0  0
   35.8440   25.1590   31.1720 C   0  0  0  0  0  0  0  0  0  0  0  0
   34.7790   25.1100   30.4930 O   0  0  0  0  0  0  0  0  0  0  0  0
   36.6570   23.9560   30.9890 C   0  0  0  0  0  0  0  0  0  0  0  0
   37.8910   23.8660   30.3760 C   0  0  0  0  0  0  0  0  0  0  0  0
   38.2620   22.5680   30.4380 N   0  0  0  0  0  0  0  0  0  0  0  0
   37.3240   21.8310   31.0600 C   0  0  0  0  0  0  0  0  0  0  0  0
   37.2370   20.4720   31.3670 C   0  0  0  0  0  0  0  0  0  0  0  0
   36.1390   19.9580   32.0280 C   0  0  0  0  0  0  0  0  0  0  0  0
   35.1380   20.8410   32.3690 C   0  0  0  0  0  0  0  0  0  0  0  0
   35.1850   22.1840   32.0850 C   0  0  0  0  0  0  0  0  0  0  0  0
   36.2880   22.6940   31.4220 C   0  0  0  0  0  0  0  0  0  0  0  0
   37.1293   26.8183   35.9651 H   0  0  0  0  0  0  0  0  0  0  0  0
   38.0629   28.2963   35.4428 H   0  0  0  0  0  0  0  0  0  0  0  0
   40.0551   27.9754   33.9607 H   0  0  0  0  0  0  0  0  0  0  0  0
   42.1336   26.6887   33.8131 H   0  0  0  0  0  0  0  0  0  0  0  0
   42.3077   24.4226   34.8713 H   0  0  0  0  0  0  0  0  0  0  0  0
   41.2958   22.6815   36.1188 H   0  0  0  0  0  0  0  0  0  0  0  0
   39.3603   21.7141   37.3321 H   0  0  0  0  0  0  0  0  0  0  0  0
   37.2323   23.0316   37.4814 H   0  0  0  0  0  0  0  0  0  0  0  0
   37.1112   25.2559   36.4219 H   0  0  0  0  0  0  0  0  0  0  0  0
   35.4934   29.6778   32.1190 H   0  0  0  0  0  0  0  0  0  0  0  0
   35.0255   27.7266   30.6462 H   0  0  0  0  0  0  0  0  0  0  0  0
   38.4616   24.6910   29.9246 H   0  0  0  0  0  0  0  0  0  0  0  0
   39.1439   22.1935   30.0600 H   0  0  0  0  0  0  0  0  0  0  0  0
   38.0574   19.7989   31.0773 H   0  0  0  0  0  0  0  0  0  0  0  0
   36.0666   18.8879   32.2722 H   0  0  0  0  0  0  0  0  0  0  0  0
   34.2552   20.4501   32.8961 H   0  0  0  0  0  0  0  0  0  0  0  0
   34.3572   22.8455   32.3804 H   0  0  0  0  0  0  0  0  0  0  0  0
  2  1  1  0
  2 11  1  0
  3  2  2  0
  4  3  1  0
  4  5  2  0
  5  6  1  0
  6 11  2  0
  6  7  1  0
  7  8  2  0
  8  9  1  0
 10  9  2  0
 11 10  1  0
 12 17  2  0
 13 14  2  0
 13 12  1  0
 14 15  1  0
 15 16  2  0
 16  1  1  0
 17 16  1  0
 18 14  1  0
 19 18  2  0
 20 18  1  0
 20 28  1  0
 21 22  1  0
 21 20  2  0
 22 23  1  0
 23 24  1  0
 23 28  2  0
 24 25  2  0
 25 26  1  0
 27 26  2  0
 28 27  1  0
  1 29  1  0
  1 30  1  0
  3 31  1  0
  4 32  1  0
  5 33  1  0
  7 34  1  0
  8 35  1  0
  9 36  1  0
 10 37  1  0
 12 38  1  0
 13 39  1  0
 21 40  1  0
 22 41  1  0
 24 42  1  0
 25 43  1  0
 26 44  1  0
 27 45  1  0
M  END
>  <minimizedAffinity>  (1) 
-7.08939362

>  <minimizedRMSD>  (1) 
2.26479506

$$$$
