
     RDKit          3D

 38 41  0  0  0  0  0  0  0  0999 V2000
   38.8820   23.8800   34.5140 N   0  0  0  0  0  0  0  0  0  0  0  0
   39.1730   23.0070   33.5600 N   0  0  0  0  0  0  0  0  0  0  0  0
   39.1260   23.5480   32.3480 C   0  0  0  0  0  0  0  0  0  0  0  0
   38.7760   24.8800   32.5550 C   0  0  0  0  0  0  0  0  0  0  0  0
   38.6260   25.0750   33.9240 C   0  0  0  0  0  0  0  0  0  0  0  0
   38.6220   25.8090   31.4880 N   0  0  0  0  0  0  0  0  0  0  0  0
   39.4730   25.8050   30.4210 C   0  0  0  0  0  0  0  0  0  0  0  0
   39.1190   26.7770   29.5480 N   0  0  0  0  0  0  0  0  0  0  0  0
   38.0390   27.3940   30.0720 C   0  0  0  0  0  0  0  0  0  0  0  0
   37.1970   28.4440   29.7070 C   0  0  0  0  0  0  0  0  0  0  0  0
   37.4870   28.9850   28.6070 O   0  0  0  0  0  0  0  0  0  0  0  0
   36.1690   28.8190   30.4970 N   0  0  0  0  0  0  0  0  0  0  0  0
   35.9050   28.2010   31.6690 C   0  0  0  0  0  0  0  0  0  0  0  0
   34.7850   28.7450   32.3430 N   0  0  0  0  0  0  0  0  0  0  0  0
   36.7010   27.1680   32.0670 N   0  0  0  0  0  0  0  0  0  0  0  0
   37.7240   26.7900   31.2900 C   0  0  0  0  0  0  0  0  0  0  0  0
   37.6670   23.7990   36.5990 C   0  0  0  0  0  0  0  0  0  0  0  0
   38.8480   23.6110   35.8830 C   0  0  0  0  0  0  0  0  0  0  0  0
   40.0000   23.1560   36.5300 C   0  0  0  0  0  0  0  0  0  0  0  0
   39.8800   22.9150   37.8800 N   0  0  0  0  0  0  0  0  0  0  0  0
   38.7470   23.0970   38.5550 C   0  0  0  0  0  0  0  0  0  0  0  0
   37.6280   23.5410   37.9190 N   0  0  0  0  0  0  0  0  0  0  0  0
   38.2680   26.3210   34.5360 N   0  0  0  0  0  0  0  0  0  0  0  0
   39.1660   27.0480   35.3830 C   0  0  0  0  0  0  0  0  0  0  0  0
   40.4260   27.0070   35.0440 N   0  0  0  0  0  0  0  0  0  0  0  0
   38.5970   27.7350   36.5000 N   0  0  0  0  0  0  0  0  0  0  0  0
   41.0660   27.5400   35.6620 H   0  0  0  0  0  0  0  0  0  0  0  0
   39.3216   23.0506   31.3866 H   0  0  0  0  0  0  0  0  0  0  0  0
   40.3198   25.1152   30.2901 H   0  0  0  0  0  0  0  0  0  0  0  0
   35.5677   29.5998   30.1974 H   0  0  0  0  0  0  0  0  0  0  0  0
   34.4886   28.3534   33.2484 H   0  0  0  0  0  0  0  0  0  0  0  0
   34.2666   29.5323   31.9279 H   0  0  0  0  0  0  0  0  0  0  0  0
   36.7645   24.1592   36.0836 H   0  0  0  0  0  0  0  0  0  0  0  0
   40.9468   22.9996   35.9923 H   0  0  0  0  0  0  0  0  0  0  0  0
   38.7147   22.8872   39.6343 H   0  0  0  0  0  0  0  0  0  0  0  0
   37.3298   26.7081   34.3601 H   0  0  0  0  0  0  0  0  0  0  0  0
   39.2025   28.2714   37.1376 H   0  0  0  0  0  0  0  0  0  0  0  0
   37.5815   27.6936   36.6672 H   0  0  0  0  0  0  0  0  0  0  0  0
  1 18  1  0
  2  1  1  0
  3  4  1  0
  3  2  2  0
  4  5  2  0
  5  1  1  0
  5 23  1  0
  6  4  1  0
  7  6  1  0
  8  9  1  0
  8  7  2  0
  9 16  2  0
 10  9  1  0
 10 12  1  0
 11 10  2  0
 12 13  1  0
 13 15  2  0
 13 14  1  0
 16  6  1  0
 16 15  1  0
 17 22  2  0
 18 19  2  0
 18 17  1  0
 19 20  1  0
 20 21  2  0
 22 21  1  0
 23 24  1  0
 24 26  1  0
 25 24  2  0
 25 27  1  0
  3 28  1  0
  7 29  1  0
 12 30  1  0
 14 31  1  0
 14 32  1  0
 17 33  1  0
 19 34  1  0
 21 35  1  0
 23 36  1  0
 26 37  1  0
 26 38  1  0
M  ISO  6  28  14  29  14  30   9  33  14  34  14  35  14
M  END
>  <minimizedAffinity>  (1) 
-6.09254217

>  <minimizedRMSD>  (1) 
1.13106024

$$$$
