
     RDKit          3D

 31 33  0  0  1  0  0  0  0  0999 V2000
   37.7310   24.2240   33.8650 N   0  0  0  0  0  0  0  0  0  0  0  0
   37.8710   22.9510   33.2150 C   0  0  0  0  0  0  0  0  0  0  0  0
   37.0120   23.0350   31.9740 C   0  0  0  0  0  0  0  0  0  0  0  0
   36.4270   24.4490   32.0260 C   0  0  0  0  0  0  0  0  0  0  0  0
   37.5720   25.1380   32.7720 C   0  0  1  0  0  0  0  0  0  0  0  0
   37.1250   26.4660   33.1860 N   0  0  0  0  0  0  0  0  0  0  0  0
   36.9230   27.5180   32.3720 C   0  0  0  0  0  0  0  0  0  0  0  0
   36.5110   28.5910   33.0880 N   0  0  0  0  0  0  0  0  0  0  0  0
   36.4620   28.1840   34.3640 C   0  0  0  0  0  0  0  0  0  0  0  0
   36.8310   26.9060   34.4200 N   0  0  0  0  0  0  0  0  0  0  0  0
   38.9190   24.6320   34.5790 C   0  0  0  0  0  0  0  0  0  0  0  0
   37.9890   24.1560   38.2160 C   0  0  0  0  0  0  0  0  0  0  0  0
   37.9460   24.6400   36.9020 C   0  0  0  0  0  0  0  0  0  0  0  0
   38.8980   24.1650   35.9960 C   0  0  0  0  0  0  0  0  0  0  0  0
   39.8330   23.2430   36.4380 N   0  0  0  0  0  0  0  0  0  0  0  0
   39.8200   22.8140   37.7250 C   0  0  0  0  0  0  0  0  0  0  0  0
   38.9050   23.2720   38.5920 N   0  0  0  0  0  0  0  0  0  0  0  0
   38.9218   22.7712   32.9438 H   0  0  0  0  0  0  0  0  0  0  0  0
   37.5628   22.1223   33.8695 H   0  0  0  0  0  0  0  0  0  0  0  0
   36.2128   22.2796   31.9994 H   0  0  0  0  0  0  0  0  0  0  0  0
   37.5799   22.8445   31.0514 H   0  0  0  0  0  0  0  0  0  0  0  0
   36.2725   24.8712   31.0221 H   0  0  0  0  0  0  0  0  0  0  0  0
   35.4325   24.5389   32.4874 H   0  0  0  0  0  0  0  0  0  0  0  0
   38.5062   25.3151   32.2190 H   0  0  0  0  0  0  0  0  0  0  0  0
   37.0711   27.5079   31.2821 H   0  0  0  0  0  0  0  0  0  0  0  0
   36.1658   28.8036   35.2233 H   0  0  0  0  0  0  0  0  0  0  0  0
   39.8006   24.2073   34.0766 H   0  0  0  0  0  0  0  0  0  0  0  0
   38.9581   25.7313   34.5804 H   0  0  0  0  0  0  0  0  0  0  0  0
   37.2510   24.5147   38.9486 H   0  0  0  0  0  0  0  0  0  0  0  0
   37.1855   25.3721   36.5927 H   0  0  0  0  0  0  0  0  0  0  0  0
   40.5688   22.0818   38.0614 H   0  0  0  0  0  0  0  0  0  0  0  0
  1 11  1  0
  2  1  1  0
  3  4  1  0
  3  2  1  0
  4  5  1  0
  5  6  1  0
  5  1  1  0
  6 10  1  0
  7  8  2  0
  7  6  1  0
  8  9  1  0
  9 10  2  0
 11 14  1  0
 12 17  2  0
 13 12  1  0
 14 15  1  0
 14 13  2  0
 15 16  2  0
 16 17  1  0
  2 18  1  0
  2 19  1  0
  3 20  1  0
  3 21  1  0
  4 22  1  0
  4 23  1  0
  5 24  1  6
  7 25  1  0
  9 26  1  0
 11 27  1  0
 11 28  1  0
 12 29  1  0
 13 30  1  0
 16 31  1  0
M  ISO  8  18  13  19  13  20  13  21  13  22  13  23  13  24  13  25  14
M  ISO  6  26  14  27   8  28   8  29  14  30  14  31  14
M  END
>  <minimizedAffinity>  (1) 
-4.31987906

>  <minimizedRMSD>  (1) 
2.59105635

$$$$
