
     RDKit          3D

 31 34  0  0  0  0  0  0  0  0999 V2000
   41.8860   22.0970   36.8280 C   0  0  0  0  0  0  0  0  0  0  0  0
   42.4270   23.2420   36.2630 C   0  0  0  0  0  0  0  0  0  0  0  0
   43.6870   23.0250   35.8510 N   0  0  0  0  0  0  0  0  0  0  0  0
   44.0360   21.7520   36.1160 C   0  0  0  0  0  0  0  0  0  0  0  0
   45.1880   21.0120   35.9080 C   0  0  0  0  0  0  0  0  0  0  0  0
   45.2420   19.6820   36.3040 C   0  0  0  0  0  0  0  0  0  0  0  0
   44.1260   19.1100   36.9080 C   0  0  0  0  0  0  0  0  0  0  0  0
   42.9740   19.8380   37.1190 C   0  0  0  0  0  0  0  0  0  0  0  0
   42.9280   21.1750   36.7190 C   0  0  0  0  0  0  0  0  0  0  0  0
   40.6220   21.9540   37.3530 O   0  0  0  0  0  0  0  0  0  0  0  0
   39.6370   22.8930   37.3020 C   0  0  0  0  0  0  0  0  0  0  0  0
   39.0320   23.2370   38.5300 C   0  0  0  0  0  0  0  0  0  0  0  0
   38.0160   24.2000   38.5100 C   0  0  0  0  0  0  0  0  0  0  0  0
   37.6680   24.7510   37.3100 N   0  0  0  0  0  0  0  0  0  0  0  0
   38.2850   24.3810   36.1580 C   0  0  0  0  0  0  0  0  0  0  0  0
   39.2470   23.4750   36.1400 N   0  0  0  0  0  0  0  0  0  0  0  0
   37.8670   25.0000   34.9440 N   0  0  0  0  0  0  0  0  0  0  0  0
   37.3920   26.2410   34.7400 C   0  0  0  0  0  0  0  0  0  0  0  0
   37.1130   26.4390   33.4480 N   0  0  0  0  0  0  0  0  0  0  0  0
   37.4100   25.3140   32.8050 C   0  0  0  0  0  0  0  0  0  0  0  0
   37.8680   24.4520   33.7400 N   0  0  0  0  0  0  0  0  0  0  0  0
   41.8954   24.2000   36.1652 H   0  0  0  0  0  0  0  0  0  0  0  0
   44.2935   23.7255   35.4011 H   0  0  0  0  0  0  0  0  0  0  0  0
   46.0613   21.4783   35.4285 H   0  0  0  0  0  0  0  0  0  0  0  0
   46.1541   19.0888   36.1426 H   0  0  0  0  0  0  0  0  0  0  0  0
   44.1637   18.0568   37.2231 H   0  0  0  0  0  0  0  0  0  0  0  0
   42.1007   19.3705   37.5973 H   0  0  0  0  0  0  0  0  0  0  0  0
   39.3483   22.7641   39.4715 H   0  0  0  0  0  0  0  0  0  0  0  0
   37.5105   24.5053   39.4381 H   0  0  0  0  0  0  0  0  0  0  0  0
   37.2517   26.9928   35.5306 H   0  0  0  0  0  0  0  0  0  0  0  0
   37.3041   25.1227   31.7269 H   0  0  0  0  0  0  0  0  0  0  0  0
  1 10  1  0
  2  1  2  0
  3  4  1  0
  3  2  1  0
  4  9  2  0
  5  4  1  0
  5  6  2  0
  6  7  1  0
  7  8  2  0
  9  1  1  0
  9  8  1  0
 11 10  1  0
 11 12  2  0
 13 12  1  0
 14 13  2  0
 15 14  1  0
 16 15  2  0
 16 11  1  0
 17 15  1  0
 18 17  1  0
 19 18  2  0
 20 19  1  0
 20 21  2  0
 21 17  1  0
  2 22  1  0
  3 23  1  0
  5 24  1  0
  6 25  1  0
  7 26  1  0
  8 27  1  0
 12 28  1  0
 13 29  1  0
 18 30  1  0
 20 31  1  0
M  ISO  8  22  14  23   9  24  14  25  14  26  14  27  14  28  14  29  14
M  ISO  2  30  14  31  14
M  END
>  <minimizedAffinity>  (1) 
-5.29728127

>  <minimizedRMSD>  (1) 
1.00863159

$$$$
