
     RDKit          3D

 46 51  0  0  0  0  0  0  0  0999 V2000
   40.5130   22.1480   33.6880 C   0  0  0  0  0  0  0  0  0  0  0  0
   41.3020   21.3270   32.8940 C   0  0  0  0  0  0  0  0  0  0  0  0
   42.1870   20.6520   33.6530 N   0  0  0  0  0  0  0  0  0  0  0  0
   42.0320   20.9870   34.9620 C   0  0  0  0  0  0  0  0  0  0  0  0
   42.6540   20.6080   36.1210 C   0  0  0  0  0  0  0  0  0  0  0  0
   42.2680   21.1350   37.3290 C   0  0  0  0  0  0  0  0  0  0  0  0
   41.2210   22.0720   37.3600 C   0  0  0  0  0  0  0  0  0  0  0  0
   40.5880   22.4570   36.1800 C   0  0  0  0  0  0  0  0  0  0  0  0
   40.9930   21.9150   34.9740 C   0  0  0  0  0  0  0  0  0  0  0  0
   39.5270   23.4050   36.1980 N   0  0  0  0  0  0  0  0  0  0  0  0
   38.3120   23.0300   36.6910 C   0  0  0  0  0  0  0  0  0  0  0  0
   37.4300   24.0700   36.6240 N   0  0  0  0  0  0  0  0  0  0  0  0
   38.0820   25.1030   36.0900 C   0  0  0  0  0  0  0  0  0  0  0  0
   37.8390   26.4270   35.7370 C   0  0  0  0  0  0  0  0  0  0  0  0
   38.7910   27.2190   35.1900 N   0  0  0  0  0  0  0  0  0  0  0  0
   40.0330   26.7510   34.9600 C   0  0  0  0  0  0  0  0  0  0  0  0
   40.3440   25.4610   35.2830 N   0  0  0  0  0  0  0  0  0  0  0  0
   39.3730   24.6900   35.8290 C   0  0  0  0  0  0  0  0  0  0  0  0
   39.5080   22.9790   33.2590 O   0  0  0  0  0  0  0  0  0  0  0  0
   38.4290   22.6190   32.5090 C   0  0  0  0  0  0  0  0  0  0  0  0
   37.8350   23.6040   31.7230 C   0  0  0  0  0  0  0  0  0  0  0  0
   36.7200   23.2220   30.9510 C   0  0  0  0  0  0  0  0  0  0  0  0
   36.2890   21.9490   31.0050 N   0  0  0  0  0  0  0  0  0  0  0  0
   36.9040   21.0170   31.7900 C   0  0  0  0  0  0  0  0  0  0  0  0
   37.9570   21.3590   32.5260 N   0  0  0  0  0  0  0  0  0  0  0  0
   36.5110   19.6540   31.9040 N   0  0  0  0  0  0  0  0  0  0  0  0
   37.4130   18.6480   31.7050 C   0  0  0  0  0  0  0  0  0  0  0  0
   36.9470   17.3360   31.8340 C   0  0  0  0  0  0  0  0  0  0  0  0
   35.6200   17.0560   32.1540 C   0  0  0  0  0  0  0  0  0  0  0  0
   35.2080   15.8700   32.2690 O   0  0  0  0  0  0  0  0  0  0  0  0
   34.7720   18.0850   32.3400 N   0  0  0  0  0  0  0  0  0  0  0  0
   35.2290   19.3490   32.2130 C   0  0  0  0  0  0  0  0  0  0  0  0
   34.4390   20.3210   32.3860 O   0  0  0  0  0  0  0  0  0  0  0  0
   41.2167   21.2400   31.8008 H   0  0  0  0  0  0  0  0  0  0  0  0
   42.8802   19.9800   33.2942 H   0  0  0  0  0  0  0  0  0  0  0  0
   43.4719   19.8733   36.0844 H   0  0  0  0  0  0  0  0  0  0  0  0
   42.7706   20.8284   38.2582 H   0  0  0  0  0  0  0  0  0  0  0  0
   40.9000   22.5032   38.3197 H   0  0  0  0  0  0  0  0  0  0  0  0
   38.0760   22.0311   37.0866 H   0  0  0  0  0  0  0  0  0  0  0  0
   36.8363   26.8455   35.9088 H   0  0  0  0  0  0  0  0  0  0  0  0
   40.7950   27.4064   34.5130 H   0  0  0  0  0  0  0  0  0  0  0  0
   38.2195   24.6345   31.7059 H   0  0  0  0  0  0  0  0  0  0  0  0
   36.2080   23.9562   30.3116 H   0  0  0  0  0  0  0  0  0  0  0  0
   38.4625   18.8610   31.4537 H   0  0  0  0  0  0  0  0  0  0  0  0
   37.6472   16.5020   31.6786 H   0  0  0  0  0  0  0  0  0  0  0  0
   33.7850   17.9098   32.5767 H   0  0  0  0  0  0  0  0  0  0  0  0
  1  9  1  0
  2  3  1  0
  2  1  2  0
  3  4  1  0
  4  9  2  0
  4  5  1  0
  5  6  2  0
  6  7  1  0
  8 10  1  0
  8  7  2  0
  9  8  1  0
 10 11  1  0
 12 11  2  0
 13 12  1  0
 14 13  2  0
 15 14  1  0
 16 15  2  0
 16 17  1  0
 17 18  2  0
 18 13  1  0
 18 10  1  0
 19  1  1  0
 20 25  1  0
 20 19  1  0
 21 20  2  0
 22 23  2  0
 22 21  1  0
 23 24  1  0
 24 26  1  0
 24 25  2  0
 26 32  1  0
 27 28  2  0
 27 26  1  0
 28 29  1  0
 29 30  2  0
 29 31  1  0
 32 31  1  0
 32 33  2  0
  2 34  1  0
  3 35  1  0
  5 36  1  0
  6 37  1  0
  7 38  1  0
 11 39  1  0
 14 40  1  0
 16 41  1  0
 21 42  1  0
 22 43  1  0
 27 44  1  0
 28 45  1  0
 31 46  1  0
M  ISO  8  34  14  35   9  36  14  37  14  38  14  39  14  40  14  41  14
M  ISO  5  42  14  43  14  44  14  45  14  46   9
M  END
>  <minimizedAffinity>  (1) 
-6.90638208

>  <minimizedRMSD>  (1) 
5.75210047

$$$$
