
     RDKit          3D

 36 39  0  0  1  0  0  0  0  0999 V2000
   36.5150   21.7020   31.1640 N   0  0  0  0  0  0  0  0  0  0  0  0
   35.4520   21.9930   32.0840 C   0  0  0  0  0  0  0  0  0  0  0  0
   34.7080   20.6910   32.2530 C   0  0  0  0  0  0  0  0  0  0  0  0
   35.4620   19.7040   31.3730 C   0  0  0  0  0  0  0  0  0  0  0  0
   36.8610   20.3480   31.4750 C   0  0  1  0  0  0  0  0  0  0  0  0
   37.7830   19.7220   30.5840 N   0  0  0  0  0  0  0  0  0  0  0  0
   37.6290   19.4510   29.2550 C   0  0  0  0  0  0  0  0  0  0  0  0
   38.6970   18.8490   28.7090 N   0  0  0  0  0  0  0  0  0  0  0  0
   39.5890   18.7120   29.6950 C   0  0  0  0  0  0  0  0  0  0  0  0
   40.8420   18.1680   29.6960 C   0  0  0  0  0  0  0  0  0  0  0  0
   41.5550   18.1540   30.8590 N   0  0  0  0  0  0  0  0  0  0  0  0
   41.0080   18.6740   31.9680 C   0  0  0  0  0  0  0  0  0  0  0  0
   39.7710   19.2030   31.9390 N   0  0  0  0  0  0  0  0  0  0  0  0
   39.0370   19.2390   30.8230 C   0  0  0  0  0  0  0  0  0  0  0  0
   37.7050   22.4840   31.3640 C   0  0  0  0  0  0  0  0  0  0  0  0
   38.0520   24.4170   34.6060 C   0  0  0  0  0  0  0  0  0  0  0  0
   37.8550   24.1440   33.2540 C   0  0  0  0  0  0  0  0  0  0  0  0
   37.9110   22.8280   32.8010 C   0  0  0  0  0  0  0  0  0  0  0  0
   38.1620   21.8540   33.7280 N   0  0  0  0  0  0  0  0  0  0  0  0
   38.3500   22.1350   35.0310 C   0  0  0  0  0  0  0  0  0  0  0  0
   38.2950   23.4120   35.4630 N   0  0  0  0  0  0  0  0  0  0  0  0
   35.8583   22.3331   33.0480 H   0  0  0  0  0  0  0  0  0  0  0  0
   34.7970   22.7961   31.7150 H   0  0  0  0  0  0  0  0  0  0  0  0
   34.7254   20.3668   33.3040 H   0  0  0  0  0  0  0  0  0  0  0  0
   33.6477   20.7758   31.9728 H   0  0  0  0  0  0  0  0  0  0  0  0
   35.0830   19.6929   30.3404 H   0  0  0  0  0  0  0  0  0  0  0  0
   35.3954   18.6464   31.6681 H   0  0  0  0  0  0  0  0  0  0  0  0
   37.3912   20.2532   32.4341 H   0  0  0  0  0  0  0  0  0  0  0  0
   36.7201   19.7011   28.6881 H   0  0  0  0  0  0  0  0  0  0  0  0
   41.2694   17.7478   28.7736 H   0  0  0  0  0  0  0  0  0  0  0  0
   41.5760   18.6679   32.9100 H   0  0  0  0  0  0  0  0  0  0  0  0
   38.5724   21.9085   31.0084 H   0  0  0  0  0  0  0  0  0  0  0  0
   37.5938   23.4229   30.8018 H   0  0  0  0  0  0  0  0  0  0  0  0
   38.0086   25.4538   34.9708 H   0  0  0  0  0  0  0  0  0  0  0  0
   37.6562   24.9637   32.5478 H   0  0  0  0  0  0  0  0  0  0  0  0
   38.5488   21.3220   35.7448 H   0  0  0  0  0  0  0  0  0  0  0  0
  1 15  1  0
  1  5  1  0
  1  2  1  0
  2  3  1  0
  4  5  1  0
  4  3  1  0
  6 14  1  0
  6  5  1  0
  7  6  1  0
  8  7  2  0
  8  9  1  0
  9 10  2  0
  9 14  1  0
 10 11  1  0
 11 12  2  0
 13 12  1  0
 14 13  2  0
 15 18  1  0
 16 21  2  0
 17 16  1  0
 18 17  2  0
 18 19  1  0
 19 20  2  0
 20 21  1  0
  2 22  1  0
  2 23  1  0
  3 24  1  0
  3 25  1  0
  4 26  1  0
  4 27  1  0
  5 28  1  1
  7 29  1  0
 10 30  1  0
 12 31  1  0
 15 32  1  0
 15 33  1  0
 16 34  1  0
 17 35  1  0
 20 36  1  0
M  ISO  8  22  13  23  13  24  13  25  13  26  13  27  13  28  13  29  14
M  ISO  7  30  14  31  14  32   8  33   8  34  14  35  14  36  14
M  END
>  <minimizedAffinity>  (1) 
-3.35563684

>  <minimizedRMSD>  (1) 
8.23276711

$$$$
