
     RDKit          3D

 35 39  0  0  1  0  0  0  0  0999 V2000
   37.1460   21.4170   34.0020 C   0  0  1  0  0  0  0  0  0  0  0  0
   35.9420   21.0960   34.7660 C   0  0  0  0  0  0  0  0  0  0  0  0
   35.8750   21.0190   33.2660 C   0  0  2  0  0  0  0  0  0  0  0  0
   35.9390   19.7400   32.6020 N   0  0  0  0  0  0  0  0  0  0  0  0
   35.3800   18.5740   32.9680 C   0  0  0  0  0  0  0  0  0  0  0  0
   35.7040   17.6270   32.0400 N   0  0  0  0  0  0  0  0  0  0  0  0
   36.4690   18.1840   31.0820 C   0  0  0  0  0  0  0  0  0  0  0  0
   37.1000   17.7940   29.9180 C   0  0  0  0  0  0  0  0  0  0  0  0
   37.8140   18.6740   29.1830 N   0  0  0  0  0  0  0  0  0  0  0  0
   37.9450   19.9670   29.5480 C   0  0  0  0  0  0  0  0  0  0  0  0
   37.3290   20.3410   30.6810 N   0  0  0  0  0  0  0  0  0  0  0  0
   36.6100   19.5170   31.4470 C   0  0  0  0  0  0  0  0  0  0  0  0
   38.1190   23.7010   34.4730 C   0  0  0  0  0  0  0  0  0  0  0  0
   38.3460   24.8770   33.7660 C   0  0  0  0  0  0  0  0  0  0  0  0
   37.8800   24.5920   32.5150 N   0  0  0  0  0  0  0  0  0  0  0  0
   37.4280   23.3560   32.5160 C   0  0  0  0  0  0  0  0  0  0  0  0
   37.5540   22.7630   33.7080 N   0  0  0  0  0  0  0  0  0  0  0  0
   38.4520   23.4950   35.8890 C   0  0  0  0  0  0  0  0  0  0  0  0
   39.6610   22.9130   36.2550 C   0  0  0  0  0  0  0  0  0  0  0  0
   39.9180   22.7430   37.6280 C   0  0  0  0  0  0  0  0  0  0  0  0
   38.9810   23.1540   38.5100 N   0  0  0  0  0  0  0  0  0  0  0  0
   37.8180   23.7150   38.1250 C   0  0  0  0  0  0  0  0  0  0  0  0
   37.5350   23.8940   36.8130 N   0  0  0  0  0  0  0  0  0  0  0  0
   38.1834   21.0733   34.1269 H   0  0  0  0  0  0  0  0  0  0  0  0
   35.9045   20.1719   35.3615 H   0  0  0  0  0  0  0  0  0  0  0  0
   35.3573   21.6231   35.5343 H   0  0  0  0  0  0  0  0  0  0  0  0
   35.1936   21.4421   32.5132 H   0  0  0  0  0  0  0  0  0  0  0  0
   34.7646   18.4103   33.8649 H   0  0  0  0  0  0  0  0  0  0  0  0
   37.0201   16.7492   29.5834 H   0  0  0  0  0  0  0  0  0  0  0  0
   38.5281   20.6797   28.9464 H   0  0  0  0  0  0  0  0  0  0  0  0
   38.7943   25.8138   34.1286 H   0  0  0  0  0  0  0  0  0  0  0  0
   36.9940   22.8644   31.6328 H   0  0  0  0  0  0  0  0  0  0  0  0
   40.3919   22.5962   35.4965 H   0  0  0  0  0  0  0  0  0  0  0  0
   40.8574   22.2873   37.9741 H   0  0  0  0  0  0  0  0  0  0  0  0
   37.0894   24.0315   38.8859 H   0  0  0  0  0  0  0  0  0  0  0  0
  1  2  1  0
  3  1  1  0
  3  2  1  0
  4  5  1  0
  4  3  1  0
  6  5  2  0
  7 12  2  0
  7  6  1  0
  8  7  1  0
  9 10  1  0
  9  8  2  0
 10 11  2  0
 11 12  1  0
 12  4  1  0
 13 18  1  0
 14 13  2  0
 15 16  2  0
 15 14  1  0
 16 17  1  0
 17  1  1  0
 17 13  1  0
 18 19  2  0
 18 23  1  0
 19 20  1  0
 20 21  2  0
 22 21  1  0
 23 22  2  0
  1 24  1  1
  2 25  1  0
  2 26  1  0
  3 27  1  6
  5 28  1  0
  8 29  1  0
 10 30  1  0
 14 31  1  0
 16 32  1  0
 19 33  1  0
 20 34  1  0
 22 35  1  0
M  ISO  8  24  13  25  13  26  13  27  13  28  14  29  14  30  14  31  14
M  ISO  4  32  14  33  14  34  14  35  14
M  END
>  <minimizedAffinity>  (1) 
-5.03130102

>  <minimizedRMSD>  (1) 
0.930482805

$$$$
