
     RDKit          3D

 44 48  0  0  1  0  0  0  0  0999 V2000
   40.4170   26.8210   32.6230 C   0  0  0  0  0  0  0  0  0  0  0  0
   39.9770   27.3470   33.7700 N   0  0  0  0  0  0  0  0  0  0  0  0
   40.3150   26.5910   34.7570 O   0  0  0  0  0  0  0  0  0  0  0  0
   40.9900   25.5490   34.2320 C   0  0  0  0  0  0  0  0  0  0  0  0
   41.0780   25.6500   32.9050 N   0  0  0  0  0  0  0  0  0  0  0  0
   36.8740   24.1240   31.0310 C   0  0  0  0  0  0  0  0  0  0  0  0
   35.7070   24.8280   31.4140 C   0  0  0  0  0  0  0  0  0  0  0  0
   35.7550   26.2040   31.4970 C   0  0  0  0  0  0  0  0  0  0  0  0
   36.9450   26.8140   31.2010 N   0  0  0  0  0  0  0  0  0  0  0  0
   38.0380   26.0970   30.8380 C   0  0  0  0  0  0  0  0  0  0  0  0
   38.0180   24.7740   30.7500 N   0  0  0  0  0  0  0  0  0  0  0  0
   39.2110   26.8620   30.5590 N   0  0  0  0  0  0  0  0  0  0  0  0
   39.2700   27.3250   29.3380 N   0  0  0  0  0  0  0  0  0  0  0  0
   40.4180   28.0290   29.1890 C   0  0  0  0  0  0  0  0  0  0  0  0
   41.0930   27.9980   30.3680 C   0  0  0  0  0  0  0  0  0  0  0  0
   40.3140   27.2510   31.2320 C   0  0  0  0  0  0  0  0  0  0  0  0
   36.8360   22.6930   30.9400 N   0  0  0  0  0  0  0  0  0  0  0  0
   41.5590   24.4330   35.0300 C   0  0  2  0  0  0  0  0  0  0  0  0
   42.5070   23.4660   34.3610 C   0  0  0  0  0  0  0  0  0  0  0  0
   41.1170   23.0390   34.8220 C   0  0  1  0  0  0  0  0  0  0  0  0
   41.1260   22.0420   35.9210 C   0  0  0  0  0  0  0  0  0  0  0  0
   41.0210   22.6220   37.2880 C   0  0  0  0  0  0  0  0  0  0  0  0
   39.6020   22.8260   37.6580 C   0  0  0  0  0  0  0  0  0  0  0  0
   38.6340   22.8850   36.6690 C   0  0  0  0  0  0  0  0  0  0  0  0
   37.4130   23.0880   37.2450 N   0  0  0  0  0  0  0  0  0  0  0  0
   37.6040   23.1560   38.5800 C   0  0  0  0  0  0  0  0  0  0  0  0
   38.9180   22.9970   38.8020 N   0  0  0  0  0  0  0  0  0  0  0  0
   34.7770   24.2864   31.6417 H   0  0  0  0  0  0  0  0  0  0  0  0
   34.8709   26.7893   31.7899 H   0  0  0  0  0  0  0  0  0  0  0  0
   40.7471   28.5382   28.2712 H   0  0  0  0  0  0  0  0  0  0  0  0
   42.0612   28.4706   30.5896 H   0  0  0  0  0  0  0  0  0  0  0  0
   37.6800   22.1720   30.6622 H   0  0  0  0  0  0  0  0  0  0  0  0
   35.9647   22.1864   31.1525 H   0  0  0  0  0  0  0  0  0  0  0  0
   41.6020   25.0884   35.9124 H   0  0  0  0  0  0  0  0  0  0  0  0
   43.4017   23.1090   34.8921 H   0  0  0  0  0  0  0  0  0  0  0  0
   43.0664   23.4384   33.4142 H   0  0  0  0  0  0  0  0  0  0  0  0
   40.1979   22.6221   34.3844 H   0  0  0  0  0  0  0  0  0  0  0  0
   40.2759   21.3601   35.7719 H   0  0  0  0  0  0  0  0  0  0  0  0
   42.1011   21.5351   35.8726 H   0  0  0  0  0  0  0  0  0  0  0  0
   41.4879   21.9352   38.0093 H   0  0  0  0  0  0  0  0  0  0  0  0
   41.5353   23.5943   37.3020 H   0  0  0  0  0  0  0  0  0  0  0  0
   38.8198   22.7842   35.5895 H   0  0  0  0  0  0  0  0  0  0  0  0
   36.8275   23.3125   39.3432 H   0  0  0  0  0  0  0  0  0  0  0  0
   39.3502   23.0051   39.7369 H   0  0  0  0  0  0  0  0  0  0  0  0
  1  5  1  0
  1  2  2  0
  2  3  1  0
  4  3  1  0
  4 18  1  0
  5  4  2  0
  6  7  2  0
  7  8  1  0
  9  8  2  0
 10  9  1  0
 11 10  2  0
 11  6  1  0
 12 10  1  0
 12 16  1  0
 13 12  1  0
 14 13  2  0
 14 15  1  0
 15 16  2  0
 16  1  1  0
 17  6  1  0
 19 20  1  0
 19 18  1  0
 20 18  1  0
 20 21  1  0
 21 22  1  0
 22 23  1  0
 23 27  1  0
 24 25  1  0
 24 23  2  0
 25 26  2  0
 26 27  1  0
  7 28  1  0
  8 29  1  0
 14 30  1  0
 15 31  1  0
 17 32  1  0
 17 33  1  0
 18 34  1  1
 19 35  1  0
 19 36  1  0
 20 37  1  6
 21 38  1  0
 21 39  1  0
 22 40  1  0
 22 41  1  0
 24 42  1  0
 26 43  1  0
 27 44  1  0
M  ISO  8  28  14  29  14  30  14  31  14  34  13  35  13  36  13  37  13
M  ISO  7  38   8  39   8  40   8  41   8  42  14  43  14  44   9
M  END
>  <minimizedAffinity>  (1) 
-5.43440294

>  <minimizedRMSD>  (1) 
2.53677988

$$$$
