
     RDKit          3D

 27 29  0  0  0  0  0  0  0  0999 V2000
   40.9870   22.4530   37.0860 C   0  0  0  0  0  0  0  0  0  0  0  0
   41.9030   23.4350   36.7430 C   0  0  0  0  0  0  0  0  0  0  0  0
   43.2330   23.0610   36.4680 C   0  0  0  0  0  0  0  0  0  0  0  0
   43.5260   21.7140   36.5630 N   0  0  0  0  0  0  0  0  0  0  0  0
   42.6050   20.7900   36.8990 C   0  0  0  0  0  0  0  0  0  0  0  0
   41.3340   21.1820   37.1580 N   0  0  0  0  0  0  0  0  0  0  0  0
   39.6220   22.8860   37.3630 C   0  0  0  0  0  0  0  0  0  0  0  0
   38.5890   22.9390   36.4430 C   0  0  0  0  0  0  0  0  0  0  0  0
   37.4990   23.3990   37.1350 C   0  0  0  0  0  0  0  0  0  0  0  0
   37.8790   23.6130   38.4340 C   0  0  0  0  0  0  0  0  0  0  0  0
   39.1620   23.2930   38.5300 O   0  0  0  0  0  0  0  0  0  0  0  0
   44.2540   24.0680   36.0990 C   0  0  0  0  0  0  0  0  0  0  0  0
   43.7850   25.0010   35.0410 C   0  0  0  0  0  0  0  0  0  0  0  0
   43.6730   24.6620   33.7200 C   0  0  0  0  0  0  0  0  0  0  0  0
   43.2210   25.7320   33.0290 N   0  0  0  0  0  0  0  0  0  0  0  0
   43.0460   26.7450   33.9120 C   0  0  0  0  0  0  0  0  0  0  0  0
   43.3910   26.2960   35.1410 N   0  0  0  0  0  0  0  0  0  0  0  0
   41.5962   24.4898   36.6864 H   0  0  0  0  0  0  0  0  0  0  0  0
   42.8821   19.7274   36.9625 H   0  0  0  0  0  0  0  0  0  0  0  0
   38.6337   22.6682   35.3778 H   0  0  0  0  0  0  0  0  0  0  0  0
   36.4943   23.5671   36.7199 H   0  0  0  0  0  0  0  0  0  0  0  0
   37.2375   23.9824   39.2476 H   0  0  0  0  0  0  0  0  0  0  0  0
   44.5112   24.6525   36.9946 H   0  0  0  0  0  0  0  0  0  0  0  0
   45.1253   23.5268   35.7016 H   0  0  0  0  0  0  0  0  0  0  0  0
   43.9121   23.6781   33.2902 H   0  0  0  0  0  0  0  0  0  0  0  0
   42.6861   27.7563   33.6715 H   0  0  0  0  0  0  0  0  0  0  0  0
   43.3597   26.8471   36.0106 H   0  0  0  0  0  0  0  0  0  0  0  0
  1  6  1  0
  1  7  1  0
  2  1  2  0
  3  4  2  0
  3  2  1  0
  4  5  1  0
  5  6  2  0
  7 11  1  0
  8  9  1  0
  8  7  2  0
  9 10  2  0
 10 11  1  0
 12  3  1  0
 13 17  1  0
 13 12  1  0
 14 13  2  0
 15 14  1  0
 15 16  2  0
 16 17  1  0
  2 18  1  0
  5 19  1  0
  8 20  1  0
  9 21  1  0
 10 22  1  0
 12 23  1  0
 12 24  1  0
 14 25  1  0
 16 26  1  0
 17 27  1  0
M  ISO  8  18  14  19  14  20  14  21  14  22  14  23   8  24   8  25  14
M  ISO  2  26  14  27   9
M  END
>  <minimizedAffinity>  (1) 
-4.05544949

>  <minimizedRMSD>  (1) 
1.71364224

$$$$
