
     RDKit          3D

 48 52  0  0  0  0  0  0  0  0999 V2000
   35.4960   18.8410   32.8990 C   0  0  0  0  0  0  0  0  0  0  0  0
   36.1130   18.3670   31.6590 C   0  0  0  0  0  0  0  0  0  0  0  0
   36.8690   17.2600   31.5040 N   0  0  0  0  0  0  0  0  0  0  0  0
   37.2460   17.1610   30.2530 O   0  0  0  0  0  0  0  0  0  0  0  0
   36.7720   18.1610   29.5620 C   0  0  0  0  0  0  0  0  0  0  0  0
   36.0590   18.9280   30.4250 N   0  0  0  0  0  0  0  0  0  0  0  0
   36.9490   18.4330   28.1440 C   0  0  0  0  0  0  0  0  0  0  0  0
   36.3630   17.7760   27.1100 C   0  0  0  0  0  0  0  0  0  0  0  0
   36.8290   18.3820   25.9540 C   0  0  0  0  0  0  0  0  0  0  0  0
   37.6630   19.3670   26.2830 N   0  0  0  0  0  0  0  0  0  0  0  0
   37.7170   19.3750   27.5970 N   0  0  0  0  0  0  0  0  0  0  0  0
   40.0750   22.2140   24.5380 C   0  0  0  0  0  0  0  0  0  0  0  0
   40.2420   21.8850   25.8450 C   0  0  0  0  0  0  0  0  0  0  0  0
   39.4290   20.9410   26.3910 C   0  0  0  0  0  0  0  0  0  0  0  0
   38.4490   20.3370   25.5990 C   0  0  0  0  0  0  0  0  0  0  0  0
   38.2890   20.6810   24.2680 C   0  0  0  0  0  0  0  0  0  0  0  0
   39.1240   21.6450   23.7230 C   0  0  0  0  0  0  0  0  0  0  0  0
   41.0850   23.4140   23.7840 S   0  0  0  0  0  0  0  0  0  0  0  0
   41.8540   22.7740   22.6680 O   0  0  0  0  0  0  0  0  0  0  0  0
   40.2840   24.5960   23.3610 O   0  0  0  0  0  0  0  0  0  0  0  0
   35.1490   20.3400   32.7960 C   0  0  0  0  0  0  0  0  0  0  0  0
   37.6510   22.1840   34.8040 C   0  0  0  0  0  0  0  0  0  0  0  0
   36.6230   21.2760   34.7060 C   0  0  0  0  0  0  0  0  0  0  0  0
   36.2090   21.1690   33.4100 C   0  0  0  0  0  0  0  0  0  0  0  0
   37.0470   22.0640   32.7330 C   0  0  0  0  0  0  0  0  0  0  0  0
   37.8800   22.6390   33.5940 O   0  0  0  0  0  0  0  0  0  0  0  0
   38.2980   22.5120   36.0540 C   0  0  0  0  0  0  0  0  0  0  0  0
   39.6230   22.2790   36.3490 C   0  0  0  0  0  0  0  0  0  0  0  0
   40.1370   22.6400   37.5910 C   0  0  0  0  0  0  0  0  0  0  0  0
   39.3020   23.2120   38.4740 N   0  0  0  0  0  0  0  0  0  0  0  0
   38.0000   23.4400   38.1830 C   0  0  0  0  0  0  0  0  0  0  0  0
   37.4850   23.0940   36.9770 N   0  0  0  0  0  0  0  0  0  0  0  0
   34.5751   18.2691   33.0859 H   0  0  0  0  0  0  0  0  0  0  0  0
   36.2077   18.6984   33.7255 H   0  0  0  0  0  0  0  0  0  0  0  0
   35.6600   16.9326   27.1766 H   0  0  0  0  0  0  0  0  0  0  0  0
   36.5539   18.0952   24.9283 H   0  0  0  0  0  0  0  0  0  0  0  0
   41.0200   22.3727   26.4506 H   0  0  0  0  0  0  0  0  0  0  0  0
   39.5421   20.6555   27.4473 H   0  0  0  0  0  0  0  0  0  0  0  0
   37.5141   20.1989   23.6539 H   0  0  0  0  0  0  0  0  0  0  0  0
   39.0286   21.9459   22.6693 H   0  0  0  0  0  0  0  0  0  0  0  0
   41.9978   23.9009   24.6821 H   0  0  0  0  0  0  0  0  0  0  0  0
   35.0459   20.6141   31.7357 H   0  0  0  0  0  0  0  0  0  0  0  0
   34.2057   20.5207   33.3322 H   0  0  0  0  0  0  0  0  0  0  0  0
   36.1957   20.7162   35.5510 H   0  0  0  0  0  0  0  0  0  0  0  0
   37.0197   22.2613   31.6512 H   0  0  0  0  0  0  0  0  0  0  0  0
   40.2767   21.8064   35.6011 H   0  0  0  0  0  0  0  0  0  0  0  0
   41.1933   22.4625   37.8415 H   0  0  0  0  0  0  0  0  0  0  0  0
   37.3507   23.9124   38.9349 H   0  0  0  0  0  0  0  0  0  0  0  0
  2  1  1  0
  3  2  2  0
  4  3  1  0
  5  4  1  0
  5  6  2  0
  6  2  1  0
  7  5  1  0
  8  7  1  0
  9 10  1  0
  9  8  2  0
 10 11  1  0
 11  7  2  0
 12 13  2  0
 13 14  1  0
 15 10  1  0
 15 14  2  0
 16 15  1  0
 17 16  2  0
 17 12  1  0
 18 12  1  0
 19 18  2  0
 20 18  2  0
 21  1  1  0
 21 24  1  0
 22 27  1  0
 23 22  2  0
 24 23  1  0
 25 24  2  0
 25 26  1  0
 26 22  1  0
 27 28  2  0
 27 32  1  0
 28 29  1  0
 29 30  2  0
 31 30  1  0
 32 31  2  0
  1 33  1  0
  1 34  1  0
  8 35  1  0
  9 36  1  0
 13 37  1  0
 14 38  1  0
 16 39  1  0
 17 40  1  0
 18 41  1  0
 21 42  1  0
 21 43  1  0
 23 44  1  0
 25 45  1  0
 28 46  1  0
 29 47  1  0
 31 48  1  0
M  ISO  8  33   8  34   8  35  14  36  14  37  14  38  14  39  14  40  14
M  ISO  8  41  11  42   8  43   8  44  14  45  14  46  14  47  14  48  14
M  END
>  <minimizedAffinity>  (1) 
-5.22326899

>  <minimizedRMSD>  (1) 
1.01583385

$$$$
