
     RDKit          3D

 23 24  0  0  0  0  0  0  0  0999 V2000
   37.9640   23.3360   33.9020 C   0  0  0  0  0  0  0  0  0  0  0  0
   38.2020   24.4420   34.8170 C   0  0  0  0  0  0  0  0  0  0  0  0
   37.7590   25.6470   34.3830 C   0  0  0  0  0  0  0  0  0  0  0  0
   37.1210   25.7740   33.1550 N   0  0  0  0  0  0  0  0  0  0  0  0
   36.9210   24.7310   32.3520 C   0  0  0  0  0  0  0  0  0  0  0  0
   37.3310   23.5250   32.7050 N   0  0  0  0  0  0  0  0  0  0  0  0
   38.8380   23.8730   36.0090 C   0  0  0  0  0  0  0  0  0  0  0  0
   38.3830   23.7110   37.3130 C   0  0  0  0  0  0  0  0  0  0  0  0
   39.2060   23.0500   38.1630 C   0  0  0  0  0  0  0  0  0  0  0  0
   40.4010   22.5690   37.7870 C   0  0  0  0  0  0  0  0  0  0  0  0
   40.4410   23.0770   36.0110 S   0  0  0  0  0  0  0  0  0  0  0  0
   38.1230   26.7370   35.3410 C   0  0  0  0  0  0  0  0  0  0  0  0
   39.5810   27.1100   35.0520 C   0  0  0  0  0  0  0  0  0  0  0  0
   38.3006   22.3261   34.1793 H   0  0  0  0  0  0  0  0  0  0  0  0
   36.4109   24.8739   31.3879 H   0  0  0  0  0  0  0  0  0  0  0  0
   37.4062   24.0990   37.6376 H   0  0  0  0  0  0  0  0  0  0  0  0
   38.8812   22.9018   39.2034 H   0  0  0  0  0  0  0  0  0  0  0  0
   41.1519   22.0216   38.3756 H   0  0  0  0  0  0  0  0  0  0  0  0
   37.4711   27.6096   35.1876 H   0  0  0  0  0  0  0  0  0  0  0  0
   37.9988   26.4056   36.3825 H   0  0  0  0  0  0  0  0  0  0  0  0
   40.1193   27.2477   36.0013 H   0  0  0  0  0  0  0  0  0  0  0  0
   40.0577   26.3049   34.4736 H   0  0  0  0  0  0  0  0  0  0  0  0
   39.6125   28.0451   34.4736 H   0  0  0  0  0  0  0  0  0  0  0  0
  1  2  2  0
  2  7  1  0
  3  2  1  0
  3 12  1  0
  4  3  2  0
  5  6  2  0
  5  4  1  0
  6  1  1  0
  7 11  1  0
  7  8  2  0
  8  9  1  0
 10  9  2  0
 11 10  1  0
 13 12  1  0
  1 14  1  0
  5 15  1  0
  8 16  1  0
  9 17  1  0
 10 18  1  0
 12 19  1  0
 12 20  1  0
 13 21  1  0
 13 22  1  0
 13 23  1  0
M  ISO  8  14  14  15  14  16  14  17  14  18  14  19   8  20   8  21   8
M  ISO  2  22   8  23   8
M  END
>  <minimizedAffinity>  (1) 
-3.85420728

>  <minimizedRMSD>  (1) 
4.26712465

$$$$
