
     RDKit          3D

 44 49  0  0  0  0  0  0  0  0999 V2000
   38.3750   23.3280   32.4940 C   0  0  0  0  0  0  0  0  0  0  0  0
   38.1300   22.0450   32.9750 C   0  0  0  0  0  0  0  0  0  0  0  0
   36.8750   21.4470   32.9030 C   0  0  0  0  0  0  0  0  0  0  0  0
   35.8090   22.1420   32.3330 C   0  0  0  0  0  0  0  0  0  0  0  0
   36.0250   23.4190   31.8480 C   0  0  0  0  0  0  0  0  0  0  0  0
   34.9980   24.1110   31.2720 C   0  0  0  0  0  0  0  0  0  0  0  0
   35.1410   25.3660   30.7530 C   0  0  0  0  0  0  0  0  0  0  0  0
   36.4100   25.9290   30.8340 C   0  0  0  0  0  0  0  0  0  0  0  0
   37.4330   25.2060   31.4250 C   0  0  0  0  0  0  0  0  0  0  0  0
   37.2940   23.9580   31.9460 C   0  0  0  0  0  0  0  0  0  0  0  0
   39.6860   23.9140   32.5970 C   0  0  0  0  0  0  0  0  0  0  0  0
   40.0880   24.6610   33.7210 C   0  0  0  0  0  0  0  0  0  0  0  0
   41.3840   25.1870   33.7140 C   0  0  0  0  0  0  0  0  0  0  0  0
   42.2000   24.9640   32.6420 N   0  0  0  0  0  0  0  0  0  0  0  0
   41.7780   24.2390   31.5820 C   0  0  0  0  0  0  0  0  0  0  0  0
   40.5580   23.7370   31.5760 N   0  0  0  0  0  0  0  0  0  0  0  0
   39.2250   24.8560   34.7840 N   0  0  0  0  0  0  0  0  0  0  0  0
   38.2130   25.7470   34.8350 C   0  0  0  0  0  0  0  0  0  0  0  0
   37.5570   25.6910   36.0140 N   0  0  0  0  0  0  0  0  0  0  0  0
   38.1750   24.7280   36.7410 C   0  0  0  0  0  0  0  0  0  0  0  0
   37.9760   24.2100   37.9940 C   0  0  0  0  0  0  0  0  0  0  0  0
   38.7310   23.2240   38.5270 N   0  0  0  0  0  0  0  0  0  0  0  0
   39.7360   22.7510   37.7300 C   0  0  0  0  0  0  0  0  0  0  0  0
   39.9120   23.2660   36.5190 N   0  0  0  0  0  0  0  0  0  0  0  0
   39.1950   24.2320   35.9610 C   0  0  0  0  0  0  0  0  0  0  0  0
   38.6080   26.0450   31.2240 C   0  0  0  0  0  0  0  0  0  0  0  0
   39.3580   27.1130   31.8900 C   0  0  0  0  0  0  0  0  0  0  0  0
   40.3580   27.6090   31.1460 C   0  0  0  0  0  0  0  0  0  0  0  0
   40.6880   27.2120   29.9110 C   0  0  0  0  0  0  0  0  0  0  0  0
   39.4510   25.8460   29.5020 S   0  0  0  0  0  0  0  0  0  0  0  0
   38.9592   21.4825   33.4290 H   0  0  0  0  0  0  0  0  0  0  0  0
   36.7248   20.4300   33.2943 H   0  0  0  0  0  0  0  0  0  0  0  0
   34.8119   21.6818   32.2701 H   0  0  0  0  0  0  0  0  0  0  0  0
   34.0078   23.6344   31.2238 H   0  0  0  0  0  0  0  0  0  0  0  0
   34.2972   25.9031   30.2952 H   0  0  0  0  0  0  0  0  0  0  0  0
   36.5990   26.9360   30.4337 H   0  0  0  0  0  0  0  0  0  0  0  0
   41.7446   25.7781   34.5688 H   0  0  0  0  0  0  0  0  0  0  0  0
   42.4494   24.0682   30.7276 H   0  0  0  0  0  0  0  0  0  0  0  0
   37.9541   26.4347   34.0165 H   0  0  0  0  0  0  0  0  0  0  0  0
   37.1550   24.6201   38.6004 H   0  0  0  0  0  0  0  0  0  0  0  0
   40.3955   21.9477   38.0903 H   0  0  0  0  0  0  0  0  0  0  0  0
   39.1237   27.4734   32.9025 H   0  0  0  0  0  0  0  0  0  0  0  0
   40.9610   28.4143   31.5908 H   0  0  0  0  0  0  0  0  0  0  0  0
   41.4996   27.5963   29.2757 H   0  0  0  0  0  0  0  0  0  0  0  0
  1 11  1  0
  1  2  2  0
  3  2  1  0
  4  3  2  0
  5 10  2  0
  5  4  1  0
  6  5  1  0
  7  8  1  0
  7  6  2  0
  8  9  2  0
  9 10  1  0
 10  1  1  0
 11 12  1  0
 12 17  1  0
 13 12  2  0
 14 13  1  0
 15 14  2  0
 16 15  1  0
 16 11  2  0
 17 18  1  0
 17 25  1  0
 18 19  2  0
 19 20  1  0
 20 21  2  0
 21 22  1  0
 23 22  2  0
 24 23  1  0
 25 24  2  0
 25 20  1  0
 26  9  1  0
 26 27  2  0
 28 27  1  0
 29 28  2  0
 30 29  1  0
 30 26  1  0
  2 31  1  0
  3 32  1  0
  4 33  1  0
  6 34  1  0
  7 35  1  0
  8 36  1  0
 13 37  1  0
 15 38  1  0
 18 39  1  0
 21 40  1  0
 23 41  1  0
 27 42  1  0
 28 43  1  0
 29 44  1  0
M  ISO  8  31  14  32  14  33  14  34  14  35  14  36  14  37  14  38  14
M  ISO  6  39  14  40  14  41  14  42  14  43  14  44  14
M  END
>  <minimizedAffinity>  (1) 
-5.98276138

>  <minimizedRMSD>  (1) 
1.87238932

$$$$
