
     RDKit          3D

 25 27  0  0  1  0  0  0  0  0999 V2000
   38.1250   23.3840   34.5600 C   0  0  2  0  0  0  0  0  0  0  0  0
   39.2370   23.8750   33.6730 C   0  0  0  0  0  0  0  0  0  0  0  0
   37.9780   24.6580   33.8180 C   0  0  2  0  0  0  0  0  0  0  0  0
   39.8320   22.8010   37.7720 C   0  0  0  0  0  0  0  0  0  0  0  0
   38.9600   23.3960   38.7300 C   0  0  0  0  0  0  0  0  0  0  0  0
   37.7800   23.9950   38.1970 C   0  0  0  0  0  0  0  0  0  0  0  0
   37.5690   23.9640   36.8700 N   0  0  0  0  0  0  0  0  0  0  0  0
   38.4400   23.3790   35.9930 C   0  0  0  0  0  0  0  0  0  0  0  0
   39.5610   22.8050   36.4580 N   0  0  0  0  0  0  0  0  0  0  0  0
   38.1270   26.0010   34.4330 C   0  0  0  0  0  0  0  0  0  0  0  0
   37.2100   27.0350   33.8910 C   0  0  0  0  0  0  0  0  0  0  0  0
   36.6920   28.0400   34.6210 N   0  0  0  0  0  0  0  0  0  0  0  0
   35.9190   28.7840   33.8510 O   0  0  0  0  0  0  0  0  0  0  0  0
   35.9250   28.2830   32.6390 C   0  0  0  0  0  0  0  0  0  0  0  0
   36.7110   27.2150   32.6550 N   0  0  0  0  0  0  0  0  0  0  0  0
   37.4828   22.4950   34.6454 H   0  0  0  0  0  0  0  0  0  0  0  0
   39.4591   23.3570   32.7284 H   0  0  0  0  0  0  0  0  0  0  0  0
   40.3084   24.0855   33.8063 H   0  0  0  0  0  0  0  0  0  0  0  0
   37.1636   25.0328   33.1806 H   0  0  0  0  0  0  0  0  0  0  0  0
   40.7585   22.3223   38.1220 H   0  0  0  0  0  0  0  0  0  0  0  0
   39.1820   23.3934   39.8074 H   0  0  0  0  0  0  0  0  0  0  0  0
   37.0508   24.4770   38.8648 H   0  0  0  0  0  0  0  0  0  0  0  0
   37.9378   25.9067   35.5125 H   0  0  0  0  0  0  0  0  0  0  0  0
   39.1481   26.3380   34.2012 H   0  0  0  0  0  0  0  0  0  0  0  0
   35.3786   28.6763   31.7691 H   0  0  0  0  0  0  0  0  0  0  0  0
  1  8  1  0
  2  3  1  0
  2  1  1  0
  3 10  1  0
  3  1  1  0
  4  5  2  0
  6  5  1  0
  7  6  2  0
  8  9  2  0
  8  7  1  0
  9  4  1  0
 11 10  1  0
 11 12  2  0
 13 12  1  0
 14 15  2  0
 14 13  1  0
 15 11  1  0
  1 16  1  6
  2 17  1  0
  2 18  1  0
  3 19  1  6
  4 20  1  0
  5 21  1  0
  6 22  1  0
 10 23  1  0
 10 24  1  0
 14 25  1  0
M  ISO  8  16  13  17  13  18  13  19  13  20  14  21  14  22  14  23   8
M  ISO  2  24   8  25  14
M  END
>  <minimizedAffinity>  (1) 
-3.94205165

>  <minimizedRMSD>  (1) 
3.52539968

$$$$
