
     RDKit          3D

 41 44  0  0  1  0  0  0  0  0999 V2000
   37.3520   25.7370   32.8650 N   0  0  0  0  0  0  0  0  0  0  0  0
   36.8390   24.6230   32.3450 C   0  0  0  0  0  0  0  0  0  0  0  0
   35.8230   24.8390   31.4410 C   0  0  0  0  0  0  0  0  0  0  0  0
   35.7020   26.1670   31.4050 N   0  0  0  0  0  0  0  0  0  0  0  0
   36.6150   26.7080   32.2560 C   0  0  0  0  0  0  0  0  0  0  0  0
   36.7160   28.2130   32.3890 C   0  0  1  0  0  0  0  0  0  0  0  0
   35.7680   29.0170   31.5880 C   0  0  0  0  0  0  0  0  0  0  0  0
   35.5320   28.8890   33.0740 C   0  0  2  0  0  0  0  0  0  0  0  0
   35.7160   30.1630   33.7830 C   0  0  0  0  0  0  0  0  0  0  0  0
   35.8470   30.2450   35.1530 C   0  0  0  0  0  0  0  0  0  0  0  0
   36.0210   31.4150   35.8650 C   0  0  0  0  0  0  0  0  0  0  0  0
   36.0540   32.5150   35.0820 N   0  0  0  0  0  0  0  0  0  0  0  0
   35.9340   32.5070   33.7630 C   0  0  0  0  0  0  0  0  0  0  0  0
   35.7640   31.3280   33.1110 N   0  0  0  0  0  0  0  0  0  0  0  0
   38.3630   26.0240   33.8060 C   0  0  0  0  0  0  0  0  0  0  0  0
   37.8820   26.0390   35.2100 C   0  0  1  0  0  0  0  0  0  0  0  0
   38.4860   23.5590   38.0040 C   0  0  0  0  0  0  0  0  0  0  0  0
   37.8850   24.6230   37.3100 C   0  0  0  0  0  0  0  0  0  0  0  0
   38.4540   24.9400   36.0330 C   0  0  0  0  0  0  0  0  0  0  0  0
   39.5310   24.2130   35.5550 N   0  0  0  0  0  0  0  0  0  0  0  0
   40.0560   23.2170   36.2570 C   0  0  0  0  0  0  0  0  0  0  0  0
   39.5320   22.8810   37.4960 N   0  0  0  0  0  0  0  0  0  0  0  0
   38.1990   27.3880   35.8490 C   0  0  0  0  0  0  0  0  0  0  0  0
   37.1960   23.6180   32.6143 H   0  0  0  0  0  0  0  0  0  0  0  0
   35.2453   24.0903   30.8790 H   0  0  0  0  0  0  0  0  0  0  0  0
   37.8079   28.2183   32.5219 H   0  0  0  0  0  0  0  0  0  0  0  0
   36.0894   29.9811   31.1671 H   0  0  0  0  0  0  0  0  0  0  0  0
   35.1594   28.8227   30.6926 H   0  0  0  0  0  0  0  0  0  0  0  0
   34.7617   28.5185   33.7664 H   0  0  0  0  0  0  0  0  0  0  0  0
   35.8100   29.3050   35.7232 H   0  0  0  0  0  0  0  0  0  0  0  0
   36.1225   31.4480   36.9598 H   0  0  0  0  0  0  0  0  0  0  0  0
   35.9718   33.4504   33.1987 H   0  0  0  0  0  0  0  0  0  0  0  0
   39.1489   25.2596   33.7159 H   0  0  0  0  0  0  0  0  0  0  0  0
   38.7344   27.0348   33.5818 H   0  0  0  0  0  0  0  0  0  0  0  0
   36.7942   25.8787   35.1790 H   0  0  0  0  0  0  0  0  0  0  0  0
   38.0907   23.2723   38.9897 H   0  0  0  0  0  0  0  0  0  0  0  0
   37.0298   25.1789   37.7217 H   0  0  0  0  0  0  0  0  0  0  0  0
   40.9114   22.6549   35.8540 H   0  0  0  0  0  0  0  0  0  0  0  0
   38.1758   27.2894   36.9443 H   0  0  0  0  0  0  0  0  0  0  0  0
   39.1992   27.7181   35.5316 H   0  0  0  0  0  0  0  0  0  0  0  0
   37.4505   28.1290   35.5316 H   0  0  0  0  0  0  0  0  0  0  0  0
  1 15  1  0
  2  1  1  0
  3  2  2  0
  4  3  1  0
  4  5  2  0
  5  6  1  0
  5  1  1  0
  6  8  1  0
  7  6  1  0
  7  8  1  0
  8  9  1  0
  9 10  2  0
 10 11  1  0
 12 11  2  0
 13 12  1  0
 14 13  2  0
 14  9  1  0
 15 16  1  0
 16 23  1  0
 16 19  1  0
 18 17  2  0
 19 18  1  0
 20 19  2  0
 20 21  1  0
 21 22  2  0
 22 17  1  0
  2 24  1  0
  3 25  1  0
  6 26  1  1
  7 27  1  0
  7 28  1  0
  8 29  1  6
 10 30  1  0
 11 31  1  0
 13 32  1  0
 15 33  1  0
 15 34  1  0
 16 35  1  6
 17 36  1  0
 18 37  1  0
 21 38  1  0
 23 39  1  0
 23 40  1  0
 23 41  1  0
M  ISO  8  24  14  25  14  26  13  27  13  28  13  29  13  30  14  31  14
M  ISO  8  32  14  33   8  34   8  35   8  36  14  37  14  38  14  39   8
M  ISO  2  40   8  41   8
M  END
>  <minimizedAffinity>  (1) 
-5.5364213

>  <minimizedRMSD>  (1) 
0.978072882

$$$$
