
     RDKit          3D

 41 44  0  0  1  0  0  0  0  0999 V2000
   39.6670   22.9220   38.0160 C   0  0  0  0  0  0  0  0  0  0  0  0
   38.4290   23.3590   38.4920 C   0  0  0  0  0  0  0  0  0  0  0  0
   37.6740   24.1630   37.6440 C   0  0  0  0  0  0  0  0  0  0  0  0
   38.1850   24.4680   36.4220 N   0  0  0  0  0  0  0  0  0  0  0  0
   39.3980   24.0220   35.9930 C   0  0  0  0  0  0  0  0  0  0  0  0
   40.1230   23.2500   36.8040 N   0  0  0  0  0  0  0  0  0  0  0  0
   39.7990   24.4190   34.7000 N   0  0  0  0  0  0  0  0  0  0  0  0
   38.8480   24.3400   33.6190 C   0  0  0  0  0  0  0  0  0  0  0  0
   39.3270   24.9730   32.3490 C   0  0  0  0  0  0  0  0  0  0  0  0
   40.2440   26.0250   32.6610 N   0  0  0  0  0  0  0  0  0  0  0  0
   41.4620   25.3540   33.1460 C   0  0  0  0  0  0  0  0  0  0  0  0
   41.1840   24.8880   34.5700 C   0  0  2  0  0  0  0  0  0  0  0  0
   42.1450   23.8580   35.0370 C   0  0  0  0  0  0  0  0  0  0  0  0
   43.1370   24.2000   35.9260 C   0  0  0  0  0  0  0  0  0  0  0  0
   44.0870   23.3490   36.4410 C   0  0  0  0  0  0  0  0  0  0  0  0
   44.0050   22.0310   35.9970 C   0  0  0  0  0  0  0  0  0  0  0  0
   43.0090   21.6990   35.1060 C   0  0  0  0  0  0  0  0  0  0  0  0
   42.1110   22.5800   34.6410 N   0  0  0  0  0  0  0  0  0  0  0  0
   42.9620   20.3070   34.6680 C   0  0  0  0  0  0  0  0  0  0  0  0
   42.5740   19.9610   33.3700 C   0  0  0  0  0  0  0  0  0  0  0  0
   42.5740   18.6140   33.0890 C   0  0  0  0  0  0  0  0  0  0  0  0
   42.9070   17.6550   33.9460 N   0  0  0  0  0  0  0  0  0  0  0  0
   43.2840   18.0090   35.2080 C   0  0  0  0  0  0  0  0  0  0  0  0
   43.2960   19.3190   35.5190 N   0  0  0  0  0  0  0  0  0  0  0  0
   40.2888   22.2850   38.6621 H   0  0  0  0  0  0  0  0  0  0  0  0
   38.0670   23.0800   39.4926 H   0  0  0  0  0  0  0  0  0  0  0  0
   36.6891   24.5420   37.9544 H   0  0  0  0  0  0  0  0  0  0  0  0
   38.6358   23.2792   33.4199 H   0  0  0  0  0  0  0  0  0  0  0  0
   37.9527   24.8944   33.9370 H   0  0  0  0  0  0  0  0  0  0  0  0
   38.4690   25.3851   31.7977 H   0  0  0  0  0  0  0  0  0  0  0  0
   39.8309   24.2174   31.7283 H   0  0  0  0  0  0  0  0  0  0  0  0
   40.4509   26.5833   31.8205 H   0  0  0  0  0  0  0  0  0  0  0  0
   41.6967   24.4906   32.5061 H   0  0  0  0  0  0  0  0  0  0  0  0
   42.3217   26.0398   33.1207 H   0  0  0  0  0  0  0  0  0  0  0  0
   41.3239   25.7606   35.2250 H   0  0  0  0  0  0  0  0  0  0  0  0
   43.1741   25.2490   36.2550 H   0  0  0  0  0  0  0  0  0  0  0  0
   44.8561   23.6849   37.1522 H   0  0  0  0  0  0  0  0  0  0  0  0
   44.7196   21.2729   36.3501 H   0  0  0  0  0  0  0  0  0  0  0  0
   42.2877   20.7158   32.6228 H   0  0  0  0  0  0  0  0  0  0  0  0
   42.2750   18.3073   32.0758 H   0  0  0  0  0  0  0  0  0  0  0  0
   43.5695   17.2478   35.9490 H   0  0  0  0  0  0  0  0  0  0  0  0
  1  2  2  0
  3  2  1  0
  4  3  2  0
  5  4  1  0
  5  6  2  0
  6  1  1  0
  7  5  1  0
  8  7  1  0
  9 10  1  0
  9  8  1  0
 10 11  1  0
 11 12  1  0
 12  7  1  0
 12 13  1  0
 13 14  2  0
 14 15  1  0
 16 15  2  0
 17 16  1  0
 18 13  1  0
 18 17  2  0
 19 17  1  0
 19 24  1  0
 20 19  2  0
 21 20  1  0
 21 22  2  0
 22 23  1  0
 23 24  2  0
  1 25  1  0
  2 26  1  0
  3 27  1  0
  8 28  1  0
  8 29  1  0
  9 30  1  0
  9 31  1  0
 10 32  1  0
 11 33  1  0
 11 34  1  0
 12 35  1  1
 14 36  1  0
 15 37  1  0
 16 38  1  0
 20 39  1  0
 21 40  1  0
 23 41  1  0
M  ISO  8  25  14  26  14  27  14  28  13  29  13  30  13  31  13  32   5
M  ISO  8  33  13  34  13  35  13  36  14  37  14  38  14  39  14  40  14
M  ISO  1  41  14
M  END
>  <minimizedAffinity>  (1) 
-4.54001856

>  <minimizedRMSD>  (1) 
1.77328515

$$$$
