
     RDKit          3D

 40 43  0  0  0  0  0  0  0  0999 V2000
   36.2210   28.2630   33.7200 C   0  0  0  0  0  0  0  0  0  0  0  0
   36.0260   29.4300   34.4700 C   0  0  0  0  0  0  0  0  0  0  0  0
   35.1440   30.3200   33.9550 C   0  0  0  0  0  0  0  0  0  0  0  0
   34.5240   30.0260   32.7740 C   0  0  0  0  0  0  0  0  0  0  0  0
   35.2100   28.3490   32.2970 S   0  0  0  0  0  0  0  0  0  0  0  0
   37.2770   25.9630   33.4830 C   0  0  0  0  0  0  0  0  0  0  0  0
   37.1390   27.2010   34.1340 C   0  0  0  0  0  0  0  0  0  0  0  0
   37.9050   27.4930   35.2600 C   0  0  0  0  0  0  0  0  0  0  0  0
   38.7570   26.5180   35.6520 N   0  0  0  0  0  0  0  0  0  0  0  0
   38.8910   25.3310   35.0280 C   0  0  0  0  0  0  0  0  0  0  0  0
   38.1380   25.0720   33.9400 N   0  0  0  0  0  0  0  0  0  0  0  0
   39.8550   24.3540   35.5380 C   0  0  0  0  0  0  0  0  0  0  0  0
   41.0570   24.3620   34.8950 C   0  0  0  0  0  0  0  0  0  0  0  0
   42.0220   23.0120   35.7720 S   0  0  0  0  0  0  0  0  0  0  0  0
   40.4840   22.6990   36.9030 C   0  0  0  0  0  0  0  0  0  0  0  0
   39.8070   23.4650   36.4750 N   0  0  0  0  0  0  0  0  0  0  0  0
   40.4680   21.7120   37.9230 N   0  0  0  0  0  0  0  0  0  0  0  0
   33.5670   30.6420   31.9030 C   0  0  0  0  0  0  0  0  0  0  0  0
   33.8940   31.4100   31.0180 O   0  0  0  0  0  0  0  0  0  0  0  0
   32.1580   30.3600   32.0580 N   0  0  0  0  0  0  0  0  0  0  0  0
   34.6620   31.8940   34.6440 S   0  0  0  0  0  0  0  0  0  0  0  0
   36.0430   33.0090   34.4120 C   0  0  0  0  0  0  0  0  0  0  0  0
   36.7270   33.4540   35.5200 C   0  0  0  0  0  0  0  0  0  0  0  0
   37.7820   34.3060   35.3450 C   0  0  0  0  0  0  0  0  0  0  0  0
   38.2160   34.7590   34.1150 C   0  0  0  0  0  0  0  0  0  0  0  0
   37.5240   34.3100   32.9880 C   0  0  0  0  0  0  0  0  0  0  0  0
   36.4580   33.4490   33.1650 C   0  0  0  0  0  0  0  0  0  0  0  0
   36.5554   29.6121   35.4169 H   0  0  0  0  0  0  0  0  0  0  0  0
   36.6691   25.7367   32.5946 H   0  0  0  0  0  0  0  0  0  0  0  0
   37.8228   28.4511   35.7941 H   0  0  0  0  0  0  0  0  0  0  0  0
   41.3826   25.0042   34.0634 H   0  0  0  0  0  0  0  0  0  0  0  0
   39.6251   21.5818   38.5005 H   0  0  0  0  0  0  0  0  0  0  0  0
   41.2993   21.1260   38.0857 H   0  0  0  0  0  0  0  0  0  0  0  0
   31.4719   30.8038   31.4309 H   0  0  0  0  0  0  0  0  0  0  0  0
   31.8399   29.7152   32.7955 H   0  0  0  0  0  0  0  0  0  0  0  0
   36.4303   33.1301   36.5285 H   0  0  0  0  0  0  0  0  0  0  0  0
   38.3188   34.6523   36.2405 H   0  0  0  0  0  0  0  0  0  0  0  0
   39.0713   35.4450   34.0264 H   0  0  0  0  0  0  0  0  0  0  0  0
   37.8215   34.6352   31.9802 H   0  0  0  0  0  0  0  0  0  0  0  0
   35.9141   33.0968   32.2761 H   0  0  0  0  0  0  0  0  0  0  0  0
  1  7  1  0
  1  2  2  0
  3  2  1  0
  3 21  1  0
  4  3  2  0
  5  4  1  0
  5  1  1  0
  6 11  2  0
  6  7  1  0
  7  8  2  0
  8  9  1  0
 10 12  1  0
 10  9  2  0
 11 10  1  0
 12 16  1  0
 13 12  2  0
 13 14  1  0
 14 15  1  0
 15 17  1  0
 16 15  2  0
 18 20  1  0
 18  4  1  0
 19 18  2  0
 22 21  1  0
 22 23  2  0
 24 23  1  0
 25 24  2  0
 26 27  2  0
 26 25  1  0
 27 22  1  0
  2 28  1  0
  6 29  1  0
  8 30  1  0
 13 31  1  0
 17 32  1  0
 17 33  1  0
 20 34  1  0
 20 35  1  0
 23 36  1  0
 24 37  1  0
 25 38  1  0
 26 39  1  0
 27 40  1  0
M  ISO  8  28  14  29  14  30  14  31  14  36  14  37  14  38  14  39  14
M  ISO  1  40  14
M  END
>  <minimizedAffinity>  (1) 
-5.91949034

>  <minimizedRMSD>  (1) 
2.10741472

$$$$
