
     RDKit          3D

 20 21  0  0  0  0  0  0  0  0999 V2000
   39.9050   22.6140   37.7940 C   0  0  0  0  0  0  0  0  0  0  0  0
   38.9770   23.6460   37.5790 C   0  0  0  0  0  0  0  0  0  0  0  0
   38.6860   23.9930   36.2600 C   0  0  0  0  0  0  0  0  0  0  0  0
   39.3130   23.3180   35.2430 N   0  0  0  0  0  0  0  0  0  0  0  0
   40.1990   22.3310   35.5060 C   0  0  0  0  0  0  0  0  0  0  0  0
   40.4910   21.9820   36.7610 N   0  0  0  0  0  0  0  0  0  0  0  0
   37.7060   25.0860   35.9710 C   0  0  0  0  0  0  0  0  0  0  0  0
   38.3600   26.4040   36.3000 C   0  0  0  0  0  0  0  0  0  0  0  0
   37.9550   27.6250   35.4820 C   0  0  0  0  0  0  0  0  0  0  0  0
   39.2950   27.0250   35.3030 C   0  0  0  0  0  0  0  0  0  0  0  0
   40.1566   22.3178   38.8231 H   0  0  0  0  0  0  0  0  0  0  0  0
   38.4960   24.1631   38.4224 H   0  0  0  0  0  0  0  0  0  0  0  0
   40.6875   21.8066   34.6715 H   0  0  0  0  0  0  0  0  0  0  0  0
   37.4267   25.0641   34.9073 H   0  0  0  0  0  0  0  0  0  0  0  0
   36.7972   24.9513   36.5759 H   0  0  0  0  0  0  0  0  0  0  0  0
   38.4177   26.1477   37.3682 H   0  0  0  0  0  0  0  0  0  0  0  0
   37.1991   27.5296   34.6886 H   0  0  0  0  0  0  0  0  0  0  0  0
   37.5783   28.6308   35.7197 H   0  0  0  0  0  0  0  0  0  0  0  0
   39.5335   26.4902   34.3718 H   0  0  0  0  0  0  0  0  0  0  0  0
   40.3234   27.4124   35.3511 H   0  0  0  0  0  0  0  0  0  0  0  0
  2  1  2  0
  3  2  1  0
  4  5  1  0
  4  3  2  0
  5  6  2  0
  6  1  1  0
  7  3  1  0
  7  8  1  0
  9  8  1  0
 10  9  1  0
 10  8  1  0
  1 11  1  0
  2 12  1  0
  5 13  1  0
  7 14  1  0
  7 15  1  0
  8 16  1  0
  9 17  1  0
  9 18  1  0
 10 19  1  0
 10 20  1  0
M  ISO  8  11  14  12  14  13  14  14   8  15   8  16  13  17  13  18  13
M  ISO  2  19  13  20  13
M  END
>  <minimizedAffinity>  (1) 
-3.33075285

>  <minimizedRMSD>  (1) 
2.58207798

$$$$
