
     RDKit          3D

 31 34  0  0  0  0  0  0  0  0999 V2000
   43.6170   19.7300   37.0880 C   0  0  0  0  0  0  0  0  0  0  0  0
   42.4740   20.5080   37.3000 C   0  0  0  0  0  0  0  0  0  0  0  0
   41.9460   21.2230   36.2350 C   0  0  0  0  0  0  0  0  0  0  0  0
   42.5900   21.1170   35.0210 N   0  0  0  0  0  0  0  0  0  0  0  0
   43.6740   20.3710   34.8470 C   0  0  0  0  0  0  0  0  0  0  0  0
   44.2010   19.6630   35.8910 N   0  0  0  0  0  0  0  0  0  0  0  0
   44.3310   20.3020   33.5180 C   0  0  0  0  0  0  0  0  0  0  0  0
   45.7060   20.0830   33.3550 C   0  0  0  0  0  0  0  0  0  0  0  0
   46.2150   20.0430   32.0990 C   0  0  0  0  0  0  0  0  0  0  0  0
   45.3860   20.2150   31.0020 C   0  0  0  0  0  0  0  0  0  0  0  0
   43.7380   20.4570   31.8130 S   0  0  0  0  0  0  0  0  0  0  0  0
   45.4860   20.2500   29.5320 C   0  0  0  0  0  0  0  0  0  0  0  0
   44.4600   19.9010   28.7250 C   0  0  0  0  0  0  0  0  0  0  0  0
   45.2610   20.1750   27.0940 S   0  0  0  0  0  0  0  0  0  0  0  0
   46.8710   20.7230   27.8470 C   0  0  0  0  0  0  0  0  0  0  0  0
   46.6560   20.6490   29.0860 N   0  0  0  0  0  0  0  0  0  0  0  0
   40.7560   22.0590   36.3730 C   0  0  0  0  0  0  0  0  0  0  0  0
   39.9100   22.6590   35.4960 N   0  0  0  0  0  0  0  0  0  0  0  0
   38.9970   23.3000   36.1640 O   0  0  0  0  0  0  0  0  0  0  0  0
   39.2150   23.1430   37.4740 C   0  0  0  0  0  0  0  0  0  0  0  0
   40.3000   22.3770   37.5980 N   0  0  0  0  0  0  0  0  0  0  0  0
   38.4120   23.7060   38.5700 C   0  0  0  0  0  0  0  0  0  0  0  0
   39.2470   23.8820   39.6860 F   0  0  0  0  0  0  0  0  0  0  0  0
   37.3820   22.8800   38.9250 F   0  0  0  0  0  0  0  0  0  0  0  0
   37.9510   24.9740   38.2330 F   0  0  0  0  0  0  0  0  0  0  0  0
   44.0435   19.1609   37.9272 H   0  0  0  0  0  0  0  0  0  0  0  0
   42.0026   20.5520   38.2929 H   0  0  0  0  0  0  0  0  0  0  0  0
   46.3594   19.9462   34.2293 H   0  0  0  0  0  0  0  0  0  0  0  0
   47.2915   19.8731   31.9500 H   0  0  0  0  0  0  0  0  0  0  0  0
   43.4453   19.5551   28.9715 H   0  0  0  0  0  0  0  0  0  0  0  0
   47.7915   21.0369   27.3330 H   0  0  0  0  0  0  0  0  0  0  0  0
  1  2  2  0
  3 17  1  0
  3  2  1  0
  4  3  2  0
  5  4  1  0
  5  6  2  0
  6  1  1  0
  7  5  1  0
  8  7  2  0
  9  8  1  0
 10 11  1  0
 10  9  2  0
 11  7  1  0
 12 10  1  0
 13 12  2  0
 14 15  1  0
 14 13  1  0
 15 16  2  0
 16 12  1  0
 17 21  1  0
 18 19  1  0
 18 17  2  0
 19 20  1  0
 20 21  2  0
 20 22  1  0
 22 24  1  0
 22 23  1  0
 25 22  1  0
  1 26  1  0
  2 27  1  0
  8 28  1  0
  9 29  1  0
 13 30  1  0
 15 31  1  0
M  ISO  6  26  14  27  14  28  14  29  14  30  14  31  14
M  END
>  <minimizedAffinity>  (1) 
-3.88805079

>  <minimizedRMSD>  (1) 
0.0297781285

$$$$
