
     RDKit          3D

 31 34  0  0  0  0  0  0  0  0999 V2000
   40.5670   21.9530   37.3210 O   0  0  0  0  0  0  0  0  0  0  0  0
   41.8340   22.0990   36.8010 C   0  0  0  0  0  0  0  0  0  0  0  0
   42.3810   23.2380   36.2250 C   0  0  0  0  0  0  0  0  0  0  0  0
   43.6410   23.0110   35.8280 N   0  0  0  0  0  0  0  0  0  0  0  0
   43.9840   21.7280   36.1190 C   0  0  0  0  0  0  0  0  0  0  0  0
   45.1380   21.0010   35.9250 C   0  0  0  0  0  0  0  0  0  0  0  0
   45.1830   19.6710   36.3420 C   0  0  0  0  0  0  0  0  0  0  0  0
   44.0740   19.0980   36.9440 C   0  0  0  0  0  0  0  0  0  0  0  0
   42.9220   19.8480   37.1290 C   0  0  0  0  0  0  0  0  0  0  0  0
   42.8670   21.1760   36.7170 C   0  0  0  0  0  0  0  0  0  0  0  0
   39.6090   22.9230   37.3490 C   0  0  0  0  0  0  0  0  0  0  0  0
   39.0380   23.2260   38.5850 C   0  0  0  0  0  0  0  0  0  0  0  0
   38.0530   24.2160   38.6420 C   0  0  0  0  0  0  0  0  0  0  0  0
   37.7060   24.8260   37.4930 N   0  0  0  0  0  0  0  0  0  0  0  0
   38.2690   24.5180   36.3050 C   0  0  0  0  0  0  0  0  0  0  0  0
   39.2150   23.5690   36.2420 N   0  0  0  0  0  0  0  0  0  0  0  0
   37.8680   25.2050   35.0540 C   0  0  0  0  0  0  0  0  0  0  0  0
   37.9800   24.6540   33.7370 C   0  0  0  0  0  0  0  0  0  0  0  0
   37.3110   26.0410   32.7570 S   0  0  0  0  0  0  0  0  0  0  0  0
   37.0010   27.1150   34.2830 C   0  0  0  0  0  0  0  0  0  0  0  0
   37.3700   26.4360   35.2280 N   0  0  0  0  0  0  0  0  0  0  0  0
   41.8524   24.1958   36.1102 H   0  0  0  0  0  0  0  0  0  0  0  0
   44.2546   23.7018   35.3728 H   0  0  0  0  0  0  0  0  0  0  0  0
   46.0137   21.4642   35.4468 H   0  0  0  0  0  0  0  0  0  0  0  0
   46.0973   19.0777   36.1933 H   0  0  0  0  0  0  0  0  0  0  0  0
   44.1073   18.0494   37.2748 H   0  0  0  0  0  0  0  0  0  0  0  0
   42.0436   19.3887   37.6059 H   0  0  0  0  0  0  0  0  0  0  0  0
   39.3561   22.6971   39.4955 H   0  0  0  0  0  0  0  0  0  0  0  0
   37.5764   24.4881   39.5953 H   0  0  0  0  0  0  0  0  0  0  0  0
   38.3603   23.6751   33.4096 H   0  0  0  0  0  0  0  0  0  0  0  0
   36.5797   28.1307   34.3125 H   0  0  0  0  0  0  0  0  0  0  0  0
  1 11  1  0
  2  1  1  0
  3  2  2  0
  4  5  1  0
  4  3  1  0
  5 10  2  0
  6  5  1  0
  6  7  2  0
  7  8  1  0
  8  9  2  0
 10  2  1  0
 10  9  1  0
 11 12  2  0
 12 13  1  0
 14 13  2  0
 15 14  1  0
 16 15  2  0
 16 11  1  0
 17 21  1  0
 17 15  1  0
 18 17  2  0
 19 18  1  0
 19 20  1  0
 20 21  2  0
  3 22  1  0
  4 23  1  0
  6 24  1  0
  7 25  1  0
  8 26  1  0
  9 27  1  0
 12 28  1  0
 13 29  1  0
 18 30  1  0
 20 31  1  0
M  ISO  8  22  14  23   9  24  14  25  14  26  14  27  14  28  14  29  14
M  ISO  2  30  14  31  14
M  END
>  <minimizedAffinity>  (1) 
-5.06791258

>  <minimizedRMSD>  (1) 
1.29542148

$$$$
