
     RDKit          3D

 26 27  0  0  1  0  0  0  0  0999 V2000
   38.1310   23.8240   36.9990 C   0  0  1  0  0  0  0  0  0  0  0  0
   41.3780   21.8990   37.2420 C   0  0  0  0  0  0  0  0  0  0  0  0
   40.2170   22.6080   37.6060 C   0  0  0  0  0  0  0  0  0  0  0  0
   39.3350   23.0680   36.6180 C   0  0  0  0  0  0  0  0  0  0  0  0
   39.6610   22.7950   35.3290 N   0  0  0  0  0  0  0  0  0  0  0  0
   40.7610   22.1240   34.9780 C   0  0  0  0  0  0  0  0  0  0  0  0
   41.6270   21.6720   35.9350 N   0  0  0  0  0  0  0  0  0  0  0  0
   37.5850   23.3990   38.3530 C   0  0  0  0  0  0  0  0  0  0  0  0
   38.3090   25.3090   36.9940 C   0  0  0  0  0  0  0  0  0  0  0  0
   38.1770   25.9710   35.6550 C   0  0  0  0  0  0  0  0  0  0  0  0
   39.4050   26.8450   35.2550 C   0  0  0  0  0  0  0  0  0  0  0  0
   38.0740   27.4940   35.6280 C   0  0  0  0  0  0  0  0  0  0  0  0
   37.4059   23.5734   36.2107 H   0  0  0  0  0  0  0  0  0  0  0  0
   42.0730   21.5349   38.0129 H   0  0  0  0  0  0  0  0  0  0  0  0
   40.0018   22.8012   38.6673 H   0  0  0  0  0  0  0  0  0  0  0  0
   40.9713   21.9342   33.9151 H   0  0  0  0  0  0  0  0  0  0  0  0
   38.1821   23.8638   39.1514 H   0  0  0  0  0  0  0  0  0  0  0  0
   36.5373   23.7216   38.4435 H   0  0  0  0  0  0  0  0  0  0  0  0
   37.6406   22.3041   38.4435 H   0  0  0  0  0  0  0  0  0  0  0  0
   37.5513   25.7433   37.6628 H   0  0  0  0  0  0  0  0  0  0  0  0
   39.3441   25.4899   37.3194 H   0  0  0  0  0  0  0  0  0  0  0  0
   37.5887   25.1580   35.2045 H   0  0  0  0  0  0  0  0  0  0  0  0
   39.7542   26.8619   34.2120 H   0  0  0  0  0  0  0  0  0  0  0  0
   40.4448   26.9381   35.6017 H   0  0  0  0  0  0  0  0  0  0  0  0
   37.9841   28.0520   36.5717 H   0  0  0  0  0  0  0  0  0  0  0  0
   37.4023   28.2111   35.1334 H   0  0  0  0  0  0  0  0  0  0  0  0
  1  8  1  0
  2  3  2  0
  4  1  1  0
  4  3  1  0
  5  4  2  0
  6  5  1  0
  6  7  2  0
  7  2  1  0
  9  1  1  0
 10  9  1  0
 11 12  1  0
 11 10  1  0
 12 10  1  0
  1 13  1  6
  2 14  1  0
  3 15  1  0
  6 16  1  0
  8 17  1  0
  8 18  1  0
  8 19  1  0
  9 20  1  0
  9 21  1  0
 10 22  1  0
 11 23  1  0
 11 24  1  0
 12 25  1  0
 12 26  1  0
M  ISO  8  13   8  14  14  15  14  16  14  17   8  18   8  19   8  20   8
M  ISO  6  21   8  22  13  23  13  24  13  25  13  26  13
M  END
>  <minimizedAffinity>  (1) 
-3.76364303

>  <minimizedRMSD>  (1) 
0.797104359

$$$$
