
     RDKit          3D

 34 37  0  0  0  0  0  0  0  0999 V2000
   38.0920   24.6010   35.5230 C   0  0  0  0  0  0  0  0  0  0  0  0
   38.5050   25.7320   34.7890 C   0  0  0  0  0  0  0  0  0  0  0  0
   39.8570   25.9090   34.4890 C   0  0  0  0  0  0  0  0  0  0  0  0
   40.7020   24.9430   34.9460 N   0  0  0  0  0  0  0  0  0  0  0  0
   40.2770   23.8550   35.6560 C   0  0  0  0  0  0  0  0  0  0  0  0
   38.9770   23.7100   35.9280 N   0  0  0  0  0  0  0  0  0  0  0  0
   37.6190   26.7690   34.3020 C   0  0  0  0  0  0  0  0  0  0  0  0
   37.1140   27.8040   35.0770 C   0  0  0  0  0  0  0  0  0  0  0  0
   36.2930   28.6880   34.4480 C   0  0  0  0  0  0  0  0  0  0  0  0
   36.0160   28.5060   33.1010 C   0  0  0  0  0  0  0  0  0  0  0  0
   36.9720   26.9850   32.6730 S   0  0  0  0  0  0  0  0  0  0  0  0
   35.2380   29.1840   32.1370 C   0  0  0  0  0  0  0  0  0  0  0  0
   35.6860   29.3970   31.0040 O   0  0  0  0  0  0  0  0  0  0  0  0
   33.9010   29.6420   32.4620 N   0  0  0  0  0  0  0  0  0  0  0  0
   41.2920   22.8830   36.0890 C   0  0  0  0  0  0  0  0  0  0  0  0
   40.8080   21.8430   36.8610 C   0  0  0  0  0  0  0  0  0  0  0  0
   42.3880   20.8590   37.1990 S   0  0  0  0  0  0  0  0  0  0  0  0
   43.3820   22.1150   36.1910 C   0  0  0  0  0  0  0  0  0  0  0  0
   42.5840   22.8310   35.8760 N   0  0  0  0  0  0  0  0  0  0  0  0
   44.8120   21.8640   36.0800 C   0  0  0  0  0  0  0  0  0  0  0  0
   45.4990   20.6840   35.8960 C   0  0  0  0  0  0  0  0  0  0  0  0
   46.8490   21.0470   35.8660 C   0  0  0  0  0  0  0  0  0  0  0  0
   46.8890   22.4290   36.0360 C   0  0  0  0  0  0  0  0  0  0  0  0
   45.6430   22.8510   36.1560 O   0  0  0  0  0  0  0  0  0  0  0  0
   37.0268   24.4608   35.7591 H   0  0  0  0  0  0  0  0  0  0  0  0
   40.2184   26.7767   33.9177 H   0  0  0  0  0  0  0  0  0  0  0  0
   37.3644   27.9042   36.1434 H   0  0  0  0  0  0  0  0  0  0  0  0
   35.8558   29.5337   34.9989 H   0  0  0  0  0  0  0  0  0  0  0  0
   33.3394   30.1358   31.7537 H   0  0  0  0  0  0  0  0  0  0  0  0
   33.5130   29.4735   33.4011 H   0  0  0  0  0  0  0  0  0  0  0  0
   39.7782   21.6414   37.1909 H   0  0  0  0  0  0  0  0  0  0  0  0
   45.0763   19.6735   35.7945 H   0  0  0  0  0  0  0  0  0  0  0  0
   47.7093   20.3743   35.7342 H   0  0  0  0  0  0  0  0  0  0  0  0
   47.7932   23.0548   36.0650 H   0  0  0  0  0  0  0  0  0  0  0  0
  1  6  2  0
  2  1  1  0
  3  2  2  0
  3  4  1  0
  4  5  2  0
  5  6  1  0
  5 15  1  0
  7  2  1  0
  7  8  2  0
  9  8  1  0
 10  9  2  0
 11 10  1  0
 11  7  1  0
 12 14  1  0
 12 10  1  0
 13 12  2  0
 15 16  2  0
 16 17  1  0
 18 17  1  0
 19 15  1  0
 19 18  2  0
 20 24  1  0
 20 18  1  0
 21 20  2  0
 22 21  1  0
 22 23  2  0
 23 24  1  0
  1 25  1  0
  3 26  1  0
  8 27  1  0
  9 28  1  0
 14 29  1  0
 14 30  1  0
 16 31  1  0
 21 32  1  0
 22 33  1  0
 23 34  1  0
M  ISO  8  25  14  26  14  27  14  28  14  31  14  32  14  33  14  34  14
M  END
>  <minimizedAffinity>  (1) 
-4.50425243

>  <minimizedRMSD>  (1) 
2.91282725

$$$$
