
     RDKit          3D

 19 20  0  0  0  0  0  0  0  0999 V2000
   39.9010   22.7250   37.7300 C   0  0  0  0  0  0  0  0  0  0  0  0
   39.0520   23.3480   38.6700 C   0  0  0  0  0  0  0  0  0  0  0  0
   37.8070   23.7610   38.2230 C   0  0  0  0  0  0  0  0  0  0  0  0
   37.4950   23.5350   36.9060 N   0  0  0  0  0  0  0  0  0  0  0  0
   38.3320   22.9380   36.0440 C   0  0  0  0  0  0  0  0  0  0  0  0
   39.5480   22.5260   36.4500 N   0  0  0  0  0  0  0  0  0  0  0  0
   37.8890   22.7500   34.6640 C   0  0  0  0  0  0  0  0  0  0  0  0
   37.4110   21.6230   34.3710 O   0  0  0  0  0  0  0  0  0  0  0  0
   37.9910   23.7750   33.7150 C   0  0  0  0  0  0  0  0  0  0  0  0
   38.7360   24.9360   33.7430 C   0  0  0  0  0  0  0  0  0  0  0  0
   38.6590   25.7880   32.6680 C   0  0  0  0  0  0  0  0  0  0  0  0
   37.8510   25.4670   31.6050 C   0  0  0  0  0  0  0  0  0  0  0  0
   37.1390   23.8080   32.1820 S   0  0  0  0  0  0  0  0  0  0  0  0
   40.8946   22.3880   38.0604 H   0  0  0  0  0  0  0  0  0  0  0  0
   39.3655   23.4993   39.7135 H   0  0  0  0  0  0  0  0  0  0  0  0
   37.0936   24.2530   38.9005 H   0  0  0  0  0  0  0  0  0  0  0  0
   39.3762   25.1737   34.6053 H   0  0  0  0  0  0  0  0  0  0  0  0
   39.2409   26.7214   32.6588 H   0  0  0  0  0  0  0  0  0  0  0  0
   37.6672   26.0215   30.6729 H   0  0  0  0  0  0  0  0  0  0  0  0
  1  2  2  0
  3  2  1  0
  4  3  2  0
  5  6  2  0
  5  4  1  0
  6  1  1  0
  7  5  1  0
  8  7  2  0
  9 10  2  0
  9  7  1  0
 11 10  1  0
 12 13  1  0
 12 11  2  0
 13  9  1  0
  1 14  1  0
  2 15  1  0
  3 16  1  0
 10 17  1  0
 11 18  1  0
 12 19  1  0
M  ISO  6  14  14  15  14  16  14  17  14  18  14  19  14
M  END
>  <minimizedAffinity>  (1) 
-3.47847533

>  <minimizedRMSD>  (1) 
1.63411283

$$$$
