
     RDKit          3D

 28 28  0  0  1  0  0  0  0  0999 V2000
   39.9680   23.0090   35.1850 C   0  0  2  0  0  0  0  0  0  0  0  0
   38.4440   24.5940   36.3800 C   0  0  0  0  0  0  0  0  0  0  0  0
   39.3430   23.4970   36.3830 C   0  0  0  0  0  0  0  0  0  0  0  0
   39.5530   22.8700   37.6000 C   0  0  0  0  0  0  0  0  0  0  0  0
   38.8910   23.3340   38.7100 N   0  0  0  0  0  0  0  0  0  0  0  0
   38.0530   24.3630   38.6570 C   0  0  0  0  0  0  0  0  0  0  0  0
   37.8180   25.0120   37.4820 N   0  0  0  0  0  0  0  0  0  0  0  0
   40.4420   21.7660   37.7590 N   0  0  0  0  0  0  0  0  0  0  0  0
   41.3010   23.8030   35.0110 C   0  0  0  0  0  0  0  0  0  0  0  0
   39.1390   23.1220   33.9610 C   0  0  0  0  0  0  0  0  0  0  0  0
   37.8780   21.8630   33.9100 S   0  0  0  0  0  0  0  0  0  0  0  0
   36.7370   22.2280   32.5420 C   0  0  0  0  0  0  0  0  0  0  0  0
   35.5070   21.3900   32.5330 C   0  0  0  0  0  0  0  0  0  0  0  0
   40.1322   21.9280   35.3056 H   0  0  0  0  0  0  0  0  0  0  0  0
   38.2555   25.1206   35.4328 H   0  0  0  0  0  0  0  0  0  0  0  0
   37.5424   24.6955   39.5728 H   0  0  0  0  0  0  0  0  0  0  0  0
   40.5647   21.3328   38.6854 H   0  0  0  0  0  0  0  0  0  0  0  0
   40.9613   21.4019   36.9474 H   0  0  0  0  0  0  0  0  0  0  0  0
   41.7134   24.0486   36.0008 H   0  0  0  0  0  0  0  0  0  0  0  0
   42.0240   23.1883   34.4548 H   0  0  0  0  0  0  0  0  0  0  0  0
   41.1048   24.7315   34.4548 H   0  0  0  0  0  0  0  0  0  0  0  0
   38.6579   24.1111   33.9448 H   0  0  0  0  0  0  0  0  0  0  0  0
   39.7936   22.9916   33.0866 H   0  0  0  0  0  0  0  0  0  0  0  0
   36.4350   23.2831   32.6169 H   0  0  0  0  0  0  0  0  0  0  0  0
   37.2784   22.0046   31.6109 H   0  0  0  0  0  0  0  0  0  0  0  0
   35.1988   21.1800   33.5679 H   0  0  0  0  0  0  0  0  0  0  0  0
   34.7009   21.9276   32.0122 H   0  0  0  0  0  0  0  0  0  0  0  0
   35.7123   20.4431   32.0122 H   0  0  0  0  0  0  0  0  0  0  0  0
  1  3  1  0
  2  3  2  0
  2  7  1  0
  3  4  1  0
  4  8  1  0
  4  5  2  0
  6  5  1  0
  7  6  2  0
  9  1  1  0
 10  1  1  0
 11 10  1  0
 12 11  1  0
 13 12  1  0
  1 14  1  1
  2 15  1  0
  6 16  1  0
  8 17  1  0
  8 18  1  0
  9 19  1  0
  9 20  1  0
  9 21  1  0
 10 22  1  0
 10 23  1  0
 12 24  1  0
 12 25  1  0
 13 26  1  0
 13 27  1  0
 13 28  1  0
M  ISO  8  14   8  15  14  16  14  19   8  20   8  21   8  22   8  23   8
M  ISO  5  24   8  25   8  26   8  27   8  28   8
M  END
>  <minimizedAffinity>  (1) 
-3.71324992

>  <minimizedRMSD>  (1) 
0.519173026

$$$$
