
     RDKit          3D

 31 33  0  0  1  0  0  0  0  0999 V2000
   37.3540   23.5490   30.8000 C   0  0  2  0  0  0  0  0  0  0  0  0
   38.5390   24.3210   31.2570 C   0  0  0  0  0  0  0  0  0  0  0  0
   37.2180   25.0040   31.0540 C   0  0  2  0  0  0  0  0  0  0  0  0
   36.9240   21.4160   33.7540 C   0  0  0  0  0  0  0  0  0  0  0  0
   35.6750   20.7840   33.5620 C   0  0  0  0  0  0  0  0  0  0  0  0
   34.9820   21.1360   32.3560 C   0  0  0  0  0  0  0  0  0  0  0  0
   35.5520   22.0200   31.5100 N   0  0  0  0  0  0  0  0  0  0  0  0
   36.7710   22.5970   31.7600 C   0  0  0  0  0  0  0  0  0  0  0  0
   37.4630   22.2860   32.9000 N   0  0  0  0  0  0  0  0  0  0  0  0
   36.6860   25.6300   32.2770 C   0  0  0  0  0  0  0  0  0  0  0  0
   36.4790   27.0920   32.1990 C   0  0  0  0  0  0  0  0  0  0  0  0
   36.1690   28.0100   33.1500 C   0  0  0  0  0  0  0  0  0  0  0  0
   35.9960   29.3470   32.9620 C   0  0  0  0  0  0  0  0  0  0  0  0
   36.1580   29.7970   31.6580 C   0  0  0  0  0  0  0  0  0  0  0  0
   36.4750   28.8620   30.6820 C   0  0  0  0  0  0  0  0  0  0  0  0
   36.6340   27.5550   30.9250 N   0  0  0  0  0  0  0  0  0  0  0  0
   36.6230   29.4130   29.3750 N   0  0  0  0  0  0  0  0  0  0  0  0
   37.1192   22.9014   29.9424 H   0  0  0  0  0  0  0  0  0  0  0  0
   38.9336   24.1749   32.2733 H   0  0  0  0  0  0  0  0  0  0  0  0
   39.5623   24.4740   30.8836 H   0  0  0  0  0  0  0  0  0  0  0  0
   36.7460   25.7854   30.4403 H   0  0  0  0  0  0  0  0  0  0  0  0
   37.4879   21.1745   34.6671 H   0  0  0  0  0  0  0  0  0  0  0  0
   35.2613   20.0695   34.2889 H   0  0  0  0  0  0  0  0  0  0  0  0
   34.0022   20.6927   32.1246 H   0  0  0  0  0  0  0  0  0  0  0  0
   35.7174   25.1612   32.5052 H   0  0  0  0  0  0  0  0  0  0  0  0
   37.4464   25.4713   33.0558 H   0  0  0  0  0  0  0  0  0  0  0  0
   36.0450   27.6353   34.1767 H   0  0  0  0  0  0  0  0  0  0  0  0
   35.7442   30.0270   33.7892 H   0  0  0  0  0  0  0  0  0  0  0  0
   36.0388   30.8612   31.4064 H   0  0  0  0  0  0  0  0  0  0  0  0
   36.4934   30.4237   29.2245 H   0  0  0  0  0  0  0  0  0  0  0  0
   36.8595   28.8003   28.5816 H   0  0  0  0  0  0  0  0  0  0  0  0
  1  3  1  0
  1  2  1  0
  1  8  1  0
  3  2  1  0
  3 10  1  0
  5  4  2  0
  6  5  1  0
  7  8  1  0
  7  6  2  0
  8  9  2  0
  9  4  1  0
 11 10  1  0
 11 12  2  0
 13 12  1  0
 14 13  2  0
 15 16  2  0
 15 14  1  0
 16 11  1  0
 17 15  1  0
  1 18  1  6
  2 19  1  0
  2 20  1  0
  3 21  1  6
  4 22  1  0
  5 23  1  0
  6 24  1  0
 10 25  1  0
 10 26  1  0
 12 27  1  0
 13 28  1  0
 14 29  1  0
 17 30  1  0
 17 31  1  0
M  ISO  8  18  13  19  13  20  13  21  13  22  14  23  14  24  14  25   8
M  ISO  4  26   8  27  14  28  14  29  14
M  END
>  <minimizedAffinity>  (1) 
-4.11138582

>  <minimizedRMSD>  (1) 
0.249483511

$$$$
