
     RDKit          3D

 51 54  0  0  0  0  0  0  0  0999 V2000
   37.1290   26.7380   34.3420 C   0  0  0  0  0  0  0  0  0  0  0  0
   37.1840   25.8380   33.2930 C   0  0  0  0  0  0  0  0  0  0  0  0
   36.5450   26.1790   32.0880 C   0  0  0  0  0  0  0  0  0  0  0  0
   35.9170   27.3720   32.0360 N   0  0  0  0  0  0  0  0  0  0  0  0
   35.8760   28.2300   33.0620 C   0  0  0  0  0  0  0  0  0  0  0  0
   36.4860   27.9270   34.2450 N   0  0  0  0  0  0  0  0  0  0  0  0
   37.8000   26.3770   35.6030 C   0  0  0  0  0  0  0  0  0  0  0  0
   38.6820   27.1410   36.0660 O   0  0  0  0  0  0  0  0  0  0  0  0
   37.4350   25.2040   36.2400 O   0  0  0  0  0  0  0  0  0  0  0  0
   39.3520   22.9130   38.1320 N   0  0  0  0  0  0  0  0  0  0  0  0
   38.2970   23.7120   37.9190 N   0  0  0  0  0  0  0  0  0  0  0  0
   38.4350   24.3070   36.6920 C   0  0  0  0  0  0  0  0  0  0  0  0
   39.5900   23.8740   36.1330 C   0  0  0  0  0  0  0  0  0  0  0  0
   40.1360   23.0120   37.0460 C   0  0  0  0  0  0  0  0  0  0  0  0
   41.4240   22.2940   36.8460 C   0  0  0  0  0  0  0  0  0  0  0  0
   42.4630   22.9220   36.2020 C   0  0  0  0  0  0  0  0  0  0  0  0
   43.6130   22.1850   36.0600 C   0  0  0  0  0  0  0  0  0  0  0  0
   43.7830   20.9060   36.5050 N   0  0  0  0  0  0  0  0  0  0  0  0
   42.7220   20.3370   37.1340 C   0  0  0  0  0  0  0  0  0  0  0  0
   41.5870   21.0300   37.2870 N   0  0  0  0  0  0  0  0  0  0  0  0
   35.1590   29.5200   32.9080 C   0  0  0  0  0  0  0  0  0  0  0  0
   35.8350   30.5230   33.8030 C   0  0  0  0  0  0  0  0  0  0  0  0
   33.7380   29.3060   33.3560 C   0  0  0  0  0  0  0  0  0  0  0  0
   35.1960   29.9890   31.4550 C   0  0  0  0  0  0  0  0  0  0  0  0
   36.4910   30.4130   31.2050 O   0  0  0  0  0  0  0  0  0  0  0  0
   37.2520   30.2390   30.0820 C   0  0  0  0  0  0  0  0  0  0  0  0
   37.9330   31.4070   29.7190 C   0  0  0  0  0  0  0  0  0  0  0  0
   38.7580   31.4020   28.5890 C   0  0  0  0  0  0  0  0  0  0  0  0
   38.9000   30.2550   27.8380 C   0  0  0  0  0  0  0  0  0  0  0  0
   38.2160   29.1250   28.2220 C   0  0  0  0  0  0  0  0  0  0  0  0
   37.3840   29.0850   29.3400 C   0  0  0  0  0  0  0  0  0  0  0  0
   37.7141   24.8800   33.3989 H   0  0  0  0  0  0  0  0  0  0  0  0
   36.5566   25.5004   31.2223 H   0  0  0  0  0  0  0  0  0  0  0  0
   39.5274   22.3353   38.9665 H   0  0  0  0  0  0  0  0  0  0  0  0
   40.0023   24.1553   35.1528 H   0  0  0  0  0  0  0  0  0  0  0  0
   42.3787   23.9514   35.8236 H   0  0  0  0  0  0  0  0  0  0  0  0
   44.4621   22.6619   35.5485 H   0  0  0  0  0  0  0  0  0  0  0  0
   42.7954   19.3084   37.5170 H   0  0  0  0  0  0  0  0  0  0  0  0
   35.6550   30.2559   34.8548 H   0  0  0  0  0  0  0  0  0  0  0  0
   36.9169   30.5212   33.6043 H   0  0  0  0  0  0  0  0  0  0  0  0
   35.4273   31.5252   33.6043 H   0  0  0  0  0  0  0  0  0  0  0  0
   33.6971   29.2998   34.4552 H   0  0  0  0  0  0  0  0  0  0  0  0
   33.1055   30.1190   32.9701 H   0  0  0  0  0  0  0  0  0  0  0  0
   33.3730   28.3428   32.9701 H   0  0  0  0  0  0  0  0  0  0  0  0
   34.9324   29.1595   30.7823 H   0  0  0  0  0  0  0  0  0  0  0  0
   34.4743   30.8013   31.2835 H   0  0  0  0  0  0  0  0  0  0  0  0
   37.8202   32.3226   30.3182 H   0  0  0  0  0  0  0  0  0  0  0  0
   39.2953   32.3169   28.2988 H   0  0  0  0  0  0  0  0  0  0  0  0
   39.5476   30.2435   26.9489 H   0  0  0  0  0  0  0  0  0  0  0  0
   38.3307   28.2117   27.6198 H   0  0  0  0  0  0  0  0  0  0  0  0
   36.8513   28.1643   29.6202 H   0  0  0  0  0  0  0  0  0  0  0  0
  1  7  1  0
  2  1  2  0
  3  2  1  0
  4  3  2  0
  4  5  1  0
  5  6  2  0
  6  1  1  0
  7  8  2  0
  7  9  1  0
  9 12  1  0
 11 10  1  0
 12 11  2  0
 13 12  1  0
 13 14  2  0
 14 10  1  0
 15 14  1  0
 15 20  1  0
 16 15  2  0
 17 16  1  0
 17 18  2  0
 18 19  1  0
 19 20  2  0
 21  5  1  0
 21 23  1  0
 21 22  1  0
 24 21  1  0
 25 24  1  0
 26 25  1  0
 27 26  2  0
 28 27  1  0
 29 30  1  0
 29 28  2  0
 30 31  2  0
 31 26  1  0
  2 32  1  0
  3 33  1  0
 10 34  1  0
 13 35  1  0
 16 36  1  0
 17 37  1  0
 19 38  1  0
 22 39  1  0
 22 40  1  0
 22 41  1  0
 23 42  1  0
 23 43  1  0
 23 44  1  0
 24 45  1  0
 24 46  1  0
 27 47  1  0
 28 48  1  0
 29 49  1  0
 30 50  1  0
 31 51  1  0
M  ISO  8  32  14  33  14  34   9  35  14  36  14  37  14  38  14  39   8
M  ISO  8  40   8  41   8  42   8  43   8  44   8  45   8  46   8  47  14
M  ISO  4  48  14  49  14  50  14  51  14
M  END
>  <minimizedAffinity>  (1) 
-5.73401833

>  <minimizedRMSD>  (1) 
0.597071946

$$$$
