
     RDKit          3D

 40 43  0  0  1  0  0  0  0  0999 V2000
   42.6320   22.1670   33.5870 C   0  0  1  0  0  0  0  0  0  0  0  0
   41.3920   22.4480   32.7760 C   0  0  0  0  0  0  0  0  0  0  0  0
   41.6470   22.9490   31.3930 C   0  0  0  0  0  0  0  0  0  0  0  0
   42.8390   23.8520   31.3470 C   0  0  0  0  0  0  0  0  0  0  0  0
   43.1360   24.4200   32.7020 C   0  0  0  0  0  0  0  0  0  0  0  0
   43.6020   23.3300   33.6080 C   0  0  1  0  0  0  0  0  0  0  0  0
   42.5510   20.8740   36.9940 C   0  0  0  0  0  0  0  0  0  0  0  0
   41.4100   21.4800   37.5500 C   0  0  0  0  0  0  0  0  0  0  0  0
   40.6730   22.3270   36.7500 C   0  0  0  0  0  0  0  0  0  0  0  0
   41.1020   22.5220   35.4660 N   0  0  0  0  0  0  0  0  0  0  0  0
   42.1870   21.9320   34.9770 C   0  0  0  0  0  0  0  0  0  0  0  0
   42.9010   21.1190   35.7320 N   0  0  0  0  0  0  0  0  0  0  0  0
   39.4750   22.9510   37.3140 C   0  0  0  0  0  0  0  0  0  0  0  0
   38.5730   23.7290   36.5800 C   0  0  0  0  0  0  0  0  0  0  0  0
   37.6040   24.0940   37.4680 N   0  0  0  0  0  0  0  0  0  0  0  0
   37.9430   23.5510   38.6430 C   0  0  0  0  0  0  0  0  0  0  0  0
   39.0510   22.8600   38.6060 N   0  0  0  0  0  0  0  0  0  0  0  0
   43.9950   23.7830   34.9410 C   0  0  0  0  0  0  0  0  0  0  0  0
   45.2700   23.5440   35.4700 C   0  0  0  0  0  0  0  0  0  0  0  0
   45.4010   24.0780   36.7200 N   0  0  0  0  0  0  0  0  0  0  0  0
   44.2010   24.6580   36.9760 C   0  0  0  0  0  0  0  0  0  0  0  0
   43.3850   24.4770   35.9210 N   0  0  0  0  0  0  0  0  0  0  0  0
   43.1531   21.3088   33.1376 H   0  0  0  0  0  0  0  0  0  0  0  0
   40.8141   21.5151   32.7006 H   0  0  0  0  0  0  0  0  0  0  0  0
   40.8545   23.2512   33.3014 H   0  0  0  0  0  0  0  0  0  0  0  0
   41.8236   22.0901   30.7288 H   0  0  0  0  0  0  0  0  0  0  0  0
   40.7671   23.5227   31.0665 H   0  0  0  0  0  0  0  0  0  0  0  0
   43.7109   23.2791   30.9982 H   0  0  0  0  0  0  0  0  0  0  0  0
   42.6228   24.6825   30.6589 H   0  0  0  0  0  0  0  0  0  0  0  0
   43.9217   25.1849   32.6146 H   0  0  0  0  0  0  0  0  0  0  0  0
   42.2244   24.8757   33.1160 H   0  0  0  0  0  0  0  0  0  0  0  0
   44.5523   22.9512   33.2038 H   0  0  0  0  0  0  0  0  0  0  0  0
   43.1595   20.1921   37.6062 H   0  0  0  0  0  0  0  0  0  0  0  0
   41.1147   21.2841   38.5914 H   0  0  0  0  0  0  0  0  0  0  0  0
   38.6326   23.9908   35.5133 H   0  0  0  0  0  0  0  0  0  0  0  0
   37.3434   23.6751   39.5568 H   0  0  0  0  0  0  0  0  0  0  0  0
   39.5043   22.3572   39.3823 H   0  0  0  0  0  0  0  0  0  0  0  0
   46.0655   22.9952   34.9446 H   0  0  0  0  0  0  0  0  0  0  0  0
   43.9367   25.1922   37.9006 H   0  0  0  0  0  0  0  0  0  0  0  0
   42.4169   24.8250   35.8696 H   0  0  0  0  0  0  0  0  0  0  0  0
  1  6  1  0
  1 11  1  0
  2  1  1  0
  3  2  1  0
  4  3  1  0
  4  5  1  0
  5  6  1  0
  6 18  1  0
  7  8  2  0
  9 13  1  0
  9  8  1  0
 10  9  2  0
 11 10  1  0
 11 12  2  0
 12  7  1  0
 13 17  1  0
 14 13  2  0
 14 15  1  0
 15 16  2  0
 17 16  1  0
 18 19  2  0
 18 22  1  0
 19 20  1  0
 20 21  2  0
 22 21  1  0
  1 23  1  6
  2 24  1  0
  2 25  1  0
  3 26  1  0
  3 27  1  0
  4 28  1  0
  4 29  1  0
  5 30  1  0
  5 31  1  0
  6 32  1  6
  7 33  1  0
  8 34  1  0
 14 35  1  0
 16 36  1  0
 17 37  1  0
 19 38  1  0
 21 39  1  0
 22 40  1  0
M  ISO  8  23  13  24  13  25  13  26  13  27  13  28  13  29  13  30  13
M  ISO  8  31  13  32  13  33  14  34  14  35  14  36  14  37   9  38  14
M  ISO  2  39  14  40   9
M  END
>  <minimizedAffinity>  (1) 
-4.50169754

>  <minimizedRMSD>  (1) 
1.27563751

$$$$
