
     RDKit          3D

 31 33  0  0  1  0  0  0  0  0999 V2000
   38.5520   25.5820   33.9760 C   0  0  0  0  0  0  0  0  0  0  0  0
   37.6580   24.8990   33.1260 N   0  0  0  0  0  0  0  0  0  0  0  0
   37.4000   23.6190   32.8330 C   0  0  0  0  0  0  0  0  0  0  0  0
   36.4020   23.4170   31.9090 C   0  0  0  0  0  0  0  0  0  0  0  0
   36.0140   24.6640   31.6050 N   0  0  0  0  0  0  0  0  0  0  0  0
   36.7590   25.5360   32.3270 C   0  0  0  0  0  0  0  0  0  0  0  0
   36.4990   26.9660   32.1480 C   0  0  0  0  0  0  0  0  0  0  0  0
   36.2550   28.0200   32.9680 N   0  0  0  0  0  0  0  0  0  0  0  0
   36.0950   29.0850   32.2370 O   0  0  0  0  0  0  0  0  0  0  0  0
   36.2210   28.7910   30.9530 C   0  0  0  0  0  0  0  0  0  0  0  0
   36.4770   27.4560   30.8900 N   0  0  0  0  0  0  0  0  0  0  0  0
   38.0550   25.6960   35.3870 C   0  0  1  0  0  0  0  0  0  0  0  0
   38.6560   23.4300   38.3560 C   0  0  0  0  0  0  0  0  0  0  0  0
   38.0410   24.4180   37.5710 C   0  0  0  0  0  0  0  0  0  0  0  0
   38.6230   24.6590   36.2850 C   0  0  0  0  0  0  0  0  0  0  0  0
   39.7220   23.9290   35.9000 N   0  0  0  0  0  0  0  0  0  0  0  0
   40.2670   23.0050   36.6790 C   0  0  0  0  0  0  0  0  0  0  0  0
   39.7190   22.7610   37.9200 N   0  0  0  0  0  0  0  0  0  0  0  0
   38.3050   27.0830   35.9190 C   0  0  0  0  0  0  0  0  0  0  0  0
   38.7084   26.5953   33.5774 H   0  0  0  0  0  0  0  0  0  0  0  0
   39.4854   25.0006   34.0040 H   0  0  0  0  0  0  0  0  0  0  0  0
   37.9480   22.7867   33.2988 H   0  0  0  0  0  0  0  0  0  0  0  0
   36.0162   22.4651   31.5154 H   0  0  0  0  0  0  0  0  0  0  0  0
   36.1358   29.4870   30.1055 H   0  0  0  0  0  0  0  0  0  0  0  0
   36.9701   25.5156   35.3654 H   0  0  0  0  0  0  0  0  0  0  0  0
   38.2498   23.2045   39.3531 H   0  0  0  0  0  0  0  0  0  0  0  0
   37.1612   24.9759   37.9240 H   0  0  0  0  0  0  0  0  0  0  0  0
   41.1469   22.4393   36.3387 H   0  0  0  0  0  0  0  0  0  0  0  0
   38.3009   27.0601   37.0188 H   0  0  0  0  0  0  0  0  0  0  0  0
   39.2822   27.4415   35.5634 H   0  0  0  0  0  0  0  0  0  0  0  0
   37.5144   27.7601   35.5634 H   0  0  0  0  0  0  0  0  0  0  0  0
  1 12  1  0
  2  1  1  0
  3  2  1  0
  4  3  2  0
  5  4  1  0
  5  6  2  0
  6  2  1  0
  7  6  1  0
  7  8  2  0
  9  8  1  0
 10  9  1  0
 11 10  2  0
 11  7  1  0
 12 19  1  0
 12 15  1  0
 14 13  2  0
 15 14  1  0
 16 15  2  0
 16 17  1  0
 17 18  2  0
 18 13  1  0
  1 20  1  0
  1 21  1  0
  3 22  1  0
  4 23  1  0
 10 24  1  0
 12 25  1  6
 13 26  1  0
 14 27  1  0
 17 28  1  0
 19 29  1  0
 19 30  1  0
 19 31  1  0
M  ISO  8  20   8  21   8  22  14  23  14  24  14  25   8  26  14  27  14
M  ISO  4  28  14  29   8  30   8  31   8
M  END
>  <minimizedAffinity>  (1) 
-4.80980873

>  <minimizedRMSD>  (1) 
3.42937565

$$$$
