
     RDKit          3D

 38 41  0  0  1  0  0  0  0  0999 V2000
   42.1940   21.4650   33.4600 C   0  0  1  0  0  0  0  0  0  0  0  0
   40.8880   21.1260   32.7720 C   0  0  0  0  0  0  0  0  0  0  0  0
   40.9200   21.2800   31.2850 C   0  0  0  0  0  0  0  0  0  0  0  0
   41.7520   22.4420   30.8540 C   0  0  0  0  0  0  0  0  0  0  0  0
   41.9040   23.4220   31.9730 C   0  0  0  0  0  0  0  0  0  0  0  0
   42.7490   22.7820   33.0520 C   0  0  1  0  0  0  0  0  0  0  0  0
   42.5380   20.8760   37.0440 C   0  0  0  0  0  0  0  0  0  0  0  0
   41.4340   21.5380   37.5770 C   0  0  0  0  0  0  0  0  0  0  0  0
   40.5500   22.1950   36.7140 C   0  0  0  0  0  0  0  0  0  0  0  0
   40.8500   22.1310   35.3850 N   0  0  0  0  0  0  0  0  0  0  0  0
   41.9080   21.4920   34.9140 C   0  0  0  0  0  0  0  0  0  0  0  0
   42.7440   20.8710   35.7260 N   0  0  0  0  0  0  0  0  0  0  0  0
   39.4160   22.8790   37.2890 C   0  0  0  0  0  0  0  0  0  0  0  0
   38.5550   23.6960   36.5580 C   0  0  0  0  0  0  0  0  0  0  0  0
   37.6290   24.1570   37.4430 N   0  0  0  0  0  0  0  0  0  0  0  0
   37.9380   23.6320   38.6350 C   0  0  0  0  0  0  0  0  0  0  0  0
   39.0040   22.8600   38.5840 N   0  0  0  0  0  0  0  0  0  0  0  0
   43.0190   23.7640   34.0940 C   0  0  0  0  0  0  0  0  0  0  0  0
   42.2260   24.8140   34.3170 N   0  0  0  0  0  0  0  0  0  0  0  0
   42.7030   25.4880   35.2980 O   0  0  0  0  0  0  0  0  0  0  0  0
   43.7860   24.9200   35.7320 C   0  0  0  0  0  0  0  0  0  0  0  0
   44.0170   23.8240   34.9930 N   0  0  0  0  0  0  0  0  0  0  0  0
   42.9472   20.7133   33.1813 H   0  0  0  0  0  0  0  0  0  0  0  0
   40.6365   20.0808   33.0051 H   0  0  0  0  0  0  0  0  0  0  0  0
   40.1389   21.8388   33.1473 H   0  0  0  0  0  0  0  0  0  0  0  0
   41.3371   20.3630   30.8432 H   0  0  0  0  0  0  0  0  0  0  0  0
   39.8899   21.4581   30.9427 H   0  0  0  0  0  0  0  0  0  0  0  0
   42.7462   22.0823   30.5504 H   0  0  0  0  0  0  0  0  0  0  0  0
   41.2547   22.9413   30.0094 H   0  0  0  0  0  0  0  0  0  0  0  0
   42.3980   24.3333   31.6050 H   0  0  0  0  0  0  0  0  0  0  0  0
   40.9172   23.6943   32.3755 H   0  0  0  0  0  0  0  0  0  0  0  0
   43.7462   22.5003   32.6830 H   0  0  0  0  0  0  0  0  0  0  0  0
   43.2413   20.3564   37.7114 H   0  0  0  0  0  0  0  0  0  0  0  0
   41.2594   21.5441   38.6630 H   0  0  0  0  0  0  0  0  0  0  0  0
   38.6123   23.9225   35.4831 H   0  0  0  0  0  0  0  0  0  0  0  0
   37.3655   23.8239   39.5545 H   0  0  0  0  0  0  0  0  0  0  0  0
   39.4367   22.3470   39.3654 H   0  0  0  0  0  0  0  0  0  0  0  0
   44.4095   25.2767   36.5651 H   0  0  0  0  0  0  0  0  0  0  0  0
  1 11  1  0
  2  1  1  0
  3  2  1  0
  4  3  1  0
  4  5  1  0
  5  6  1  0
  6  1  1  0
  6 18  1  0
  7  8  2  0
  9 13  1  0
  9  8  1  0
 10  9  2  0
 11 10  1  0
 11 12  2  0
 12  7  1  0
 13 17  1  0
 14 13  2  0
 14 15  1  0
 15 16  2  0
 17 16  1  0
 18 19  2  0
 18 22  1  0
 19 20  1  0
 20 21  1  0
 22 21  2  0
  1 23  1  1
  2 24  1  0
  2 25  1  0
  3 26  1  0
  3 27  1  0
  4 28  1  0
  4 29  1  0
  5 30  1  0
  5 31  1  0
  6 32  1  6
  7 33  1  0
  8 34  1  0
 14 35  1  0
 16 36  1  0
 17 37  1  0
 21 38  1  0
M  ISO  8  23  13  24  13  25  13  26  13  27  13  28  13  29  13  30  13
M  ISO  8  31  13  32  13  33  14  34  14  35  14  36  14  37   9  38  14
M  END
>  <minimizedAffinity>  (1) 
-4.37085867

>  <minimizedRMSD>  (1) 
0.23182416

$$$$
