
     RDKit          3D

 21 22  0  0  0  0  0  0  0  0999 V2000
   38.3480   24.4620   36.3070 C   0  0  0  0  0  0  0  0  0  0  0  0
   39.4190   23.5740   36.1780 C   0  0  0  0  0  0  0  0  0  0  0  0
   39.8260   22.8880   37.3320 C   0  0  0  0  0  0  0  0  0  0  0  0
   39.1640   23.1230   38.4980 N   0  0  0  0  0  0  0  0  0  0  0  0
   38.1360   23.9910   38.5730 C   0  0  0  0  0  0  0  0  0  0  0  0
   37.7370   24.6540   37.4710 N   0  0  0  0  0  0  0  0  0  0  0  0
   37.9150   25.1830   35.1120 C   0  0  0  0  0  0  0  0  0  0  0  0
   37.4930   26.4940   35.2170 C   0  0  0  0  0  0  0  0  0  0  0  0
   37.0820   27.1690   34.0680 C   0  0  0  0  0  0  0  0  0  0  0  0
   37.1010   26.5470   32.8760 N   0  0  0  0  0  0  0  0  0  0  0  0
   37.5160   25.2690   32.7910 C   0  0  0  0  0  0  0  0  0  0  0  0
   37.9220   24.5890   33.9050 N   0  0  0  0  0  0  0  0  0  0  0  0
   40.9720   21.9170   37.2620 C   0  0  0  0  0  0  0  0  0  0  0  0
   39.9220   23.4193   35.2120 H   0  0  0  0  0  0  0  0  0  0  0  0
   37.6240   24.1576   39.5322 H   0  0  0  0  0  0  0  0  0  0  0  0
   37.4813   26.9990   36.1941 H   0  0  0  0  0  0  0  0  0  0  0  0
   36.7415   28.2127   34.1370 H   0  0  0  0  0  0  0  0  0  0  0  0
   37.5285   24.7659   31.8129 H   0  0  0  0  0  0  0  0  0  0  0  0
   41.2883   21.6490   38.2809 H   0  0  0  0  0  0  0  0  0  0  0  0
   40.6524   21.0106   36.7269 H   0  0  0  0  0  0  0  0  0  0  0  0
   41.8136   22.3811   36.7269 H   0  0  0  0  0  0  0  0  0  0  0  0
  1  6  1  0
  2  1  2  0
  2  3  1  0
  3  4  2  0
  4  5  1  0
  6  5  2  0
  7  8  2  0
  7  1  1  0
  9  8  1  0
 10  9  2  0
 11 10  1  0
 11 12  2  0
 12  7  1  0
 13  3  1  0
  2 14  1  0
  5 15  1  0
  8 16  1  0
  9 17  1  0
 11 18  1  0
 13 19  1  0
 13 20  1  0
 13 21  1  0
M  ISO  8  14  14  15  14  16  14  17  14  18  14  19   8  20   8  21   8
M  END
>  <minimizedAffinity>  (1) 
-4.13526058

>  <minimizedRMSD>  (1) 
6.2642827

$$$$
