
     RDKit          3D

 36 39  0  0  0  0  0  0  0  0999 V2000
   38.3490   25.7930   34.1390 C   0  0  0  0  0  0  0  0  0  0  0  0
   39.2420   24.7400   34.6580 C   0  0  0  0  0  0  0  0  0  0  0  0
   40.2680   24.1990   33.9070 C   0  0  0  0  0  0  0  0  0  0  0  0
   41.0940   23.2350   34.4170 C   0  0  0  0  0  0  0  0  0  0  0  0
   40.9290   22.7650   35.7130 C   0  0  0  0  0  0  0  0  0  0  0  0
   39.8990   23.3060   36.4700 C   0  0  0  0  0  0  0  0  0  0  0  0
   39.7240   22.8470   37.7680 C   0  0  0  0  0  0  0  0  0  0  0  0
   38.7230   23.3470   38.5630 C   0  0  0  0  0  0  0  0  0  0  0  0
   37.8790   24.3230   38.0550 C   0  0  0  0  0  0  0  0  0  0  0  0
   38.0750   24.7640   36.7540 C   0  0  0  0  0  0  0  0  0  0  0  0
   39.0770   24.2810   35.9290 C   0  0  0  0  0  0  0  0  0  0  0  0
   36.0310   25.9000   31.3100 C   0  0  0  0  0  0  0  0  0  0  0  0
   35.7350   24.5700   31.0580 C   0  0  0  0  0  0  0  0  0  0  0  0
   36.3320   23.5710   31.8860 C   0  0  0  0  0  0  0  0  0  0  0  0
   37.1700   23.9930   32.8850 N   0  0  0  0  0  0  0  0  0  0  0  0
   37.4270   25.3010   33.0890 C   0  0  0  0  0  0  0  0  0  0  0  0
   36.8620   26.2480   32.3090 N   0  0  0  0  0  0  0  0  0  0  0  0
   36.0770   22.1460   31.6950 C   0  0  0  0  0  0  0  0  0  0  0  0
   35.0860   21.4780   32.3830 C   0  0  0  0  0  0  0  0  0  0  0  0
   35.1350   20.1530   31.9520 C   0  0  0  0  0  0  0  0  0  0  0  0
   36.1410   20.0720   31.0330 N   0  0  0  0  0  0  0  0  0  0  0  0
   36.7080   21.2800   30.8800 N   0  0  0  0  0  0  0  0  0  0  0  0
   37.7515   26.1891   34.9733 H   0  0  0  0  0  0  0  0  0  0  0  0
   38.9827   26.5689   33.6847 H   0  0  0  0  0  0  0  0  0  0  0  0
   40.4240   24.5511   32.8766 H   0  0  0  0  0  0  0  0  0  0  0  0
   41.9008   22.8262   33.7910 H   0  0  0  0  0  0  0  0  0  0  0  0
   41.5919   21.9903   36.1258 H   0  0  0  0  0  0  0  0  0  0  0  0
   40.3964   22.0722   38.1649 H   0  0  0  0  0  0  0  0  0  0  0  0
   38.5919   22.9779   39.5909 H   0  0  0  0  0  0  0  0  0  0  0  0
   37.0692   24.7398   38.6719 H   0  0  0  0  0  0  0  0  0  0  0  0
   37.3999   25.5368   36.3577 H   0  0  0  0  0  0  0  0  0  0  0  0
   35.5795   26.6834   30.6835 H   0  0  0  0  0  0  0  0  0  0  0  0
   35.0559   24.2900   30.2392 H   0  0  0  0  0  0  0  0  0  0  0  0
   34.3946   21.9054   33.1242 H   0  0  0  0  0  0  0  0  0  0  0  0
   34.4869   19.3302   32.2882 H   0  0  0  0  0  0  0  0  0  0  0  0
   36.4221   19.2161   30.5336 H   0  0  0  0  0  0  0  0  0  0  0  0
  1  2  1  0
  2 11  2  0
  3  4  2  0
  3  2  1  0
  4  5  1  0
  5  6  2  0
  6  7  1  0
  7  8  2  0
  9  8  1  0
 10  9  2  0
 11  6  1  0
 11 10  1  0
 12 17  2  0
 13 12  1  0
 13 14  2  0
 14 15  1  0
 15 16  2  0
 16  1  1  0
 17 16  1  0
 18 14  1  0
 18 19  1  0
 20 19  2  0
 21 20  1  0
 22 21  1  0
 22 18  2  0
  1 23  1  0
  1 24  1  0
  3 25  1  0
  4 26  1  0
  5 27  1  0
  7 28  1  0
  8 29  1  0
  9 30  1  0
 10 31  1  0
 12 32  1  0
 13 33  1  0
 19 34  1  0
 20 35  1  0
 21 36  1  0
M  ISO  8  23   8  24   8  25  14  26  14  27  14  28  14  29  14  30  14
M  ISO  6  31  14  32  14  33  14  34  14  35  14  36   9
M  END
>  <minimizedAffinity>  (1) 
-6.01824284

>  <minimizedRMSD>  (1) 
3.02278161

$$$$
