
     RDKit          3D

 33 35  0  0  1  0  0  0  0  0999 V2000
   39.6090   24.8020   35.5600 C   0  0  0  0  0  0  0  0  0  0  0  0
   38.3010   23.9970   35.6120 C   0  0  2  0  0  0  0  0  0  0  0  0
   37.6180   24.0370   36.9390 C   0  0  0  0  0  0  0  0  0  0  0  0
   38.1330   22.7770   36.3310 C   0  0  1  0  0  0  0  0  0  0  0  0
   37.0760   21.8680   35.7050 C   0  0  0  0  0  0  0  0  0  0  0  0
   36.9710   21.5910   34.3400 C   0  0  0  0  0  0  0  0  0  0  0  0
   35.9250   20.7380   34.0890 C   0  0  0  0  0  0  0  0  0  0  0  0
   35.4110   20.5070   35.3020 N   0  0  0  0  0  0  0  0  0  0  0  0
   36.0680   21.1540   36.2400 N   0  0  0  0  0  0  0  0  0  0  0  0
   40.6160   23.9810   34.9140 C   0  0  0  0  0  0  0  0  0  0  0  0
   43.7130   23.5440   36.6460 C   0  0  0  0  0  0  0  0  0  0  0  0
   42.3870   23.2400   36.2470 C   0  0  0  0  0  0  0  0  0  0  0  0
   41.9200   24.1770   35.4160 C   0  0  0  0  0  0  0  0  0  0  0  0
   42.6720   25.2820   35.0250 N   0  0  0  0  0  0  0  0  0  0  0  0
   43.9020   25.4980   35.4380 C   0  0  0  0  0  0  0  0  0  0  0  0
   44.4330   24.6200   36.2600 N   0  0  0  0  0  0  0  0  0  0  0  0
   41.8540   22.0430   36.7870 C   0  0  0  0  0  0  0  0  0  0  0  0
   40.9400   22.2890   37.8410 F   0  0  0  0  0  0  0  0  0  0  0  0
   42.5800   21.2330   37.5780 F   0  0  0  0  0  0  0  0  0  0  0  0
   40.8800   21.3630   36.0520 F   0  0  0  0  0  0  0  0  0  0  0  0
   39.4556   25.7265   34.9841 H   0  0  0  0  0  0  0  0  0  0  0  0
   39.9314   25.0728   36.5762 H   0  0  0  0  0  0  0  0  0  0  0  0
   38.0873   24.2332   34.5591 H   0  0  0  0  0  0  0  0  0  0  0  0
   38.1196   24.4811   37.8114 H   0  0  0  0  0  0  0  0  0  0  0  0
   36.6526   24.3961   37.3251 H   0  0  0  0  0  0  0  0  0  0  0  0
   38.7963   21.9791   36.6961 H   0  0  0  0  0  0  0  0  0  0  0  0
   37.6383   22.0020   33.5681 H   0  0  0  0  0  0  0  0  0  0  0  0
   35.5893   20.3392   33.1203 H   0  0  0  0  0  0  0  0  0  0  0  0
   34.6001   19.8972   35.4798 H   0  0  0  0  0  0  0  0  0  0  0  0
   40.6190   24.2175   33.8397 H   0  0  0  0  0  0  0  0  0  0  0  0
   40.3504   22.9325   35.1142 H   0  0  0  0  0  0  0  0  0  0  0  0
   44.2011   22.8380   37.3340 H   0  0  0  0  0  0  0  0  0  0  0  0
   44.4666   26.3822   35.1072 H   0  0  0  0  0  0  0  0  0  0  0  0
  1  2  1  0
  2  4  1  0
  2  3  1  0
  4  3  1  0
  5  9  2  0
  5  4  1  0
  6  5  1  0
  7  6  2  0
  7  8  1  0
  8  9  1  0
 10 13  1  0
 10  1  1  0
 12 11  2  0
 12 17  1  0
 13 12  1  0
 14 13  2  0
 14 15  1  0
 15 16  2  0
 16 11  1  0
 17 19  1  0
 17 18  1  0
 20 17  1  0
  1 21  1  0
  1 22  1  0
  2 23  1  6
  3 24  1  0
  3 25  1  0
  4 26  1  1
  6 27  1  0
  7 28  1  0
  8 29  1  0
 10 30  1  0
 10 31  1  0
 11 32  1  0
 15 33  1  0
M  ISO  8  21   8  22   8  23  13  24  13  25  13  26  13  27  14  28  14
M  ISO  5  29   9  30   8  31   8  32  14  33  14
M  END
>  <minimizedAffinity>  (1) 
-4.57720709

>  <minimizedRMSD>  (1) 
1.60317743

$$$$
