
     RDKit          3D

 39 41  0  0  0  0  0  0  0  0999 V2000
   37.4520   22.1050   34.4720 C   0  0  0  0  0  0  0  0  0  0  0  0
   36.5060   21.0810   34.4260 C   0  0  0  0  0  0  0  0  0  0  0  0
   35.9800   21.0270   33.1510 C   0  0  0  0  0  0  0  0  0  0  0  0
   36.6400   22.0350   32.4700 C   0  0  0  0  0  0  0  0  0  0  0  0
   37.4970   22.6400   33.2920 O   0  0  0  0  0  0  0  0  0  0  0  0
   38.1850   22.4130   35.6830 C   0  0  0  0  0  0  0  0  0  0  0  0
   39.5400   22.1560   35.8710 C   0  0  0  0  0  0  0  0  0  0  0  0
   40.1380   22.4910   37.0650 C   0  0  0  0  0  0  0  0  0  0  0  0
   39.3900   23.0640   38.0290 N   0  0  0  0  0  0  0  0  0  0  0  0
   38.0600   23.3130   37.8350 C   0  0  0  0  0  0  0  0  0  0  0  0
   37.4470   22.9950   36.6730 N   0  0  0  0  0  0  0  0  0  0  0  0
   41.5690   22.2380   37.3140 C   0  0  0  0  0  0  0  0  0  0  0  0
   42.0230   20.8570   36.9230 C   0  0  0  0  0  0  0  0  0  0  0  0
   43.4810   20.8650   36.4960 C   0  0  0  0  0  0  0  0  0  0  0  0
   43.5870   21.6350   35.2130 C   0  0  0  0  0  0  0  0  0  0  0  0
   42.7910   22.9200   35.2350 C   0  0  0  0  0  0  0  0  0  0  0  0
   42.4040   23.3170   36.6430 C   0  0  0  0  0  0  0  0  0  0  0  0
   34.9420   20.1020   32.6150 C   0  0  0  0  0  0  0  0  0  0  0  0
   35.3580   18.6460   32.7590 C   0  0  0  0  0  0  0  0  0  0  0  0
   36.2262   20.4266   35.2647 H   0  0  0  0  0  0  0  0  0  0  0  0
   36.4817   22.2965   31.4133 H   0  0  0  0  0  0  0  0  0  0  0  0
   40.1301   21.6876   35.0696 H   0  0  0  0  0  0  0  0  0  0  0  0
   37.4766   23.7818   38.6411 H   0  0  0  0  0  0  0  0  0  0  0  0
   41.7190   22.2832   38.4028 H   0  0  0  0  0  0  0  0  0  0  0  0
   41.9036   20.1818   37.7832 H   0  0  0  0  0  0  0  0  0  0  0  0
   41.4111   20.5131   36.0760 H   0  0  0  0  0  0  0  0  0  0  0  0
   44.0940   21.3470   37.2718 H   0  0  0  0  0  0  0  0  0  0  0  0
   43.8418   19.8357   36.3535 H   0  0  0  0  0  0  0  0  0  0  0  0
   43.2141   21.0043   34.3925 H   0  0  0  0  0  0  0  0  0  0  0  0
   44.6448   21.9024   35.0730 H   0  0  0  0  0  0  0  0  0  0  0  0
   43.3990   23.7231   34.7929 H   0  0  0  0  0  0  0  0  0  0  0  0
   41.8678   22.7603   34.6587 H   0  0  0  0  0  0  0  0  0  0  0  0
   43.3180   23.4807   37.2327 H   0  0  0  0  0  0  0  0  0  0  0  0
   41.8033   24.2370   36.5905 H   0  0  0  0  0  0  0  0  0  0  0  0
   34.7829   20.3236   31.5494 H   0  0  0  0  0  0  0  0  0  0  0  0
   34.0173   20.2532   33.1912 H   0  0  0  0  0  0  0  0  0  0  0  0
   35.4313   18.3894   33.8261 H   0  0  0  0  0  0  0  0  0  0  0  0
   34.6082   18.0011   32.2775 H   0  0  0  0  0  0  0  0  0  0  0  0
   36.3354   18.4946   32.2775 H   0  0  0  0  0  0  0  0  0  0  0  0
  1  6  1  0
  2  1  2  0
  3  2  1  0
  4  3  2  0
  4  5  1  0
  5  1  1  0
  6  7  2  0
  6 11  1  0
  7  8  1  0
  8 12  1  0
  8  9  2  0
 10  9  1  0
 11 10  2  0
 13 12  1  0
 14 13  1  0
 15 16  1  0
 15 14  1  0
 16 17  1  0
 17 12  1  0
 18 19  1  0
 18  3  1  0
  2 20  1  0
  4 21  1  0
  7 22  1  0
 10 23  1  0
 12 24  1  0
 13 25  1  0
 13 26  1  0
 14 27  1  0
 14 28  1  0
 15 29  1  0
 15 30  1  0
 16 31  1  0
 16 32  1  0
 17 33  1  0
 17 34  1  0
 18 35  1  0
 18 36  1  0
 19 37  1  0
 19 38  1  0
 19 39  1  0
M  ISO  8  20  14  21  14  22  14  23  14  24  13  25  13  26  13  27  13
M  ISO  8  28  13  29  13  30  13  31  13  32  13  33  13  34  13  35   8
M  ISO  4  36   8  37   8  38   8  39   8
M  END
>  <minimizedAffinity>  (1) 
-5.02346945

>  <minimizedRMSD>  (1) 
0.952762723

$$$$
