
     RDKit          3D

 33 35  0  0  0  0  0  0  0  0999 V2000
   38.2220   25.7940   35.6760 C   0  0  0  0  0  0  0  0  0  0  0  0
   38.3180   27.0860   36.2140 C   0  0  0  0  0  0  0  0  0  0  0  0
   37.7070   27.9330   35.2870 C   0  0  0  0  0  0  0  0  0  0  0  0
   37.2870   27.1140   34.2620 C   0  0  0  0  0  0  0  0  0  0  0  0
   37.6050   25.8720   34.5250 O   0  0  0  0  0  0  0  0  0  0  0  0
   38.2890   24.2120   37.6450 C   0  0  0  0  0  0  0  0  0  0  0  0
   38.7640   24.6310   36.3850 C   0  0  0  0  0  0  0  0  0  0  0  0
   39.7870   23.8990   35.8030 C   0  0  0  0  0  0  0  0  0  0  0  0
   40.2950   22.8110   36.4630 N   0  0  0  0  0  0  0  0  0  0  0  0
   39.8010   22.4490   37.6810 C   0  0  0  0  0  0  0  0  0  0  0  0
   38.7950   23.1550   38.2680 N   0  0  0  0  0  0  0  0  0  0  0  0
   36.5680   27.5180   33.0090 C   0  0  0  0  0  0  0  0  0  0  0  0
   36.0650   28.9420   33.1900 C   0  0  0  0  0  0  0  0  0  0  0  0
   35.2780   29.3550   31.9690 C   0  0  0  0  0  0  0  0  0  0  0  0
   36.1300   29.2920   30.7210 C   0  0  0  0  0  0  0  0  0  0  0  0
   37.5040   28.7340   31.0130 C   0  0  0  0  0  0  0  0  0  0  0  0
   37.4540   27.4340   31.7950 C   0  0  0  0  0  0  0  0  0  0  0  0
   38.7799   27.3731   37.1701 H   0  0  0  0  0  0  0  0  0  0  0  0
   37.5865   29.0239   35.3599 H   0  0  0  0  0  0  0  0  0  0  0  0
   37.4764   24.7771   38.1249 H   0  0  0  0  0  0  0  0  0  0  0  0
   40.1874   24.1888   34.8203 H   0  0  0  0  0  0  0  0  0  0  0  0
   40.2213   21.5734   38.1975 H   0  0  0  0  0  0  0  0  0  0  0  0
   35.7310   26.8242   32.8412 H   0  0  0  0  0  0  0  0  0  0  0  0
   35.4179   28.9925   34.0781 H   0  0  0  0  0  0  0  0  0  0  0  0
   36.9210   29.6201   33.3221 H   0  0  0  0  0  0  0  0  0  0  0  0
   34.4183   28.6790   31.8509 H   0  0  0  0  0  0  0  0  0  0  0  0
   34.9399   30.3926   32.1075 H   0  0  0  0  0  0  0  0  0  0  0  0
   36.2367   30.3067   30.3100 H   0  0  0  0  0  0  0  0  0  0  0  0
   35.6344   28.6260   29.9993 H   0  0  0  0  0  0  0  0  0  0  0  0
   38.0197   28.5511   30.0587 H   0  0  0  0  0  0  0  0  0  0  0  0
   38.0384   29.4721   31.6291 H   0  0  0  0  0  0  0  0  0  0  0  0
   37.0719   26.6412   31.1351 H   0  0  0  0  0  0  0  0  0  0  0  0
   38.4745   27.2175   32.1438 H   0  0  0  0  0  0  0  0  0  0  0  0
  1  2  2  0
  1  7  1  0
  3  2  1  0
  4  5  1  0
  4  3  2  0
  5  1  1  0
  6 11  2  0
  7  6  1  0
  8  7  2  0
  8  9  1  0
  9 10  2  0
 10 11  1  0
 12 13  1  0
 12  4  1  0
 14 13  1  0
 15 16  1  0
 15 14  1  0
 16 17  1  0
 17 12  1  0
  2 18  1  0
  3 19  1  0
  6 20  1  0
  8 21  1  0
 10 22  1  0
 12 23  1  0
 13 24  1  0
 13 25  1  0
 14 26  1  0
 14 27  1  0
 15 28  1  0
 15 29  1  0
 16 30  1  0
 16 31  1  0
 17 32  1  0
 17 33  1  0
M  ISO  8  18  14  19  14  20  14  21  14  22  14  23  13  24  13  25  13
M  ISO  8  26  13  27  13  28  13  29  13  30  13  31  13  32  13  33  13
M  END
>  <minimizedAffinity>  (1) 
-4.92559385

>  <minimizedRMSD>  (1) 
0.48631838

$$$$
