
     RDKit          3D

 49 52  0  0  1  0  0  0  0  0999 V2000
   43.6630   23.5150   34.5670 C   0  0  1  0  0  0  0  0  0  0  0  0
   42.6530   24.1340   33.6160 C   0  0  0  0  0  0  0  0  0  0  0  0
   43.2480   25.1020   32.6470 C   0  0  0  0  0  0  0  0  0  0  0  0
   44.3270   25.9160   33.2640 C   0  0  0  0  0  0  0  0  0  0  0  0
   44.2030   25.9260   34.7740 C   0  0  0  0  0  0  0  0  0  0  0  0
   44.4930   24.5370   35.2600 C   0  0  1  0  0  0  0  0  0  0  0  0
   42.6690   20.9800   36.9890 C   0  0  0  0  0  0  0  0  0  0  0  0
   41.4110   21.4260   37.4320 C   0  0  0  0  0  0  0  0  0  0  0  0
   40.8950   22.6020   36.8970 C   0  0  0  0  0  0  0  0  0  0  0  0
   41.6510   23.2570   35.9620 N   0  0  0  0  0  0  0  0  0  0  0  0
   42.8480   22.7910   35.5720 C   0  0  0  0  0  0  0  0  0  0  0  0
   43.3390   21.6770   36.0770 N   0  0  0  0  0  0  0  0  0  0  0  0
   39.6020   23.0570   37.3680 C   0  0  0  0  0  0  0  0  0  0  0  0
   38.7250   23.8300   36.5960 C   0  0  0  0  0  0  0  0  0  0  0  0
   37.6400   24.0410   37.4000 N   0  0  0  0  0  0  0  0  0  0  0  0
   37.8760   23.4270   38.5640 C   0  0  0  0  0  0  0  0  0  0  0  0
   39.0460   22.8200   38.5900 N   0  0  0  0  0  0  0  0  0  0  0  0
   44.7190   24.4180   36.7160 C   0  0  0  0  0  0  0  0  0  0  0  0
   46.1110   23.9320   37.0650 C   0  0  0  0  0  0  0  0  0  0  0  0
   46.9820   25.0630   37.6290 C   0  0  0  0  0  0  0  0  0  0  0  0
   46.4410   25.5240   38.9360 C   0  0  0  0  0  0  0  0  0  0  0  0
   44.9460   25.6940   38.8330 C   0  0  0  0  0  0  0  0  0  0  0  0
   44.5890   25.7910   37.3400 C   0  0  0  0  0  0  0  0  0  0  0  0
   44.3625   22.8694   34.0157 H   0  0  0  0  0  0  0  0  0  0  0  0
   42.1727   23.3248   33.0463 H   0  0  0  0  0  0  0  0  0  0  0  0
   41.9382   24.6985   34.2328 H   0  0  0  0  0  0  0  0  0  0  0  0
   42.4566   25.7759   32.2871 H   0  0  0  0  0  0  0  0  0  0  0  0
   43.6880   24.5266   31.8192 H   0  0  0  0  0  0  0  0  0  0  0  0
   45.3025   25.4905   32.9859 H   0  0  0  0  0  0  0  0  0  0  0  0
   44.2393   26.9496   32.8981 H   0  0  0  0  0  0  0  0  0  0  0  0
   44.9265   26.6334   35.2055 H   0  0  0  0  0  0  0  0  0  0  0  0
   43.1932   26.2394   35.0775 H   0  0  0  0  0  0  0  0  0  0  0  0
   45.5070   24.2681   34.9293 H   0  0  0  0  0  0  0  0  0  0  0  0
   43.0988   20.0536   37.3976 H   0  0  0  0  0  0  0  0  0  0  0  0
   40.8469   20.8570   38.1857 H   0  0  0  0  0  0  0  0  0  0  0  0
   38.8765   24.1888   35.5673 H   0  0  0  0  0  0  0  0  0  0  0  0
   37.1707   23.4282   39.4081 H   0  0  0  0  0  0  0  0  0  0  0  0
   39.4533   22.2815   39.3678 H   0  0  0  0  0  0  0  0  0  0  0  0
   43.9799   23.6933   37.0882 H   0  0  0  0  0  0  0  0  0  0  0  0
   46.0317   23.1338   37.8177 H   0  0  0  0  0  0  0  0  0  0  0  0
   46.5853   23.5601   36.1448 H   0  0  0  0  0  0  0  0  0  0  0  0
   48.0090   24.6951   37.7701 H   0  0  0  0  0  0  0  0  0  0  0  0
   46.9792   25.9055   36.9217 H   0  0  0  0  0  0  0  0  0  0  0  0
   46.6722   24.7787   39.7113 H   0  0  0  0  0  0  0  0  0  0  0  0
   46.9007   26.4872   39.2024 H   0  0  0  0  0  0  0  0  0  0  0  0
   44.4384   24.8287   39.2843 H   0  0  0  0  0  0  0  0  0  0  0  0
   44.6233   26.6003   39.3663 H   0  0  0  0  0  0  0  0  0  0  0  0
   45.2756   26.4904   36.8406 H   0  0  0  0  0  0  0  0  0  0  0  0
   43.5579   26.1568   37.2257 H   0  0  0  0  0  0  0  0  0  0  0  0
  1  6  1  0
  1 11  1  0
  2  1  1  0
  3  4  1  0
  3  2  1  0
  4  5  1  0
  5  6  1  0
  6 18  1  0
  7  8  2  0
  9 13  1  0
  9  8  1  0
 10  9  2  0
 11 10  1  0
 11 12  2  0
 12  7  1  0
 13 17  1  0
 14 13  2  0
 14 15  1  0
 15 16  2  0
 16 17  1  0
 18 19  1  0
 18 23  1  0
 19 20  1  0
 20 21  1  0
 22 21  1  0
 23 22  1  0
  1 24  1  6
  2 25  1  0
  2 26  1  0
  3 27  1  0
  3 28  1  0
  4 29  1  0
  4 30  1  0
  5 31  1  0
  5 32  1  0
  6 33  1  6
  7 34  1  0
  8 35  1  0
 14 36  1  0
 16 37  1  0
 17 38  1  0
 18 39  1  0
 19 40  1  0
 19 41  1  0
 20 42  1  0
 20 43  1  0
 21 44  1  0
 21 45  1  0
 22 46  1  0
 22 47  1  0
 23 48  1  0
 23 49  1  0
M  ISO  8  24  13  25  13  26  13  27  13  28  13  29  13  30  13  31  13
M  ISO  8  32  13  33  13  34  14  35  14  36  14  37  14  38   9  39  13
M  ISO  8  40  13  41  13  42  13  43  13  44  13  45  13  46  13  47  13
M  ISO  2  48  13  49  13
M  END
>  <minimizedAffinity>  (1) 
-6.01397657

>  <minimizedRMSD>  (1) 
2.95416093

$$$$
