
     RDKit          3D

 48 50  0  0  1  0  0  0  0  0999 V2000
   37.9720   25.6560   33.8440 N   0  0  0  0  0  0  0  0  0  0  0  0
   39.1080   26.2950   33.1810 C   0  0  1  0  0  0  0  0  0  0  0  0
   39.8780   27.1130   34.1770 C   0  0  0  0  0  0  0  0  0  0  0  0
   39.2010   27.1900   35.3690 O   0  0  0  0  0  0  0  0  0  0  0  0
   37.9390   27.7040   35.1310 C   0  0  0  0  0  0  0  0  0  0  0  0
   37.1260   26.6500   34.4160 C   0  0  0  0  0  0  0  0  0  0  0  0
   37.7340   22.0460   34.7370 C   0  0  0  0  0  0  0  0  0  0  0  0
   38.0210   23.4110   34.8630 C   0  0  0  0  0  0  0  0  0  0  0  0
   37.7590   24.2900   33.8490 C   0  0  0  0  0  0  0  0  0  0  0  0
   37.2140   23.7410   32.7490 N   0  0  0  0  0  0  0  0  0  0  0  0
   36.9230   22.4730   32.5700 C   0  0  0  0  0  0  0  0  0  0  0  0
   37.1900   21.5990   33.5940 N   0  0  0  0  0  0  0  0  0  0  0  0
   38.5880   23.8310   36.1330 C   0  0  0  0  0  0  0  0  0  0  0  0
   37.6240   23.2910   37.1960 C   0  0  0  0  0  0  0  0  0  0  0  0
   37.9420   23.8060   38.5550 C   0  0  0  0  0  0  0  0  0  0  0  0
   39.3870   23.4620   38.8430 C   0  0  0  0  0  0  0  0  0  0  0  0
   39.9880   22.5820   37.7800 C   0  0  0  0  0  0  0  0  0  0  0  0
   39.9460   23.1750   36.4110 C   0  0  0  0  0  0  0  0  0  0  0  0
   36.3120   22.0280   31.2710 C   0  0  0  0  0  0  0  0  0  0  0  0
   37.2550   21.5650   30.4080 F   0  0  0  0  0  0  0  0  0  0  0  0
   35.4020   21.0370   31.6370 F   0  0  0  0  0  0  0  0  0  0  0  0
   35.5860   23.0340   30.6860 F   0  0  0  0  0  0  0  0  0  0  0  0
   39.9660   25.2650   32.6850 N   0  0  0  0  0  0  0  0  0  0  0  0
   40.2280   25.1150   31.3200 C   0  0  0  0  0  0  0  0  0  0  0  0
   39.9390   26.1820   30.6970 N   0  0  0  0  0  0  0  0  0  0  0  0
   40.6660   24.2240   30.5600 O   0  0  0  0  0  0  0  0  0  0  0  0
   38.7522   26.9432   32.3666 H   0  0  0  0  0  0  0  0  0  0  0  0
   40.8584   26.6444   34.3482 H   0  0  0  0  0  0  0  0  0  0  0  0
   40.0055   28.1295   33.7765 H   0  0  0  0  0  0  0  0  0  0  0  0
   37.4564   27.9626   36.0851 H   0  0  0  0  0  0  0  0  0  0  0  0
   38.0092   28.6123   34.5144 H   0  0  0  0  0  0  0  0  0  0  0  0
   36.5403   27.1277   33.6168 H   0  0  0  0  0  0  0  0  0  0  0  0
   36.4589   26.1665   35.1448 H   0  0  0  0  0  0  0  0  0  0  0  0
   37.9509   21.3511   35.5616 H   0  0  0  0  0  0  0  0  0  0  0  0
   38.7243   24.9225   36.1326 H   0  0  0  0  0  0  0  0  0  0  0  0
   36.6000   23.5943   36.9327 H   0  0  0  0  0  0  0  0  0  0  0  0
   37.7235   22.1957   37.2176 H   0  0  0  0  0  0  0  0  0  0  0  0
   37.8018   24.8966   38.5860 H   0  0  0  0  0  0  0  0  0  0  0  0
   37.2781   23.3540   39.3066 H   0  0  0  0  0  0  0  0  0  0  0  0
   39.9678   24.3944   38.9003 H   0  0  0  0  0  0  0  0  0  0  0  0
   39.4182   22.9099   39.7939 H   0  0  0  0  0  0  0  0  0  0  0  0
   41.0388   22.3898   38.0424 H   0  0  0  0  0  0  0  0  0  0  0  0
   39.3862   21.6617   37.7486 H   0  0  0  0  0  0  0  0  0  0  0  0
   40.1192   22.3805   35.6702 H   0  0  0  0  0  0  0  0  0  0  0  0
   40.7268   23.9467   36.3412 H   0  0  0  0  0  0  0  0  0  0  0  0
   40.4040   24.6144   33.3527 H   0  0  0  0  0  0  0  0  0  0  0  0
   40.0750   26.2360   29.6774 H   0  0  0  0  0  0  0  0  0  0  0  0
   39.5685   26.9941   31.2109 H   0  0  0  0  0  0  0  0  0  0  0  0
  1  9  1  0
  1  6  1  0
  2  1  1  0
  2  3  1  0
  3  4  1  0
  5  4  1  0
  6  5  1  0
  7  8  2  0
  8 13  1  0
  9  8  1  0
 10  9  2  0
 11 10  1  0
 11 12  2  0
 12  7  1  0
 13 18  1  0
 13 14  1  0
 14 15  1  0
 15 16  1  0
 17 16  1  0
 18 17  1  0
 19 21  1  0
 19 11  1  0
 20 19  1  0
 22 19  1  0
 23  2  1  0
 24 23  1  0
 25 24  1  0
 26 24  2  0
  2 27  1  6
  3 28  1  0
  3 29  1  0
  5 30  1  0
  5 31  1  0
  6 32  1  0
  6 33  1  0
  7 34  1  0
 13 35  1  0
 14 36  1  0
 14 37  1  0
 15 38  1  0
 15 39  1  0
 16 40  1  0
 16 41  1  0
 17 42  1  0
 17 43  1  0
 18 44  1  0
 18 45  1  0
 23 46  1  0
 25 47  1  0
 25 48  1  0
M  ISO  8  27  13  28  13  29  13  30  13  31  13  32  13  33  13  34  14
M  ISO  8  35  13  36  13  37  13  38  13  39  13  40  13  41  13  42  13
M  ISO  3  43  13  44  13  45  13
M  END
>  <minimizedAffinity>  (1) 
-5.66214991

>  <minimizedRMSD>  (1) 
4.82104158

$$$$
