
     RDKit          3D

 53 58  0  0  0  0  0  0  0  0999 V2000
   37.1500   23.5910   31.6700 C   0  0  0  0  0  0  0  0  0  0  0  0
   36.6370   24.8850   31.6010 C   0  0  0  0  0  0  0  0  0  0  0  0
   37.0450   25.7190   32.6320 C   0  0  0  0  0  0  0  0  0  0  0  0
   37.8520   25.2350   33.5540 N   0  0  0  0  0  0  0  0  0  0  0  0
   38.3480   24.0130   33.6340 C   0  0  0  0  0  0  0  0  0  0  0  0
   37.9590   23.2240   32.6550 N   0  0  0  0  0  0  0  0  0  0  0  0
   36.6040   27.0750   32.7010 N   0  0  0  0  0  0  0  0  0  0  0  0
   36.7210   28.0130   31.7590 C   0  0  0  0  0  0  0  0  0  0  0  0
   36.2020   29.1470   32.1660 N   0  0  0  0  0  0  0  0  0  0  0  0
   35.7340   28.9570   33.3990 C   0  0  0  0  0  0  0  0  0  0  0  0
   35.9940   27.6620   33.7140 N   0  0  0  0  0  0  0  0  0  0  0  0
   39.2320   23.3700   34.5840 C   0  0  0  0  0  0  0  0  0  0  0  0
   40.3370   22.6310   34.1620 C   0  0  0  0  0  0  0  0  0  0  0  0
   41.1940   22.0080   35.0370 C   0  0  0  0  0  0  0  0  0  0  0  0
   41.0060   22.0820   36.3960 C   0  0  0  0  0  0  0  0  0  0  0  0
   39.9430   22.7930   36.8420 C   0  0  0  0  0  0  0  0  0  0  0  0
   39.7370   22.8780   38.2080 C   0  0  0  0  0  0  0  0  0  0  0  0
   38.6900   23.5720   38.7500 C   0  0  0  0  0  0  0  0  0  0  0  0
   37.8240   24.2020   37.8650 C   0  0  0  0  0  0  0  0  0  0  0  0
   38.0540   24.0970   36.5220 C   0  0  0  0  0  0  0  0  0  0  0  0
   39.0870   23.4140   35.9650 C   0  0  0  0  0  0  0  0  0  0  0  0
   35.0580   29.8030   34.3830 C   0  0  0  0  0  0  0  0  0  0  0  0
   33.8250   29.8510   34.9180 N   0  0  0  0  0  0  0  0  0  0  0  0
   33.7480   30.8260   35.7710 O   0  0  0  0  0  0  0  0  0  0  0  0
   34.9300   31.4410   35.8150 C   0  0  0  0  0  0  0  0  0  0  0  0
   35.7730   30.8170   34.9520 N   0  0  0  0  0  0  0  0  0  0  0  0
   35.2160   32.6100   36.6860 C   0  0  0  0  0  0  0  0  0  0  0  0
   33.9410   33.1280   37.3160 C   0  0  0  0  0  0  0  0  0  0  0  0
   33.0220   33.7740   36.2960 C   0  0  0  0  0  0  0  0  0  0  0  0
   33.7760   34.9210   35.6600 C   0  0  0  0  0  0  0  0  0  0  0  0
   35.0500   34.4580   35.0010 C   0  0  0  0  0  0  0  0  0  0  0  0
   35.9120   33.7240   35.9760 C   0  0  0  0  0  0  0  0  0  0  0  0
   36.8790   22.8606   30.8934 H   0  0  0  0  0  0  0  0  0  0  0  0
   35.9647   25.2174   30.7963 H   0  0  0  0  0  0  0  0  0  0  0  0
   37.1887   27.8567   30.7757 H   0  0  0  0  0  0  0  0  0  0  0  0
   40.5307   22.5431   33.0828 H   0  0  0  0  0  0  0  0  0  0  0  0
   42.0479   21.4385   34.6414 H   0  0  0  0  0  0  0  0  0  0  0  0
   41.6928   21.5827   37.0953 H   0  0  0  0  0  0  0  0  0  0  0  0
   40.4410   22.3688   38.8826 H   0  0  0  0  0  0  0  0  0  0  0  0
   38.5405   23.6287   39.8383 H   0  0  0  0  0  0  0  0  0  0  0  0
   36.9649   24.7775   38.2402 H   0  0  0  0  0  0  0  0  0  0  0  0
   37.3514   24.6024   35.8430 H   0  0  0  0  0  0  0  0  0  0  0  0
   35.9023   32.2463   37.4649 H   0  0  0  0  0  0  0  0  0  0  0  0
   33.4116   32.2872   37.7881 H   0  0  0  0  0  0  0  0  0  0  0  0
   34.2158   33.8932   38.0569 H   0  0  0  0  0  0  0  0  0  0  0  0
   32.7396   33.0393   35.5276 H   0  0  0  0  0  0  0  0  0  0  0  0
   32.1036   34.1376   36.7801 H   0  0  0  0  0  0  0  0  0  0  0  0
   33.1337   35.3918   34.9012 H   0  0  0  0  0  0  0  0  0  0  0  0
   34.0419   35.6359   36.4526 H   0  0  0  0  0  0  0  0  0  0  0  0
   34.8012   33.7891   34.1640 H   0  0  0  0  0  0  0  0  0  0  0  0
   35.5994   35.3381   34.6357 H   0  0  0  0  0  0  0  0  0  0  0  0
   36.7699   33.3036   35.4307 H   0  0  0  0  0  0  0  0  0  0  0  0
   36.2126   34.4515   36.7444 H   0  0  0  0  0  0  0  0  0  0  0  0
  1  6  2  0
  2  1  1  0
  2  3  2  0
  3  7  1  0
  3  4  1  0
  4  5  2  0
  5 12  1  0
  6  5  1  0
  7 11  1  0
  8  9  2  0
  8  7  1  0
  9 10  1  0
 10 11  2  0
 10 22  1  0
 12 21  1  0
 13 12  2  0
 13 14  1  0
 14 15  2  0
 15 16  1  0
 16 17  2  0
 17 18  1  0
 19 18  2  0
 20 19  1  0
 21 20  2  0
 21 16  1  0
 22 23  2  0
 22 26  1  0
 23 24  1  0
 24 25  1  0
 25 27  1  0
 26 25  2  0
 27 28  1  0
 29 28  1  0
 30 29  1  0
 31 30  1  0
 31 32  1  0
 32 27  1  0
  1 33  1  0
  2 34  1  0
  8 35  1  0
 13 36  1  0
 14 37  1  0
 15 38  1  0
 17 39  1  0
 18 40  1  0
 19 41  1  0
 20 42  1  0
 27 43  1  0
 28 44  1  0
 28 45  1  0
 29 46  1  0
 29 47  1  0
 30 48  1  0
 30 49  1  0
 31 50  1  0
 31 51  1  0
 32 52  1  0
 32 53  1  0
M  END
>  <minimizedAffinity>  (1) 
-7.24081898

>  <minimizedRMSD>  (1) 
1.38122129

$$$$
