
     RDKit          3D

 34 36  0  0  0  0  0  0  0  0999 V2000
   43.6270   19.7060   37.0870 C   0  0  0  0  0  0  0  0  0  0  0  0
   42.4760   20.4860   37.2930 C   0  0  0  0  0  0  0  0  0  0  0  0
   41.9730   21.2300   36.2250 C   0  0  0  0  0  0  0  0  0  0  0  0
   42.6420   21.1490   35.0430 N   0  0  0  0  0  0  0  0  0  0  0  0
   43.7400   20.4000   34.8610 C   0  0  0  0  0  0  0  0  0  0  0  0
   44.2340   19.6740   35.8940 N   0  0  0  0  0  0  0  0  0  0  0  0
   44.4120   20.3610   33.5510 C   0  0  0  0  0  0  0  0  0  0  0  0
   45.6710   21.2070   33.5330 C   0  0  0  0  0  0  0  0  0  0  0  0
   45.9310   21.4850   32.0510 C   0  0  0  0  0  0  0  0  0  0  0  0
   46.1600   20.1920   31.3330 C   0  0  0  0  0  0  0  0  0  0  0  0
   45.1610   19.1230   31.6200 C   0  0  0  0  0  0  0  0  0  0  0  0
   44.8240   18.9910   33.0990 C   0  0  0  0  0  0  0  0  0  0  0  0
   40.7900   22.0480   36.3910 C   0  0  0  0  0  0  0  0  0  0  0  0
   39.9190   22.6300   35.5090 N   0  0  0  0  0  0  0  0  0  0  0  0
   39.0090   23.2680   36.1840 O   0  0  0  0  0  0  0  0  0  0  0  0
   39.2310   23.1400   37.4780 C   0  0  0  0  0  0  0  0  0  0  0  0
   40.3210   22.3930   37.5870 N   0  0  0  0  0  0  0  0  0  0  0  0
   38.4360   23.7080   38.5680 C   0  0  0  0  0  0  0  0  0  0  0  0
   39.2430   23.8720   39.6820 F   0  0  0  0  0  0  0  0  0  0  0  0
   37.4010   22.8560   38.9560 F   0  0  0  0  0  0  0  0  0  0  0  0
   37.9290   24.9340   38.2210 F   0  0  0  0  0  0  0  0  0  0  0  0
   44.0353   19.1128   37.9185 H   0  0  0  0  0  0  0  0  0  0  0  0
   41.9821   20.5094   38.2756 H   0  0  0  0  0  0  0  0  0  0  0  0
   43.6433   20.7511   32.8677 H   0  0  0  0  0  0  0  0  0  0  0  0
   45.5146   22.1470   34.0824 H   0  0  0  0  0  0  0  0  0  0  0  0
   46.5195   20.7008   34.0166 H   0  0  0  0  0  0  0  0  0  0  0  0
   45.0600   21.9967   31.6157 H   0  0  0  0  0  0  0  0  0  0  0  0
   46.8208   22.1236   31.9486 H   0  0  0  0  0  0  0  0  0  0  0  0
   47.1534   19.8153   31.6181 H   0  0  0  0  0  0  0  0  0  0  0  0
   46.0678   20.4171   30.2602 H   0  0  0  0  0  0  0  0  0  0  0  0
   44.2361   19.3537   31.0710 H   0  0  0  0  0  0  0  0  0  0  0  0
   45.6064   18.1687   31.3022 H   0  0  0  0  0  0  0  0  0  0  0  0
   43.9993   18.2771   33.2412 H   0  0  0  0  0  0  0  0  0  0  0  0
   45.6818   18.6162   33.6767 H   0  0  0  0  0  0  0  0  0  0  0  0
  1  2  2  0
  3 13  1  0
  3  2  1  0
  4  3  2  0
  5  4  1  0
  5  6  2  0
  6  1  1  0
  7  5  1  0
  8  7  1  0
  9  8  1  0
 10 11  1  0
 10  9  1  0
 11 12  1  0
 12  7  1  0
 13 17  1  0
 14 15  1  0
 14 13  2  0
 15 16  1  0
 16 17  2  0
 16 18  1  0
 18 20  1  0
 18 19  1  0
 21 18  1  0
  1 22  1  0
  2 23  1  0
  7 24  1  0
  8 25  1  0
  8 26  1  0
  9 27  1  0
  9 28  1  0
 10 29  1  0
 10 30  1  0
 11 31  1  0
 11 32  1  0
 12 33  1  0
 12 34  1  0
M  ISO  8  22  14  23  14  24  13  25  13  26  13  27  13  28  13  29  13
M  ISO  5  30  13  31  13  32  13  33  13  34  13
M  END
>  <minimizedAffinity>  (1) 
-4.09803057

>  <minimizedRMSD>  (1) 
0.041773729

$$$$
