
     RDKit          3D

 43 46  0  0  0  0  0  0  0  0999 V2000
   39.8690   23.6470   35.8640 C   0  0  0  0  0  0  0  0  0  0  0  0
   40.0980   24.8820   35.2470 C   0  0  0  0  0  0  0  0  0  0  0  0
   41.3890   25.2140   34.8130 C   0  0  0  0  0  0  0  0  0  0  0  0
   42.3450   24.2710   35.0400 N   0  0  0  0  0  0  0  0  0  0  0  0
   42.0800   23.0620   35.6540 C   0  0  0  0  0  0  0  0  0  0  0  0
   40.8480   22.7820   36.0490 N   0  0  0  0  0  0  0  0  0  0  0  0
   39.0860   25.8920   35.0090 C   0  0  0  0  0  0  0  0  0  0  0  0
   38.7750   26.9230   35.8850 C   0  0  0  0  0  0  0  0  0  0  0  0
   37.7980   27.7790   35.4940 C   0  0  0  0  0  0  0  0  0  0  0  0
   37.1790   27.5780   34.2690 C   0  0  0  0  0  0  0  0  0  0  0  0
   38.0310   26.0740   33.6100 S   0  0  0  0  0  0  0  0  0  0  0  0
   36.1560   28.2240   33.5400 C   0  0  0  0  0  0  0  0  0  0  0  0
   35.9320   27.9160   32.3620 O   0  0  0  0  0  0  0  0  0  0  0  0
   35.3500   29.2530   34.1400 N   0  0  0  0  0  0  0  0  0  0  0  0
   43.2410   22.1690   35.8170 C   0  0  0  0  0  0  0  0  0  0  0  0
   44.4310   22.6130   35.3120 C   0  0  0  0  0  0  0  0  0  0  0  0
   45.6030   21.2010   35.7320 S   0  0  0  0  0  0  0  0  0  0  0  0
   44.1600   20.2620   36.5430 C   0  0  0  0  0  0  0  0  0  0  0  0
   43.3210   20.9900   36.3820 N   0  0  0  0  0  0  0  0  0  0  0  0
   44.3680   18.9200   37.1590 C   0  0  0  0  0  0  0  0  0  0  0  0
   45.6110   18.2490   36.6490 C   0  0  0  0  0  0  0  0  0  0  0  0
   45.4740   17.6930   35.2570 C   0  0  0  0  0  0  0  0  0  0  0  0
   44.2160   16.9280   35.0120 C   0  0  0  0  0  0  0  0  0  0  0  0
   42.9750   17.5260   35.5980 C   0  0  0  0  0  0  0  0  0  0  0  0
   43.1580   18.0350   36.9960 C   0  0  0  0  0  0  0  0  0  0  0  0
   38.8534   23.3925   36.2012 H   0  0  0  0  0  0  0  0  0  0  0  0
   41.6147   26.1721   34.3220 H   0  0  0  0  0  0  0  0  0  0  0  0
   39.2945   27.0399   36.8475 H   0  0  0  0  0  0  0  0  0  0  0  0
   37.5012   28.6196   36.1384 H   0  0  0  0  0  0  0  0  0  0  0  0
   34.6088   29.7121   33.5915 H   0  0  0  0  0  0  0  0  0  0  0  0
   35.5140   29.5309   35.1182 H   0  0  0  0  0  0  0  0  0  0  0  0
   44.6489   23.5572   34.7915 H   0  0  0  0  0  0  0  0  0  0  0  0
   44.5110   19.0875   38.2367 H   0  0  0  0  0  0  0  0  0  0  0  0
   46.4278   18.9858   36.6493 H   0  0  0  0  0  0  0  0  0  0  0  0
   45.8118   17.3974   37.3157 H   0  0  0  0  0  0  0  0  0  0  0  0
   45.5079   18.5330   34.5476 H   0  0  0  0  0  0  0  0  0  0  0  0
   46.3016   16.9807   35.1241 H   0  0  0  0  0  0  0  0  0  0  0  0
   44.0734   16.8492   33.9241 H   0  0  0  0  0  0  0  0  0  0  0  0
   44.3497   15.9576   35.5125 H   0  0  0  0  0  0  0  0  0  0  0  0
   42.6586   18.3650   34.9608 H   0  0  0  0  0  0  0  0  0  0  0  0
   42.2205   16.7267   35.6413 H   0  0  0  0  0  0  0  0  0  0  0  0
   42.2643   18.6116   37.2766 H   0  0  0  0  0  0  0  0  0  0  0  0
   43.3082   17.1582   37.6431 H   0  0  0  0  0  0  0  0  0  0  0  0
  1  6  2  0
  2  1  1  0
  3  4  1  0
  3  2  2  0
  4  5  2  0
  5 15  1  0
  5  6  1  0
  7  2  1  0
  7  8  2  0
  9  8  1  0
 10  9  2  0
 11 10  1  0
 11  7  1  0
 12 14  1  0
 12 10  1  0
 13 12  2  0
 15 19  1  0
 16 17  1  0
 16 15  2  0
 17 18  1  0
 18 20  1  0
 19 18  2  0
 21 20  1  0
 22 21  1  0
 23 22  1  0
 23 24  1  0
 24 25  1  0
 25 20  1  0
  1 26  1  0
  3 27  1  0
  8 28  1  0
  9 29  1  0
 14 30  1  0
 14 31  1  0
 16 32  1  0
 20 33  1  0
 21 34  1  0
 21 35  1  0
 22 36  1  0
 22 37  1  0
 23 38  1  0
 23 39  1  0
 24 40  1  0
 24 41  1  0
 25 42  1  0
 25 43  1  0
M  ISO  8  26  14  27  14  28  14  29  14  32  14  33  13  34  13  35  13
M  ISO  8  36  13  37  13  38  13  39  13  40  13  41  13  42  13  43  13
M  END
>  <minimizedAffinity>  (1) 
-4.29269505

>  <minimizedRMSD>  (1) 
1.53186119

$$$$
