
     RDKit          3D

 37 39  0  0  0  0  0  0  0  0999 V2000
   38.1170   23.4900   34.9100 N   0  0  0  0  0  0  0  0  0  0  0  0
   38.0510   22.4440   34.0910 N   0  0  0  0  0  0  0  0  0  0  0  0
   37.7270   22.8100   32.8470 C   0  0  0  0  0  0  0  0  0  0  0  0
   37.5800   24.1970   32.9000 C   0  0  0  0  0  0  0  0  0  0  0  0
   37.8280   24.6140   34.2060 C   0  0  0  0  0  0  0  0  0  0  0  0
   37.5220   23.8800   37.2210 C   0  0  0  0  0  0  0  0  0  0  0  0
   38.4310   23.4390   36.2660 C   0  0  0  0  0  0  0  0  0  0  0  0
   39.6710   22.9390   36.6780 C   0  0  0  0  0  0  0  0  0  0  0  0
   39.9100   22.9180   38.0280 N   0  0  0  0  0  0  0  0  0  0  0  0
   39.0310   23.3440   38.9280 C   0  0  0  0  0  0  0  0  0  0  0  0
   37.8360   23.8250   38.5240 N   0  0  0  0  0  0  0  0  0  0  0  0
   37.7740   25.9700   34.6550 N   0  0  0  0  0  0  0  0  0  0  0  0
   38.9160   26.6750   35.1220 C   0  0  0  0  0  0  0  0  0  0  0  0
   40.0420   26.4060   34.4870 N   0  0  0  0  0  0  0  0  0  0  0  0
   38.7260   27.5880   36.2170 N   0  0  0  0  0  0  0  0  0  0  0  0
   40.8750   26.9320   34.8460 H   0  0  0  0  0  0  0  0  0  0  0  0
   37.2160   25.0280   31.7210 C   0  0  0  0  0  0  0  0  0  0  0  0
   36.0920   24.4330   30.9040 C   0  0  0  0  0  0  0  0  0  0  0  0
   34.9860   25.4690   30.8650 C   0  0  0  0  0  0  0  0  0  0  0  0
   35.7510   26.7660   31.0130 C   0  0  0  0  0  0  0  0  0  0  0  0
   36.7910   26.4140   32.0760 C   0  0  0  0  0  0  0  0  0  0  0  0
   37.6029   22.1581   31.9697 H   0  0  0  0  0  0  0  0  0  0  0  0
   36.5441   24.2745   36.9078 H   0  0  0  0  0  0  0  0  0  0  0  0
   40.4177   22.5803   35.9543 H   0  0  0  0  0  0  0  0  0  0  0  0
   39.2760   23.3050   39.9997 H   0  0  0  0  0  0  0  0  0  0  0  0
   36.8670   26.4578   34.6393 H   0  0  0  0  0  0  0  0  0  0  0  0
   39.5257   28.1205   36.5882 H   0  0  0  0  0  0  0  0  0  0  0  0
   37.7902   27.7093   36.6299 H   0  0  0  0  0  0  0  0  0  0  0  0
   38.1484   25.0561   31.1381 H   0  0  0  0  0  0  0  0  0  0  0  0
   36.4404   24.2119   29.8843 H   0  0  0  0  0  0  0  0  0  0  0  0
   35.7364   23.4911   31.3472 H   0  0  0  0  0  0  0  0  0  0  0  0
   34.4419   25.4346   29.9096 H   0  0  0  0  0  0  0  0  0  0  0  0
   34.2176   25.3211   31.6381 H   0  0  0  0  0  0  0  0  0  0  0  0
   36.2314   27.0549   30.0666 H   0  0  0  0  0  0  0  0  0  0  0  0
   35.1163   27.6220   31.2856 H   0  0  0  0  0  0  0  0  0  0  0  0
   36.3465   26.4410   33.0818 H   0  0  0  0  0  0  0  0  0  0  0  0
   37.6322   27.1225   32.0960 H   0  0  0  0  0  0  0  0  0  0  0  0
  1  7  1  0
  2  1  1  0
  3  4  1  0
  3  2  2  0
  4  5  2  0
  5 12  1  0
  5  1  1  0
  6 11  2  0
  7  8  2  0
  7  6  1  0
  8  9  1  0
  9 10  2  0
 11 10  1  0
 12 13  1  0
 13 15  1  0
 14 16  1  0
 14 13  2  0
 17 21  1  0
 17  4  1  0
 18 17  1  0
 19 18  1  0
 19 20  1  0
 20 21  1  0
  3 22  1  0
  6 23  1  0
  8 24  1  0
 10 25  1  0
 12 26  1  0
 15 27  1  0
 15 28  1  0
 17 29  1  0
 18 30  1  0
 18 31  1  0
 19 32  1  0
 19 33  1  0
 20 34  1  0
 20 35  1  0
 21 36  1  0
 21 37  1  0
M  ISO  8  22  14  23  14  24  14  25  14  29  13  30  13  31  13  32  13
M  ISO  5  33  13  34  13  35  13  36  13  37  13
M  END
>  <minimizedAffinity>  (1) 
-5.49628735

>  <minimizedRMSD>  (1) 
0.396984786

$$$$
