
     RDKit          3D

 46 49  0  0  1  0  0  0  0  0999 V2000
   37.8130   25.1980   34.4490 N   0  0  0  0  0  0  0  0  0  0  0  0
   37.5300   25.4260   33.0460 C   0  0  0  0  0  0  0  0  0  0  0  0
   37.7690   26.8800   32.8180 C   0  0  0  0  0  0  0  0  0  0  0  0
   38.2240   27.3970   34.1730 C   0  0  0  0  0  0  0  0  0  0  0  0
   38.8830   26.1000   34.7240 C   0  0  2  0  0  0  0  0  0  0  0  0
   38.3050   23.8690   34.6780 C   0  0  0  0  0  0  0  0  0  0  0  0
   37.8690   23.6780   38.4380 C   0  0  0  0  0  0  0  0  0  0  0  0
   37.5700   23.9380   37.1070 C   0  0  0  0  0  0  0  0  0  0  0  0
   38.5520   23.6210   36.1370 C   0  0  0  0  0  0  0  0  0  0  0  0
   39.7260   23.0830   36.5760 N   0  0  0  0  0  0  0  0  0  0  0  0
   39.9490   22.8570   37.8860 C   0  0  0  0  0  0  0  0  0  0  0  0
   39.0160   23.1580   38.8030 N   0  0  0  0  0  0  0  0  0  0  0  0
   40.0330   25.7800   34.0540 O   0  0  0  0  0  0  0  0  0  0  0  0
   41.1720   26.1610   34.7130 C   0  0  2  0  0  0  0  0  0  0  0  0
   42.2670   26.7590   33.8880 C   0  0  0  0  0  0  0  0  0  0  0  0
   42.4560   25.4210   34.5290 C   0  0  1  0  0  0  0  0  0  0  0  0
   43.2700   25.2450   35.7830 C   0  0  0  0  0  0  0  0  0  0  0  0
   44.6840   25.7040   35.6900 C   0  0  0  0  0  0  0  0  0  0  0  0
   45.4860   24.4270   35.4840 C   0  0  0  0  0  0  0  0  0  0  0  0
   44.7200   23.3820   36.2210 C   0  0  0  0  0  0  0  0  0  0  0  0
   43.2910   23.8010   36.2150 C   0  0  0  0  0  0  0  0  0  0  0  0
   38.2012   24.8235   32.4164 H   0  0  0  0  0  0  0  0  0  0  0  0
   36.5004   25.1380   32.7872 H   0  0  0  0  0  0  0  0  0  0  0  0
   38.5503   27.0331   32.0590 H   0  0  0  0  0  0  0  0  0  0  0  0
   36.8753   27.4017   32.4451 H   0  0  0  0  0  0  0  0  0  0  0  0
   38.9489   28.2189   34.0780 H   0  0  0  0  0  0  0  0  0  0  0  0
   37.4324   27.8283   34.8033 H   0  0  0  0  0  0  0  0  0  0  0  0
   39.2200   26.1328   35.7706 H   0  0  0  0  0  0  0  0  0  0  0  0
   37.5625   23.1444   34.3124 H   0  0  0  0  0  0  0  0  0  0  0  0
   39.2583   23.7552   34.1411 H   0  0  0  0  0  0  0  0  0  0  0  0
   37.1213   23.9154   39.2091 H   0  0  0  0  0  0  0  0  0  0  0  0
   36.6035   24.3752   36.8161 H   0  0  0  0  0  0  0  0  0  0  0  0
   40.9064   22.4210   38.2073 H   0  0  0  0  0  0  0  0  0  0  0  0
   40.5883   26.4479   35.6001 H   0  0  0  0  0  0  0  0  0  0  0  0
   42.8234   27.6315   34.2612 H   0  0  0  0  0  0  0  0  0  0  0  0
   42.3447   27.1487   32.8623 H   0  0  0  0  0  0  0  0  0  0  0  0
   42.7943   24.4541   34.1283 H   0  0  0  0  0  0  0  0  0  0  0  0
   42.7609   25.8872   36.5168 H   0  0  0  0  0  0  0  0  0  0  0  0
   44.8157   26.3876   34.8383 H   0  0  0  0  0  0  0  0  0  0  0  0
   45.0034   26.2590   36.5844 H   0  0  0  0  0  0  0  0  0  0  0  0
   45.5530   24.1782   34.4146 H   0  0  0  0  0  0  0  0  0  0  0  0
   46.5207   24.5201   35.8456 H   0  0  0  0  0  0  0  0  0  0  0  0
   44.8301   22.4092   35.7194 H   0  0  0  0  0  0  0  0  0  0  0  0
   45.0928   23.2762   37.2505 H   0  0  0  0  0  0  0  0  0  0  0  0
   42.8610   23.6995   37.2224 H   0  0  0  0  0  0  0  0  0  0  0  0
   42.6955   23.1738   35.5353 H   0  0  0  0  0  0  0  0  0  0  0  0
  1  6  1  0
  1  5  1  0
  2  1  1  0
  3  2  1  0
  3  4  1  0
  4  5  1  0
  6  9  1  0
  7 12  2  0
  8  7  1  0
  9 10  1  0
  9  8  2  0
 10 11  2  0
 11 12  1  0
 13 14  1  0
 13  5  1  0
 15 16  1  0
 15 14  1  0
 16 14  1  0
 16 17  1  0
 17 21  1  0
 18 17  1  0
 19 18  1  0
 19 20  1  0
 21 20  1  0
  2 22  1  0
  2 23  1  0
  3 24  1  0
  3 25  1  0
  4 26  1  0
  4 27  1  0
  5 28  1  1
  6 29  1  0
  6 30  1  0
  7 31  1  0
  8 32  1  0
 11 33  1  0
 14 34  1  1
 15 35  1  0
 15 36  1  0
 16 37  1  6
 17 38  1  0
 18 39  1  0
 18 40  1  0
 19 41  1  0
 19 42  1  0
 20 43  1  0
 20 44  1  0
 21 45  1  0
 21 46  1  0
M  ISO  8  22  13  23  13  24  13  25  13  26  13  27  13  28  13  29   8
M  ISO  8  30   8  31  14  32  14  33  14  34  13  35  13  36  13  37  13
M  ISO  8  38  13  39  13  40  13  41  13  42  13  43  13  44  13  45  13
M  ISO  1  46  13
M  END
>  <minimizedAffinity>  (1) 
-4.5900979

>  <minimizedRMSD>  (1) 
1.13667953

$$$$
