
     RDKit          3D

 39 41  0  0  1  0  0  0  0  0999 V2000
   38.1270   24.3890   35.0890 C   0  0  1  0  0  0  0  0  0  0  0  0
   40.0770   22.6230   37.8110 C   0  0  0  0  0  0  0  0  0  0  0  0
   39.1150   23.4510   37.2210 C   0  0  0  0  0  0  0  0  0  0  0  0
   39.1100   23.5280   35.7910 C   0  0  0  0  0  0  0  0  0  0  0  0
   40.0270   22.8050   35.0870 N   0  0  0  0  0  0  0  0  0  0  0  0
   40.9320   22.0220   35.6920 C   0  0  0  0  0  0  0  0  0  0  0  0
   40.9520   21.9340   37.0670 N   0  0  0  0  0  0  0  0  0  0  0  0
   37.8620   25.6640   35.8540 C   0  0  0  0  0  0  0  0  0  0  0  0
   38.5150   24.6860   33.6720 C   0  0  0  0  0  0  0  0  0  0  0  0
   37.4270   24.5010   32.7750 N   0  0  0  0  0  0  0  0  0  0  0  0
   36.8480   23.4330   32.1560 C   0  0  0  0  0  0  0  0  0  0  0  0
   35.7760   23.7720   31.3720 C   0  0  0  0  0  0  0  0  0  0  0  0
   35.6860   25.0980   31.5060 N   0  0  0  0  0  0  0  0  0  0  0  0
   36.6590   25.5330   32.3320 C   0  0  0  0  0  0  0  0  0  0  0  0
   36.7060   27.0070   32.6030 C   0  0  0  0  0  0  0  0  0  0  0  0
   35.7960   27.7950   31.6880 C   0  0  0  0  0  0  0  0  0  0  0  0
   36.6400   28.1420   30.4860 C   0  0  0  0  0  0  0  0  0  0  0  0
   38.0630   27.7930   30.8410 C   0  0  0  0  0  0  0  0  0  0  0  0
   38.0110   27.6510   32.3300 C   0  0  0  0  0  0  0  0  0  0  0  0
   37.1925   23.8104   35.0459 H   0  0  0  0  0  0  0  0  0  0  0  0
   40.1151   22.5365   38.9069 H   0  0  0  0  0  0  0  0  0  0  0  0
   38.3945   24.0177   37.8290 H   0  0  0  0  0  0  0  0  0  0  0  0
   41.6565   21.4515   35.0923 H   0  0  0  0  0  0  0  0  0  0  0  0
   37.9046   25.4592   36.9339 H   0  0  0  0  0  0  0  0  0  0  0  0
   38.6236   26.4135   35.5926 H   0  0  0  0  0  0  0  0  0  0  0  0
   36.8649   26.0479   35.5926 H   0  0  0  0  0  0  0  0  0  0  0  0
   38.8555   25.7300   33.6077 H   0  0  0  0  0  0  0  0  0  0  0  0
   39.3164   23.9895   33.3845 H   0  0  0  0  0  0  0  0  0  0  0  0
   37.2063   22.3998   32.2743 H   0  0  0  0  0  0  0  0  0  0  0  0
   35.1380   23.1066   30.7718 H   0  0  0  0  0  0  0  0  0  0  0  0
   36.4335   27.0366   33.6683 H   0  0  0  0  0  0  0  0  0  0  0  0
   34.9307   27.1858   31.3878 H   0  0  0  0  0  0  0  0  0  0  0  0
   35.3978   28.6937   32.1817 H   0  0  0  0  0  0  0  0  0  0  0  0
   36.5575   29.2158   30.2620 H   0  0  0  0  0  0  0  0  0  0  0  0
   36.3071   27.5886   29.5955 H   0  0  0  0  0  0  0  0  0  0  0  0
   38.3701   26.8505   30.3641 H   0  0  0  0  0  0  0  0  0  0  0  0
   38.7920   28.5435   30.5014 H   0  0  0  0  0  0  0  0  0  0  0  0
   38.8373   27.0194   32.6881 H   0  0  0  0  0  0  0  0  0  0  0  0
   38.1120   28.6187   32.8432 H   0  0  0  0  0  0  0  0  0  0  0  0
  1  4  1  0
  1  8  1  0
  3  2  2  0
  4  3  1  0
  5  6  1  0
  5  4  2  0
  6  7  2  0
  7  2  1  0
  9  1  1  0
 10  9  1  0
 11 10  1  0
 12 13  1  0
 12 11  2  0
 13 14  2  0
 14 15  1  0
 14 10  1  0
 16 15  1  0
 17 18  1  0
 17 16  1  0
 18 19  1  0
 19 15  1  0
  1 20  1  6
  2 21  1  0
  3 22  1  0
  6 23  1  0
  8 24  1  0
  8 25  1  0
  8 26  1  0
  9 27  1  0
  9 28  1  0
 11 29  1  0
 12 30  1  0
 15 31  1  0
 16 32  1  0
 16 33  1  0
 17 34  1  0
 17 35  1  0
 18 36  1  0
 18 37  1  0
 19 38  1  0
 19 39  1  0
M  ISO  8  20   8  21  14  22  14  23  14  24   8  25   8  26   8  27   8
M  ISO  8  28   8  29  14  30  14  31  13  32  13  33  13  34  13  35  13
M  ISO  4  36  13  37  13  38  13  39  13
M  END
>  <minimizedAffinity>  (1) 
-4.55255508

>  <minimizedRMSD>  (1) 
3.4809649

$$$$
