
     RDKit          3D

 46 49  0  0  1  0  0  0  0  0999 V2000
   37.4120   25.8350   32.9440 N   0  0  0  0  0  0  0  0  0  0  0  0
   36.9480   24.7620   32.2990 C   0  0  0  0  0  0  0  0  0  0  0  0
   35.9010   25.0190   31.4420 C   0  0  0  0  0  0  0  0  0  0  0  0
   35.7040   26.3230   31.5610 N   0  0  0  0  0  0  0  0  0  0  0  0
   36.6080   26.8250   32.4630 C   0  0  0  0  0  0  0  0  0  0  0  0
   36.6240   28.3170   32.7720 C   0  0  1  0  0  0  0  0  0  0  0  0
   35.7750   29.1460   31.8770 C   0  0  0  0  0  0  0  0  0  0  0  0
   35.3680   28.9070   33.3180 C   0  0  2  0  0  0  0  0  0  0  0  0
   35.2170   30.1760   34.0480 C   0  0  0  0  0  0  0  0  0  0  0  0
   33.9460   30.4990   34.7310 C   0  0  0  0  0  0  0  0  0  0  0  0
   34.3100   31.7750   35.5110 C   0  0  0  0  0  0  0  0  0  0  0  0
   35.6820   31.4680   36.0270 C   0  0  0  0  0  0  0  0  0  0  0  0
   36.2000   30.3020   35.2420 C   0  0  0  0  0  0  0  0  0  0  0  0
   38.4190   26.0660   33.8920 C   0  0  0  0  0  0  0  0  0  0  0  0
   37.9410   26.0230   35.2970 C   0  0  1  0  0  0  0  0  0  0  0  0
   38.5490   23.4530   38.0070 C   0  0  0  0  0  0  0  0  0  0  0  0
   37.9400   24.5430   37.3550 C   0  0  0  0  0  0  0  0  0  0  0  0
   38.5110   24.9030   36.0790 C   0  0  0  0  0  0  0  0  0  0  0  0
   39.5890   24.1880   35.5780 N   0  0  0  0  0  0  0  0  0  0  0  0
   40.1170   23.1680   36.2470 C   0  0  0  0  0  0  0  0  0  0  0  0
   39.5900   22.7970   37.4760 N   0  0  0  0  0  0  0  0  0  0  0  0
   38.2540   27.3490   35.9790 C   0  0  0  0  0  0  0  0  0  0  0  0
   37.3676   23.7551   32.4405 H   0  0  0  0  0  0  0  0  0  0  0  0
   35.3551   24.3064   30.8062 H   0  0  0  0  0  0  0  0  0  0  0  0
   37.6751   28.3360   33.0959 H   0  0  0  0  0  0  0  0  0  0  0  0
   36.1176   30.1417   31.5588 H   0  0  0  0  0  0  0  0  0  0  0  0
   35.2983   28.9987   30.8967 H   0  0  0  0  0  0  0  0  0  0  0  0
   34.5989   28.4308   33.9439 H   0  0  0  0  0  0  0  0  0  0  0  0
   35.3624   30.8385   33.1820 H   0  0  0  0  0  0  0  0  0  0  0  0
   33.1413   30.6909   34.0059 H   0  0  0  0  0  0  0  0  0  0  0  0
   33.5681   29.6854   35.3677 H   0  0  0  0  0  0  0  0  0  0  0  0
   34.3229   32.6537   34.8494 H   0  0  0  0  0  0  0  0  0  0  0  0
   33.5903   32.0198   36.3060 H   0  0  0  0  0  0  0  0  0  0  0  0
   36.3403   32.3382   35.8880 H   0  0  0  0  0  0  0  0  0  0  0  0
   35.6516   31.2329   37.1012 H   0  0  0  0  0  0  0  0  0  0  0  0
   36.1912   29.3868   35.8521 H   0  0  0  0  0  0  0  0  0  0  0  0
   37.2409   30.4442   34.9160 H   0  0  0  0  0  0  0  0  0  0  0  0
   39.1962   25.2978   33.7665 H   0  0  0  0  0  0  0  0  0  0  0  0
   38.7992   27.0828   33.7141 H   0  0  0  0  0  0  0  0  0  0  0  0
   36.8547   25.8533   35.2617 H   0  0  0  0  0  0  0  0  0  0  0  0
   38.1577   23.1300   38.9830 H   0  0  0  0  0  0  0  0  0  0  0  0
   37.0862   25.0838   37.7892 H   0  0  0  0  0  0  0  0  0  0  0  0
   40.9717   22.6179   35.8265 H   0  0  0  0  0  0  0  0  0  0  0  0
   38.2227   27.2163   37.0705 H   0  0  0  0  0  0  0  0  0  0  0  0
   39.2568   27.6877   35.6794 H   0  0  0  0  0  0  0  0  0  0  0  0
   37.5085   28.1004   35.6794 H   0  0  0  0  0  0  0  0  0  0  0  0
  1 14  1  0
  2  1  1  0
  3  4  1  0
  3  2  2  0
  4  5  2  0
  5  6  1  0
  5  1  1  0
  6  8  1  0
  7  6  1  0
  7  8  1  0
  8  9  1  0
  9 10  1  0
  9 13  1  0
 10 11  1  0
 11 12  1  0
 13 12  1  0
 14 15  1  0
 15 22  1  0
 15 18  1  0
 17 16  2  0
 18 17  1  0
 19 18  2  0
 19 20  1  0
 20 21  2  0
 21 16  1  0
  2 23  1  0
  3 24  1  0
  6 25  1  1
  7 26  1  0
  7 27  1  0
  8 28  1  6
  9 29  1  0
 10 30  1  0
 10 31  1  0
 11 32  1  0
 11 33  1  0
 12 34  1  0
 12 35  1  0
 13 36  1  0
 13 37  1  0
 14 38  1  0
 14 39  1  0
 15 40  1  6
 16 41  1  0
 17 42  1  0
 20 43  1  0
 22 44  1  0
 22 45  1  0
 22 46  1  0
M  ISO  8  23  14  24  14  25  13  26  13  27  13  28  13  29  13  30  13
M  ISO  8  31  13  32  13  33  13  34  13  35  13  36  13  37  13  38   8
M  ISO  8  39   8  40   8  41  14  42  14  43  14  44   8  45   8  46   8
M  END
>  <minimizedAffinity>  (1) 
-5.61441422

>  <minimizedRMSD>  (1) 
0.740425169

$$$$
