
     RDKit          3D

 46 49  0  0  1  0  0  0  0  0999 V2000
   43.9610   23.7300   34.7080 C   0  0  1  0  0  0  0  0  0  0  0  0
   42.9870   24.4690   33.8290 C   0  0  0  0  0  0  0  0  0  0  0  0
   43.6220   25.4990   32.9540 C   0  0  0  0  0  0  0  0  0  0  0  0
   44.7240   26.2190   33.6500 C   0  0  0  0  0  0  0  0  0  0  0  0
   44.5780   26.0760   35.1450 C   0  0  0  0  0  0  0  0  0  0  0  0
   44.8320   24.6290   35.5050 C   0  0  1  0  0  0  0  0  0  0  0  0
   42.9320   21.0480   36.9640 C   0  0  0  0  0  0  0  0  0  0  0  0
   41.6680   21.4380   37.3830 C   0  0  0  0  0  0  0  0  0  0  0  0
   41.1430   22.6230   36.8950 C   0  0  0  0  0  0  0  0  0  0  0  0
   41.9050   23.3590   36.0150 N   0  0  0  0  0  0  0  0  0  0  0  0
   43.1220   22.9320   35.6460 C   0  0  0  0  0  0  0  0  0  0  0  0
   43.6210   21.8050   36.1100 N   0  0  0  0  0  0  0  0  0  0  0  0
   39.8090   23.0520   37.3180 C   0  0  0  0  0  0  0  0  0  0  0  0
   38.9030   23.7420   36.5240 C   0  0  0  0  0  0  0  0  0  0  0  0
   37.8000   23.9350   37.3020 N   0  0  0  0  0  0  0  0  0  0  0  0
   38.0650   23.3760   38.4990 C   0  0  0  0  0  0  0  0  0  0  0  0
   39.2590   22.8360   38.5480 N   0  0  0  0  0  0  0  0  0  0  0  0
   44.9490   24.4270   36.9680 C   0  0  0  0  0  0  0  0  0  0  0  0
   44.4150   25.7470   37.5620 C   0  0  0  0  0  0  0  0  0  0  0  0
   45.1020   25.9640   38.8630 C   0  0  0  0  0  0  0  0  0  0  0  0
   46.2630   25.0420   38.9340 C   0  0  0  0  0  0  0  0  0  0  0  0
   46.3270   24.4230   37.5350 C   0  0  0  0  0  0  0  0  0  0  0  0
   44.6321   23.1255   34.0801 H   0  0  0  0  0  0  0  0  0  0  0  0
   42.4756   23.7368   33.1869 H   0  0  0  0  0  0  0  0  0  0  0  0
   42.2943   25.0013   34.4975 H   0  0  0  0  0  0  0  0  0  0  0  0
   42.8565   26.2287   32.6512 H   0  0  0  0  0  0  0  0  0  0  0  0
   44.0499   24.9857   32.0802 H   0  0  0  0  0  0  0  0  0  0  0  0
   45.6895   25.7949   33.3371 H   0  0  0  0  0  0  0  0  0  0  0  0
   44.6787   27.2858   33.3856 H   0  0  0  0  0  0  0  0  0  0  0  0
   45.3090   26.7210   35.6545 H   0  0  0  0  0  0  0  0  0  0  0  0
   43.5675   26.3756   35.4599 H   0  0  0  0  0  0  0  0  0  0  0  0
   45.8364   24.3103   35.1893 H   0  0  0  0  0  0  0  0  0  0  0  0
   43.3675   20.1098   37.3383 H   0  0  0  0  0  0  0  0  0  0  0  0
   41.0946   20.8186   38.0884 H   0  0  0  0  0  0  0  0  0  0  0  0
   39.0455   24.0660   35.4825 H   0  0  0  0  0  0  0  0  0  0  0  0
   37.3581   23.3729   39.3418 H   0  0  0  0  0  0  0  0  0  0  0  0
   39.6910   22.3507   39.3472 H   0  0  0  0  0  0  0  0  0  0  0  0
   44.4627   23.4643   37.1840 H   0  0  0  0  0  0  0  0  0  0  0  0
   44.6329   26.5812   36.8789 H   0  0  0  0  0  0  0  0  0  0  0  0
   43.3255   25.6943   37.7041 H   0  0  0  0  0  0  0  0  0  0  0  0
   45.4490   27.0056   38.9317 H   0  0  0  0  0  0  0  0  0  0  0  0
   44.4100   25.7683   39.6953 H   0  0  0  0  0  0  0  0  0  0  0  0
   47.1874   25.5933   39.1608 H   0  0  0  0  0  0  0  0  0  0  0  0
   46.1579   24.2875   39.7276 H   0  0  0  0  0  0  0  0  0  0  0  0
   46.7012   23.3907   37.6000 H   0  0  0  0  0  0  0  0  0  0  0  0
   47.0073   25.0003   36.8917 H   0  0  0  0  0  0  0  0  0  0  0  0
  1  6  1  0
  1 11  1  0
  2  1  1  0
  3  4  1  0
  3  2  1  0
  4  5  1  0
  5  6  1  0
  6 18  1  0
  7  8  2  0
  9 13  1  0
  9  8  1  0
 10  9  2  0
 11 10  1  0
 11 12  2  0
 12  7  1  0
 13 17  1  0
 14 15  1  0
 14 13  2  0
 15 16  2  0
 16 17  1  0
 18 22  1  0
 18 19  1  0
 19 20  1  0
 20 21  1  0
 22 21  1  0
  1 23  1  6
  2 24  1  0
  2 25  1  0
  3 26  1  0
  3 27  1  0
  4 28  1  0
  4 29  1  0
  5 30  1  0
  5 31  1  0
  6 32  1  6
  7 33  1  0
  8 34  1  0
 14 35  1  0
 16 36  1  0
 17 37  1  0
 18 38  1  0
 19 39  1  0
 19 40  1  0
 20 41  1  0
 20 42  1  0
 21 43  1  0
 21 44  1  0
 22 45  1  0
 22 46  1  0
M  ISO  8  23  13  24  13  25  13  26  13  27  13  28  13  29  13  30  13
M  ISO  8  31  13  32  13  33  14  34  14  35  14  36  14  37   9  38  13
M  ISO  8  39  13  40  13  41  13  42  13  43  13  44  13  45  13  46  13
M  END
>  <minimizedAffinity>  (1) 
-5.86011982

>  <minimizedRMSD>  (1) 
3.10907078

$$$$
