
     RDKit          3D

 39 41  0  0  1  0  0  0  0  0999 V2000
   40.5380   24.6250   34.3510 C   0  0  0  0  0  0  0  0  0  0  0  0
   43.9120   25.0080   35.4880 C   0  0  0  0  0  0  0  0  0  0  0  0
   42.6360   24.3990   35.3550 C   0  0  0  0  0  0  0  0  0  0  0  0
   41.8330   25.1400   34.5890 C   0  0  0  0  0  0  0  0  0  0  0  0
   42.2410   26.3430   34.0190 N   0  0  0  0  0  0  0  0  0  0  0  0
   43.4440   26.8520   34.1840 C   0  0  0  0  0  0  0  0  0  0  0  0
   44.2860   26.1750   34.9260 N   0  0  0  0  0  0  0  0  0  0  0  0
   42.4910   23.1610   36.0360 C   0  0  0  0  0  0  0  0  0  0  0  0
   41.6450   23.2710   37.1700 F   0  0  0  0  0  0  0  0  0  0  0  0
   43.4690   22.6560   36.8100 F   0  0  0  0  0  0  0  0  0  0  0  0
   41.6690   22.1900   35.4780 F   0  0  0  0  0  0  0  0  0  0  0  0
   39.5360   25.1170   35.2720 C   0  0  0  0  0  0  0  0  0  0  0  0
   38.4770   24.0270   35.4480 C   0  0  2  0  0  0  0  0  0  0  0  0
   37.6940   24.1440   36.7270 C   0  0  0  0  0  0  0  0  0  0  0  0
   38.5570   22.9540   36.3990 C   0  0  1  0  0  0  0  0  0  0  0  0
   37.7910   21.7130   35.8740 C   0  0  0  0  0  0  0  0  0  0  0  0
   37.8150   21.8300   34.3520 C   0  0  0  0  0  0  0  0  0  0  0  0
   36.4630   21.3660   33.8900 C   0  0  0  0  0  0  0  0  0  0  0  0
   35.7720   20.8280   35.1300 C   0  0  0  0  0  0  0  0  0  0  0  0
   36.3440   21.7130   36.2500 C   0  0  0  0  0  0  0  0  0  0  0  0
   40.2367   24.9021   33.3300 H   0  0  0  0  0  0  0  0  0  0  0  0
   40.5954   23.5355   34.4916 H   0  0  0  0  0  0  0  0  0  0  0  0
   44.6587   24.4829   36.1018 H   0  0  0  0  0  0  0  0  0  0  0  0
   43.7307   27.8064   33.7182 H   0  0  0  0  0  0  0  0  0  0  0  0
   40.0012   25.3451   36.2423 H   0  0  0  0  0  0  0  0  0  0  0  0
   39.0759   26.0359   34.8797 H   0  0  0  0  0  0  0  0  0  0  0  0
   38.3004   23.9936   34.3628 H   0  0  0  0  0  0  0  0  0  0  0  0
   38.0004   24.8580   37.5057 H   0  0  0  0  0  0  0  0  0  0  0  0
   36.6425   24.3117   37.0030 H   0  0  0  0  0  0  0  0  0  0  0  0
   39.3515   22.4328   36.9531 H   0  0  0  0  0  0  0  0  0  0  0  0
   38.2618   20.8111   36.2922 H   0  0  0  0  0  0  0  0  0  0  0  0
   37.9868   22.8736   34.0497 H   0  0  0  0  0  0  0  0  0  0  0  0
   38.6242   21.2299   33.9103 H   0  0  0  0  0  0  0  0  0  0  0  0
   35.8927   22.2057   33.4661 H   0  0  0  0  0  0  0  0  0  0  0  0
   36.5414   20.6015   33.1030 H   0  0  0  0  0  0  0  0  0  0  0  0
   34.6803   20.9399   35.0552 H   0  0  0  0  0  0  0  0  0  0  0  0
   35.9442   19.7539   35.2930 H   0  0  0  0  0  0  0  0  0  0  0  0
   36.1811   21.2692   37.2433 H   0  0  0  0  0  0  0  0  0  0  0  0
   35.8876   22.7108   36.3283 H   0  0  0  0  0  0  0  0  0  0  0  0
  1  4  1  0
  1 12  1  0
  3  2  2  0
  3  8  1  0
  4  3  1  0
  5  6  1  0
  5  4  2  0
  6  7  2  0
  7  2  1  0
  8 10  1  0
  8  9  1  0
 11  8  1  0
 12 13  1  0
 13 15  1  0
 13 14  1  0
 15 14  1  0
 16 20  1  0
 16 15  1  0
 17 16  1  0
 18 17  1  0
 18 19  1  0
 19 20  1  0
  1 21  1  0
  1 22  1  0
  2 23  1  0
  6 24  1  0
 12 25  1  0
 12 26  1  0
 13 27  1  6
 14 28  1  0
 14 29  1  0
 15 30  1  1
 16 31  1  0
 17 32  1  0
 17 33  1  0
 18 34  1  0
 18 35  1  0
 19 36  1  0
 19 37  1  0
 20 38  1  0
 20 39  1  0
M  ISO  8  21   8  22   8  23  14  24  14  25   8  26   8  27  13  28  13
M  ISO  8  29  13  30  13  31  13  32  13  33  13  34  13  35  13  36  13
M  ISO  3  37  13  38  13  39  13
M  END
>  <minimizedAffinity>  (1) 
-3.78829312

>  <minimizedRMSD>  (1) 
2.08994174

$$$$
