
     RDKit          3D

 31 33  0  0  0  0  0  0  0  0999 V2000
   35.4090   24.9180   31.0370 C   0  0  0  0  0  0  0  0  0  0  0  0
   36.2860   24.2580   31.9020 C   0  0  0  0  0  0  0  0  0  0  0  0
   37.1640   25.0030   32.7000 C   0  0  0  0  0  0  0  0  0  0  0  0
   37.0950   26.3590   32.5710 N   0  0  0  0  0  0  0  0  0  0  0  0
   36.2150   26.9720   31.7040 C   0  0  0  0  0  0  0  0  0  0  0  0
   35.3950   26.2370   30.9610 N   0  0  0  0  0  0  0  0  0  0  0  0
   36.1920   28.4290   31.6130 C   0  0  0  0  0  0  0  0  0  0  0  0
   35.8000   29.1840   32.7030 C   0  0  0  0  0  0  0  0  0  0  0  0
   35.7550   30.5660   32.6870 C   0  0  0  0  0  0  0  0  0  0  0  0
   36.1310   31.1860   31.4930 C   0  0  0  0  0  0  0  0  0  0  0  0
   36.5290   30.4590   30.3800 C   0  0  0  0  0  0  0  0  0  0  0  0
   36.5590   29.0620   30.4420 C   0  0  0  0  0  0  0  0  0  0  0  0
   36.3810   22.8250   32.0430 C   0  0  0  0  0  0  0  0  0  0  0  0
   37.2810   22.1510   32.8690 C   0  0  0  0  0  0  0  0  0  0  0  0
   37.2270   20.7960   32.8830 C   0  0  0  0  0  0  0  0  0  0  0  0
   36.2760   20.1690   32.0690 C   0  0  0  0  0  0  0  0  0  0  0  0
   35.4130   21.5780   31.2410 S   0  0  0  0  0  0  0  0  0  0  0  0
   35.9200   18.8320   31.8180 C   0  0  0  0  0  0  0  0  0  0  0  0
   35.4130   18.1350   32.6920 O   0  0  0  0  0  0  0  0  0  0  0  0
   36.1370   18.2230   30.5280 N   0  0  0  0  0  0  0  0  0  0  0  0
   34.7208   24.3313   30.4108 H   0  0  0  0  0  0  0  0  0  0  0  0
   37.8700   24.5210   33.3923 H   0  0  0  0  0  0  0  0  0  0  0  0
   35.5103   28.6608   33.6262 H   0  0  0  0  0  0  0  0  0  0  0  0
   35.4401   31.1459   33.5671 H   0  0  0  0  0  0  0  0  0  0  0  0
   36.1110   32.2842   31.4332 H   0  0  0  0  0  0  0  0  0  0  0  0
   36.8191   30.9782   29.4547 H   0  0  0  0  0  0  0  0  0  0  0  0
   36.8718   28.4736   29.5668 H   0  0  0  0  0  0  0  0  0  0  0  0
   38.0080   22.6988   33.4865 H   0  0  0  0  0  0  0  0  0  0  0  0
   37.9092   20.2078   33.5143 H   0  0  0  0  0  0  0  0  0  0  0  0
   35.8673   17.2416   30.3699 H   0  0  0  0  0  0  0  0  0  0  0  0
   36.5616   18.7697   29.7653 H   0  0  0  0  0  0  0  0  0  0  0  0
  1  2  2  0
  2 13  1  0
  2  3  1  0
  4  3  2  0
  5  4  1  0
  6  1  1  0
  6  5  2  0
  7  5  1  0
  7  8  2  0
  9  8  1  0
 10  9  2  0
 11 12  2  0
 11 10  1  0
 12  7  1  0
 13 14  2  0
 14 15  1  0
 16 15  2  0
 17 13  1  0
 17 16  1  0
 18 16  1  0
 18 19  2  0
 20 18  1  0
  1 21  1  0
  3 22  1  0
  8 23  1  0
  9 24  1  0
 10 25  1  0
 11 26  1  0
 12 27  1  0
 14 28  1  0
 15 29  1  0
 20 30  1  0
 20 31  1  0
M  ISO  8  21  14  22  14  23  14  24  14  25  14  26  14  27  14  28  14
M  ISO  1  29  14
M  END
>  <minimizedAffinity>  (1) 
-4.87631226

>  <minimizedRMSD>  (1) 
9.37528801

$$$$
