
     RDKit          3D

 41 44  0  0  0  0  0  0  0  0999 V2000
   39.6620   23.5670   34.7510 N   0  0  0  0  0  0  0  0  0  0  0  0
   40.2770   22.6320   34.0430 N   0  0  0  0  0  0  0  0  0  0  0  0
   40.5290   23.0550   32.7980 C   0  0  0  0  0  0  0  0  0  0  0  0
   40.0330   24.3440   32.7400 C   0  0  0  0  0  0  0  0  0  0  0  0
   39.4810   24.6770   33.9760 C   0  0  0  0  0  0  0  0  0  0  0  0
   37.9270   23.7040   36.4470 C   0  0  0  0  0  0  0  0  0  0  0  0
   39.2590   23.4370   36.0910 C   0  0  0  0  0  0  0  0  0  0  0  0
   40.1690   23.0470   37.0690 C   0  0  0  0  0  0  0  0  0  0  0  0
   39.6880   22.9470   38.3460 N   0  0  0  0  0  0  0  0  0  0  0  0
   38.4280   23.2010   38.6730 C   0  0  0  0  0  0  0  0  0  0  0  0
   37.5390   23.5810   37.7260 N   0  0  0  0  0  0  0  0  0  0  0  0
   38.8740   25.9240   34.2940 N   0  0  0  0  0  0  0  0  0  0  0  0
   39.5260   26.9000   35.1330 C   0  0  0  0  0  0  0  0  0  0  0  0
   40.8340   26.9940   34.9770 N   0  0  0  0  0  0  0  0  0  0  0  0
   38.7210   27.6560   36.0300 N   0  0  0  0  0  0  0  0  0  0  0  0
   41.2770   27.7140   35.5860 H   0  0  0  0  0  0  0  0  0  0  0  0
   40.1250   25.1190   31.5540 N   0  0  0  0  0  0  0  0  0  0  0  0
   41.1130   25.8260   30.9470 C   0  0  0  0  0  0  0  0  0  0  0  0
   40.5640   26.3760   29.7830 C   0  0  0  0  0  0  0  0  0  0  0  0
   39.2760   25.9930   29.7170 N   0  0  0  0  0  0  0  0  0  0  0  0
   39.0040   25.2330   30.7840 C   0  0  0  0  0  0  0  0  0  0  0  0
   37.6500   24.6710   30.9680 C   0  0  0  0  0  0  0  0  0  0  0  0
   36.4820   25.3160   31.2710 C   0  0  0  0  0  0  0  0  0  0  0  0
   35.3260   24.5920   31.3970 C   0  0  0  0  0  0  0  0  0  0  0  0
   35.2960   23.2180   31.2270 C   0  0  0  0  0  0  0  0  0  0  0  0
   36.4700   22.5350   30.9180 C   0  0  0  0  0  0  0  0  0  0  0  0
   37.6270   23.2830   30.7940 C   0  0  0  0  0  0  0  0  0  0  0  0
   41.0257   22.4952   31.9918 H   0  0  0  0  0  0  0  0  0  0  0  0
   37.2029   24.0134   35.6789 H   0  0  0  0  0  0  0  0  0  0  0  0
   41.2202   22.8304   36.8280 H   0  0  0  0  0  0  0  0  0  0  0  0
   38.1038   23.1023   39.7195 H   0  0  0  0  0  0  0  0  0  0  0  0
   37.9407   26.1364   33.9136 H   0  0  0  0  0  0  0  0  0  0  0  0
   39.1554   28.3608   36.6427 H   0  0  0  0  0  0  0  0  0  0  0  0
   37.7038   27.4985   36.0667 H   0  0  0  0  0  0  0  0  0  0  0  0
   42.1473   25.9439   31.3024 H   0  0  0  0  0  0  0  0  0  0  0  0
   41.0910   27.0080   29.0531 H   0  0  0  0  0  0  0  0  0  0  0  0
   36.4714   26.4068   31.4122 H   0  0  0  0  0  0  0  0  0  0  0  0
   34.3917   25.1188   31.6410 H   0  0  0  0  0  0  0  0  0  0  0  0
   34.3493   22.6684   31.3355 H   0  0  0  0  0  0  0  0  0  0  0  0
   36.4768   21.4440   30.7781 H   0  0  0  0  0  0  0  0  0  0  0  0
   38.5664   22.7659   30.5488 H   0  0  0  0  0  0  0  0  0  0  0  0
  1  7  1  0
  2  1  1  0
  3  2  2  0
  4  3  1  0
  4  5  2  0
  5 12  1  0
  5  1  1  0
  6 11  2  0
  7  6  1  0
  7  8  2  0
  8  9  1  0
  9 10  2  0
 11 10  1  0
 12 13  1  0
 13 15  1  0
 14 13  2  0
 14 16  1  0
 17  4  1  0
 18 17  1  0
 19 18  2  0
 20 19  1  0
 20 21  2  0
 21 22  1  0
 21 17  1  0
 22 23  2  0
 23 24  1  0
 25 24  2  0
 26 25  1  0
 27 26  2  0
 27 22  1  0
  3 28  1  0
  6 29  1  0
  8 30  1  0
 10 31  1  0
 12 32  1  0
 15 33  1  0
 15 34  1  0
 18 35  1  0
 19 36  1  0
 23 37  1  0
 24 38  1  0
 25 39  1  0
 26 40  1  0
 27 41  1  0
M  ISO  8  28  14  29  14  30  14  31  14  35  14  36  14  37  14  38  14
M  ISO  3  39  14  40  14  41  14
M  END
>  <minimizedAffinity>  (1) 
-5.64490891

>  <minimizedRMSD>  (1) 
2.53102684

$$$$
