
     RDKit          3D

 31 34  0  0  0  0  0  0  0  0999 V2000
   37.6970   24.8790   33.6850 C   0  0  0  0  0  0  0  0  0  0  0  0
   37.8810   25.3210   35.0130 C   0  0  0  0  0  0  0  0  0  0  0  0
   37.6410   26.6470   35.2930 C   0  0  0  0  0  0  0  0  0  0  0  0
   37.2400   27.4910   34.3090 N   0  0  0  0  0  0  0  0  0  0  0  0
   37.0680   27.0490   33.0380 C   0  0  0  0  0  0  0  0  0  0  0  0
   37.2940   25.7710   32.7440 N   0  0  0  0  0  0  0  0  0  0  0  0
   38.2930   24.4230   35.9850 N   0  0  0  0  0  0  0  0  0  0  0  0
   37.5210   23.9050   36.9700 C   0  0  0  0  0  0  0  0  0  0  0  0
   38.2120   23.0610   37.7510 N   0  0  0  0  0  0  0  0  0  0  0  0
   39.4700   23.0290   37.2590 C   0  0  0  0  0  0  0  0  0  0  0  0
   40.6240   22.3720   37.6100 C   0  0  0  0  0  0  0  0  0  0  0  0
   41.7860   22.4970   36.9640 N   0  0  0  0  0  0  0  0  0  0  0  0
   41.7830   23.3360   35.9020 C   0  0  0  0  0  0  0  0  0  0  0  0
   40.6650   23.9800   35.5510 N   0  0  0  0  0  0  0  0  0  0  0  0
   39.4890   23.8760   36.1750 C   0  0  0  0  0  0  0  0  0  0  0  0
   37.9210   23.5050   33.2540 C   0  0  0  0  0  0  0  0  0  0  0  0
   37.2110   22.3570   33.5060 C   0  0  0  0  0  0  0  0  0  0  0  0
   37.6290   21.1560   32.9840 C   0  0  0  0  0  0  0  0  0  0  0  0
   38.7530   21.0300   32.1990 C   0  0  0  0  0  0  0  0  0  0  0  0
   39.4820   22.1550   31.9290 C   0  0  0  0  0  0  0  0  0  0  0  0
   39.0600   23.3520   32.4530 C   0  0  0  0  0  0  0  0  0  0  0  0
   37.7747   27.0238   36.3178 H   0  0  0  0  0  0  0  0  0  0  0  0
   36.7422   27.7459   32.2517 H   0  0  0  0  0  0  0  0  0  0  0  0
   36.4574   24.1468   37.1122 H   0  0  0  0  0  0  0  0  0  0  0  0
   40.5887   21.6993   38.4796 H   0  0  0  0  0  0  0  0  0  0  0  0
   42.7062   23.4891   35.3239 H   0  0  0  0  0  0  0  0  0  0  0  0
   36.3045   22.3986   34.1278 H   0  0  0  0  0  0  0  0  0  0  0  0
   37.0384   20.2543   33.2035 H   0  0  0  0  0  0  0  0  0  0  0  0
   39.0564   20.0509   31.7998 H   0  0  0  0  0  0  0  0  0  0  0  0
   40.3868   22.1022   31.3056 H   0  0  0  0  0  0  0  0  0  0  0  0
   39.6553   24.2495   32.2291 H   0  0  0  0  0  0  0  0  0  0  0  0
  1  2  1  0
  2  3  2  0
  2  7  1  0
  4  3  1  0
  5  4  2  0
  6  5  1  0
  6  1  2  0
  7 15  1  0
  7  8  1  0
  8  9  2  0
 10 11  2  0
 10  9  1  0
 12 11  1  0
 13 12  2  0
 14 13  1  0
 14 15  2  0
 15 10  1  0
 16 17  2  0
 16  1  1  0
 18 17  1  0
 19 18  2  0
 20 19  1  0
 20 21  2  0
 21 16  1  0
  3 22  1  0
  5 23  1  0
  8 24  1  0
 11 25  1  0
 13 26  1  0
 17 27  1  0
 18 28  1  0
 19 29  1  0
 20 30  1  0
 21 31  1  0
M  ISO  8  22  14  23  14  24  14  25  14  26  14  27  14  28  14  29  14
M  ISO  2  30  14  31  14
M  END
>  <minimizedAffinity>  (1) 
-4.67195749

>  <minimizedRMSD>  (1) 
1.25632763

$$$$
