
     RDKit          3D

 36 38  0  0  1  0  0  0  0  0999 V2000
   40.1920   25.2730   35.1650 C   0  0  0  0  0  0  0  0  0  0  0  0
   38.8110   24.5720   35.1530 C   0  0  2  0  0  0  0  0  0  0  0  0
   38.0050   24.6860   36.4100 C   0  0  0  0  0  0  0  0  0  0  0  0
   38.5690   23.4280   36.0800 C   0  0  1  0  0  0  0  0  0  0  0  0
   37.5330   22.4110   35.6340 C   0  0  0  0  0  0  0  0  0  0  0  0
   37.4950   22.0620   34.2810 C   0  0  0  0  0  0  0  0  0  0  0  0
   36.5960   21.1680   33.7760 C   0  0  0  0  0  0  0  0  0  0  0  0
   35.6760   20.5630   34.6030 C   0  0  0  0  0  0  0  0  0  0  0  0
   35.6520   20.8560   35.9430 C   0  0  0  0  0  0  0  0  0  0  0  0
   36.5650   21.7550   36.4090 C   0  0  0  0  0  0  0  0  0  0  0  0
   41.1880   24.3080   34.7460 C   0  0  0  0  0  0  0  0  0  0  0  0
   44.1150   23.7210   36.6880 C   0  0  0  0  0  0  0  0  0  0  0  0
   42.8400   23.4770   36.1570 C   0  0  0  0  0  0  0  0  0  0  0  0
   42.4850   24.4900   35.3080 C   0  0  0  0  0  0  0  0  0  0  0  0
   43.3030   25.5730   35.0450 N   0  0  0  0  0  0  0  0  0  0  0  0
   44.4870   25.7200   35.5890 C   0  0  0  0  0  0  0  0  0  0  0  0
   44.8850   24.7860   36.4110 N   0  0  0  0  0  0  0  0  0  0  0  0
   42.1750   22.2980   36.5550 C   0  0  0  0  0  0  0  0  0  0  0  0
   41.1870   22.5380   37.5480 F   0  0  0  0  0  0  0  0  0  0  0  0
   42.7770   21.4040   37.3630 F   0  0  0  0  0  0  0  0  0  0  0  0
   41.1930   21.7320   35.7230 F   0  0  0  0  0  0  0  0  0  0  0  0
   40.1836   26.1261   34.4706 H   0  0  0  0  0  0  0  0  0  0  0  0
   40.4223   25.6460   36.1739 H   0  0  0  0  0  0  0  0  0  0  0  0
   38.6707   24.7465   34.0760 H   0  0  0  0  0  0  0  0  0  0  0  0
   38.4022   25.2553   37.2633 H   0  0  0  0  0  0  0  0  0  0  0  0
   36.9882   25.0356   36.6423 H   0  0  0  0  0  0  0  0  0  0  0  0
   39.2381   22.7103   36.5773 H   0  0  0  0  0  0  0  0  0  0  0  0
   38.2190   22.5267   33.5956 H   0  0  0  0  0  0  0  0  0  0  0  0
   36.6063   20.9293   32.7023 H   0  0  0  0  0  0  0  0  0  0  0  0
   34.9572   19.8416   34.1873 H   0  0  0  0  0  0  0  0  0  0  0  0
   34.9227   20.3828   36.6170 H   0  0  0  0  0  0  0  0  0  0  0  0
   36.5405   21.9856   37.4843 H   0  0  0  0  0  0  0  0  0  0  0  0
   40.8319   23.3067   35.0298 H   0  0  0  0  0  0  0  0  0  0  0  0
   41.3047   24.4423   33.6605 H   0  0  0  0  0  0  0  0  0  0  0  0
   44.5185   22.9772   37.3908 H   0  0  0  0  0  0  0  0  0  0  0  0
   45.1179   26.5922   35.3629 H   0  0  0  0  0  0  0  0  0  0  0  0
  2  1  1  0
  2  4  1  0
  2  3  1  0
  4  3  1  0
  5  4  1  0
  5 10  1  0
  6  5  2  0
  7  6  1  0
  7  8  2  0
  8  9  1  0
  9 10  2  0
 11  1  1  0
 11 14  1  0
 13 18  1  0
 13 12  2  0
 14 13  1  0
 15 14  2  0
 15 16  1  0
 16 17  2  0
 17 12  1  0
 18 20  1  0
 18 19  1  0
 21 18  1  0
  1 22  1  0
  1 23  1  0
  2 24  1  6
  3 25  1  0
  3 26  1  0
  4 27  1  1
  6 28  1  0
  7 29  1  0
  8 30  1  0
  9 31  1  0
 10 32  1  0
 11 33  1  0
 11 34  1  0
 12 35  1  0
 16 36  1  0
M  ISO  8  22   8  23   8  24  13  25  13  26  13  27  13  28  14  29  14
M  ISO  7  30  14  31  14  32  14  33   8  34   8  35  14  36  14
M  END
>  <minimizedAffinity>  (1) 
-4.63267231

>  <minimizedRMSD>  (1) 
2.11735296

$$$$
