
     RDKit          3D

 41 44  0  0  0  0  0  0  0  0999 V2000
   38.1090   20.6830   30.8890 N   0  0  0  0  0  0  0  0  0  0  0  0
   38.7830   21.5880   29.9360 C   0  0  0  0  0  0  0  0  0  0  0  0
   39.5710   20.6460   29.0930 C   0  0  0  0  0  0  0  0  0  0  0  0
   38.6010   19.9540   28.3460 O   0  0  0  0  0  0  0  0  0  0  0  0
   37.9370   19.0170   29.1370 C   0  0  0  0  0  0  0  0  0  0  0  0
   37.6550   19.3600   30.5610 C   0  0  0  0  0  0  0  0  0  0  0  0
   38.2540   22.0090   34.7070 C   0  0  0  0  0  0  0  0  0  0  0  0
   37.0190   21.6680   34.3320 C   0  0  0  0  0  0  0  0  0  0  0  0
   36.6860   21.2160   33.1660 C   0  0  0  0  0  0  0  0  0  0  0  0
   37.8400   21.1110   32.2660 C   0  0  0  0  0  0  0  0  0  0  0  0
   39.3040   21.7010   33.2490 S   0  0  0  0  0  0  0  0  0  0  0  0
   39.9880   22.7370   37.7860 C   0  0  0  0  0  0  0  0  0  0  0  0
   39.0060   23.3050   38.5960 C   0  0  0  0  0  0  0  0  0  0  0  0
   37.7360   23.4550   38.1060 C   0  0  0  0  0  0  0  0  0  0  0  0
   37.5120   23.0310   36.8300 N   0  0  0  0  0  0  0  0  0  0  0  0
   38.4720   22.4810   36.0550 C   0  0  0  0  0  0  0  0  0  0  0  0
   39.7010   22.3390   36.5360 N   0  0  0  0  0  0  0  0  0  0  0  0
   36.0330   15.9390   32.4570 C   0  0  0  0  0  0  0  0  0  0  0  0
   35.2110   17.0420   32.4380 C   0  0  0  0  0  0  0  0  0  0  0  0
   35.7970   18.1320   31.8500 C   0  0  0  0  0  0  0  0  0  0  0  0
   37.0340   18.3020   31.2890 C   0  0  0  0  0  0  0  0  0  0  0  0
   37.7810   17.1180   31.3660 C   0  0  0  0  0  0  0  0  0  0  0  0
   37.3070   15.9570   31.9330 C   0  0  0  0  0  0  0  0  0  0  0  0
   35.3300   14.4990   33.2030 S   0  0  0  0  0  0  0  0  0  0  0  0
   34.1950   14.8890   34.0930 O   0  0  0  0  0  0  0  0  0  0  0  0
   36.4280   13.8630   34.0330 O   0  0  0  0  0  0  0  0  0  0  0  0
   38.0513   22.1443   29.3317 H   0  0  0  0  0  0  0  0  0  0  0  0
   39.3992   22.3570   30.4248 H   0  0  0  0  0  0  0  0  0  0  0  0
   40.2549   21.1956   28.4295 H   0  0  0  0  0  0  0  0  0  0  0  0
   40.2003   19.9715   29.6922 H   0  0  0  0  0  0  0  0  0  0  0  0
   37.6282   18.0470   28.7203 H   0  0  0  0  0  0  0  0  0  0  0  0
   36.2172   21.7807   35.0766 H   0  0  0  0  0  0  0  0  0  0  0  0
   35.6588   20.9427   32.8830 H   0  0  0  0  0  0  0  0  0  0  0  0
   41.0094   22.6134   38.1751 H   0  0  0  0  0  0  0  0  0  0  0  0
   39.2487   23.6295   39.6186 H   0  0  0  0  0  0  0  0  0  0  0  0
   36.9334   23.8974   38.7143 H   0  0  0  0  0  0  0  0  0  0  0  0
   34.1915   17.0482   32.8510 H   0  0  0  0  0  0  0  0  0  0  0  0
   35.1610   19.0291   31.8242 H   0  0  0  0  0  0  0  0  0  0  0  0
   38.7998   17.1170   30.9513 H   0  0  0  0  0  0  0  0  0  0  0  0
   37.9368   15.0558   31.9673 H   0  0  0  0  0  0  0  0  0  0  0  0
   34.8529   13.6346   32.2533 H   0  0  0  0  0  0  0  0  0  0  0  0
  1 10  1  0
  2  1  1  0
  3  2  1  0
  4  3  1  0
  4  5  1  0
  5  6  2  0
  6  1  1  0
  6 21  1  0
  7 16  1  0
  8  7  2  0
  9  8  1  0
 10  9  2  0
 10 11  1  0
 11  7  1  0
 12 13  2  0
 14 13  1  0
 15 14  2  0
 16 17  2  0
 16 15  1  0
 17 12  1  0
 18 24  1  0
 19 18  2  0
 20 19  1  0
 21 22  1  0
 21 20  2  0
 22 23  2  0
 23 18  1  0
 24 26  2  0
 24 25  2  0
  2 27  1  0
  2 28  1  0
  3 29  1  0
  3 30  1  0
  5 31  1  0
  8 32  1  0
  9 33  1  0
 12 34  1  0
 13 35  1  0
 14 36  1  0
 19 37  1  0
 20 38  1  0
 22 39  1  0
 23 40  1  0
 24 41  1  0
M  ISO  8  27  13  28  13  29  13  30  13  31  13  32  14  33  14  34  14
M  ISO  7  35  14  36  14  37  14  38  14  39  14  40  14  41  11
M  END
>  <minimizedAffinity>  (1) 
-5.1016469

>  <minimizedRMSD>  (1) 
1.35991156

$$$$
