
     RDKit          3D

 44 47  0  0  0  0  0  0  0  0999 V2000
   39.0710   23.3860   30.6840 C   0  0  0  0  0  0  0  0  0  0  0  0
   40.0180   22.5900   30.1360 N   0  0  0  0  0  0  0  0  0  0  0  0
   39.8490   21.2840   29.8610 C   0  0  0  0  0  0  0  0  0  0  0  0
   38.6880   20.6670   30.1230 N   0  0  0  0  0  0  0  0  0  0  0  0
   37.6840   21.3910   30.6730 C   0  0  0  0  0  0  0  0  0  0  0  0
   36.5120   20.7120   30.9230 C   0  0  0  0  0  0  0  0  0  0  0  0
   35.4720   21.4040   31.4830 C   0  0  0  0  0  0  0  0  0  0  0  0
   35.6470   22.7550   31.7750 C   0  0  0  0  0  0  0  0  0  0  0  0
   36.8610   23.3580   31.4880 C   0  0  0  0  0  0  0  0  0  0  0  0
   37.9110   22.7190   30.9340 C   0  0  0  0  0  0  0  0  0  0  0  0
   39.7850   26.8060   32.0170 C   0  0  0  0  0  0  0  0  0  0  0  0
   39.4830   27.5760   30.9110 C   0  0  0  0  0  0  0  0  0  0  0  0
   39.0580   26.8870   29.7850 C   0  0  0  0  0  0  0  0  0  0  0  0
   38.9800   25.5510   29.8840 N   0  0  0  0  0  0  0  0  0  0  0  0
   39.2680   24.7990   30.9540 C   0  0  0  0  0  0  0  0  0  0  0  0
   39.6730   25.5030   32.0020 N   0  0  0  0  0  0  0  0  0  0  0  0
   38.7070   27.5510   28.5850 N   0  0  0  0  0  0  0  0  0  0  0  0
   39.5210   27.5250   27.4160 C   0  0  0  0  0  0  0  0  0  0  0  0
   39.9990   26.3290   27.1140 N   0  0  0  0  0  0  0  0  0  0  0  0
   39.7170   28.7840   26.7230 N   0  0  0  0  0  0  0  0  0  0  0  0
   40.5900   26.2600   26.2700 H   0  0  0  0  0  0  0  0  0  0  0  0
   36.1130   27.5070   32.1560 C   0  0  0  0  0  0  0  0  0  0  0  0
   35.6980   26.7980   31.0500 C   0  0  0  0  0  0  0  0  0  0  0  0
   35.9800   25.4480   30.9540 C   0  0  0  0  0  0  0  0  0  0  0  0
   36.6880   24.7230   31.9430 C   0  0  0  0  0  0  0  0  0  0  0  0
   37.0720   25.4940   33.0190 C   0  0  0  0  0  0  0  0  0  0  0  0
   36.8050   26.8360   33.1380 C   0  0  0  0  0  0  0  0  0  0  0  0
   35.8150   29.1970   32.3780 S   0  0  0  0  0  0  0  0  0  0  0  0
   36.7210   30.0580   31.5390 O   0  0  0  0  0  0  0  0  0  0  0  0
   35.8760   29.6130   33.8160 O   0  0  0  0  0  0  0  0  0  0  0  0
   40.6765   20.7134   29.4141 H   0  0  0  0  0  0  0  0  0  0  0  0
   36.4144   19.6437   30.6795 H   0  0  0  0  0  0  0  0  0  0  0  0
   34.5166   20.9031   31.6983 H   0  0  0  0  0  0  0  0  0  0  0  0
   34.8306   23.3364   32.2283 H   0  0  0  0  0  0  0  0  0  0  0  0
   40.1294   27.3025   32.9362 H   0  0  0  0  0  0  0  0  0  0  0  0
   39.5743   28.6721   30.9225 H   0  0  0  0  0  0  0  0  0  0  0  0
   37.8221   28.0773   28.5557 H   0  0  0  0  0  0  0  0  0  0  0  0
   40.2971   28.8189   25.8726 H   0  0  0  0  0  0  0  0  0  0  0  0
   39.2761   29.6432   27.0813 H   0  0  0  0  0  0  0  0  0  0  0  0
   35.1440   27.3045   30.2459 H   0  0  0  0  0  0  0  0  0  0  0  0
   35.6354   24.9073   30.0602 H   0  0  0  0  0  0  0  0  0  0  0  0
   37.6267   25.0042   33.8329 H   0  0  0  0  0  0  0  0  0  0  0  0
   37.1486   27.3812   34.0294 H   0  0  0  0  0  0  0  0  0  0  0  0
   34.5305   29.3973   31.9458 H   0  0  0  0  0  0  0  0  0  0  0  0
  1 10  1  0
  1 15  1  0
  2  1  2  0
  3  4  2  0
  3  2  1  0
  4  5  1  0
  5  6  1  0
  5 10  2  0
  6  7  2  0
  7  8  1  0
  9  8  2  0
  9 25  1  0
 10  9  1  0
 12 11  2  0
 13 14  2  0
 13 12  1  0
 14 15  1  0
 15 16  2  0
 16 11  1  0
 17 13  1  0
 18 17  1  0
 19 18  2  0
 20 18  1  0
 21 19  1  0
 22 28  1  0
 22 27  2  0
 23 22  1  0
 24 23  2  0
 24 25  1  0
 25 26  2  0
 26 27  1  0
 28 30  2  0
 29 28  2  0
  3 31  1  0
  6 32  1  0
  7 33  1  0
  8 34  1  0
 11 35  1  0
 12 36  1  0
 17 37  1  0
 20 38  1  0
 20 39  1  0
 23 40  1  0
 24 41  1  0
 26 42  1  0
 27 43  1  0
 28 44  1  0
M  ISO  8  31  14  32  14  33  14  34  14  35  14  36  14  40  14  41  14
M  ISO  3  42  14  43  14  44  11
M  END
>  <minimizedAffinity>  (1) 
-5.79890585

>  <minimizedRMSD>  (1) 
6.11933947

$$$$
