
     RDKit          3D

 29 31  0  0  0  0  0  0  0  0999 V2000
   37.8120   23.4000   36.3960 C   0  0  0  0  0  0  0  0  0  0  0  0
   39.1470   23.0960   36.0480 C   0  0  0  0  0  0  0  0  0  0  0  0
   40.0820   22.9330   37.0530 C   0  0  0  0  0  0  0  0  0  0  0  0
   39.6820   23.0730   38.3500 N   0  0  0  0  0  0  0  0  0  0  0  0
   38.4100   23.3610   38.6620 C   0  0  0  0  0  0  0  0  0  0  0  0
   37.4770   23.5250   37.6880 N   0  0  0  0  0  0  0  0  0  0  0  0
   39.4120   22.9960   34.6580 N   0  0  0  0  0  0  0  0  0  0  0  0
   39.8390   23.9430   33.7540 C   0  0  0  0  0  0  0  0  0  0  0  0
   39.9370   23.3340   32.5370 N   0  0  0  0  0  0  0  0  0  0  0  0
   39.5740   22.0400   32.7050 C   0  0  0  0  0  0  0  0  0  0  0  0
   39.2490   21.8320   34.0230 N   0  0  0  0  0  0  0  0  0  0  0  0
   43.9880   21.5410   36.1460 C   0  0  0  0  0  0  0  0  0  0  0  0
   43.7190   22.8840   36.0070 C   0  0  0  0  0  0  0  0  0  0  0  0
   42.4790   23.4210   36.2780 C   0  0  0  0  0  0  0  0  0  0  0  0
   41.4380   22.6240   36.7070 C   0  0  0  0  0  0  0  0  0  0  0  0
   41.6990   21.2560   36.8510 C   0  0  0  0  0  0  0  0  0  0  0  0
   42.9640   20.7270   36.5710 C   0  0  0  0  0  0  0  0  0  0  0  0
   45.5760   20.9310   35.7870 S   0  0  0  0  0  0  0  0  0  0  0  0
   46.6010   21.9390   36.2210 O   0  0  0  0  0  0  0  0  0  0  0  0
   45.7480   20.6000   34.3200 O   0  0  0  0  0  0  0  0  0  0  0  0
   37.0522   23.5333   35.6118 H   0  0  0  0  0  0  0  0  0  0  0  0
   38.1189   23.4656   39.7176 H   0  0  0  0  0  0  0  0  0  0  0  0
   40.0606   24.9979   33.9731 H   0  0  0  0  0  0  0  0  0  0  0  0
   39.5443   21.2777   31.9126 H   0  0  0  0  0  0  0  0  0  0  0  0
   44.5233   23.5530   35.6672 H   0  0  0  0  0  0  0  0  0  0  0  0
   42.3169   24.5015   36.1503 H   0  0  0  0  0  0  0  0  0  0  0  0
   40.8957   20.5853   37.1901 H   0  0  0  0  0  0  0  0  0  0  0  0
   43.1413   19.6482   36.6922 H   0  0  0  0  0  0  0  0  0  0  0  0
   45.7468   19.7600   36.4773 H   0  0  0  0  0  0  0  0  0  0  0  0
  1  6  2  0
  2  1  1  0
  2  3  2  0
  3  4  1  0
  4  5  2  0
  6  5  1  0
  7  2  1  0
  8  7  1  0
  9 10  1  0
  9  8  2  0
 10 11  2  0
 11  7  1  0
 12 17  2  0
 13 12  1  0
 13 14  2  0
 14 15  1  0
 15 16  2  0
 15  3  1  0
 17 16  1  0
 18 12  1  0
 18 19  2  0
 20 18  2  0
  1 21  1  0
  5 22  1  0
  8 23  1  0
 10 24  1  0
 13 25  1  0
 14 26  1  0
 16 27  1  0
 17 28  1  0
 18 29  1  0
M  ISO  8  21  14  22  14  23  14  24  14  25  14  26  14  27  14  28  14
M  ISO  1  29  11
M  END
>  <minimizedAffinity>  (1) 
-4.14936209

>  <minimizedRMSD>  (1) 
3.48197794

$$$$
