
     RDKit          3D

 43 46  0  0  0  0  0  0  0  0999 V2000
   36.3920   28.1960   33.6240 C   0  0  0  0  0  0  0  0  0  0  0  0
   35.5200   28.8610   34.4660 C   0  0  0  0  0  0  0  0  0  0  0  0
   34.7200   29.7890   33.8810 C   0  0  0  0  0  0  0  0  0  0  0  0
   34.8190   30.0110   32.5250 C   0  0  0  0  0  0  0  0  0  0  0  0
   36.1480   28.8200   31.9940 S   0  0  0  0  0  0  0  0  0  0  0  0
   37.5160   25.9390   33.3840 C   0  0  0  0  0  0  0  0  0  0  0  0
   37.3310   27.1640   34.0550 C   0  0  0  0  0  0  0  0  0  0  0  0
   38.0560   27.4560   35.1990 C   0  0  0  0  0  0  0  0  0  0  0  0
   38.9240   26.4930   35.5980 N   0  0  0  0  0  0  0  0  0  0  0  0
   39.1010   25.3110   34.9500 C   0  0  0  0  0  0  0  0  0  0  0  0
   38.3850   25.0610   33.8480 N   0  0  0  0  0  0  0  0  0  0  0  0
   40.0800   24.3780   35.5030 C   0  0  0  0  0  0  0  0  0  0  0  0
   41.3400   24.4800   35.0270 C   0  0  0  0  0  0  0  0  0  0  0  0
   42.2880   23.1570   35.9530 S   0  0  0  0  0  0  0  0  0  0  0  0
   40.6620   22.6920   36.8740 C   0  0  0  0  0  0  0  0  0  0  0  0
   39.9960   23.4400   36.3890 N   0  0  0  0  0  0  0  0  0  0  0  0
   40.5740   21.6640   37.8500 N   0  0  0  0  0  0  0  0  0  0  0  0
   33.7580   30.5330   34.6660 N   0  0  0  0  0  0  0  0  0  0  0  0
   33.8290   31.8560   35.2510 C   0  0  0  0  0  0  0  0  0  0  0  0
   32.7020   32.7050   34.6600 C   0  0  0  0  0  0  0  0  0  0  0  0
   31.5320   31.8930   34.5490 N   0  0  0  0  0  0  0  0  0  0  0  0
   31.5060   30.7240   35.3740 C   0  0  0  0  0  0  0  0  0  0  0  0
   32.5590   29.7400   34.8460 C   0  0  0  0  0  0  0  0  0  0  0  0
   34.1980   30.8650   31.5930 C   0  0  0  0  0  0  0  0  0  0  0  0
   34.8660   31.5550   30.8100 O   0  0  0  0  0  0  0  0  0  0  0  0
   32.7730   30.9710   31.5120 N   0  0  0  0  0  0  0  0  0  0  0  0
   35.4770   28.6509   35.5449 H   0  0  0  0  0  0  0  0  0  0  0  0
   36.9375   25.7150   32.4756 H   0  0  0  0  0  0  0  0  0  0  0  0
   37.9360   28.4030   35.7457 H   0  0  0  0  0  0  0  0  0  0  0  0
   41.7217   25.1799   34.2691 H   0  0  0  0  0  0  0  0  0  0  0  0
   39.6731   21.4638   38.3073 H   0  0  0  0  0  0  0  0  0  0  0  0
   41.4111   21.1187   38.1005 H   0  0  0  0  0  0  0  0  0  0  0  0
   33.7092   31.7868   36.3423 H   0  0  0  0  0  0  0  0  0  0  0  0
   34.8040   32.3153   35.0310 H   0  0  0  0  0  0  0  0  0  0  0  0
   32.4979   33.5614   35.3195 H   0  0  0  0  0  0  0  0  0  0  0  0
   32.9944   33.0815   33.6687 H   0  0  0  0  0  0  0  0  0  0  0  0
   30.7189   32.4741   34.7983 H   0  0  0  0  0  0  0  0  0  0  0  0
   31.7397   30.9969   36.4137 H   0  0  0  0  0  0  0  0  0  0  0  0
   30.5079   30.2625   35.3472 H   0  0  0  0  0  0  0  0  0  0  0  0
   32.2359   29.3052   33.8886 H   0  0  0  0  0  0  0  0  0  0  0  0
   32.7204   28.8987   35.5360 H   0  0  0  0  0  0  0  0  0  0  0  0
   32.3420   31.6026   30.8220 H   0  0  0  0  0  0  0  0  0  0  0  0
   32.1785   30.4157   32.1437 H   0  0  0  0  0  0  0  0  0  0  0  0
  1  7  1  0
  1  2  2  0
  3  2  1  0
  3 18  1  0
  4  3  2  0
  5  4  1  0
  5  1  1  0
  6 11  2  0
  6  7  1  0
  7  8  2  0
  8  9  1  0
 10 12  1  0
 10  9  2  0
 11 10  1  0
 12 16  1  0
 13 12  2  0
 13 14  1  0
 14 15  1  0
 15 17  1  0
 16 15  2  0
 18 23  1  0
 18 19  1  0
 20 19  1  0
 21 20  1  0
 21 22  1  0
 23 22  1  0
 24  4  1  0
 25 24  2  0
 26 24  1  0
  2 27  1  0
  6 28  1  0
  8 29  1  0
 13 30  1  0
 17 31  1  0
 17 32  1  0
 19 33  1  0
 19 34  1  0
 20 35  1  0
 20 36  1  0
 21 37  1  0
 22 38  1  0
 22 39  1  0
 23 40  1  0
 23 41  1  0
 26 42  1  0
 26 43  1  0
M  ISO  8  27  14  28  14  29  14  30  14  33  13  34  13  35  13  36  13
M  ISO  5  37   5  38  13  39  13  40  13  41  13
M  END
>  <minimizedAffinity>  (1) 
-5.4407053

>  <minimizedRMSD>  (1) 
4.13448954

$$$$
