
     RDKit          3D

 42 46  0  0  0  0  0  0  0  0999 V2000
   37.8220   26.1150   35.9410 C   0  0  0  0  0  0  0  0  0  0  0  0
   38.4550   26.9470   36.6170 O   0  0  0  0  0  0  0  0  0  0  0  0
   37.3370   26.4740   34.5970 C   0  0  0  0  0  0  0  0  0  0  0  0
   37.4780   25.5540   33.5770 C   0  0  0  0  0  0  0  0  0  0  0  0
   37.0160   25.9010   32.3040 C   0  0  0  0  0  0  0  0  0  0  0  0
   36.4630   27.1180   32.1630 N   0  0  0  0  0  0  0  0  0  0  0  0
   36.3350   27.9930   33.1590 C   0  0  0  0  0  0  0  0  0  0  0  0
   36.7670   27.6990   34.4050 N   0  0  0  0  0  0  0  0  0  0  0  0
   35.7250   29.3120   32.9630 C   0  0  0  0  0  0  0  0  0  0  0  0
   35.1410   29.8300   31.8250 C   0  0  0  0  0  0  0  0  0  0  0  0
   34.7210   31.0730   32.1210 N   0  0  0  0  0  0  0  0  0  0  0  0
   34.9960   31.4070   33.3940 C   0  0  0  0  0  0  0  0  0  0  0  0
   34.7790   32.5310   34.1650 C   0  0  0  0  0  0  0  0  0  0  0  0
   35.1790   32.5990   35.4830 C   0  0  0  0  0  0  0  0  0  0  0  0
   35.8160   31.5040   36.0460 C   0  0  0  0  0  0  0  0  0  0  0  0
   36.0250   30.3870   35.2640 C   0  0  0  0  0  0  0  0  0  0  0  0
   35.6370   30.2930   33.9470 C   0  0  0  0  0  0  0  0  0  0  0  0
   37.5630   24.8510   36.4330 O   0  0  0  0  0  0  0  0  0  0  0  0
   39.6480   22.6380   38.2250 N   0  0  0  0  0  0  0  0  0  0  0  0
   38.5620   23.3940   38.0640 N   0  0  0  0  0  0  0  0  0  0  0  0
   38.6100   23.9910   36.8440 C   0  0  0  0  0  0  0  0  0  0  0  0
   39.7650   23.6060   36.2000 C   0  0  0  0  0  0  0  0  0  0  0  0
   40.3810   22.7630   37.0960 C   0  0  0  0  0  0  0  0  0  0  0  0
   41.6770   22.0920   36.8380 C   0  0  0  0  0  0  0  0  0  0  0  0
   42.6830   22.8000   36.2170 C   0  0  0  0  0  0  0  0  0  0  0  0
   43.8490   22.0900   36.0220 C   0  0  0  0  0  0  0  0  0  0  0  0
   44.0630   20.8150   36.3780 N   0  0  0  0  0  0  0  0  0  0  0  0
   43.0380   20.1550   36.9910 C   0  0  0  0  0  0  0  0  0  0  0  0
   41.8810   20.8210   37.1970 N   0  0  0  0  0  0  0  0  0  0  0  0
   37.9417   24.5737   33.7613 H   0  0  0  0  0  0  0  0  0  0  0  0
   37.1014   25.2078   31.4542 H   0  0  0  0  0  0  0  0  0  0  0  0
   35.0381   29.3207   30.8555 H   0  0  0  0  0  0  0  0  0  0  0  0
   34.2452   31.6951   31.4520 H   0  0  0  0  0  0  0  0  0  0  0  0
   34.2724   33.3976   33.7152 H   0  0  0  0  0  0  0  0  0  0  0  0
   34.9958   33.5064   36.0773 H   0  0  0  0  0  0  0  0  0  0  0  0
   36.1479   31.5254   37.0945 H   0  0  0  0  0  0  0  0  0  0  0  0
   36.5305   29.5224   35.7189 H   0  0  0  0  0  0  0  0  0  0  0  0
   39.8833   22.0685   39.0503 H   0  0  0  0  0  0  0  0  0  0  0  0
   40.1142   23.9037   35.2003 H   0  0  0  0  0  0  0  0  0  0  0  0
   42.5654   23.8474   35.9021 H   0  0  0  0  0  0  0  0  0  0  0  0
   44.6791   22.6176   35.5296 H   0  0  0  0  0  0  0  0  0  0  0  0
   43.1509   19.1081   37.3091 H   0  0  0  0  0  0  0  0  0  0  0  0
  1 18  1  0
  1  2  2  0
  3  1  1  0
  4  3  2  0
  5  4  1  0
  6  5  2  0
  6  7  1  0
  7  8  2  0
  8  3  1  0
  9  7  1  0
  9 17  1  0
 10 11  1  0
 10  9  2  0
 11 12  1  0
 12 17  2  0
 12 13  1  0
 13 14  2  0
 14 15  1  0
 16 15  2  0
 17 16  1  0
 18 21  1  0
 20 19  1  0
 21 20  2  0
 22 21  1  0
 22 23  2  0
 23 19  1  0
 24 23  1  0
 24 29  1  0
 25 24  2  0
 26 25  1  0
 26 27  2  0
 27 28  1  0
 28 29  2  0
  4 30  1  0
  5 31  1  0
 10 32  1  0
 11 33  1  0
 13 34  1  0
 14 35  1  0
 15 36  1  0
 16 37  1  0
 19 38  1  0
 22 39  1  0
 25 40  1  0
 26 41  1  0
 28 42  1  0
M  ISO  8  30  14  31  14  32  14  33   9  34  14  35  14  36  14  37  14
M  ISO  5  38   9  39  14  40  14  41  14  42  14
M  END
>  <minimizedAffinity>  (1) 
-6.69319391

>  <minimizedRMSD>  (1) 
0.15014638

$$$$
