
     RDKit          3D

 43 47  0  0  0  0  0  0  0  0999 V2000
   36.5790   27.9700   33.8360 C   0  0  0  0  0  0  0  0  0  0  0  0
   36.0610   28.8740   34.7550 C   0  0  0  0  0  0  0  0  0  0  0  0
   35.1970   29.7810   34.2560 C   0  0  0  0  0  0  0  0  0  0  0  0
   34.8820   29.7650   32.9130 C   0  0  0  0  0  0  0  0  0  0  0  0
   35.8890   28.3450   32.2690 S   0  0  0  0  0  0  0  0  0  0  0  0
   34.5100   30.8460   35.0140 C   0  0  0  0  0  0  0  0  0  0  0  0
   33.2870   30.9240   35.6010 C   0  0  0  0  0  0  0  0  0  0  0  0
   33.1650   32.1540   36.1720 N   0  0  0  0  0  0  0  0  0  0  0  0
   34.2970   32.8380   35.9450 C   0  0  0  0  0  0  0  0  0  0  0  0
   34.5660   34.1180   36.3580 C   0  0  0  0  0  0  0  0  0  0  0  0
   35.8060   34.6470   36.0170 C   0  0  0  0  0  0  0  0  0  0  0  0
   36.7030   33.8880   35.2920 C   0  0  0  0  0  0  0  0  0  0  0  0
   36.3770   32.6050   34.9030 C   0  0  0  0  0  0  0  0  0  0  0  0
   35.1550   32.0490   35.2240 C   0  0  0  0  0  0  0  0  0  0  0  0
   37.5570   26.2090   35.3720 C   0  0  0  0  0  0  0  0  0  0  0  0
   37.5330   26.9220   34.1760 C   0  0  0  0  0  0  0  0  0  0  0  0
   38.4880   26.6540   33.1780 C   0  0  0  0  0  0  0  0  0  0  0  0
   39.3920   25.6810   33.4800 N   0  0  0  0  0  0  0  0  0  0  0  0
   39.3950   25.0000   34.6560 C   0  0  0  0  0  0  0  0  0  0  0  0
   38.4720   25.2800   35.5830 N   0  0  0  0  0  0  0  0  0  0  0  0
   40.4390   23.9820   34.8350 C   0  0  0  0  0  0  0  0  0  0  0  0
   40.3020   22.8500   34.1110 C   0  0  0  0  0  0  0  0  0  0  0  0
   41.7970   21.8370   34.6170 S   0  0  0  0  0  0  0  0  0  0  0  0
   42.3370   23.2450   35.7830 C   0  0  0  0  0  0  0  0  0  0  0  0
   41.4990   23.9510   35.5750 N   0  0  0  0  0  0  0  0  0  0  0  0
   43.5000   23.1810   36.5850 N   0  0  0  0  0  0  0  0  0  0  0  0
   34.0460   30.5150   32.0520 C   0  0  0  0  0  0  0  0  0  0  0  0
   32.8390   30.3170   32.0040 O   0  0  0  0  0  0  0  0  0  0  0  0
   34.6170   31.5430   31.2040 N   0  0  0  0  0  0  0  0  0  0  0  0
   36.3375   28.8513   35.8195 H   0  0  0  0  0  0  0  0  0  0  0  0
   32.5261   30.1297   35.6128 H   0  0  0  0  0  0  0  0  0  0  0  0
   32.3445   32.5002   36.6895 H   0  0  0  0  0  0  0  0  0  0  0  0
   33.8324   34.7010   36.9342 H   0  0  0  0  0  0  0  0  0  0  0  0
   36.0720   35.6691   36.3245 H   0  0  0  0  0  0  0  0  0  0  0  0
   37.6832   34.3086   35.0230 H   0  0  0  0  0  0  0  0  0  0  0  0
   37.1042   32.0144   34.3265 H   0  0  0  0  0  0  0  0  0  0  0  0
   36.8070   26.4214   36.1482 H   0  0  0  0  0  0  0  0  0  0  0  0
   38.5034   27.1934   32.2195 H   0  0  0  0  0  0  0  0  0  0  0  0
   39.5069   22.5864   33.3980 H   0  0  0  0  0  0  0  0  0  0  0  0
   43.7466   23.9707   37.1985 H   0  0  0  0  0  0  0  0  0  0  0  0
   44.1004   22.3446   36.5556 H   0  0  0  0  0  0  0  0  0  0  0  0
   34.0095   32.0895   30.5769 H   0  0  0  0  0  0  0  0  0  0  0  0
   35.6302   31.7268   31.2286 H   0  0  0  0  0  0  0  0  0  0  0  0
  1 16  1  0
  1  2  2  0
  3  2  1  0
  3  6  1  0
  4  3  2  0
  5  4  1  0
  5  1  1  0
  6 14  1  0
  6  7  2  0
  7  8  1  0
  9  8  1  0
  9 10  2  0
 11 10  1  0
 12 11  2  0
 13 14  2  0
 13 12  1  0
 14  9  1  0
 15 20  2  0
 16 15  1  0
 17 18  1  0
 17 16  2  0
 18 19  2  0
 19 21  1  0
 19 20  1  0
 21 25  1  0
 22 23  1  0
 22 21  2  0
 23 24  1  0
 24 26  1  0
 25 24  2  0
 27  4  1  0
 28 27  2  0
 29 27  1  0
  2 30  1  0
  7 31  1  0
  8 32  1  0
 10 33  1  0
 11 34  1  0
 12 35  1  0
 13 36  1  0
 15 37  1  0
 17 38  1  0
 22 39  1  0
 26 40  1  0
 26 41  1  0
 29 42  1  0
 29 43  1  0
M  ISO  8  30  14  31  14  32   9  33  14  34  14  35  14  36  14  37  14
M  ISO  2  38  14  39  14
M  END
>  <minimizedAffinity>  (1) 
-5.43181133

>  <minimizedRMSD>  (1) 
3.75550461

$$$$
