
     RDKit          3D

 39 43  0  0  0  0  0  0  0  0999 V2000
   43.5950   19.7630   36.9720 C   0  0  0  0  0  0  0  0  0  0  0  0
   42.5090   20.6040   37.2390 C   0  0  0  0  0  0  0  0  0  0  0  0
   41.8680   21.2130   36.1710 C   0  0  0  0  0  0  0  0  0  0  0  0
   42.3430   20.9510   34.9100 N   0  0  0  0  0  0  0  0  0  0  0  0
   43.3760   20.1470   34.6830 C   0  0  0  0  0  0  0  0  0  0  0  0
   44.0120   19.5440   35.7320 N   0  0  0  0  0  0  0  0  0  0  0  0
   43.8520   19.9020   33.3050 C   0  0  0  0  0  0  0  0  0  0  0  0
   45.2100   19.9690   32.9410 C   0  0  0  0  0  0  0  0  0  0  0  0
   45.5300   19.7250   31.6470 C   0  0  0  0  0  0  0  0  0  0  0  0
   44.5770   19.4190   30.7000 C   0  0  0  0  0  0  0  0  0  0  0  0
   43.0600   19.4840   31.7490 S   0  0  0  0  0  0  0  0  0  0  0  0
   44.4250   19.1100   29.3350 C   0  0  0  0  0  0  0  0  0  0  0  0
   44.8180   17.9210   28.7270 C   0  0  0  0  0  0  0  0  0  0  0  0
   44.5170   17.9780   27.4190 N   0  0  0  0  0  0  0  0  0  0  0  0
   43.9380   19.1420   27.1000 C   0  0  0  0  0  0  0  0  0  0  0  0
   43.4650   19.6460   25.9070 C   0  0  0  0  0  0  0  0  0  0  0  0
   42.9130   20.9090   25.9170 C   0  0  0  0  0  0  0  0  0  0  0  0
   42.8560   21.6090   27.1010 C   0  0  0  0  0  0  0  0  0  0  0  0
   43.3390   21.0730   28.2750 C   0  0  0  0  0  0  0  0  0  0  0  0
   43.8950   19.8160   28.2990 C   0  0  0  0  0  0  0  0  0  0  0  0
   40.7220   22.1150   36.3410 C   0  0  0  0  0  0  0  0  0  0  0  0
   39.9450   22.8440   35.5130 N   0  0  0  0  0  0  0  0  0  0  0  0
   39.0480   23.4780   36.2120 O   0  0  0  0  0  0  0  0  0  0  0  0
   39.2090   23.1870   37.5030 C   0  0  0  0  0  0  0  0  0  0  0  0
   40.2360   22.3510   37.5740 N   0  0  0  0  0  0  0  0  0  0  0  0
   38.4080   23.6910   38.6320 C   0  0  0  0  0  0  0  0  0  0  0  0
   39.2560   23.8910   39.7330 F   0  0  0  0  0  0  0  0  0  0  0  0
   37.4220   22.8120   38.9870 F   0  0  0  0  0  0  0  0  0  0  0  0
   37.8890   24.9480   38.3300 F   0  0  0  0  0  0  0  0  0  0  0  0
   44.1143   19.2728   37.8087 H   0  0  0  0  0  0  0  0  0  0  0  0
   42.1719   20.7778   38.2715 H   0  0  0  0  0  0  0  0  0  0  0  0
   45.9857   20.2114   33.6823 H   0  0  0  0  0  0  0  0  0  0  0  0
   46.5859   19.7728   31.3424 H   0  0  0  0  0  0  0  0  0  0  0  0
   45.2977   17.0717   29.2356 H   0  0  0  0  0  0  0  0  0  0  0  0
   44.7077   17.2215   26.7465 H   0  0  0  0  0  0  0  0  0  0  0  0
   43.5261   19.0598   24.9782 H   0  0  0  0  0  0  0  0  0  0  0  0
   42.5224   21.3526   24.9893 H   0  0  0  0  0  0  0  0  0  0  0  0
   42.4158   22.6170   27.1101 H   0  0  0  0  0  0  0  0  0  0  0  0
   43.2789   21.6582   29.2045 H   0  0  0  0  0  0  0  0  0  0  0  0
  1  2  2  0
  3 21  1  0
  3  2  1  0
  4  3  2  0
  5  4  1  0
  5  6  2  0
  6  1  1  0
  7  5  1  0
  8  7  2  0
  9  8  1  0
 10  9  2  0
 10 11  1  0
 11  7  1  0
 12 10  1  0
 13 12  2  0
 14 13  1  0
 15 14  1  0
 15 20  2  0
 16 17  2  0
 16 15  1  0
 17 18  1  0
 18 19  2  0
 19 20  1  0
 20 12  1  0
 21 25  1  0
 22 23  1  0
 22 21  2  0
 23 24  1  0
 24 25  2  0
 24 26  1  0
 26 28  1  0
 26 27  1  0
 29 26  1  0
  1 30  1  0
  2 31  1  0
  8 32  1  0
  9 33  1  0
 13 34  1  0
 14 35  1  0
 16 36  1  0
 17 37  1  0
 18 38  1  0
 19 39  1  0
M  ISO  8  30  14  31  14  32  14  33  14  34  14  35   9  36  14  37  14
M  ISO  2  38  14  39  14
M  END
>  <minimizedAffinity>  (1) 
-3.90710044

>  <minimizedRMSD>  (1) 
1.16839707

$$$$
