
     RDKit          3D

 43 47  0  0  0  0  0  0  0  0999 V2000
   39.1120   24.1580   35.1660 C   0  0  0  0  0  0  0  0  0  0  0  0
   40.0240   25.1730   34.9310 C   0  0  0  0  0  0  0  0  0  0  0  0
   40.2420   25.6090   33.6300 C   0  0  0  0  0  0  0  0  0  0  0  0
   39.5590   25.0430   32.5610 C   0  0  0  0  0  0  0  0  0  0  0  0
   38.6600   24.0350   32.8450 C   0  0  0  0  0  0  0  0  0  0  0  0
   38.4160   23.5730   34.1310 C   0  0  0  0  0  0  0  0  0  0  0  0
   37.4640   22.5070   34.4280 C   0  0  0  0  0  0  0  0  0  0  0  0
   37.1220   22.0850   35.6980 C   0  0  0  0  0  0  0  0  0  0  0  0
   36.2400   21.0960   35.9950 C   0  0  0  0  0  0  0  0  0  0  0  0
   35.6160   20.4370   34.9680 C   0  0  0  0  0  0  0  0  0  0  0  0
   35.9040   20.8000   33.6700 C   0  0  0  0  0  0  0  0  0  0  0  0
   35.2880   20.1500   32.6200 C   0  0  0  0  0  0  0  0  0  0  0  0
   35.5160   20.4480   31.3150 C   0  0  0  0  0  0  0  0  0  0  0  0
   36.4180   21.4580   31.0500 C   0  0  0  0  0  0  0  0  0  0  0  0
   37.0340   22.1070   32.1000 C   0  0  0  0  0  0  0  0  0  0  0  0
   36.8080   21.8110   33.4200 C   0  0  0  0  0  0  0  0  0  0  0  0
   39.6920   22.8600   37.3090 C   0  0  0  0  0  0  0  0  0  0  0  0
   38.9700   23.7870   36.5570 C   0  0  0  0  0  0  0  0  0  0  0  0
   38.0710   24.2900   37.4390 N   0  0  0  0  0  0  0  0  0  0  0  0
   38.2510   23.6990   38.6280 C   0  0  0  0  0  0  0  0  0  0  0  0
   39.2250   22.8260   38.5850 N   0  0  0  0  0  0  0  0  0  0  0  0
   42.6150   20.5660   37.1070 C   0  0  0  0  0  0  0  0  0  0  0  0
   41.5790   21.3240   37.6570 C   0  0  0  0  0  0  0  0  0  0  0  0
   40.7960   22.0440   36.7790 C   0  0  0  0  0  0  0  0  0  0  0  0
   41.0650   21.9840   35.4320 N   0  0  0  0  0  0  0  0  0  0  0  0
   42.0920   21.2240   34.9580 C   0  0  0  0  0  0  0  0  0  0  0  0
   42.8600   20.5220   35.7930 N   0  0  0  0  0  0  0  0  0  0  0  0
   40.5717   25.6307   35.7680 H   0  0  0  0  0  0  0  0  0  0  0  0
   40.9669   26.4151   33.4435 H   0  0  0  0  0  0  0  0  0  0  0  0
   39.7279   25.3846   31.5291 H   0  0  0  0  0  0  0  0  0  0  0  0
   38.1097   23.5750   32.0110 H   0  0  0  0  0  0  0  0  0  0  0  0
   37.6069   22.5950   36.5434 H   0  0  0  0  0  0  0  0  0  0  0  0
   36.0302   20.8286   37.0412 H   0  0  0  0  0  0  0  0  0  0  0  0
   34.8968   19.6312   35.1764 H   0  0  0  0  0  0  0  0  0  0  0  0
   34.5734   19.3468   32.8529 H   0  0  0  0  0  0  0  0  0  0  0  0
   35.0042   19.9080   30.5048 H   0  0  0  0  0  0  0  0  0  0  0  0
   36.6437   21.7429   30.0118 H   0  0  0  0  0  0  0  0  0  0  0  0
   37.7487   22.9094   31.8646 H   0  0  0  0  0  0  0  0  0  0  0  0
   37.6556   23.9196   39.5263 H   0  0  0  0  0  0  0  0  0  0  0  0
   39.5665   22.2361   39.3572 H   0  0  0  0  0  0  0  0  0  0  0  0
   43.2561   19.9808   37.7827 H   0  0  0  0  0  0  0  0  0  0  0  0
   41.3957   21.3458   38.7414 H   0  0  0  0  0  0  0  0  0  0  0  0
   42.2897   21.1890   33.8765 H   0  0  0  0  0  0  0  0  0  0  0  0
  1 18  1  0
  2  1  2  0
  3  2  1  0
  4  5  1  0
  4  3  2  0
  5  6  2  0
  6  7  1  0
  6  1  1  0
  7  8  2  0
  8  9  1  0
 10  9  2  0
 11 10  1  0
 12 11  2  0
 13 12  1  0
 14 13  2  0
 14 15  1  0
 15 16  2  0
 16 11  1  0
 16  7  1  0
 17 21  1  0
 18 17  2  0
 18 19  1  0
 19 20  2  0
 21 20  1  0
 22 23  2  0
 24 17  1  0
 24 23  1  0
 25 24  2  0
 26 25  1  0
 26 27  2  0
 27 22  1  0
  2 28  1  0
  3 29  1  0
  4 30  1  0
  5 31  1  0
  8 32  1  0
  9 33  1  0
 10 34  1  0
 12 35  1  0
 13 36  1  0
 14 37  1  0
 15 38  1  0
 20 39  1  0
 21 40  1  0
 22 41  1  0
 23 42  1  0
 26 43  1  0
M  ISO  8  28  14  29  14  30  14  31  14  32  14  33  14  34  14  35  14
M  ISO  8  36  14  37  14  38  14  39  14  40   9  41  14  42  14  43  14
M  END
>  <minimizedAffinity>  (1) 
-6.85466194

>  <minimizedRMSD>  (1) 
1.31788445

$$$$
