
     RDKit          3D

 48 52  0  0  1  0  0  0  0  0999 V2000
   38.3140   25.3440   33.9760 N   0  0  0  0  0  0  0  0  0  0  0  0
   39.7150   25.7700   33.7780 C   0  0  0  0  0  0  0  0  0  0  0  0
   40.0780   26.4010   35.1060 C   0  0  0  0  0  0  0  0  0  0  0  0
   38.7740   26.8910   35.7120 C   0  0  0  0  0  0  0  0  0  0  0  0
   37.7260   26.4420   34.6850 C   0  0  1  0  0  0  0  0  0  0  0  0
   37.7780   22.9710   34.3970 C   0  0  0  0  0  0  0  0  0  0  0  0
   37.2980   21.7400   34.0110 C   0  0  0  0  0  0  0  0  0  0  0  0
   36.8200   21.5760   32.7210 C   0  0  0  0  0  0  0  0  0  0  0  0
   36.8330   22.6460   31.8500 C   0  0  0  0  0  0  0  0  0  0  0  0
   37.3190   23.8580   32.2670 C   0  0  0  0  0  0  0  0  0  0  0  0
   37.8050   24.0750   33.5340 C   0  0  0  0  0  0  0  0  0  0  0  0
   40.0480   22.8080   37.2730 C   0  0  0  0  0  0  0  0  0  0  0  0
   39.2830   23.2750   38.3360 C   0  0  0  0  0  0  0  0  0  0  0  0
   37.9690   23.6500   38.0620 C   0  0  0  0  0  0  0  0  0  0  0  0
   37.5130   23.5430   36.7940 N   0  0  0  0  0  0  0  0  0  0  0  0
   38.2750   23.0880   35.7830 C   0  0  0  0  0  0  0  0  0  0  0  0
   39.5420   22.7240   36.0400 N   0  0  0  0  0  0  0  0  0  0  0  0
   37.1340   27.5280   33.9370 C   0  0  0  0  0  0  0  0  0  0  0  0
   36.1850   28.3890   34.4380 C   0  0  0  0  0  0  0  0  0  0  0  0
   35.5640   29.4120   33.7520 C   0  0  0  0  0  0  0  0  0  0  0  0
   35.8970   29.6320   32.4270 C   0  0  0  0  0  0  0  0  0  0  0  0
   36.8410   28.8100   31.8510 C   0  0  0  0  0  0  0  0  0  0  0  0
   37.1570   29.0540   30.5340 C   0  0  0  0  0  0  0  0  0  0  0  0
   38.0920   28.2850   29.8860 C   0  0  0  0  0  0  0  0  0  0  0  0
   38.6920   27.2700   30.6070 C   0  0  0  0  0  0  0  0  0  0  0  0
   38.3460   27.0610   31.9240 C   0  0  0  0  0  0  0  0  0  0  0  0
   37.4140   27.8100   32.6060 C   0  0  0  0  0  0  0  0  0  0  0  0
   40.3623   24.9074   33.5615 H   0  0  0  0  0  0  0  0  0  0  0  0
   39.8404   26.4556   32.9270 H   0  0  0  0  0  0  0  0  0  0  0  0
   40.5495   25.6575   35.7654 H   0  0  0  0  0  0  0  0  0  0  0  0
   40.7947   27.2253   34.9759 H   0  0  0  0  0  0  0  0  0  0  0  0
   38.5931   26.4241   36.6914 H   0  0  0  0  0  0  0  0  0  0  0  0
   38.7625   27.9752   35.8974 H   0  0  0  0  0  0  0  0  0  0  0  0
   36.8018   26.0665   35.1485 H   0  0  0  0  0  0  0  0  0  0  0  0
   37.2940   20.8971   34.7178 H   0  0  0  0  0  0  0  0  0  0  0  0
   36.4329   20.5998   32.3936 H   0  0  0  0  0  0  0  0  0  0  0  0
   36.4545   22.5268   30.8241 H   0  0  0  0  0  0  0  0  0  0  0  0
   37.3200   24.6959   31.5543 H   0  0  0  0  0  0  0  0  0  0  0  0
   41.0895   22.5020   37.4510 H   0  0  0  0  0  0  0  0  0  0  0  0
   39.6982   23.3456   39.3522 H   0  0  0  0  0  0  0  0  0  0  0  0
   37.3151   24.0260   38.8627 H   0  0  0  0  0  0  0  0  0  0  0  0
   35.8927   28.2477   35.4890 H   0  0  0  0  0  0  0  0  0  0  0  0
   34.8147   30.0440   34.2511 H   0  0  0  0  0  0  0  0  0  0  0  0
   35.4220   30.4395   31.8505 H   0  0  0  0  0  0  0  0  0  0  0  0
   36.6562   29.8722   29.9957 H   0  0  0  0  0  0  0  0  0  0  0  0
   38.3534   28.4697   28.8336 H   0  0  0  0  0  0  0  0  0  0  0  0
   39.4467   26.6283   30.1287 H   0  0  0  0  0  0  0  0  0  0  0  0
   38.8461   26.2440   32.4647 H   0  0  0  0  0  0  0  0  0  0  0  0
  1  5  1  0
  2  1  1  0
  2  3  1  0
  3  4  1  0
  5  4  1  0
  6 16  1  0
  7  6  2  0
  8  7  1  0
  9 10  1  0
  9  8  2  0
 10 11  2  0
 11  1  1  0
 11  6  1  0
 12 13  2  0
 14 13  1  0
 15 14  2  0
 16 17  2  0
 16 15  1  0
 17 12  1  0
 18 19  2  0
 18  5  1  0
 20 19  1  0
 21 20  2  0
 22 21  1  0
 22 27  2  0
 23 22  1  0
 24 23  2  0
 24 25  1  0
 25 26  2  0
 26 27  1  0
 27 18  1  0
  2 28  1  0
  2 29  1  0
  3 30  1  0
  3 31  1  0
  4 32  1  0
  4 33  1  0
  5 34  1  1
  7 35  1  0
  8 36  1  0
  9 37  1  0
 10 38  1  0
 12 39  1  0
 13 40  1  0
 14 41  1  0
 19 42  1  0
 20 43  1  0
 21 44  1  0
 23 45  1  0
 24 46  1  0
 25 47  1  0
 26 48  1  0
M  END
>  <minimizedAffinity>  (1) 
-7.04564714

>  <minimizedRMSD>  (1) 
0.925379634

$$$$
