
     RDKit          3D

 33 36  0  0  0  0  0  0  0  0999 V2000
   40.8040   21.8490   34.5350 C   0  0  0  0  0  0  0  0  0  0  0  0
   40.5110   22.3390   35.8090 C   0  0  0  0  0  0  0  0  0  0  0  0
   39.2600   22.8870   35.9900 C   0  0  0  0  0  0  0  0  0  0  0  0
   38.4320   22.8970   34.9130 N   0  0  0  0  0  0  0  0  0  0  0  0
   38.7170   22.4300   33.7070 C   0  0  0  0  0  0  0  0  0  0  0  0
   39.9200   21.9030   33.5340 N   0  0  0  0  0  0  0  0  0  0  0  0
   37.5910   22.6070   32.7990 C   0  0  0  0  0  0  0  0  0  0  0  0
   37.4080   23.7360   32.0400 C   0  0  0  0  0  0  0  0  0  0  0  0
   36.3660   23.9410   31.1780 C   0  0  0  0  0  0  0  0  0  0  0  0
   35.4030   22.9840   31.0180 C   0  0  0  0  0  0  0  0  0  0  0  0
   35.5230   21.8230   31.7490 C   0  0  0  0  0  0  0  0  0  0  0  0
   34.5500   20.8620   31.5830 C   0  0  0  0  0  0  0  0  0  0  0  0
   34.6060   19.6780   32.2800 C   0  0  0  0  0  0  0  0  0  0  0  0
   35.6870   19.5090   33.1510 C   0  0  0  0  0  0  0  0  0  0  0  0
   36.6200   20.4950   33.2730 C   0  0  0  0  0  0  0  0  0  0  0  0
   36.5950   21.6790   32.5990 C   0  0  0  0  0  0  0  0  0  0  0  0
   38.8730   23.4250   37.3020 C   0  0  0  0  0  0  0  0  0  0  0  0
   38.0490   24.5350   37.4880 C   0  0  0  0  0  0  0  0  0  0  0  0
   37.9490   24.6880   38.8430 N   0  0  0  0  0  0  0  0  0  0  0  0
   38.6870   23.7040   39.4100 C   0  0  0  0  0  0  0  0  0  0  0  0
   39.2600   22.9220   38.5040 N   0  0  0  0  0  0  0  0  0  0  0  0
   41.7930   21.4047   34.3493 H   0  0  0  0  0  0  0  0  0  0  0  0
   41.2433   22.2899   36.6284 H   0  0  0  0  0  0  0  0  0  0  0  0
   38.1564   24.5369   32.1320 H   0  0  0  0  0  0  0  0  0  0  0  0
   36.3025   24.8811   30.6104 H   0  0  0  0  0  0  0  0  0  0  0  0
   34.5599   23.1363   30.3280 H   0  0  0  0  0  0  0  0  0  0  0  0
   33.7192   21.0438   30.8853 H   0  0  0  0  0  0  0  0  0  0  0  0
   33.8371   18.9008   32.1583 H   0  0  0  0  0  0  0  0  0  0  0  0
   35.7840   18.5826   33.7362 H   0  0  0  0  0  0  0  0  0  0  0  0
   37.4555   20.3221   33.9673 H   0  0  0  0  0  0  0  0  0  0  0  0
   37.5796   25.1552   36.7102 H   0  0  0  0  0  0  0  0  0  0  0  0
   38.7985   23.5687   40.4959 H   0  0  0  0  0  0  0  0  0  0  0  0
   39.8678   22.1082   38.6749 H   0  0  0  0  0  0  0  0  0  0  0  0
  1  2  2  0
  2  3  1  0
  3 17  1  0
  4  3  2  0
  5  4  1  0
  6  5  2  0
  6  1  1  0
  7  5  1  0
  8  7  2  0
  9  8  1  0
 10  9  2  0
 10 11  1  0
 11 16  2  0
 12 11  1  0
 12 13  2  0
 13 14  1  0
 14 15  2  0
 16  7  1  0
 16 15  1  0
 17 18  2  0
 17 21  1  0
 18 19  1  0
 19 20  2  0
 21 20  1  0
  1 22  1  0
  2 23  1  0
  8 24  1  0
  9 25  1  0
 10 26  1  0
 12 27  1  0
 13 28  1  0
 14 29  1  0
 15 30  1  0
 18 31  1  0
 20 32  1  0
 21 33  1  0
M  ISO  8  22  14  23  14  24  14  25  14  26  14  27  14  28  14  29  14
M  ISO  4  30  14  31  14  32  14  33   9
M  END
>  <minimizedAffinity>  (1) 
-5.40121412

>  <minimizedRMSD>  (1) 
4.30343533

$$$$
