
     RDKit          3D

 43 47  0  0  0  0  0  0  0  0999 V2000
   39.7830   23.6210   35.9720 C   0  0  0  0  0  0  0  0  0  0  0  0
   39.6250   24.4450   34.8310 C   0  0  0  0  0  0  0  0  0  0  0  0
   40.3070   24.1470   33.6660 C   0  0  0  0  0  0  0  0  0  0  0  0
   41.1080   23.0490   33.6960 N   0  0  0  0  0  0  0  0  0  0  0  0
   41.2430   22.2580   34.8330 C   0  0  0  0  0  0  0  0  0  0  0  0
   40.5780   22.5700   35.9300 N   0  0  0  0  0  0  0  0  0  0  0  0
   38.7770   25.6180   34.7890 C   0  0  0  0  0  0  0  0  0  0  0  0
   38.7650   26.6230   35.7450 C   0  0  0  0  0  0  0  0  0  0  0  0
   37.9000   27.6520   35.5450 C   0  0  0  0  0  0  0  0  0  0  0  0
   37.0940   27.6330   34.4120 C   0  0  0  0  0  0  0  0  0  0  0  0
   37.5780   26.0600   33.5590 S   0  0  0  0  0  0  0  0  0  0  0  0
   36.1080   28.4820   33.8690 C   0  0  0  0  0  0  0  0  0  0  0  0
   35.6140   28.2510   32.7580 O   0  0  0  0  0  0  0  0  0  0  0  0
   35.6470   29.6420   34.5900 N   0  0  0  0  0  0  0  0  0  0  0  0
   42.1550   21.1050   34.6890 C   0  0  0  0  0  0  0  0  0  0  0  0
   42.1270   20.4480   33.4890 C   0  0  0  0  0  0  0  0  0  0  0  0
   43.4170   19.0980   33.7710 S   0  0  0  0  0  0  0  0  0  0  0  0
   43.7240   19.7430   35.5180 C   0  0  0  0  0  0  0  0  0  0  0  0
   43.0050   20.5970   35.5380 N   0  0  0  0  0  0  0  0  0  0  0  0
   44.7330   18.9800   36.2450 C   0  0  0  0  0  0  0  0  0  0  0  0
   46.0880   19.2180   36.1810 C   0  0  0  0  0  0  0  0  0  0  0  0
   47.0290   18.4710   36.8880 C   0  0  0  0  0  0  0  0  0  0  0  0
   46.5930   17.4460   37.6900 C   0  0  0  0  0  0  0  0  0  0  0  0
   45.2530   17.1630   37.7940 C   0  0  0  0  0  0  0  0  0  0  0  0
   44.8490   16.1270   38.6090 C   0  0  0  0  0  0  0  0  0  0  0  0
   43.4890   15.8460   38.7070 C   0  0  0  0  0  0  0  0  0  0  0  0
   42.6020   16.6380   37.9700 C   0  0  0  0  0  0  0  0  0  0  0  0
   43.0440   17.6560   37.1730 C   0  0  0  0  0  0  0  0  0  0  0  0
   44.3780   17.9410   37.0680 C   0  0  0  0  0  0  0  0  0  0  0  0
   39.2395   23.8591   36.8982 H   0  0  0  0  0  0  0  0  0  0  0  0
   40.2068   24.7659   32.7621 H   0  0  0  0  0  0  0  0  0  0  0  0
   39.4250   26.5887   36.6243 H   0  0  0  0  0  0  0  0  0  0  0  0
   37.8388   28.4822   36.2641 H   0  0  0  0  0  0  0  0  0  0  0  0
   34.9259   30.2514   34.1782 H   0  0  0  0  0  0  0  0  0  0  0  0
   36.0387   29.8615   35.5170 H   0  0  0  0  0  0  0  0  0  0  0  0
   41.5158   20.6519   32.5975 H   0  0  0  0  0  0  0  0  0  0  0  0
   46.4453   20.0378   35.5405 H   0  0  0  0  0  0  0  0  0  0  0  0
   48.1019   18.6990   36.8046 H   0  0  0  0  0  0  0  0  0  0  0  0
   47.3226   16.8464   38.2540 H   0  0  0  0  0  0  0  0  0  0  0  0
   45.5863   15.5344   39.1705 H   0  0  0  0  0  0  0  0  0  0  0  0
   43.1234   15.0270   39.3439 H   0  0  0  0  0  0  0  0  0  0  0  0
   41.5225   16.4363   38.0337 H   0  0  0  0  0  0  0  0  0  0  0  0
   42.3160   18.2557   36.6070 H   0  0  0  0  0  0  0  0  0  0  0  0
  2  1  2  0
  3  4  2  0
  3  2  1  0
  4  5  1  0
  5  6  2  0
  6  1  1  0
  7  2  1  0
  7  8  2  0
  9  8  1  0
 10  9  2  0
 11 10  1  0
 11  7  1  0
 12 10  1  0
 12 14  1  0
 13 12  2  0
 15  5  1  0
 15 19  1  0
 16 17  1  0
 16 15  2  0
 17 18  1  0
 18 19  2  0
 18 20  1  0
 20 29  1  0
 21 20  2  0
 21 22  1  0
 22 23  2  0
 23 24  1  0
 24 25  2  0
 25 26  1  0
 27 26  2  0
 28 27  1  0
 29 28  2  0
 29 24  1  0
  1 30  1  0
  3 31  1  0
  8 32  1  0
  9 33  1  0
 14 34  1  0
 14 35  1  0
 16 36  1  0
 21 37  1  0
 22 38  1  0
 23 39  1  0
 25 40  1  0
 26 41  1  0
 27 42  1  0
 28 43  1  0
M  ISO  8  30  14  31  14  32  14  33  14  36  14  37  14  38  14  39  14
M  ISO  4  40  14  41  14  42  14  43  14
M  END
>  <minimizedAffinity>  (1) 
-4.747293

>  <minimizedRMSD>  (1) 
2.58965135

$$$$
