
     RDKit          3D

 35 38  0  0  0  0  0  0  0  0999 V2000
   40.4870   21.9520   36.9630 O   0  0  0  0  0  0  0  0  0  0  0  0
   41.7900   22.0900   36.5630 C   0  0  0  0  0  0  0  0  0  0  0  0
   42.3730   23.2360   36.0300 C   0  0  0  0  0  0  0  0  0  0  0  0
   43.6670   23.0190   35.7500 N   0  0  0  0  0  0  0  0  0  0  0  0
   44.0060   21.7570   36.0700 C   0  0  0  0  0  0  0  0  0  0  0  0
   45.1700   21.0200   35.9930 C   0  0  0  0  0  0  0  0  0  0  0  0
   45.1960   19.6970   36.4180 C   0  0  0  0  0  0  0  0  0  0  0  0
   44.0360   19.1250   36.9190 C   0  0  0  0  0  0  0  0  0  0  0  0
   42.8670   19.8600   36.9980 C   0  0  0  0  0  0  0  0  0  0  0  0
   42.8460   21.1780   36.5730 C   0  0  0  0  0  0  0  0  0  0  0  0
   39.5870   22.9480   37.1600 C   0  0  0  0  0  0  0  0  0  0  0  0
   39.0990   23.1380   38.4630 C   0  0  0  0  0  0  0  0  0  0  0  0
   38.1690   24.1750   38.6440 C   0  0  0  0  0  0  0  0  0  0  0  0
   37.7910   24.9310   37.5750 N   0  0  0  0  0  0  0  0  0  0  0  0
   38.2920   24.7040   36.3420 C   0  0  0  0  0  0  0  0  0  0  0  0
   39.1740   23.7290   36.1440 N   0  0  0  0  0  0  0  0  0  0  0  0
   37.8870   25.5130   35.1960 C   0  0  0  0  0  0  0  0  0  0  0  0
   37.9060   24.9600   33.9130 C   0  0  0  0  0  0  0  0  0  0  0  0
   37.5100   25.7850   32.8800 C   0  0  0  0  0  0  0  0  0  0  0  0
   37.1020   27.0960   33.0050 C   0  0  0  0  0  0  0  0  0  0  0  0
   37.0870   27.6410   34.2940 C   0  0  0  0  0  0  0  0  0  0  0  0
   37.4810   26.8250   35.3300 C   0  0  0  0  0  0  0  0  0  0  0  0
   41.8463   24.1869   35.8618 H   0  0  0  0  0  0  0  0  0  0  0  0
   44.3083   23.7177   35.3481 H   0  0  0  0  0  0  0  0  0  0  0  0
   46.0839   21.4829   35.5924 H   0  0  0  0  0  0  0  0  0  0  0  0
   46.1249   19.1109   36.3578 H   0  0  0  0  0  0  0  0  0  0  0  0
   44.0458   18.0780   37.2563 H   0  0  0  0  0  0  0  0  0  0  0  0
   41.9531   19.3973   37.3988 H   0  0  0  0  0  0  0  0  0  0  0  0
   39.4288   22.5059   39.3006 H   0  0  0  0  0  0  0  0  0  0  0  0
   37.7491   24.3753   39.6408 H   0  0  0  0  0  0  0  0  0  0  0  0
   38.2203   23.9209   33.7355 H   0  0  0  0  0  0  0  0  0  0  0  0
   37.5209   25.3584   31.8661 H   0  0  0  0  0  0  0  0  0  0  0  0
   36.8010   27.6887   32.1286 H   0  0  0  0  0  0  0  0  0  0  0  0
   36.7729   28.6800   34.4720 H   0  0  0  0  0  0  0  0  0  0  0  0
   37.4715   27.2520   36.3437 H   0  0  0  0  0  0  0  0  0  0  0  0
  1 11  1  0
  2 10  1  0
  2  1  1  0
  3  2  2  0
  4  3  1  0
  4  5  1  0
  5 10  2  0
  6  5  1  0
  6  7  2  0
  7  8  1  0
  8  9  2  0
 10  9  1  0
 11 12  2  0
 12 13  1  0
 14 13  2  0
 15 14  1  0
 16 15  2  0
 16 11  1  0
 17 22  1  0
 17 15  1  0
 18 17  2  0
 19 20  2  0
 19 18  1  0
 20 21  1  0
 21 22  2  0
  3 23  1  0
  4 24  1  0
  6 25  1  0
  7 26  1  0
  8 27  1  0
  9 28  1  0
 12 29  1  0
 13 30  1  0
 18 31  1  0
 19 32  1  0
 20 33  1  0
 21 34  1  0
 22 35  1  0
M  ISO  8  23  14  24   9  25  14  26  14  27  14  28  14  29  14  30  14
M  ISO  5  31  14  32  14  33  14  34  14  35  14
M  END
>  <minimizedAffinity>  (1) 
-5.3919816

>  <minimizedRMSD>  (1) 
1.71245098

$$$$
