
     RDKit          3D

 52 57  0  0  0  0  0  0  0  0999 V2000
   37.9960   23.1210   31.3470 C   0  0  0  0  0  0  0  0  0  0  0  0
   37.3320   24.3040   31.0570 C   0  0  0  0  0  0  0  0  0  0  0  0
   37.4840   25.3080   32.0030 C   0  0  0  0  0  0  0  0  0  0  0  0
   38.2290   25.0560   33.0720 N   0  0  0  0  0  0  0  0  0  0  0  0
   38.8700   23.9370   33.3670 C   0  0  0  0  0  0  0  0  0  0  0  0
   38.7160   22.9910   32.4570 N   0  0  0  0  0  0  0  0  0  0  0  0
   36.8690   26.5790   31.8560 N   0  0  0  0  0  0  0  0  0  0  0  0
   36.9870   27.4010   30.8140 C   0  0  0  0  0  0  0  0  0  0  0  0
   36.2800   28.5070   31.0020 N   0  0  0  0  0  0  0  0  0  0  0  0
   35.6960   28.3820   32.2040 C   0  0  0  0  0  0  0  0  0  0  0  0
   36.0750   27.1930   32.7000 N   0  0  0  0  0  0  0  0  0  0  0  0
   39.7010   23.5400   34.4800 C   0  0  0  0  0  0  0  0  0  0  0  0
   41.0210   23.1690   34.3090 C   0  0  0  0  0  0  0  0  0  0  0  0
   41.8520   22.7850   35.3310 C   0  0  0  0  0  0  0  0  0  0  0  0
   41.3870   22.7480   36.6340 C   0  0  0  0  0  0  0  0  0  0  0  0
   40.0990   23.1030   36.8450 C   0  0  0  0  0  0  0  0  0  0  0  0
   39.6160   23.0730   38.1460 C   0  0  0  0  0  0  0  0  0  0  0  0
   38.3220   23.4170   38.4550 C   0  0  0  0  0  0  0  0  0  0  0  0
   37.5070   23.8010   37.4060 C   0  0  0  0  0  0  0  0  0  0  0  0
   38.0100   23.8210   36.1370 C   0  0  0  0  0  0  0  0  0  0  0  0
   39.2820   23.4870   35.8020 C   0  0  0  0  0  0  0  0  0  0  0  0
   34.8070   29.2370   32.9810 C   0  0  0  0  0  0  0  0  0  0  0  0
   33.5940   29.7700   32.7960 N   0  0  0  0  0  0  0  0  0  0  0  0
   33.2420   30.4770   33.8310 O   0  0  0  0  0  0  0  0  0  0  0  0
   34.2140   30.4230   34.7150 C   0  0  0  0  0  0  0  0  0  0  0  0
   35.2030   29.6590   34.2140 N   0  0  0  0  0  0  0  0  0  0  0  0
   34.1630   31.0800   35.9520 N   0  0  0  0  0  0  0  0  0  0  0  0
   35.3130   31.8230   36.4290 C   0  0  0  0  0  0  0  0  0  0  0  0
   34.9230   33.2440   36.7780 C   0  0  0  0  0  0  0  0  0  0  0  0
   33.6150   33.3560   37.4920 C   0  0  0  0  0  0  0  0  0  0  0  0
   32.5190   32.5160   36.8710 C   0  0  0  0  0  0  0  0  0  0  0  0
   33.0090   31.0730   36.8260 C   0  0  0  0  0  0  0  0  0  0  0  0
   37.9255   22.2759   30.6464 H   0  0  0  0  0  0  0  0  0  0  0  0
   36.7303   24.4363   30.1457 H   0  0  0  0  0  0  0  0  0  0  0  0
   37.5898   27.1905   29.9183 H   0  0  0  0  0  0  0  0  0  0  0  0
   41.4317   23.1824   33.2886 H   0  0  0  0  0  0  0  0  0  0  0  0
   42.8933   22.5051   35.1136 H   0  0  0  0  0  0  0  0  0  0  0  0
   42.0392   22.4420   37.4653 H   0  0  0  0  0  0  0  0  0  0  0  0
   40.2918   22.7635   38.9569 H   0  0  0  0  0  0  0  0  0  0  0  0
   37.9512   23.3882   39.4902 H   0  0  0  0  0  0  0  0  0  0  0  0
   36.4616   24.0881   37.5925 H   0  0  0  0  0  0  0  0  0  0  0  0
   37.3343   24.1307   35.3261 H   0  0  0  0  0  0  0  0  0  0  0  0
   35.7164   31.3286   37.3250 H   0  0  0  0  0  0  0  0  0  0  0  0
   36.0726   31.8492   35.6338 H   0  0  0  0  0  0  0  0  0  0  0  0
   35.7065   33.6697   37.4221 H   0  0  0  0  0  0  0  0  0  0  0  0
   34.8151   33.7875   35.8278 H   0  0  0  0  0  0  0  0  0  0  0  0
   33.7567   33.0305   38.5331 H   0  0  0  0  0  0  0  0  0  0  0  0
   33.2969   34.4069   37.4255 H   0  0  0  0  0  0  0  0  0  0  0  0
   31.6055   32.5825   37.4802 H   0  0  0  0  0  0  0  0  0  0  0  0
   32.2861   32.8752   35.8577 H   0  0  0  0  0  0  0  0  0  0  0  0
   32.2260   30.4141   36.4226 H   0  0  0  0  0  0  0  0  0  0  0  0
   33.2606   30.6975   37.8288 H   0  0  0  0  0  0  0  0  0  0  0  0
  1  6  2  0
  2  1  1  0
  2  3  2  0
  3  4  1  0
  4  5  2  0
  5 12  1  0
  6  5  1  0
  7  3  1  0
  7 11  1  0
  8  9  2  0
  8  7  1  0
  9 10  1  0
 10 11  2  0
 10 22  1  0
 12 21  1  0
 13 12  2  0
 13 14  1  0
 14 15  2  0
 15 16  1  0
 16 17  2  0
 17 18  1  0
 19 18  2  0
 20 19  1  0
 21 20  2  0
 21 16  1  0
 22 26  1  0
 23 22  2  0
 23 24  1  0
 24 25  1  0
 25 27  1  0
 26 25  2  0
 27 28  1  0
 27 32  1  0
 28 29  1  0
 29 30  1  0
 31 30  1  0
 32 31  1  0
  1 33  1  0
  2 34  1  0
  8 35  1  0
 13 36  1  0
 14 37  1  0
 15 38  1  0
 17 39  1  0
 18 40  1  0
 19 41  1  0
 20 42  1  0
 28 43  1  0
 28 44  1  0
 29 45  1  0
 29 46  1  0
 30 47  1  0
 30 48  1  0
 31 49  1  0
 31 50  1  0
 32 51  1  0
 32 52  1  0
M  END
>  <minimizedAffinity>  (1) 
-7.60326767

>  <minimizedRMSD>  (1) 
2.06650615

$$$$
