
     RDKit          3D

 28 29  0  0  0  0  0  0  0  0999 V2000
   38.4440   23.3180   35.8630 C   0  0  0  0  0  0  0  0  0  0  0  0
   41.4480   21.6380   37.4390 C   0  0  0  0  0  0  0  0  0  0  0  0
   40.2180   22.2900   37.3430 C   0  0  0  0  0  0  0  0  0  0  0  0
   39.7440   22.6220   36.0580 C   0  0  0  0  0  0  0  0  0  0  0  0
   40.5260   22.2800   34.9920 N   0  0  0  0  0  0  0  0  0  0  0  0
   41.7080   21.6500   35.1290 C   0  0  0  0  0  0  0  0  0  0  0  0
   42.1550   21.3360   36.3530 N   0  0  0  0  0  0  0  0  0  0  0  0
   38.6810   24.7150   35.5560 N   0  0  0  0  0  0  0  0  0  0  0  0
   38.2830   25.0740   34.2240 C   0  0  0  0  0  0  0  0  0  0  0  0
   38.9640   26.3510   33.8020 C   0  0  0  0  0  0  0  0  0  0  0  0
   39.5710   27.0140   35.0240 C   0  0  0  0  0  0  0  0  0  0  0  0
   38.4640   27.0220   36.0780 C   0  0  0  0  0  0  0  0  0  0  0  0
   38.1360   25.6010   36.5350 C   0  0  0  0  0  0  0  0  0  0  0  0
   37.8983   22.8480   35.0315 H   0  0  0  0  0  0  0  0  0  0  0  0
   37.8477   23.2427   36.7843 H   0  0  0  0  0  0  0  0  0  0  0  0
   41.8403   21.3687   38.4307 H   0  0  0  0  0  0  0  0  0  0  0  0
   39.6360   22.5373   38.2431 H   0  0  0  0  0  0  0  0  0  0  0  0
   42.3041   21.3942   34.2406 H   0  0  0  0  0  0  0  0  0  0  0  0
   38.5635   24.2669   33.5313 H   0  0  0  0  0  0  0  0  0  0  0  0
   37.1936   25.2253   34.2040 H   0  0  0  0  0  0  0  0  0  0  0  0
   39.7566   26.1232   33.0741 H   0  0  0  0  0  0  0  0  0  0  0  0
   38.2311   27.0272   33.3378 H   0  0  0  0  0  0  0  0  0  0  0  0
   40.4381   26.4396   35.3819 H   0  0  0  0  0  0  0  0  0  0  0  0
   39.9289   28.0300   34.8010 H   0  0  0  0  0  0  0  0  0  0  0  0
   38.7966   27.6115   36.9451 H   0  0  0  0  0  0  0  0  0  0  0  0
   37.5603   27.4662   35.6353 H   0  0  0  0  0  0  0  0  0  0  0  0
   37.0462   25.4670   36.6018 H   0  0  0  0  0  0  0  0  0  0  0  0
   38.5607   25.3989   37.5294 H   0  0  0  0  0  0  0  0  0  0  0  0
  1  4  1  0
  3  2  2  0
  4  3  1  0
  5  6  1  0
  5  4  2  0
  6  7  2  0
  7  2  1  0
  8  1  1  0
  8 13  1  0
  9  8  1  0
 10  9  1  0
 10 11  1  0
 11 12  1  0
 12 13  1  0
  1 14  1  0
  1 15  1  0
  2 16  1  0
  3 17  1  0
  6 18  1  0
  9 19  1  0
  9 20  1  0
 10 21  1  0
 10 22  1  0
 11 23  1  0
 11 24  1  0
 12 25  1  0
 12 26  1  0
 13 27  1  0
 13 28  1  0
M  ISO  8  14   8  15   8  16  14  17  14  18  14  19  13  20  13  21  13
M  ISO  7  22  13  23  13  24  13  25  13  26  13  27  13  28  13
M  END
>  <minimizedAffinity>  (1) 
-3.63226438

>  <minimizedRMSD>  (1) 
2.702528

$$$$
