
     RDKit          3D

 52 57  0  0  0  0  0  0  0  0999 V2000
   39.5190   23.5290   32.4600 C   0  0  0  0  0  0  0  0  0  0  0  0
   40.4470   22.4950   32.4190 C   0  0  0  0  0  0  0  0  0  0  0  0
   40.0960   21.1900   32.0650 C   0  0  0  0  0  0  0  0  0  0  0  0
   38.7790   20.8970   31.7420 C   0  0  0  0  0  0  0  0  0  0  0  0
   37.8360   21.9080   31.7740 C   0  0  0  0  0  0  0  0  0  0  0  0
   36.5390   21.6210   31.4550 C   0  0  0  0  0  0  0  0  0  0  0  0
   35.5560   22.5910   31.4680 C   0  0  0  0  0  0  0  0  0  0  0  0
   35.9400   23.8970   31.8230 C   0  0  0  0  0  0  0  0  0  0  0  0
   37.2740   24.1290   32.1360 C   0  0  0  0  0  0  0  0  0  0  0  0
   38.2370   23.1670   32.1260 C   0  0  0  0  0  0  0  0  0  0  0  0
   39.9190   24.8530   32.8360 C   0  0  0  0  0  0  0  0  0  0  0  0
   40.0370   25.2620   34.1780 C   0  0  0  0  0  0  0  0  0  0  0  0
   40.4520   26.5770   34.4240 C   0  0  0  0  0  0  0  0  0  0  0  0
   40.7230   27.4040   33.3810 N   0  0  0  0  0  0  0  0  0  0  0  0
   40.6030   26.9750   32.1040 C   0  0  0  0  0  0  0  0  0  0  0  0
   40.2160   25.7460   31.8700 N   0  0  0  0  0  0  0  0  0  0  0  0
   39.7780   24.3640   35.2060 N   0  0  0  0  0  0  0  0  0  0  0  0
   38.5930   24.1430   35.7890 C   0  0  0  0  0  0  0  0  0  0  0  0
   38.6660   23.2100   36.7560 N   0  0  0  0  0  0  0  0  0  0  0  0
   39.9680   22.8180   36.7880 C   0  0  0  0  0  0  0  0  0  0  0  0
   40.6600   21.9070   37.5440 C   0  0  0  0  0  0  0  0  0  0  0  0
   41.9810   21.6650   37.4040 N   0  0  0  0  0  0  0  0  0  0  0  0
   42.6100   22.3950   36.4450 C   0  0  0  0  0  0  0  0  0  0  0  0
   41.9210   23.2740   35.7230 N   0  0  0  0  0  0  0  0  0  0  0  0
   40.6290   23.5410   35.8280 C   0  0  0  0  0  0  0  0  0  0  0  0
   37.1840   25.5300   32.3890 N   0  0  0  0  0  0  0  0  0  0  0  0
   36.9940   26.4170   33.5130 C   0  0  0  0  0  0  0  0  0  0  0  0
   37.0580   27.8470   33.0400 C   0  0  0  0  0  0  0  0  0  0  0  0
   35.8790   28.0890   32.1240 C   0  0  0  0  0  0  0  0  0  0  0  0
   36.0190   27.1820   30.9500 C   0  0  0  0  0  0  0  0  0  0  0  0
   37.2170   26.2820   31.1060 C   0  0  0  0  0  0  0  0  0  0  0  0
   41.4947   22.7119   32.6743 H   0  0  0  0  0  0  0  0  0  0  0  0
   40.8599   20.3988   32.0425 H   0  0  0  0  0  0  0  0  0  0  0  0
   38.4884   19.8732   31.4639 H   0  0  0  0  0  0  0  0  0  0  0  0
   36.2705   20.5902   31.1806 H   0  0  0  0  0  0  0  0  0  0  0  0
   34.5136   22.3518   31.2108 H   0  0  0  0  0  0  0  0  0  0  0  0
   35.2034   24.7134   31.8521 H   0  0  0  0  0  0  0  0  0  0  0  0
   40.5580   26.9385   35.4575 H   0  0  0  0  0  0  0  0  0  0  0  0
   40.8288   27.6534   31.2681 H   0  0  0  0  0  0  0  0  0  0  0  0
   37.6657   24.6645   35.5094 H   0  0  0  0  0  0  0  0  0  0  0  0
   40.1073   21.3409   38.3083 H   0  0  0  0  0  0  0  0  0  0  0  0
   43.6869   22.2589   36.2666 H   0  0  0  0  0  0  0  0  0  0  0  0
   36.0118   26.2253   33.9696 H   0  0  0  0  0  0  0  0  0  0  0  0
   37.7846   26.2409   34.2573 H   0  0  0  0  0  0  0  0  0  0  0  0
   37.0069   28.5281   33.9022 H   0  0  0  0  0  0  0  0  0  0  0  0
   38.0016   28.0310   32.5054 H   0  0  0  0  0  0  0  0  0  0  0  0
   34.9412   27.8704   32.6558 H   0  0  0  0  0  0  0  0  0  0  0  0
   35.8563   29.1391   31.7971 H   0  0  0  0  0  0  0  0  0  0  0  0
   36.1394   27.7874   30.0395 H   0  0  0  0  0  0  0  0  0  0  0  0
   35.1166   26.5569   30.8791 H   0  0  0  0  0  0  0  0  0  0  0  0
   37.2326   25.5635   30.2732 H   0  0  0  0  0  0  0  0  0  0  0  0
   38.1187   26.9121   31.1039 H   0  0  0  0  0  0  0  0  0  0  0  0
  1 11  1  0
  2  1  2  0
  3  2  1  0
  4  5  1  0
  4  3  2  0
  5 10  2  0
  6  7  2  0
  6  5  1  0
  7  8  1  0
  8  9  2  0
  9 26  1  0
 10  9  1  0
 10  1  1  0
 11 12  1  0
 12 13  2  0
 12 17  1  0
 14 13  1  0
 15 14  2  0
 16 15  1  0
 16 11  2  0
 17 18  1  0
 17 25  1  0
 18 19  2  0
 19 20  1  0
 20 21  2  0
 22 21  1  0
 23 22  2  0
 24 25  2  0
 24 23  1  0
 25 20  1  0
 26 27  1  0
 28 27  1  0
 29 28  1  0
 30 31  1  0
 30 29  1  0
 31 26  1  0
  2 32  1  0
  3 33  1  0
  4 34  1  0
  6 35  1  0
  7 36  1  0
  8 37  1  0
 13 38  1  0
 15 39  1  0
 18 40  1  0
 21 41  1  0
 23 42  1  0
 27 43  1  0
 27 44  1  0
 28 45  1  0
 28 46  1  0
 29 47  1  0
 29 48  1  0
 30 49  1  0
 30 50  1  0
 31 51  1  0
 31 52  1  0
M  ISO  8  32  14  33  14  34  14  35  14  36  14  37  14  38  14  39  14
M  ISO  8  40  14  41  14  42  14  43  13  44  13  45  13  46  13  47  13
M  ISO  5  48  13  49  13  50  13  51  13  52  13
M  END
>  <minimizedAffinity>  (1) 
-6.0933795

>  <minimizedRMSD>  (1) 
1.91616642

$$$$
