
     RDKit          3D

 44 48  0  0  1  0  0  0  0  0999 V2000
   36.3650   25.2470   31.3560 C   0  0  0  0  0  0  0  0  0  0  0  0
   35.4820   26.3400   31.2100 C   0  0  0  0  0  0  0  0  0  0  0  0
   35.9430   27.6180   31.4830 C   0  0  0  0  0  0  0  0  0  0  0  0
   37.2440   27.7440   31.8830 N   0  0  0  0  0  0  0  0  0  0  0  0
   38.0530   26.6920   32.0120 C   0  0  0  0  0  0  0  0  0  0  0  0
   37.6280   25.4480   31.7540 N   0  0  0  0  0  0  0  0  0  0  0  0
   39.3860   26.9650   32.4370 N   0  0  0  0  0  0  0  0  0  0  0  0
   40.1840   27.3000   31.4650 N   0  0  0  0  0  0  0  0  0  0  0  0
   41.4240   27.5360   31.9780 C   0  0  0  0  0  0  0  0  0  0  0  0
   41.3670   27.3330   33.3150 C   0  0  0  0  0  0  0  0  0  0  0  0
   40.0610   26.9690   33.5990 C   0  0  0  0  0  0  0  0  0  0  0  0
   39.3130   26.6120   34.7940 C   0  0  0  0  0  0  0  0  0  0  0  0
   38.9780   27.3020   35.8940 N   0  0  0  0  0  0  0  0  0  0  0  0
   38.2980   26.5500   36.6890 O   0  0  0  0  0  0  0  0  0  0  0  0
   38.1880   25.3710   36.1090 C   0  0  0  0  0  0  0  0  0  0  0  0
   38.8030   25.3460   34.9210 N   0  0  0  0  0  0  0  0  0  0  0  0
   37.4720   24.2110   36.6960 C   0  0  2  0  0  0  0  0  0  0  0  0
   37.9010   23.6250   38.0040 C   0  0  0  0  0  0  0  0  0  0  0  0
   38.0340   22.8540   36.7120 C   0  0  2  0  0  0  0  0  0  0  0  0
   39.3410   22.4310   36.4070 N   0  0  0  0  0  0  0  0  0  0  0  0
   40.4480   23.0360   37.0530 C   0  0  0  0  0  0  0  0  0  0  0  0
   41.4740   23.4740   35.9760 C   0  0  0  0  0  0  0  0  0  0  0  0
   41.8580   22.2920   35.3460 O   0  0  0  0  0  0  0  0  0  0  0  0
   40.8250   21.8060   34.5520 C   0  0  0  0  0  0  0  0  0  0  0  0
   39.4630   22.3010   34.9670 C   0  0  0  0  0  0  0  0  0  0  0  0
   35.8960   23.9310   31.0770 N   0  0  0  0  0  0  0  0  0  0  0  0
   34.4437   26.1790   30.8844 H   0  0  0  0  0  0  0  0  0  0  0  0
   35.2881   28.4960   31.3819 H   0  0  0  0  0  0  0  0  0  0  0  0
   42.3141   27.8381   31.4066 H   0  0  0  0  0  0  0  0  0  0  0  0
   42.1936   27.4365   34.0334 H   0  0  0  0  0  0  0  0  0  0  0  0
   36.5409   24.6427   36.3001 H   0  0  0  0  0  0  0  0  0  0  0  0
   38.7964   24.0077   38.5156 H   0  0  0  0  0  0  0  0  0  0  0  0
   37.4260   23.4481   38.9802 H   0  0  0  0  0  0  0  0  0  0  0  0
   37.6674   21.9467   36.2096 H   0  0  0  0  0  0  0  0  0  0  0  0
   40.1098   23.9151   37.6212 H   0  0  0  0  0  0  0  0  0  0  0  0
   40.9146   22.3202   37.7458 H   0  0  0  0  0  0  0  0  0  0  0  0
   41.0089   24.1632   35.2558 H   0  0  0  0  0  0  0  0  0  0  0  0
   42.3308   24.0081   36.4127 H   0  0  0  0  0  0  0  0  0  0  0  0
   40.8287   20.7075   34.6100 H   0  0  0  0  0  0  0  0  0  0  0  0
   41.0039   22.1707   33.5298 H   0  0  0  0  0  0  0  0  0  0  0  0
   39.2885   23.2847   34.5067 H   0  0  0  0  0  0  0  0  0  0  0  0
   38.7194   21.5634   34.6309 H   0  0  0  0  0  0  0  0  0  0  0  0
   34.9233   23.7849   30.7714 H   0  0  0  0  0  0  0  0  0  0  0  0
   36.5296   23.1256   31.1809 H   0  0  0  0  0  0  0  0  0  0  0  0
  1  6  2  0
  2  1  1  0
  2  3  2  0
  3  4  1  0
  4  5  2  0
  5  7  1  0
  6  5  1  0
  7 11  1  0
  8  9  2  0
  8  7  1  0
  9 10  1  0
 10 11  2  0
 11 12  1  0
 12 16  1  0
 12 13  2  0
 13 14  1  0
 15 14  1  0
 15 17  1  0
 16 15  2  0
 17 19  1  0
 17 18  1  0
 19 18  1  0
 20 19  1  0
 20 21  1  0
 22 21  1  0
 23 22  1  0
 24 25  1  0
 24 23  1  0
 25 20  1  0
 26  1  1  0
  2 27  1  0
  3 28  1  0
  9 29  1  0
 10 30  1  0
 17 31  1  1
 18 32  1  0
 18 33  1  0
 19 34  1  1
 21 35  1  0
 21 36  1  0
 22 37  1  0
 22 38  1  0
 24 39  1  0
 24 40  1  0
 25 41  1  0
 25 42  1  0
 26 43  1  0
 26 44  1  0
M  ISO  8  27  14  28  14  29  14  30  14  31  13  32  13  33  13  34  13
M  ISO  8  35  13  36  13  37  13  38  13  39  13  40  13  41  13  42  13
M  END
>  <minimizedAffinity>  (1) 
-5.87058973

>  <minimizedRMSD>  (1) 
2.42084527

$$$$
