
     RDKit          3D

 37 40  0  0  1  0  0  0  0  0999 V2000
   38.1640   24.2530   34.8000 C   0  0  0  0  0  0  0  0  0  0  0  0
   38.1760   25.5400   34.2830 C   0  0  0  0  0  0  0  0  0  0  0  0
   37.8290   25.3800   32.9720 N   0  0  0  0  0  0  0  0  0  0  0  0
   37.6340   24.0970   32.7560 C   0  0  0  0  0  0  0  0  0  0  0  0
   37.8320   23.3610   33.8680 N   0  0  0  0  0  0  0  0  0  0  0  0
   38.4700   23.8970   36.1770 C   0  0  0  0  0  0  0  0  0  0  0  0
   39.6500   23.2250   36.4850 C   0  0  0  0  0  0  0  0  0  0  0  0
   39.9050   22.9010   37.8330 C   0  0  0  0  0  0  0  0  0  0  0  0
   38.9880   23.2610   38.7480 N   0  0  0  0  0  0  0  0  0  0  0  0
   37.8470   23.9140   38.4260 C   0  0  0  0  0  0  0  0  0  0  0  0
   37.5850   24.2330   37.1430 N   0  0  0  0  0  0  0  0  0  0  0  0
   37.6860   21.9250   33.9150 C   0  0  1  0  0  0  0  0  0  0  0  0
   36.5470   21.2670   34.5550 C   0  0  0  0  0  0  0  0  0  0  0  0
   36.5240   21.4330   33.0570 C   0  0  2  0  0  0  0  0  0  0  0  0
   36.6370   20.2010   32.3470 N   0  0  0  0  0  0  0  0  0  0  0  0
   36.4910   20.2690   30.9290 C   0  0  0  0  0  0  0  0  0  0  0  0
   36.7250   18.8360   30.4330 C   0  0  0  0  0  0  0  0  0  0  0  0
   35.8170   17.9410   30.9950 O   0  0  0  0  0  0  0  0  0  0  0  0
   35.9960   17.9250   32.3700 C   0  0  0  0  0  0  0  0  0  0  0  0
   35.6090   19.3120   32.8590 C   0  0  0  0  0  0  0  0  0  0  0  0
   38.4115   26.4767   34.8094 H   0  0  0  0  0  0  0  0  0  0  0  0
   37.3436   23.6746   31.7827 H   0  0  0  0  0  0  0  0  0  0  0  0
   40.3660   22.9535   35.6953 H   0  0  0  0  0  0  0  0  0  0  0  0
   40.8234   22.3714   38.1264 H   0  0  0  0  0  0  0  0  0  0  0  0
   37.1303   24.1856   39.2150 H   0  0  0  0  0  0  0  0  0  0  0  0
   38.7668   21.7582   34.0332 H   0  0  0  0  0  0  0  0  0  0  0  0
   36.6709   20.2644   34.9903 H   0  0  0  0  0  0  0  0  0  0  0  0
   35.8593   21.5429   35.3680 H   0  0  0  0  0  0  0  0  0  0  0  0
   35.9000   21.9078   32.2855 H   0  0  0  0  0  0  0  0  0  0  0  0
   35.4801   20.6100   30.6609 H   0  0  0  0  0  0  0  0  0  0  0  0
   37.1959   20.9818   30.4762 H   0  0  0  0  0  0  0  0  0  0  0  0
   36.6151   18.8152   29.3387 H   0  0  0  0  0  0  0  0  0  0  0  0
   37.7381   18.5305   30.7335 H   0  0  0  0  0  0  0  0  0  0  0  0
   35.3500   17.1632   32.8307 H   0  0  0  0  0  0  0  0  0  0  0  0
   37.0338   17.6780   32.6385 H   0  0  0  0  0  0  0  0  0  0  0  0
   35.5878   19.3407   33.9584 H   0  0  0  0  0  0  0  0  0  0  0  0
   34.6063   19.6032   32.5130 H   0  0  0  0  0  0  0  0  0  0  0  0
  1  6  1  0
  2  1  2  0
  3  2  1  0
  4  3  2  0
  4  5  1  0
  5 12  1  0
  5  1  1  0
  6  7  2  0
  6 11  1  0
  7  8  1  0
  8  9  2  0
 10  9  1  0
 11 10  2  0
 12 13  1  0
 14 12  1  0
 14 13  1  0
 15 20  1  0
 15 14  1  0
 16 15  1  0
 17 16  1  0
 17 18  1  0
 18 19  1  0
 19 20  1  0
  2 21  1  0
  4 22  1  0
  7 23  1  0
  8 24  1  0
 10 25  1  0
 12 26  1  6
 13 27  1  0
 13 28  1  0
 14 29  1  1
 16 30  1  0
 16 31  1  0
 17 32  1  0
 17 33  1  0
 19 34  1  0
 19 35  1  0
 20 36  1  0
 20 37  1  0
M  ISO  8  21  14  22  14  23  14  24  14  25  14  26  13  27  13  28  13
M  ISO  8  29  13  30  13  31  13  32  13  33  13  34  13  35  13  36  13
M  ISO  1  37  13
M  END
>  <minimizedAffinity>  (1) 
-4.60164881

>  <minimizedRMSD>  (1) 
1.34293425

$$$$
