
     RDKit          3D

 37 40  0  0  0  0  0  0  0  0999 V2000
   37.7150   27.2160   35.1160 C   0  0  0  0  0  0  0  0  0  0  0  0
   38.9600   26.4640   35.0570 C   0  0  0  0  0  0  0  0  0  0  0  0
   40.0790   26.9820   34.4070 C   0  0  0  0  0  0  0  0  0  0  0  0
   41.2530   26.2830   34.3580 C   0  0  0  0  0  0  0  0  0  0  0  0
   41.3750   25.0280   34.9540 C   0  0  0  0  0  0  0  0  0  0  0  0
   40.2590   24.5050   35.6060 C   0  0  0  0  0  0  0  0  0  0  0  0
   40.3600   23.2620   36.2030 C   0  0  0  0  0  0  0  0  0  0  0  0
   39.2930   22.7020   36.8550 C   0  0  0  0  0  0  0  0  0  0  0  0
   38.1090   23.4060   36.9040 C   0  0  0  0  0  0  0  0  0  0  0  0
   38.0340   24.6530   36.2970 C   0  0  0  0  0  0  0  0  0  0  0  0
   39.0820   25.2490   35.6320 C   0  0  0  0  0  0  0  0  0  0  0  0
   36.1620   28.7560   32.1800 C   0  0  0  0  0  0  0  0  0  0  0  0
   35.7770   27.6840   31.3810 C   0  0  0  0  0  0  0  0  0  0  0  0
   36.0510   26.3790   31.8550 C   0  0  0  0  0  0  0  0  0  0  0  0
   36.6790   26.2590   33.0700 N   0  0  0  0  0  0  0  0  0  0  0  0
   37.0250   27.3170   33.7900 C   0  0  0  0  0  0  0  0  0  0  0  0
   36.7700   28.5600   33.3510 N   0  0  0  0  0  0  0  0  0  0  0  0
   35.6820   25.2220   31.0780 C   0  0  0  0  0  0  0  0  0  0  0  0
   34.5680   25.2250   30.4970 O   0  0  0  0  0  0  0  0  0  0  0  0
   36.5760   24.0500   30.9520 C   0  0  0  0  0  0  0  0  0  0  0  0
   36.1350   22.7720   31.4540 C   0  0  0  0  0  0  0  0  0  0  0  0
   37.5430   21.7110   31.0710 S   0  0  0  0  0  0  0  0  0  0  0  0
   38.5130   23.1360   30.2950 C   0  0  0  0  0  0  0  0  0  0  0  0
   37.7860   24.0700   30.4020 N   0  0  0  0  0  0  0  0  0  0  0  0
   37.0383   26.7173   35.8255 H   0  0  0  0  0  0  0  0  0  0  0  0
   37.9649   28.2389   35.4340 H   0  0  0  0  0  0  0  0  0  0  0  0
   40.0165   27.9691   33.9257 H   0  0  0  0  0  0  0  0  0  0  0  0
   42.1187   26.7192   33.8381 H   0  0  0  0  0  0  0  0  0  0  0  0
   42.3213   24.4687   34.9111 H   0  0  0  0  0  0  0  0  0  0  0  0
   41.3124   22.7138   36.1537 H   0  0  0  0  0  0  0  0  0  0  0  0
   39.3793   21.7130   37.3286 H   0  0  0  0  0  0  0  0  0  0  0  0
   37.2327   22.9847   37.4184 H   0  0  0  0  0  0  0  0  0  0  0  0
   37.0796   25.1974   36.3508 H   0  0  0  0  0  0  0  0  0  0  0  0
   35.9616   29.7828   31.8402 H   0  0  0  0  0  0  0  0  0  0  0  0
   35.2771   27.8452   30.4145 H   0  0  0  0  0  0  0  0  0  0  0  0
   35.1853   22.5114   31.9440 H   0  0  0  0  0  0  0  0  0  0  0  0
   39.5177   23.1073   29.8480 H   0  0  0  0  0  0  0  0  0  0  0  0
  2  1  1  0
  2 11  1  0
  3  2  2  0
  4  3  1  0
  4  5  2  0
  5  6  1  0
  6 11  2  0
  6  7  1  0
  7  8  2  0
  8  9  1  0
 10  9  2  0
 11 10  1  0
 12 17  2  0
 13 14  2  0
 13 12  1  0
 14 15  1  0
 15 16  2  0
 16  1  1  0
 17 16  1  0
 18 14  1  0
 19 18  2  0
 20 18  1  0
 20 21  2  0
 22 21  1  0
 23 24  2  0
 23 22  1  0
 24 20  1  0
  1 25  1  0
  1 26  1  0
  3 27  1  0
  4 28  1  0
  5 29  1  0
  7 30  1  0
  8 31  1  0
  9 32  1  0
 10 33  1  0
 12 34  1  0
 13 35  1  0
 21 36  1  0
 23 37  1  0
M  ISO  8  25   8  26   8  27  14  28  14  29  14  30  14  31  14  32  14
M  ISO  5  33  14  34  14  35  14  36  14  37  14
M  END
>  <minimizedAffinity>  (1) 
-5.86948776

>  <minimizedRMSD>  (1) 
1.75789893

$$$$
