
     RDKit          3D

 51 54  0  0  0  0  0  0  0  0999 V2000
   38.0770   23.1930   35.2420 C   0  0  0  0  0  0  0  0  0  0  0  0
   37.5860   22.0190   34.7660 C   0  0  0  0  0  0  0  0  0  0  0  0
   37.2270   21.8460   33.4530 C   0  0  0  0  0  0  0  0  0  0  0  0
   37.3600   22.8810   32.5700 C   0  0  0  0  0  0  0  0  0  0  0  0
   37.8590   24.0620   33.0680 C   0  0  0  0  0  0  0  0  0  0  0  0
   38.2460   24.3070   34.4080 C   0  0  0  0  0  0  0  0  0  0  0  0
   39.5080   22.6980   37.3020 C   0  0  0  0  0  0  0  0  0  0  0  0
   38.3950   23.1770   36.6530 C   0  0  0  0  0  0  0  0  0  0  0  0
   37.6030   23.6630   37.6340 N   0  0  0  0  0  0  0  0  0  0  0  0
   38.2220   23.4780   38.8120 C   0  0  0  0  0  0  0  0  0  0  0  0
   39.3840   22.8920   38.6480 N   0  0  0  0  0  0  0  0  0  0  0  0
   42.6960   20.8660   36.7360 C   0  0  0  0  0  0  0  0  0  0  0  0
   41.6270   21.4490   37.4040 C   0  0  0  0  0  0  0  0  0  0  0  0
   40.6430   22.0760   36.6410 C   0  0  0  0  0  0  0  0  0  0  0  0
   40.7900   22.0790   35.2640 N   0  0  0  0  0  0  0  0  0  0  0  0
   41.8470   21.5000   34.6690 C   0  0  0  0  0  0  0  0  0  0  0  0
   42.7960   20.8960   35.4000 N   0  0  0  0  0  0  0  0  0  0  0  0
   41.9900   21.5100   33.2520 N   0  0  0  0  0  0  0  0  0  0  0  0
   41.2620   20.7120   32.2870 C   0  0  0  0  0  0  0  0  0  0  0  0
   41.0880   21.5270   31.0420 C   0  0  0  0  0  0  0  0  0  0  0  0
   42.1520   22.5960   31.1530 C   0  0  0  0  0  0  0  0  0  0  0  0
   42.8900   22.3130   32.4420 C   0  0  0  0  0  0  0  0  0  0  0  0
   38.7630   25.5520   34.8880 C   0  0  0  0  0  0  0  0  0  0  0  0
   38.4980   26.5360   33.7220 C   0  0  0  0  0  0  0  0  0  0  0  0
   38.2970   26.2350   36.0740 C   0  0  0  0  0  0  0  0  0  0  0  0
   40.2820   25.4460   34.9690 C   0  0  0  0  0  0  0  0  0  0  0  0
   37.4718   21.1738   35.4607 H   0  0  0  0  0  0  0  0  0  0  0  0
   36.8333   20.8772   33.1119 H   0  0  0  0  0  0  0  0  0  0  0  0
   37.0811   22.7744   31.5113 H   0  0  0  0  0  0  0  0  0  0  0  0
   37.9678   24.8952   32.3581 H   0  0  0  0  0  0  0  0  0  0  0  0
   37.8086   23.7785   39.7861 H   0  0  0  0  0  0  0  0  0  0  0  0
   40.0604   22.6328   39.3802 H   0  0  0  0  0  0  0  0  0  0  0  0
   43.4826   20.3656   37.3199 H   0  0  0  0  0  0  0  0  0  0  0  0
   41.5588   21.4170   38.5014 H   0  0  0  0  0  0  0  0  0  0  0  0
   41.8282   19.7973   32.0572 H   0  0  0  0  0  0  0  0  0  0  0  0
   40.2810   20.4253   32.6937 H   0  0  0  0  0  0  0  0  0  0  0  0
   40.0846   21.9763   31.0058 H   0  0  0  0  0  0  0  0  0  0  0  0
   41.1853   20.9263   30.1256 H   0  0  0  0  0  0  0  0  0  0  0  0
   42.8410   22.5405   30.2974 H   0  0  0  0  0  0  0  0  0  0  0  0
   41.7131   23.6047   31.1517 H   0  0  0  0  0  0  0  0  0  0  0  0
   43.8175   21.7582   32.2373 H   0  0  0  0  0  0  0  0  0  0  0  0
   43.1727   23.2433   32.9565 H   0  0  0  0  0  0  0  0  0  0  0  0
   38.2322   27.5230   34.1284 H   0  0  0  0  0  0  0  0  0  0  0  0
   39.4040   26.6255   33.1047 H   0  0  0  0  0  0  0  0  0  0  0  0
   37.6695   26.1584   33.1047 H   0  0  0  0  0  0  0  0  0  0  0  0
   38.6583   25.7055   36.9679 H   0  0  0  0  0  0  0  0  0  0  0  0
   38.6810   27.2658   36.0782 H   0  0  0  0  0  0  0  0  0  0  0  0
   37.1972   26.2534   36.0782 H   0  0  0  0  0  0  0  0  0  0  0  0
   40.5923   25.4243   36.0241 H   0  0  0  0  0  0  0  0  0  0  0  0
   40.6122   24.5226   34.4707 H   0  0  0  0  0  0  0  0  0  0  0  0
   40.7373   26.3146   34.4707 H   0  0  0  0  0  0  0  0  0  0  0  0
  1  8  1  0
  2  1  2  0
  3  2  1  0
  4  5  1  0
  4  3  2  0
  5  6  2  0
  6 23  1  0
  6  1  1  0
  7 11  1  0
  8  7  2  0
  8  9  1  0
  9 10  2  0
 11 10  1  0
 12 13  2  0
 14  7  1  0
 14 13  1  0
 15 14  2  0
 16 15  1  0
 16 17  2  0
 17 12  1  0
 18 16  1  0
 19 18  1  0
 20 21  1  0
 20 19  1  0
 21 22  1  0
 22 18  1  0
 23 26  1  0
 23 25  1  0
 24 23  1  0
  2 27  1  0
  3 28  1  0
  4 29  1  0
  5 30  1  0
 10 31  1  0
 11 32  1  0
 12 33  1  0
 13 34  1  0
 19 35  1  0
 19 36  1  0
 20 37  1  0
 20 38  1  0
 21 39  1  0
 21 40  1  0
 22 41  1  0
 22 42  1  0
 24 43  1  0
 24 44  1  0
 24 45  1  0
 25 46  1  0
 25 47  1  0
 25 48  1  0
 26 49  1  0
 26 50  1  0
 26 51  1  0
M  ISO  8  27  14  28  14  29  14  30  14  31  14  32   9  33  14  34  14
M  ISO  8  35  13  36  13  37  13  38  13  39  13  40  13  41  13  42  13
M  ISO  8  43   8  44   8  45   8  46   8  47   8  48   8  49   8  50   8
M  ISO  1  51   8
M  END
>  <minimizedAffinity>  (1) 
-5.68418169

>  <minimizedRMSD>  (1) 
0.121693037

$$$$
