
     RDKit          3D

 41 43  0  0  1  0  0  0  0  0999 V2000
   38.7090   24.6850   34.3470 N   0  0  0  0  0  0  0  0  0  0  0  0
   39.4750   25.7550   33.7800 C   0  0  1  0  0  0  0  0  0  0  0  0
   38.5720   26.9320   33.4580 C   0  0  0  0  0  0  0  0  0  0  0  0
   37.2450   26.5540   33.5920 O   0  0  0  0  0  0  0  0  0  0  0  0
   37.0240   25.4470   32.7710 C   0  0  0  0  0  0  0  0  0  0  0  0
   37.6680   24.2600   33.4270 C   0  0  0  0  0  0  0  0  0  0  0  0
   38.4910   23.5630   37.9020 C   0  0  0  0  0  0  0  0  0  0  0  0
   38.1030   24.1790   36.7130 C   0  0  0  0  0  0  0  0  0  0  0  0
   38.9360   24.1280   35.6090 C   0  0  0  0  0  0  0  0  0  0  0  0
   40.0990   23.4730   35.7400 N   0  0  0  0  0  0  0  0  0  0  0  0
   40.4680   22.8810   36.8880 C   0  0  0  0  0  0  0  0  0  0  0  0
   39.6660   22.9240   37.9710 N   0  0  0  0  0  0  0  0  0  0  0  0
   41.7050   22.1910   37.0100 N   0  0  0  0  0  0  0  0  0  0  0  0
   43.0110   22.5970   36.5660 C   0  0  0  0  0  0  0  0  0  0  0  0
   43.5110   21.3600   35.8460 C   0  0  0  0  0  0  0  0  0  0  0  0
   43.0460   20.2520   36.7710 C   0  0  0  0  0  0  0  0  0  0  0  0
   41.9520   20.8930   37.6180 C   0  0  0  0  0  0  0  0  0  0  0  0
   40.4010   26.2060   34.7920 N   0  0  0  0  0  0  0  0  0  0  0  0
   41.7770   26.1360   34.5330 C   0  0  0  0  0  0  0  0  0  0  0  0
   42.0550   26.4550   33.2430 N   0  0  0  0  0  0  0  0  0  0  0  0
   42.8140   25.8620   35.1610 O   0  0  0  0  0  0  0  0  0  0  0  0
   39.9786   25.4033   32.8675 H   0  0  0  0  0  0  0  0  0  0  0  0
   38.7556   27.2616   32.4247 H   0  0  0  0  0  0  0  0  0  0  0  0
   38.7875   27.7569   34.1531 H   0  0  0  0  0  0  0  0  0  0  0  0
   37.4729   25.6182   31.7815 H   0  0  0  0  0  0  0  0  0  0  0  0
   35.9460   25.2758   32.6350 H   0  0  0  0  0  0  0  0  0  0  0  0
   36.9042   23.6952   33.9816 H   0  0  0  0  0  0  0  0  0  0  0  0
   38.1198   23.6272   32.6489 H   0  0  0  0  0  0  0  0  0  0  0  0
   37.8328   23.6018   38.7825 H   0  0  0  0  0  0  0  0  0  0  0  0
   37.1381   24.7037   36.6526 H   0  0  0  0  0  0  0  0  0  0  0  0
   42.9493   23.4570   35.8830 H   0  0  0  0  0  0  0  0  0  0  0  0
   43.6699   22.9256   37.3832 H   0  0  0  0  0  0  0  0  0  0  0  0
   43.0564   21.2661   34.8487 H   0  0  0  0  0  0  0  0  0  0  0  0
   44.5955   21.3601   35.6618 H   0  0  0  0  0  0  0  0  0  0  0  0
   42.6446   19.4064   36.1932 H   0  0  0  0  0  0  0  0  0  0  0  0
   43.8655   19.8481   37.3836 H   0  0  0  0  0  0  0  0  0  0  0  0
   42.2906   21.0130   38.6577 H   0  0  0  0  0  0  0  0  0  0  0  0
   41.0424   20.2751   37.6481 H   0  0  0  0  0  0  0  0  0  0  0  0
   40.0559   26.5734   35.6902 H   0  0  0  0  0  0  0  0  0  0  0  0
   43.0292   26.4461   32.9087 H   0  0  0  0  0  0  0  0  0  0  0  0
   41.2917   26.7060   32.5986 H   0  0  0  0  0  0  0  0  0  0  0  0
  1  9  1  0
  2  1  1  0
  2 18  1  0
  3  4  1  0
  3  2  1  0
  5  6  1  0
  5  4  1  0
  6  1  1  0
  7 12  2  0
  8  7  1  0
  9 10  1  0
  9  8  2  0
 10 11  2  0
 11 13  1  0
 11 12  1  0
 13 17  1  0
 14 13  1  0
 15 14  1  0
 15 16  1  0
 16 17  1  0
 19 18  1  0
 19 21  2  0
 20 19  1  0
  2 22  1  6
  3 23  1  0
  3 24  1  0
  5 25  1  0
  5 26  1  0
  6 27  1  0
  6 28  1  0
  7 29  1  0
  8 30  1  0
 14 31  1  0
 14 32  1  0
 15 33  1  0
 15 34  1  0
 16 35  1  0
 16 36  1  0
 17 37  1  0
 17 38  1  0
 18 39  1  0
 20 40  1  0
 20 41  1  0
M  ISO  8  22  13  23  13  24  13  25  13  26  13  27  13  28  13  29  14
M  ISO  8  30  14  31  13  32  13  33  13  34  13  35  13  36  13  37  13
M  ISO  1  38  13
M  END
>  <minimizedAffinity>  (1) 
-4.75318956

>  <minimizedRMSD>  (1) 
1.06130075

$$$$
