
     RDKit          3D

 45 48  0  0  1  0  0  0  0  0999 V2000
   42.6190   22.0910   33.6210 C   0  0  1  0  0  0  0  0  0  0  0  0
   42.0710   20.9510   32.8100 C   0  0  0  0  0  0  0  0  0  0  0  0
   42.2350   21.1220   31.3350 C   0  0  0  0  0  0  0  0  0  0  0  0
   42.0830   22.5400   30.9160 C   0  0  0  0  0  0  0  0  0  0  0  0
   41.2890   23.2990   31.9450 C   0  0  0  0  0  0  0  0  0  0  0  0
   42.0900   23.4480   33.2020 C   0  0  2  0  0  0  0  0  0  0  0  0
   42.5200   20.8190   37.0400 C   0  0  0  0  0  0  0  0  0  0  0  0
   41.3790   21.4350   37.5830 C   0  0  0  0  0  0  0  0  0  0  0  0
   40.6340   22.2930   36.7670 C   0  0  0  0  0  0  0  0  0  0  0  0
   41.0790   22.4690   35.4910 N   0  0  0  0  0  0  0  0  0  0  0  0
   42.1690   21.8640   35.0160 C   0  0  0  0  0  0  0  0  0  0  0  0
   42.8810   21.0510   35.7740 N   0  0  0  0  0  0  0  0  0  0  0  0
   39.4620   22.9170   37.3370 C   0  0  0  0  0  0  0  0  0  0  0  0
   38.5630   23.7040   36.5940 C   0  0  0  0  0  0  0  0  0  0  0  0
   37.6060   24.1080   37.4780 N   0  0  0  0  0  0  0  0  0  0  0  0
   37.9430   23.5750   38.6800 C   0  0  0  0  0  0  0  0  0  0  0  0
   39.0410   22.8630   38.6290 N   0  0  0  0  0  0  0  0  0  0  0  0
   43.1330   24.4140   32.9850 N   0  0  0  0  0  0  0  0  0  0  0  0
   43.9340   24.6680   34.1650 C   0  0  0  0  0  0  0  0  0  0  0  0
   43.0990   25.4300   35.1450 C   0  0  0  0  0  0  0  0  0  0  0  0
   42.1250   26.1420   34.2660 C   0  0  0  0  0  0  0  0  0  0  0  0
   42.5290   25.7290   32.8440 C   0  0  0  0  0  0  0  0  0  0  0  0
   43.7107   22.1086   33.4876 H   0  0  0  0  0  0  0  0  0  0  0  0
   42.5915   20.0301   33.1116 H   0  0  0  0  0  0  0  0  0  0  0  0
   40.9897   20.9100   33.0078 H   0  0  0  0  0  0  0  0  0  0  0  0
   43.2374   20.7725   31.0467 H   0  0  0  0  0  0  0  0  0  0  0  0
   41.4491   20.5355   30.8366 H   0  0  0  0  0  0  0  0  0  0  0  0
   43.0778   22.9980   30.8131 H   0  0  0  0  0  0  0  0  0  0  0  0
   41.5536   22.5768   29.9525 H   0  0  0  0  0  0  0  0  0  0  0  0
   41.0404   24.2955   31.5511 H   0  0  0  0  0  0  0  0  0  0  0  0
   40.3652   22.7454   32.1688 H   0  0  0  0  0  0  0  0  0  0  0  0
   41.4660   23.8217   34.0272 H   0  0  0  0  0  0  0  0  0  0  0  0
   43.1212   20.1400   37.6625 H   0  0  0  0  0  0  0  0  0  0  0  0
   41.0792   21.2469   38.6245 H   0  0  0  0  0  0  0  0  0  0  0  0
   38.6201   23.9439   35.5220 H   0  0  0  0  0  0  0  0  0  0  0  0
   37.3567   23.7250   39.5985 H   0  0  0  0  0  0  0  0  0  0  0  0
   39.4933   22.3640   39.4083 H   0  0  0  0  0  0  0  0  0  0  0  0
   44.2527   23.7141   34.6105 H   0  0  0  0  0  0  0  0  0  0  0  0
   44.8289   25.2490   33.8975 H   0  0  0  0  0  0  0  0  0  0  0  0
   42.5830   24.7501   35.8390 H   0  0  0  0  0  0  0  0  0  0  0  0
   43.6856   26.1072   35.7832 H   0  0  0  0  0  0  0  0  0  0  0  0
   41.0954   25.8240   34.4869 H   0  0  0  0  0  0  0  0  0  0  0  0
   42.1464   27.2323   34.4101 H   0  0  0  0  0  0  0  0  0  0  0  0
   43.2537   26.4434   32.4262 H   0  0  0  0  0  0  0  0  0  0  0  0
   41.6675   25.7141   32.1602 H   0  0  0  0  0  0  0  0  0  0  0  0
  1 11  1  0
  2  1  1  0
  3  2  1  0
  4  3  1  0
  4  5  1  0
  5  6  1  0
  6  1  1  0
  7  8  2  0
  9 13  1  0
  9  8  1  0
 10  9  2  0
 11 10  1  0
 11 12  2  0
 12  7  1  0
 13 17  1  0
 14 13  2  0
 14 15  1  0
 15 16  2  0
 17 16  1  0
 18  6  1  0
 18 19  1  0
 19 20  1  0
 21 20  1  0
 22 18  1  0
 22 21  1  0
  1 23  1  1
  2 24  1  0
  2 25  1  0
  3 26  1  0
  3 27  1  0
  4 28  1  0
  4 29  1  0
  5 30  1  0
  5 31  1  0
  6 32  1  1
  7 33  1  0
  8 34  1  0
 14 35  1  0
 16 36  1  0
 17 37  1  0
 19 38  1  0
 19 39  1  0
 20 40  1  0
 20 41  1  0
 21 42  1  0
 21 43  1  0
 22 44  1  0
 22 45  1  0
M  ISO  8  23  13  24  13  25  13  26  13  27  13  28  13  29  13  30  13
M  ISO  8  31  13  32  13  33  14  34  14  35  14  36  14  37   9  38  13
M  ISO  7  39  13  40  13  41  13  42  13  43  13  44  13  45  13
M  END
>  <minimizedAffinity>  (1) 
-4.24080563

>  <minimizedRMSD>  (1) 
1.48457348

$$$$
