
     RDKit          3D

 48 51  0  0  1  0  0  0  0  0999 V2000
   42.7950   23.8790   33.9200 C   0  0  0  0  0  0  0  0  0  0  0  0
   41.8600   24.5010   34.7240 C   0  0  0  0  0  0  0  0  0  0  0  0
   40.6620   24.9350   34.1940 C   0  0  0  0  0  0  0  0  0  0  0  0
   40.4660   24.7210   32.8570 N   0  0  0  0  0  0  0  0  0  0  0  0
   41.3920   24.1170   32.0990 C   0  0  0  0  0  0  0  0  0  0  0  0
   42.5430   23.6960   32.6080 N   0  0  0  0  0  0  0  0  0  0  0  0
   41.1680   23.9210   30.6400 C   0  0  1  0  0  0  0  0  0  0  0  0
   40.9030   22.4570   30.4510 C   0  0  0  0  0  0  0  0  0  0  0  0
   40.4200   22.1160   29.0720 C   0  0  0  0  0  0  0  0  0  0  0  0
   39.5270   23.1490   28.5010 C   0  0  0  0  0  0  0  0  0  0  0  0
   38.9500   23.9950   29.5800 C   0  0  0  0  0  0  0  0  0  0  0  0
   40.0300   24.8210   30.2450 C   0  0  2  0  0  0  0  0  0  0  0  0
   40.4760   26.0050   29.3930 C   0  0  0  0  0  0  0  0  0  0  0  0
   40.8390   27.0010   30.3140 F   0  0  0  0  0  0  0  0  0  0  0  0
   41.5750   25.7510   28.6320 F   0  0  0  0  0  0  0  0  0  0  0  0
   39.3890   26.4430   28.6960 F   0  0  0  0  0  0  0  0  0  0  0  0
   39.6900   25.5590   35.0620 C   0  0  0  0  0  0  0  0  0  0  0  0
   39.5950   26.9430   35.2610 C   0  0  0  0  0  0  0  0  0  0  0  0
   38.5940   27.1430   36.1530 N   0  0  0  0  0  0  0  0  0  0  0  0
   38.1280   25.9200   36.4590 C   0  0  0  0  0  0  0  0  0  0  0  0
   38.7560   24.9740   35.8280 N   0  0  0  0  0  0  0  0  0  0  0  0
   39.4960   22.8080   36.3730 N   0  0  0  0  0  0  0  0  0  0  0  0
   39.8220   23.0970   37.7550 C   0  0  0  0  0  0  0  0  0  0  0  0
   38.4730   23.1810   38.4260 C   0  0  0  0  0  0  0  0  0  0  0  0
   37.5200   23.4850   37.3250 C   0  0  0  0  0  0  0  0  0  0  0  0
   38.3700   23.6150   36.0210 C   0  0  1  0  0  0  0  0  0  0  0  0
   43.7462   23.5325   34.3503 H   0  0  0  0  0  0  0  0  0  0  0  0
   42.0715   24.6513   35.7930 H   0  0  0  0  0  0  0  0  0  0  0  0
   42.0196   24.1885   29.9972 H   0  0  0  0  0  0  0  0  0  0  0  0
   41.8358   21.9057   30.6408 H   0  0  0  0  0  0  0  0  0  0  0  0
   40.1058   22.1760   31.1549 H   0  0  0  0  0  0  0  0  0  0  0  0
   41.2931   22.0037   28.4124 H   0  0  0  0  0  0  0  0  0  0  0  0
   39.8401   21.1843   29.1471 H   0  0  0  0  0  0  0  0  0  0  0  0
   40.1029   23.7844   27.8121 H   0  0  0  0  0  0  0  0  0  0  0  0
   38.7068   22.6514   27.9629 H   0  0  0  0  0  0  0  0  0  0  0  0
   38.1953   24.6681   29.1470 H   0  0  0  0  0  0  0  0  0  0  0  0
   38.4887   23.3410   30.3347 H   0  0  0  0  0  0  0  0  0  0  0  0
   39.6142   25.2769   31.1557 H   0  0  0  0  0  0  0  0  0  0  0  0
   40.2137   27.7180   34.7849 H   0  0  0  0  0  0  0  0  0  0  0  0
   37.3050   25.7399   37.1663 H   0  0  0  0  0  0  0  0  0  0  0  0
   40.2967   23.0376   35.7671 H   0  0  0  0  0  0  0  0  0  0  0  0
   40.4290   22.2907   38.1925 H   0  0  0  0  0  0  0  0  0  0  0  0
   40.4160   24.0154   37.8716 H   0  0  0  0  0  0  0  0  0  0  0  0
   38.2185   22.2245   38.9059 H   0  0  0  0  0  0  0  0  0  0  0  0
   38.4497   23.9439   39.2182 H   0  0  0  0  0  0  0  0  0  0  0  0
   36.7880   22.6705   37.2211 H   0  0  0  0  0  0  0  0  0  0  0  0
   36.9619   24.4108   37.5282 H   0  0  0  0  0  0  0  0  0  0  0  0
   37.8644   23.3149   35.0913 H   0  0  0  0  0  0  0  0  0  0  0  0
  1  2  2  0
  3  2  1  0
  3 17  1  0
  4  3  2  0
  5  6  2  0
  5  4  1  0
  6  1  1  0
  7  5  1  0
  8  7  1  0
  9  8  1  0
 10  9  1  0
 10 11  1  0
 11 12  1  0
 12  7  1  0
 13 12  1  0
 13 14  1  0
 15 13  1  0
 16 13  1  0
 17 18  2  0
 17 21  1  0
 18 19  1  0
 19 20  2  0
 21 20  1  0
 22 23  1  0
 23 24  1  0
 25 24  1  0
 26 21  1  0
 26 22  1  0
 26 25  1  0
  1 27  1  0
  2 28  1  0
  7 29  1  6
  8 30  1  0
  8 31  1  0
  9 32  1  0
  9 33  1  0
 10 34  1  0
 10 35  1  0
 11 36  1  0
 11 37  1  0
 12 38  1  1
 18 39  1  0
 20 40  1  0
 22 41  1  0
 23 42  1  0
 23 43  1  0
 24 44  1  0
 24 45  1  0
 25 46  1  0
 25 47  1  0
 26 48  1  6
M  ISO  8  27  14  28  14  29  13  30  13  31  13  32  13  33  13  34  13
M  ISO  8  35  13  36  13  37  13  38  13  39  14  40  14  41   5  42  13
M  ISO  6  43  13  44  13  45  13  46  13  47  13  48  13
M  END
>  <minimizedAffinity>  (1) 
-4.34024715

>  <minimizedRMSD>  (1) 
3.99230051

$$$$
