
     RDKit          3D

 32 33  0  0  1  0  0  0  0  0999 V2000
   38.0100   24.5480   33.7860 N   0  0  0  0  0  0  0  0  0  0  0  0
   37.3790   23.8150   32.7240 C   0  0  0  0  0  0  0  0  0  0  0  0
   36.7730   24.8810   31.8220 C   0  0  0  0  0  0  0  0  0  0  0  0
   37.2090   26.2010   32.4550 C   0  0  0  0  0  0  0  0  0  0  0  0
   38.5030   25.7010   33.1000 C   0  0  1  0  0  0  0  0  0  0  0  0
   39.0320   26.7470   33.9080 N   0  0  0  0  0  0  0  0  0  0  0  0
   38.1790   27.1760   34.9880 C   0  0  0  0  0  0  0  0  0  0  0  0
   36.8770   27.0850   35.0100 N   0  0  0  0  0  0  0  0  0  0  0  0
   38.6420   27.7760   36.2140 N   0  0  0  0  0  0  0  0  0  0  0  0
   36.3610   26.6760   34.2060 H   0  0  0  0  0  0  0  0  0  0  0  0
   39.1590   23.8600   34.3370 C   0  0  0  0  0  0  0  0  0  0  0  0
   37.7710   23.7140   37.8490 C   0  0  0  0  0  0  0  0  0  0  0  0
   37.8310   23.9600   36.4670 C   0  0  0  0  0  0  0  0  0  0  0  0
   39.0200   23.6270   35.8050 C   0  0  0  0  0  0  0  0  0  0  0  0
   40.0560   23.0860   36.5230 N   0  0  0  0  0  0  0  0  0  0  0  0
   39.9380   22.8720   37.8580 C   0  0  0  0  0  0  0  0  0  0  0  0
   38.8070   23.1840   38.5040 N   0  0  0  0  0  0  0  0  0  0  0  0
   38.1195   23.2165   32.1731 H   0  0  0  0  0  0  0  0  0  0  0  0
   36.6228   23.1095   33.0988 H   0  0  0  0  0  0  0  0  0  0  0  0
   35.6761   24.8001   31.8052 H   0  0  0  0  0  0  0  0  0  0  0  0
   37.1034   24.7858   30.7771 H   0  0  0  0  0  0  0  0  0  0  0  0
   37.3916   26.9842   31.7045 H   0  0  0  0  0  0  0  0  0  0  0  0
   36.4834   26.6794   33.1293 H   0  0  0  0  0  0  0  0  0  0  0  0
   39.3515   25.4370   32.4517 H   0  0  0  0  0  0  0  0  0  0  0  0
   39.9564   27.1665   33.7337 H   0  0  0  0  0  0  0  0  0  0  0  0
   37.9651   28.0554   36.9383 H   0  0  0  0  0  0  0  0  0  0  0  0
   39.6497   27.9253   36.3658 H   0  0  0  0  0  0  0  0  0  0  0  0
   39.2674   22.8888   33.8319 H   0  0  0  0  0  0  0  0  0  0  0  0
   40.0439   24.4932   34.1756 H   0  0  0  0  0  0  0  0  0  0  0  0
   36.8532   23.9627   38.4020 H   0  0  0  0  0  0  0  0  0  0  0  0
   36.9784   24.3967   35.9263 H   0  0  0  0  0  0  0  0  0  0  0  0
   40.7807   22.4374   38.4157 H   0  0  0  0  0  0  0  0  0  0  0  0
  1 11  1  0
  2  1  1  0
  3  4  1  0
  3  2  1  0
  4  5  1  0
  5  1  1  0
  5  6  1  0
  6  7  1  0
  7  8  2  0
  7  9  1  0
 10  8  1  0
 11 14  1  0
 12 17  2  0
 13 12  1  0
 14 13  2  0
 14 15  1  0
 15 16  2  0
 16 17  1  0
  2 18  1  0
  2 19  1  0
  3 20  1  0
  3 21  1  0
  4 22  1  0
  4 23  1  0
  5 24  1  6
  6 25  1  0
  9 26  1  0
  9 27  1  0
 11 28  1  0
 11 29  1  0
 12 30  1  0
 13 31  1  0
 16 32  1  0
M  ISO  8  18  13  19  13  20  13  21  13  22  13  23  13  24  13  28   8
M  ISO  4  29   8  30  14  31  14  32  14
M  END
>  <minimizedAffinity>  (1) 
-4.36392879

>  <minimizedRMSD>  (1) 
1.22918582

$$$$
