
     RDKit          3D

 35 37  0  0  0  0  0  0  0  0999 V2000
   37.8800   26.0020   35.8260 C   0  0  0  0  0  0  0  0  0  0  0  0
   38.4030   26.9610   36.4220 O   0  0  0  0  0  0  0  0  0  0  0  0
   37.5440   26.1090   34.3990 C   0  0  0  0  0  0  0  0  0  0  0  0
   37.7720   25.0230   33.5820 C   0  0  0  0  0  0  0  0  0  0  0  0
   37.4480   25.1400   32.2280 C   0  0  0  0  0  0  0  0  0  0  0  0
   36.9340   26.3130   31.8200 N   0  0  0  0  0  0  0  0  0  0  0  0
   36.7170   27.3570   32.6220 C   0  0  0  0  0  0  0  0  0  0  0  0
   37.0240   27.2550   33.9180 N   0  0  0  0  0  0  0  0  0  0  0  0
   36.1620   28.5210   32.0290 N   0  0  0  0  0  0  0  0  0  0  0  0
   36.4350   28.8110   30.6660 C   0  0  0  0  0  0  0  0  0  0  0  0
   36.4630   27.8710   29.7870 N   0  0  0  0  0  0  0  0  0  0  0  0
   36.6820   30.1580   30.2310 N   0  0  0  0  0  0  0  0  0  0  0  0
   36.2960   26.8690   29.9950 H   0  0  0  0  0  0  0  0  0  0  0  0
   37.6040   24.8150   36.4930 O   0  0  0  0  0  0  0  0  0  0  0  0
   39.6930   22.5950   38.2740 N   0  0  0  0  0  0  0  0  0  0  0  0
   38.6070   23.3570   38.1230 N   0  0  0  0  0  0  0  0  0  0  0  0
   38.6440   23.9500   36.9040 C   0  0  0  0  0  0  0  0  0  0  0  0
   39.7940   23.5490   36.2530 C   0  0  0  0  0  0  0  0  0  0  0  0
   40.4200   22.7070   37.1370 C   0  0  0  0  0  0  0  0  0  0  0  0
   41.6980   22.0270   36.8830 C   0  0  0  0  0  0  0  0  0  0  0  0
   42.7120   22.7250   36.2390 C   0  0  0  0  0  0  0  0  0  0  0  0
   43.8780   22.0140   36.0410 C   0  0  0  0  0  0  0  0  0  0  0  0
   44.0910   20.7290   36.4180 N   0  0  0  0  0  0  0  0  0  0  0  0
   43.0770   20.0980   37.0380 C   0  0  0  0  0  0  0  0  0  0  0  0
   41.9220   20.7620   37.2490 N   0  0  0  0  0  0  0  0  0  0  0  0
   38.1966   24.0913   33.9841 H   0  0  0  0  0  0  0  0  0  0  0  0
   37.6067   24.3080   31.5261 H   0  0  0  0  0  0  0  0  0  0  0  0
   35.5652   29.1512   32.5836 H   0  0  0  0  0  0  0  0  0  0  0  0
   36.8785   30.3508   29.2385 H   0  0  0  0  0  0  0  0  0  0  0  0
   36.6626   30.9308   30.9117 H   0  0  0  0  0  0  0  0  0  0  0  0
   39.9327   22.0284   39.1001 H   0  0  0  0  0  0  0  0  0  0  0  0
   40.1331   23.8403   35.2479 H   0  0  0  0  0  0  0  0  0  0  0  0
   42.5940   23.7683   35.9109 H   0  0  0  0  0  0  0  0  0  0  0  0
   44.7047   22.5337   35.5344 H   0  0  0  0  0  0  0  0  0  0  0  0
   43.1885   19.0547   37.3683 H   0  0  0  0  0  0  0  0  0  0  0  0
  1  2  2  0
  1 14  1  0
  3  1  1  0
  4  3  2  0
  5  4  1  0
  6  5  2  0
  6  7  1  0
  7  8  2  0
  8  3  1  0
  9  7  1  0
 10  9  1  0
 11 13  1  0
 11 10  2  0
 12 10  1  0
 14 17  1  0
 16 15  1  0
 17 16  2  0
 18 17  1  0
 18 19  2  0
 19 15  1  0
 20 19  1  0
 20 25  1  0
 21 20  2  0
 22 21  1  0
 22 23  2  0
 23 24  1  0
 24 25  2  0
  4 26  1  0
  5 27  1  0
  9 28  1  0
 12 29  1  0
 12 30  1  0
 15 31  1  0
 18 32  1  0
 21 33  1  0
 22 34  1  0
 24 35  1  0
M  ISO  7  26  14  27  14  31   9  32  14  33  14  34  14  35  14
M  END
>  <minimizedAffinity>  (1) 
-6.09102345

>  <minimizedRMSD>  (1) 
0.805482686

$$$$
