
     RDKit          3D

 31 33  0  0  0  0  0  0  0  0999 V2000
   36.6600   25.6480   31.9600 C   0  0  0  0  0  0  0  0  0  0  0  0
   37.4570   24.8600   32.7480 C   0  0  0  0  0  0  0  0  0  0  0  0
   37.2170   23.5090   32.7410 C   0  0  0  0  0  0  0  0  0  0  0  0
   36.2350   22.9100   31.9980 C   0  0  0  0  0  0  0  0  0  0  0  0
   35.4410   23.7430   31.2070 C   0  0  0  0  0  0  0  0  0  0  0  0
   35.6300   25.1240   31.1660 C   0  0  0  0  0  0  0  0  0  0  0  0
   35.4430   19.5380   33.2050 C   0  0  0  0  0  0  0  0  0  0  0  0
   35.6650   18.7490   32.0480 C   0  0  0  0  0  0  0  0  0  0  0  0
   36.0850   19.4010   30.8770 C   0  0  0  0  0  0  0  0  0  0  0  0
   36.2530   20.7410   30.9170 N   0  0  0  0  0  0  0  0  0  0  0  0
   36.0310   21.4600   32.0380 C   0  0  0  0  0  0  0  0  0  0  0  0
   35.6320   20.8760   33.1680 N   0  0  0  0  0  0  0  0  0  0  0  0
   36.9160   27.3580   31.9280 S   0  0  0  0  0  0  0  0  0  0  0  0
   36.5560   27.9860   30.6200 O   0  0  0  0  0  0  0  0  0  0  0  0
   36.1420   27.9420   33.0800 O   0  0  0  0  0  0  0  0  0  0  0  0
   38.7480   25.4980   33.7720 S   0  0  0  0  0  0  0  0  0  0  0  0
   38.6890   24.7060   35.3240 C   0  0  0  0  0  0  0  0  0  0  0  0
   37.8630   24.8390   36.3740 C   0  0  0  0  0  0  0  0  0  0  0  0
   37.9910   24.1060   37.5240 C   0  0  0  0  0  0  0  0  0  0  0  0
   39.0860   23.1850   37.5020 C   0  0  0  0  0  0  0  0  0  0  0  0
   39.8790   23.3890   35.8850 S   0  0  0  0  0  0  0  0  0  0  0  0
   37.8520   22.8682   33.3705 H   0  0  0  0  0  0  0  0  0  0  0  0
   34.6418   23.2960   30.5975 H   0  0  0  0  0  0  0  0  0  0  0  0
   35.0000   25.7725   30.5395 H   0  0  0  0  0  0  0  0  0  0  0  0
   35.1148   19.0582   34.1388 H   0  0  0  0  0  0  0  0  0  0  0  0
   35.5130   17.6597   32.0669 H   0  0  0  0  0  0  0  0  0  0  0  0
   36.2721   18.8358   29.9521 H   0  0  0  0  0  0  0  0  0  0  0  0
   38.2527   27.6258   32.0633 H   0  0  0  0  0  0  0  0  0  0  0  0
   37.0448   25.5712   36.3076 H   0  0  0  0  0  0  0  0  0  0  0  0
   37.3148   24.2152   38.3847 H   0  0  0  0  0  0  0  0  0  0  0  0
   39.3856   22.4937   38.3035 H   0  0  0  0  0  0  0  0  0  0  0  0
  1  2  2  0
  2 16  1  0
  3  2  1  0
  4 11  1  0
  4  3  2  0
  5  4  1  0
  6  5  2  0
  6  1  1  0
  8  7  2  0
  9 10  2  0
  9  8  1  0
 10 11  1  0
 11 12  2  0
 12  7  1  0
 13  1  1  0
 13 15  2  0
 14 13  2  0
 16 17  1  0
 17 21  1  0
 17 18  2  0
 18 19  1  0
 20 19  2  0
 21 20  1  0
  3 22  1  0
  5 23  1  0
  6 24  1  0
  7 25  1  0
  8 26  1  0
  9 27  1  0
 13 28  1  0
 18 29  1  0
 19 30  1  0
 20 31  1  0
M  ISO  8  22  14  23  14  24  14  25  14  26  14  27  14  28  11  29  14
M  ISO  2  30  14  31  14
M  END
>  <minimizedAffinity>  (1) 
-5.20694876

>  <minimizedRMSD>  (1) 
6.86228085

$$$$
