
     RDKit          3D

 27 28  0  0  1  0  0  0  0  0999 V2000
   38.0530   22.9780   34.6680 C   0  0  2  0  0  0  0  0  0  0  0  0
   39.1930   23.1330   33.6930 C   0  0  0  0  0  0  0  0  0  0  0  0
   38.0860   24.1610   33.7790 C   0  0  2  0  0  0  0  0  0  0  0  0
   39.9650   22.7720   37.8050 C   0  0  0  0  0  0  0  0  0  0  0  0
   39.0690   23.2880   38.7640 C   0  0  0  0  0  0  0  0  0  0  0  0
   37.8080   23.7010   38.3060 C   0  0  0  0  0  0  0  0  0  0  0  0
   37.5180   23.5870   36.9930 N   0  0  0  0  0  0  0  0  0  0  0  0
   38.4280   23.0770   36.0920 C   0  0  0  0  0  0  0  0  0  0  0  0
   39.6440   22.6730   36.5060 N   0  0  0  0  0  0  0  0  0  0  0  0
   38.5840   25.5100   34.2120 C   0  0  0  0  0  0  0  0  0  0  0  0
   37.5690   26.5150   34.0250 N   0  0  0  0  0  0  0  0  0  0  0  0
   37.3570   27.6180   34.8950 C   0  0  0  0  0  0  0  0  0  0  0  0
   38.1760   27.6790   35.8860 N   0  0  0  0  0  0  0  0  0  0  0  0
   36.2820   28.5330   34.5930 N   0  0  0  0  0  0  0  0  0  0  0  0
   38.1790   28.4090   36.6240 H   0  0  0  0  0  0  0  0  0  0  0  0
   37.2665   22.2397   34.8831 H   0  0  0  0  0  0  0  0  0  0  0  0
   39.2669   22.4708   32.8177 H   0  0  0  0  0  0  0  0  0  0  0  0
   40.2905   23.1526   33.7643 H   0  0  0  0  0  0  0  0  0  0  0  0
   37.2983   24.6002   33.1493 H   0  0  0  0  0  0  0  0  0  0  0  0
   40.9609   22.4394   38.1331 H   0  0  0  0  0  0  0  0  0  0  0  0
   39.3465   23.3636   39.8257 H   0  0  0  0  0  0  0  0  0  0  0  0
   37.0668   24.1117   39.0074 H   0  0  0  0  0  0  0  0  0  0  0  0
   38.8583   25.4684   35.2764 H   0  0  0  0  0  0  0  0  0  0  0  0
   39.4592   25.7753   33.6007 H   0  0  0  0  0  0  0  0  0  0  0  0
   36.9541   26.4278   33.2033 H   0  0  0  0  0  0  0  0  0  0  0  0
   36.1059   29.3412   35.2068 H   0  0  0  0  0  0  0  0  0  0  0  0
   35.6911   28.3777   33.7638 H   0  0  0  0  0  0  0  0  0  0  0  0
  1  8  1  0
  2  3  1  0
  2  1  1  0
  3 10  1  0
  3  1  1  0
  4  5  2  0
  6  5  1  0
  7  6  2  0
  8  9  2  0
  8  7  1  0
  9  4  1  0
 11 10  1  0
 11 12  1  0
 12 13  2  0
 13 15  1  0
 14 12  1  0
  1 16  1  1
  2 17  1  0
  2 18  1  0
  3 19  1  6
  4 20  1  0
  5 21  1  0
  6 22  1  0
 10 23  1  0
 10 24  1  0
 11 25  1  0
 14 26  1  0
 14 27  1  0
M  ISO  8  16  13  17  13  18  13  19  13  20  14  21  14  22  14  23   8
M  ISO  1  24   8
M  END
>  <minimizedAffinity>  (1) 
-3.91519952

>  <minimizedRMSD>  (1) 
1.95721304

$$$$
