
     RDKit          3D

 32 34  0  0  0  0  0  0  0  0999 V2000
   40.7020   21.9960   37.5190 O   0  0  0  0  0  0  0  0  0  0  0  0
   39.6590   22.8440   37.2720 C   0  0  0  0  0  0  0  0  0  0  0  0
   38.9460   23.3230   38.3890 C   0  0  0  0  0  0  0  0  0  0  0  0
   37.8830   24.1880   38.1290 C   0  0  0  0  0  0  0  0  0  0  0  0
   37.5960   24.5160   36.8550 N   0  0  0  0  0  0  0  0  0  0  0  0
   38.3070   24.0340   35.8000 C   0  0  0  0  0  0  0  0  0  0  0  0
   39.3360   23.2010   36.0050 N   0  0  0  0  0  0  0  0  0  0  0  0
   37.9620   24.4130   34.4730 N   0  0  0  0  0  0  0  0  0  0  0  0
   37.6710   25.7750   34.1300 C   0  0  0  0  0  0  0  0  0  0  0  0
   37.0910   26.4920   35.0550 N   0  0  0  0  0  0  0  0  0  0  0  0
   38.0400   26.2140   32.8180 N   0  0  0  0  0  0  0  0  0  0  0  0
   36.8780   27.4920   34.8020 H   0  0  0  0  0  0  0  0  0  0  0  0
   41.9520   22.0610   36.9780 C   0  0  0  0  0  0  0  0  0  0  0  0
   42.5670   23.1970   36.4680 C   0  0  0  0  0  0  0  0  0  0  0  0
   43.8050   22.9150   36.0100 N   0  0  0  0  0  0  0  0  0  0  0  0
   44.0480   21.6080   36.1970 C   0  0  0  0  0  0  0  0  0  0  0  0
   45.1390   20.8080   35.9170 C   0  0  0  0  0  0  0  0  0  0  0  0
   45.1040   19.4530   36.2320 C   0  0  0  0  0  0  0  0  0  0  0  0
   43.9600   18.9100   36.8340 C   0  0  0  0  0  0  0  0  0  0  0  0
   42.8780   19.7360   37.1050 C   0  0  0  0  0  0  0  0  0  0  0  0
   42.9130   21.0830   36.7910 C   0  0  0  0  0  0  0  0  0  0  0  0
   39.2142   23.0295   39.4146 H   0  0  0  0  0  0  0  0  0  0  0  0
   37.2852   24.5980   38.9564 H   0  0  0  0  0  0  0  0  0  0  0  0
   37.9201   23.6909   33.7397 H   0  0  0  0  0  0  0  0  0  0  0  0
   37.8507   27.1838   32.5272 H   0  0  0  0  0  0  0  0  0  0  0  0
   38.4947   25.5600   32.1650 H   0  0  0  0  0  0  0  0  0  0  0  0
   42.1058   24.1953   36.4409 H   0  0  0  0  0  0  0  0  0  0  0  0
   44.4562   23.5914   35.5866 H   0  0  0  0  0  0  0  0  0  0  0  0
   46.0336   21.2413   35.4460 H   0  0  0  0  0  0  0  0  0  0  0  0
   45.9693   18.8112   36.0099 H   0  0  0  0  0  0  0  0  0  0  0  0
   43.9204   17.8407   37.0888 H   0  0  0  0  0  0  0  0  0  0  0  0
   41.9787   19.3131   37.5767 H   0  0  0  0  0  0  0  0  0  0  0  0
  2  1  1  0
  2  3  2  0
  4  3  1  0
  5  4  2  0
  6  7  2  0
  6  5  1  0
  7  2  1  0
  8  6  1  0
  9  8  1  0
  9 10  2  0
 11  9  1  0
 12 10  1  0
 13  1  1  0
 14 13  2  0
 15 16  1  0
 15 14  1  0
 16 21  2  0
 17 16  1  0
 17 18  2  0
 18 19  1  0
 19 20  2  0
 21 13  1  0
 21 20  1  0
  3 22  1  0
  4 23  1  0
  8 24  1  0
 11 25  1  0
 11 26  1  0
 14 27  1  0
 15 28  1  0
 17 29  1  0
 18 30  1  0
 19 31  1  0
 20 32  1  0
M  ISO  8  22  14  23  14  27  14  28   9  29  14  30  14  31  14  32  14
M  END
>  <minimizedAffinity>  (1) 
-5.04641962

>  <minimizedRMSD>  (1) 
0.604631066

$$$$
