
     RDKit          3D

 44 48  0  0  0  0  0  0  0  0999 V2000
   37.1720   24.5940   31.7350 C   0  0  0  0  0  0  0  0  0  0  0  0
   36.5750   25.8480   31.7800 C   0  0  0  0  0  0  0  0  0  0  0  0
   36.9580   26.6310   32.8670 C   0  0  0  0  0  0  0  0  0  0  0  0
   37.8260   26.1350   33.7370 N   0  0  0  0  0  0  0  0  0  0  0  0
   38.3920   24.9450   33.6960 C   0  0  0  0  0  0  0  0  0  0  0  0
   38.0350   24.2050   32.6700 N   0  0  0  0  0  0  0  0  0  0  0  0
   36.4340   27.9310   33.0450 N   0  0  0  0  0  0  0  0  0  0  0  0
   36.4520   28.9450   32.1630 C   0  0  0  0  0  0  0  0  0  0  0  0
   35.8730   30.0080   32.6740 N   0  0  0  0  0  0  0  0  0  0  0  0
   35.4660   29.7040   33.9020 C   0  0  0  0  0  0  0  0  0  0  0  0
   35.8230   28.4090   34.1210 N   0  0  0  0  0  0  0  0  0  0  0  0
   39.3470   24.2870   34.5700 C   0  0  0  0  0  0  0  0  0  0  0  0
   40.6060   23.9280   34.1330 C   0  0  0  0  0  0  0  0  0  0  0  0
   41.5460   23.3060   34.9220 C   0  0  0  0  0  0  0  0  0  0  0  0
   41.2530   23.0030   36.2380 C   0  0  0  0  0  0  0  0  0  0  0  0
   40.0310   23.3360   36.7060 C   0  0  0  0  0  0  0  0  0  0  0  0
   39.7280   23.0360   38.0190 C   0  0  0  0  0  0  0  0  0  0  0  0
   38.5300   23.3300   38.5800 C   0  0  0  0  0  0  0  0  0  0  0  0
   37.5880   23.9610   37.7690 C   0  0  0  0  0  0  0  0  0  0  0  0
   37.9150   24.2440   36.4760 C   0  0  0  0  0  0  0  0  0  0  0  0
   39.1140   23.9590   35.8870 C   0  0  0  0  0  0  0  0  0  0  0  0
   34.7770   30.4250   34.9630 C   0  0  0  0  0  0  0  0  0  0  0  0
   33.5240   30.4720   35.4290 N   0  0  0  0  0  0  0  0  0  0  0  0
   33.4330   31.3040   36.4250 O   0  0  0  0  0  0  0  0  0  0  0  0
   34.6470   31.8240   36.6280 C   0  0  0  0  0  0  0  0  0  0  0  0
   35.5010   31.2950   35.7330 N   0  0  0  0  0  0  0  0  0  0  0  0
   34.9210   32.7830   37.6510 N   0  0  0  0  0  0  0  0  0  0  0  0
   33.9850   33.8620   37.8180 C   0  0  0  0  0  0  0  0  0  0  0  0
   33.1370   34.0710   37.0000 N   0  0  0  0  0  0  0  0  0  0  0  0
   34.1390   34.6560   39.0130 N   0  0  0  0  0  0  0  0  0  0  0  0
   32.5130   34.1330   36.2800 H   0  0  0  0  0  0  0  0  0  0  0  0
   36.9262   23.9093   30.9099 H   0  0  0  0  0  0  0  0  0  0  0  0
   35.8590   26.1940   31.0200 H   0  0  0  0  0  0  0  0  0  0  0  0
   36.8898   28.8924   31.1553 H   0  0  0  0  0  0  0  0  0  0  0  0
   40.8743   24.1529   33.0902 H   0  0  0  0  0  0  0  0  0  0  0  0
   42.5312   23.0498   34.5051 H   0  0  0  0  0  0  0  0  0  0  0  0
   41.9919   22.5062   36.8839 H   0  0  0  0  0  0  0  0  0  0  0  0
   40.4907   22.5376   38.6354 H   0  0  0  0  0  0  0  0  0  0  0  0
   38.3106   23.0817   39.6289 H   0  0  0  0  0  0  0  0  0  0  0  0
   36.5970   24.2263   38.1658 H   0  0  0  0  0  0  0  0  0  0  0  0
   37.1528   24.7413   35.8581 H   0  0  0  0  0  0  0  0  0  0  0  0
   35.7576   32.7045   38.2466 H   0  0  0  0  0  0  0  0  0  0  0  0
   33.5010   35.4443   39.1933 H   0  0  0  0  0  0  0  0  0  0  0  0
   34.8869   34.4345   39.6857 H   0  0  0  0  0  0  0  0  0  0  0  0
  1  2  2  0
  1  6  1  0
  2  3  1  0
  3  7  1  0
  3  4  2  0
  5  4  1  0
  5 12  1  0
  6  5  2  0
  7 11  1  0
  8  9  2  0
  8  7  1  0
  9 10  1  0
 10 11  2  0
 10 22  1  0
 12 21  1  0
 13 12  2  0
 13 14  1  0
 14 15  2  0
 15 16  1  0
 16 17  2  0
 17 18  1  0
 19 18  2  0
 20 19  1  0
 21 20  2  0
 21 16  1  0
 22 23  2  0
 22 26  1  0
 23 24  1  0
 24 25  1  0
 25 27  1  0
 26 25  2  0
 27 28  1  0
 28 30  1  0
 29 28  2  0
 31 29  1  0
  1 32  1  0
  2 33  1  0
  8 34  1  0
 13 35  1  0
 14 36  1  0
 15 37  1  0
 17 38  1  0
 18 39  1  0
 19 40  1  0
 20 41  1  0
 27 42  1  0
 30 43  1  0
 30 44  1  0
M  END
>  <minimizedAffinity>  (1) 
-7.84232521

>  <minimizedRMSD>  (1) 
0.421689987

$$$$
