
     RDKit          3D

 24 25  0  0  0  0  0  0  0  0999 V2000
   37.2650   26.8570   33.9150 C   0  0  0  0  0  0  0  0  0  0  0  0
   36.5240   27.9690   34.3260 C   0  0  0  0  0  0  0  0  0  0  0  0
   36.1110   28.8420   33.3790 C   0  0  0  0  0  0  0  0  0  0  0  0
   36.4540   28.5720   32.0490 C   0  0  0  0  0  0  0  0  0  0  0  0
   37.4180   26.9880   32.1610 S   0  0  0  0  0  0  0  0  0  0  0  0
   37.9500   25.9760   36.1750 C   0  0  0  0  0  0  0  0  0  0  0  0
   37.7850   25.8410   34.7940 C   0  0  0  0  0  0  0  0  0  0  0  0
   38.1590   24.6400   34.1730 C   0  0  0  0  0  0  0  0  0  0  0  0
   38.6700   23.6670   34.9740 N   0  0  0  0  0  0  0  0  0  0  0  0
   38.8130   23.8490   36.3340 C   0  0  0  0  0  0  0  0  0  0  0  0
   38.4530   24.9940   36.9030 N   0  0  0  0  0  0  0  0  0  0  0  0
   39.3670   22.7830   37.1620 C   0  0  0  0  0  0  0  0  0  0  0  0
   40.1340   21.9070   36.6860 O   0  0  0  0  0  0  0  0  0  0  0  0
   39.0630   22.6910   38.5250 O   0  0  0  0  0  0  0  0  0  0  0  0
   36.2260   29.2060   30.8140 C   0  0  0  0  0  0  0  0  0  0  0  0
   36.7460   28.7980   29.7820 O   0  0  0  0  0  0  0  0  0  0  0  0
   35.3690   30.3630   30.7230 N   0  0  0  0  0  0  0  0  0  0  0  0
   36.2841   28.1291   35.3875 H   0  0  0  0  0  0  0  0  0  0  0  0
   35.5252   29.7342   33.6451 H   0  0  0  0  0  0  0  0  0  0  0  0
   37.6561   26.9160   36.6649 H   0  0  0  0  0  0  0  0  0  0  0  0
   38.0443   24.4922   33.0890 H   0  0  0  0  0  0  0  0  0  0  0  0
   39.4490   21.9602   39.0700 H   0  0  0  0  0  0  0  0  0  0  0  0
   35.2114   30.8168   29.8119 H   0  0  0  0  0  0  0  0  0  0  0  0
   34.9148   30.7353   31.5692 H   0  0  0  0  0  0  0  0  0  0  0  0
  1  2  2  0
  1  7  1  0
  3  2  1  0
  4  5  1  0
  4  3  2  0
  5  1  1  0
  6 11  2  0
  7  6  1  0
  8  7  2  0
  8  9  1  0
  9 10  2  0
 10 11  1  0
 10 12  1  0
 12 14  1  0
 13 12  2  0
 15  4  1  0
 16 15  2  0
 17 15  1  0
  2 18  1  0
  3 19  1  0
  6 20  1  0
  8 21  1  0
 14 22  1  0
 17 23  1  0
 17 24  1  0
M  ISO  5  18  14  19  14  20  14  21  14  22   3
M  END
>  <minimizedAffinity>  (1) 
-4.78081989

>  <minimizedRMSD>  (1) 
2.28531265

$$$$
