
     RDKit          3D

 26 28  0  0  0  0  0  0  0  0999 V2000
   36.5190   25.6240   31.3980 C   0  0  0  0  0  0  0  0  0  0  0  0
   35.7200   26.7650   31.2550 C   0  0  0  0  0  0  0  0  0  0  0  0
   36.2600   27.9950   31.6140 C   0  0  0  0  0  0  0  0  0  0  0  0
   37.5470   28.0130   32.0860 N   0  0  0  0  0  0  0  0  0  0  0  0
   38.2700   26.8910   32.2030 C   0  0  0  0  0  0  0  0  0  0  0  0
   37.7810   25.6980   31.8680 N   0  0  0  0  0  0  0  0  0  0  0  0
   39.5990   27.0400   32.7080 N   0  0  0  0  0  0  0  0  0  0  0  0
   40.4640   27.3560   31.8000 N   0  0  0  0  0  0  0  0  0  0  0  0
   41.6890   27.4730   32.3820 C   0  0  0  0  0  0  0  0  0  0  0  0
   41.5520   27.2150   33.7100 C   0  0  0  0  0  0  0  0  0  0  0  0
   40.2140   26.9400   33.9080 C   0  0  0  0  0  0  0  0  0  0  0  0
   35.9620   24.3600   31.0280 N   0  0  0  0  0  0  0  0  0  0  0  0
   39.3670   26.5870   35.0500 C   0  0  0  0  0  0  0  0  0  0  0  0
   38.7550   27.2950   35.9830 N   0  0  0  0  0  0  0  0  0  0  0  0
   38.1050   26.5060   36.8030 O   0  0  0  0  0  0  0  0  0  0  0  0
   38.3110   25.2820   36.3780 C   0  0  0  0  0  0  0  0  0  0  0  0
   39.0980   25.2730   35.2780 N   0  0  0  0  0  0  0  0  0  0  0  0
   37.7610   24.0860   37.0130 C   0  0  0  0  0  0  0  0  0  0  0  0
   37.6560   23.0210   36.3500 O   0  0  0  0  0  0  0  0  0  0  0  0
   34.6927   26.6903   30.8690 H   0  0  0  0  0  0  0  0  0  0  0  0
   35.6746   28.9218   31.5224 H   0  0  0  0  0  0  0  0  0  0  0  0
   42.6264   27.7313   31.8676 H   0  0  0  0  0  0  0  0  0  0  0  0
   42.3458   27.2237   34.4714 H   0  0  0  0  0  0  0  0  0  0  0  0
   34.9979   24.3072   30.6694 H   0  0  0  0  0  0  0  0  0  0  0  0
   36.5249   23.5024   31.1201 H   0  0  0  0  0  0  0  0  0  0  0  0
   37.4405   24.1163   38.0648 H   0  0  0  0  0  0  0  0  0  0  0  0
  1  6  2  0
  2  1  1  0
  2  3  2  0
  3  4  1  0
  4  5  2  0
  5  7  1  0
  6  5  1  0
  7 11  1  0
  8  9  2  0
  8  7  1  0
  9 10  1  0
 10 11  2  0
 11 13  1  0
 12  1  1  0
 13 17  1  0
 13 14  2  0
 14 15  1  0
 16 15  1  0
 16 18  1  0
 17 16  2  0
 19 18  2  0
  2 20  1  0
  3 21  1  0
  9 22  1  0
 10 23  1  0
 12 24  1  0
 12 25  1  0
 18 26  1  0
M  ISO  5  20  14  21  14  22  14  23  14  26   6
M  END
>  <minimizedAffinity>  (1) 
-4.74047661

>  <minimizedRMSD>  (1) 
6.50777483

$$$$
