
     RDKit          3D

 35 37  0  0  1  0  0  0  0  0999 V2000
   42.5710   21.9570   33.5870 C   0  0  1  0  0  0  0  0  0  0  0  0
   41.8420   20.9130   32.7910 C   0  0  0  0  0  0  0  0  0  0  0  0
   41.9560   21.0890   31.3070 C   0  0  0  0  0  0  0  0  0  0  0  0
   41.9540   22.5310   30.9000 C   0  0  0  0  0  0  0  0  0  0  0  0
   41.3530   23.3790   31.9680 C   0  0  0  0  0  0  0  0  0  0  0  0
   42.2180   23.3780   33.1910 C   0  0  2  0  0  0  0  0  0  0  0  0
   42.5030   20.8120   37.0510 C   0  0  0  0  0  0  0  0  0  0  0  0
   41.3820   21.4400   37.5780 C   0  0  0  0  0  0  0  0  0  0  0  0
   40.6260   22.2700   36.7600 C   0  0  0  0  0  0  0  0  0  0  0  0
   41.0380   22.4200   35.4560 N   0  0  0  0  0  0  0  0  0  0  0  0
   42.1310   21.7870   35.0010 C   0  0  0  0  0  0  0  0  0  0  0  0
   42.8530   20.9980   35.7730 N   0  0  0  0  0  0  0  0  0  0  0  0
   39.4470   22.9330   37.3080 C   0  0  0  0  0  0  0  0  0  0  0  0
   38.5730   23.7210   36.5680 C   0  0  0  0  0  0  0  0  0  0  0  0
   37.6240   24.1390   37.4560 N   0  0  0  0  0  0  0  0  0  0  0  0
   37.9510   23.6060   38.6490 C   0  0  0  0  0  0  0  0  0  0  0  0
   39.0340   22.8780   38.6080 N   0  0  0  0  0  0  0  0  0  0  0  0
   43.4310   24.2190   32.9570 C   0  0  0  0  0  0  0  0  0  0  0  0
   44.1160   24.7160   33.8620 O   0  0  0  0  0  0  0  0  0  0  0  0
   43.6496   21.8212   33.4194 H   0  0  0  0  0  0  0  0  0  0  0  0
   42.2526   19.9273   33.0551 H   0  0  0  0  0  0  0  0  0  0  0  0
   40.7753   21.0083   33.0421 H   0  0  0  0  0  0  0  0  0  0  0  0
   42.8953   20.6277   30.9679 H   0  0  0  0  0  0  0  0  0  0  0  0
   41.0808   20.6092   30.8446 H   0  0  0  0  0  0  0  0  0  0  0  0
   42.9891   22.8568   30.7199 H   0  0  0  0  0  0  0  0  0  0  0  0
   41.3550   22.6390   29.9837 H   0  0  0  0  0  0  0  0  0  0  0  0
   41.2522   24.4097   31.5973 H   0  0  0  0  0  0  0  0  0  0  0  0
   40.3659   22.9711   32.2313 H   0  0  0  0  0  0  0  0  0  0  0  0
   41.6655   23.8198   34.0333 H   0  0  0  0  0  0  0  0  0  0  0  0
   43.1097   20.1546   37.6911 H   0  0  0  0  0  0  0  0  0  0  0  0
   41.0967   21.2823   38.6286 H   0  0  0  0  0  0  0  0  0  0  0  0
   38.6332   23.9574   35.4954 H   0  0  0  0  0  0  0  0  0  0  0  0
   37.3646   23.7678   39.5655 H   0  0  0  0  0  0  0  0  0  0  0  0
   39.4797   22.3723   39.3868 H   0  0  0  0  0  0  0  0  0  0  0  0
   43.7345   24.4085   31.9168 H   0  0  0  0  0  0  0  0  0  0  0  0
  1 11  1  0
  2  1  1  0
  3  2  1  0
  4  3  1  0
  4  5  1  0
  5  6  1  0
  6  1  1  0
  7  8  2  0
  9 13  1  0
  9  8  1  0
 10  9  2  0
 11 10  1  0
 11 12  2  0
 12  7  1  0
 13 17  1  0
 14 13  2  0
 14 15  1  0
 15 16  2  0
 17 16  1  0
 18  6  1  0
 18 19  2  0
  1 20  1  1
  2 21  1  0
  2 22  1  0
  3 23  1  0
  3 24  1  0
  4 25  1  0
  4 26  1  0
  5 27  1  0
  5 28  1  0
  6 29  1  1
  7 30  1  0
  8 31  1  0
 14 32  1  0
 16 33  1  0
 17 34  1  0
 18 35  1  0
M  ISO  8  20  13  21  13  22  13  23  13  24  13  25  13  26  13  27  13
M  ISO  8  28  13  29  13  30  14  31  14  32  14  33  14  34   9  35   6
M  END
>  <minimizedAffinity>  (1) 
-3.74953485

>  <minimizedRMSD>  (1) 
0.819214284

$$$$
