
     RDKit          3D

 58 62  0  0  1  0  0  0  0  0999 V2000
   38.6730   26.0170   34.7840 C   0  0  2  0  0  0  0  0  0  0  0  0
   38.9770   23.0570   36.9700 C   0  0  0  0  0  0  0  0  0  0  0  0
   38.3930   23.4530   38.1530 C   0  0  0  0  0  0  0  0  0  0  0  0
   37.8960   24.7390   38.1850 C   0  0  0  0  0  0  0  0  0  0  0  0
   37.9980   25.5340   37.0880 N   0  0  0  0  0  0  0  0  0  0  0  0
   38.5800   25.1080   35.9430 C   0  0  0  0  0  0  0  0  0  0  0  0
   39.0720   23.8430   35.9040 N   0  0  0  0  0  0  0  0  0  0  0  0
   38.3570   22.5250   39.2210 N   0  0  0  0  0  0  0  0  0  0  0  0
   39.0860   27.3880   35.2120 C   0  0  0  0  0  0  0  0  0  0  0  0
   37.3080   26.0300   34.1430 C   0  0  0  0  0  0  0  0  0  0  0  0
   36.9020   27.2740   33.5570 N   0  0  0  0  0  0  0  0  0  0  0  0
   36.2970   28.1430   34.3980 C   0  0  0  0  0  0  0  0  0  0  0  0
   35.8490   29.3870   33.9850 C   0  0  0  0  0  0  0  0  0  0  0  0
   36.0400   29.7290   32.6630 C   0  0  0  0  0  0  0  0  0  0  0  0
   35.5710   31.0090   32.2650 N   0  0  0  0  0  0  0  0  0  0  0  0
   36.6440   28.8590   31.8310 N   0  0  0  0  0  0  0  0  0  0  0  0
   37.0530   27.6720   32.2930 C   0  0  0  0  0  0  0  0  0  0  0  0
   37.6080   26.8670   31.5240 O   0  0  0  0  0  0  0  0  0  0  0  0
   35.1940   30.2880   34.9440 C   0  0  0  0  0  0  0  0  0  0  0  0
   35.9120   31.1880   35.6850 C   0  0  0  0  0  0  0  0  0  0  0  0
   35.2930   32.0340   36.5860 C   0  0  0  0  0  0  0  0  0  0  0  0
   33.9450   31.9270   36.6950 C   0  0  0  0  0  0  0  0  0  0  0  0
   33.1790   31.0460   35.9810 C   0  0  0  0  0  0  0  0  0  0  0  0
   33.8180   30.1990   35.0760 C   0  0  0  0  0  0  0  0  0  0  0  0
   39.6750   25.4840   33.7670 C   0  0  0  0  0  0  0  0  0  0  0  0
   40.9740   26.0430   33.7740 N   0  0  0  0  0  0  0  0  0  0  0  0
   41.0450   27.0610   32.8470 C   0  0  0  0  0  0  0  0  0  0  0  0
   42.2760   27.6610   32.8470 N   0  0  0  0  0  0  0  0  0  0  0  0
   43.0600   27.0720   33.7620 C   0  0  0  0  0  0  0  0  0  0  0  0
   44.3070   27.0260   34.3500 C   0  0  0  0  0  0  0  0  0  0  0  0
   44.6890   26.1660   35.3060 N   0  0  0  0  0  0  0  0  0  0  0  0
   43.8000   25.2610   35.7480 C   0  0  0  0  0  0  0  0  0  0  0  0
   42.5730   25.2610   35.2130 N   0  0  0  0  0  0  0  0  0  0  0  0
   42.2060   26.1300   34.2560 C   0  0  0  0  0  0  0  0  0  0  0  0
   45.1860   28.0390   33.8040 N   0  0  0  0  0  0  0  0  0  0  0  0
   39.3855   22.0377   36.9051 H   0  0  0  0  0  0  0  0  0  0  0  0
   37.4171   25.1210   39.0986 H   0  0  0  0  0  0  0  0  0  0  0  0
   37.9274   22.7897   40.1190 H   0  0  0  0  0  0  0  0  0  0  0  0
   38.7604   21.5850   39.1003 H   0  0  0  0  0  0  0  0  0  0  0  0
   39.1017   27.4400   36.3107 H   0  0  0  0  0  0  0  0  0  0  0  0
   40.0901   27.6075   34.8202 H   0  0  0  0  0  0  0  0  0  0  0  0
   38.3702   28.1256   34.8202 H   0  0  0  0  0  0  0  0  0  0  0  0
   37.3004   25.2664   33.3513 H   0  0  0  0  0  0  0  0  0  0  0  0
   36.5949   25.8389   34.9585 H   0  0  0  0  0  0  0  0  0  0  0  0
   36.1553   27.8512   35.4491 H   0  0  0  0  0  0  0  0  0  0  0  0
   35.6860   31.3192   31.2896 H   0  0  0  0  0  0  0  0  0  0  0  0
   35.1158   31.6271   32.9517 H   0  0  0  0  0  0  0  0  0  0  0  0
   37.0038   31.2389   35.5608 H   0  0  0  0  0  0  0  0  0  0  0  0
   35.8650   32.7580   37.1849 H   0  0  0  0  0  0  0  0  0  0  0  0
   33.4333   32.5932   37.4051 H   0  0  0  0  0  0  0  0  0  0  0  0
   32.0882   31.0070   36.1173 H   0  0  0  0  0  0  0  0  0  0  0  0
   33.2419   29.4760   34.4799 H   0  0  0  0  0  0  0  0  0  0  0  0
   39.7806   24.4035   33.9439 H   0  0  0  0  0  0  0  0  0  0  0  0
   39.2559   25.7626   32.7889 H   0  0  0  0  0  0  0  0  0  0  0  0
   40.2147   27.3552   32.1882 H   0  0  0  0  0  0  0  0  0  0  0  0
   44.0737   24.5378   36.5303 H   0  0  0  0  0  0  0  0  0  0  0  0
   46.1525   28.1229   34.1499 H   0  0  0  0  0  0  0  0  0  0  0  0
   44.8447   28.6756   33.0697 H   0  0  0  0  0  0  0  0  0  0  0  0
  1 25  1  6
  1  9  1  0
  1  6  1  0
  2  3  2  0
  3  4  1  0
  3  8  1  0
  5  4  2  0
  6  5  1  0
  7  6  2  0
  7  2  1  0
 10  1  1  0
 11 10  1  0
 11 12  1  0
 13 12  2  0
 13 19  1  0
 14 13  1  0
 15 14  1  0
 16 17  1  0
 16 14  2  0
 17 11  1  0
 18 17  2  0
 19 24  1  0
 19 20  2  0
 20 21  1  0
 21 22  2  0
 23 22  1  0
 24 23  2  0
 25 26  1  0
 26 34  1  0
 27 26  1  0
 28 27  2  0
 28 29  1  0
 29 34  2  0
 29 30  1  0
 30 31  2  0
 31 32  1  0
 33 32  2  0
 34 33  1  0
 35 30  1  0
  2 36  1  0
  4 37  1  0
  8 38  1  0
  8 39  1  0
  9 40  1  0
  9 41  1  0
  9 42  1  0
 10 43  1  0
 10 44  1  0
 12 45  1  0
 15 46  1  0
 15 47  1  0
 20 48  1  0
 21 49  1  0
 22 50  1  0
 23 51  1  0
 24 52  1  0
 25 53  1  0
 25 54  1  0
 27 55  1  0
 32 56  1  0
 35 57  1  0
 35 58  1  0
M  END
>  <minimizedAffinity>  (1) 
-7.40509796

>  <minimizedRMSD>  (1) 
1.53999877

$$$$
