
 OpenBabel03272514373D

 36 41  0  0  0  0  0  0  0  0999 V2000
   29.0160   26.9830   50.3300 C   0  0  0  0  0  3  0  0  0  0  0  0
   28.0980   27.4520   51.2960 C   0  0  0  0  0  3  0  0  0  0  0  0
   26.9670   28.1290   50.8070 C   0  0  0  0  0  3  0  0  0  0  0  0
   26.8040   28.3070   49.4680 N   0  0  0  0  0  0  0  0  0  0  0  0
   27.7230   27.8340   48.5880 C   0  0  0  0  0  0  0  0  0  0  0  0
   28.8130   27.1810   49.0180 N   0  0  0  0  0  0  0  0  0  0  0  0
   27.5870   27.9990   47.1910 N   0  0  0  0  0  0  0  0  0  0  0  0
   27.7310   26.9410   46.3480 C   0  0  0  0  0  3  0  0  0  0  0  0
   27.5470   27.4020   45.0750 N   0  0  0  0  0  0  0  0  0  0  0  0
   27.2920   28.7150   45.1080 C   0  0  0  0  0  0  0  0  0  0  0  0
   27.0250   29.7430   44.2010 C   0  0  0  0  0  0  0  0  0  0  0  0
   26.9990   29.4120   42.9970 O   0  0  0  0  0  0  0  0  0  0  0  0
   26.8130   30.9980   44.6510 N   0  0  0  0  0  0  0  0  0  0  0  0
   26.8480   31.3110   45.9510 C   0  0  0  0  0  0  0  0  0  0  0  0
   26.5980   32.6950   46.2290 N   0  0  0  0  0  0  0  0  0  0  0  0
   27.1050   30.3380   46.8470 N   0  0  0  0  0  0  0  0  0  0  0  0
   27.3180   29.0940   46.4420 C   0  0  0  0  0  0  0  0  0  0  0  0
   26.6030   33.0350   47.2010 H   0  0  0  0  0  0  0  0  0  0  0  0
   26.4140   33.3510   45.4560 H   0  0  0  0  0  0  0  0  0  0  0  0
   26.5340   32.0590   43.6880 C   0  0  0  0  0  0  0  0  0  0  0  0
   25.2450   32.2840   43.1770 C   0  0  0  0  0  3  0  0  0  0  0  0
   25.4820   33.7120   42.0340 S   0  0  0  0  0  0  0  0  0  0  0  0
   27.3240   33.7700   42.4420 C   0  0  0  0  0  0  0  0  0  0  0  0
   27.4180   32.9160   43.1840 N   0  0  0  0  0  0  0  0  0  0  0  0
   28.3510   34.6570   41.9490 N   0  0  0  0  0  0  0  0  0  0  0  0
   28.0950   35.8560   41.3670 C   0  0  0  0  0  3  0  0  0  0  0  0
   29.2880   36.4200   41.0260 N   0  0  0  0  0  0  0  0  0  0  0  0
   30.2570   35.5780   41.3930 C   0  0  0  0  0  0  0  0  0  0  0  0
   31.6360   35.5430   41.3400 C   0  0  0  0  0  0  0  0  0  0  0  0
   32.3830   34.5270   41.8040 N   0  0  0  0  0  0  0  0  0  0  0  0
   31.7630   33.4510   42.3710 C   0  0  0  0  0  3  0  0  0  0  0  0
   30.4190   33.4400   42.4470 N   0  0  0  0  0  0  0  0  0  0  0  0
   29.6900   34.4600   41.9770 C   0  0  0  0  0  0  0  0  0  0  0  0
   32.3260   36.6430   40.7590 N   0  0  0  0  0  0  0  0  0  0  0  0
   33.3550   36.6370   40.7080 H   0  0  0  0  0  0  0  0  0  0  0  0
   31.7960   37.4450   40.3880 H   0  0  0  0  0  0  0  0  0  0  0  0
  1  2  1  0  0  0  0
  3  2  2  0  0  0  0
  4  3  1  0  0  0  0
  5  6  1  0  0  0  0
  5  4  2  0  0  0  0
  6  1  2  0  0  0  0
  7  5  1  0  0  0  0
  8  7  1  0  0  0  0
  9 10  1  0  0  0  0
  9  8  2  0  0  0  0
 10 17  2  0  0  0  0
 11 13  1  0  0  0  0
 11 10  1  0  0  0  0
 12 11  2  0  0  0  0
 13 14  1  0  0  0  0
 14 15  1  0  0  0  0
 14 16  2  0  0  0  0
 15 18  1  0  0  0  0
 17 16  1  0  0  0  0
 17  7  1  0  0  0  0
 19 15  1  0  0  0  0
 20 13  1  0  0  0  0
 21 20  2  0  0  0  0
 22 23  1  0  0  0  0
 22 21  1  0  0  0  0
 23 24  2  0  0  0  0
 24 20  1  0  0  0  0
 25 33  1  0  0  0  0
 25 23  1  0  0  0  0
 26 25  1  0  0  0  0
 27 26  2  0  0  0  0
 27 28  1  0  0  0  0
 28 33  1  0  0  0  0
 29 28  2  0  0  0  0
 29 30  1  0  0  0  0
 30 31  2  0  0  0  0
 31 32  1  0  0  0  0
 33 32  2  0  0  0  0
 34 29  1  0  0  0  0
 35 34  1  0  0  0  0
 36 34  1  0  0  0  0
M  END
>  <minimizedAffinity>
-7.58845043

$$$$

 OpenBabel03272514373D

 36 41  0  0  0  0  0  0  0  0999 V2000
   27.3570   27.3670   50.9110 C   0  0  0  0  0  3  0  0  0  0  0  0
   28.6990   26.9620   50.7410 C   0  0  0  0  0  3  0  0  0  0  0  0
   29.4770   27.7300   49.8560 C   0  0  0  0  0  3  0  0  0  0  0  0
   28.9270   28.7970   49.2140 N   0  0  0  0  0  0  0  0  0  0  0  0
   27.6290   29.1360   49.4180 C   0  0  0  0  0  0  0  0  0  0  0  0
   26.8580   28.4270   50.2570 N   0  0  0  0  0  0  0  0  0  0  0  0
   27.0240   30.2370   48.7710 N   0  0  0  0  0  0  0  0  0  0  0  0
   26.3180   31.1580   49.4780 C   0  0  0  0  0  3  0  0  0  0  0  0
   25.8580   32.0920   48.5920 N   0  0  0  0  0  0  0  0  0  0  0  0
   26.2620   31.7730   47.3570 C   0  0  0  0  0  0  0  0  0  0  0  0
   26.1400   32.2830   46.0630 C   0  0  0  0  0  0  0  0  0  0  0  0
   25.4800   33.3370   45.9530 O   0  0  0  0  0  0  0  0  0  0  0  0
   26.7210   31.6370   45.0290 N   0  0  0  0  0  0  0  0  0  0  0  0
   27.4230   30.5080   45.1890 C   0  0  0  0  0  0  0  0  0  0  0  0
   27.9610   29.9740   43.9730 N   0  0  0  0  0  0  0  0  0  0  0  0
   27.5540   29.9950   46.4290 N   0  0  0  0  0  0  0  0  0  0  0  0
   26.9970   30.6030   47.4670 C   0  0  0  0  0  0  0  0  0  0  0  0
   28.5160   29.1070   43.9920 H   0  0  0  0  0  0  0  0  0  0  0  0
   27.7920   30.4570   43.0790 H   0  0  0  0  0  0  0  0  0  0  0  0
   26.5840   32.1850   43.6830 C   0  0  0  0  0  0  0  0  0  0  0  0
   25.4810   31.8900   42.8660 C   0  0  0  0  0  3  0  0  0  0  0  0
   25.8310   32.8320   41.3190 S   0  0  0  0  0  0  0  0  0  0  0  0
   27.4460   33.4830   42.0480 C   0  0  0  0  0  0  0  0  0  0  0  0
   27.4430   32.9980   43.0740 N   0  0  0  0  0  0  0  0  0  0  0  0
   28.4330   34.3610   41.4670 N   0  0  0  0  0  0  0  0  0  0  0  0
   28.1880   35.1750   40.4090 C   0  0  0  0  0  3  0  0  0  0  0  0
   29.3340   35.8570   40.1290 N   0  0  0  0  0  0  0  0  0  0  0  0
   30.2650   35.4660   41.0020 C   0  0  0  0  0  0  0  0  0  0  0  0
   31.5900   35.7560   41.2600 C   0  0  0  0  0  0  0  0  0  0  0  0
   32.3080   35.1870   42.2430 N   0  0  0  0  0  0  0  0  0  0  0  0
   31.7120   34.2640   43.0530 C   0  0  0  0  0  3  0  0  0  0  0  0
   30.4200   33.9490   42.8410 N   0  0  0  0  0  0  0  0  0  0  0  0
   29.7200   34.5240   41.8550 C   0  0  0  0  0  0  0  0  0  0  0  0
   32.2530   36.7120   40.4430 N   0  0  0  0  0  0  0  0  0  0  0  0
   33.2410   36.9430   40.6180 H   0  0  0  0  0  0  0  0  0  0  0  0
   31.7440   37.1750   39.6750 H   0  0  0  0  0  0  0  0  0  0  0  0
  2  1  1  0  0  0  0
  3  2  2  0  0  0  0
  4  5  2  0  0  0  0
  4  3  1  0  0  0  0
  5  6  1  0  0  0  0
  6  1  2  0  0  0  0
  7  5  1  0  0  0  0
  7  8  1  0  0  0  0
  9  8  2  0  0  0  0
 10 17  2  0  0  0  0
 10  9  1  0  0  0  0
 11 10  1  0  0  0  0
 12 11  2  0  0  0  0
 13 14  1  0  0  0  0
 13 11  1  0  0  0  0
 14 16  2  0  0  0  0
 15 18  1  0  0  0  0
 15 14  1  0  0  0  0
 16 17  1  0  0  0  0
 17  7  1  0  0  0  0
 19 15  1  0  0  0  0
 20 13  1  0  0  0  0
 21 20  2  0  0  0  0
 22 23  1  0  0  0  0
 22 21  1  0  0  0  0
 23 24  2  0  0  0  0
 24 20  1  0  0  0  0
 25 33  1  0  0  0  0
 25 23  1  0  0  0  0
 26 25  1  0  0  0  0
 27 26  2  0  0  0  0
 27 28  1  0  0  0  0
 28 29  2  0  0  0  0
 28 33  1  0  0  0  0
 29 30  1  0  0  0  0
 30 31  2  0  0  0  0
 32 31  1  0  0  0  0
 33 32  2  0  0  0  0
 34 35  1  0  0  0  0
 34 29  1  0  0  0  0
 36 34  1  0  0  0  0
M  END
>  <minimizedAffinity>
-7.43983889

$$$$

 OpenBabel03272514373D

 36 41  0  0  0  0  0  0  0  0999 V2000
   38.4230   32.0250   49.2480 C   0  0  0  0  0  3  0  0  0  0  0  0
   38.2590   31.1170   50.3160 C   0  0  0  0  0  3  0  0  0  0  0  0
   37.4830   29.9740   50.0520 C   0  0  0  0  0  3  0  0  0  0  0  0
   36.9340   29.7920   48.8210 N   0  0  0  0  0  0  0  0  0  0  0  0
   37.1260   30.7030   47.8330 C   0  0  0  0  0  0  0  0  0  0  0  0
   37.8630   31.8040   48.0490 N   0  0  0  0  0  0  0  0  0  0  0  0
   36.5730   30.5460   46.5420 N   0  0  0  0  0  0  0  0  0  0  0  0
   37.3450   30.6880   45.4330 C   0  0  0  0  0  3  0  0  0  0  0  0
   36.5430   30.4830   44.3450 N   0  0  0  0  0  0  0  0  0  0  0  0
   35.2970   30.2180   44.7520 C   0  0  0  0  0  0  0  0  0  0  0  0
   34.0580   29.9300   44.1780 C   0  0  0  0  0  0  0  0  0  0  0  0
   34.0320   29.8910   42.9300 O   0  0  0  0  0  0  0  0  0  0  0  0
   32.9840   29.7150   44.9690 N   0  0  0  0  0  0  0  0  0  0  0  0
   33.0530   29.7640   46.3050 C   0  0  0  0  0  0  0  0  0  0  0  0
   31.8080   29.5080   46.9670 N   0  0  0  0  0  0  0  0  0  0  0  0
   34.2380   30.0410   46.8840 N   0  0  0  0  0  0  0  0  0  0  0  0
   35.3130   30.2590   46.1390 C   0  0  0  0  0  0  0  0  0  0  0  0
   31.7590   29.5230   47.9950 H   0  0  0  0  0  0  0  0  0  0  0  0
   30.9620   29.3080   46.4140 H   0  0  0  0  0  0  0  0  0  0  0  0
   31.6970   29.4150   44.3510 C   0  0  0  0  0  0  0  0  0  0  0  0
   31.5110   29.4480   42.9590 C   0  0  0  0  0  3  0  0  0  0  0  0
   29.7340   28.9950   42.7540 S   0  0  0  0  0  0  0  0  0  0  0  0
   29.5310   28.8330   44.6230 C   0  0  0  0  0  0  0  0  0  0  0  0
   30.5760   29.0860   44.9870 N   0  0  0  0  0  0  0  0  0  0  0  0
   28.3640   28.4840   45.3980 N   0  0  0  0  0  0  0  0  0  0  0  0
   27.2810   27.8490   44.8830 C   0  0  0  0  0  3  0  0  0  0  0  0
   26.3760   27.6790   45.8890 N   0  0  0  0  0  0  0  0  0  0  0  0
   26.8980   28.2040   47.0000 C   0  0  0  0  0  0  0  0  0  0  0  0
   26.5170   28.3590   48.3180 C   0  0  0  0  0  0  0  0  0  0  0  0
   27.2740   28.9500   49.2570 N   0  0  0  0  0  0  0  0  0  0  0  0
   28.5020   29.4360   48.9120 C   0  0  0  0  0  3  0  0  0  0  0  0
   28.9190   29.3080   47.6380 N   0  0  0  0  0  0  0  0  0  0  0  0
   28.1500   28.7170   46.7140 C   0  0  0  0  0  0  0  0  0  0  0  0
   25.2450   27.8680   48.7230 N   0  0  0  0  0  0  0  0  0  0  0  0
   24.9410   27.9730   49.7020 H   0  0  0  0  0  0  0  0  0  0  0  0
   24.6280   27.4070   48.0390 H   0  0  0  0  0  0  0  0  0  0  0  0
  1  2  1  0  0  0  0
  3  2  2  0  0  0  0
  4  3  1  0  0  0  0
  5  6  1  0  0  0  0
  5  4  2  0  0  0  0
  6  1  2  0  0  0  0
  7  5  1  0  0  0  0
  8  7  1  0  0  0  0
  9 10  1  0  0  0  0
  9  8  2  0  0  0  0
 10 17  2  0  0  0  0
 11 10  1  0  0  0  0
 11 13  1  0  0  0  0
 12 11  2  0  0  0  0
 13 14  1  0  0  0  0
 14 16  2  0  0  0  0
 14 15  1  0  0  0  0
 15 18  1  0  0  0  0
 17  7  1  0  0  0  0
 17 16  1  0  0  0  0
 19 15  1  0  0  0  0
 20 13  1  0  0  0  0
 20 24  1  0  0  0  0
 21 20  2  0  0  0  0
 22 21  1  0  0  0  0
 22 23  1  0  0  0  0
 23 24  2  0  0  0  0
 23 25  1  0  0  0  0
 25 33  1  0  0  0  0
 26 25  1  0  0  0  0
 26 27  2  0  0  0  0
 27 28  1  0  0  0  0
 28 29  1  0  0  0  0
 29 34  1  0  0  0  0
 29 30  2  0  0  0  0
 31 30  1  0  0  0  0
 32 31  2  0  0  0  0
 33 28  2  0  0  0  0
 33 32  1  0  0  0  0
 34 35  1  0  0  0  0
 36 34  1  0  0  0  0
M  END
>  <minimizedAffinity>
-7.28829288

$$$$

 OpenBabel03272514373D

 36 41  0  0  0  0  0  0  0  0999 V2000
   25.1270   35.9630   46.8380 C   0  0  0  0  0  3  0  0  0  0  0  0
   24.8560   36.0900   45.4580 C   0  0  0  0  0  3  0  0  0  0  0  0
   24.8720   34.9020   44.7050 C   0  0  0  0  0  3  0  0  0  0  0  0
   25.1420   33.7140   45.3100 N   0  0  0  0  0  0  0  0  0  0  0  0
   25.3970   33.6560   46.6420 C   0  0  0  0  0  0  0  0  0  0  0  0
   25.3880   34.7690   47.3920 N   0  0  0  0  0  0  0  0  0  0  0  0
   25.6800   32.4410   47.3050 N   0  0  0  0  0  0  0  0  0  0  0  0
   25.0250   32.1020   48.4470 C   0  0  0  0  0  3  0  0  0  0  0  0
   25.5060   30.8880   48.8530 N   0  0  0  0  0  0  0  0  0  0  0  0
   26.4400   30.4680   47.9920 C   0  0  0  0  0  0  0  0  0  0  0  0
   27.2820   29.3660   47.8320 C   0  0  0  0  0  0  0  0  0  0  0  0
   27.1890   28.4790   48.7060 O   0  0  0  0  0  0  0  0  0  0  0  0
   28.1270   29.3120   46.7800 N   0  0  0  0  0  0  0  0  0  0  0  0
   28.1950   30.2840   45.8620 C   0  0  0  0  0  0  0  0  0  0  0  0
   29.1520   30.0430   44.8220 N   0  0  0  0  0  0  0  0  0  0  0  0
   27.3930   31.3590   45.9940 N   0  0  0  0  0  0  0  0  0  0  0  0
   26.5520   31.4470   47.0160 C   0  0  0  0  0  0  0  0  0  0  0  0
   29.2780   30.7340   44.0690 H   0  0  0  0  0  0  0  0  0  0  0  0
   29.7120   29.1790   44.8280 H   0  0  0  0  0  0  0  0  0  0  0  0
   28.9990   28.1520   46.6290 C   0  0  0  0  0  0  0  0  0  0  0  0
   30.2850   28.1070   47.1910 C   0  0  0  0  0  3  0  0  0  0  0  0
   30.9110   26.4450   46.6930 S   0  0  0  0  0  0  0  0  0  0  0  0
   29.2970   26.0770   45.7870 C   0  0  0  0  0  0  0  0  0  0  0  0
   28.7120   27.0320   45.9700 N   0  0  0  0  0  0  0  0  0  0  0  0
   28.8990   24.9010   45.0510 N   0  0  0  0  0  0  0  0  0  0  0  0
   29.4930   23.6880   45.1900 C   0  0  0  0  0  3  0  0  0  0  0  0
   28.8670   22.8160   44.3510 N   0  0  0  0  0  0  0  0  0  0  0  0
   27.9080   23.4850   43.7070 C   0  0  0  0  0  0  0  0  0  0  0  0
   26.9460   23.2050   42.7570 C   0  0  0  0  0  0  0  0  0  0  0  0
   26.0800   24.1090   42.2720 N   0  0  0  0  0  0  0  0  0  0  0  0
   26.1310   25.3930   42.7330 C   0  0  0  0  0  3  0  0  0  0  0  0
   27.0520   25.7150   43.6610 N   0  0  0  0  0  0  0  0  0  0  0  0
   27.9100   24.8010   44.1320 C   0  0  0  0  0  0  0  0  0  0  0  0
   26.8550   21.8800   42.2470 N   0  0  0  0  0  0  0  0  0  0  0  0
   26.1450   21.6490   41.5370 H   0  0  0  0  0  0  0  0  0  0  0  0
   27.4990   21.1510   42.5880 H   0  0  0  0  0  0  0  0  0  0  0  0
  1  6  1  0  0  0  0
  2  1  2  0  0  0  0
  3  4  2  0  0  0  0
  3  2  1  0  0  0  0
  4  5  1  0  0  0  0
  5  7  1  0  0  0  0
  5  6  2  0  0  0  0
  7  8  1  0  0  0  0
  8  9  2  0  0  0  0
 10  9  1  0  0  0  0
 11 10  1  0  0  0  0
 11 12  2  0  0  0  0
 13 11  1  0  0  0  0
 14 16  2  0  0  0  0
 14 13  1  0  0  0  0
 15 19  1  0  0  0  0
 15 14  1  0  0  0  0
 16 17  1  0  0  0  0
 17  7  1  0  0  0  0
 17 10  2  0  0  0  0
 18 15  1  0  0  0  0
 20 13  1  0  0  0  0
 20 21  2  0  0  0  0
 22 21  1  0  0  0  0
 23 24  2  0  0  0  0
 23 22  1  0  0  0  0
 24 20  1  0  0  0  0
 25 26  1  0  0  0  0
 25 23  1  0  0  0  0
 27 26  2  0  0  0  0
 28 33  1  0  0  0  0
 28 27  1  0  0  0  0
 29 28  2  0  0  0  0
 30 31  2  0  0  0  0
 30 29  1  0  0  0  0
 31 32  1  0  0  0  0
 32 33  2  0  0  0  0
 33 25  1  0  0  0  0
 34 36  1  0  0  0  0
 34 29  1  0  0  0  0
 35 34  1  0  0  0  0
M  END
>  <minimizedAffinity>
-7.24388695

$$$$

 OpenBabel03272514373D

 36 41  0  0  0  0  0  0  0  0999 V2000
   26.7740   27.7390   48.6550 C   0  0  0  0  0  3  0  0  0  0  0  0
   26.0360   28.7260   47.9660 C   0  0  0  0  0  3  0  0  0  0  0  0
   26.6000   29.2090   46.7720 C   0  0  0  0  0  3  0  0  0  0  0  0
   27.7960   28.7280   46.3380 N   0  0  0  0  0  0  0  0  0  0  0  0
   28.4600   27.7780   47.0460 C   0  0  0  0  0  0  0  0  0  0  0  0
   27.9510   27.2930   48.1890 N   0  0  0  0  0  0  0  0  0  0  0  0
   29.7030   27.2540   46.6270 N   0  0  0  0  0  0  0  0  0  0  0  0
   29.9100   25.9120   46.5730 C   0  0  0  0  0  3  0  0  0  0  0  0
   31.1900   25.7100   46.1380 N   0  0  0  0  0  0  0  0  0  0  0  0
   31.7790   26.8910   45.9210 C   0  0  0  0  0  0  0  0  0  0  0  0
   33.0190   27.3670   45.4920 C   0  0  0  0  0  0  0  0  0  0  0  0
   33.8690   26.4970   45.2110 O   0  0  0  0  0  0  0  0  0  0  0  0
   33.2340   28.6980   45.4020 N   0  0  0  0  0  0  0  0  0  0  0  0
   32.2950   29.6000   45.7110 C   0  0  0  0  0  0  0  0  0  0  0  0
   32.7140   30.9610   45.5510 N   0  0  0  0  0  0  0  0  0  0  0  0
   31.0900   29.1660   46.1290 N   0  0  0  0  0  0  0  0  0  0  0  0
   30.8440   27.8670   46.2300 C   0  0  0  0  0  0  0  0  0  0  0  0
   32.0620   31.7300   45.7640 H   0  0  0  0  0  0  0  0  0  0  0  0
   33.6670   31.1720   45.2230 H   0  0  0  0  0  0  0  0  0  0  0  0
   34.5360   29.1770   44.9500 C   0  0  0  0  0  0  0  0  0  0  0  0
   35.0530   28.8550   43.6840 C   0  0  0  0  0  3  0  0  0  0  0  0
   36.6860   29.7120   43.6590 S   0  0  0  0  0  0  0  0  0  0  0  0
   36.3960   30.3770   45.4010 C   0  0  0  0  0  0  0  0  0  0  0  0
   35.3740   29.9460   45.6400 N   0  0  0  0  0  0  0  0  0  0  0  0
   37.2410   31.2120   46.2220 N   0  0  0  0  0  0  0  0  0  0  0  0
   38.2520   31.9730   45.7330 C   0  0  0  0  0  3  0  0  0  0  0  0
   38.8310   32.6250   46.7810 N   0  0  0  0  0  0  0  0  0  0  0  0
   38.1840   32.2670   47.8920 C   0  0  0  0  0  0  0  0  0  0  0  0
   38.2620   32.5520   49.2410 C   0  0  0  0  0  0  0  0  0  0  0  0
   37.4480   32.0260   50.1710 N   0  0  0  0  0  0  0  0  0  0  0  0
   36.4730   31.1530   49.7830 C   0  0  0  0  0  3  0  0  0  0  0  0
   36.3560   30.8450   48.4780 N   0  0  0  0  0  0  0  0  0  0  0  0
   37.1770   31.3780   47.5640 C   0  0  0  0  0  0  0  0  0  0  0  0
   39.2630   33.4560   49.6910 N   0  0  0  0  0  0  0  0  0  0  0  0
   39.3400   33.6830   50.6930 H   0  0  0  0  0  0  0  0  0  0  0  0
   39.9120   33.8850   49.0150 H   0  0  0  0  0  0  0  0  0  0  0  0
  2  1  2  0  0  0  0
  3  2  1  0  0  0  0
  4  3  2  0  0  0  0
  4  5  1  0  0  0  0
  5  6  2  0  0  0  0
  6  1  1  0  0  0  0
  7  5  1  0  0  0  0
  8  7  1  0  0  0  0
  9  8  2  0  0  0  0
 10  9  1  0  0  0  0
 10 17  2  0  0  0  0
 11 10  1  0  0  0  0
 12 11  2  0  0  0  0
 13 11  1  0  0  0  0
 13 14  1  0  0  0  0
 14 16  2  0  0  0  0
 15 14  1  0  0  0  0
 15 18  1  0  0  0  0
 16 17  1  0  0  0  0
 17  7  1  0  0  0  0
 19 15  1  0  0  0  0
 20 13  1  0  0  0  0
 20 24  1  0  0  0  0
 21 20  2  0  0  0  0
 22 21  1  0  0  0  0
 22 23  1  0  0  0  0
 23 24  2  0  0  0  0
 23 25  1  0  0  0  0
 25 33  1  0  0  0  0
 26 25  1  0  0  0  0
 26 27  2  0  0  0  0
 27 28  1  0  0  0  0
 28 29  1  0  0  0  0
 29 34  1  0  0  0  0
 29 30  2  0  0  0  0
 31 30  1  0  0  0  0
 32 31  2  0  0  0  0
 33 28  2  0  0  0  0
 33 32  1  0  0  0  0
 34 35  1  0  0  0  0
 36 34  1  0  0  0  0
M  END
>  <minimizedAffinity>
-6.97181273

$$$$

 OpenBabel03272514373D

 36 41  0  0  0  0  0  0  0  0999 V2000
   26.4190   28.0870   45.9920 C   0  0  0  0  0  3  0  0  0  0  0  0
   26.4200   28.3640   44.6080 C   0  0  0  0  0  3  0  0  0  0  0  0
   27.6760   28.3920   43.9760 C   0  0  0  0  0  3  0  0  0  0  0  0
   28.8070   28.1620   44.6960 N   0  0  0  0  0  0  0  0  0  0  0  0
   28.7420   27.9020   46.0270 C   0  0  0  0  0  0  0  0  0  0  0  0
   27.5610   27.8660   46.6620 N   0  0  0  0  0  0  0  0  0  0  0  0
   29.8950   27.6580   46.8070 N   0  0  0  0  0  0  0  0  0  0  0  0
   29.9610   26.5790   47.6310 C   0  0  0  0  0  3  0  0  0  0  0  0
   31.1810   26.6070   48.2480 N   0  0  0  0  0  0  0  0  0  0  0  0
   31.8700   27.6730   47.8260 C   0  0  0  0  0  0  0  0  0  0  0  0
   33.1180   28.2560   48.0510 C   0  0  0  0  0  0  0  0  0  0  0  0
   33.8560   27.6650   48.8670 O   0  0  0  0  0  0  0  0  0  0  0  0
   33.4590   29.3890   47.3990 N   0  0  0  0  0  0  0  0  0  0  0  0
   32.6400   29.9920   46.5290 C   0  0  0  0  0  0  0  0  0  0  0  0
   33.1810   31.1810   45.9410 N   0  0  0  0  0  0  0  0  0  0  0  0
   31.4280   29.4500   46.2950 N   0  0  0  0  0  0  0  0  0  0  0  0
   31.0600   28.3380   46.9170 C   0  0  0  0  0  0  0  0  0  0  0  0
   32.6260   31.7170   45.2580 H   0  0  0  0  0  0  0  0  0  0  0  0
   34.1250   31.5010   46.2000 H   0  0  0  0  0  0  0  0  0  0  0  0
   34.7690   29.9830   47.6460 C   0  0  0  0  0  0  0  0  0  0  0  0
   35.1950   30.3390   48.9370 C   0  0  0  0  0  3  0  0  0  0  0  0
   36.8840   31.0250   48.6530 S   0  0  0  0  0  0  0  0  0  0  0  0
   36.7310   30.7120   46.7980 C   0  0  0  0  0  0  0  0  0  0  0  0
   35.6930   30.2590   46.7310 N   0  0  0  0  0  0  0  0  0  0  0  0
   37.6740   30.9760   45.7370 N   0  0  0  0  0  0  0  0  0  0  0  0
   39.0020   31.1670   45.9400 C   0  0  0  0  0  3  0  0  0  0  0  0
   39.5840   31.3880   44.7270 N   0  0  0  0  0  0  0  0  0  0  0  0
   38.6260   31.3340   43.7990 C   0  0  0  0  0  0  0  0  0  0  0  0
   38.5430   31.4650   42.4270 C   0  0  0  0  0  0  0  0  0  0  0  0
   37.4010   31.3570   41.7280 N   0  0  0  0  0  0  0  0  0  0  0  0
   36.2360   31.1000   42.3920 C   0  0  0  0  0  3  0  0  0  0  0  0
   36.2670   30.9620   43.7310 N   0  0  0  0  0  0  0  0  0  0  0  0
   37.4140   31.0750   44.4120 C   0  0  0  0  0  0  0  0  0  0  0  0
   39.7310   31.7330   41.6930 N   0  0  0  0  0  0  0  0  0  0  0  0
   39.6910   31.8360   40.6690 H   0  0  0  0  0  0  0  0  0  0  0  0
   40.6310   31.8260   42.1850 H   0  0  0  0  0  0  0  0  0  0  0  0
  1  6  1  0  0  0  0
  2  1  2  0  0  0  0
  3  2  1  0  0  0  0
  3  4  2  0  0  0  0
  4  5  1  0  0  0  0
  5  6  2  0  0  0  0
  5  7  1  0  0  0  0
  7 17  1  0  0  0  0
  7  8  1  0  0  0  0
  8  9  2  0  0  0  0
 10 11  1  0  0  0  0
 10  9  1  0  0  0  0
 11 12  2  0  0  0  0
 13 20  1  0  0  0  0
 13 11  1  0  0  0  0
 14 13  1  0  0  0  0
 15 19  1  0  0  0  0
 15 14  1  0  0  0  0
 16 14  2  0  0  0  0
 16 17  1  0  0  0  0
 17 10  2  0  0  0  0
 18 15  1  0  0  0  0
 20 21  2  0  0  0  0
 22 21  1  0  0  0  0
 23 22  1  0  0  0  0
 24 23  2  0  0  0  0
 24 20  1  0  0  0  0
 25 26  1  0  0  0  0
 25 23  1  0  0  0  0
 27 26  2  0  0  0  0
 28 33  1  0  0  0  0
 28 27  1  0  0  0  0
 29 28  2  0  0  0  0
 30 31  2  0  0  0  0
 30 29  1  0  0  0  0
 31 32  1  0  0  0  0
 32 33  2  0  0  0  0
 33 25  1  0  0  0  0
 34 36  1  0  0  0  0
 34 29  1  0  0  0  0
 35 34  1  0  0  0  0
M  END
>  <minimizedAffinity>
-6.66972494

$$$$

 OpenBabel03272514373D

 36 41  0  0  0  0  0  0  0  0999 V2000
   32.0180   35.6770   40.8060 C   0  0  0  0  0  3  0  0  0  0  0  0
   33.2700   36.2060   41.1900 C   0  0  0  0  0  3  0  0  0  0  0  0
   34.1540   35.3200   41.8290 C   0  0  0  0  0  3  0  0  0  0  0  0
   33.7850   34.0290   42.0510 N   0  0  0  0  0  0  0  0  0  0  0  0
   32.5660   33.5780   41.6590 C   0  0  0  0  0  0  0  0  0  0  0  0
   31.6970   34.3960   41.0450 N   0  0  0  0  0  0  0  0  0  0  0  0
   32.1490   32.2450   41.8710 N   0  0  0  0  0  0  0  0  0  0  0  0
   31.6190   31.5120   40.8570 C   0  0  0  0  0  3  0  0  0  0  0  0
   31.3130   30.2780   41.3580 N   0  0  0  0  0  0  0  0  0  0  0  0
   31.6400   30.2280   42.6540 C   0  0  0  0  0  0  0  0  0  0  0  0
   31.5900   29.3060   43.7010 C   0  0  0  0  0  0  0  0  0  0  0  0
   31.1170   28.1860   43.4180 O   0  0  0  0  0  0  0  0  0  0  0  0
   32.0390   29.6560   44.9260 N   0  0  0  0  0  0  0  0  0  0  0  0
   32.5400   30.8680   45.1890 C   0  0  0  0  0  0  0  0  0  0  0  0
   32.9630   31.0460   46.5470 N   0  0  0  0  0  0  0  0  0  0  0  0
   32.5990   31.7770   44.1960 N   0  0  0  0  0  0  0  0  0  0  0  0
   32.1670   31.4690   42.9800 C   0  0  0  0  0  0  0  0  0  0  0  0
   33.3640   31.9460   46.8480 H   0  0  0  0  0  0  0  0  0  0  0  0
   32.8670   30.2740   47.2220 H   0  0  0  0  0  0  0  0  0  0  0  0
   31.9790   28.6780   46.0090 C   0  0  0  0  0  0  0  0  0  0  0  0
   33.0010   27.7390   46.2240 C   0  0  0  0  0  3  0  0  0  0  0  0
   32.4060   26.7890   47.6880 S   0  0  0  0  0  0  0  0  0  0  0  0
   30.8390   27.8390   47.7690 C   0  0  0  0  0  0  0  0  0  0  0  0
   30.9970   28.5470   46.8960 N   0  0  0  0  0  0  0  0  0  0  0  0
   29.7280   27.7690   48.6880 N   0  0  0  0  0  0  0  0  0  0  0  0
   29.7890   27.1580   49.8980 C   0  0  0  0  0  3  0  0  0  0  0  0
   28.5690   27.2850   50.4940 N   0  0  0  0  0  0  0  0  0  0  0  0
   27.7760   27.9620   49.6600 C   0  0  0  0  0  0  0  0  0  0  0  0
   26.4710   28.4120   49.6520 C   0  0  0  0  0  0  0  0  0  0  0  0
   25.9160   29.0960   48.6380 N   0  0  0  0  0  0  0  0  0  0  0  0
   26.6690   29.3770   47.5350 C   0  0  0  0  0  3  0  0  0  0  0  0
   27.9490   28.9590   47.4960 N   0  0  0  0  0  0  0  0  0  0  0  0
   28.4850   28.2780   48.5160 C   0  0  0  0  0  0  0  0  0  0  0  0
   25.6480   28.1430   50.7810 N   0  0  0  0  0  0  0  0  0  0  0  0
   24.6720   28.4690   50.7950 H   0  0  0  0  0  0  0  0  0  0  0  0
   26.0290   27.6210   51.5830 H   0  0  0  0  0  0  0  0  0  0  0  0
  1  6  2  0  0  0  0
  1  2  1  0  0  0  0
  2  3  2  0  0  0  0
  3  4  1  0  0  0  0
  5  7  1  0  0  0  0
  5  4  2  0  0  0  0
  6  5  1  0  0  0  0
  7 17  1  0  0  0  0
  8  9  2  0  0  0  0
  8  7  1  0  0  0  0
  9 10  1  0  0  0  0
 10 17  2  0  0  0  0
 10 11  1  0  0  0  0
 11 13  1  0  0  0  0
 12 11  2  0  0  0  0
 13 14  1  0  0  0  0
 13 20  1  0  0  0  0
 14 15  1  0  0  0  0
 15 18  1  0  0  0  0
 15 19  1  0  0  0  0
 16 14  2  0  0  0  0
 17 16  1  0  0  0  0
 20 21  2  0  0  0  0
 20 24  1  0  0  0  0
 21 22  1  0  0  0  0
 22 23  1  0  0  0  0
 23 25  1  0  0  0  0
 24 23  2  0  0  0  0
 25 26  1  0  0  0  0
 26 27  2  0  0  0  0
 28 27  1  0  0  0  0
 29 28  1  0  0  0  0
 29 34  1  0  0  0  0
 30 29  2  0  0  0  0
 31 30  1  0  0  0  0
 32 31  2  0  0  0  0
 32 33  1  0  0  0  0
 33 25  1  0  0  0  0
 33 28  2  0  0  0  0
 34 35  1  0  0  0  0
 34 36  1  0  0  0  0
M  END
>  <minimizedAffinity>
-6.57792997

$$$$

 OpenBabel03272514373D

 36 41  0  0  0  0  0  0  0  0999 V2000
   25.4170   30.0330   48.7500 C   0  0  0  0  0  3  0  0  0  0  0  0
   25.1360   31.3810   48.4360 C   0  0  0  0  0  3  0  0  0  0  0  0
   25.8640   31.9410   47.3710 C   0  0  0  0  0  3  0  0  0  0  0  0
   26.7850   31.1910   46.7070 N   0  0  0  0  0  0  0  0  0  0  0  0
   27.0130   29.9000   47.0570 C   0  0  0  0  0  0  0  0  0  0  0  0
   26.3350   29.3330   48.0660 N   0  0  0  0  0  0  0  0  0  0  0  0
   27.9600   29.0910   46.3890 N   0  0  0  0  0  0  0  0  0  0  0  0
   27.6260   27.8490   45.9480 C   0  0  0  0  0  3  0  0  0  0  0  0
   28.7330   27.3140   45.3500 N   0  0  0  0  0  0  0  0  0  0  0  0
   29.7410   28.1920   45.4100 C   0  0  0  0  0  0  0  0  0  0  0  0
   31.0760   28.2670   45.0080 C   0  0  0  0  0  0  0  0  0  0  0  0
   31.5230   27.2620   44.4160 O   0  0  0  0  0  0  0  0  0  0  0  0
   31.7950   29.3810   45.2670 N   0  0  0  0  0  0  0  0  0  0  0  0
   31.2770   30.4380   45.9030 C   0  0  0  0  0  0  0  0  0  0  0  0
   32.1980   31.5220   46.0840 N   0  0  0  0  0  0  0  0  0  0  0  0
   29.9910   30.3910   46.3030 N   0  0  0  0  0  0  0  0  0  0  0  0
   29.2550   29.3130   46.0660 C   0  0  0  0  0  0  0  0  0  0  0  0
   31.8930   32.3820   46.5630 H   0  0  0  0  0  0  0  0  0  0  0  0
   33.1630   31.4420   45.7340 H   0  0  0  0  0  0  0  0  0  0  0  0
   33.1880   29.4410   44.8390 C   0  0  0  0  0  0  0  0  0  0  0  0
   33.5840   29.1050   43.5330 C   0  0  0  0  0  3  0  0  0  0  0  0
   35.4100   29.3600   43.5610 S   0  0  0  0  0  0  0  0  0  0  0  0
   35.3370   29.8890   45.3710 C   0  0  0  0  0  0  0  0  0  0  0  0
   34.2270   29.8030   45.5870 N   0  0  0  0  0  0  0  0  0  0  0  0
   36.4020   30.2950   46.2580 N   0  0  0  0  0  0  0  0  0  0  0  0
   37.6180   30.7200   45.8300 C   0  0  0  0  0  3  0  0  0  0  0  0
   38.3680   31.0200   46.9280 N   0  0  0  0  0  0  0  0  0  0  0  0
   37.6230   30.7810   48.0090 C   0  0  0  0  0  0  0  0  0  0  0  0
   37.7740   30.8720   49.3780 C   0  0  0  0  0  0  0  0  0  0  0  0
   36.8170   30.5510   50.2650 N   0  0  0  0  0  0  0  0  0  0  0  0
   35.6100   30.1060   49.8090 C   0  0  0  0  0  3  0  0  0  0  0  0
   35.4140   30.0010   48.4810 N   0  0  0  0  0  0  0  0  0  0  0  0
   36.3800   30.3230   47.6110 C   0  0  0  0  0  0  0  0  0  0  0  0
   39.0140   31.3320   49.9000 N   0  0  0  0  0  0  0  0  0  0  0  0
   39.1490   31.4070   50.9180 H   0  0  0  0  0  0  0  0  0  0  0  0
   39.7790   31.5890   49.2590 H   0  0  0  0  0  0  0  0  0  0  0  0
  2  1  1  0  0  0  0
  3  2  2  0  0  0  0
  4  5  2  0  0  0  0
  4  3  1  0  0  0  0
  5  6  1  0  0  0  0
  6  1  2  0  0  0  0
  7  5  1  0  0  0  0
  8  7  1  0  0  0  0
  9 10  1  0  0  0  0
  9  8  2  0  0  0  0
 10 17  2  0  0  0  0
 11 13  1  0  0  0  0
 11 10  1  0  0  0  0
 12 11  2  0  0  0  0
 13 14  1  0  0  0  0
 14 15  1  0  0  0  0
 14 16  2  0  0  0  0
 15 18  1  0  0  0  0
 17 16  1  0  0  0  0
 17  7  1  0  0  0  0
 19 15  1  0  0  0  0
 20 13  1  0  0  0  0
 20 24  1  0  0  0  0
 21 22  1  0  0  0  0
 21 20  2  0  0  0  0
 22 23  1  0  0  0  0
 23 24  2  0  0  0  0
 23 25  1  0  0  0  0
 25 33  1  0  0  0  0
 26 25  1  0  0  0  0
 26 27  2  0  0  0  0
 27 28  1  0  0  0  0
 28 29  1  0  0  0  0
 29 34  1  0  0  0  0
 29 30  2  0  0  0  0
 31 30  1  0  0  0  0
 32 31  2  0  0  0  0
 33 28  2  0  0  0  0
 33 32  1  0  0  0  0
 34 35  1  0  0  0  0
 36 34  1  0  0  0  0
M  END
>  <minimizedAffinity>
-6.45550203

$$$$

 OpenBabel03272514373D

 36 41  0  0  0  0  0  0  0  0999 V2000
   35.1740   24.1840   43.1780 C   0  0  0  0  0  3  0  0  0  0  0  0
   36.1900   24.0450   44.1490 C   0  0  0  0  0  3  0  0  0  0  0  0
   35.7770   24.0540   45.4930 C   0  0  0  0  0  3  0  0  0  0  0  0
   34.4590   24.1930   45.8010 N   0  0  0  0  0  0  0  0  0  0  0  0
   33.5280   24.3240   44.8220 C   0  0  0  0  0  0  0  0  0  0  0  0
   33.8860   24.3180   43.5290 N   0  0  0  0  0  0  0  0  0  0  0  0
   32.1510   24.4700   45.1040 N   0  0  0  0  0  0  0  0  0  0  0  0
   31.2260   23.6960   44.4760 C   0  0  0  0  0  3  0  0  0  0  0  0
   29.9960   24.0610   44.9470 N   0  0  0  0  0  0  0  0  0  0  0  0
   30.1350   25.0400   45.8480 C   0  0  0  0  0  0  0  0  0  0  0  0
   29.3160   25.8230   46.6640 C   0  0  0  0  0  0  0  0  0  0  0  0
   28.0910   25.5960   46.5820 O   0  0  0  0  0  0  0  0  0  0  0  0
   29.8660   26.7520   47.4750 N   0  0  0  0  0  0  0  0  0  0  0  0
   31.1860   26.9640   47.5350 C   0  0  0  0  0  0  0  0  0  0  0  0
   31.5740   27.9920   48.4550 N   0  0  0  0  0  0  0  0  0  0  0  0
   31.9990   26.2230   46.7560 N   0  0  0  0  0  0  0  0  0  0  0  0
   31.4940   25.3010   45.9470 C   0  0  0  0  0  0  0  0  0  0  0  0
   32.5700   28.2290   48.5720 H   0  0  0  0  0  0  0  0  0  0  0  0
   30.8580   28.4950   48.9980 H   0  0  0  0  0  0  0  0  0  0  0  0
   28.9940   27.5600   48.3210 C   0  0  0  0  0  0  0  0  0  0  0  0
   28.7110   27.2090   49.6520 C   0  0  0  0  0  3  0  0  0  0  0  0
   27.5850   28.5570   50.2180 S   0  0  0  0  0  0  0  0  0  0  0  0
   27.6840   29.3890   48.5270 C   0  0  0  0  0  0  0  0  0  0  0  0
   28.3750   28.6840   47.9680 N   0  0  0  0  0  0  0  0  0  0  0  0
   27.0530   30.5990   48.0560 N   0  0  0  0  0  0  0  0  0  0  0  0
   26.5570   31.5590   48.8780 C   0  0  0  0  0  3  0  0  0  0  0  0
   26.0400   32.5510   48.0990 N   0  0  0  0  0  0  0  0  0  0  0  0
   26.2170   32.2020   46.8220 C   0  0  0  0  0  0  0  0  0  0  0  0
   25.9350   32.7390   45.5820 C   0  0  0  0  0  0  0  0  0  0  0  0
   26.2390   32.1440   44.4170 N   0  0  0  0  0  0  0  0  0  0  0  0
   26.8690   30.9340   44.4330 C   0  0  0  0  0  3  0  0  0  0  0  0
   27.1660   30.3700   45.6190 N   0  0  0  0  0  0  0  0  0  0  0  0
   26.8540   30.9760   46.7720 C   0  0  0  0  0  0  0  0  0  0  0  0
   25.2790   33.9990   45.5160 N   0  0  0  0  0  0  0  0  0  0  0  0
   25.0590   34.4180   44.6010 H   0  0  0  0  0  0  0  0  0  0  0  0
   25.0240   34.4940   46.3830 H   0  0  0  0  0  0  0  0  0  0  0  0
  1  6  2  0  0  0  0
  1  2  1  0  0  0  0
  2  3  2  0  0  0  0
  3  4  1  0  0  0  0
  5  7  1  0  0  0  0
  5  4  2  0  0  0  0
  6  5  1  0  0  0  0
  7 17  1  0  0  0  0
  8  9  2  0  0  0  0
  8  7  1  0  0  0  0
  9 10  1  0  0  0  0
 10 17  2  0  0  0  0
 10 11  1  0  0  0  0
 11 13  1  0  0  0  0
 12 11  2  0  0  0  0
 13 14  1  0  0  0  0
 13 20  1  0  0  0  0
 14 15  1  0  0  0  0
 15 18  1  0  0  0  0
 15 19  1  0  0  0  0
 16 14  2  0  0  0  0
 17 16  1  0  0  0  0
 20 21  2  0  0  0  0
 21 22  1  0  0  0  0
 23 22  1  0  0  0  0
 24 20  1  0  0  0  0
 24 23  2  0  0  0  0
 25 23  1  0  0  0  0
 25 26  1  0  0  0  0
 27 26  2  0  0  0  0
 28 27  1  0  0  0  0
 29 28  2  0  0  0  0
 30 31  2  0  0  0  0
 30 29  1  0  0  0  0
 31 32  1  0  0  0  0
 32 33  2  0  0  0  0
 33 28  1  0  0  0  0
 33 25  1  0  0  0  0
 34 29  1  0  0  0  0
 34 36  1  0  0  0  0
 35 34  1  0  0  0  0
M  END
>  <minimizedAffinity>
-6.42958832

$$$$
