
 OpenBabel03272514423D

 33 38  0  0  1  0  0  0  0  0999 V2000
   32.6320   29.2800   46.3650 C   0  0  0  0  0  0  0  0  0  0  0  0
   33.0330   30.5000   45.8040 C   0  0  0  0  0  3  0  0  0  0  0  0
   32.0500   31.3270   45.2800 C   0  0  0  0  0  3  0  0  0  0  0  0
   30.7650   30.9390   45.3240 N   0  0  0  0  0  0  0  0  0  0  0  0
   30.4110   29.7340   45.8810 C   0  0  0  0  0  0  0  0  0  0  0  0
   31.3280   28.9210   46.3930 N   0  0  0  0  0  0  0  0  0  0  0  0
   29.0450   29.3940   45.8870 N   0  0  0  0  0  0  0  0  0  0  0  0
   28.3310   30.0050   44.9110 C   0  0  0  0  0  3  0  0  0  0  0  0
   26.9900   29.5900   45.0370 C   0  0  0  0  0  3  0  0  0  0  0  0
   26.9580   28.7520   46.0800 N   0  0  0  0  0  0  0  0  0  0  0  0
   28.1850   28.6270   46.5970 C   0  0  0  0  0  0  0  0  0  0  0  0
   28.7370   27.8900   47.6840 N   0  0  0  0  0  0  0  0  0  0  0  0
   29.8070   27.0710   47.7140 C   0  0  0  0  0  3  0  0  0  0  0  0
   29.9970   26.5700   48.9300 N   0  0  0  0  0  0  0  0  0  0  0  0
   29.0480   27.0550   49.7290 C   0  0  0  0  0  0  0  0  0  0  0  0
   28.7010   26.9270   51.0630 C   0  0  0  0  0  3  0  0  0  0  0  0
   27.6470   27.5670   51.6000 N   0  0  0  0  0  0  0  0  0  0  0  0
   26.8920   28.3650   50.8330 C   0  0  0  0  0  3  0  0  0  0  0  0
   27.1800   28.5340   49.5090 N   0  0  0  0  0  0  0  0  0  0  0  0
   28.2470   27.8880   48.9570 C   0  0  0  0  0  0  0  0  0  0  0  0
   33.5880   28.4760   46.8760 O   0  0  0  0  0  0  0  0  0  0  0  0
   34.3680   28.9060   47.9570 C   0  0  0  0  0  0  0  0  0  0  0  0
   33.8380   28.6480   49.1930 C   0  0  0  0  0  3  0  0  0  0  0  0
   35.1020   29.3370   50.2730 S   0  0  0  0  0  0  0  0  0  0  0  0
   36.1980   29.8890   48.8220 C   0  0  0  0  0  0  0  0  0  0  0  0
   35.5250   29.5170   47.9800 N   0  0  0  0  0  0  0  0  0  0  0  0
   37.5090   30.5900   49.0590 C   0  0  2  0  0  3  0  0  0  0  0  0
   37.7290   31.2230   50.3430 C   0  0  0  0  0  2  0  0  0  0  0  0
   37.2850   32.1630   49.3900 C   0  0  1  0  0  3  0  0  0  0  0  0
   38.4410   33.0350   48.8780 C   0  0  0  0  0  0  0  0  0  0  0  0
   39.1670   33.7460   49.7350 O   0  0  0  0  0  0  0  0  0  0  0  0
   38.7290   33.0720   47.4980 O   0  0  0  0  0  0  0  0  0  0  0  0
   39.4730   33.6330   47.1630 H   0  0  0  0  0  0  0  0  0  0  0  0
  1  6  1  0  0  0  0
  1 21  1  0  0  0  0
  2  1  2  0  0  0  0
  3  4  2  0  0  0  0
  3  2  1  0  0  0  0
  4  5  1  0  0  0  0
  5  7  1  0  0  0  0
  5  6  2  0  0  0  0
  7 11  1  0  0  0  0
  8  9  2  0  0  0  0
  8  7  1  0  0  0  0
  9 10  1  0  0  0  0
 10 11  2  0  0  0  0
 11 12  1  0  0  0  0
 12 13  1  0  0  0  0
 12 20  1  0  0  0  0
 13 14  2  0  0  0  0
 14 15  1  0  0  0  0
 15 16  1  0  0  0  0
 16 17  2  0  0  0  0
 18 17  1  0  0  0  0
 19 18  2  0  0  0  0
 20 19  1  0  0  0  0
 20 15  2  0  0  0  0
 21 22  1  0  0  0  0
 22 26  1  0  0  0  0
 22 23  2  0  0  0  0
 23 24  1  0  0  0  0
 25 24  1  0  0  0  0
 26 25  2  0  0  0  0
 27 25  1  1  0  0  0
 27 29  1  0  0  0  0
 27 28  1  0  0  0  0
 29 30  1  6  0  0  0
 29 28  1  0  0  0  0
 30 31  2  0  0  0  0
 32 30  1  0  0  0  0
 33 32  1  0  0  0  0
M  END
>  <minimizedAffinity>
-7.76438427

$$$$

 OpenBabel03272514423D

 33 38  0  0  1  0  0  0  0  0999 V2000
   29.7730   27.3540   49.2820 C   0  0  0  0  0  0  0  0  0  0  0  0
   29.2350   26.9930   50.5250 C   0  0  0  0  0  3  0  0  0  0  0  0
   28.1000   27.6620   50.9590 C   0  0  0  0  0  3  0  0  0  0  0  0
   27.5610   28.6210   50.1880 N   0  0  0  0  0  0  0  0  0  0  0  0
   28.1180   28.9480   48.9760 C   0  0  0  0  0  0  0  0  0  0  0  0
   29.2040   28.3250   48.5310 N   0  0  0  0  0  0  0  0  0  0  0  0
   27.4990   29.9660   48.2260 N   0  0  0  0  0  0  0  0  0  0  0  0
   26.7870   30.8380   48.9810 C   0  0  0  0  0  3  0  0  0  0  0  0
   26.2170   31.7890   48.1130 C   0  0  0  0  0  3  0  0  0  0  0  0
   26.6080   31.4480   46.8790 N   0  0  0  0  0  0  0  0  0  0  0  0
   27.3780   30.3550   46.9360 C   0  0  0  0  0  0  0  0  0  0  0  0
   28.0580   29.5660   45.9640 N   0  0  0  0  0  0  0  0  0  0  0  0
   29.3430   29.1600   45.9310 C   0  0  0  0  0  3  0  0  0  0  0  0
   29.5900   28.4320   44.8470 N   0  0  0  0  0  0  0  0  0  0  0  0
   28.4630   28.3440   44.1420 C   0  0  0  0  0  0  0  0  0  0  0  0
   28.0670   27.7470   42.9570 C   0  0  0  0  0  3  0  0  0  0  0  0
   26.8100   27.8400   42.4870 N   0  0  0  0  0  0  0  0  0  0  0  0
   25.8920   28.5300   43.1750 C   0  0  0  0  0  3  0  0  0  0  0  0
   26.2170   29.1430   44.3510 N   0  0  0  0  0  0  0  0  0  0  0  0
   27.4890   29.0540   44.8350 C   0  0  0  0  0  0  0  0  0  0  0  0
   30.8770   26.7030   48.8590 O   0  0  0  0  0  0  0  0  0  0  0  0
   31.9800   27.4220   48.3810 C   0  0  0  0  0  0  0  0  0  0  0  0
   32.2350   27.2720   47.0440 C   0  0  0  0  0  3  0  0  0  0  0  0
   33.6820   28.3210   46.8380 S   0  0  0  0  0  0  0  0  0  0  0  0
   33.7180   28.8220   48.6700 C   0  0  0  0  0  0  0  0  0  0  0  0
   32.8110   28.2180   49.0050 N   0  0  0  0  0  0  0  0  0  0  0  0
   34.7710   29.7580   49.2010 C   0  0  2  0  0  3  0  0  0  0  0  0
   35.9080   30.0660   48.3580 C   0  0  0  0  0  2  0  0  0  0  0  0
   36.2220   29.0350   49.2690 C   0  0  1  0  0  3  0  0  0  0  0  0
   37.0770   29.5540   50.4340 C   0  0  0  0  0  0  0  0  0  0  0  0
   36.5890   29.5520   51.6700 O   0  0  0  0  0  0  0  0  0  0  0  0
   38.3830   30.0270   50.1850 O   0  0  0  0  0  0  0  0  0  0  0  0
   38.9380   30.3630   50.9320 H   0  0  0  0  0  0  0  0  0  0  0  0
  1  2  1  0  0  0  0
  2  3  2  0  0  0  0
  4  3  1  0  0  0  0
  5  4  2  0  0  0  0
  6  5  1  0  0  0  0
  6  1  2  0  0  0  0
  7  5  1  0  0  0  0
  7  8  1  0  0  0  0
  9  8  2  0  0  0  0
 10 11  2  0  0  0  0
 10  9  1  0  0  0  0
 11  7  1  0  0  0  0
 12 11  1  0  0  0  0
 13 12  1  0  0  0  0
 14 13  2  0  0  0  0
 15 20  1  0  0  0  0
 15 14  1  0  0  0  0
 16 15  2  0  0  0  0
 17 16  1  0  0  0  0
 17 18  2  0  0  0  0
 18 19  1  0  0  0  0
 19 20  2  0  0  0  0
 20 12  1  0  0  0  0
 21  1  1  0  0  0  0
 22 21  1  0  0  0  0
 22 26  1  0  0  0  0
 23 22  2  0  0  0  0
 24 23  1  0  0  0  0
 24 25  1  0  0  0  0
 25 26  2  0  0  0  0
 27 25  1  6  0  0  0
 27 29  1  0  0  0  0
 28 27  1  0  0  0  0
 28 29  1  0  0  0  0
 29 30  1  1  0  0  0
 30 31  2  0  0  0  0
 32 30  1  0  0  0  0
 32 33  1  0  0  0  0
M  END
>  <minimizedAffinity>
-7.76275682

$$$$

 OpenBabel03272514423D

 33 38  0  0  1  0  0  0  0  0999 V2000
   27.1080   30.7140   46.4840 C   0  0  0  0  0  0  0  0  0  0  0  0
   26.3990   31.7130   47.1660 C   0  0  0  0  0  3  0  0  0  0  0  0
   26.3250   31.6270   48.5480 C   0  0  0  0  0  3  0  0  0  0  0  0
   26.9250   30.6070   49.1810 N   0  0  0  0  0  0  0  0  0  0  0  0
   27.6110   29.6460   48.4790 C   0  0  0  0  0  0  0  0  0  0  0  0
   27.7010   29.7000   47.1550 N   0  0  0  0  0  0  0  0  0  0  0  0
   28.2100   28.6040   49.2120 N   0  0  0  0  0  0  0  0  0  0  0  0
   27.6190   28.3750   50.4100 C   0  0  0  0  0  3  0  0  0  0  0  0
   28.3180   27.3260   51.0380 C   0  0  0  0  0  3  0  0  0  0  0  0
   29.2950   26.9730   50.1950 N   0  0  0  0  0  0  0  0  0  0  0  0
   29.2400   27.7330   49.0960 C   0  0  0  0  0  0  0  0  0  0  0  0
   30.0040   27.8050   47.8950 N   0  0  0  0  0  0  0  0  0  0  0  0
   29.5930   27.8010   46.6120 C   0  0  0  0  0  3  0  0  0  0  0  0
   30.6220   27.8840   45.7760 N   0  0  0  0  0  0  0  0  0  0  0  0
   31.7390   27.9450   46.5010 C   0  0  0  0  0  0  0  0  0  0  0  0
   33.0960   28.0400   46.2430 C   0  0  0  0  0  3  0  0  0  0  0  0
   34.0160   28.0830   47.2230 N   0  0  0  0  0  0  0  0  0  0  0  0
   33.6260   28.0350   48.5040 C   0  0  0  0  0  3  0  0  0  0  0  0
   32.3030   27.9410   48.8260 N   0  0  0  0  0  0  0  0  0  0  0  0
   31.3640   27.8960   47.8380 C   0  0  0  0  0  0  0  0  0  0  0  0
   27.1800   30.7970   45.1390 O   0  0  0  0  0  0  0  0  0  0  0  0
   28.4260   30.8610   44.5030 C   0  0  0  0  0  0  0  0  0  0  0  0
   28.6100   29.9540   43.4930 C   0  0  0  0  0  3  0  0  0  0  0  0
   30.2800   30.3520   42.9560 S   0  0  0  0  0  0  0  0  0  0  0  0
   30.4790   31.7440   44.2340 C   0  0  0  0  0  0  0  0  0  0  0  0
   29.4500   31.6490   44.7160 N   0  0  0  0  0  0  0  0  0  0  0  0
   31.7520   32.5420   44.3240 C   0  0  2  0  0  3  0  0  0  0  0  0
   31.6590   33.9570   44.6210 C   0  0  0  0  0  2  0  0  0  0  0  0
   31.7750   33.7420   43.2320 C   0  0  1  0  0  3  0  0  0  0  0  0
   33.1940   34.0470   42.7310 C   0  0  0  0  0  0  0  0  0  0  0  0
   33.6070   33.5560   41.5670 O   0  0  0  0  0  0  0  0  0  0  0  0
   34.0500   34.8530   43.5080 O   0  0  0  0  0  0  0  0  0  0  0  0
   34.9660   35.0520   43.1900 H   0  0  0  0  0  0  0  0  0  0  0  0
  1  6  2  0  0  0  0
  1  2  1  0  0  0  0
  2  3  2  0  0  0  0
  3  4  1  0  0  0  0
  5  4  2  0  0  0  0
  5  7  1  0  0  0  0
  6  5  1  0  0  0  0
  7  8  1  0  0  0  0
  8  9  2  0  0  0  0
 10  9  1  0  0  0  0
 11  7  1  0  0  0  0
 11 10  2  0  0  0  0
 12 11  1  0  0  0  0
 13 12  1  0  0  0  0
 14 15  1  0  0  0  0
 14 13  2  0  0  0  0
 15 20  1  0  0  0  0
 16 15  2  0  0  0  0
 16 17  1  0  0  0  0
 17 18  2  0  0  0  0
 18 19  1  0  0  0  0
 20 12  1  0  0  0  0
 20 19  2  0  0  0  0
 21  1  1  0  0  0  0
 22 26  1  0  0  0  0
 22 21  1  0  0  0  0
 23 22  2  0  0  0  0
 24 23  1  0  0  0  0
 24 25  1  0  0  0  0
 25 26  2  0  0  0  0
 27 25  1  6  0  0  0
 27 28  1  0  0  0  0
 29 30  1  1  0  0  0
 29 27  1  0  0  0  0
 29 28  1  0  0  0  0
 30 32  1  0  0  0  0
 31 30  2  0  0  0  0
 33 32  1  0  0  0  0
M  END
>  <minimizedAffinity>
-6.915555

$$$$

 OpenBabel03272514423D

 33 38  0  0  1  0  0  0  0  0999 V2000
   30.0660   30.8900   44.3250 C   0  0  0  0  0  0  0  0  0  0  0  0
   31.0230   30.9900   43.3060 C   0  0  0  0  0  3  0  0  0  0  0  0
   30.5850   31.3430   42.0390 C   0  0  0  0  0  3  0  0  0  0  0  0
   29.2790   31.5750   41.8290 N   0  0  0  0  0  0  0  0  0  0  0  0
   28.3700   31.4670   42.8530 C   0  0  0  0  0  0  0  0  0  0  0  0
   28.7570   31.1320   44.0790 N   0  0  0  0  0  0  0  0  0  0  0  0
   27.0180   31.7200   42.5560 N   0  0  0  0  0  0  0  0  0  0  0  0
   26.7030   31.5200   41.2530 C   0  0  0  0  0  3  0  0  0  0  0  0
   25.3350   31.8190   41.0930 C   0  0  0  0  0  3  0  0  0  0  0  0
   24.8910   32.1840   42.3010 N   0  0  0  0  0  0  0  0  0  0  0  0
   25.8920   32.1290   43.1860 C   0  0  0  0  0  0  0  0  0  0  0  0
   26.0030   32.3980   44.5810 N   0  0  0  0  0  0  0  0  0  0  0  0
   26.5180   31.6370   45.5660 C   0  0  0  0  0  3  0  0  0  0  0  0
   26.4350   32.2490   46.7420 N   0  0  0  0  0  0  0  0  0  0  0  0
   25.8600   33.4360   46.5500 C   0  0  0  0  0  0  0  0  0  0  0  0
   25.5000   34.5140   47.3410 C   0  0  0  0  0  3  0  0  0  0  0  0
   24.9110   35.6130   46.8380 N   0  0  0  0  0  0  0  0  0  0  0  0
   24.6560   35.6900   45.5260 C   0  0  0  0  0  3  0  0  0  0  0  0
   24.9850   34.6620   44.6910 N   0  0  0  0  0  0  0  0  0  0  0  0
   25.5820   33.5420   45.1930 C   0  0  0  0  0  0  0  0  0  0  0  0
   30.4910   30.5470   45.5600 O   0  0  0  0  0  0  0  0  0  0  0  0
   29.9580   29.4220   46.2010 C   0  0  0  0  0  0  0  0  0  0  0  0
   30.5350   28.2290   45.8560 C   0  0  0  0  0  3  0  0  0  0  0  0
   29.5950   27.0730   46.8640 S   0  0  0  0  0  0  0  0  0  0  0  0
   28.5230   28.4420   47.6300 C   0  0  0  0  0  0  0  0  0  0  0  0
   28.9940   29.3220   47.0810 N   0  0  0  0  0  0  0  0  0  0  0  0
   27.4490   28.1190   48.6350 C   0  0  2  0  0  3  0  0  0  0  0  0
   26.8000   29.2140   49.3270 C   0  0  0  0  0  2  0  0  0  0  0  0
   27.8380   28.6680   50.1120 C   0  0  1  0  0  3  0  0  0  0  0  0
   27.2870   27.7720   51.2300 C   0  0  0  0  0  0  0  0  0  0  0  0
   28.0980   26.9370   51.8720 O   0  0  0  0  0  0  0  0  0  0  0  0
   25.9220   27.8460   51.5750 O   0  0  0  0  0  0  0  0  0  0  0  0
   25.5620   27.2710   52.2960 H   0  0  0  0  0  0  0  0  0  0  0  0
  1 21  1  0  0  0  0
  2  1  2  0  0  0  0
  3  2  1  0  0  0  0
  4  3  2  0  0  0  0
  4  5  1  0  0  0  0
  5  6  2  0  0  0  0
  6  1  1  0  0  0  0
  7  5  1  0  0  0  0
  7 11  1  0  0  0  0
  8  7  1  0  0  0  0
  9  8  2  0  0  0  0
  9 10  1  0  0  0  0
 10 11  2  0  0  0  0
 11 12  1  0  0  0  0
 12 20  1  0  0  0  0
 12 13  1  0  0  0  0
 13 14  2  0  0  0  0
 15 14  1  0  0  0  0
 15 16  1  0  0  0  0
 17 16  2  0  0  0  0
 18 17  1  0  0  0  0
 19 20  1  0  0  0  0
 19 18  2  0  0  0  0
 20 15  2  0  0  0  0
 21 22  1  0  0  0  0
 22 26  1  0  0  0  0
 23 22  2  0  0  0  0
 23 24  1  0  0  0  0
 24 25  1  0  0  0  0
 26 25  2  0  0  0  0
 27 25  1  6  0  0  0
 27 28  1  0  0  0  0
 27 29  1  0  0  0  0
 28 29  1  0  0  0  0
 29 30  1  1  0  0  0
 30 32  1  0  0  0  0
 30 31  2  0  0  0  0
 32 33  1  0  0  0  0
M  END
>  <minimizedAffinity>
-6.81495094

$$$$

 OpenBabel03272514423D

 33 38  0  0  1  0  0  0  0  0999 V2000
   32.3740   27.9540   47.3340 C   0  0  0  0  0  0  0  0  0  0  0  0
   32.0600   26.7860   48.0430 C   0  0  0  0  0  3  0  0  0  0  0  0
   30.7220   26.5170   48.2900 C   0  0  0  0  0  3  0  0  0  0  0  0
   29.7830   27.3700   47.8500 N   0  0  0  0  0  0  0  0  0  0  0  0
   30.1290   28.5050   47.1590 C   0  0  0  0  0  0  0  0  0  0  0  0
   31.4010   28.7910   46.9050 N   0  0  0  0  0  0  0  0  0  0  0  0
   29.0890   29.3540   46.7340 N   0  0  0  0  0  0  0  0  0  0  0  0
   27.9640   29.2470   47.4820 C   0  0  0  0  0  3  0  0  0  0  0  0
   27.0080   30.1330   46.9460 C   0  0  0  0  0  3  0  0  0  0  0  0
   27.5990   30.7300   45.9030 N   0  0  0  0  0  0  0  0  0  0  0  0
   28.8470   30.2690   45.7670 C   0  0  0  0  0  0  0  0  0  0  0  0
   29.9130   30.5360   44.8600 N   0  0  0  0  0  0  0  0  0  0  0  0
   31.2000   30.8460   45.1110 C   0  0  0  0  0  3  0  0  0  0  0  0
   31.8820   31.0210   43.9850 N   0  0  0  0  0  0  0  0  0  0  0  0
   31.0500   30.8270   42.9630 C   0  0  0  0  0  0  0  0  0  0  0  0
   31.1350   30.8590   41.5810 C   0  0  0  0  0  3  0  0  0  0  0  0
   30.0790   30.6100   40.7860 N   0  0  0  0  0  0  0  0  0  0  0  0
   28.8920   30.3160   41.3310 C   0  0  0  0  0  3  0  0  0  0  0  0
   28.7390   30.2690   42.6870 N   0  0  0  0  0  0  0  0  0  0  0  0
   29.8050   30.5210   43.5000 C   0  0  0  0  0  0  0  0  0  0  0  0
   33.6760   28.2160   47.0930 O   0  0  0  0  0  0  0  0  0  0  0  0
   34.4930   28.7230   48.1110 C   0  0  0  0  0  0  0  0  0  0  0  0
   34.0280   28.5210   49.3830 C   0  0  0  0  0  3  0  0  0  0  0  0
   35.3220   29.2980   50.3630 S   0  0  0  0  0  0  0  0  0  0  0  0
   36.3340   29.7960   48.8340 C   0  0  0  0  0  0  0  0  0  0  0  0
   35.6340   29.3630   48.0460 N   0  0  0  0  0  0  0  0  0  0  0  0
   37.6360   30.5400   48.9710 C   0  0  2  0  0  3  0  0  0  0  0  0
   37.9900   31.0770   50.2680 C   0  0  0  0  0  2  0  0  0  0  0  0
   37.3930   32.0680   49.4600 C   0  0  1  0  0  3  0  0  0  0  0  0
   38.4400   33.0360   48.8900 C   0  0  0  0  0  0  0  0  0  0  0  0
   39.1660   33.7880   49.7100 O   0  0  0  0  0  0  0  0  0  0  0  0
   38.6290   33.1160   47.4950 O   0  0  0  0  0  0  0  0  0  0  0  0
   39.3030   33.7380   47.1220 H   0  0  0  0  0  0  0  0  0  0  0  0
  1  2  1  0  0  0  0
  2  3  2  0  0  0  0
  4  3  1  0  0  0  0
  5  4  2  0  0  0  0
  6  5  1  0  0  0  0
  6  1  2  0  0  0  0
  7  5  1  0  0  0  0
  7  8  1  0  0  0  0
  9  8  2  0  0  0  0
 10  9  1  0  0  0  0
 11 10  2  0  0  0  0
 11  7  1  0  0  0  0
 12 13  1  0  0  0  0
 12 11  1  0  0  0  0
 14 13  2  0  0  0  0
 15 20  1  0  0  0  0
 15 14  1  0  0  0  0
 16 15  2  0  0  0  0
 17 18  2  0  0  0  0
 17 16  1  0  0  0  0
 18 19  1  0  0  0  0
 19 20  2  0  0  0  0
 20 12  1  0  0  0  0
 21  1  1  0  0  0  0
 21 22  1  0  0  0  0
 22 23  2  0  0  0  0
 23 24  1  0  0  0  0
 25 24  1  0  0  0  0
 26 22  1  0  0  0  0
 26 25  2  0  0  0  0
 27 25  1  1  0  0  0
 27 29  1  0  0  0  0
 27 28  1  0  0  0  0
 29 30  1  6  0  0  0
 29 28  1  0  0  0  0
 30 31  2  0  0  0  0
 32 30  1  0  0  0  0
 33 32  1  0  0  0  0
M  END
>  <minimizedAffinity>
-6.79337692

$$$$

 OpenBabel03272514423D

 33 38  0  0  1  0  0  0  0  0999 V2000
   31.9620   30.0770   45.0750 C   0  0  0  0  0  0  0  0  0  0  0  0
   32.6340   31.2850   44.8470 C   0  0  0  0  0  3  0  0  0  0  0  0
   31.8730   32.4010   44.5360 C   0  0  0  0  0  3  0  0  0  0  0  0
   30.5370   32.2930   44.4640 N   0  0  0  0  0  0  0  0  0  0  0  0
   29.9130   31.0910   44.6940 C   0  0  0  0  0  0  0  0  0  0  0  0
   30.6130   30.0030   44.9940 N   0  0  0  0  0  0  0  0  0  0  0  0
   28.5090   31.0540   44.5950 N   0  0  0  0  0  0  0  0  0  0  0  0
   27.9970   32.0210   43.7970 C   0  0  0  0  0  3  0  0  0  0  0  0
   26.5950   31.8780   43.7960 C   0  0  0  0  0  3  0  0  0  0  0  0
   26.3280   30.8360   44.5930 N   0  0  0  0  0  0  0  0  0  0  0  0
   27.4690   30.3340   45.0770 C   0  0  0  0  0  0  0  0  0  0  0  0
   27.7910   29.2540   45.9490 N   0  0  0  0  0  0  0  0  0  0  0  0
   28.6710   28.2470   45.7840 C   0  0  0  0  0  3  0  0  0  0  0  0
   28.6770   27.4360   46.8360 N   0  0  0  0  0  0  0  0  0  0  0  0
   27.7940   27.8980   47.7200 C   0  0  0  0  0  0  0  0  0  0  0  0
   27.3420   27.5220   48.9740 C   0  0  0  0  0  3  0  0  0  0  0  0
   26.4040   28.2190   49.6410 N   0  0  0  0  0  0  0  0  0  0  0  0
   25.8760   29.3200   49.0920 C   0  0  0  0  0  3  0  0  0  0  0  0
   26.2780   29.7440   47.8580 N   0  0  0  0  0  0  0  0  0  0  0  0
   27.2280   29.0430   47.1740 C   0  0  0  0  0  0  0  0  0  0  0  0
   32.7030   28.9890   45.3780 O   0  0  0  0  0  0  0  0  0  0  0  0
   33.2600   28.8500   46.6550 C   0  0  0  0  0  0  0  0  0  0  0  0
   32.4250   28.3100   47.5970 C   0  0  0  0  0  3  0  0  0  0  0  0
   33.4840   28.3030   49.0510 S   0  0  0  0  0  0  0  0  0  0  0  0
   34.9560   29.0620   48.1190 C   0  0  0  0  0  0  0  0  0  0  0  0
   34.4540   29.1510   47.1000 N   0  0  0  0  0  0  0  0  0  0  0  0
   36.2600   29.3400   48.8180 C   0  0  2  0  0  3  0  0  0  0  0  0
   36.2510   29.4920   50.2580 C   0  0  0  0  0  2  0  0  0  0  0  0
   36.2100   30.7500   49.6210 C   0  0  1  0  0  3  0  0  0  0  0  0
   37.5780   31.4470   49.6600 C   0  0  0  0  0  0  0  0  0  0  0  0
   37.7580   32.5930   49.0120 O   0  0  0  0  0  0  0  0  0  0  0  0
   38.6360   30.8670   50.3900 O   0  0  0  0  0  0  0  0  0  0  0  0
   39.5200   31.3120   50.4180 H   0  0  0  0  0  0  0  0  0  0  0  0
  1 21  1  0  0  0  0
  2  1  2  0  0  0  0
  3  2  1  0  0  0  0
  4  3  2  0  0  0  0
  4  5  1  0  0  0  0
  5  6  2  0  0  0  0
  6  1  1  0  0  0  0
  7  5  1  0  0  0  0
  7 11  1  0  0  0  0
  8  7  1  0  0  0  0
  9  8  2  0  0  0  0
  9 10  1  0  0  0  0
 10 11  2  0  0  0  0
 11 12  1  0  0  0  0
 12 20  1  0  0  0  0
 13 12  1  0  0  0  0
 13 14  2  0  0  0  0
 14 15  1  0  0  0  0
 15 16  1  0  0  0  0
 16 17  2  0  0  0  0
 18 17  1  0  0  0  0
 19 18  2  0  0  0  0
 20 15  2  0  0  0  0
 20 19  1  0  0  0  0
 21 22  1  0  0  0  0
 22 26  1  0  0  0  0
 22 23  2  0  0  0  0
 23 24  1  0  0  0  0
 25 24  1  0  0  0  0
 26 25  2  0  0  0  0
 27 25  1  6  0  0  0
 27 29  1  0  0  0  0
 27 28  1  0  0  0  0
 29 30  1  1  0  0  0
 29 28  1  0  0  0  0
 30 32  1  0  0  0  0
 31 30  2  0  0  0  0
 32 33  1  0  0  0  0
M  END
>  <minimizedAffinity>
-6.77212334

$$$$

 OpenBabel03272514423D

 33 38  0  0  1  0  0  0  0  0999 V2000
   30.4760   27.3800   48.6310 C   0  0  0  0  0  0  0  0  0  0  0  0
   29.8140   27.8180   49.7860 C   0  0  0  0  0  3  0  0  0  0  0  0
   28.4720   28.1510   49.6780 C   0  0  0  0  0  3  0  0  0  0  0  0
   27.8570   28.0450   48.4890 N   0  0  0  0  0  0  0  0  0  0  0  0
   28.5390   27.6120   47.3780 C   0  0  0  0  0  0  0  0  0  0  0  0
   29.8250   27.2850   47.4480 N   0  0  0  0  0  0  0  0  0  0  0  0
   27.8280   27.5320   46.1660 N   0  0  0  0  0  0  0  0  0  0  0  0
   26.7570   28.3600   46.1090 C   0  0  0  0  0  3  0  0  0  0  0  0
   26.1350   28.1720   44.8600 C   0  0  0  0  0  3  0  0  0  0  0  0
   26.8560   27.2410   44.2230 N   0  0  0  0  0  0  0  0  0  0  0  0
   27.8740   26.8500   44.9970 C   0  0  0  0  0  0  0  0  0  0  0  0
   28.9370   25.9140   44.8460 N   0  0  0  0  0  0  0  0  0  0  0  0
   30.2620   26.0770   45.0340 C   0  0  0  0  0  3  0  0  0  0  0  0
   30.9250   24.9530   44.7880 N   0  0  0  0  0  0  0  0  0  0  0  0
   30.0430   24.0210   44.4300 C   0  0  0  0  0  0  0  0  0  0  0  0
   30.0880   22.6880   44.0590 C   0  0  0  0  0  3  0  0  0  0  0  0
   28.9840   21.9890   43.7430 N   0  0  0  0  0  0  0  0  0  0  0  0
   27.7850   22.5840   43.7830 C   0  0  0  0  0  3  0  0  0  0  0  0
   27.6700   23.8960   44.1410 N   0  0  0  0  0  0  0  0  0  0  0  0
   28.7860   24.6130   44.4620 C   0  0  0  0  0  0  0  0  0  0  0  0
   31.7820   27.0560   48.7360 O   0  0  0  0  0  0  0  0  0  0  0  0
   32.7670   27.9490   48.2960 C   0  0  0  0  0  0  0  0  0  0  0  0
   32.9070   28.0360   46.9370 C   0  0  0  0  0  3  0  0  0  0  0  0
   34.2300   29.2460   46.7910 S   0  0  0  0  0  0  0  0  0  0  0  0
   34.3950   29.4570   48.6720 C   0  0  0  0  0  0  0  0  0  0  0  0
   33.5810   28.7190   48.9740 N   0  0  0  0  0  0  0  0  0  0  0  0
   35.4070   30.4010   49.2640 C   0  0  2  0  0  3  0  0  0  0  0  0
   36.5940   30.7110   48.4940 C   0  0  0  0  0  2  0  0  0  0  0  0
   36.8550   29.6870   49.4280 C   0  0  1  0  0  3  0  0  0  0  0  0
   37.6310   30.2160   50.6420 C   0  0  0  0  0  0  0  0  0  0  0  0
   37.2320   29.9090   51.8720 O   0  0  0  0  0  0  0  0  0  0  0  0
   38.7720   31.0220   50.4440 O   0  0  0  0  0  0  0  0  0  0  0  0
   39.2760   31.3660   51.2240 H   0  0  0  0  0  0  0  0  0  0  0  0
  1 21  1  0  0  0  0
  1  2  1  0  0  0  0
  3  2  2  0  0  0  0
  4  3  1  0  0  0  0
  5  6  1  0  0  0  0
  5  4  2  0  0  0  0
  6  1  2  0  0  0  0
  7  5  1  0  0  0  0
  8  7  1  0  0  0  0
  9  8  2  0  0  0  0
 10  9  1  0  0  0  0
 10 11  2  0  0  0  0
 11  7  1  0  0  0  0
 12 11  1  0  0  0  0
 12 13  1  0  0  0  0
 14 13  2  0  0  0  0
 15 20  1  0  0  0  0
 15 14  1  0  0  0  0
 16 15  2  0  0  0  0
 17 18  2  0  0  0  0
 17 16  1  0  0  0  0
 18 19  1  0  0  0  0
 19 20  2  0  0  0  0
 20 12  1  0  0  0  0
 22 21  1  0  0  0  0
 22 26  1  0  0  0  0
 23 22  2  0  0  0  0
 24 23  1  0  0  0  0
 24 25  1  0  0  0  0
 25 26  2  0  0  0  0
 27 25  1  6  0  0  0
 27 29  1  0  0  0  0
 28 27  1  0  0  0  0
 28 29  1  0  0  0  0
 29 30  1  1  0  0  0
 30 31  2  0  0  0  0
 32 30  1  0  0  0  0
 32 33  1  0  0  0  0
M  END
>  <minimizedAffinity>
-6.71772766

$$$$

 OpenBabel03272514423D

 33 38  0  0  1  0  0  0  0  0999 V2000
   31.7840   27.3860   48.4580 C   0  0  0  0  0  0  0  0  0  0  0  0
   31.5030   26.1230   47.9190 C   0  0  0  0  0  3  0  0  0  0  0  0
   32.0750   25.7980   46.6990 C   0  0  0  0  0  3  0  0  0  0  0  0
   32.8680   26.6880   46.0800 N   0  0  0  0  0  0  0  0  0  0  0  0
   33.1190   27.9170   46.6390 C   0  0  0  0  0  0  0  0  0  0  0  0
   32.5880   28.2590   47.8080 N   0  0  0  0  0  0  0  0  0  0  0  0
   33.9560   28.7990   45.9290 N   0  0  0  0  0  0  0  0  0  0  0  0
   33.9800   28.5660   44.5940 C   0  0  0  0  0  3  0  0  0  0  0  0
   34.8570   29.5030   44.0120 C   0  0  0  0  0  3  0  0  0  0  0  0
   35.3200   30.2530   45.0190 N   0  0  0  0  0  0  0  0  0  0  0  0
   34.7860   29.8390   46.1740 C   0  0  0  0  0  0  0  0  0  0  0  0
   34.9090   30.2520   47.5320 N   0  0  0  0  0  0  0  0  0  0  0  0
   33.9510   30.5460   48.4320 C   0  0  0  0  0  3  0  0  0  0  0  0
   34.4790   30.8930   49.6010 N   0  0  0  0  0  0  0  0  0  0  0  0
   35.8050   30.8330   49.4900 C   0  0  0  0  0  0  0  0  0  0  0  0
   36.8910   31.0650   50.3180 C   0  0  0  0  0  3  0  0  0  0  0  0
   38.1610   30.9140   49.9010 N   0  0  0  0  0  0  0  0  0  0  0  0
   38.4070   30.5240   48.6440 C   0  0  0  0  0  3  0  0  0  0  0  0
   37.3820   30.2800   47.7770 N   0  0  0  0  0  0  0  0  0  0  0  0
   36.0900   30.4310   48.1910 C   0  0  0  0  0  0  0  0  0  0  0  0
   31.2280   27.7030   49.6470 O   0  0  0  0  0  0  0  0  0  0  0  0
   29.8540   27.9610   49.7360 C   0  0  0  0  0  0  0  0  0  0  0  0
   29.0930   26.9090   50.1730 C   0  0  0  0  0  3  0  0  0  0  0  0
   27.4440   27.6260   50.1450 S   0  0  0  0  0  0  0  0  0  0  0  0
   28.0660   29.3100   49.5200 C   0  0  0  0  0  0  0  0  0  0  0  0
   29.1730   29.0470   49.4680 N   0  0  0  0  0  0  0  0  0  0  0  0
   27.1120   30.4460   49.2660 C   0  0  2  0  0  3  0  0  0  0  0  0
   25.7500   30.1320   48.8860 C   0  0  0  0  0  2  0  0  0  0  0  0
   26.5370   30.4070   47.7480 C   0  0  1  0  0  3  0  0  0  0  0  0
   26.2570   31.8110   47.1950 C   0  0  0  0  0  0  0  0  0  0  0  0
   26.9450   32.2640   46.1520 O   0  0  0  0  0  0  0  0  0  0  0  0
   25.2630   32.6120   47.7950 O   0  0  0  0  0  0  0  0  0  0  0  0
   25.0780   33.5180   47.4420 H   0  0  0  0  0  0  0  0  0  0  0  0
  1 21  1  0  0  0  0
  2  1  1  0  0  0  0
  3  2  2  0  0  0  0
  4  5  2  0  0  0  0
  4  3  1  0  0  0  0
  5  6  1  0  0  0  0
  6  1  2  0  0  0  0
  7 11  1  0  0  0  0
  7  5  1  0  0  0  0
  8  7  1  0  0  0  0
  9  8  2  0  0  0  0
  9 10  1  0  0  0  0
 10 11  2  0  0  0  0
 11 12  1  0  0  0  0
 12 20  1  0  0  0  0
 12 13  1  0  0  0  0
 13 14  2  0  0  0  0
 15 14  1  0  0  0  0
 15 16  1  0  0  0  0
 17 16  2  0  0  0  0
 18 17  1  0  0  0  0
 19 20  1  0  0  0  0
 19 18  2  0  0  0  0
 20 15  2  0  0  0  0
 21 22  1  0  0  0  0
 22 23  2  0  0  0  0
 24 23  1  0  0  0  0
 25 24  1  0  0  0  0
 26 25  2  0  0  0  0
 26 22  1  0  0  0  0
 27 25  1  6  0  0  0
 28 27  1  0  0  0  0
 29 30  1  1  0  0  0
 29 28  1  0  0  0  0
 29 27  1  0  0  0  0
 30 32  1  0  0  0  0
 31 30  2  0  0  0  0
 33 32  1  0  0  0  0
M  END
>  <minimizedAffinity>
-6.66089058

$$$$

 OpenBabel03272514423D

 33 38  0  0  1  0  0  0  0  0999 V2000
   34.2550   28.9690   47.7350 C   0  0  0  0  0  0  0  0  0  0  0  0
   34.0940   29.4040   49.0570 C   0  0  0  0  0  3  0  0  0  0  0  0
   34.9680   30.3690   49.5330 C   0  0  0  0  0  3  0  0  0  0  0  0
   35.9280   30.8500   48.7270 N   0  0  0  0  0  0  0  0  0  0  0  0
   36.0550   30.3990   47.4360 C   0  0  0  0  0  0  0  0  0  0  0  0
   35.2330   29.4760   46.9490 N   0  0  0  0  0  0  0  0  0  0  0  0
   37.0880   30.9460   46.6510 N   0  0  0  0  0  0  0  0  0  0  0  0
   38.1230   31.4290   47.3800 C   0  0  0  0  0  3  0  0  0  0  0  0
   39.0720   31.9540   46.4800 C   0  0  0  0  0  3  0  0  0  0  0  0
   38.5670   31.7650   45.2560 N   0  0  0  0  0  0  0  0  0  0  0  0
   37.3760   31.1610   45.3470 C   0  0  0  0  0  0  0  0  0  0  0  0
   36.4070   30.7230   44.3980 N   0  0  0  0  0  0  0  0  0  0  0  0
   35.8040   29.5250   44.2750 C   0  0  0  0  0  3  0  0  0  0  0  0
   34.9540   29.5160   43.2540 N   0  0  0  0  0  0  0  0  0  0  0  0
   34.9820   30.7190   42.6830 C   0  0  0  0  0  0  0  0  0  0  0  0
   34.3520   31.3360   41.6140 C   0  0  0  0  0  3  0  0  0  0  0  0
   34.5990   32.6120   41.2700 N   0  0  0  0  0  0  0  0  0  0  0  0
   35.4820   33.3320   41.9730 C   0  0  0  0  0  3  0  0  0  0  0  0
   36.1380   32.7840   43.0370 N   0  0  0  0  0  0  0  0  0  0  0  0
   35.8940   31.4900   43.3940 C   0  0  0  0  0  0  0  0  0  0  0  0
   33.4040   28.0300   47.2710 O   0  0  0  0  0  0  0  0  0  0  0  0
   32.0350   28.3090   47.1680 C   0  0  0  0  0  0  0  0  0  0  0  0
   31.6970   29.2020   46.1870 C   0  0  0  0  0  3  0  0  0  0  0  0
   29.9100   29.2850   46.3810 S   0  0  0  0  0  0  0  0  0  0  0  0
   29.8970   28.0430   47.8190 C   0  0  0  0  0  0  0  0  0  0  0  0
   31.0200   27.8520   47.8580 N   0  0  0  0  0  0  0  0  0  0  0  0
   28.6110   27.6460   48.4920 C   0  0  2  0  0  3  0  0  0  0  0  0
   27.5610   28.6360   48.6140 C   0  0  0  0  0  2  0  0  0  0  0  0
   28.3210   28.5620   49.8000 C   0  0  1  0  0  3  0  0  0  0  0  0
   27.5770   27.7900   50.8990 C   0  0  0  0  0  0  0  0  0  0  0  0
   28.2610   27.0950   51.8020 O   0  0  0  0  0  0  0  0  0  0  0  0
   26.1680   27.8280   50.9460 O   0  0  0  0  0  0  0  0  0  0  0  0
   25.6830   27.3320   51.6520 H   0  0  0  0  0  0  0  0  0  0  0  0
  1  2  1  0  0  0  0
  2  3  2  0  0  0  0
  4  3  1  0  0  0  0
  5  4  2  0  0  0  0
  6  5  1  0  0  0  0
  6  1  2  0  0  0  0
  7  8  1  0  0  0  0
  7  5  1  0  0  0  0
  9  8  2  0  0  0  0
 10 11  2  0  0  0  0
 10  9  1  0  0  0  0
 11  7  1  0  0  0  0
 12 11  1  0  0  0  0
 13 12  1  0  0  0  0
 14 13  2  0  0  0  0
 15 14  1  0  0  0  0
 15 20  1  0  0  0  0
 16 15  2  0  0  0  0
 17 16  1  0  0  0  0
 17 18  2  0  0  0  0
 18 19  1  0  0  0  0
 19 20  2  0  0  0  0
 20 12  1  0  0  0  0
 21  1  1  0  0  0  0
 22 21  1  0  0  0  0
 22 26  1  0  0  0  0
 23 24  1  0  0  0  0
 23 22  2  0  0  0  0
 24 25  1  0  0  0  0
 25 26  2  0  0  0  0
 27 25  1  6  0  0  0
 27 28  1  0  0  0  0
 27 29  1  0  0  0  0
 28 29  1  0  0  0  0
 29 30  1  1  0  0  0
 30 32  1  0  0  0  0
 30 31  2  0  0  0  0
 32 33  1  0  0  0  0
M  END
>  <minimizedAffinity>
-6.59974957

$$$$
