
 OpenBabel03272514433D

 38 42  0  0  0  0  0  0  0  0999 V2000
   26.7440   29.5480   49.4490 C   0  0  0  0  0  3  0  0  0  0  0  0
   27.5870   28.4560   49.2330 C   0  0  0  0  0  0  0  0  0  0  0  0
   28.0970   28.2800   47.9110 C   0  0  0  0  0  0  0  0  0  0  0  0
   27.7390   29.1610   46.9780 N   0  0  0  0  0  0  0  0  0  0  0  0
   26.9190   30.2090   47.2150 C   0  0  0  0  0  0  0  0  0  0  0  0
   26.4250   30.3990   48.4490 N   0  0  0  0  0  0  0  0  0  0  0  0
   26.6800   31.0090   46.0600 N   0  0  0  0  0  0  0  0  0  0  0  0
   27.0580   30.6670   44.7930 C   0  0  0  0  0  3  0  0  0  0  0  0
   26.6520   31.6790   43.9930 N   0  0  0  0  0  0  0  0  0  0  0  0
   26.0440   32.6170   44.7340 C   0  0  0  0  0  0  0  0  0  0  0  0
   25.4520   33.8280   44.4550 C   0  0  0  0  0  0  0  0  0  0  0  0
   24.9070   34.5720   45.4380 N   0  0  0  0  0  0  0  0  0  0  0  0
   24.9230   34.1550   46.7360 C   0  0  0  0  0  3  0  0  0  0  0  0
   25.5030   32.9710   46.9980 N   0  0  0  0  0  0  0  0  0  0  0  0
   26.0550   32.2000   46.0610 C   0  0  0  0  0  0  0  0  0  0  0  0
   27.8190   27.6140   50.4530 C   0  0  0  0  0  0  0  0  0  0  0  0
   29.1350   27.8030   50.9330 F   0  0  0  0  0  0  0  0  0  0  0  0
   26.9640   28.1310   51.3720 F   0  0  0  0  0  0  0  0  0  0  0  0
   27.5460   26.2990   50.2630 F   0  0  0  0  0  0  0  0  0  0  0  0
   25.4040   34.3240   43.1020 N   0  0  0  0  0  0  0  0  0  0  0  0
   24.9600   35.2320   42.9010 H   0  0  0  0  0  0  0  0  0  0  0  0
   25.8140   33.7710   42.3360 H   0  0  0  0  0  0  0  0  0  0  0  0
   28.9510   27.1440   47.7850 C   0  0  0  0  0  0  0  0  0  0  0  0
   28.7310   26.2310   46.9460 O   0  0  0  0  0  0  0  0  0  0  0  0
   30.1420   26.7790   48.4920 O   0  0  0  0  0  0  0  0  0  0  0  0
   31.3770   27.0320   47.9750 C   0  0  0  0  0  0  0  0  0  0  0  0
   32.1630   25.9120   47.8050 C   0  0  0  0  0  3  0  0  0  0  0  0
   33.4170   25.9930   47.2940 C   0  0  0  0  0  3  0  0  0  0  0  0
   33.8820   27.2660   46.9430 C   0  0  0  0  0  3  0  0  0  0  0  0
   33.0990   28.3970   47.1140 C   0  0  0  0  0  0  0  0  0  0  0  0
   31.8640   28.2300   47.6270 N   0  0  0  0  0  0  0  0  0  0  0  0
   33.5690   29.7710   46.7870 C   0  0  0  0  0  2  0  0  0  0  0  0
   34.5920   30.1650   47.8070 C   0  0  0  0  0  0  0  0  0  0  0  0
   34.5970   30.2580   49.1930 C   0  0  0  0  0  3  0  0  0  0  0  0
   35.8330   30.6860   49.5930 C   0  0  0  0  0  3  0  0  0  0  0  0
   36.5670   30.8510   48.4710 N   0  0  0  0  0  0  0  0  0  0  0  0
   35.8250   30.5400   47.4320 N   0  0  0  0  0  0  0  0  0  0  0  0
   37.5460   31.1690   48.4360 H   0  0  0  0  0  0  0  0  0  0  0  0
  2  1  1  0  0  0  0
  2 16  1  0  0  0  0
  3  2  2  0  0  0  0
  4  5  2  0  0  0  0
  4  3  1  0  0  0  0
  5  6  1  0  0  0  0
  6  1  2  0  0  0  0
  7 15  1  0  0  0  0
  7  5  1  0  0  0  0
  8  7  1  0  0  0  0
  9 10  1  0  0  0  0
  9  8  2  0  0  0  0
 10 15  1  0  0  0  0
 11 10  2  0  0  0  0
 11 12  1  0  0  0  0
 12 13  2  0  0  0  0
 13 14  1  0  0  0  0
 15 14  2  0  0  0  0
 16 17  1  0  0  0  0
 16 18  1  0  0  0  0
 19 16  1  0  0  0  0
 20 11  1  0  0  0  0
 21 20  1  0  0  0  0
 22 20  1  0  0  0  0
 23  3  1  0  0  0  0
 23 25  1  0  0  0  0
 24 23  2  0  0  0  0
 26 25  1  0  0  0  0
 27 26  1  0  0  0  0
 28 27  2  0  0  0  0
 29 30  2  0  0  0  0
 29 28  1  0  0  0  0
 30 31  1  0  0  0  0
 31 26  2  0  0  0  0
 32 30  1  0  0  0  0
 32 33  1  0  0  0  0
 33 34  1  0  0  0  0
 34 35  2  0  0  0  0
 36 35  1  0  0  0  0
 37 33  2  0  0  0  0
 37 36  1  0  0  0  0
 38 36  1  0  0  0  0
M  END
>  <minimizedAffinity>
-7.89745855

$$$$

 OpenBabel03272514433D

 38 42  0  0  0  0  0  0  0  0999 V2000
   32.2720   28.5460   46.3700 C   0  0  0  0  0  3  0  0  0  0  0  0
   31.2170   28.0660   47.1480 C   0  0  0  0  0  0  0  0  0  0  0  0
   31.4190   28.0220   48.5610 C   0  0  0  0  0  0  0  0  0  0  0  0
   32.5920   28.4370   49.0400 N   0  0  0  0  0  0  0  0  0  0  0  0
   33.5960   28.8950   48.2610 C   0  0  0  0  0  0  0  0  0  0  0  0
   33.4340   28.9490   46.9290 N   0  0  0  0  0  0  0  0  0  0  0  0
   34.7530   29.2780   49.0020 N   0  0  0  0  0  0  0  0  0  0  0  0
   34.9320   29.0320   50.3330 C   0  0  0  0  0  3  0  0  0  0  0  0
   36.1400   29.5480   50.6520 N   0  0  0  0  0  0  0  0  0  0  0  0
   36.6940   30.0950   49.5590 C   0  0  0  0  0  0  0  0  0  0  0  0
   37.8820   30.7440   49.3070 C   0  0  0  0  0  0  0  0  0  0  0  0
   38.1690   31.1970   48.0700 N   0  0  0  0  0  0  0  0  0  0  0  0
   37.3010   31.0300   47.0320 C   0  0  0  0  0  3  0  0  0  0  0  0
   36.1440   30.3940   47.2900 N   0  0  0  0  0  0  0  0  0  0  0  0
   35.8150   29.9300   48.4950 C   0  0  0  0  0  0  0  0  0  0  0  0
   30.0120   27.6540   46.3550 C   0  0  0  0  0  0  0  0  0  0  0  0
   28.9400   28.5430   46.5970 F   0  0  0  0  0  0  0  0  0  0  0  0
   30.4020   27.8140   45.0650 F   0  0  0  0  0  0  0  0  0  0  0  0
   29.6420   26.3650   46.5640 F   0  0  0  0  0  0  0  0  0  0  0  0
   38.8410   30.9520   50.3620 N   0  0  0  0  0  0  0  0  0  0  0  0
   39.7270   31.4390   50.1650 H   0  0  0  0  0  0  0  0  0  0  0  0
   38.6410   30.6130   51.3140 H   0  0  0  0  0  0  0  0  0  0  0  0
   30.2890   27.5240   49.2760 C   0  0  0  0  0  0  0  0  0  0  0  0
   29.9680   26.3060   49.2560 O   0  0  0  0  0  0  0  0  0  0  0  0
   29.3320   28.1920   50.1050 O   0  0  0  0  0  0  0  0  0  0  0  0
   28.1490   28.6420   49.5980 C   0  0  0  0  0  0  0  0  0  0  0  0
   27.2580   27.6450   49.2630 C   0  0  0  0  0  3  0  0  0  0  0  0
   26.0330   27.9270   48.7530 C   0  0  0  0  0  3  0  0  0  0  0  0
   25.7090   29.2770   48.5810 C   0  0  0  0  0  3  0  0  0  0  0  0
   26.6010   30.2860   48.9130 C   0  0  0  0  0  0  0  0  0  0  0  0
   27.7970   29.9210   49.4160 N   0  0  0  0  0  0  0  0  0  0  0  0
   26.3090   31.7310   48.7130 C   0  0  0  0  0  2  0  0  0  0  0  0
   26.3320   32.0080   47.2410 C   0  0  0  0  0  0  0  0  0  0  0  0
   26.9110   31.3840   46.1440 C   0  0  0  0  0  3  0  0  0  0  0  0
   26.5960   32.1010   45.0230 C   0  0  0  0  0  3  0  0  0  0  0  0
   25.8380   33.1430   45.4300 N   0  0  0  0  0  0  0  0  0  0  0  0
   25.6910   33.0730   46.7330 N   0  0  0  0  0  0  0  0  0  0  0  0
   25.4410   33.8710   44.8190 H   0  0  0  0  0  0  0  0  0  0  0  0
  1  6  2  0  0  0  0
  1  2  1  0  0  0  0
  2  3  2  0  0  0  0
  3  4  1  0  0  0  0
  3 23  1  0  0  0  0
  5  7  1  0  0  0  0
  5  4  2  0  0  0  0
  6  5  1  0  0  0  0
  7  8  1  0  0  0  0
  8  9  2  0  0  0  0
 10  9  1  0  0  0  0
 11 10  1  0  0  0  0
 11 20  1  0  0  0  0
 12 11  2  0  0  0  0
 13 14  2  0  0  0  0
 13 12  1  0  0  0  0
 14 15  1  0  0  0  0
 15  7  1  0  0  0  0
 15 10  2  0  0  0  0
 16 19  1  0  0  0  0
 16 17  1  0  0  0  0
 16  2  1  0  0  0  0
 18 16  1  0  0  0  0
 20 22  1  0  0  0  0
 21 20  1  0  0  0  0
 23 25  1  0  0  0  0
 24 23  2  0  0  0  0
 26 25  1  0  0  0  0
 27 26  2  0  0  0  0
 28 27  1  0  0  0  0
 29 28  2  0  0  0  0
 29 30  1  0  0  0  0
 30 31  2  0  0  0  0
 31 26  1  0  0  0  0
 32 30  1  0  0  0  0
 33 32  1  0  0  0  0
 34 33  1  0  0  0  0
 35 36  1  0  0  0  0
 35 34  2  0  0  0  0
 36 37  1  0  0  0  0
 37 33  2  0  0  0  0
 38 36  1  0  0  0  0
M  END
>  <minimizedAffinity>
-7.70995712

$$$$

 OpenBabel03272514433D

 38 42  0  0  0  0  0  0  0  0999 V2000
   33.4920   29.9120   46.8010 C   0  0  0  0  0  3  0  0  0  0  0  0
   32.9480   28.7040   47.2400 C   0  0  0  0  0  0  0  0  0  0  0  0
   31.5980   28.4240   46.8640 C   0  0  0  0  0  0  0  0  0  0  0  0
   30.9530   29.3270   46.1270 N   0  0  0  0  0  0  0  0  0  0  0  0
   31.5050   30.4900   45.7170 C   0  0  0  0  0  0  0  0  0  0  0  0
   32.7720   30.7800   46.0550 N   0  0  0  0  0  0  0  0  0  0  0  0
   30.6170   31.2920   44.9420 N   0  0  0  0  0  0  0  0  0  0  0  0
   29.2860   31.0350   44.7830 C   0  0  0  0  0  3  0  0  0  0  0  0
   28.8060   32.0170   43.9870 N   0  0  0  0  0  0  0  0  0  0  0  0
   29.8020   32.8550   43.6610 C   0  0  0  0  0  0  0  0  0  0  0  0
   29.8860   33.9960   42.8960 C   0  0  0  0  0  0  0  0  0  0  0  0
   31.0600   34.6410   42.7480 N   0  0  0  0  0  0  0  0  0  0  0  0
   32.1990   34.1890   43.3460 C   0  0  0  0  0  3  0  0  0  0  0  0
   32.1060   33.0740   44.0910 N   0  0  0  0  0  0  0  0  0  0  0  0
   30.9680   32.4020   44.2660 C   0  0  0  0  0  0  0  0  0  0  0  0
   33.8870   27.8760   48.0660 C   0  0  0  0  0  0  0  0  0  0  0  0
   34.0290   26.5880   47.5000 F   0  0  0  0  0  0  0  0  0  0  0  0
   35.0770   28.5170   47.9450 F   0  0  0  0  0  0  0  0  0  0  0  0
   33.5370   27.8050   49.3760 F   0  0  0  0  0  0  0  0  0  0  0  0
   28.7160   34.5240   42.2390 N   0  0  0  0  0  0  0  0  0  0  0  0
   28.7880   35.3790   41.6680 H   0  0  0  0  0  0  0  0  0  0  0  0
   27.8100   34.0470   42.3400 H   0  0  0  0  0  0  0  0  0  0  0  0
   31.1280   27.1680   47.3520 C   0  0  0  0  0  0  0  0  0  0  0  0
   31.0000   26.1640   46.6020 O   0  0  0  0  0  0  0  0  0  0  0  0
   30.7230   26.7610   48.6630 O   0  0  0  0  0  0  0  0  0  0  0  0
   29.5010   27.0990   49.1630 C   0  0  0  0  0  0  0  0  0  0  0  0
   29.4010   27.0030   50.5350 C   0  0  0  0  0  3  0  0  0  0  0  0
   28.2540   27.3120   51.1880 C   0  0  0  0  0  3  0  0  0  0  0  0
   27.1700   27.7350   50.4110 C   0  0  0  0  0  3  0  0  0  0  0  0
   27.2620   27.8310   49.0300 C   0  0  0  0  0  0  0  0  0  0  0  0
   28.4380   27.5070   48.4580 N   0  0  0  0  0  0  0  0  0  0  0  0
   26.1230   28.2430   48.1650 C   0  0  0  0  0  2  0  0  0  0  0  0
   26.0090   29.7360   48.2310 C   0  0  0  0  0  0  0  0  0  0  0  0
   26.7090   30.7900   47.6600 C   0  0  0  0  0  3  0  0  0  0  0  0
   26.1530   31.9620   48.0900 C   0  0  0  0  0  3  0  0  0  0  0  0
   25.1320   31.6280   48.9100 N   0  0  0  0  0  0  0  0  0  0  0  0
   25.0600   30.3180   48.9810 N   0  0  0  0  0  0  0  0  0  0  0  0
   24.5120   32.2910   49.3980 H   0  0  0  0  0  0  0  0  0  0  0  0
  1  2  1  0  0  0  0
  2 16  1  0  0  0  0
  3  2  2  0  0  0  0
  3 23  1  0  0  0  0
  4  3  1  0  0  0  0
  5  6  1  0  0  0  0
  5  4  2  0  0  0  0
  6  1  2  0  0  0  0
  7  5  1  0  0  0  0
  8  7  1  0  0  0  0
  9  8  2  0  0  0  0
 10  9  1  0  0  0  0
 10 15  1  0  0  0  0
 11 10  2  0  0  0  0
 12 11  1  0  0  0  0
 12 13  2  0  0  0  0
 13 14  1  0  0  0  0
 14 15  2  0  0  0  0
 15  7  1  0  0  0  0
 16 19  1  0  0  0  0
 17 16  1  0  0  0  0
 18 16  1  0  0  0  0
 20 22  1  0  0  0  0
 20 11  1  0  0  0  0
 21 20  1  0  0  0  0
 23 25  1  0  0  0  0
 24 23  2  0  0  0  0
 25 26  1  0  0  0  0
 26 27  1  0  0  0  0
 27 28  2  0  0  0  0
 29 28  1  0  0  0  0
 30 29  2  0  0  0  0
 31 30  1  0  0  0  0
 31 26  2  0  0  0  0
 32 33  1  0  0  0  0
 32 30  1  0  0  0  0
 33 37  2  0  0  0  0
 34 35  2  0  0  0  0
 34 33  1  0  0  0  0
 35 36  1  0  0  0  0
 36 37  1  0  0  0  0
 36 38  1  0  0  0  0
M  END
>  <minimizedAffinity>
-7.36458969

$$$$

 OpenBabel03272514433D

 38 42  0  0  0  0  0  0  0  0999 V2000
   27.3580   29.6940   49.2660 C   0  0  0  0  0  3  0  0  0  0  0  0
   28.2800   28.6910   48.9670 C   0  0  0  0  0  0  0  0  0  0  0  0
   28.6990   28.5760   47.6060 C   0  0  0  0  0  0  0  0  0  0  0  0
   28.1840   29.4270   46.7190 N   0  0  0  0  0  0  0  0  0  0  0  0
   27.2900   30.3890   47.0370 C   0  0  0  0  0  0  0  0  0  0  0  0
   26.8800   30.5200   48.3080 N   0  0  0  0  0  0  0  0  0  0  0  0
   26.8850   31.1720   45.9170 N   0  0  0  0  0  0  0  0  0  0  0  0
   27.1920   30.8800   44.6190 C   0  0  0  0  0  3  0  0  0  0  0  0
   26.6290   31.8550   43.8710 N   0  0  0  0  0  0  0  0  0  0  0  0
   25.9940   32.7230   44.6730 C   0  0  0  0  0  0  0  0  0  0  0  0
   25.2700   33.8740   44.4600 C   0  0  0  0  0  0  0  0  0  0  0  0
   24.7360   34.5530   45.4950 N   0  0  0  0  0  0  0  0  0  0  0  0
   24.8940   34.1280   46.7810 C   0  0  0  0  0  3  0  0  0  0  0  0
   25.6040   33.0030   46.9770 N   0  0  0  0  0  0  0  0  0  0  0  0
   26.1510   32.2980   45.9870 C   0  0  0  0  0  0  0  0  0  0  0  0
   28.6880   27.8640   50.1510 C   0  0  0  0  0  0  0  0  0  0  0  0
   30.0630   28.0500   50.4260 F   0  0  0  0  0  0  0  0  0  0  0  0
   27.9830   28.4000   51.1790 F   0  0  0  0  0  0  0  0  0  0  0  0
   28.3830   26.5480   50.0240 F   0  0  0  0  0  0  0  0  0  0  0  0
   25.0670   34.3750   43.1240 N   0  0  0  0  0  0  0  0  0  0  0  0
   24.5230   35.2380   42.9730 H   0  0  0  0  0  0  0  0  0  0  0  0
   25.4650   33.8710   42.3190 H   0  0  0  0  0  0  0  0  0  0  0  0
   29.6440   27.5290   47.3950 C   0  0  0  0  0  0  0  0  0  0  0  0
   29.2950   26.3750   47.0300 O   0  0  0  0  0  0  0  0  0  0  0  0
   31.0700   27.5090   47.5250 O   0  0  0  0  0  0  0  0  0  0  0  0
   31.8540   28.4010   46.8570 C   0  0  0  0  0  0  0  0  0  0  0  0
   33.0270   28.7250   47.5050 C   0  0  0  0  0  3  0  0  0  0  0  0
   33.9210   29.5920   46.9690 C   0  0  0  0  0  3  0  0  0  0  0  0
   33.6030   30.1480   45.7240 C   0  0  0  0  0  3  0  0  0  0  0  0
   32.4240   29.8300   45.0670 C   0  0  0  0  0  0  0  0  0  0  0  0
   31.5910   28.9570   45.6680 N   0  0  0  0  0  0  0  0  0  0  0  0
   32.0340   30.4240   43.7600 C   0  0  0  0  0  2  0  0  0  0  0  0
   31.8000   31.8890   43.9700 C   0  0  0  0  0  0  0  0  0  0  0  0
   32.4770   33.0440   43.6000 C   0  0  0  0  0  3  0  0  0  0  0  0
   31.7890   34.1220   44.0830 C   0  0  0  0  0  3  0  0  0  0  0  0
   30.7130   33.6330   44.7370 N   0  0  0  0  0  0  0  0  0  0  0  0
   30.7330   32.3210   44.6600 N   0  0  0  0  0  0  0  0  0  0  0  0
   29.9950   34.1950   45.2160 H   0  0  0  0  0  0  0  0  0  0  0  0
  2  1  1  0  0  0  0
  2 16  1  0  0  0  0
  3  2  2  0  0  0  0
  4  5  2  0  0  0  0
  4  3  1  0  0  0  0
  5  6  1  0  0  0  0
  6  1  2  0  0  0  0
  7 15  1  0  0  0  0
  7  5  1  0  0  0  0
  8  7  1  0  0  0  0
  9  8  2  0  0  0  0
  9 10  1  0  0  0  0
 10 15  1  0  0  0  0
 11 10  2  0  0  0  0
 11 12  1  0  0  0  0
 12 13  2  0  0  0  0
 13 14  1  0  0  0  0
 15 14  2  0  0  0  0
 16 17  1  0  0  0  0
 16 18  1  0  0  0  0
 19 16  1  0  0  0  0
 20 11  1  0  0  0  0
 21 20  1  0  0  0  0
 22 20  1  0  0  0  0
 23 25  1  0  0  0  0
 23  3  1  0  0  0  0
 24 23  2  0  0  0  0
 26 27  1  0  0  0  0
 26 25  1  0  0  0  0
 28 27  2  0  0  0  0
 29 28  1  0  0  0  0
 30 31  1  0  0  0  0
 30 29  2  0  0  0  0
 31 26  2  0  0  0  0
 32 33  1  0  0  0  0
 32 30  1  0  0  0  0
 33 37  2  0  0  0  0
 34 33  1  0  0  0  0
 34 35  2  0  0  0  0
 35 36  1  0  0  0  0
 36 38  1  0  0  0  0
 37 36  1  0  0  0  0
M  END
>  <minimizedAffinity>
-7.34316826

$$$$

 OpenBabel03272514433D

 38 42  0  0  0  0  0  0  0  0999 V2000
   34.4360   30.1580   44.5030 C   0  0  0  0  0  3  0  0  0  0  0  0
   33.1530   29.6260   44.3610 C   0  0  0  0  0  0  0  0  0  0  0  0
   32.5480   29.0670   45.5290 C   0  0  0  0  0  0  0  0  0  0  0  0
   33.2430   29.0900   46.6660 N   0  0  0  0  0  0  0  0  0  0  0  0
   34.4850   29.6110   46.7730 C   0  0  0  0  0  0  0  0  0  0  0  0
   35.0780   30.1430   45.6930 N   0  0  0  0  0  0  0  0  0  0  0  0
   35.0230   29.5170   48.0900 N   0  0  0  0  0  0  0  0  0  0  0  0
   34.4540   28.8030   49.1060 C   0  0  0  0  0  3  0  0  0  0  0  0
   35.2610   28.9670   50.1780 N   0  0  0  0  0  0  0  0  0  0  0  0
   36.2950   29.7540   49.8430 C   0  0  0  0  0  0  0  0  0  0  0  0
   37.3910   30.2410   50.5190 C   0  0  0  0  0  0  0  0  0  0  0  0
   38.2860   31.0330   49.8980 N   0  0  0  0  0  0  0  0  0  0  0  0
   38.1400   31.3810   48.5880 C   0  0  0  0  0  3  0  0  0  0  0  0
   37.0670   30.9000   47.9370 N   0  0  0  0  0  0  0  0  0  0  0  0
   36.1540   30.1130   48.5080 C   0  0  0  0  0  0  0  0  0  0  0  0
   32.6050   29.7190   42.9680 C   0  0  0  0  0  0  0  0  0  0  0  0
   33.5900   30.2220   42.0880 F   0  0  0  0  0  0  0  0  0  0  0  0
   32.3650   28.4270   42.6270 F   0  0  0  0  0  0  0  0  0  0  0  0
   31.4550   30.4350   42.8850 F   0  0  0  0  0  0  0  0  0  0  0  0
   37.6010   29.9100   51.9060 N   0  0  0  0  0  0  0  0  0  0  0  0
   38.4240   30.2780   52.4050 H   0  0  0  0  0  0  0  0  0  0  0  0
   36.9290   29.3050   52.3990 H   0  0  0  0  0  0  0  0  0  0  0  0
   31.2390   28.5530   45.2920 C   0  0  0  0  0  0  0  0  0  0  0  0
   31.0030   27.3160   45.2530 O   0  0  0  0  0  0  0  0  0  0  0  0
   29.9940   29.2200   45.0610 O   0  0  0  0  0  0  0  0  0  0  0  0
   28.9390   29.0640   45.9100 C   0  0  0  0  0  0  0  0  0  0  0  0
   27.8440   28.4400   45.3480 C   0  0  0  0  0  3  0  0  0  0  0  0
   26.7170   28.2020   46.0630 C   0  0  0  0  0  3  0  0  0  0  0  0
   26.7090   28.6160   47.4000 C   0  0  0  0  0  3  0  0  0  0  0  0
   27.8040   29.2460   47.9710 C   0  0  0  0  0  0  0  0  0  0  0  0
   28.8870   29.4430   47.1930 N   0  0  0  0  0  0  0  0  0  0  0  0
   27.8230   29.7320   49.3780 C   0  0  0  0  0  2  0  0  0  0  0  0
   27.8410   28.5360   50.2790 C   0  0  0  0  0  0  0  0  0  0  0  0
   26.8960   27.9090   51.0810 C   0  0  0  0  0  3  0  0  0  0  0  0
   27.4910   26.8420   51.6960 C   0  0  0  0  0  3  0  0  0  0  0  0
   28.7750   26.8200   51.2770 N   0  0  0  0  0  0  0  0  0  0  0  0
   28.9640   27.8190   50.4460 N   0  0  0  0  0  0  0  0  0  0  0  0
   29.4880   26.1330   51.5620 H   0  0  0  0  0  0  0  0  0  0  0  0
  1  6  1  0  0  0  0
  2  1  2  0  0  0  0
  2  3  1  0  0  0  0
  3  4  2  0  0  0  0
  4  5  1  0  0  0  0
  5  7  1  0  0  0  0
  6  5  2  0  0  0  0
  7 15  1  0  0  0  0
  7  8  1  0  0  0  0
  8  9  2  0  0  0  0
 10  9  1  0  0  0  0
 10 11  1  0  0  0  0
 11 20  1  0  0  0  0
 12 11  2  0  0  0  0
 13 12  1  0  0  0  0
 14 15  1  0  0  0  0
 14 13  2  0  0  0  0
 15 10  2  0  0  0  0
 16  2  1  0  0  0  0
 17 16  1  0  0  0  0
 18 16  1  0  0  0  0
 19 16  1  0  0  0  0
 20 22  1  0  0  0  0
 20 21  1  0  0  0  0
 23  3  1  0  0  0  0
 24 23  2  0  0  0  0
 25 23  1  0  0  0  0
 25 26  1  0  0  0  0
 26 31  1  0  0  0  0
 27 26  2  0  0  0  0
 27 28  1  0  0  0  0
 28 29  2  0  0  0  0
 29 30  1  0  0  0  0
 30 32  1  0  0  0  0
 31 30  2  0  0  0  0
 32 33  1  0  0  0  0
 33 37  2  0  0  0  0
 33 34  1  0  0  0  0
 34 35  2  0  0  0  0
 36 38  1  0  0  0  0
 36 35  1  0  0  0  0
 37 36  1  0  0  0  0
M  END
>  <minimizedAffinity>
-7.13876724

$$$$

 OpenBabel03272514433D

 38 42  0  0  0  0  0  0  0  0999 V2000
   33.9560   30.0800   44.9540 C   0  0  0  0  0  3  0  0  0  0  0  0
   32.7920   29.3110   44.9000 C   0  0  0  0  0  0  0  0  0  0  0  0
   32.4570   28.5560   46.0650 C   0  0  0  0  0  0  0  0  0  0  0  0
   33.2700   28.6330   47.1180 N   0  0  0  0  0  0  0  0  0  0  0  0
   34.3920   29.3850   47.1410 C   0  0  0  0  0  0  0  0  0  0  0  0
   34.7320   30.1060   46.0600 N   0  0  0  0  0  0  0  0  0  0  0  0
   35.0990   29.3040   48.3770 N   0  0  0  0  0  0  0  0  0  0  0  0
   34.8090   28.4160   49.3730 C   0  0  0  0  0  3  0  0  0  0  0  0
   35.6970   28.6600   50.3640 N   0  0  0  0  0  0  0  0  0  0  0  0
   36.5100   29.6620   49.9980 C   0  0  0  0  0  0  0  0  0  0  0  0
   37.5680   30.3090   50.5970 C   0  0  0  0  0  0  0  0  0  0  0  0
   38.2090   31.3110   49.9630 N   0  0  0  0  0  0  0  0  0  0  0  0
   37.8370   31.7180   48.7170 C   0  0  0  0  0  3  0  0  0  0  0  0
   36.8030   31.0800   48.1410 N   0  0  0  0  0  0  0  0  0  0  0  0
   36.1370   30.0840   48.7270 C   0  0  0  0  0  0  0  0  0  0  0  0
   32.0670   29.3950   43.5900 C   0  0  0  0  0  0  0  0  0  0  0  0
   30.8210   30.0400   43.7620 F   0  0  0  0  0  0  0  0  0  0  0  0
   32.8520   30.2030   42.8340 F   0  0  0  0  0  0  0  0  0  0  0  0
   31.9200   28.1940   42.9740 F   0  0  0  0  0  0  0  0  0  0  0  0
   38.0100   29.9250   51.9140 N   0  0  0  0  0  0  0  0  0  0  0  0
   38.8020   30.4140   52.3550 H   0  0  0  0  0  0  0  0  0  0  0  0
   37.5330   29.1610   52.4140 H   0  0  0  0  0  0  0  0  0  0  0  0
   31.2520   27.8050   45.9210 C   0  0  0  0  0  0  0  0  0  0  0  0
   31.2560   26.5880   45.6000 O   0  0  0  0  0  0  0  0  0  0  0  0
   29.8810   28.1880   46.0820 O   0  0  0  0  0  0  0  0  0  0  0  0
   29.3200   28.3040   47.3190 C   0  0  0  0  0  0  0  0  0  0  0  0
   30.1080   27.8340   48.3480 C   0  0  0  0  0  3  0  0  0  0  0  0
   29.6980   27.8850   49.6390 C   0  0  0  0  0  3  0  0  0  0  0  0
   28.4360   28.4360   49.8870 C   0  0  0  0  0  3  0  0  0  0  0  0
   27.6360   28.9080   48.8570 C   0  0  0  0  0  0  0  0  0  0  0  0
   28.1190   28.8230   47.6010 N   0  0  0  0  0  0  0  0  0  0  0  0
   26.2750   29.4700   49.0740 C   0  0  0  0  0  2  0  0  0  0  0  0
   26.2480   30.8520   48.4980 C   0  0  0  0  0  0  0  0  0  0  0  0
   26.0110   31.3740   47.2330 C   0  0  0  0  0  3  0  0  0  0  0  0
   26.1280   32.7340   47.2970 C   0  0  0  0  0  3  0  0  0  0  0  0
   26.4320   33.0370   48.5780 N   0  0  0  0  0  0  0  0  0  0  0  0
   26.4970   31.9220   49.2700 N   0  0  0  0  0  0  0  0  0  0  0  0
   26.5870   33.9840   48.9510 H   0  0  0  0  0  0  0  0  0  0  0  0
  1  6  1  0  0  0  0
  2  1  2  0  0  0  0
  2  3  1  0  0  0  0
  3  4  2  0  0  0  0
  4  5  1  0  0  0  0
  5  7  1  0  0  0  0
  6  5  2  0  0  0  0
  7 15  1  0  0  0  0
  7  8  1  0  0  0  0
  8  9  2  0  0  0  0
 10  9  1  0  0  0  0
 10 11  1  0  0  0  0
 11 20  1  0  0  0  0
 12 11  2  0  0  0  0
 13 12  1  0  0  0  0
 14 13  2  0  0  0  0
 14 15  1  0  0  0  0
 15 10  2  0  0  0  0
 16 17  1  0  0  0  0
 16  2  1  0  0  0  0
 18 16  1  0  0  0  0
 19 16  1  0  0  0  0
 20 21  1  0  0  0  0
 20 22  1  0  0  0  0
 23  3  1  0  0  0  0
 23 25  1  0  0  0  0
 24 23  2  0  0  0  0
 25 26  1  0  0  0  0
 26 31  2  0  0  0  0
 26 27  1  0  0  0  0
 27 28  2  0  0  0  0
 28 29  1  0  0  0  0
 30 32  1  0  0  0  0
 30 29  2  0  0  0  0
 31 30  1  0  0  0  0
 33 32  1  0  0  0  0
 33 37  2  0  0  0  0
 34 35  2  0  0  0  0
 34 33  1  0  0  0  0
 35 36  1  0  0  0  0
 36 38  1  0  0  0  0
 36 37  1  0  0  0  0
M  END
>  <minimizedAffinity>
-6.95295906

$$$$

 OpenBabel03272514433D

 38 42  0  0  0  0  0  0  0  0999 V2000
   26.2440   29.5760   48.5540 C   0  0  0  0  0  3  0  0  0  0  0  0
   27.2530   28.8140   49.1440 C   0  0  0  0  0  0  0  0  0  0  0  0
   28.5090   28.7610   48.4650 C   0  0  0  0  0  0  0  0  0  0  0  0
   28.6320   29.4350   47.3230 N   0  0  0  0  0  0  0  0  0  0  0  0
   27.6360   30.1640   46.7730 C   0  0  0  0  0  0  0  0  0  0  0  0
   26.4450   30.2320   47.3900 N   0  0  0  0  0  0  0  0  0  0  0  0
   28.0070   30.7920   45.5480 N   0  0  0  0  0  0  0  0  0  0  0  0
   29.1680   30.5410   44.8740 C   0  0  0  0  0  3  0  0  0  0  0  0
   29.1420   31.3280   43.7750 N   0  0  0  0  0  0  0  0  0  0  0  0
   28.0070   32.0440   43.7650 C   0  0  0  0  0  0  0  0  0  0  0  0
   27.4690   32.9800   42.9110 C   0  0  0  0  0  0  0  0  0  0  0  0
   26.2730   33.5430   43.1730 N   0  0  0  0  0  0  0  0  0  0  0  0
   25.5580   33.2090   44.2840 C   0  0  0  0  0  3  0  0  0  0  0  0
   26.0920   32.2940   45.1110 N   0  0  0  0  0  0  0  0  0  0  0  0
   27.2710   31.7100   44.8960 C   0  0  0  0  0  0  0  0  0  0  0  0
   26.8450   28.1480   50.4250 C   0  0  0  0  0  0  0  0  0  0  0  0
   27.3950   28.8370   51.5300 F   0  0  0  0  0  0  0  0  0  0  0  0
   25.4990   28.3110   50.4610 F   0  0  0  0  0  0  0  0  0  0  0  0
   27.1470   26.8250   50.4670 F   0  0  0  0  0  0  0  0  0  0  0  0
   28.1770   33.3750   41.7190 N   0  0  0  0  0  0  0  0  0  0  0  0
   27.7670   34.0770   41.0860 H   0  0  0  0  0  0  0  0  0  0  0  0
   29.0920   32.9560   41.5010 H   0  0  0  0  0  0  0  0  0  0  0  0
   29.4810   27.9650   49.1420 C   0  0  0  0  0  0  0  0  0  0  0  0
   29.9410   28.2850   50.2700 O   0  0  0  0  0  0  0  0  0  0  0  0
   30.1180   26.7390   48.7670 O   0  0  0  0  0  0  0  0  0  0  0  0
   31.4100   26.7170   48.3330 C   0  0  0  0  0  0  0  0  0  0  0  0
   31.8000   25.5220   47.7660 C   0  0  0  0  0  3  0  0  0  0  0  0
   33.0520   25.3410   47.2770 C   0  0  0  0  0  3  0  0  0  0  0  0
   33.9370   26.4210   47.3720 C   0  0  0  0  0  3  0  0  0  0  0  0
   33.5530   27.6250   47.9440 C   0  0  0  0  0  0  0  0  0  0  0  0
   32.2900   27.7240   48.4030 N   0  0  0  0  0  0  0  0  0  0  0  0
   34.4730   28.7850   48.0950 C   0  0  0  0  0  2  0  0  0  0  0  0
   34.6200   29.4360   46.7530 C   0  0  0  0  0  0  0  0  0  0  0  0
   33.8480   29.4690   45.5990 C   0  0  0  0  0  3  0  0  0  0  0  0
   34.4960   30.2330   44.6680 C   0  0  0  0  0  3  0  0  0  0  0  0
   35.6420   30.6560   45.2440 N   0  0  0  0  0  0  0  0  0  0  0  0
   35.6990   30.1810   46.4670 N   0  0  0  0  0  0  0  0  0  0  0  0
   36.3530   31.2530   44.7980 H   0  0  0  0  0  0  0  0  0  0  0  0
  1  2  1  0  0  0  0
  2 16  1  0  0  0  0
  3 23  1  0  0  0  0
  3  2  2  0  0  0  0
  4  3  1  0  0  0  0
  5  4  2  0  0  0  0
  5  6  1  0  0  0  0
  6  1  2  0  0  0  0
  7  5  1  0  0  0  0
  8  7  1  0  0  0  0
  9  8  2  0  0  0  0
 10  9  1  0  0  0  0
 10 15  1  0  0  0  0
 11 12  1  0  0  0  0
 11 10  2  0  0  0  0
 12 13  2  0  0  0  0
 13 14  1  0  0  0  0
 15 14  2  0  0  0  0
 15  7  1  0  0  0  0
 16 18  1  0  0  0  0
 16 19  1  0  0  0  0
 16 17  1  0  0  0  0
 20 11  1  0  0  0  0
 21 20  1  0  0  0  0
 22 20  1  0  0  0  0
 23 24  2  0  0  0  0
 25 23  1  0  0  0  0
 26 31  1  0  0  0  0
 26 25  1  0  0  0  0
 27 26  2  0  0  0  0
 28 29  2  0  0  0  0
 28 27  1  0  0  0  0
 29 30  1  0  0  0  0
 30 32  1  0  0  0  0
 30 31  2  0  0  0  0
 33 32  1  0  0  0  0
 34 33  1  0  0  0  0
 35 36  1  0  0  0  0
 35 34  2  0  0  0  0
 36 37  1  0  0  0  0
 37 33  2  0  0  0  0
 38 36  1  0  0  0  0
M  END
>  <minimizedAffinity>
-6.88613844

$$$$

 OpenBabel03272514433D

 38 42  0  0  0  0  0  0  0  0999 V2000
   32.2000   27.8100   48.9030 C   0  0  0  0  0  3  0  0  0  0  0  0
   31.5650   27.4320   47.7190 C   0  0  0  0  0  0  0  0  0  0  0  0
   32.1860   27.8240   46.4940 C   0  0  0  0  0  0  0  0  0  0  0  0
   33.3200   28.5210   46.5620 N   0  0  0  0  0  0  0  0  0  0  0  0
   33.9110   28.8750   47.7240 C   0  0  0  0  0  0  0  0  0  0  0  0
   33.3500   28.5200   48.8910 N   0  0  0  0  0  0  0  0  0  0  0  0
   35.1140   29.6190   47.5400 N   0  0  0  0  0  0  0  0  0  0  0  0
   35.5400   30.1100   46.3390 C   0  0  0  0  0  3  0  0  0  0  0  0
   36.7070   30.7470   46.5860 N   0  0  0  0  0  0  0  0  0  0  0  0
   36.9970   30.6560   47.8930 C   0  0  0  0  0  0  0  0  0  0  0  0
   38.0330   31.1060   48.6810 C   0  0  0  0  0  0  0  0  0  0  0  0
   38.0510   30.8520   50.0040 N   0  0  0  0  0  0  0  0  0  0  0  0
   37.0530   30.1450   50.6060 C   0  0  0  0  0  3  0  0  0  0  0  0
   36.0470   29.7100   49.8280 N   0  0  0  0  0  0  0  0  0  0  0  0
   35.9850   29.9350   48.5150 C   0  0  0  0  0  0  0  0  0  0  0  0
   30.2940   26.6620   47.9270 C   0  0  0  0  0  0  0  0  0  0  0  0
   30.3580   25.4220   47.2500 F   0  0  0  0  0  0  0  0  0  0  0  0
   30.2840   26.4070   49.2600 F   0  0  0  0  0  0  0  0  0  0  0  0
   29.1790   27.3560   47.5850 F   0  0  0  0  0  0  0  0  0  0  0  0
   39.1180   31.8590   48.1040 N   0  0  0  0  0  0  0  0  0  0  0  0
   39.8890   32.1920   48.7000 H   0  0  0  0  0  0  0  0  0  0  0  0
   39.1220   32.0640   47.0950 H   0  0  0  0  0  0  0  0  0  0  0  0
   31.4720   27.3910   45.3370 C   0  0  0  0  0  0  0  0  0  0  0  0
   31.4450   26.1830   44.9810 O   0  0  0  0  0  0  0  0  0  0  0  0
   30.6920   28.1220   44.3850 O   0  0  0  0  0  0  0  0  0  0  0  0
   29.3600   28.3390   44.5800 C   0  0  0  0  0  0  0  0  0  0  0  0
   28.5370   27.5810   43.7750 C   0  0  0  0  0  3  0  0  0  0  0  0
   27.1860   27.6730   43.8510 C   0  0  0  0  0  3  0  0  0  0  0  0
   26.6590   28.5730   44.7850 C   0  0  0  0  0  3  0  0  0  0  0  0
   27.4810   29.3410   45.5950 C   0  0  0  0  0  0  0  0  0  0  0  0
   28.8130   29.1880   45.4590 N   0  0  0  0  0  0  0  0  0  0  0  0
   26.9610   30.3340   46.5750 C   0  0  0  0  0  2  0  0  0  0  0  0
   26.3600   29.5800   47.7220 C   0  0  0  0  0  0  0  0  0  0  0  0
   25.8280   29.9440   48.9520 C   0  0  0  0  0  3  0  0  0  0  0  0
   25.4260   28.8110   49.6020 C   0  0  0  0  0  3  0  0  0  0  0  0
   25.7100   27.7740   48.7830 N   0  0  0  0  0  0  0  0  0  0  0  0
   26.2560   28.2420   47.6840 N   0  0  0  0  0  0  0  0  0  0  0  0
   25.5280   26.7810   48.9870 H   0  0  0  0  0  0  0  0  0  0  0  0
  2 16  1  0  0  0  0
  2  1  2  0  0  0  0
  3  4  2  0  0  0  0
  3  2  1  0  0  0  0
  4  5  1  0  0  0  0
  5  6  2  0  0  0  0
  6  1  1  0  0  0  0
  7  5  1  0  0  0  0
  7 15  1  0  0  0  0
  8  9  2  0  0  0  0
  8  7  1  0  0  0  0
  9 10  1  0  0  0  0
 10 15  2  0  0  0  0
 10 11  1  0  0  0  0
 11 12  2  0  0  0  0
 12 13  1  0  0  0  0
 14 13  2  0  0  0  0
 15 14  1  0  0  0  0
 16 18  1  0  0  0  0
 17 16  1  0  0  0  0
 19 16  1  0  0  0  0
 20 11  1  0  0  0  0
 20 21  1  0  0  0  0
 22 20  1  0  0  0  0
 23  3  1  0  0  0  0
 24 23  2  0  0  0  0
 25 26  1  0  0  0  0
 25 23  1  0  0  0  0
 26 31  1  0  0  0  0
 27 28  1  0  0  0  0
 27 26  2  0  0  0  0
 28 29  2  0  0  0  0
 29 30  1  0  0  0  0
 30 32  1  0  0  0  0
 31 30  2  0  0  0  0
 32 33  1  0  0  0  0
 33 34  1  0  0  0  0
 34 35  2  0  0  0  0
 36 38  1  0  0  0  0
 36 35  1  0  0  0  0
 37 33  2  0  0  0  0
 37 36  1  0  0  0  0
M  END
>  <minimizedAffinity>
-6.70700312

$$$$

 OpenBabel03272514433D

 38 42  0  0  0  0  0  0  0  0999 V2000
   34.8540   30.5070   44.3890 C   0  0  0  0  0  3  0  0  0  0  0  0
   33.4890   30.3040   44.1810 C   0  0  0  0  0  0  0  0  0  0  0  0
   32.6950   29.9970   45.3280 C   0  0  0  0  0  0  0  0  0  0  0  0
   33.3050   29.9260   46.5110 N   0  0  0  0  0  0  0  0  0  0  0  0
   34.6300   30.1260   46.6830 C   0  0  0  0  0  0  0  0  0  0  0  0
   35.4010   30.4160   45.6220 N   0  0  0  0  0  0  0  0  0  0  0  0
   35.0480   29.9940   48.0390 N   0  0  0  0  0  0  0  0  0  0  0  0
   34.2590   29.5190   49.0470 C   0  0  0  0  0  3  0  0  0  0  0  0
   35.0170   29.5510   50.1660 N   0  0  0  0  0  0  0  0  0  0  0  0
   36.2340   30.0290   49.8670 C   0  0  0  0  0  0  0  0  0  0  0  0
   37.3760   30.2730   50.5950 C   0  0  0  0  0  0  0  0  0  0  0  0
   38.4790   30.7710   50.0010 N   0  0  0  0  0  0  0  0  0  0  0  0
   38.5030   31.0500   48.6670 C   0  0  0  0  0  3  0  0  0  0  0  0
   37.3820   30.8080   47.9650 N   0  0  0  0  0  0  0  0  0  0  0  0
   36.2680   30.3170   48.5070 C   0  0  0  0  0  0  0  0  0  0  0  0
   33.0650   30.4320   42.7480 C   0  0  0  0  0  0  0  0  0  0  0  0
   34.1990   30.5410   41.9110 F   0  0  0  0  0  0  0  0  0  0  0  0
   32.4630   29.2450   42.4800 F   0  0  0  0  0  0  0  0  0  0  0  0
   32.1900   31.4470   42.5310 F   0  0  0  0  0  0  0  0  0  0  0  0
   37.4150   29.9980   52.0100 N   0  0  0  0  0  0  0  0  0  0  0  0
   38.2730   30.1840   52.5480 H   0  0  0  0  0  0  0  0  0  0  0  0
   36.5830   29.6160   52.4820 H   0  0  0  0  0  0  0  0  0  0  0  0
   31.3140   29.8100   45.0230 C   0  0  0  0  0  0  0  0  0  0  0  0
   30.5540   30.7750   44.7420 O   0  0  0  0  0  0  0  0  0  0  0  0
   30.5170   28.6230   44.9620 O   0  0  0  0  0  0  0  0  0  0  0  0
   29.4890   28.4150   45.8340 C   0  0  0  0  0  0  0  0  0  0  0  0
   28.5340   27.5280   45.3850 C   0  0  0  0  0  3  0  0  0  0  0  0
   27.4520   27.2070   46.1370 C   0  0  0  0  0  3  0  0  0  0  0  0
   27.3440   27.8150   47.3930 C   0  0  0  0  0  3  0  0  0  0  0  0
   28.2990   28.7110   47.8490 C   0  0  0  0  0  0  0  0  0  0  0  0
   29.3450   28.9740   47.0410 N   0  0  0  0  0  0  0  0  0  0  0  0
   28.2030   29.4050   49.1620 C   0  0  0  0  0  2  0  0  0  0  0  0
   27.8480   28.3850   50.2000 C   0  0  0  0  0  0  0  0  0  0  0  0
   28.5520   27.3920   50.8680 C   0  0  0  0  0  3  0  0  0  0  0  0
   27.6940   26.7500   51.7170 C   0  0  0  0  0  3  0  0  0  0  0  0
   26.4880   27.3400   51.5680 N   0  0  0  0  0  0  0  0  0  0  0  0
   26.5950   28.2990   50.6750 N   0  0  0  0  0  0  0  0  0  0  0  0
   25.6270   27.0830   52.0710 H   0  0  0  0  0  0  0  0  0  0  0  0
  1  6  1  0  0  0  0
  2  1  2  0  0  0  0
  2  3  1  0  0  0  0
  3  4  2  0  0  0  0
  4  5  1  0  0  0  0
  5  7  1  0  0  0  0
  6  5  2  0  0  0  0
  7 15  1  0  0  0  0
  7  8  1  0  0  0  0
  8  9  2  0  0  0  0
 10  9  1  0  0  0  0
 10 11  1  0  0  0  0
 11 20  1  0  0  0  0
 12 11  2  0  0  0  0
 13 12  1  0  0  0  0
 14 15  1  0  0  0  0
 14 13  2  0  0  0  0
 15 10  2  0  0  0  0
 16  2  1  0  0  0  0
 17 16  1  0  0  0  0
 18 16  1  0  0  0  0
 19 16  1  0  0  0  0
 20 22  1  0  0  0  0
 20 21  1  0  0  0  0
 23  3  1  0  0  0  0
 24 23  2  0  0  0  0
 25 23  1  0  0  0  0
 25 26  1  0  0  0  0
 26 31  1  0  0  0  0
 27 26  2  0  0  0  0
 27 28  1  0  0  0  0
 28 29  2  0  0  0  0
 29 30  1  0  0  0  0
 30 32  1  0  0  0  0
 31 30  2  0  0  0  0
 32 33  1  0  0  0  0
 33 37  2  0  0  0  0
 33 34  1  0  0  0  0
 34 35  2  0  0  0  0
 36 35  1  0  0  0  0
 36 38  1  0  0  0  0
 37 36  1  0  0  0  0
M  END
>  <minimizedAffinity>
-6.70529985

$$$$
