
 OpenBabel03272514553D

 29 33  0  0  0  0  0  0  0  0999 V2000
   33.3140   25.7810   47.2660 C   0  0  0  0  0  3  0  0  0  0  0  0
   31.9450   25.7110   47.0620 C   0  0  0  0  0  3  0  0  0  0  0  0
   31.1590   26.7190   47.6490 C   0  0  0  0  0  0  0  0  0  0  0  0
   31.7730   27.6990   48.3760 N   0  0  0  0  0  0  0  0  0  0  0  0
   33.0830   27.7150   48.5370 C   0  0  0  0  0  0  0  0  0  0  0  0
   33.8590   26.7640   47.9880 N   0  0  0  0  0  0  0  0  0  0  0  0
   29.7050   26.7130   47.4860 C   0  0  0  0  0  0  0  0  0  0  0  0
   29.2280   26.1660   46.4510 O   0  0  0  0  0  0  0  0  0  0  0  0
   28.9730   27.3570   48.5710 C   0  0  0  0  0  0  0  0  0  0  0  0
   28.9880   26.8890   49.8750 C   0  0  0  0  0  3  0  0  0  0  0  0
   28.3180   27.4670   50.9280 C   0  0  0  0  0  3  0  0  0  0  0  0
   27.5710   28.5890   50.6990 C   0  0  0  0  0  3  0  0  0  0  0  0
   27.5090   29.1130   49.4250 C   0  0  0  0  0  0  0  0  0  0  0  0
   26.7440   30.2540   49.2060 C   0  0  0  0  0  3  0  0  0  0  0  0
   26.6600   30.8010   47.9460 C   0  0  0  0  0  3  0  0  0  0  0  0
   27.3460   30.1980   46.9000 C   0  0  0  0  0  3  0  0  0  0  0  0
   28.0910   29.0640   47.1730 C   0  0  0  0  0  3  0  0  0  0  0  0
   28.2040   28.4870   48.4090 C   0  0  0  0  0  0  0  0  0  0  0  0
   33.7990   28.7610   49.3290 C   0  0  0  0  0  2  0  0  0  0  0  0
   34.8530   29.4330   48.5720 C   0  0  0  0  0  0  0  0  0  0  0  0
   34.7310   29.6170   47.1960 C   0  0  0  0  0  3  0  0  0  0  0  0
   35.7040   30.2560   46.4700 C   0  0  0  0  0  3  0  0  0  0  0  0
   36.8550   30.7420   47.0980 C   0  0  0  0  0  3  0  0  0  0  0  0
   36.9830   30.5610   48.4770 C   0  0  0  0  0  0  0  0  0  0  0  0
   38.1080   31.0360   49.1030 C   0  0  0  0  0  3  0  0  0  0  0  0
   38.2830   30.8840   50.4590 C   0  0  0  0  0  3  0  0  0  0  0  0
   37.2980   30.2380   51.1890 C   0  0  0  0  0  3  0  0  0  0  0  0
   36.1660   29.7660   50.5250 C   0  0  0  0  0  3  0  0  0  0  0  0
   35.9740   29.9090   49.1680 C   0  0  0  0  0  0  0  0  0  0  0  0
  1  6  1  0  0  0  0
  2  1  2  0  0  0  0
  2  3  1  0  0  0  0
  3  4  2  0  0  0  0
  4  5  1  0  0  0  0
  5 19  1  0  0  0  0
  6  5  2  0  0  0  0
  7  3  1  0  0  0  0
  7  9  1  0  0  0  0
  8  7  2  0  0  0  0
  9 10  1  0  0  0  0
 10 11  2  0  0  0  0
 12 11  1  0  0  0  0
 13 12  2  0  0  0  0
 14 13  1  0  0  0  0
 15 14  2  0  0  0  0
 16 17  2  0  0  0  0
 16 15  1  0  0  0  0
 17 18  1  0  0  0  0
 18  9  2  0  0  0  0
 18 13  1  0  0  0  0
 20 29  1  0  0  0  0
 20 19  1  0  0  0  0
 21 20  2  0  0  0  0
 22 23  2  0  0  0  0
 22 21  1  0  0  0  0
 23 24  1  0  0  0  0
 24 25  2  0  0  0  0
 24 29  1  0  0  0  0
 25 26  1  0  0  0  0
 26 27  2  0  0  0  0
 28 27  1  0  0  0  0
 29 28  2  0  0  0  0
M  END
>  <minimizedAffinity>
-8.44751072

$$$$

 OpenBabel03272514553D

 29 33  0  0  0  0  0  0  0  0999 V2000
   33.6060   26.3270   46.1560 C   0  0  0  0  0  3  0  0  0  0  0  0
   34.0820   27.6280   46.1210 C   0  0  0  0  0  3  0  0  0  0  0  0
   33.4550   28.5610   46.9670 C   0  0  0  0  0  0  0  0  0  0  0  0
   32.4290   28.1450   47.7660 N   0  0  0  0  0  0  0  0  0  0  0  0
   32.0160   26.8910   47.7570 C   0  0  0  0  0  0  0  0  0  0  0  0
   32.5980   25.9780   46.9590 N   0  0  0  0  0  0  0  0  0  0  0  0
   33.8950   29.9570   46.9850 C   0  0  0  0  0  0  0  0  0  0  0  0
   33.0350   30.8510   46.7460 O   0  0  0  0  0  0  0  0  0  0  0  0
   35.3110   30.1400   47.2860 C   0  0  0  0  0  0  0  0  0  0  0  0
   36.2420   30.5230   46.3350 C   0  0  0  0  0  3  0  0  0  0  0  0
   37.5830   30.7110   46.5750 C   0  0  0  0  0  3  0  0  0  0  0  0
   38.0610   30.5120   47.8400 C   0  0  0  0  0  3  0  0  0  0  0  0
   37.1910   30.1300   48.8410 C   0  0  0  0  0  0  0  0  0  0  0  0
   37.6910   29.9300   50.1240 C   0  0  0  0  0  3  0  0  0  0  0  0
   36.8510   29.5470   51.1430 C   0  0  0  0  0  3  0  0  0  0  0  0
   35.5000   29.3620   50.8730 C   0  0  0  0  0  3  0  0  0  0  0  0
   35.0560   29.5750   49.5800 C   0  0  0  0  0  3  0  0  0  0  0  0
   35.8560   29.9560   48.5360 C   0  0  0  0  0  0  0  0  0  0  0  0
   30.8940   26.3910   48.6080 C   0  0  0  0  0  2  0  0  0  0  0  0
   29.6060   26.9910   48.2710 C   0  0  0  0  0  0  0  0  0  0  0  0
   29.2850   27.2870   46.9470 C   0  0  0  0  0  3  0  0  0  0  0  0
   28.0760   27.8390   46.6090 C   0  0  0  0  0  3  0  0  0  0  0  0
   27.1250   28.1240   47.5930 C   0  0  0  0  0  3  0  0  0  0  0  0
   27.4400   27.8300   48.9220 C   0  0  0  0  0  0  0  0  0  0  0  0
   26.5120   28.1050   49.8950 C   0  0  0  0  0  3  0  0  0  0  0  0
   26.7720   27.8330   51.2190 C   0  0  0  0  0  3  0  0  0  0  0  0
   27.9940   27.2760   51.5570 C   0  0  0  0  0  3  0  0  0  0  0  0
   28.9170   27.0080   50.5450 C   0  0  0  0  0  3  0  0  0  0  0  0
   28.6750   27.2730   49.2150 C   0  0  0  0  0  0  0  0  0  0  0  0
  1  6  1  0  0  0  0
  2  1  2  0  0  0  0
  2  3  1  0  0  0  0
  3  7  1  0  0  0  0
  3  4  2  0  0  0  0
  5  4  1  0  0  0  0
  5 19  1  0  0  0  0
  6  5  2  0  0  0  0
  7  9  1  0  0  0  0
  8  7  2  0  0  0  0
  9 18  1  0  0  0  0
 10 11  1  0  0  0  0
 10  9  2  0  0  0  0
 11 12  2  0  0  0  0
 12 13  1  0  0  0  0
 13 14  1  0  0  0  0
 14 15  2  0  0  0  0
 16 15  1  0  0  0  0
 17 16  2  0  0  0  0
 18 13  2  0  0  0  0
 18 17  1  0  0  0  0
 20 19  1  0  0  0  0
 20 29  1  0  0  0  0
 21 20  2  0  0  0  0
 22 21  1  0  0  0  0
 22 23  2  0  0  0  0
 23 24  1  0  0  0  0
 24 29  2  0  0  0  0
 24 25  1  0  0  0  0
 25 26  2  0  0  0  0
 26 27  1  0  0  0  0
 28 27  2  0  0  0  0
 29 28  1  0  0  0  0
M  END
>  <minimizedAffinity>
-8.33619881

$$$$

 OpenBabel03272514553D

 29 33  0  0  0  0  0  0  0  0999 V2000
   33.2710   25.7880   47.4710 C   0  0  0  0  0  3  0  0  0  0  0  0
   33.9530   26.9920   47.5610 C   0  0  0  0  0  3  0  0  0  0  0  0
   33.1760   28.1640   47.6010 C   0  0  0  0  0  0  0  0  0  0  0  0
   31.8150   28.0580   47.5510 N   0  0  0  0  0  0  0  0  0  0  0  0
   31.2200   26.8830   47.4650 C   0  0  0  0  0  0  0  0  0  0  0  0
   31.9380   25.7460   47.4250 N   0  0  0  0  0  0  0  0  0  0  0  0
   33.8180   29.4760   47.6900 C   0  0  0  0  0  0  0  0  0  0  0  0
   33.5000   30.3500   46.8340 O   0  0  0  0  0  0  0  0  0  0  0  0
   34.7710   29.6080   48.7870 C   0  0  0  0  0  0  0  0  0  0  0  0
   34.4970   29.1920   50.0790 C   0  0  0  0  0  3  0  0  0  0  0  0
   35.3650   29.2940   51.1410 C   0  0  0  0  0  3  0  0  0  0  0  0
   36.5990   29.8440   50.9340 C   0  0  0  0  0  3  0  0  0  0  0  0
   36.9430   30.2810   49.6710 C   0  0  0  0  0  0  0  0  0  0  0  0
   38.2020   30.8400   49.4750 C   0  0  0  0  0  3  0  0  0  0  0  0
   38.5750   31.2860   48.2280 C   0  0  0  0  0  3  0  0  0  0  0  0
   37.6790   31.1730   47.1730 C   0  0  0  0  0  3  0  0  0  0  0  0
   36.4400   30.6090   47.4240 C   0  0  0  0  0  3  0  0  0  0  0  0
   36.0280   30.1520   48.6460 C   0  0  0  0  0  0  0  0  0  0  0  0
   29.7370   26.7180   47.4000 C   0  0  0  0  0  2  0  0  0  0  0  0
   29.0360   27.3850   48.4950 C   0  0  0  0  0  0  0  0  0  0  0  0
   29.1530   26.9170   49.8020 C   0  0  0  0  0  3  0  0  0  0  0  0
   28.5130   27.5370   50.8450 C   0  0  0  0  0  3  0  0  0  0  0  0
   27.7160   28.6640   50.6210 C   0  0  0  0  0  3  0  0  0  0  0  0
   27.5940   29.1370   49.3130 C   0  0  0  0  0  0  0  0  0  0  0  0
   26.8150   30.2440   49.0820 C   0  0  0  0  0  3  0  0  0  0  0  0
   26.6630   30.7510   47.8130 C   0  0  0  0  0  3  0  0  0  0  0  0
   27.3110   30.1230   46.7620 C   0  0  0  0  0  3  0  0  0  0  0  0
   28.0950   29.0010   47.0270 C   0  0  0  0  0  3  0  0  0  0  0  0
   28.2600   28.4780   48.2920 C   0  0  0  0  0  0  0  0  0  0  0  0
  1  2  1  0  0  0  0
  2  3  2  0  0  0  0
  3  7  1  0  0  0  0
  4  3  1  0  0  0  0
  5  4  2  0  0  0  0
  6  5  1  0  0  0  0
  6  1  2  0  0  0  0
  7  9  1  0  0  0  0
  8  7  2  0  0  0  0
  9 10  1  0  0  0  0
 10 11  2  0  0  0  0
 12 11  1  0  0  0  0
 13 12  2  0  0  0  0
 14 13  1  0  0  0  0
 15 14  2  0  0  0  0
 16 17  2  0  0  0  0
 16 15  1  0  0  0  0
 17 18  1  0  0  0  0
 18  9  2  0  0  0  0
 18 13  1  0  0  0  0
 19  5  1  0  0  0  0
 19 20  1  0  0  0  0
 20 21  1  0  0  0  0
 21 22  2  0  0  0  0
 23 22  1  0  0  0  0
 24 23  2  0  0  0  0
 25 24  1  0  0  0  0
 26 25  2  0  0  0  0
 27 28  2  0  0  0  0
 27 26  1  0  0  0  0
 28 29  1  0  0  0  0
 29 20  2  0  0  0  0
 29 24  1  0  0  0  0
M  END
>  <minimizedAffinity>
-8.32190132

$$$$

 OpenBabel03272514553D

 29 33  0  0  0  0  0  0  0  0999 V2000
   31.5560   30.6980   45.8140 C   0  0  0  0  0  3  0  0  0  0  0  0
   30.5740   29.7440   46.0310 C   0  0  0  0  0  3  0  0  0  0  0  0
   30.9960   28.4910   46.5130 C   0  0  0  0  0  0  0  0  0  0  0  0
   32.3270   28.2820   46.7370 N   0  0  0  0  0  0  0  0  0  0  0  0
   33.2180   29.2300   46.5120 C   0  0  0  0  0  0  0  0  0  0  0  0
   32.8430   30.4360   46.0520 N   0  0  0  0  0  0  0  0  0  0  0  0
   30.0230   27.4270   46.7620 C   0  0  0  0  0  0  0  0  0  0  0  0
   29.8090   26.5920   45.8390 O   0  0  0  0  0  0  0  0  0  0  0  0
   29.4070   27.4710   48.0850 C   0  0  0  0  0  0  0  0  0  0  0  0
   30.0540   27.0450   49.2330 C   0  0  0  0  0  3  0  0  0  0  0  0
   29.5140   27.0720   50.4980 C   0  0  0  0  0  3  0  0  0  0  0  0
   28.2440   27.5500   50.6630 C   0  0  0  0  0  3  0  0  0  0  0  0
   27.5380   27.9930   49.5640 C   0  0  0  0  0  0  0  0  0  0  0  0
   26.2460   28.4760   49.7460 C   0  0  0  0  0  3  0  0  0  0  0  0
   25.5160   28.9230   48.6700 C   0  0  0  0  0  3  0  0  0  0  0  0
   26.0840   28.8840   47.4030 C   0  0  0  0  0  3  0  0  0  0  0  0
   27.3720   28.3940   47.2790 C   0  0  0  0  0  3  0  0  0  0  0  0
   28.1350   27.9400   48.3200 C   0  0  0  0  0  0  0  0  0  0  0  0
   34.6840   29.0470   46.7360 C   0  0  0  0  0  2  0  0  0  0  0  0
   35.0920   29.3070   48.1140 C   0  0  0  0  0  0  0  0  0  0  0  0
   34.3880   28.7490   49.1800 C   0  0  0  0  0  3  0  0  0  0  0  0
   34.7620   28.9720   50.4810 C   0  0  0  0  0  3  0  0  0  0  0  0
   35.8690   29.7740   50.7740 C   0  0  0  0  0  3  0  0  0  0  0  0
   36.5780   30.3370   49.7110 C   0  0  0  0  0  0  0  0  0  0  0  0
   37.6670   31.1250   49.9890 C   0  0  0  0  0  3  0  0  0  0  0  0
   38.4010   31.7010   48.9780 C   0  0  0  0  0  3  0  0  0  0  0  0
   38.0210   31.4740   47.6650 C   0  0  0  0  0  3  0  0  0  0  0  0
   36.9090   30.6700   47.4150 C   0  0  0  0  0  3  0  0  0  0  0  0
   36.1620   30.0830   48.4130 C   0  0  0  0  0  0  0  0  0  0  0  0
  1  2  2  0  0  0  0
  1  6  1  0  0  0  0
  2  3  1  0  0  0  0
  3  4  2  0  0  0  0
  3  7  1  0  0  0  0
  5 19  1  0  0  0  0
  5  4  1  0  0  0  0
  6  5  2  0  0  0  0
  7  9  1  0  0  0  0
  8  7  2  0  0  0  0
  9 18  2  0  0  0  0
  9 10  1  0  0  0  0
 10 11  2  0  0  0  0
 11 12  1  0  0  0  0
 13 14  1  0  0  0  0
 13 12  2  0  0  0  0
 15 14  2  0  0  0  0
 16 15  1  0  0  0  0
 17 16  2  0  0  0  0
 17 18  1  0  0  0  0
 18 13  1  0  0  0  0
 19 20  1  0  0  0  0
 20 29  2  0  0  0  0
 20 21  1  0  0  0  0
 21 22  2  0  0  0  0
 22 23  1  0  0  0  0
 24 25  1  0  0  0  0
 24 23  2  0  0  0  0
 26 25  2  0  0  0  0
 27 26  1  0  0  0  0
 28 27  2  0  0  0  0
 28 29  1  0  0  0  0
 29 24  1  0  0  0  0
M  END
>  <minimizedAffinity>
-8.04698086

$$$$

 OpenBabel03272514553D

 29 33  0  0  0  0  0  0  0  0999 V2000
   32.0470   31.1200   45.6220 C   0  0  0  0  0  3  0  0  0  0  0  0
   30.8250   30.4680   45.6840 C   0  0  0  0  0  3  0  0  0  0  0  0
   30.8310   29.1450   46.1640 C   0  0  0  0  0  0  0  0  0  0  0  0
   32.0180   28.5810   46.5360 N   0  0  0  0  0  0  0  0  0  0  0  0
   33.1520   29.2510   46.4550 C   0  0  0  0  0  0  0  0  0  0  0  0
   33.1760   30.5170   46.0010 N   0  0  0  0  0  0  0  0  0  0  0  0
   29.5840   28.3850   46.2550 C   0  0  0  0  0  0  0  0  0  0  0  0
   29.4520   27.3730   45.5100 O   0  0  0  0  0  0  0  0  0  0  0  0
   28.6270   28.9090   47.2230 C   0  0  0  0  0  0  0  0  0  0  0  0
   27.7300   29.9220   46.9260 C   0  0  0  0  0  3  0  0  0  0  0  0
   26.8090   30.4430   47.8050 C   0  0  0  0  0  3  0  0  0  0  0  0
   26.7530   29.9410   49.0750 C   0  0  0  0  0  3  0  0  0  0  0  0
   27.6150   28.9300   49.4430 C   0  0  0  0  0  0  0  0  0  0  0  0
   27.5480   28.4290   50.7400 C   0  0  0  0  0  3  0  0  0  0  0  0
   28.3950   27.4220   51.1380 C   0  0  0  0  0  3  0  0  0  0  0  0
   29.3170   26.9140   50.2310 C   0  0  0  0  0  3  0  0  0  0  0  0
   29.3410   27.4480   48.9550 C   0  0  0  0  0  3  0  0  0  0  0  0
   28.5180   28.4490   48.5160 C   0  0  0  0  0  0  0  0  0  0  0  0
   34.4750   28.6760   46.8440 C   0  0  0  0  0  2  0  0  0  0  0  0
   34.9340   29.1260   48.1560 C   0  0  0  0  0  0  0  0  0  0  0  0
   34.3120   28.6730   49.3190 C   0  0  0  0  0  3  0  0  0  0  0  0
   34.7360   29.0750   50.5600 C   0  0  0  0  0  3  0  0  0  0  0  0
   35.8120   29.9580   50.6920 C   0  0  0  0  0  3  0  0  0  0  0  0
   36.4380   30.4160   49.5310 C   0  0  0  0  0  0  0  0  0  0  0  0
   37.4970   31.2820   49.6500 C   0  0  0  0  0  3  0  0  0  0  0  0
   38.1490   31.7610   48.5380 C   0  0  0  0  0  3  0  0  0  0  0  0
   37.7180   31.3540   47.2860 C   0  0  0  0  0  3  0  0  0  0  0  0
   36.6410   30.4730   47.1970 C   0  0  0  0  0  3  0  0  0  0  0  0
   35.9750   29.9820   48.2990 C   0  0  0  0  0  0  0  0  0  0  0  0
  1  2  2  0  0  0  0
  1  6  1  0  0  0  0
  2  3  1  0  0  0  0
  3  7  1  0  0  0  0
  3  4  2  0  0  0  0
  5  4  1  0  0  0  0
  5 19  1  0  0  0  0
  6  5  2  0  0  0  0
  7  9  1  0  0  0  0
  8  7  2  0  0  0  0
  9 18  1  0  0  0  0
 10  9  2  0  0  0  0
 10 11  1  0  0  0  0
 11 12  2  0  0  0  0
 12 13  1  0  0  0  0
 13 14  1  0  0  0  0
 14 15  2  0  0  0  0
 16 15  1  0  0  0  0
 17 16  2  0  0  0  0
 18 17  1  0  0  0  0
 18 13  2  0  0  0  0
 19 20  1  0  0  0  0
 20 29  2  0  0  0  0
 20 21  1  0  0  0  0
 21 22  2  0  0  0  0
 22 23  1  0  0  0  0
 24 25  1  0  0  0  0
 24 23  2  0  0  0  0
 26 25  2  0  0  0  0
 27 26  1  0  0  0  0
 28 27  2  0  0  0  0
 28 29  1  0  0  0  0
 29 24  1  0  0  0  0
M  END
>  <minimizedAffinity>
-8.01551628

$$$$

 OpenBabel03272514553D

 29 33  0  0  0  0  0  0  0  0999 V2000
   33.6450   26.4770   45.7170 C   0  0  0  0  0  3  0  0  0  0  0  0
   34.0950   27.7830   45.8240 C   0  0  0  0  0  3  0  0  0  0  0  0
   33.4760   28.5950   46.7930 C   0  0  0  0  0  0  0  0  0  0  0  0
   32.4830   28.0640   47.5650 N   0  0  0  0  0  0  0  0  0  0  0  0
   32.0950   26.8110   47.4180 C   0  0  0  0  0  0  0  0  0  0  0  0
   32.6690   26.0120   46.5010 N   0  0  0  0  0  0  0  0  0  0  0  0
   33.8890   29.9880   46.9640 C   0  0  0  0  0  0  0  0  0  0  0  0
   33.0170   30.8880   46.8050 O   0  0  0  0  0  0  0  0  0  0  0  0
   35.2960   30.1630   47.3080 C   0  0  0  0  0  0  0  0  0  0  0  0
   36.2570   30.5490   46.3880 C   0  0  0  0  0  3  0  0  0  0  0  0
   37.5910   30.7300   46.6690 C   0  0  0  0  0  3  0  0  0  0  0  0
   38.0300   30.5180   47.9460 C   0  0  0  0  0  3  0  0  0  0  0  0
   37.1300   30.1320   48.9170 C   0  0  0  0  0  0  0  0  0  0  0  0
   37.5910   29.9200   50.2130 C   0  0  0  0  0  3  0  0  0  0  0  0
   36.7200   29.5320   51.2040 C   0  0  0  0  0  3  0  0  0  0  0  0
   35.3770   29.3560   50.8930 C   0  0  0  0  0  3  0  0  0  0  0  0
   34.9730   29.5810   49.5890 C   0  0  0  0  0  3  0  0  0  0  0  0
   35.8040   29.9670   48.5730 C   0  0  0  0  0  0  0  0  0  0  0  0
   31.0090   26.1880   48.2340 C   0  0  0  0  0  2  0  0  0  0  0  0
   29.9190   27.1100   48.5410 C   0  0  0  0  0  0  0  0  0  0  0  0
   29.8860   27.7900   49.7570 C   0  0  0  0  0  3  0  0  0  0  0  0
   28.8780   28.6700   50.0590 C   0  0  0  0  0  3  0  0  0  0  0  0
   27.8460   28.9080   49.1470 C   0  0  0  0  0  3  0  0  0  0  0  0
   27.8720   28.2290   47.9270 C   0  0  0  0  0  0  0  0  0  0  0  0
   26.8640   28.4570   47.0230 C   0  0  0  0  0  3  0  0  0  0  0  0
   26.8440   27.8150   45.8070 C   0  0  0  0  0  3  0  0  0  0  0  0
   27.8640   26.9270   45.5050 C   0  0  0  0  0  3  0  0  0  0  0  0
   28.8740   26.7170   46.4430 C   0  0  0  0  0  3  0  0  0  0  0  0
   28.9120   27.3500   47.6660 C   0  0  0  0  0  0  0  0  0  0  0  0
  1  2  2  0  0  0  0
  1  6  1  0  0  0  0
  2  3  1  0  0  0  0
  3  7  1  0  0  0  0
  3  4  2  0  0  0  0
  5  4  1  0  0  0  0
  5 19  1  0  0  0  0
  6  5  2  0  0  0  0
  7  9  1  0  0  0  0
  8  7  2  0  0  0  0
  9 18  1  0  0  0  0
 10 11  1  0  0  0  0
 10  9  2  0  0  0  0
 11 12  2  0  0  0  0
 12 13  1  0  0  0  0
 13 14  1  0  0  0  0
 14 15  2  0  0  0  0
 16 15  1  0  0  0  0
 17 16  2  0  0  0  0
 18 13  2  0  0  0  0
 18 17  1  0  0  0  0
 19 20  1  0  0  0  0
 20 21  1  0  0  0  0
 21 22  2  0  0  0  0
 23 22  1  0  0  0  0
 24 23  2  0  0  0  0
 25 24  1  0  0  0  0
 26 25  2  0  0  0  0
 27 26  1  0  0  0  0
 27 28  2  0  0  0  0
 28 29  1  0  0  0  0
 29 24  1  0  0  0  0
 29 20  2  0  0  0  0
M  END
>  <minimizedAffinity>
-7.62344694

$$$$

 OpenBabel03272514553D

 29 33  0  0  0  0  0  0  0  0999 V2000
   33.2460   25.7740   47.5870 C   0  0  0  0  0  3  0  0  0  0  0  0
   34.0300   26.8450   47.9890 C   0  0  0  0  0  3  0  0  0  0  0  0
   33.3750   27.9090   48.6360 C   0  0  0  0  0  0  0  0  0  0  0  0
   32.0250   27.8340   48.8310 N   0  0  0  0  0  0  0  0  0  0  0  0
   31.3290   26.7880   48.4260 C   0  0  0  0  0  0  0  0  0  0  0  0
   31.9290   25.7570   47.8050 N   0  0  0  0  0  0  0  0  0  0  0  0
   34.1300   29.0790   49.0860 C   0  0  0  0  0  0  0  0  0  0  0  0
   33.9550   29.4750   50.2730 O   0  0  0  0  0  0  0  0  0  0  0  0
   35.0130   29.6520   48.0760 C   0  0  0  0  0  0  0  0  0  0  0  0
   34.7490   29.5890   46.7180 C   0  0  0  0  0  3  0  0  0  0  0  0
   35.5500   30.1200   45.7330 C   0  0  0  0  0  3  0  0  0  0  0  0
   36.7010   30.7630   46.0950 C   0  0  0  0  0  3  0  0  0  0  0  0
   37.0290   30.8660   47.4300 C   0  0  0  0  0  0  0  0  0  0  0  0
   38.2040   31.5220   47.7840 C   0  0  0  0  0  3  0  0  0  0  0  0
   38.5600   31.6400   49.1070 C   0  0  0  0  0  3  0  0  0  0  0  0
   37.7340   31.0950   50.0820 C   0  0  0  0  0  3  0  0  0  0  0  0
   36.5780   30.4530   49.6750 C   0  0  0  0  0  3  0  0  0  0  0  0
   36.1840   30.3130   48.3710 C   0  0  0  0  0  0  0  0  0  0  0  0
   29.8520   26.6650   48.6120 C   0  0  0  0  0  2  0  0  0  0  0  0
   29.0840   27.4920   47.6840 C   0  0  0  0  0  0  0  0  0  0  0  0
   29.0320   27.1760   46.3270 C   0  0  0  0  0  3  0  0  0  0  0  0
   28.3080   27.9330   45.4430 C   0  0  0  0  0  3  0  0  0  0  0  0
   27.5970   29.0540   45.8820 C   0  0  0  0  0  3  0  0  0  0  0  0
   27.6460   29.3770   47.2400 C   0  0  0  0  0  0  0  0  0  0  0  0
   26.9500   30.4740   47.6820 C   0  0  0  0  0  3  0  0  0  0  0  0
   26.9630   30.8350   49.0100 C   0  0  0  0  0  3  0  0  0  0  0  0
   27.6960   30.0680   49.9010 C   0  0  0  0  0  3  0  0  0  0  0  0
   28.3930   28.9590   49.4220 C   0  0  0  0  0  3  0  0  0  0  0  0
   28.3910   28.5820   48.0960 C   0  0  0  0  0  0  0  0  0  0  0  0
  1  6  2  0  0  0  0
  1  2  1  0  0  0  0
  2  3  2  0  0  0  0
  3  4  1  0  0  0  0
  3  7  1  0  0  0  0
  5 19  1  0  0  0  0
  5  4  2  0  0  0  0
  6  5  1  0  0  0  0
  7  8  2  0  0  0  0
  9 18  1  0  0  0  0
  9  7  1  0  0  0  0
 10  9  2  0  0  0  0
 11 12  2  0  0  0  0
 11 10  1  0  0  0  0
 12 13  1  0  0  0  0
 13 14  2  0  0  0  0
 13 18  1  0  0  0  0
 14 15  1  0  0  0  0
 15 16  2  0  0  0  0
 17 16  1  0  0  0  0
 18 17  2  0  0  0  0
 20 29  1  0  0  0  0
 20 19  1  0  0  0  0
 21 20  2  0  0  0  0
 22 23  2  0  0  0  0
 22 21  1  0  0  0  0
 23 24  1  0  0  0  0
 24 25  2  0  0  0  0
 24 29  1  0  0  0  0
 25 26  1  0  0  0  0
 26 27  2  0  0  0  0
 28 27  1  0  0  0  0
 29 28  2  0  0  0  0
M  END
>  <minimizedAffinity>
-7.59141588

$$$$

 OpenBabel03272514553D

 29 33  0  0  0  0  0  0  0  0999 V2000
   33.3520   25.7820   47.5310 C   0  0  0  0  0  3  0  0  0  0  0  0
   34.0510   26.9790   47.5460 C   0  0  0  0  0  3  0  0  0  0  0  0
   33.3120   28.1470   47.8130 C   0  0  0  0  0  0  0  0  0  0  0  0
   31.9700   28.0430   48.0400 N   0  0  0  0  0  0  0  0  0  0  0  0
   31.3570   26.8740   48.0120 C   0  0  0  0  0  0  0  0  0  0  0  0
   32.0380   25.7420   47.7600 N   0  0  0  0  0  0  0  0  0  0  0  0
   33.9740   29.4510   47.8410 C   0  0  0  0  0  0  0  0  0  0  0  0
   33.6620   30.2930   46.9520 O   0  0  0  0  0  0  0  0  0  0  0  0
   34.9370   29.6170   48.9250 C   0  0  0  0  0  0  0  0  0  0  0  0
   34.7140   29.1510   50.2110 C   0  0  0  0  0  3  0  0  0  0  0  0
   35.5950   29.2810   51.2600 C   0  0  0  0  0  3  0  0  0  0  0  0
   36.7870   29.9150   51.0460 C   0  0  0  0  0  3  0  0  0  0  0  0
   37.0780   30.4040   49.7900 C   0  0  0  0  0  0  0  0  0  0  0  0
   38.2950   31.0470   49.5860 C   0  0  0  0  0  3  0  0  0  0  0  0
   38.6150   31.5480   48.3460 C   0  0  0  0  0  3  0  0  0  0  0  0
   37.7090   31.4050   47.3040 C   0  0  0  0  0  3  0  0  0  0  0  0
   36.5130   30.7570   47.5610 C   0  0  0  0  0  3  0  0  0  0  0  0
   36.1540   30.2430   48.7780 C   0  0  0  0  0  0  0  0  0  0  0  0
   29.8900   26.7120   48.2480 C   0  0  0  0  0  2  0  0  0  0  0  0
   29.1060   26.7170   47.0150 C   0  0  0  0  0  0  0  0  0  0  0  0
   29.0850   25.5990   46.1830 C   0  0  0  0  0  3  0  0  0  0  0  0
   28.3450   25.5810   45.0280 C   0  0  0  0  0  3  0  0  0  0  0  0
   27.5880   26.6940   44.6510 C   0  0  0  0  0  3  0  0  0  0  0  0
   27.6050   27.8170   45.4800 C   0  0  0  0  0  0  0  0  0  0  0  0
   26.8640   28.9140   45.1190 C   0  0  0  0  0  3  0  0  0  0  0  0
   26.8450   30.0460   45.9020 C   0  0  0  0  0  3  0  0  0  0  0  0
   27.5930   30.0620   47.0680 C   0  0  0  0  0  3  0  0  0  0  0  0
   28.3370   28.9320   47.4070 C   0  0  0  0  0  3  0  0  0  0  0  0
   28.3670   27.7890   46.6370 C   0  0  0  0  0  0  0  0  0  0  0  0
  1  2  2  0  0  0  0
  1  6  1  0  0  0  0
  2  3  1  0  0  0  0
  3  7  1  0  0  0  0
  3  4  2  0  0  0  0
  5  4  1  0  0  0  0
  5 19  1  0  0  0  0
  6  5  2  0  0  0  0
  7  9  1  0  0  0  0
  8  7  2  0  0  0  0
  9 10  1  0  0  0  0
 10 11  2  0  0  0  0
 12 11  1  0  0  0  0
 13 12  2  0  0  0  0
 14 13  1  0  0  0  0
 15 14  2  0  0  0  0
 16 17  2  0  0  0  0
 16 15  1  0  0  0  0
 17 18  1  0  0  0  0
 18  9  2  0  0  0  0
 18 13  1  0  0  0  0
 20 19  1  0  0  0  0
 21 20  2  0  0  0  0
 22 21  1  0  0  0  0
 23 22  2  0  0  0  0
 23 24  1  0  0  0  0
 24 29  1  0  0  0  0
 25 24  2  0  0  0  0
 25 26  1  0  0  0  0
 26 27  2  0  0  0  0
 27 28  1  0  0  0  0
 29 20  1  0  0  0  0
 29 28  2  0  0  0  0
M  END
>  <minimizedAffinity>
-7.5474515

$$$$

 OpenBabel03272514553D

 29 33  0  0  0  0  0  0  0  0999 V2000
   33.4640   25.6480   47.0470 C   0  0  0  0  0  3  0  0  0  0  0  0
   32.1480   25.5370   46.6270 C   0  0  0  0  0  3  0  0  0  0  0  0
   31.2460   26.5140   47.0870 C   0  0  0  0  0  0  0  0  0  0  0  0
   31.7050   27.5050   47.9070 N   0  0  0  0  0  0  0  0  0  0  0  0
   32.9710   27.5610   48.2750 C   0  0  0  0  0  0  0  0  0  0  0  0
   33.8550   26.6400   47.8500 N   0  0  0  0  0  0  0  0  0  0  0  0
   29.8370   26.4640   46.6940 C   0  0  0  0  0  0  0  0  0  0  0  0
   29.3100   25.3280   46.5240 O   0  0  0  0  0  0  0  0  0  0  0  0
   29.2050   27.7710   46.5470 C   0  0  0  0  0  0  0  0  0  0  0  0
   29.4950   28.6380   45.5070 C   0  0  0  0  0  3  0  0  0  0  0  0
   28.9200   29.8750   45.3270 C   0  0  0  0  0  3  0  0  0  0  0  0
   27.9890   30.3060   46.2300 C   0  0  0  0  0  3  0  0  0  0  0  0
   27.6480   29.4960   47.2920 C   0  0  0  0  0  0  0  0  0  0  0  0
   26.6990   29.9480   48.2040 C   0  0  0  0  0  3  0  0  0  0  0  0
   26.3390   29.1650   49.2750 C   0  0  0  0  0  3  0  0  0  0  0  0
   26.9350   27.9200   49.4340 C   0  0  0  0  0  3  0  0  0  0  0  0
   27.8720   27.5190   48.4980 C   0  0  0  0  0  3  0  0  0  0  0  0
   28.2600   28.2650   47.4180 C   0  0  0  0  0  0  0  0  0  0  0  0
   33.5180   28.6200   49.1750 C   0  0  0  0  0  2  0  0  0  0  0  0
   34.6720   29.3160   48.6100 C   0  0  0  0  0  0  0  0  0  0  0  0
   34.7060   29.6510   47.2570 C   0  0  0  0  0  3  0  0  0  0  0  0
   35.7750   30.3140   46.7100 C   0  0  0  0  0  3  0  0  0  0  0  0
   36.8690   30.6730   47.5030 C   0  0  0  0  0  3  0  0  0  0  0  0
   36.8420   30.3390   48.8580 C   0  0  0  0  0  0  0  0  0  0  0  0
   37.9110   30.6890   49.6450 C   0  0  0  0  0  3  0  0  0  0  0  0
   37.9330   30.3850   50.9870 C   0  0  0  0  0  3  0  0  0  0  0  0
   36.8520   29.7150   51.5360 C   0  0  0  0  0  3  0  0  0  0  0  0
   35.7810   29.3730   50.7110 C   0  0  0  0  0  3  0  0  0  0  0  0
   35.7400   29.6690   49.3660 C   0  0  0  0  0  0  0  0  0  0  0  0
  1  6  1  0  0  0  0
  2  1  2  0  0  0  0
  2  3  1  0  0  0  0
  3  4  2  0  0  0  0
  4  5  1  0  0  0  0
  5 19  1  0  0  0  0
  6  5  2  0  0  0  0
  7  3  1  0  0  0  0
  8  7  2  0  0  0  0
  9  7  1  0  0  0  0
  9 18  1  0  0  0  0
 10  9  2  0  0  0  0
 11 10  1  0  0  0  0
 11 12  2  0  0  0  0
 12 13  1  0  0  0  0
 13 18  2  0  0  0  0
 13 14  1  0  0  0  0
 14 15  2  0  0  0  0
 15 16  1  0  0  0  0
 17 16  2  0  0  0  0
 18 17  1  0  0  0  0
 20 19  1  0  0  0  0
 20 29  1  0  0  0  0
 21 20  2  0  0  0  0
 22 21  1  0  0  0  0
 22 23  2  0  0  0  0
 23 24  1  0  0  0  0
 24 29  2  0  0  0  0
 24 25  1  0  0  0  0
 25 26  2  0  0  0  0
 26 27  1  0  0  0  0
 28 27  2  0  0  0  0
 29 28  1  0  0  0  0
M  END
>  <minimizedAffinity>
-7.45960379

$$$$
