
 OpenBabel03272514313D

 30 35  0  0  0  0  0  0  0  0999 V2000
   34.5220   29.6020   45.4090 C   0  0  0  0  0  3  0  0  0  0  0  0
   33.2700   29.0120   45.2610 C   0  0  0  0  0  3  0  0  0  0  0  0
   32.7040   28.5850   46.4480 C   0  0  0  0  0  0  0  0  0  0  0  0
   33.3660   28.7620   47.5790 N   0  0  0  0  0  0  0  0  0  0  0  0
   34.5470   29.3170   47.7310 C   0  0  0  0  0  0  0  0  0  0  0  0
   35.0900   29.7250   46.6100 N   0  0  0  0  0  0  0  0  0  0  0  0
   31.4180   27.9580   46.4680 N   0  0  0  0  0  0  0  0  0  0  0  0
   31.0520   26.8660   45.7890 C   0  0  0  0  0  3  0  0  0  0  0  0
   29.7860   26.5570   46.0390 N   0  0  0  0  0  0  0  0  0  0  0  0
   29.3310   27.4770   46.9000 C   0  0  0  0  0  0  0  0  0  0  0  0
   30.3500   28.3210   47.1460 N   0  0  0  0  0  0  0  0  0  0  0  0
   28.1060   27.7840   47.5970 N   0  0  0  0  0  0  0  0  0  0  0  0
   26.9100   28.2420   47.1680 C   0  0  0  0  0  3  0  0  0  0  0  0
   26.0940   28.3600   48.2500 N   0  0  0  0  0  0  0  0  0  0  0  0
   26.7930   27.9750   49.3490 C   0  0  0  0  0  0  0  0  0  0  0  0
   26.3430   27.9420   50.6550 C   0  0  0  0  0  3  0  0  0  0  0  0
   27.2530   27.5120   51.5650 N   0  0  0  0  0  0  0  0  0  0  0  0
   28.4980   27.1540   51.1820 C   0  0  0  0  0  3  0  0  0  0  0  0
   28.9380   27.1880   49.8960 N   0  0  0  0  0  0  0  0  0  0  0  0
   28.0610   27.6110   48.9480 C   0  0  0  0  0  0  0  0  0  0  0  0
   35.3700   29.5680   48.8990 C   0  0  0  0  0  0  0  0  0  0  0  0
   35.0950   28.9980   50.1230 C   0  0  0  0  0  3  0  0  0  0  0  0
   35.8420   29.2020   51.2670 C   0  0  0  0  0  3  0  0  0  0  0  0
   36.9410   30.0210   51.2250 C   0  0  0  0  0  3  0  0  0  0  0  0
   37.2540   30.6070   50.0460 C   0  0  0  0  0  0  0  0  0  0  0  0
   38.3680   31.4370   50.0060 C   0  0  0  0  0  3  0  0  0  0  0  0
   38.7560   32.0690   48.8570 C   0  0  0  0  0  3  0  0  0  0  0  0
   37.9880   31.8480   47.7200 C   0  0  0  0  0  3  0  0  0  0  0  0
   36.8920   31.0220   47.7910 C   0  0  0  0  0  3  0  0  0  0  0  0
   36.4930   30.3900   48.9150 C   0  0  0  0  0  0  0  0  0  0  0  0
  1  6  1  0  0  0  0
  2  1  2  0  0  0  0
  2  3  1  0  0  0  0
  3  7  1  0  0  0  0
  3  4  2  0  0  0  0
  4  5  1  0  0  0  0
  5 21  1  0  0  0  0
  6  5  2  0  0  0  0
  7 11  1  0  0  0  0
  8  9  2  0  0  0  0
  8  7  1  0  0  0  0
  9 10  1  0  0  0  0
 10 11  2  0  0  0  0
 10 12  1  0  0  0  0
 12 20  1  0  0  0  0
 13 12  1  0  0  0  0
 13 14  2  0  0  0  0
 14 15  1  0  0  0  0
 15 16  1  0  0  0  0
 16 17  2  0  0  0  0
 18 17  1  0  0  0  0
 19 18  2  0  0  0  0
 20 15  2  0  0  0  0
 20 19  1  0  0  0  0
 21 30  2  0  0  0  0
 21 22  1  0  0  0  0
 22 23  2  0  0  0  0
 24 23  1  0  0  0  0
 25 24  2  0  0  0  0
 26 25  1  0  0  0  0
 27 26  2  0  0  0  0
 28 29  2  0  0  0  0
 28 27  1  0  0  0  0
 29 30  1  0  0  0  0
 30 25  1  0  0  0  0
M  END
>  <minimizedAffinity>
-9.15056419

$$$$

 OpenBabel03272514313D

 30 35  0  0  0  0  0  0  0  0999 V2000
   33.5110   29.3320   44.8880 C   0  0  0  0  0  3  0  0  0  0  0  0
   32.4240   28.7920   45.5690 C   0  0  0  0  0  3  0  0  0  0  0  0
   32.5820   28.7520   46.9420 C   0  0  0  0  0  0  0  0  0  0  0  0
   33.7030   29.2090   47.4770 N   0  0  0  0  0  0  0  0  0  0  0  0
   34.7340   29.7190   46.8450 C   0  0  0  0  0  0  0  0  0  0  0  0
   34.5910   29.7620   45.5420 N   0  0  0  0  0  0  0  0  0  0  0  0
   31.5550   28.2250   47.7870 N   0  0  0  0  0  0  0  0  0  0  0  0
   31.7270   27.5260   48.9130 C   0  0  0  0  0  3  0  0  0  0  0  0
   30.5590   27.1930   49.4460 N   0  0  0  0  0  0  0  0  0  0  0  0
   29.6140   27.6920   48.6370 C   0  0  0  0  0  0  0  0  0  0  0  0
   30.2500   28.3190   47.6320 N   0  0  0  0  0  0  0  0  0  0  0  0
   28.1740   27.7340   48.5650 N   0  0  0  0  0  0  0  0  0  0  0  0
   27.2500   26.7800   48.3180 C   0  0  0  0  0  3  0  0  0  0  0  0
   26.0220   27.3630   48.3670 N   0  0  0  0  0  0  0  0  0  0  0  0
   26.1920   28.6820   48.6430 C   0  0  0  0  0  0  0  0  0  0  0  0
   25.2060   29.6400   48.7800 C   0  0  0  0  0  3  0  0  0  0  0  0
   25.6540   30.8890   49.0600 N   0  0  0  0  0  0  0  0  0  0  0  0
   26.9760   31.1370   49.1840 C   0  0  0  0  0  3  0  0  0  0  0  0
   27.9450   30.1930   49.0490 N   0  0  0  0  0  0  0  0  0  0  0  0
   27.5430   28.9250   48.7700 C   0  0  0  0  0  0  0  0  0  0  0  0
   36.0030   30.2490   47.3060 C   0  0  0  0  0  0  0  0  0  0  0  0
   36.8920   30.8660   46.4520 C   0  0  0  0  0  3  0  0  0  0  0  0
   38.1120   31.3870   46.8350 C   0  0  0  0  0  3  0  0  0  0  0  0
   38.5050   31.3060   48.1460 C   0  0  0  0  0  3  0  0  0  0  0  0
   37.6700   30.7080   49.0260 C   0  0  0  0  0  0  0  0  0  0  0  0
   38.0710   30.6260   50.3540 C   0  0  0  0  0  3  0  0  0  0  0  0
   37.2890   30.0390   51.3100 C   0  0  0  0  0  3  0  0  0  0  0  0
   36.0650   29.5220   50.9000 C   0  0  0  0  0  3  0  0  0  0  0  0
   35.6960   29.6180   49.5790 C   0  0  0  0  0  3  0  0  0  0  0  0
   36.4540   30.1930   48.6220 C   0  0  0  0  0  0  0  0  0  0  0  0
  1  6  2  0  0  0  0
  1  2  1  0  0  0  0
  2  3  2  0  0  0  0
  3  4  1  0  0  0  0
  3  7  1  0  0  0  0
  5 21  1  0  0  0  0
  5  4  2  0  0  0  0
  6  5  1  0  0  0  0
  7  8  1  0  0  0  0
  8  9  2  0  0  0  0
 10  9  1  0  0  0  0
 11  7  1  0  0  0  0
 11 10  2  0  0  0  0
 12 10  1  0  0  0  0
 12 20  1  0  0  0  0
 13 14  2  0  0  0  0
 13 12  1  0  0  0  0
 14 15  1  0  0  0  0
 15 20  2  0  0  0  0
 15 16  1  0  0  0  0
 16 17  2  0  0  0  0
 17 18  1  0  0  0  0
 19 18  2  0  0  0  0
 20 19  1  0  0  0  0
 21 30  1  0  0  0  0
 22 23  1  0  0  0  0
 22 21  2  0  0  0  0
 23 24  2  0  0  0  0
 24 25  1  0  0  0  0
 25 26  1  0  0  0  0
 26 27  2  0  0  0  0
 28 27  1  0  0  0  0
 29 28  2  0  0  0  0
 30 25  2  0  0  0  0
 30 29  1  0  0  0  0
M  END
>  <minimizedAffinity>
-8.54806137

$$$$

 OpenBabel03272514313D

 30 35  0  0  0  0  0  0  0  0999 V2000
   33.2900   26.5760   47.9170 C   0  0  0  0  0  3  0  0  0  0  0  0
   32.0230   26.8700   47.4210 C   0  0  0  0  0  3  0  0  0  0  0  0
   31.8780   28.1710   46.9760 C   0  0  0  0  0  0  0  0  0  0  0  0
   32.9080   28.9980   47.0540 N   0  0  0  0  0  0  0  0  0  0  0  0
   34.1060   28.7330   47.5200 C   0  0  0  0  0  0  0  0  0  0  0  0
   34.2520   27.5000   47.9430 N   0  0  0  0  0  0  0  0  0  0  0  0
   30.6360   28.6320   46.4360 N   0  0  0  0  0  0  0  0  0  0  0  0
   30.1940   28.4550   45.1870 C   0  0  0  0  0  3  0  0  0  0  0  0
   29.0010   29.0120   45.0240 N   0  0  0  0  0  0  0  0  0  0  0  0
   28.6720   29.5620   46.2020 C   0  0  0  0  0  0  0  0  0  0  0  0
   29.6890   29.3130   47.0470 N   0  0  0  0  0  0  0  0  0  0  0  0
   27.5760   30.3060   46.7720 N   0  0  0  0  0  0  0  0  0  0  0  0
   27.1320   31.5650   46.5670 C   0  0  0  0  0  3  0  0  0  0  0  0
   26.0540   31.7650   47.3720 N   0  0  0  0  0  0  0  0  0  0  0  0
   25.8360   30.6240   48.0770 C   0  0  0  0  0  0  0  0  0  0  0  0
   24.8430   30.3960   49.0090 C   0  0  0  0  0  3  0  0  0  0  0  0
   24.8520   29.1590   49.5660 N   0  0  0  0  0  0  0  0  0  0  0  0
   25.7830   28.2470   49.2100 C   0  0  0  0  0  3  0  0  0  0  0  0
   26.7590   28.4740   48.2930 N   0  0  0  0  0  0  0  0  0  0  0  0
   26.7900   29.7000   47.7060 C   0  0  0  0  0  0  0  0  0  0  0  0
   35.3050   29.5380   47.6580 C   0  0  0  0  0  0  0  0  0  0  0  0
   35.9010   30.1530   46.5790 C   0  0  0  0  0  3  0  0  0  0  0  0
   37.0420   30.9290   46.6510 C   0  0  0  0  0  3  0  0  0  0  0  0
   37.6540   31.1260   47.8610 C   0  0  0  0  0  3  0  0  0  0  0  0
   37.1100   30.5420   48.9540 C   0  0  0  0  0  0  0  0  0  0  0  0
   37.7340   30.7430   50.1800 C   0  0  0  0  0  3  0  0  0  0  0  0
   37.2510   30.1910   51.3340 C   0  0  0  0  0  3  0  0  0  0  0  0
   36.1030   29.4150   51.2350 C   0  0  0  0  0  3  0  0  0  0  0  0
   35.5090   29.2340   50.0090 C   0  0  0  0  0  3  0  0  0  0  0  0
   35.9700   29.7700   48.8600 C   0  0  0  0  0  0  0  0  0  0  0  0
  1  6  1  0  0  0  0
  2  1  2  0  0  0  0
  3  4  2  0  0  0  0
  3  2  1  0  0  0  0
  4  5  1  0  0  0  0
  5 21  1  0  0  0  0
  5  6  2  0  0  0  0
  7  3  1  0  0  0  0
  7 11  1  0  0  0  0
  8  7  1  0  0  0  0
  9  8  2  0  0  0  0
  9 10  1  0  0  0  0
 10 12  1  0  0  0  0
 10 11  2  0  0  0  0
 12 20  1  0  0  0  0
 13 12  1  0  0  0  0
 13 14  2  0  0  0  0
 14 15  1  0  0  0  0
 15 16  1  0  0  0  0
 16 17  2  0  0  0  0
 18 17  1  0  0  0  0
 19 18  2  0  0  0  0
 20 15  2  0  0  0  0
 20 19  1  0  0  0  0
 21 30  1  0  0  0  0
 22 23  1  0  0  0  0
 22 21  2  0  0  0  0
 23 24  2  0  0  0  0
 24 25  1  0  0  0  0
 25 26  1  0  0  0  0
 26 27  2  0  0  0  0
 28 27  1  0  0  0  0
 29 28  2  0  0  0  0
 30 25  2  0  0  0  0
 30 29  1  0  0  0  0
M  END
>  <minimizedAffinity>
-8.38803959

$$$$

 OpenBabel03272514313D

 30 35  0  0  0  0  0  0  0  0999 V2000
   35.0340   29.7700   44.8480 C   0  0  0  0  0  3  0  0  0  0  0  0
   33.6860   29.6270   44.5290 C   0  0  0  0  0  3  0  0  0  0  0  0
   32.8550   29.5210   45.6280 C   0  0  0  0  0  0  0  0  0  0  0  0
   33.3800   29.5610   46.8420 N   0  0  0  0  0  0  0  0  0  0  0  0
   34.6480   29.6940   47.1550 C   0  0  0  0  0  0  0  0  0  0  0  0
   35.4440   29.7970   46.1180 N   0  0  0  0  0  0  0  0  0  0  0  0
   31.4400   29.3680   45.4710 N   0  0  0  0  0  0  0  0  0  0  0  0
   30.8020   28.9230   44.3850 C   0  0  0  0  0  3  0  0  0  0  0  0
   29.4900   28.9090   44.5810 N   0  0  0  0  0  0  0  0  0  0  0  0
   29.2840   29.3600   45.8260 C   0  0  0  0  0  0  0  0  0  0  0  0
   30.4940   29.6330   46.3470 N   0  0  0  0  0  0  0  0  0  0  0  0
   28.1710   29.6140   46.7070 N   0  0  0  0  0  0  0  0  0  0  0  0
   27.1940   30.5470   46.6880 C   0  0  0  0  0  3  0  0  0  0  0  0
   26.3920   30.3360   47.7660 N   0  0  0  0  0  0  0  0  0  0  0  0
   26.8800   29.2700   48.4520 C   0  0  0  0  0  0  0  0  0  0  0  0
   26.3680   28.7190   49.6110 C   0  0  0  0  0  3  0  0  0  0  0  0
   27.0530   27.6510   50.0890 N   0  0  0  0  0  0  0  0  0  0  0  0
   28.1530   27.1920   49.4520 C   0  0  0  0  0  3  0  0  0  0  0  0
   28.6540   27.7370   48.3120 N   0  0  0  0  0  0  0  0  0  0  0  0
   28.0000   28.8090   47.7940 C   0  0  0  0  0  0  0  0  0  0  0  0
   35.3430   29.7520   48.4260 C   0  0  0  0  0  0  0  0  0  0  0  0
   34.9210   29.0360   49.5250 C   0  0  0  0  0  3  0  0  0  0  0  0
   35.5420   29.0530   50.7580 C   0  0  0  0  0  3  0  0  0  0  0  0
   36.6600   29.8240   50.9450 C   0  0  0  0  0  3  0  0  0  0  0  0
   37.1160   30.5490   49.8990 C   0  0  0  0  0  0  0  0  0  0  0  0
   38.2510   31.3300   50.0910 C   0  0  0  0  0  3  0  0  0  0  0  0
   38.7790   32.0940   49.0880 C   0  0  0  0  0  3  0  0  0  0  0  0
   38.1360   32.0590   47.8560 C   0  0  0  0  0  3  0  0  0  0  0  0
   37.0170   31.2780   47.6960 C   0  0  0  0  0  3  0  0  0  0  0  0
   36.4800   30.5180   48.6740 C   0  0  0  0  0  0  0  0  0  0  0  0
  1  6  1  0  0  0  0
  2  1  2  0  0  0  0
  2  3  1  0  0  0  0
  3  4  2  0  0  0  0
  4  5  1  0  0  0  0
  5 21  1  0  0  0  0
  6  5  2  0  0  0  0
  7  3  1  0  0  0  0
  7 11  1  0  0  0  0
  8  9  2  0  0  0  0
  8  7  1  0  0  0  0
  9 10  1  0  0  0  0
 10 11  2  0  0  0  0
 10 12  1  0  0  0  0
 12 20  1  0  0  0  0
 13 12  1  0  0  0  0
 13 14  2  0  0  0  0
 14 15  1  0  0  0  0
 15 16  1  0  0  0  0
 16 17  2  0  0  0  0
 18 17  1  0  0  0  0
 19 18  2  0  0  0  0
 20 19  1  0  0  0  0
 20 15  2  0  0  0  0
 21 30  2  0  0  0  0
 21 22  1  0  0  0  0
 22 23  2  0  0  0  0
 23 24  1  0  0  0  0
 25 26  1  0  0  0  0
 25 24  2  0  0  0  0
 27 26  2  0  0  0  0
 28 27  1  0  0  0  0
 29 28  2  0  0  0  0
 29 30  1  0  0  0  0
 30 25  1  0  0  0  0
M  END
>  <minimizedAffinity>
-8.34196568

$$$$

 OpenBabel03272514313D

 30 35  0  0  0  0  0  0  0  0999 V2000
   36.5920   30.2310   43.9330 C   0  0  0  0  0  3  0  0  0  0  0  0
   35.3040   29.7390   43.7380 C   0  0  0  0  0  3  0  0  0  0  0  0
   34.5520   29.6530   44.8940 C   0  0  0  0  0  0  0  0  0  0  0  0
   35.0900   30.0270   46.0440 N   0  0  0  0  0  0  0  0  0  0  0  0
   36.3020   30.4920   46.2400 C   0  0  0  0  0  0  0  0  0  0  0  0
   37.0220   30.5780   45.1470 N   0  0  0  0  0  0  0  0  0  0  0  0
   33.2060   29.1670   44.8640 N   0  0  0  0  0  0  0  0  0  0  0  0
   32.6910   28.2980   43.9900 C   0  0  0  0  0  3  0  0  0  0  0  0
   31.4110   28.0660   44.2520 N   0  0  0  0  0  0  0  0  0  0  0  0
   31.1000   28.8100   45.3230 C   0  0  0  0  0  0  0  0  0  0  0  0
   32.2160   29.4720   45.6770 N   0  0  0  0  0  0  0  0  0  0  0  0
   29.9490   29.0720   46.1520 N   0  0  0  0  0  0  0  0  0  0  0  0
   28.7930   29.7300   45.9160 C   0  0  0  0  0  3  0  0  0  0  0  0
   28.0450   29.6820   47.0510 N   0  0  0  0  0  0  0  0  0  0  0  0
   28.7450   28.9930   47.9890 C   0  0  0  0  0  0  0  0  0  0  0  0
   28.3530   28.7120   49.2840 C   0  0  0  0  0  3  0  0  0  0  0  0
   29.2490   28.0010   50.0130 N   0  0  0  0  0  0  0  0  0  0  0  0
   30.4280   27.6180   49.4770 C   0  0  0  0  0  3  0  0  0  0  0  0
   30.8110   27.8950   48.2030 N   0  0  0  0  0  0  0  0  0  0  0  0
   29.9450   28.6050   47.4330 C   0  0  0  0  0  0  0  0  0  0  0  0
   37.0030   30.9310   47.4310 C   0  0  0  0  0  0  0  0  0  0  0  0
   37.9820   31.9010   47.3880 C   0  0  0  0  0  3  0  0  0  0  0  0
   38.6820   32.3570   48.4880 C   0  0  0  0  0  3  0  0  0  0  0  0
   38.4150   31.8360   49.7270 C   0  0  0  0  0  3  0  0  0  0  0  0
   37.4640   30.8790   49.8250 C   0  0  0  0  0  0  0  0  0  0  0  0
   37.1950   30.3520   51.0830 C   0  0  0  0  0  3  0  0  0  0  0  0
   36.2500   29.3820   51.2730 C   0  0  0  0  0  3  0  0  0  0  0  0
   35.5600   28.9400   50.1510 C   0  0  0  0  0  3  0  0  0  0  0  0
   35.8470   29.4800   48.9200 C   0  0  0  0  0  3  0  0  0  0  0  0
   36.7760   30.4370   48.7130 C   0  0  0  0  0  0  0  0  0  0  0  0
  1  6  1  0  0  0  0
  2  1  2  0  0  0  0
  2  3  1  0  0  0  0
  3  4  2  0  0  0  0
  4  5  1  0  0  0  0
  5 21  1  0  0  0  0
  6  5  2  0  0  0  0
  7  3  1  0  0  0  0
  7 11  1  0  0  0  0
  8  9  2  0  0  0  0
  8  7  1  0  0  0  0
  9 10  1  0  0  0  0
 10 11  2  0  0  0  0
 10 12  1  0  0  0  0
 12 20  1  0  0  0  0
 13 12  1  0  0  0  0
 13 14  2  0  0  0  0
 14 15  1  0  0  0  0
 15 16  1  0  0  0  0
 16 17  2  0  0  0  0
 18 17  1  0  0  0  0
 19 18  2  0  0  0  0
 20 15  2  0  0  0  0
 20 19  1  0  0  0  0
 21 30  1  0  0  0  0
 22 21  2  0  0  0  0
 22 23  1  0  0  0  0
 23 24  2  0  0  0  0
 24 25  1  0  0  0  0
 25 26  1  0  0  0  0
 26 27  2  0  0  0  0
 28 27  1  0  0  0  0
 29 28  2  0  0  0  0
 30 29  1  0  0  0  0
 30 25  2  0  0  0  0
M  END
>  <minimizedAffinity>
-8.317379

$$$$

 OpenBabel03272514313D

 30 35  0  0  0  0  0  0  0  0999 V2000
   34.4770   29.3940   43.6560 C   0  0  0  0  0  3  0  0  0  0  0  0
   33.1060   29.1800   43.7670 C   0  0  0  0  0  3  0  0  0  0  0  0
   32.6200   29.2960   45.0560 C   0  0  0  0  0  0  0  0  0  0  0  0
   33.4570   29.5890   46.0380 N   0  0  0  0  0  0  0  0  0  0  0  0
   34.7500   29.7930   45.9450 C   0  0  0  0  0  0  0  0  0  0  0  0
   35.2200   29.6850   44.7260 N   0  0  0  0  0  0  0  0  0  0  0  0
   31.2300   29.1060   45.3400 N   0  0  0  0  0  0  0  0  0  0  0  0
   30.3050   28.6210   44.5060 C   0  0  0  0  0  3  0  0  0  0  0  0
   29.1160   28.5790   45.0940 N   0  0  0  0  0  0  0  0  0  0  0  0
   29.2870   29.0520   46.3370 C   0  0  0  0  0  0  0  0  0  0  0  0
   30.5890   29.3650   46.4600 N   0  0  0  0  0  0  0  0  0  0  0  0
   28.4880   29.2970   47.5120 N   0  0  0  0  0  0  0  0  0  0  0  0
   27.5240   30.2040   47.7810 C   0  0  0  0  0  3  0  0  0  0  0  0
   27.0950   29.9960   49.0550 N   0  0  0  0  0  0  0  0  0  0  0  0
   27.8010   28.9580   49.5730 C   0  0  0  0  0  0  0  0  0  0  0  0
   27.6840   28.4180   50.8390 C   0  0  0  0  0  3  0  0  0  0  0  0
   28.5140   27.3780   51.0990 N   0  0  0  0  0  0  0  0  0  0  0  0
   29.3800   26.9340   50.1620 C   0  0  0  0  0  3  0  0  0  0  0  0
   29.4940   27.4660   48.9170 N   0  0  0  0  0  0  0  0  0  0  0  0
   28.6800   28.5110   48.6100 C   0  0  0  0  0  0  0  0  0  0  0  0
   35.7650   30.1160   46.9290 C   0  0  0  0  0  0  0  0  0  0  0  0
   36.9450   30.7410   46.5860 C   0  0  0  0  0  3  0  0  0  0  0  0
   37.9450   31.0720   47.4790 C   0  0  0  0  0  3  0  0  0  0  0  0
   37.7950   30.7760   48.8090 C   0  0  0  0  0  3  0  0  0  0  0  0
   36.6550   30.1600   49.1990 C   0  0  0  0  0  0  0  0  0  0  0  0
   36.5050   29.8610   50.5490 C   0  0  0  0  0  3  0  0  0  0  0  0
   35.3860   29.2400   51.0300 C   0  0  0  0  0  3  0  0  0  0  0  0
   34.3940   28.9180   50.1120 C   0  0  0  0  0  3  0  0  0  0  0  0
   34.5710   29.2270   48.7840 C   0  0  0  0  0  3  0  0  0  0  0  0
   35.6680   29.8380   48.2910 C   0  0  0  0  0  0  0  0  0  0  0  0
  1  2  2  0  0  0  0
  1  6  1  0  0  0  0
  2  3  1  0  0  0  0
  3  7  1  0  0  0  0
  3  4  2  0  0  0  0
  5  4  1  0  0  0  0
  5 21  1  0  0  0  0
  6  5  2  0  0  0  0
  7 11  1  0  0  0  0
  8  9  2  0  0  0  0
  8  7  1  0  0  0  0
  9 10  1  0  0  0  0
 10 11  2  0  0  0  0
 10 12  1  0  0  0  0
 12 13  1  0  0  0  0
 12 20  1  0  0  0  0
 13 14  2  0  0  0  0
 14 15  1  0  0  0  0
 15 16  1  0  0  0  0
 16 17  2  0  0  0  0
 18 17  1  0  0  0  0
 19 18  2  0  0  0  0
 20 19  1  0  0  0  0
 20 15  2  0  0  0  0
 21 30  1  0  0  0  0
 22 21  2  0  0  0  0
 22 23  1  0  0  0  0
 23 24  2  0  0  0  0
 24 25  1  0  0  0  0
 25 26  1  0  0  0  0
 26 27  2  0  0  0  0
 28 27  1  0  0  0  0
 29 28  2  0  0  0  0
 30 29  1  0  0  0  0
 30 25  2  0  0  0  0
M  END
>  <minimizedAffinity>
-8.1629982

$$$$

 OpenBabel03272514313D

 30 35  0  0  0  0  0  0  0  0999 V2000
   34.9970   28.4000   49.4070 C   0  0  0  0  0  3  0  0  0  0  0  0
   33.7340   28.0910   48.9080 C   0  0  0  0  0  3  0  0  0  0  0  0
   33.4500   28.6770   47.6890 C   0  0  0  0  0  0  0  0  0  0  0  0
   34.3580   29.4500   47.1170 N   0  0  0  0  0  0  0  0  0  0  0  0
   35.5500   29.7500   47.5770 C   0  0  0  0  0  0  0  0  0  0  0  0
   35.8290   29.1970   48.7330 N   0  0  0  0  0  0  0  0  0  0  0  0
   32.1930   28.4580   47.0410 N   0  0  0  0  0  0  0  0  0  0  0  0
   31.9530   27.6230   46.0260 C   0  0  0  0  0  3  0  0  0  0  0  0
   30.6750   27.6680   45.6690 N   0  0  0  0  0  0  0  0  0  0  0  0
   30.0840   28.5580   46.4780 C   0  0  0  0  0  0  0  0  0  0  0  0
   31.0340   29.0250   47.3080 N   0  0  0  0  0  0  0  0  0  0  0  0
   28.7700   29.1150   46.6840 N   0  0  0  0  0  0  0  0  0  0  0  0
   28.0150   29.9570   45.9450 C   0  0  0  0  0  3  0  0  0  0  0  0
   26.8450   30.1640   46.6070 N   0  0  0  0  0  0  0  0  0  0  0  0
   26.8820   29.4470   47.7610 C   0  0  0  0  0  0  0  0  0  0  0  0
   25.8990   29.3740   48.7290 C   0  0  0  0  0  3  0  0  0  0  0  0
   26.1940   28.5780   49.7870 N   0  0  0  0  0  0  0  0  0  0  0  0
   27.3750   27.9250   49.8530 C   0  0  0  0  0  3  0  0  0  0  0  0
   28.3410   27.9990   48.8990 N   0  0  0  0  0  0  0  0  0  0  0  0
   28.0890   28.7840   47.8180 C   0  0  0  0  0  0  0  0  0  0  0  0
   36.6250   30.5730   47.0550 C   0  0  0  0  0  0  0  0  0  0  0  0
   37.0070   30.5250   45.7320 C   0  0  0  0  0  3  0  0  0  0  0  0
   38.0210   31.2830   45.1810 C   0  0  0  0  0  3  0  0  0  0  0  0
   38.7220   32.1570   45.9710 C   0  0  0  0  0  3  0  0  0  0  0  0
   38.3880   32.2420   47.2800 C   0  0  0  0  0  0  0  0  0  0  0  0
   39.1010   33.1290   48.0790 C   0  0  0  0  0  3  0  0  0  0  0  0
   38.8290   33.2780   49.4100 C   0  0  0  0  0  3  0  0  0  0  0  0
   37.8040   32.5040   49.9410 C   0  0  0  0  0  3  0  0  0  0  0  0
   37.1180   31.6360   49.1260 C   0  0  0  0  0  3  0  0  0  0  0  0
   37.3710   31.4740   47.8100 C   0  0  0  0  0  0  0  0  0  0  0  0
  2  1  1  0  0  0  0
  3  2  2  0  0  0  0
  4  5  2  0  0  0  0
  4  3  1  0  0  0  0
  5  6  1  0  0  0  0
  6  1  2  0  0  0  0
  7 11  1  0  0  0  0
  7  3  1  0  0  0  0
  8  7  1  0  0  0  0
  9  8  2  0  0  0  0
  9 10  1  0  0  0  0
 10 12  1  0  0  0  0
 10 11  2  0  0  0  0
 12 20  1  0  0  0  0
 13 14  2  0  0  0  0
 13 12  1  0  0  0  0
 14 15  1  0  0  0  0
 15 20  2  0  0  0  0
 15 16  1  0  0  0  0
 16 17  2  0  0  0  0
 17 18  1  0  0  0  0
 19 18  2  0  0  0  0
 20 19  1  0  0  0  0
 21  5  1  0  0  0  0
 21 30  1  0  0  0  0
 22 21  2  0  0  0  0
 23 22  1  0  0  0  0
 23 24  2  0  0  0  0
 24 25  1  0  0  0  0
 25 30  2  0  0  0  0
 25 26  1  0  0  0  0
 26 27  2  0  0  0  0
 27 28  1  0  0  0  0
 29 28  2  0  0  0  0
 30 29  1  0  0  0  0
M  END
>  <minimizedAffinity>
-7.97757626

$$$$

 OpenBabel03272514313D

 30 35  0  0  0  0  0  0  0  0999 V2000
   33.4820   26.9990   47.4350 C   0  0  0  0  0  3  0  0  0  0  0  0
   32.5900   27.6670   46.6010 C   0  0  0  0  0  3  0  0  0  0  0  0
   32.6990   29.0440   46.6450 C   0  0  0  0  0  0  0  0  0  0  0  0
   33.6020   29.5950   47.4400 N   0  0  0  0  0  0  0  0  0  0  0  0
   34.4480   28.9770   48.2300 C   0  0  0  0  0  0  0  0  0  0  0  0
   34.3510   27.6690   48.1940 N   0  0  0  0  0  0  0  0  0  0  0  0
   31.8530   29.8770   45.8460 N   0  0  0  0  0  0  0  0  0  0  0  0
   32.2420   30.8650   45.0340 C   0  0  0  0  0  3  0  0  0  0  0  0
   31.1970   31.4310   44.4440 N   0  0  0  0  0  0  0  0  0  0  0  0
   30.1100   30.7880   44.8940 C   0  0  0  0  0  0  0  0  0  0  0  0
   30.5400   29.8420   45.7490 N   0  0  0  0  0  0  0  0  0  0  0  0
   28.6800   30.8380   44.7120 N   0  0  0  0  0  0  0  0  0  0  0  0
   27.7490   31.7430   45.0850 C   0  0  0  0  0  3  0  0  0  0  0  0
   26.5370   31.2980   44.6580 N   0  0  0  0  0  0  0  0  0  0  0  0
   26.7230   30.1120   44.0220 C   0  0  0  0  0  0  0  0  0  0  0  0
   25.7550   29.3180   43.4370 C   0  0  0  0  0  3  0  0  0  0  0  0
   26.2180   28.1780   42.8650 N   0  0  0  0  0  0  0  0  0  0  0  0
   27.5340   27.8770   42.8890 C   0  0  0  0  0  3  0  0  0  0  0  0
   28.4840   28.6600   43.4650 N   0  0  0  0  0  0  0  0  0  0  0  0
   28.0690   29.8140   44.0510 C   0  0  0  0  0  0  0  0  0  0  0  0
   35.4720   29.4560   49.1380 C   0  0  0  0  0  0  0  0  0  0  0  0
   35.4660   29.1410   50.4800 C   0  0  0  0  0  3  0  0  0  0  0  0
   36.4140   29.5700   51.3890 C   0  0  0  0  0  3  0  0  0  0  0  0
   37.4490   30.3650   50.9690 C   0  0  0  0  0  3  0  0  0  0  0  0
   37.5010   30.7050   49.6610 C   0  0  0  0  0  0  0  0  0  0  0  0
   38.5510   31.5110   49.2370 C   0  0  0  0  0  3  0  0  0  0  0  0
   38.6810   31.9020   47.9330 C   0  0  0  0  0  3  0  0  0  0  0  0
   37.7150   31.4580   47.0380 C   0  0  0  0  0  3  0  0  0  0  0  0
   36.6880   30.6620   47.4860 C   0  0  0  0  0  3  0  0  0  0  0  0
   36.5430   30.2660   48.7690 C   0  0  0  0  0  0  0  0  0  0  0  0
  1  6  1  0  0  0  0
  2  3  1  0  0  0  0
  2  1  2  0  0  0  0
  3  4  2  0  0  0  0
  4  5  1  0  0  0  0
  5 21  1  0  0  0  0
  6  5  2  0  0  0  0
  7  3  1  0  0  0  0
  8  7  1  0  0  0  0
  9 10  1  0  0  0  0
  9  8  2  0  0  0  0
 10 11  2  0  0  0  0
 11  7  1  0  0  0  0
 12 10  1  0  0  0  0
 12 13  1  0  0  0  0
 14 13  2  0  0  0  0
 15 20  1  0  0  0  0
 15 14  1  0  0  0  0
 16 15  2  0  0  0  0
 17 18  2  0  0  0  0
 17 16  1  0  0  0  0
 18 19  1  0  0  0  0
 19 20  2  0  0  0  0
 20 12  1  0  0  0  0
 21 22  1  0  0  0  0
 22 23  2  0  0  0  0
 24 23  1  0  0  0  0
 25 24  2  0  0  0  0
 26 25  1  0  0  0  0
 27 26  2  0  0  0  0
 28 29  2  0  0  0  0
 28 27  1  0  0  0  0
 29 30  1  0  0  0  0
 30 21  2  0  0  0  0
 30 25  1  0  0  0  0
M  END
>  <minimizedAffinity>
-7.84584188

$$$$

 OpenBabel03272514313D

 30 35  0  0  0  0  0  0  0  0999 V2000
   35.3190   30.1280   44.2540 C   0  0  0  0  0  3  0  0  0  0  0  0
   34.2610   29.2320   44.3750 C   0  0  0  0  0  3  0  0  0  0  0  0
   34.0250   28.8100   45.6700 C   0  0  0  0  0  0  0  0  0  0  0  0
   34.7880   29.2690   46.6480 N   0  0  0  0  0  0  0  0  0  0  0  0
   35.7890   30.1120   46.5460 C   0  0  0  0  0  0  0  0  0  0  0  0
   36.0190   30.5190   45.3200 N   0  0  0  0  0  0  0  0  0  0  0  0
   32.9700   27.8890   45.9650 N   0  0  0  0  0  0  0  0  0  0  0  0
   33.1040   26.6530   46.4550 C   0  0  0  0  0  3  0  0  0  0  0  0
   31.9200   26.0740   46.6080 N   0  0  0  0  0  0  0  0  0  0  0  0
   31.0040   26.9650   46.2010 C   0  0  0  0  0  0  0  0  0  0  0  0
   31.6740   28.0650   45.8140 N   0  0  0  0  0  0  0  0  0  0  0  0
   29.5700   27.0510   46.0780 N   0  0  0  0  0  0  0  0  0  0  0  0
   28.6920   26.4430   45.2510 C   0  0  0  0  0  3  0  0  0  0  0  0
   27.4450   26.8880   45.5620 N   0  0  0  0  0  0  0  0  0  0  0  0
   27.5570   27.7760   46.5830 C   0  0  0  0  0  0  0  0  0  0  0  0
   26.5340   28.4670   47.2040 C   0  0  0  0  0  3  0  0  0  0  0  0
   26.9260   29.2960   48.2040 N   0  0  0  0  0  0  0  0  0  0  0  0
   28.2300   29.4110   48.5360 C   0  0  0  0  0  3  0  0  0  0  0  0
   29.2350   28.7310   47.9230 N   0  0  0  0  0  0  0  0  0  0  0  0
   28.8900   27.8860   46.9150 C   0  0  0  0  0  0  0  0  0  0  0  0
   36.6920   30.6860   47.5250 C   0  0  0  0  0  0  0  0  0  0  0  0
   37.6270   31.6410   47.1870 C   0  0  0  0  0  3  0  0  0  0  0  0
   38.5110   32.2210   48.0750 C   0  0  0  0  0  3  0  0  0  0  0  0
   38.4920   31.8490   49.3940 C   0  0  0  0  0  3  0  0  0  0  0  0
   37.5940   30.9130   49.7790 C   0  0  0  0  0  0  0  0  0  0  0  0
   37.5760   30.5370   51.1180 C   0  0  0  0  0  3  0  0  0  0  0  0
   36.7020   29.5990   51.5920 C   0  0  0  0  0  3  0  0  0  0  0  0
   35.8220   29.0310   50.6790 C   0  0  0  0  0  3  0  0  0  0  0  0
   35.8630   29.4230   49.3620 C   0  0  0  0  0  3  0  0  0  0  0  0
   36.7190   30.3460   48.8750 C   0  0  0  0  0  0  0  0  0  0  0  0
  1  2  2  0  0  0  0
  1  6  1  0  0  0  0
  2  3  1  0  0  0  0
  3  7  1  0  0  0  0
  3  4  2  0  0  0  0
  5  4  1  0  0  0  0
  5 21  1  0  0  0  0
  6  5  2  0  0  0  0
  7  8  1  0  0  0  0
  8  9  2  0  0  0  0
 10  9  1  0  0  0  0
 11  7  1  0  0  0  0
 11 10  2  0  0  0  0
 12 10  1  0  0  0  0
 12 20  1  0  0  0  0
 13 14  2  0  0  0  0
 13 12  1  0  0  0  0
 14 15  1  0  0  0  0
 15 20  2  0  0  0  0
 15 16  1  0  0  0  0
 16 17  2  0  0  0  0
 17 18  1  0  0  0  0
 19 18  2  0  0  0  0
 20 19  1  0  0  0  0
 21 30  1  0  0  0  0
 22 21  2  0  0  0  0
 22 23  1  0  0  0  0
 23 24  2  0  0  0  0
 24 25  1  0  0  0  0
 25 26  1  0  0  0  0
 26 27  2  0  0  0  0
 28 27  1  0  0  0  0
 29 28  2  0  0  0  0
 30 29  1  0  0  0  0
 30 25  2  0  0  0  0
M  END
>  <minimizedAffinity>
-7.83112955

$$$$
