
 OpenBabel03272514303D

 35 40  0  0  0  0  0  0  0  0999 V2000
   31.5100   28.3160   46.0580 N   0  0  0  0  0  0  0  0  0  0  0  0
   31.0530   27.3450   45.2330 C   0  0  0  0  0  3  0  0  0  0  0  0
   29.7590   27.1350   45.4610 N   0  0  0  0  0  0  0  0  0  0  0  0
   29.3770   27.9680   46.4320 C   0  0  0  0  0  0  0  0  0  0  0  0
   30.4660   28.6780   46.7800 N   0  0  0  0  0  0  0  0  0  0  0  0
   28.1500   28.2270   47.1090 N   0  0  0  0  0  0  0  0  0  0  0  0
   27.1130   28.7070   46.3890 C   0  0  0  0  0  3  0  0  0  0  0  0
   26.0510   28.8810   47.2250 N   0  0  0  0  0  0  0  0  0  0  0  0
   26.3960   28.5200   48.4530 C   0  0  0  0  0  0  0  0  0  0  0  0
   25.8130   28.4520   49.7120 C   0  0  0  0  0  0  0  0  0  0  0  0
   24.6140   28.8180   49.8180 O   0  0  0  0  0  0  0  0  0  0  0  0
   26.5520   28.0040   50.7450 N   0  0  0  0  0  0  0  0  0  0  0  0
   27.8350   27.6110   50.6400 C   0  0  0  0  0  0  0  0  0  0  0  0
   28.4170   27.1750   51.8640 N   0  0  0  0  0  0  0  0  0  0  0  0
   28.4440   27.6620   49.4190 N   0  0  0  0  0  0  0  0  0  0  0  0
   27.7110   28.1100   48.3750 C   0  0  0  0  0  0  0  0  0  0  0  0
   26.1090   27.9600   51.6730 H   0  0  0  0  0  0  0  0  0  0  0  0
   29.3960   26.8540   51.8840 H   0  0  0  0  0  0  0  0  0  0  0  0
   27.8600   27.1800   52.7300 H   0  0  0  0  0  0  0  0  0  0  0  0
   34.8330   29.5780   45.1790 C   0  0  0  0  0  3  0  0  0  0  0  0
   33.5390   29.1160   44.9590 C   0  0  0  0  0  3  0  0  0  0  0  0
   32.8440   28.8010   46.0960 C   0  0  0  0  0  0  0  0  0  0  0  0
   33.4360   28.9530   47.2790 N   0  0  0  0  0  0  0  0  0  0  0  0
   34.6510   29.3860   47.5120 C   0  0  0  0  0  0  0  0  0  0  0  0
   35.3160   29.6870   46.4180 N   0  0  0  0  0  0  0  0  0  0  0  0
   35.4150   29.5980   48.7280 C   0  0  0  0  0  0  0  0  0  0  0  0
   35.0850   28.9590   49.9190 C   0  0  0  0  0  3  0  0  0  0  0  0
   35.7770   29.1290   51.0950 C   0  0  0  0  0  3  0  0  0  0  0  0
   36.8620   29.9690   51.1300 C   0  0  0  0  0  3  0  0  0  0  0  0
   37.2300   30.6210   49.9920 C   0  0  0  0  0  0  0  0  0  0  0  0
   38.3200   31.4610   50.0410 C   0  0  0  0  0  3  0  0  0  0  0  0
   38.7540   32.1480   48.9540 C   0  0  0  0  0  3  0  0  0  0  0  0
   38.0370   31.9660   47.7610 C   0  0  0  0  0  3  0  0  0  0  0  0
   36.9560   31.1200   47.7510 C   0  0  0  0  0  3  0  0  0  0  0  0
   36.5170   30.4320   48.8250 C   0  0  0  0  0  0  0  0  0  0  0  0
  1 22  1  0  0  0  0
  1  5  1  0  0  0  0
  2  3  2  0  0  0  0
  2  1  1  0  0  0  0
  3  4  1  0  0  0  0
  4  5  2  0  0  0  0
  4  6  1  0  0  0  0
  6 16  1  0  0  0  0
  7  6  1  0  0  0  0
  7  8  2  0  0  0  0
  8  9  1  0  0  0  0
  9 10  1  0  0  0  0
 10 11  2  0  0  0  0
 10 12  1  0  0  0  0
 12 17  1  0  0  0  0
 13 12  1  0  0  0  0
 13 14  1  0  0  0  0
 14 18  1  0  0  0  0
 14 19  1  0  0  0  0
 15 13  2  0  0  0  0
 16  9  2  0  0  0  0
 16 15  1  0  0  0  0
 20 25  1  0  0  0  0
 21 20  2  0  0  0  0
 21 22  1  0  0  0  0
 22 23  2  0  0  0  0
 23 24  1  0  0  0  0
 24 26  1  0  0  0  0
 25 24  2  0  0  0  0
 26 35  2  0  0  0  0
 26 27  1  0  0  0  0
 27 28  2  0  0  0  0
 28 29  1  0  0  0  0
 30 31  1  0  0  0  0
 30 29  2  0  0  0  0
 32 31  2  0  0  0  0
 33 32  1  0  0  0  0
 34 33  2  0  0  0  0
 34 35  1  0  0  0  0
 35 30  1  0  0  0  0
M  END
>  <minimizedAffinity>
-9.85311985

$$$$

 OpenBabel03272514303D

 35 40  0  0  0  0  0  0  0  0999 V2000
   32.4880   27.8200   46.8760 N   0  0  0  0  0  0  0  0  0  0  0  0
   32.6250   26.6080   47.4620 C   0  0  0  0  0  3  0  0  0  0  0  0
   31.4460   26.1990   47.9260 N   0  0  0  0  0  0  0  0  0  0  0  0
   30.5480   27.1440   47.6420 C   0  0  0  0  0  0  0  0  0  0  0  0
   31.2090   28.1250   47.0000 N   0  0  0  0  0  0  0  0  0  0  0  0
   29.1490   27.3010   47.8660 N   0  0  0  0  0  0  0  0  0  0  0  0
   28.3060   26.4250   47.2770 C   0  0  0  0  0  3  0  0  0  0  0  0
   27.0300   26.7550   47.6210 N   0  0  0  0  0  0  0  0  0  0  0  0
   27.0510   27.8180   48.4140 C   0  0  0  0  0  0  0  0  0  0  0  0
   26.1400   28.6220   49.0870 C   0  0  0  0  0  0  0  0  0  0  0  0
   24.9200   28.3430   48.9710 O   0  0  0  0  0  0  0  0  0  0  0  0
   26.6050   29.6520   49.8210 N   0  0  0  0  0  0  0  0  0  0  0  0
   27.9090   29.9590   49.9510 C   0  0  0  0  0  0  0  0  0  0  0  0
   28.1670   31.0900   50.7760 N   0  0  0  0  0  0  0  0  0  0  0  0
   28.8350   29.1910   49.3060 N   0  0  0  0  0  0  0  0  0  0  0  0
   28.3800   28.1550   48.5650 C   0  0  0  0  0  0  0  0  0  0  0  0
   25.9190   30.2420   50.3130 H   0  0  0  0  0  0  0  0  0  0  0  0
   29.1350   31.4020   50.9350 H   0  0  0  0  0  0  0  0  0  0  0  0
   27.3840   31.5970   51.2140 H   0  0  0  0  0  0  0  0  0  0  0  0
   34.7210   29.4760   44.4920 C   0  0  0  0  0  3  0  0  0  0  0  0
   33.6340   28.7170   44.9140 C   0  0  0  0  0  3  0  0  0  0  0  0
   33.5370   28.5640   46.2710 C   0  0  0  0  0  0  0  0  0  0  0  0
   34.4540   29.1290   47.0540 N   0  0  0  0  0  0  0  0  0  0  0  0
   35.4850   29.8460   46.6810 C   0  0  0  0  0  0  0  0  0  0  0  0
   35.5760   29.9910   45.3770 N   0  0  0  0  0  0  0  0  0  0  0  0
   36.5480   30.5120   47.4110 C   0  0  0  0  0  0  0  0  0  0  0  0
   37.4240   31.3940   46.7850 C   0  0  0  0  0  3  0  0  0  0  0  0
   38.4450   32.0480   47.4340 C   0  0  0  0  0  3  0  0  0  0  0  0
   38.6380   31.8420   48.7770 C   0  0  0  0  0  3  0  0  0  0  0  0
   37.8110   30.9880   49.4410 C   0  0  0  0  0  0  0  0  0  0  0  0
   38.0170   30.7900   50.7880 C   0  0  0  0  0  3  0  0  0  0  0  0
   37.2380   29.9580   51.5250 C   0  0  0  0  0  3  0  0  0  0  0  0
   36.2010   29.2960   50.8490 C   0  0  0  0  0  3  0  0  0  0  0  0
   36.0270   29.5190   49.5050 C   0  0  0  0  0  3  0  0  0  0  0  0
   36.7940   30.3450   48.7650 C   0  0  0  0  0  0  0  0  0  0  0  0
  1  5  1  0  0  0  0
  1  2  1  0  0  0  0
  2  3  2  0  0  0  0
  4  6  1  0  0  0  0
  4  3  1  0  0  0  0
  5  4  2  0  0  0  0
  6 16  1  0  0  0  0
  7  8  2  0  0  0  0
  7  6  1  0  0  0  0
  8  9  1  0  0  0  0
  9 16  2  0  0  0  0
  9 10  1  0  0  0  0
 10 12  1  0  0  0  0
 11 10  2  0  0  0  0
 12 13  1  0  0  0  0
 12 17  1  0  0  0  0
 13 14  1  0  0  0  0
 14 18  1  0  0  0  0
 14 19  1  0  0  0  0
 15 13  2  0  0  0  0
 16 15  1  0  0  0  0
 20 21  2  0  0  0  0
 20 25  1  0  0  0  0
 21 22  1  0  0  0  0
 22  1  1  0  0  0  0
 22 23  2  0  0  0  0
 24 23  1  0  0  0  0
 24 26  1  0  0  0  0
 25 24  2  0  0  0  0
 26 35  1  0  0  0  0
 27 26  2  0  0  0  0
 27 28  1  0  0  0  0
 28 29  2  0  0  0  0
 29 30  1  0  0  0  0
 30 31  1  0  0  0  0
 31 32  2  0  0  0  0
 33 32  1  0  0  0  0
 34 33  2  0  0  0  0
 35 30  2  0  0  0  0
 35 34  1  0  0  0  0
M  END
>  <minimizedAffinity>
-9.17110157

$$$$

 OpenBabel03272514303D

 35 40  0  0  0  0  0  0  0  0999 V2000
   31.2890   29.7110   45.2830 N   0  0  0  0  0  0  0  0  0  0  0  0
   30.6380   29.6770   44.0970 C   0  0  0  0  0  3  0  0  0  0  0  0
   29.3290   29.8000   44.3020 N   0  0  0  0  0  0  0  0  0  0  0  0
   29.1310   29.9140   45.6160 C   0  0  0  0  0  0  0  0  0  0  0  0
   30.3460   29.8560   46.1950 N   0  0  0  0  0  0  0  0  0  0  0  0
   27.9870   30.0720   46.4510 N   0  0  0  0  0  0  0  0  0  0  0  0
   27.2490   31.1950   46.3170 C   0  0  0  0  0  3  0  0  0  0  0  0
   26.2140   31.1410   47.2010 N   0  0  0  0  0  0  0  0  0  0  0  0
   26.2840   30.0080   47.8880 C   0  0  0  0  0  0  0  0  0  0  0  0
   25.5730   29.3640   48.8920 C   0  0  0  0  0  0  0  0  0  0  0  0
   24.5540   29.9440   49.3470 O   0  0  0  0  0  0  0  0  0  0  0  0
   26.0070   28.1650   49.3260 N   0  0  0  0  0  0  0  0  0  0  0  0
   27.0960   27.5380   48.8440 C   0  0  0  0  0  0  0  0  0  0  0  0
   27.3650   26.2780   49.4530 N   0  0  0  0  0  0  0  0  0  0  0  0
   27.8210   28.1370   47.8560 N   0  0  0  0  0  0  0  0  0  0  0  0
   27.3950   29.3420   47.4130 C   0  0  0  0  0  0  0  0  0  0  0  0
   25.4720   27.6990   50.0720 H   0  0  0  0  0  0  0  0  0  0  0  0
   28.1780   25.7230   49.1510 H   0  0  0  0  0  0  0  0  0  0  0  0
   26.7460   25.9220   50.1950 H   0  0  0  0  0  0  0  0  0  0  0  0
   34.8930   29.3590   44.7360 C   0  0  0  0  0  3  0  0  0  0  0  0
   33.5480   29.4430   44.3920 C   0  0  0  0  0  3  0  0  0  0  0  0
   32.6960   29.6060   45.4510 C   0  0  0  0  0  0  0  0  0  0  0  0
   33.2000   29.6700   46.6830 N   0  0  0  0  0  0  0  0  0  0  0  0
   34.4610   29.5940   47.0320 C   0  0  0  0  0  0  0  0  0  0  0  0
   35.2750   29.4360   46.0120 N   0  0  0  0  0  0  0  0  0  0  0  0
   35.1420   29.6460   48.3120 C   0  0  0  0  0  0  0  0  0  0  0  0
   34.6740   28.9430   49.4190 C   0  0  0  0  0  3  0  0  0  0  0  0
   35.2840   28.9610   50.6510 C   0  0  0  0  0  3  0  0  0  0  0  0
   36.4240   29.7040   50.8330 C   0  0  0  0  0  3  0  0  0  0  0  0
   36.9270   30.4120   49.7840 C   0  0  0  0  0  0  0  0  0  0  0  0
   38.0710   31.1530   49.9820 C   0  0  0  0  0  3  0  0  0  0  0  0
   38.6380   31.8860   48.9900 C   0  0  0  0  0  3  0  0  0  0  0  0
   38.0030   31.8600   47.7380 C   0  0  0  0  0  3  0  0  0  0  0  0
   36.8650   31.1080   47.5800 C   0  0  0  0  0  3  0  0  0  0  0  0
   36.2940   30.3760   48.5580 C   0  0  0  0  0  0  0  0  0  0  0  0
  1 22  1  0  0  0  0
  1  5  1  0  0  0  0
  2  3  2  0  0  0  0
  2  1  1  0  0  0  0
  3  4  1  0  0  0  0
  4  5  2  0  0  0  0
  4  6  1  0  0  0  0
  6 16  1  0  0  0  0
  7  6  1  0  0  0  0
  7  8  2  0  0  0  0
  8  9  1  0  0  0  0
  9 10  1  0  0  0  0
 10 12  1  0  0  0  0
 10 11  2  0  0  0  0
 12 17  1  0  0  0  0
 13 12  1  0  0  0  0
 13 14  1  0  0  0  0
 14 19  1  0  0  0  0
 15 13  2  0  0  0  0
 16 15  1  0  0  0  0
 16  9  2  0  0  0  0
 18 14  1  0  0  0  0
 20 25  1  0  0  0  0
 21 20  2  0  0  0  0
 21 22  1  0  0  0  0
 22 23  2  0  0  0  0
 23 24  1  0  0  0  0
 24 26  1  0  0  0  0
 25 24  2  0  0  0  0
 26 35  2  0  0  0  0
 26 27  1  0  0  0  0
 27 28  2  0  0  0  0
 28 29  1  0  0  0  0
 30 31  1  0  0  0  0
 30 29  2  0  0  0  0
 32 31  2  0  0  0  0
 33 32  1  0  0  0  0
 34 33  2  0  0  0  0
 34 35  1  0  0  0  0
 35 30  1  0  0  0  0
M  END
>  <minimizedAffinity>
-9.02718544

$$$$

 OpenBabel03272514303D

 35 40  0  0  0  0  0  0  0  0999 V2000
   33.2240   28.4540   47.7710 N   0  0  0  0  0  0  0  0  0  0  0  0
   33.8590   27.4710   48.4510 C   0  0  0  0  0  3  0  0  0  0  0  0
   34.9930   27.9420   48.9650 N   0  0  0  0  0  0  0  0  0  0  0  0
   35.0930   29.2270   48.6200 C   0  0  0  0  0  0  0  0  0  0  0  0
   33.9990   29.5160   47.8890 N   0  0  0  0  0  0  0  0  0  0  0  0
   36.0470   30.2590   48.8530 N   0  0  0  0  0  0  0  0  0  0  0  0
   36.2530   30.6610   50.1260 C   0  0  0  0  0  3  0  0  0  0  0  0
   37.1950   31.6460   50.1210 N   0  0  0  0  0  0  0  0  0  0  0  0
   37.5870   31.8710   48.8750 C   0  0  0  0  0  0  0  0  0  0  0  0
   38.4770   32.7010   48.2060 C   0  0  0  0  0  0  0  0  0  0  0  0
   39.1510   33.5080   48.8960 O   0  0  0  0  0  0  0  0  0  0  0  0
   38.5720   32.6040   46.8660 N   0  0  0  0  0  0  0  0  0  0  0  0
   37.8540   31.7440   46.1190 C   0  0  0  0  0  0  0  0  0  0  0  0
   38.1200   31.8170   44.7220 N   0  0  0  0  0  0  0  0  0  0  0  0
   36.9690   30.9100   46.7390 N   0  0  0  0  0  0  0  0  0  0  0  0
   36.8660   31.0000   48.0850 C   0  0  0  0  0  0  0  0  0  0  0  0
   39.2340   33.2260   46.3820 H   0  0  0  0  0  0  0  0  0  0  0  0
   37.6190   31.1970   44.0690 H   0  0  0  0  0  0  0  0  0  0  0  0
   38.8130   32.4890   44.3640 H   0  0  0  0  0  0  0  0  0  0  0  0
   30.6230   27.9360   45.2460 C   0  0  0  0  0  3  0  0  0  0  0  0
   31.9150   28.0400   45.7510 C   0  0  0  0  0  3  0  0  0  0  0  0
   31.9850   28.3140   47.0900 C   0  0  0  0  0  0  0  0  0  0  0  0
   30.8560   28.4560   47.7820 N   0  0  0  0  0  0  0  0  0  0  0  0
   29.6290   28.3620   47.3300 C   0  0  0  0  0  0  0  0  0  0  0  0
   29.5660   28.1000   46.0430 N   0  0  0  0  0  0  0  0  0  0  0  0
   28.3270   28.4910   47.9570 C   0  0  0  0  0  0  0  0  0  0  0  0
   27.2570   29.0960   47.3040 C   0  0  0  0  0  3  0  0  0  0  0  0
   26.0060   29.2410   47.8570 C   0  0  0  0  0  3  0  0  0  0  0  0
   25.7650   28.7710   49.1240 C   0  0  0  0  0  3  0  0  0  0  0  0
   26.7760   28.1700   49.8100 C   0  0  0  0  0  0  0  0  0  0  0  0
   26.5190   27.7040   51.0800 C   0  0  0  0  0  3  0  0  0  0  0  0
   27.4700   27.0920   51.8320 C   0  0  0  0  0  3  0  0  0  0  0  0
   28.7420   26.9520   51.2550 C   0  0  0  0  0  3  0  0  0  0  0  0
   28.9590   27.4290   49.9860 C   0  0  0  0  0  3  0  0  0  0  0  0
   28.0220   28.0380   49.2310 C   0  0  0  0  0  0  0  0  0  0  0  0
  1  5  1  0  0  0  0
  1  2  1  0  0  0  0
  2  3  2  0  0  0  0
  4  6  1  0  0  0  0
  4  3  1  0  0  0  0
  5  4  2  0  0  0  0
  6  7  1  0  0  0  0
  8  7  2  0  0  0  0
  9  8  1  0  0  0  0
 10  9  1  0  0  0  0
 10 11  2  0  0  0  0
 12 10  1  0  0  0  0
 13 15  2  0  0  0  0
 13 12  1  0  0  0  0
 14 13  1  0  0  0  0
 15 16  1  0  0  0  0
 16  6  1  0  0  0  0
 16  9  2  0  0  0  0
 17 12  1  0  0  0  0
 18 14  1  0  0  0  0
 19 14  1  0  0  0  0
 20 21  2  0  0  0  0
 20 25  1  0  0  0  0
 21 22  1  0  0  0  0
 22  1  1  0  0  0  0
 22 23  2  0  0  0  0
 24 23  1  0  0  0  0
 24 26  1  0  0  0  0
 25 24  2  0  0  0  0
 26 35  1  0  0  0  0
 27 28  1  0  0  0  0
 27 26  2  0  0  0  0
 28 29  2  0  0  0  0
 29 30  1  0  0  0  0
 30 31  1  0  0  0  0
 31 32  2  0  0  0  0
 33 32  1  0  0  0  0
 34 33  2  0  0  0  0
 35 30  2  0  0  0  0
 35 34  1  0  0  0  0
M  END
>  <minimizedAffinity>
-8.98210335

$$$$

 OpenBabel03272514303D

 35 40  0  0  0  0  0  0  0  0999 V2000
   30.1790   28.3520   45.9510 N   0  0  0  0  0  0  0  0  0  0  0  0
   29.4700   27.6130   45.0670 C   0  0  0  0  0  3  0  0  0  0  0  0
   28.4350   28.3210   44.6200 N   0  0  0  0  0  0  0  0  0  0  0  0
   28.4720   29.5150   45.2140 C   0  0  0  0  0  0  0  0  0  0  0  0
   29.5480   29.5100   46.0230 N   0  0  0  0  0  0  0  0  0  0  0  0
   27.6670   30.6900   45.1600 N   0  0  0  0  0  0  0  0  0  0  0  0
   27.5880   31.3560   43.9880 C   0  0  0  0  0  3  0  0  0  0  0  0
   26.7750   32.4370   44.1590 N   0  0  0  0  0  0  0  0  0  0  0  0
   26.3410   32.4640   45.4120 C   0  0  0  0  0  0  0  0  0  0  0  0
   25.5210   33.2580   46.2040 C   0  0  0  0  0  0  0  0  0  0  0  0
   24.9930   34.2650   45.6680 O   0  0  0  0  0  0  0  0  0  0  0  0
   25.3360   32.9140   47.4930 N   0  0  0  0  0  0  0  0  0  0  0  0
   25.8970   31.8380   48.0750 C   0  0  0  0  0  0  0  0  0  0  0  0
   25.5600   31.6710   49.4490 N   0  0  0  0  0  0  0  0  0  0  0  0
   26.7080   31.0320   47.3300 N   0  0  0  0  0  0  0  0  0  0  0  0
   26.9020   31.3680   46.0340 C   0  0  0  0  0  0  0  0  0  0  0  0
   24.7280   33.5120   48.0700 H   0  0  0  0  0  0  0  0  0  0  0  0
   25.9420   30.8750   49.9800 H   0  0  0  0  0  0  0  0  0  0  0  0
   24.9350   32.3460   49.9110 H   0  0  0  0  0  0  0  0  0  0  0  0
   32.6510   26.4310   47.8500 C   0  0  0  0  0  3  0  0  0  0  0  0
   31.4340   26.6920   47.2300 C   0  0  0  0  0  3  0  0  0  0  0  0
   31.3490   27.9200   46.6320 C   0  0  0  0  0  0  0  0  0  0  0  0
   32.3960   28.7410   46.6870 N   0  0  0  0  0  0  0  0  0  0  0  0
   33.5520   28.5180   47.2640 C   0  0  0  0  0  0  0  0  0  0  0  0
   33.6290   27.3380   47.8380 N   0  0  0  0  0  0  0  0  0  0  0  0
   34.7620   29.3080   47.4010 C   0  0  0  0  0  0  0  0  0  0  0  0
   35.3790   29.8980   46.3030 C   0  0  0  0  0  3  0  0  0  0  0  0
   36.5250   30.6540   46.3830 C   0  0  0  0  0  3  0  0  0  0  0  0
   37.1200   30.8580   47.6020 C   0  0  0  0  0  3  0  0  0  0  0  0
   36.5600   30.3030   48.7130 C   0  0  0  0  0  0  0  0  0  0  0  0
   37.1680   30.5160   49.9300 C   0  0  0  0  0  3  0  0  0  0  0  0
   36.6750   30.0000   51.0850 C   0  0  0  0  0  3  0  0  0  0  0  0
   35.5050   29.2290   50.9880 C   0  0  0  0  0  3  0  0  0  0  0  0
   34.9280   29.0400   49.7570 C   0  0  0  0  0  3  0  0  0  0  0  0
   35.4090   29.5490   48.6030 C   0  0  0  0  0  0  0  0  0  0  0  0
  1  5  1  0  0  0  0
  1 22  1  0  0  0  0
  2  1  1  0  0  0  0
  3  2  2  0  0  0  0
  3  4  1  0  0  0  0
  4  5  2  0  0  0  0
  6  4  1  0  0  0  0
  6 16  1  0  0  0  0
  7  8  2  0  0  0  0
  7  6  1  0  0  0  0
  8  9  1  0  0  0  0
  9 16  2  0  0  0  0
  9 10  1  0  0  0  0
 10 12  1  0  0  0  0
 11 10  2  0  0  0  0
 12 17  1  0  0  0  0
 12 13  1  0  0  0  0
 13 14  1  0  0  0  0
 14 19  1  0  0  0  0
 14 18  1  0  0  0  0
 15 13  2  0  0  0  0
 16 15  1  0  0  0  0
 21 20  2  0  0  0  0
 22 23  2  0  0  0  0
 22 21  1  0  0  0  0
 23 24  1  0  0  0  0
 24 26  1  0  0  0  0
 24 25  2  0  0  0  0
 25 20  1  0  0  0  0
 26 35  1  0  0  0  0
 27 28  1  0  0  0  0
 27 26  2  0  0  0  0
 28 29  2  0  0  0  0
 29 30  1  0  0  0  0
 30 31  1  0  0  0  0
 31 32  2  0  0  0  0
 33 32  1  0  0  0  0
 34 33  2  0  0  0  0
 35 30  2  0  0  0  0
 35 34  1  0  0  0  0
M  END
>  <minimizedAffinity>
-8.62239838

$$$$

 OpenBabel03272514303D

 35 40  0  0  0  0  0  0  0  0999 V2000
   32.7250   29.3480   44.7300 N   0  0  0  0  0  0  0  0  0  0  0  0
   32.1270   28.5670   43.8000 C   0  0  0  0  0  3  0  0  0  0  0  0
   30.8230   28.4880   44.0540 N   0  0  0  0  0  0  0  0  0  0  0  0
   30.5760   29.2150   45.1450 C   0  0  0  0  0  0  0  0  0  0  0  0
   31.7550   29.7300   45.5400 N   0  0  0  0  0  0  0  0  0  0  0  0
   29.4100   29.5240   45.9050 N   0  0  0  0  0  0  0  0  0  0  0  0
   28.4240   30.2250   45.3040 C   0  0  0  0  0  3  0  0  0  0  0  0
   27.4150   30.4080   46.2010 N   0  0  0  0  0  0  0  0  0  0  0  0
   27.7440   29.8380   47.3520 C   0  0  0  0  0  0  0  0  0  0  0  0
   27.1900   29.6640   48.6140 C   0  0  0  0  0  0  0  0  0  0  0  0
   26.0510   30.1550   48.8220 O   0  0  0  0  0  0  0  0  0  0  0  0
   27.8930   28.9870   49.5420 N   0  0  0  0  0  0  0  0  0  0  0  0
   29.1120   28.4580   49.3280 C   0  0  0  0  0  0  0  0  0  0  0  0
   29.6660   27.7850   50.4550 N   0  0  0  0  0  0  0  0  0  0  0  0
   29.6900   28.6060   48.1010 N   0  0  0  0  0  0  0  0  0  0  0  0
   28.9930   29.2850   47.1610 C   0  0  0  0  0  0  0  0  0  0  0  0
   27.4720   28.8670   50.4740 H   0  0  0  0  0  0  0  0  0  0  0  0
   30.5960   27.3470   50.3880 H   0  0  0  0  0  0  0  0  0  0  0  0
   29.1360   27.7360   51.3370 H   0  0  0  0  0  0  0  0  0  0  0  0
   36.2310   29.9750   43.8790 C   0  0  0  0  0  3  0  0  0  0  0  0
   34.8980   29.6500   43.6550 C   0  0  0  0  0  3  0  0  0  0  0  0
   34.1110   29.6560   44.7760 C   0  0  0  0  0  0  0  0  0  0  0  0
   34.6600   29.9600   45.9500 N   0  0  0  0  0  0  0  0  0  0  0  0
   35.9120   30.2690   46.1870 C   0  0  0  0  0  0  0  0  0  0  0  0
   36.6640   30.2620   45.1090 N   0  0  0  0  0  0  0  0  0  0  0  0
   36.6380   30.6160   47.3950 C   0  0  0  0  0  0  0  0  0  0  0  0
   37.7420   31.4620   47.3670 C   0  0  0  0  0  3  0  0  0  0  0  0
   38.4610   31.8200   48.4830 C   0  0  0  0  0  3  0  0  0  0  0  0
   38.0930   31.3320   49.7130 C   0  0  0  0  0  3  0  0  0  0  0  0
   37.0200   30.4980   49.8000 C   0  0  0  0  0  0  0  0  0  0  0  0
   36.6630   30.0170   51.0390 C   0  0  0  0  0  3  0  0  0  0  0  0
   35.6060   29.1820   51.2140 C   0  0  0  0  0  3  0  0  0  0  0  0
   34.8830   28.8250   50.0650 C   0  0  0  0  0  3  0  0  0  0  0  0
   35.2690   29.3260   48.8470 C   0  0  0  0  0  3  0  0  0  0  0  0
   36.3160   30.1560   48.6620 C   0  0  0  0  0  0  0  0  0  0  0  0
  1 22  1  0  0  0  0
  1  5  1  0  0  0  0
  2  3  2  0  0  0  0
  2  1  1  0  0  0  0
  3  4  1  0  0  0  0
  4  5  2  0  0  0  0
  4  6  1  0  0  0  0
  6 16  1  0  0  0  0
  7  6  1  0  0  0  0
  7  8  2  0  0  0  0
  8  9  1  0  0  0  0
  9 10  1  0  0  0  0
 10 11  2  0  0  0  0
 10 12  1  0  0  0  0
 12 17  1  0  0  0  0
 13 12  1  0  0  0  0
 13 14  1  0  0  0  0
 14 19  1  0  0  0  0
 15 13  2  0  0  0  0
 16  9  2  0  0  0  0
 16 15  1  0  0  0  0
 18 14  1  0  0  0  0
 20 25  1  0  0  0  0
 21 20  2  0  0  0  0
 21 22  1  0  0  0  0
 22 23  2  0  0  0  0
 23 24  1  0  0  0  0
 24 26  1  0  0  0  0
 25 24  2  0  0  0  0
 26 35  1  0  0  0  0
 27 26  2  0  0  0  0
 27 28  1  0  0  0  0
 28 29  2  0  0  0  0
 29 30  1  0  0  0  0
 30 31  1  0  0  0  0
 31 32  2  0  0  0  0
 33 32  1  0  0  0  0
 34 33  2  0  0  0  0
 35 34  1  0  0  0  0
 35 30  2  0  0  0  0
M  END
>  <minimizedAffinity>
-8.57936287

$$$$

 OpenBabel03272514303D

 35 40  0  0  0  0  0  0  0  0999 V2000
   33.9460   29.5500   44.2930 N   0  0  0  0  0  0  0  0  0  0  0  0
   33.4470   28.9310   43.1980 C   0  0  0  0  0  3  0  0  0  0  0  0
   32.1230   28.8360   43.3020 N   0  0  0  0  0  0  0  0  0  0  0  0
   31.7650   29.3930   44.4600 C   0  0  0  0  0  0  0  0  0  0  0  0
   32.8970   29.8220   45.0480 N   0  0  0  0  0  0  0  0  0  0  0  0
   30.5270   29.6030   45.1340 N   0  0  0  0  0  0  0  0  0  0  0  0
   29.6100   30.4040   44.5490 C   0  0  0  0  0  3  0  0  0  0  0  0
   28.5130   30.4660   45.3560 N   0  0  0  0  0  0  0  0  0  0  0  0
   28.7190   29.7210   46.4330 C   0  0  0  0  0  0  0  0  0  0  0  0
   28.0370   29.3660   47.5900 C   0  0  0  0  0  0  0  0  0  0  0  0
   26.8830   29.8400   47.7520 O   0  0  0  0  0  0  0  0  0  0  0  0
   28.6380   28.5440   48.4710 N   0  0  0  0  0  0  0  0  0  0  0  0
   29.8720   28.0330   48.3040 C   0  0  0  0  0  0  0  0  0  0  0  0
   30.3050   27.1860   49.3660 N   0  0  0  0  0  0  0  0  0  0  0  0
   30.5750   28.3560   47.1800 N   0  0  0  0  0  0  0  0  0  0  0  0
   29.9810   29.1820   46.2890 C   0  0  0  0  0  0  0  0  0  0  0  0
   28.1220   28.2910   49.3250 H   0  0  0  0  0  0  0  0  0  0  0  0
   31.2360   26.7480   49.3280 H   0  0  0  0  0  0  0  0  0  0  0  0
   29.6860   27.0130   50.1700 H   0  0  0  0  0  0  0  0  0  0  0  0
   37.5740   29.9260   43.9730 C   0  0  0  0  0  3  0  0  0  0  0  0
   36.2810   29.6040   43.5770 C   0  0  0  0  0  3  0  0  0  0  0  0
   35.3200   29.8240   44.5280 C   0  0  0  0  0  0  0  0  0  0  0  0
   35.6820   30.3090   45.7130 N   0  0  0  0  0  0  0  0  0  0  0  0
   36.8920   30.6210   46.1100 C   0  0  0  0  0  0  0  0  0  0  0  0
   37.8120   30.4080   45.1950 N   0  0  0  0  0  0  0  0  0  0  0  0
   37.4250   31.1500   47.3520 C   0  0  0  0  0  0  0  0  0  0  0  0
   38.2710   32.2550   47.3730 C   0  0  0  0  0  3  0  0  0  0  0  0
   38.8000   32.7920   48.5220 C   0  0  0  0  0  3  0  0  0  0  0  0
   38.4950   32.2300   49.7370 C   0  0  0  0  0  3  0  0  0  0  0  0
   37.6710   31.1460   49.7770 C   0  0  0  0  0  0  0  0  0  0  0  0
   37.3740   30.5930   51.0020 C   0  0  0  0  0  3  0  0  0  0  0  0
   36.5620   29.5130   51.1310 C   0  0  0  0  0  3  0  0  0  0  0  0
   36.0300   28.9750   49.9480 C   0  0  0  0  0  3  0  0  0  0  0  0
   36.3490   29.5540   48.7460 C   0  0  0  0  0  3  0  0  0  0  0  0
   37.1550   30.6280   48.6070 C   0  0  0  0  0  0  0  0  0  0  0  0
  1 22  1  0  0  0  0
  1  5  1  0  0  0  0
  2  3  2  0  0  0  0
  2  1  1  0  0  0  0
  3  4  1  0  0  0  0
  4  5  2  0  0  0  0
  4  6  1  0  0  0  0
  6 16  1  0  0  0  0
  7  6  1  0  0  0  0
  7  8  2  0  0  0  0
  8  9  1  0  0  0  0
  9 10  1  0  0  0  0
 10 11  2  0  0  0  0
 10 12  1  0  0  0  0
 12 17  1  0  0  0  0
 13 12  1  0  0  0  0
 13 14  1  0  0  0  0
 14 19  1  0  0  0  0
 15 13  2  0  0  0  0
 16  9  2  0  0  0  0
 16 15  1  0  0  0  0
 18 14  1  0  0  0  0
 20 25  1  0  0  0  0
 21 20  2  0  0  0  0
 21 22  1  0  0  0  0
 22 23  2  0  0  0  0
 23 24  1  0  0  0  0
 24 26  1  0  0  0  0
 25 24  2  0  0  0  0
 26 27  2  0  0  0  0
 26 35  1  0  0  0  0
 27 28  1  0  0  0  0
 28 29  2  0  0  0  0
 29 30  1  0  0  0  0
 30 31  1  0  0  0  0
 31 32  2  0  0  0  0
 33 32  1  0  0  0  0
 34 33  2  0  0  0  0
 35 34  1  0  0  0  0
 35 30  2  0  0  0  0
M  END
>  <minimizedAffinity>
-8.40716743

$$$$

 OpenBabel03272514303D

 35 40  0  0  0  0  0  0  0  0999 V2000
   30.8840   28.2320   46.2740 N   0  0  0  0  0  0  0  0  0  0  0  0
   30.4200   27.9660   45.0310 C   0  0  0  0  0  3  0  0  0  0  0  0
   29.2900   28.6380   44.8220 N   0  0  0  0  0  0  0  0  0  0  0  0
   29.0230   29.3370   45.9260 C   0  0  0  0  0  0  0  0  0  0  0  0
   30.0120   29.0720   46.8000 N   0  0  0  0  0  0  0  0  0  0  0  0
   27.9860   30.2310   46.3230 N   0  0  0  0  0  0  0  0  0  0  0  0
   27.8480   31.3900   45.6440 C   0  0  0  0  0  3  0  0  0  0  0  0
   26.8080   32.0860   46.1840 N   0  0  0  0  0  0  0  0  0  0  0  0
   26.2890   31.3910   47.1860 C   0  0  0  0  0  0  0  0  0  0  0  0
   25.2600   31.5220   48.1100 C   0  0  0  0  0  0  0  0  0  0  0  0
   24.5650   32.5680   48.0620 O   0  0  0  0  0  0  0  0  0  0  0  0
   25.0620   30.5330   49.0030 N   0  0  0  0  0  0  0  0  0  0  0  0
   25.8010   29.4090   49.0610 C   0  0  0  0  0  0  0  0  0  0  0  0
   25.4100   28.5020   50.0870 N   0  0  0  0  0  0  0  0  0  0  0  0
   26.8210   29.2430   48.1700 N   0  0  0  0  0  0  0  0  0  0  0  0
   27.0300   30.2300   47.2690 C   0  0  0  0  0  0  0  0  0  0  0  0
   24.2970   30.6430   49.6830 H   0  0  0  0  0  0  0  0  0  0  0  0
   25.9170   27.6140   50.2100 H   0  0  0  0  0  0  0  0  0  0  0  0
   24.6200   28.7340   50.7060 H   0  0  0  0  0  0  0  0  0  0  0  0
   33.6120   26.0140   47.3010 C   0  0  0  0  0  3  0  0  0  0  0  0
   32.4230   26.3780   46.6770 C   0  0  0  0  0  3  0  0  0  0  0  0
   32.0680   27.6890   46.8430 C   0  0  0  0  0  0  0  0  0  0  0  0
   32.8570   28.4870   47.5600 N   0  0  0  0  0  0  0  0  0  0  0  0
   33.9800   28.1700   48.1570 C   0  0  0  0  0  0  0  0  0  0  0  0
   34.3170   26.9090   47.9960 N   0  0  0  0  0  0  0  0  0  0  0  0
   34.9270   28.9220   48.9580 C   0  0  0  0  0  0  0  0  0  0  0  0
   34.9420   28.8340   50.3470 C   0  0  0  0  0  3  0  0  0  0  0  0
   35.8180   29.5270   51.1480 C   0  0  0  0  0  3  0  0  0  0  0  0
   36.7460   30.3620   50.5770 C   0  0  0  0  0  3  0  0  0  0  0  0
   36.7770   30.4870   49.2210 C   0  0  0  0  0  0  0  0  0  0  0  0
   37.7130   31.3280   48.6620 C   0  0  0  0  0  3  0  0  0  0  0  0
   37.8120   31.5100   47.3200 C   0  0  0  0  0  3  0  0  0  0  0  0
   36.9090   30.7980   46.5150 C   0  0  0  0  0  3  0  0  0  0  0  0
   35.9910   29.9680   47.1100 C   0  0  0  0  0  3  0  0  0  0  0  0
   35.8850   29.7800   48.4410 C   0  0  0  0  0  0  0  0  0  0  0  0
  1  5  1  0  0  0  0
  1 22  1  0  0  0  0
  2  1  1  0  0  0  0
  3  2  2  0  0  0  0
  3  4  1  0  0  0  0
  4  6  1  0  0  0  0
  4  5  2  0  0  0  0
  6 16  1  0  0  0  0
  7  8  2  0  0  0  0
  7  6  1  0  0  0  0
  8  9  1  0  0  0  0
  9 16  2  0  0  0  0
  9 10  1  0  0  0  0
 10 12  1  0  0  0  0
 11 10  2  0  0  0  0
 12 13  1  0  0  0  0
 12 17  1  0  0  0  0
 13 14  1  0  0  0  0
 14 18  1  0  0  0  0
 14 19  1  0  0  0  0
 15 13  2  0  0  0  0
 16 15  1  0  0  0  0
 20 25  1  0  0  0  0
 21 22  1  0  0  0  0
 21 20  2  0  0  0  0
 22 23  2  0  0  0  0
 23 24  1  0  0  0  0
 24 26  1  0  0  0  0
 25 24  2  0  0  0  0
 26 27  1  0  0  0  0
 27 28  2  0  0  0  0
 29 28  1  0  0  0  0
 30 29  2  0  0  0  0
 31 30  1  0  0  0  0
 32 31  2  0  0  0  0
 33 34  2  0  0  0  0
 33 32  1  0  0  0  0
 34 35  1  0  0  0  0
 35 26  2  0  0  0  0
 35 30  1  0  0  0  0
M  END
>  <minimizedAffinity>
-8.35366535

$$$$

 OpenBabel03272514303D

 35 40  0  0  0  0  0  0  0  0999 V2000
   30.9500   28.7290   45.9320 N   0  0  0  0  0  0  0  0  0  0  0  0
   30.4720   28.4160   44.7050 C   0  0  0  0  0  3  0  0  0  0  0  0
   29.3210   29.0510   44.4980 N   0  0  0  0  0  0  0  0  0  0  0  0
   29.0530   29.7730   45.5870 C   0  0  0  0  0  0  0  0  0  0  0  0
   30.0630   29.5590   46.4500 N   0  0  0  0  0  0  0  0  0  0  0  0
   27.9980   30.6480   45.9780 N   0  0  0  0  0  0  0  0  0  0  0  0
   27.8160   31.7840   45.2700 C   0  0  0  0  0  3  0  0  0  0  0  0
   26.7670   32.4660   45.8090 N   0  0  0  0  0  0  0  0  0  0  0  0
   26.2850   31.7840   46.8390 C   0  0  0  0  0  0  0  0  0  0  0  0
   25.2680   31.9120   47.7770 C   0  0  0  0  0  0  0  0  0  0  0  0
   24.5430   32.9380   47.7140 O   0  0  0  0  0  0  0  0  0  0  0  0
   25.1130   30.9430   48.7000 N   0  0  0  0  0  0  0  0  0  0  0  0
   25.8840   29.8430   48.7760 C   0  0  0  0  0  0  0  0  0  0  0  0
   25.5360   28.9540   49.8330 N   0  0  0  0  0  0  0  0  0  0  0  0
   26.8930   29.6800   47.8710 N   0  0  0  0  0  0  0  0  0  0  0  0
   27.0580   30.6470   46.9400 C   0  0  0  0  0  0  0  0  0  0  0  0
   24.3570   31.0510   49.3910 H   0  0  0  0  0  0  0  0  0  0  0  0
   26.0700   28.0840   49.9710 H   0  0  0  0  0  0  0  0  0  0  0  0
   24.7510   29.1810   50.4590 H   0  0  0  0  0  0  0  0  0  0  0  0
   33.5750   26.6030   47.3460 C   0  0  0  0  0  3  0  0  0  0  0  0
   32.3320   26.9140   46.8050 C   0  0  0  0  0  3  0  0  0  0  0  0
   32.1580   28.2350   46.4940 C   0  0  0  0  0  0  0  0  0  0  0  0
   33.1530   29.0910   46.7240 N   0  0  0  0  0  0  0  0  0  0  0  0
   34.3310   28.8230   47.2320 C   0  0  0  0  0  0  0  0  0  0  0  0
   34.4940   27.5520   47.5300 N   0  0  0  0  0  0  0  0  0  0  0  0
   35.4910   29.6400   47.5340 C   0  0  0  0  0  0  0  0  0  0  0  0
   36.1730   30.3390   46.5420 C   0  0  0  0  0  3  0  0  0  0  0  0
   37.2750   31.1250   46.7790 C   0  0  0  0  0  3  0  0  0  0  0  0
   37.7570   31.2500   48.0580 C   0  0  0  0  0  3  0  0  0  0  0  0
   37.1300   30.5890   49.0700 C   0  0  0  0  0  0  0  0  0  0  0  0
   37.6240   30.7240   50.3480 C   0  0  0  0  0  3  0  0  0  0  0  0
   37.0580   30.1000   51.4120 C   0  0  0  0  0  3  0  0  0  0  0  0
   35.9340   29.2990   51.1550 C   0  0  0  0  0  3  0  0  0  0  0  0
   35.4700   29.1900   49.8670 C   0  0  0  0  0  3  0  0  0  0  0  0
   36.0250   29.8060   48.8030 C   0  0  0  0  0  0  0  0  0  0  0  0
  1  5  1  0  0  0  0
  1 22  1  0  0  0  0
  2  1  1  0  0  0  0
  3  2  2  0  0  0  0
  3  4  1  0  0  0  0
  4  6  1  0  0  0  0
  4  5  2  0  0  0  0
  6 16  1  0  0  0  0
  7  8  2  0  0  0  0
  7  6  1  0  0  0  0
  8  9  1  0  0  0  0
  9 16  2  0  0  0  0
  9 10  1  0  0  0  0
 10 12  1  0  0  0  0
 11 10  2  0  0  0  0
 12 13  1  0  0  0  0
 12 17  1  0  0  0  0
 13 14  1  0  0  0  0
 14 18  1  0  0  0  0
 14 19  1  0  0  0  0
 15 13  2  0  0  0  0
 16 15  1  0  0  0  0
 20 25  1  0  0  0  0
 21 20  2  0  0  0  0
 22 23  2  0  0  0  0
 22 21  1  0  0  0  0
 23 24  1  0  0  0  0
 24 25  2  0  0  0  0
 24 26  1  0  0  0  0
 26 35  1  0  0  0  0
 27 28  1  0  0  0  0
 27 26  2  0  0  0  0
 28 29  2  0  0  0  0
 29 30  1  0  0  0  0
 30 31  1  0  0  0  0
 31 32  2  0  0  0  0
 33 32  1  0  0  0  0
 34 33  2  0  0  0  0
 35 30  2  0  0  0  0
 35 34  1  0  0  0  0
M  END
>  <minimizedAffinity>
-8.31161308

$$$$
