
 OpenBabel03272514333D

 35 40  0  0  0  0  0  0  0  0999 V2000
   30.2930   27.9420   48.9600 N   0  0  0  0  0  0  0  0  0  0  0  0
   29.7950   27.6460   50.1660 C   0  0  0  0  0  3  0  0  0  0  0  0
   28.5860   28.1460   50.3190 N   0  0  0  0  0  0  0  0  0  0  0  0
   28.2830   28.7850   49.1900 C   0  0  0  0  0  0  0  0  0  0  0  0
   29.3500   28.6430   48.3710 N   0  0  0  0  0  0  0  0  0  0  0  0
   27.1180   29.5390   48.7190 C   0  0  0  0  0  0  0  0  0  0  0  0
   25.7960   29.3630   48.7440 N   0  0  0  0  0  0  0  0  0  0  0  0
   25.1840   30.3520   48.1740 O   0  0  0  0  0  0  0  0  0  0  0  0
   26.1120   31.2140   47.7560 C   0  0  0  0  0  0  0  0  0  0  0  0
   27.3180   30.7180   48.0890 N   0  0  0  0  0  0  0  0  0  0  0  0
   25.7880   32.4280   47.0800 N   0  0  0  0  0  0  0  0  0  0  0  0
   25.3360   33.5660   47.6340 C   0  0  0  0  0  3  0  0  0  0  0  0
   25.0720   34.6590   46.8030 C   0  0  0  0  0  3  0  0  0  0  0  0
   25.2890   34.5260   45.4310 C   0  0  0  0  0  0  0  0  0  0  0  0
   25.0530   35.4980   44.7010 O   0  0  0  0  0  0  0  0  0  0  0  0
   25.7430   33.3730   44.9030 N   0  0  0  0  0  0  0  0  0  0  0  0
   25.9860   32.3380   45.7380 C   0  0  0  0  0  0  0  0  0  0  0  0
   26.4100   31.3030   45.1420 O   0  0  0  0  0  0  0  0  0  0  0  0
   25.9010   33.2830   43.8900 H   0  0  0  0  0  0  0  0  0  0  0  0
   33.1020   26.0820   47.4980 C   0  0  0  0  0  3  0  0  0  0  0  0
   31.8110   26.2900   47.9710 C   0  0  0  0  0  3  0  0  0  0  0  0
   31.5640   27.5720   48.4420 C   0  0  0  0  0  0  0  0  0  0  0  0
   32.5450   28.4610   48.4030 N   0  0  0  0  0  0  0  0  0  0  0  0
   33.7700   28.2760   47.9570 C   0  0  0  0  0  0  0  0  0  0  0  0
   33.9950   27.0730   47.5180 N   0  0  0  0  0  0  0  0  0  0  0  0
   34.9210   29.1570   47.8620 C   0  0  0  0  0  0  0  0  0  0  0  0
   35.3030   29.7170   46.6580 C   0  0  0  0  0  3  0  0  0  0  0  0
   36.3870   30.5590   46.5120 C   0  0  0  0  0  3  0  0  0  0  0  0
   37.1690   30.8910   47.6130 C   0  0  0  0  0  3  0  0  0  0  0  0
   36.8220   30.3600   48.8090 C   0  0  0  0  0  0  0  0  0  0  0  0
   37.5910   30.6810   49.9120 C   0  0  0  0  0  3  0  0  0  0  0  0
   37.3230   30.1950   51.1660 C   0  0  0  0  0  3  0  0  0  0  0  0
   36.2270   29.3470   51.2940 C   0  0  0  0  0  3  0  0  0  0  0  0
   35.4830   29.0470   50.1800 C   0  0  0  0  0  3  0  0  0  0  0  0
   35.7390   29.5240   48.9320 C   0  0  0  0  0  0  0  0  0  0  0  0
  1  2  1  0  0  0  0
  2  3  2  0  0  0  0
  4  3  1  0  0  0  0
  5  1  1  0  0  0  0
  5  4  2  0  0  0  0
  6  7  2  0  0  0  0
  6  4  1  0  0  0  0
  8  7  1  0  0  0  0
  9 10  2  0  0  0  0
  9  8  1  0  0  0  0
 10  6  1  0  0  0  0
 11 12  1  0  0  0  0
 11  9  1  0  0  0  0
 13 12  2  0  0  0  0
 14 13  1  0  0  0  0
 15 14  2  0  0  0  0
 16 14  1  0  0  0  0
 16 17  1  0  0  0  0
 17 11  1  0  0  0  0
 18 17  2  0  0  0  0
 19 16  1  0  0  0  0
 20 25  2  0  0  0  0
 20 21  1  0  0  0  0
 21 22  2  0  0  0  0
 22  1  1  0  0  0  0
 23 22  1  0  0  0  0
 24 23  2  0  0  0  0
 25 24  1  0  0  0  0
 26 24  1  0  0  0  0
 26 35  1  0  0  0  0
 27 26  2  0  0  0  0
 28 27  1  0  0  0  0
 28 29  2  0  0  0  0
 29 30  1  0  0  0  0
 30 35  2  0  0  0  0
 30 31  1  0  0  0  0
 31 32  2  0  0  0  0
 32 33  1  0  0  0  0
 34 33  2  0  0  0  0
 35 34  1  0  0  0  0
M  END
>  <minimizedAffinity>
-9.31363106

$$$$

 OpenBabel03272514333D

 35 40  0  0  0  0  0  0  0  0999 V2000
   33.6990   29.1490   44.6420 N   0  0  0  0  0  0  0  0  0  0  0  0
   32.9120   29.1530   43.5590 C   0  0  0  0  0  3  0  0  0  0  0  0
   31.7320   28.6340   43.8270 N   0  0  0  0  0  0  0  0  0  0  0  0
   31.7420   28.2820   45.1120 C   0  0  0  0  0  0  0  0  0  0  0  0
   32.9640   28.6110   45.5890 N   0  0  0  0  0  0  0  0  0  0  0  0
   30.7670   27.6660   46.0140 C   0  0  0  0  0  0  0  0  0  0  0  0
   30.5380   26.4340   46.4730 N   0  0  0  0  0  0  0  0  0  0  0  0
   29.5200   26.4160   47.2720 O   0  0  0  0  0  0  0  0  0  0  0  0
   29.0490   27.6620   47.3550 C   0  0  0  0  0  0  0  0  0  0  0  0
   29.8170   28.4470   46.5770 N   0  0  0  0  0  0  0  0  0  0  0  0
   27.9210   28.0080   48.1570 N   0  0  0  0  0  0  0  0  0  0  0  0
   27.8980   28.1740   49.4910 C   0  0  0  0  0  3  0  0  0  0  0  0
   26.6890   28.5160   50.1040 C   0  0  0  0  0  3  0  0  0  0  0  0
   25.5530   28.6710   49.3070 C   0  0  0  0  0  0  0  0  0  0  0  0
   24.4860   28.9740   49.8560 O   0  0  0  0  0  0  0  0  0  0  0  0
   25.6070   28.4980   47.9730 N   0  0  0  0  0  0  0  0  0  0  0  0
   26.7930   28.1670   47.4160 C   0  0  0  0  0  0  0  0  0  0  0  0
   26.7350   28.0290   46.1570 O   0  0  0  0  0  0  0  0  0  0  0  0
   24.7650   28.6150   47.3920 H   0  0  0  0  0  0  0  0  0  0  0  0
   37.1570   30.1230   43.8810 C   0  0  0  0  0  3  0  0  0  0  0  0
   35.8840   29.6250   43.6340 C   0  0  0  0  0  3  0  0  0  0  0  0
   35.0350   29.6270   44.7320 C   0  0  0  0  0  0  0  0  0  0  0  0
   35.4940   30.0900   45.8850 N   0  0  0  0  0  0  0  0  0  0  0  0
   36.6970   30.5640   46.1310 C   0  0  0  0  0  0  0  0  0  0  0  0
   37.4870   30.5580   45.0980 N   0  0  0  0  0  0  0  0  0  0  0  0
   37.3140   31.0930   47.3350 C   0  0  0  0  0  0  0  0  0  0  0  0
   38.1820   32.1660   47.2880 C   0  0  0  0  0  3  0  0  0  0  0  0
   38.7950   32.7070   48.4010 C   0  0  0  0  0  3  0  0  0  0  0  0
   38.5550   32.1730   49.6630 C   0  0  0  0  0  3  0  0  0  0  0  0
   37.7070   31.1210   49.7440 C   0  0  0  0  0  0  0  0  0  0  0  0
   37.4590   30.5790   50.9920 C   0  0  0  0  0  3  0  0  0  0  0  0
   36.6170   29.5140   51.1800 C   0  0  0  0  0  3  0  0  0  0  0  0
   36.0090   28.9800   50.0480 C   0  0  0  0  0  3  0  0  0  0  0  0
   36.2760   29.5400   48.8220 C   0  0  0  0  0  3  0  0  0  0  0  0
   37.1080   30.5970   48.6240 C   0  0  0  0  0  0  0  0  0  0  0  0
  1 22  1  0  0  0  0
  1  5  1  0  0  0  0
  2  3  2  0  0  0  0
  2  1  1  0  0  0  0
  3  4  1  0  0  0  0
  4  5  2  0  0  0  0
  4  6  1  0  0  0  0
  6  7  2  0  0  0  0
  6 10  1  0  0  0  0
  7  8  1  0  0  0  0
  8  9  1  0  0  0  0
  9 11  1  0  0  0  0
 10  9  2  0  0  0  0
 11 12  1  0  0  0  0
 12 13  2  0  0  0  0
 14 15  2  0  0  0  0
 14 13  1  0  0  0  0
 16 14  1  0  0  0  0
 17 16  1  0  0  0  0
 17 11  1  0  0  0  0
 18 17  2  0  0  0  0
 19 16  1  0  0  0  0
 20 25  1  0  0  0  0
 21 20  2  0  0  0  0
 21 22  1  0  0  0  0
 22 23  2  0  0  0  0
 23 24  1  0  0  0  0
 24 26  1  0  0  0  0
 25 24  2  0  0  0  0
 26 35  1  0  0  0  0
 27 26  2  0  0  0  0
 27 28  1  0  0  0  0
 28 29  2  0  0  0  0
 29 30  1  0  0  0  0
 30 31  1  0  0  0  0
 31 32  2  0  0  0  0
 33 32  1  0  0  0  0
 34 33  2  0  0  0  0
 35 34  1  0  0  0  0
 35 30  2  0  0  0  0
M  END
>  <minimizedAffinity>
-9.25946617

$$$$

 OpenBabel03272514333D

 35 40  0  0  0  0  0  0  0  0999 V2000
   32.4060   28.6110   46.1240 N   0  0  0  0  0  0  0  0  0  0  0  0
   32.1360   27.3690   46.5450 C   0  0  0  0  0  3  0  0  0  0  0  0
   30.8500   27.2140   46.7780 N   0  0  0  0  0  0  0  0  0  0  0  0
   30.2600   28.3770   46.5040 C   0  0  0  0  0  0  0  0  0  0  0  0
   31.2400   29.2180   46.1040 N   0  0  0  0  0  0  0  0  0  0  0  0
   28.8800   28.8630   46.5520 C   0  0  0  0  0  0  0  0  0  0  0  0
   27.6770   28.3050   46.7010 N   0  0  0  0  0  0  0  0  0  0  0  0
   26.7410   29.1990   46.6720 O   0  0  0  0  0  0  0  0  0  0  0  0
   27.3230   30.3870   46.5000 C   0  0  0  0  0  0  0  0  0  0  0  0
   28.6520   30.1900   46.4240 N   0  0  0  0  0  0  0  0  0  0  0  0
   26.5830   31.6050   46.4220 N   0  0  0  0  0  0  0  0  0  0  0  0
   26.0470   32.2920   47.4450 C   0  0  0  0  0  3  0  0  0  0  0  0
   25.3510   33.4730   47.1690 C   0  0  0  0  0  3  0  0  0  0  0  0
   25.2400   33.8920   45.8430 C   0  0  0  0  0  0  0  0  0  0  0  0
   24.6220   34.9380   45.6050 O   0  0  0  0  0  0  0  0  0  0  0  0
   25.7870   33.1820   44.8370 N   0  0  0  0  0  0  0  0  0  0  0  0
   26.4520   32.0450   45.1420 C   0  0  0  0  0  0  0  0  0  0  0  0
   26.9280   31.4550   44.1260 O   0  0  0  0  0  0  0  0  0  0  0  0
   25.7010   33.4970   43.8610 H   0  0  0  0  0  0  0  0  0  0  0  0
   35.3860   29.7140   44.2820 C   0  0  0  0  0  3  0  0  0  0  0  0
   34.1210   29.1650   44.4610 C   0  0  0  0  0  3  0  0  0  0  0  0
   33.6780   29.1410   45.7770 C   0  0  0  0  0  0  0  0  0  0  0  0
   34.4700   29.6280   46.7200 N   0  0  0  0  0  0  0  0  0  0  0  0
   35.6690   30.1490   46.5630 C   0  0  0  0  0  0  0  0  0  0  0  0
   36.0780   30.1680   45.3280 N   0  0  0  0  0  0  0  0  0  0  0  0
   36.6240   30.7090   47.5030 C   0  0  0  0  0  0  0  0  0  0  0  0
   37.5550   31.6500   47.1110 C   0  0  0  0  0  3  0  0  0  0  0  0
   38.4840   32.2130   47.9630 C   0  0  0  0  0  3  0  0  0  0  0  0
   38.5220   31.8400   49.3030 C   0  0  0  0  0  3  0  0  0  0  0  0
   37.6230   30.9200   49.7210 C   0  0  0  0  0  0  0  0  0  0  0  0
   37.6490   30.5400   51.0500 C   0  0  0  0  0  3  0  0  0  0  0  0
   36.7810   29.6160   51.5710 C   0  0  0  0  0  3  0  0  0  0  0  0
   35.8520   29.0580   50.6980 C   0  0  0  0  0  3  0  0  0  0  0  0
   35.8510   29.4560   49.3830 C   0  0  0  0  0  3  0  0  0  0  0  0
   36.7070   30.3720   48.8560 C   0  0  0  0  0  0  0  0  0  0  0  0
  1  2  1  0  0  0  0
  2  3  2  0  0  0  0
  4  6  1  0  0  0  0
  4  3  1  0  0  0  0
  5  1  1  0  0  0  0
  5  4  2  0  0  0  0
  6  7  2  0  0  0  0
  8  7  1  0  0  0  0
  9  8  1  0  0  0  0
 10  9  2  0  0  0  0
 10  6  1  0  0  0  0
 11  9  1  0  0  0  0
 11 12  1  0  0  0  0
 13 12  2  0  0  0  0
 14 13  1  0  0  0  0
 15 14  2  0  0  0  0
 16 17  1  0  0  0  0
 16 14  1  0  0  0  0
 17 11  1  0  0  0  0
 18 17  2  0  0  0  0
 19 16  1  0  0  0  0
 20 21  2  0  0  0  0
 20 25  1  0  0  0  0
 21 22  1  0  0  0  0
 22  1  1  0  0  0  0
 22 23  2  0  0  0  0
 24 23  1  0  0  0  0
 24 26  1  0  0  0  0
 25 24  2  0  0  0  0
 26 35  1  0  0  0  0
 27 26  2  0  0  0  0
 27 28  1  0  0  0  0
 28 29  2  0  0  0  0
 29 30  1  0  0  0  0
 30 31  1  0  0  0  0
 31 32  2  0  0  0  0
 33 32  1  0  0  0  0
 34 33  2  0  0  0  0
 35 34  1  0  0  0  0
 35 30  2  0  0  0  0
M  END
>  <minimizedAffinity>
-9.22688675

$$$$

 OpenBabel03272514333D

 35 40  0  0  0  0  0  0  0  0999 V2000
   34.1600   28.4810   48.3250 N   0  0  0  0  0  0  0  0  0  0  0  0
   34.3790   27.9300   47.1250 C   0  0  0  0  0  3  0  0  0  0  0  0
   33.2770   27.4030   46.6340 N   0  0  0  0  0  0  0  0  0  0  0  0
   32.3120   27.6120   47.5290 C   0  0  0  0  0  0  0  0  0  0  0  0
   32.8830   28.2770   48.5580 N   0  0  0  0  0  0  0  0  0  0  0  0
   30.8860   27.2850   47.5940 C   0  0  0  0  0  0  0  0  0  0  0  0
   30.1260   26.2540   47.2210 N   0  0  0  0  0  0  0  0  0  0  0  0
   28.8820   26.4620   47.5120 O   0  0  0  0  0  0  0  0  0  0  0  0
   28.7980   27.6590   48.0950 C   0  0  0  0  0  0  0  0  0  0  0  0
   30.0380   28.1800   48.1510 N   0  0  0  0  0  0  0  0  0  0  0  0
   27.5630   28.2120   48.5500 N   0  0  0  0  0  0  0  0  0  0  0  0
   26.9010   27.8920   49.6740 C   0  0  0  0  0  3  0  0  0  0  0  0
   25.6970   28.5460   49.9530 C   0  0  0  0  0  3  0  0  0  0  0  0
   25.2300   29.5050   49.0520 C   0  0  0  0  0  0  0  0  0  0  0  0
   24.1630   30.0800   49.3040 O   0  0  0  0  0  0  0  0  0  0  0  0
   25.9160   29.8040   47.9320 N   0  0  0  0  0  0  0  0  0  0  0  0
   27.0760   29.1500   47.6960 C   0  0  0  0  0  0  0  0  0  0  0  0
   27.6420   29.5060   46.6190 O   0  0  0  0  0  0  0  0  0  0  0  0
   25.5660   30.5130   47.2720 H   0  0  0  0  0  0  0  0  0  0  0  0
   36.2040   29.5670   51.1760 C   0  0  0  0  0  3  0  0  0  0  0  0
   35.2310   28.8380   50.5010 C   0  0  0  0  0  3  0  0  0  0  0  0
   35.1090   29.1400   49.1520 C   0  0  0  0  0  0  0  0  0  0  0  0
   35.9030   30.0670   48.6360 N   0  0  0  0  0  0  0  0  0  0  0  0
   36.8270   30.7630   49.2650 C   0  0  0  0  0  0  0  0  0  0  0  0
   36.9360   30.4750   50.5290 N   0  0  0  0  0  0  0  0  0  0  0  0
   37.7500   31.7930   48.8190 C   0  0  0  0  0  0  0  0  0  0  0  0
   38.0440   32.8880   49.6070 C   0  0  0  0  0  3  0  0  0  0  0  0
   38.9130   33.8940   49.2300 C   0  0  0  0  0  3  0  0  0  0  0  0
   39.5500   33.8430   47.9960 C   0  0  0  0  0  3  0  0  0  0  0  0
   39.2850   32.7820   47.1990 C   0  0  0  0  0  0  0  0  0  0  0  0
   39.9120   32.7180   45.9680 C   0  0  0  0  0  3  0  0  0  0  0  0
   39.7100   31.6860   45.0890 C   0  0  0  0  0  3  0  0  0  0  0  0
   38.8310   30.6820   45.4840 C   0  0  0  0  0  3  0  0  0  0  0  0
   38.2230   30.7730   46.7120 C   0  0  0  0  0  3  0  0  0  0  0  0
   38.4170   31.7920   47.5920 C   0  0  0  0  0  0  0  0  0  0  0  0
  1  5  1  0  0  0  0
  1 22  1  0  0  0  0
  2  1  1  0  0  0  0
  3  2  2  0  0  0  0
  3  4  1  0  0  0  0
  4  6  1  0  0  0  0
  4  5  2  0  0  0  0
  6 10  1  0  0  0  0
  7  8  1  0  0  0  0
  7  6  2  0  0  0  0
  8  9  1  0  0  0  0
  9 10  2  0  0  0  0
  9 11  1  0  0  0  0
 11 12  1  0  0  0  0
 12 13  2  0  0  0  0
 14 15  2  0  0  0  0
 14 13  1  0  0  0  0
 16 14  1  0  0  0  0
 17 16  1  0  0  0  0
 17 11  1  0  0  0  0
 18 17  2  0  0  0  0
 19 16  1  0  0  0  0
 21 20  2  0  0  0  0
 22 21  1  0  0  0  0
 23 22  2  0  0  0  0
 23 24  1  0  0  0  0
 24 25  2  0  0  0  0
 25 20  1  0  0  0  0
 26 24  1  0  0  0  0
 26 27  1  0  0  0  0
 28 27  2  0  0  0  0
 29 28  1  0  0  0  0
 30 35  1  0  0  0  0
 30 29  2  0  0  0  0
 31 30  1  0  0  0  0
 32 33  1  0  0  0  0
 32 31  2  0  0  0  0
 33 34  2  0  0  0  0
 34 35  1  0  0  0  0
 35 26  2  0  0  0  0
M  END
>  <minimizedAffinity>
-9.20593262

$$$$

 OpenBabel03272514333D

 35 40  0  0  0  0  0  0  0  0999 V2000
   33.2120   28.3920   46.9740 N   0  0  0  0  0  0  0  0  0  0  0  0
   33.1680   27.5080   45.9690 C   0  0  0  0  0  3  0  0  0  0  0  0
   31.9430   27.3770   45.5040 N   0  0  0  0  0  0  0  0  0  0  0  0
   31.1660   28.1930   46.2160 C   0  0  0  0  0  0  0  0  0  0  0  0
   31.9720   28.8040   47.1120 N   0  0  0  0  0  0  0  0  0  0  0  0
   29.7370   28.5150   46.2060 C   0  0  0  0  0  0  0  0  0  0  0  0
   28.6140   27.8590   45.9090 N   0  0  0  0  0  0  0  0  0  0  0  0
   27.5760   28.6180   46.0680 O   0  0  0  0  0  0  0  0  0  0  0  0
   28.0070   29.8110   46.4790 C   0  0  0  0  0  0  0  0  0  0  0  0
   29.3490   29.7590   46.5680 N   0  0  0  0  0  0  0  0  0  0  0  0
   27.1230   30.8980   46.7540 N   0  0  0  0  0  0  0  0  0  0  0  0
   26.3670   31.0670   47.8520 C   0  0  0  0  0  3  0  0  0  0  0  0
   25.5590   32.2040   47.9420 C   0  0  0  0  0  3  0  0  0  0  0  0
   25.5670   33.1180   46.8870 C   0  0  0  0  0  0  0  0  0  0  0  0
   24.8490   34.1230   46.9720 O   0  0  0  0  0  0  0  0  0  0  0  0
   26.3350   32.9220   45.7980 N   0  0  0  0  0  0  0  0  0  0  0  0
   27.1040   31.8110   45.7470 C   0  0  0  0  0  0  0  0  0  0  0  0
   27.7870   31.7230   44.6830 O   0  0  0  0  0  0  0  0  0  0  0  0
   26.3370   33.6010   45.0240 H   0  0  0  0  0  0  0  0  0  0  0  0
   35.6960   28.8840   49.6340 C   0  0  0  0  0  3  0  0  0  0  0  0
   34.5260   28.4200   49.0440 C   0  0  0  0  0  3  0  0  0  0  0  0
   34.3580   28.7880   47.7160 C   0  0  0  0  0  0  0  0  0  0  0  0
   35.2950   29.5270   47.1410 N   0  0  0  0  0  0  0  0  0  0  0  0
   36.4060   29.9730   47.6890 C   0  0  0  0  0  0  0  0  0  0  0  0
   36.5570   29.6240   48.9330 N   0  0  0  0  0  0  0  0  0  0  0  0
   37.4970   30.7800   47.1720 C   0  0  0  0  0  0  0  0  0  0  0  0
   38.0620   30.5230   45.9380 C   0  0  0  0  0  3  0  0  0  0  0  0
   39.1010   31.2580   45.4010 C   0  0  0  0  0  3  0  0  0  0  0  0
   39.6410   32.3270   46.1080 C   0  0  0  0  0  3  0  0  0  0  0  0
   39.1100   32.6060   47.3210 C   0  0  0  0  0  0  0  0  0  0  0  0
   39.6370   33.6660   48.0350 C   0  0  0  0  0  3  0  0  0  0  0  0
   39.1690   34.0290   49.2720 C   0  0  0  0  0  3  0  0  0  0  0  0
   38.1240   33.2770   49.7980 C   0  0  0  0  0  3  0  0  0  0  0  0
   37.6210   32.2300   49.0650 C   0  0  0  0  0  3  0  0  0  0  0  0
   38.0770   31.8620   47.8370 C   0  0  0  0  0  0  0  0  0  0  0  0
  1  5  1  0  0  0  0
  1 22  1  0  0  0  0
  2  1  1  0  0  0  0
  3  2  2  0  0  0  0
  3  4  1  0  0  0  0
  4  5  2  0  0  0  0
  6  4  1  0  0  0  0
  6 10  1  0  0  0  0
  7  8  1  0  0  0  0
  7  6  2  0  0  0  0
  8  9  1  0  0  0  0
  9 10  2  0  0  0  0
  9 11  1  0  0  0  0
 11 12  1  0  0  0  0
 12 13  2  0  0  0  0
 14 15  2  0  0  0  0
 14 13  1  0  0  0  0
 16 14  1  0  0  0  0
 17 16  1  0  0  0  0
 17 11  1  0  0  0  0
 18 17  2  0  0  0  0
 19 16  1  0  0  0  0
 21 20  1  0  0  0  0
 22 21  2  0  0  0  0
 23 24  2  0  0  0  0
 23 22  1  0  0  0  0
 24 25  1  0  0  0  0
 25 20  2  0  0  0  0
 26 24  1  0  0  0  0
 26 35  1  0  0  0  0
 27 26  2  0  0  0  0
 28 27  1  0  0  0  0
 28 29  2  0  0  0  0
 29 30  1  0  0  0  0
 30 35  2  0  0  0  0
 30 31  1  0  0  0  0
 31 32  2  0  0  0  0
 32 33  1  0  0  0  0
 34 33  2  0  0  0  0
 35 34  1  0  0  0  0
M  END
>  <minimizedAffinity>
-8.73266697

$$$$

 OpenBabel03272514333D

 35 40  0  0  0  0  0  0  0  0999 V2000
   32.5470   30.3560   44.8020 N   0  0  0  0  0  0  0  0  0  0  0  0
   31.8540   31.1160   43.9460 C   0  0  0  0  0  3  0  0  0  0  0  0
   30.5600   31.0430   44.1830 N   0  0  0  0  0  0  0  0  0  0  0  0
   30.3990   30.2180   45.2170 C   0  0  0  0  0  0  0  0  0  0  0  0
   31.6370   29.8110   45.5780 N   0  0  0  0  0  0  0  0  0  0  0  0
   29.2400   29.7220   45.9610 C   0  0  0  0  0  0  0  0  0  0  0  0
   27.9180   29.7190   45.7770 N   0  0  0  0  0  0  0  0  0  0  0  0
   27.3110   29.1360   46.7610 O   0  0  0  0  0  0  0  0  0  0  0  0
   28.2420   28.7370   47.6300 C   0  0  0  0  0  0  0  0  0  0  0  0
   29.4440   29.0960   47.1430 N   0  0  0  0  0  0  0  0  0  0  0  0
   27.9230   28.0530   48.8410 N   0  0  0  0  0  0  0  0  0  0  0  0
   27.5960   26.7560   48.9740 C   0  0  0  0  0  3  0  0  0  0  0  0
   27.3150   26.2630   50.2520 C   0  0  0  0  0  3  0  0  0  0  0  0
   27.3850   27.1360   51.3390 C   0  0  0  0  0  0  0  0  0  0  0  0
   27.1350   26.6930   52.4670 O   0  0  0  0  0  0  0  0  0  0  0  0
   27.7170   28.4310   51.1740 N   0  0  0  0  0  0  0  0  0  0  0  0
   27.9810   28.8720   49.9240 C   0  0  0  0  0  0  0  0  0  0  0  0
   28.2830   30.1030   49.8790 O   0  0  0  0  0  0  0  0  0  0  0  0
   27.7670   29.0690   51.9810 H   0  0  0  0  0  0  0  0  0  0  0  0
   36.0350   29.5590   43.9760 C   0  0  0  0  0  3  0  0  0  0  0  0
   34.6640   29.6630   43.7770 C   0  0  0  0  0  3  0  0  0  0  0  0
   33.9570   30.1870   44.8510 C   0  0  0  0  0  0  0  0  0  0  0  0
   34.6270   30.5320   45.9400 N   0  0  0  0  0  0  0  0  0  0  0  0
   35.9240   30.4380   46.1410 C   0  0  0  0  0  0  0  0  0  0  0  0
   36.5800   29.9470   45.1300 N   0  0  0  0  0  0  0  0  0  0  0  0
   36.7670   30.7780   47.2740 C   0  0  0  0  0  0  0  0  0  0  0  0
   37.8650   31.6040   47.1340 C   0  0  0  0  0  3  0  0  0  0  0  0
   38.6980   31.9580   48.1780 C   0  0  0  0  0  3  0  0  0  0  0  0
   38.4570   31.4770   49.4600 C   0  0  0  0  0  3  0  0  0  0  0  0
   37.3880   30.6650   49.6320 C   0  0  0  0  0  0  0  0  0  0  0  0
   37.1370   30.1790   50.9020 C   0  0  0  0  0  3  0  0  0  0  0  0
   36.0810   29.3500   51.1800 C   0  0  0  0  0  3  0  0  0  0  0  0
   35.2520   29.0030   50.1170 C   0  0  0  0  0  3  0  0  0  0  0  0
   35.5280   29.5020   48.8670 C   0  0  0  0  0  3  0  0  0  0  0  0
   36.5720   30.3250   48.5810 C   0  0  0  0  0  0  0  0  0  0  0  0
  1 22  1  0  0  0  0
  1  5  1  0  0  0  0
  2  3  2  0  0  0  0
  2  1  1  0  0  0  0
  3  4  1  0  0  0  0
  4  5  2  0  0  0  0
  4  6  1  0  0  0  0
  6 10  1  0  0  0  0
  7  6  2  0  0  0  0
  7  8  1  0  0  0  0
  8  9  1  0  0  0  0
  9 11  1  0  0  0  0
 10  9  2  0  0  0  0
 11 12  1  0  0  0  0
 11 17  1  0  0  0  0
 12 13  2  0  0  0  0
 13 14  1  0  0  0  0
 14 15  2  0  0  0  0
 16 14  1  0  0  0  0
 16 19  1  0  0  0  0
 17 16  1  0  0  0  0
 18 17  2  0  0  0  0
 20 25  1  0  0  0  0
 21 20  2  0  0  0  0
 21 22  1  0  0  0  0
 22 23  2  0  0  0  0
 23 24  1  0  0  0  0
 24 26  1  0  0  0  0
 25 24  2  0  0  0  0
 26 35  1  0  0  0  0
 27 26  2  0  0  0  0
 27 28  1  0  0  0  0
 28 29  2  0  0  0  0
 29 30  1  0  0  0  0
 30 31  1  0  0  0  0
 31 32  2  0  0  0  0
 33 32  1  0  0  0  0
 34 33  2  0  0  0  0
 35 34  1  0  0  0  0
 35 30  2  0  0  0  0
M  END
>  <minimizedAffinity>
-8.60227776

$$$$

 OpenBabel03272514333D

 35 40  0  0  0  0  0  0  0  0999 V2000
   28.1860   28.8730   47.2800 N   0  0  0  0  0  0  0  0  0  0  0  0
   27.9680   27.6110   46.8910 C   0  0  0  0  0  3  0  0  0  0  0  0
   29.0960   27.0080   46.5760 N   0  0  0  0  0  0  0  0  0  0  0  0
   30.0760   27.8910   46.7630 C   0  0  0  0  0  0  0  0  0  0  0  0
   29.4890   29.0290   47.1970 N   0  0  0  0  0  0  0  0  0  0  0  0
   31.5310   27.8580   46.6010 C   0  0  0  0  0  0  0  0  0  0  0  0
   32.3920   27.1550   45.8630 N   0  0  0  0  0  0  0  0  0  0  0  0
   33.6130   27.5190   46.0970 O   0  0  0  0  0  0  0  0  0  0  0  0
   33.5760   28.4880   47.0140 C   0  0  0  0  0  0  0  0  0  0  0  0
   32.2880   28.7060   47.3340 N   0  0  0  0  0  0  0  0  0  0  0  0
   34.7530   29.1250   47.5100 N   0  0  0  0  0  0  0  0  0  0  0  0
   35.4780   30.0740   46.8940 C   0  0  0  0  0  3  0  0  0  0  0  0
   36.6070   30.5820   47.5430 C   0  0  0  0  0  3  0  0  0  0  0  0
   36.9380   30.0840   48.8040 C   0  0  0  0  0  0  0  0  0  0  0  0
   37.9390   30.5370   49.3730 O   0  0  0  0  0  0  0  0  0  0  0  0
   36.1920   29.1320   49.3970 N   0  0  0  0  0  0  0  0  0  0  0  0
   35.1080   28.6640   48.7380 C   0  0  0  0  0  0  0  0  0  0  0  0
   34.4750   27.7740   49.3830 O   0  0  0  0  0  0  0  0  0  0  0  0
   36.4420   28.7690   50.3270 H   0  0  0  0  0  0  0  0  0  0  0  0
   25.6100   30.6970   49.1560 C   0  0  0  0  0  3  0  0  0  0  0  0
   26.5300   29.6890   48.8940 C   0  0  0  0  0  3  0  0  0  0  0  0
   27.2130   29.8230   47.6930 C   0  0  0  0  0  0  0  0  0  0  0  0
   26.9410   30.8660   46.9230 N   0  0  0  0  0  0  0  0  0  0  0  0
   26.0720   31.8270   47.1610 C   0  0  0  0  0  0  0  0  0  0  0  0
   25.4360   31.6950   48.2880 N   0  0  0  0  0  0  0  0  0  0  0  0
   25.6870   33.0070   46.4080 C   0  0  0  0  0  0  0  0  0  0  0  0
   25.2970   34.1710   47.0410 C   0  0  0  0  0  3  0  0  0  0  0  0
   24.9220   35.3200   46.3720 C   0  0  0  0  0  3  0  0  0  0  0  0
   24.9200   35.3530   44.9820 C   0  0  0  0  0  3  0  0  0  0  0  0
   25.2980   34.2290   44.3300 C   0  0  0  0  0  0  0  0  0  0  0  0
   25.3010   34.2470   42.9470 C   0  0  0  0  0  3  0  0  0  0  0  0
   25.6670   33.1610   42.1960 C   0  0  0  0  0  3  0  0  0  0  0  0
   26.0420   32.0120   42.8850 C   0  0  0  0  0  3  0  0  0  0  0  0
   26.0280   32.0240   44.2590 C   0  0  0  0  0  3  0  0  0  0  0  0
   25.6680   33.0960   45.0140 C   0  0  0  0  0  0  0  0  0  0  0  0
  1 22  1  0  0  0  0
  2  1  1  0  0  0  0
  3  4  1  0  0  0  0
  3  2  2  0  0  0  0
  4  5  2  0  0  0  0
  5  1  1  0  0  0  0
  6  4  1  0  0  0  0
  6 10  1  0  0  0  0
  7  8  1  0  0  0  0
  7  6  2  0  0  0  0
  8  9  1  0  0  0  0
  9 10  2  0  0  0  0
  9 11  1  0  0  0  0
 11 17  1  0  0  0  0
 12 11  1  0  0  0  0
 12 13  2  0  0  0  0
 13 14  1  0  0  0  0
 14 15  2  0  0  0  0
 14 16  1  0  0  0  0
 16 19  1  0  0  0  0
 17 18  2  0  0  0  0
 17 16  1  0  0  0  0
 21 20  1  0  0  0  0
 22 21  2  0  0  0  0
 23 24  2  0  0  0  0
 23 22  1  0  0  0  0
 24 25  1  0  0  0  0
 25 20  2  0  0  0  0
 26 27  1  0  0  0  0
 26 24  1  0  0  0  0
 28 27  2  0  0  0  0
 29 28  1  0  0  0  0
 30 29  2  0  0  0  0
 30 35  1  0  0  0  0
 31 30  1  0  0  0  0
 32 33  1  0  0  0  0
 32 31  2  0  0  0  0
 33 34  2  0  0  0  0
 34 35  1  0  0  0  0
 35 26  2  0  0  0  0
M  END
>  <minimizedAffinity>
-8.5693531

$$$$

 OpenBabel03272514333D

 35 40  0  0  0  0  0  0  0  0999 V2000
   37.3280   32.6880   42.6190 N   0  0  0  0  0  0  0  0  0  0  0  0
   37.8880   33.1070   41.4780 C   0  0  0  0  0  3  0  0  0  0  0  0
   37.0700   33.8890   40.8040 N   0  0  0  0  0  0  0  0  0  0  0  0
   35.9480   33.9860   41.5170 C   0  0  0  0  0  0  0  0  0  0  0  0
   36.1340   33.2380   42.6280 N   0  0  0  0  0  0  0  0  0  0  0  0
   34.6750   34.6870   41.3350 C   0  0  0  0  0  0  0  0  0  0  0  0
   34.3080   35.9380   41.0540 N   0  0  0  0  0  0  0  0  0  0  0  0
   33.0180   36.0450   41.0020 O   0  0  0  0  0  0  0  0  0  0  0  0
   32.5030   34.8400   41.2540 C   0  0  0  0  0  0  0  0  0  0  0  0
   33.5240   33.9890   41.4630 N   0  0  0  0  0  0  0  0  0  0  0  0
   31.0980   34.5920   41.2770 N   0  0  0  0  0  0  0  0  0  0  0  0
   30.2860   34.4440   40.2160 C   0  0  0  0  0  3  0  0  0  0  0  0
   28.9270   34.2040   40.4390 C   0  0  0  0  0  3  0  0  0  0  0  0
   28.4660   34.1280   41.7540 C   0  0  0  0  0  0  0  0  0  0  0  0
   27.2620   33.9150   41.9450 O   0  0  0  0  0  0  0  0  0  0  0  0
   29.3030   34.2800   42.7980 N   0  0  0  0  0  0  0  0  0  0  0  0
   30.6110   34.5110   42.5430 C   0  0  0  0  0  0  0  0  0  0  0  0
   31.3110   34.6380   43.5920 O   0  0  0  0  0  0  0  0  0  0  0  0
   28.9560   34.2220   43.7660 H   0  0  0  0  0  0  0  0  0  0  0  0
   39.3060   30.1020   44.3180 C   0  0  0  0  0  3  0  0  0  0  0  0
   38.8280   30.8540   43.2510 C   0  0  0  0  0  3  0  0  0  0  0  0
   37.9090   31.8350   43.5970 C   0  0  0  0  0  0  0  0  0  0  0  0
   37.5760   31.9700   44.8720 N   0  0  0  0  0  0  0  0  0  0  0  0
   38.0210   31.2640   45.8900 C   0  0  0  0  0  0  0  0  0  0  0  0
   38.8820   30.3460   45.5590 N   0  0  0  0  0  0  0  0  0  0  0  0
   37.7370   31.3120   47.3140 C   0  0  0  0  0  0  0  0  0  0  0  0
   38.5840   31.9520   48.1960 C   0  0  0  0  0  3  0  0  0  0  0  0
   38.3610   32.0270   49.5570 C   0  0  0  0  0  3  0  0  0  0  0  0
   37.2330   31.4360   50.1160 C   0  0  0  0  0  3  0  0  0  0  0  0
   36.3810   30.8010   49.2780 C   0  0  0  0  0  0  0  0  0  0  0  0
   35.2550   30.2080   49.8200 C   0  0  0  0  0  3  0  0  0  0  0  0
   34.3330   29.5410   49.0560 C   0  0  0  0  0  3  0  0  0  0  0  0
   34.5730   29.4750   47.6870 C   0  0  0  0  0  3  0  0  0  0  0  0
   35.7010   30.0730   47.1790 C   0  0  0  0  0  3  0  0  0  0  0  0
   36.6210   30.7380   47.9270 C   0  0  0  0  0  0  0  0  0  0  0  0
  1  5  1  0  0  0  0
  1 22  1  0  0  0  0
  2  1  1  0  0  0  0
  3  2  2  0  0  0  0
  3  4  1  0  0  0  0
  4  5  2  0  0  0  0
  6 10  1  0  0  0  0
  6  4  1  0  0  0  0
  7  6  2  0  0  0  0
  8  7  1  0  0  0  0
  8  9  1  0  0  0  0
  9 11  1  0  0  0  0
  9 10  2  0  0  0  0
 11 17  1  0  0  0  0
 12 13  2  0  0  0  0
 12 11  1  0  0  0  0
 13 14  1  0  0  0  0
 14 15  2  0  0  0  0
 14 16  1  0  0  0  0
 16 19  1  0  0  0  0
 17 16  1  0  0  0  0
 17 18  2  0  0  0  0
 20 25  1  0  0  0  0
 21 22  1  0  0  0  0
 21 20  2  0  0  0  0
 22 23  2  0  0  0  0
 23 24  1  0  0  0  0
 24 26  1  0  0  0  0
 25 24  2  0  0  0  0
 26 35  2  0  0  0  0
 26 27  1  0  0  0  0
 27 28  2  0  0  0  0
 28 29  1  0  0  0  0
 30 31  1  0  0  0  0
 30 29  2  0  0  0  0
 32 31  2  0  0  0  0
 33 32  1  0  0  0  0
 34 33  2  0  0  0  0
 34 35  1  0  0  0  0
 35 30  1  0  0  0  0
M  END
>  <minimizedAffinity>
-8.55399036

$$$$

 OpenBabel03272514333D

 35 40  0  0  0  0  0  0  0  0999 V2000
   30.3770   30.4550   44.9190 N   0  0  0  0  0  0  0  0  0  0  0  0
   30.8040   30.3500   43.6550 C   0  0  0  0  0  3  0  0  0  0  0  0
   32.1110   30.2030   43.6040 N   0  0  0  0  0  0  0  0  0  0  0  0
   32.5540   30.2110   44.8610 C   0  0  0  0  0  0  0  0  0  0  0  0
   31.4660   30.3670   45.6490 N   0  0  0  0  0  0  0  0  0  0  0  0
   33.8740   30.0930   45.4840 C   0  0  0  0  0  0  0  0  0  0  0  0
   35.1050   29.8010   45.0610 N   0  0  0  0  0  0  0  0  0  0  0  0
   35.9530   29.8290   46.0390 O   0  0  0  0  0  0  0  0  0  0  0  0
   35.2820   30.1470   47.1470 C   0  0  0  0  0  0  0  0  0  0  0  0
   33.9880   30.3130   46.8140 N   0  0  0  0  0  0  0  0  0  0  0  0
   35.9100   30.2680   48.4220 N   0  0  0  0  0  0  0  0  0  0  0  0
   36.6440   31.3020   48.8670 C   0  0  0  0  0  3  0  0  0  0  0  0
   37.1830   31.2390   50.1550 C   0  0  0  0  0  3  0  0  0  0  0  0
   36.9380   30.1030   50.9290 C   0  0  0  0  0  0  0  0  0  0  0  0
   37.4180   30.0530   52.0690 O   0  0  0  0  0  0  0  0  0  0  0  0
   36.1990   29.0810   50.4570 N   0  0  0  0  0  0  0  0  0  0  0  0
   35.6950   29.1780   49.2060 C   0  0  0  0  0  0  0  0  0  0  0  0
   35.0150   28.1660   48.8600 O   0  0  0  0  0  0  0  0  0  0  0  0
   36.0220   28.2470   51.0340 H   0  0  0  0  0  0  0  0  0  0  0  0
   26.8650   31.4850   45.2210 C   0  0  0  0  0  3  0  0  0  0  0  0
   28.1370   31.4200   44.6650 C   0  0  0  0  0  3  0  0  0  0  0  0
   29.0360   30.6230   45.3600 C   0  0  0  0  0  0  0  0  0  0  0  0
   28.6200   30.0100   46.4580 N   0  0  0  0  0  0  0  0  0  0  0  0
   27.4190   30.0640   46.9940 C   0  0  0  0  0  0  0  0  0  0  0  0
   26.5820   30.8120   46.3380 N   0  0  0  0  0  0  0  0  0  0  0  0
   26.8460   29.4470   48.1780 C   0  0  0  0  0  0  0  0  0  0  0  0
   25.5150   29.6130   48.5060 C   0  0  0  0  0  3  0  0  0  0  0  0
   24.9220   29.0490   49.6180 C   0  0  0  0  0  3  0  0  0  0  0  0
   25.6700   28.2630   50.4880 C   0  0  0  0  0  3  0  0  0  0  0  0
   26.9780   28.0790   50.1960 C   0  0  0  0  0  0  0  0  0  0  0  0
   27.7340   27.2990   51.0520 C   0  0  0  0  0  3  0  0  0  0  0  0
   29.0660   27.0520   50.8440 C   0  0  0  0  0  3  0  0  0  0  0  0
   29.6480   27.6290   49.7190 C   0  0  0  0  0  3  0  0  0  0  0  0
   28.8710   28.3990   48.8870 C   0  0  0  0  0  3  0  0  0  0  0  0
   27.5490   28.6480   49.0840 C   0  0  0  0  0  0  0  0  0  0  0  0
  1 22  1  0  0  0  0
  1  5  1  0  0  0  0
  2  1  1  0  0  0  0
  3  2  2  0  0  0  0
  3  4  1  0  0  0  0
  4  6  1  0  0  0  0
  4  5  2  0  0  0  0
  6 10  1  0  0  0  0
  7  6  2  0  0  0  0
  7  8  1  0  0  0  0
  8  9  1  0  0  0  0
  9 11  1  0  0  0  0
 10  9  2  0  0  0  0
 11 12  1  0  0  0  0
 11 17  1  0  0  0  0
 12 13  2  0  0  0  0
 13 14  1  0  0  0  0
 14 15  2  0  0  0  0
 16 14  1  0  0  0  0
 16 19  1  0  0  0  0
 17 16  1  0  0  0  0
 18 17  2  0  0  0  0
 20 25  1  0  0  0  0
 21 20  2  0  0  0  0
 21 22  1  0  0  0  0
 22 23  2  0  0  0  0
 23 24  1  0  0  0  0
 24 26  1  0  0  0  0
 25 24  2  0  0  0  0
 26 27  2  0  0  0  0
 26 35  1  0  0  0  0
 27 28  1  0  0  0  0
 28 29  2  0  0  0  0
 30 29  1  0  0  0  0
 30 31  1  0  0  0  0
 32 31  2  0  0  0  0
 33 32  1  0  0  0  0
 34 35  1  0  0  0  0
 34 33  2  0  0  0  0
 35 30  2  0  0  0  0
M  END
>  <minimizedAffinity>
-8.50580597

$$$$
