
 OpenBabel03272514323D

 40 46  0  0  0  0  0  0  0  0999 V2000
   33.1190   28.3490   45.5980 N   0  0  0  0  0  0  0  0  0  0  0  0
   32.9730   27.0240   45.5310 C   0  0  0  0  0  3  0  0  0  0  0  0
   31.7260   26.6820   45.8050 N   0  0  0  0  0  0  0  0  0  0  0  0
   31.0520   27.8080   46.0550 C   0  0  0  0  0  0  0  0  0  0  0  0
   31.9320   28.8180   45.9210 N   0  0  0  0  0  0  0  0  0  0  0  0
   29.6680   28.1050   46.4120 C   0  0  0  0  0  0  0  0  0  0  0  0
   28.5450   27.3840   46.5300 N   0  0  0  0  0  0  0  0  0  0  0  0
   27.5650   28.1650   46.8870 O   0  0  0  0  0  0  0  0  0  0  0  0
   28.0210   29.3960   47.0070 C   0  0  0  0  0  0  0  0  0  0  0  0
   29.3490   29.3930   46.7150 N   0  0  0  0  0  0  0  0  0  0  0  0
   27.1800   30.4770   47.3870 N   0  0  0  0  0  0  0  0  0  0  0  0
   26.6760   30.8140   48.5870 C   0  0  0  0  0  3  0  0  0  0  0  0
   25.9200   31.9410   48.4530 N   0  0  0  0  0  0  0  0  0  0  0  0
   25.9710   32.2860   47.1390 C   0  0  0  0  0  0  0  0  0  0  0  0
   25.3670   33.3620   46.4830 C   0  0  0  0  0  0  0  0  0  0  0  0
   24.6560   34.2000   47.0520 O   0  0  0  0  0  0  0  0  0  0  0  0
   25.5570   33.5210   45.1450 N   0  0  0  0  0  0  0  0  0  0  0  0
   26.3350   32.6140   44.4950 C   0  0  0  0  0  0  0  0  0  0  0  0
   26.5940   32.6940   43.0850 N   0  0  0  0  0  0  0  0  0  0  0  0
   26.9060   31.5910   45.1430 N   0  0  0  0  0  0  0  0  0  0  0  0
   26.7700   31.3610   46.4620 C   0  0  0  0  0  0  0  0  0  0  0  0
   25.1230   34.3060   44.6380 H   0  0  0  0  0  0  0  0  0  0  0  0
   27.1900   31.9880   42.6300 H   0  0  0  0  0  0  0  0  0  0  0  0
   26.1860   33.4590   42.5300 H   0  0  0  0  0  0  0  0  0  0  0  0
   35.9800   30.0430   44.0350 C   0  0  0  0  0  3  0  0  0  0  0  0
   34.8020   29.3110   44.0950 C   0  0  0  0  0  3  0  0  0  0  0  0
   34.3130   29.0800   45.3670 C   0  0  0  0  0  0  0  0  0  0  0  0
   34.9980   29.5690   46.3890 N   0  0  0  0  0  0  0  0  0  0  0  0
   36.1190   30.2670   46.3640 C   0  0  0  0  0  0  0  0  0  0  0  0
   36.5670   30.4760   45.1490 N   0  0  0  0  0  0  0  0  0  0  0  0
   36.9460   30.8450   47.3870 C   0  0  0  0  0  0  0  0  0  0  0  0
   37.8650   31.8550   47.1050 C   0  0  0  0  0  3  0  0  0  0  0  0
   38.6760   32.4390   48.0470 C   0  0  0  0  0  3  0  0  0  0  0  0
   38.6160   32.0350   49.3670 C   0  0  0  0  0  3  0  0  0  0  0  0
   37.7370   31.0550   49.6860 C   0  0  0  0  0  0  0  0  0  0  0  0
   37.6650   30.6370   51.0120 C   0  0  0  0  0  3  0  0  0  0  0  0
   36.8160   29.6630   51.4250 C   0  0  0  0  0  3  0  0  0  0  0  0
   36.0010   29.0820   50.4600 C   0  0  0  0  0  3  0  0  0  0  0  0
   36.0850   29.5050   49.1650 C   0  0  0  0  0  3  0  0  0  0  0  0
   36.9280   30.4770   48.7330 C   0  0  0  0  0  0  0  0  0  0  0  0
  1  5  1  0  0  0  0
  2  1  1  0  0  0  0
  2  3  2  0  0  0  0
  3  4  1  0  0  0  0
  4  6  1  0  0  0  0
  5  4  2  0  0  0  0
  6  7  2  0  0  0  0
  6 10  1  0  0  0  0
  7  8  1  0  0  0  0
  8  9  1  0  0  0  0
  9 11  1  0  0  0  0
 10  9  2  0  0  0  0
 11 12  1  0  0  0  0
 13 12  2  0  0  0  0
 14 13  1  0  0  0  0
 15 16  2  0  0  0  0
 15 14  1  0  0  0  0
 17 15  1  0  0  0  0
 18 20  2  0  0  0  0
 18 17  1  0  0  0  0
 19 18  1  0  0  0  0
 20 21  1  0  0  0  0
 21 14  2  0  0  0  0
 21 11  1  0  0  0  0
 22 17  1  0  0  0  0
 23 19  1  0  0  0  0
 24 19  1  0  0  0  0
 25 26  2  0  0  0  0
 25 30  1  0  0  0  0
 26 27  1  0  0  0  0
 27  1  1  0  0  0  0
 27 28  2  0  0  0  0
 29 28  1  0  0  0  0
 29 31  1  0  0  0  0
 30 29  2  0  0  0  0
 31 40  1  0  0  0  0
 32 31  2  0  0  0  0
 32 33  1  0  0  0  0
 33 34  2  0  0  0  0
 34 35  1  0  0  0  0
 35 36  1  0  0  0  0
 36 37  2  0  0  0  0
 38 37  1  0  0  0  0
 39 38  2  0  0  0  0
 40 39  1  0  0  0  0
 40 35  2  0  0  0  0
M  END
>  <minimizedAffinity>
-9.84885979

$$$$

 OpenBabel03272514323D

 40 46  0  0  0  0  0  0  0  0999 V2000
   30.3420   27.6410   48.9620 N   0  0  0  0  0  0  0  0  0  0  0  0
   29.8000   27.1490   50.0780 C   0  0  0  0  0  3  0  0  0  0  0  0
   28.5890   27.6460   50.2600 N   0  0  0  0  0  0  0  0  0  0  0  0
   28.3430   28.4760   49.2430 C   0  0  0  0  0  0  0  0  0  0  0  0
   29.4380   28.4550   48.4600 N   0  0  0  0  0  0  0  0  0  0  0  0
   27.2100   29.3170   48.8700 C   0  0  0  0  0  0  0  0  0  0  0  0
   25.8870   29.2690   49.0740 N   0  0  0  0  0  0  0  0  0  0  0  0
   25.3240   30.3010   48.5100 O   0  0  0  0  0  0  0  0  0  0  0  0
   26.2550   31.0330   47.9330 C   0  0  0  0  0  0  0  0  0  0  0  0
   27.4610   30.4400   48.1410 N   0  0  0  0  0  0  0  0  0  0  0  0
   25.9450   32.2310   47.2320 N   0  0  0  0  0  0  0  0  0  0  0  0
   25.6210   33.4530   47.6890 C   0  0  0  0  0  3  0  0  0  0  0  0
   25.4100   34.2840   46.6280 N   0  0  0  0  0  0  0  0  0  0  0  0
   25.6130   33.5400   45.5090 C   0  0  0  0  0  0  0  0  0  0  0  0
   25.5240   33.9190   44.1660 C   0  0  0  0  0  0  0  0  0  0  0  0
   25.2270   35.0620   43.7950 O   0  0  0  0  0  0  0  0  0  0  0  0
   25.7740   33.0000   43.1940 N   0  0  0  0  0  0  0  0  0  0  0  0
   26.1030   31.7360   43.5750 C   0  0  0  0  0  0  0  0  0  0  0  0
   26.3830   30.6970   42.6250 N   0  0  0  0  0  0  0  0  0  0  0  0
   26.1840   31.3940   44.8670 N   0  0  0  0  0  0  0  0  0  0  0  0
   25.9540   32.2390   45.8880 C   0  0  0  0  0  0  0  0  0  0  0  0
   25.7150   33.2550   42.1980 H   0  0  0  0  0  0  0  0  0  0  0  0
   26.6300   29.7520   42.9540 H   0  0  0  0  0  0  0  0  0  0  0  0
   26.3390   30.8960   41.6160 H   0  0  0  0  0  0  0  0  0  0  0  0
   33.2490   25.9490   47.4830 C   0  0  0  0  0  3  0  0  0  0  0  0
   31.9510   26.0870   47.9560 C   0  0  0  0  0  3  0  0  0  0  0  0
   31.6290   27.3390   48.4440 C   0  0  0  0  0  0  0  0  0  0  0  0
   32.5660   28.2720   48.4150 N   0  0  0  0  0  0  0  0  0  0  0  0
   33.8070   28.1720   47.9720 C   0  0  0  0  0  0  0  0  0  0  0  0
   34.0950   26.9770   47.5140 N   0  0  0  0  0  0  0  0  0  0  0  0
   34.9030   29.0970   47.8890 C   0  0  0  0  0  0  0  0  0  0  0  0
   35.2760   29.6870   46.6800 C   0  0  0  0  0  3  0  0  0  0  0  0
   36.3140   30.5760   46.5480 C   0  0  0  0  0  3  0  0  0  0  0  0
   37.0640   30.9410   47.6500 C   0  0  0  0  0  3  0  0  0  0  0  0
   36.7380   30.3920   48.8450 C   0  0  0  0  0  0  0  0  0  0  0  0
   37.4850   30.7500   49.9630 C   0  0  0  0  0  3  0  0  0  0  0  0
   37.2320   30.2520   51.2000 C   0  0  0  0  0  3  0  0  0  0  0  0
   36.1780   29.3530   51.3170 C   0  0  0  0  0  3  0  0  0  0  0  0
   35.4560   29.0140   50.2090 C   0  0  0  0  0  3  0  0  0  0  0  0
   35.6940   29.5010   48.9640 C   0  0  0  0  0  0  0  0  0  0  0  0
  1  2  1  0  0  0  0
  2  3  2  0  0  0  0
  4  3  1  0  0  0  0
  5  1  1  0  0  0  0
  5  4  2  0  0  0  0
  6  7  2  0  0  0  0
  6  4  1  0  0  0  0
  8  7  1  0  0  0  0
  9 10  2  0  0  0  0
  9  8  1  0  0  0  0
 10  6  1  0  0  0  0
 11 12  1  0  0  0  0
 11  9  1  0  0  0  0
 13 12  2  0  0  0  0
 14 21  2  0  0  0  0
 14 13  1  0  0  0  0
 15 14  1  0  0  0  0
 16 15  2  0  0  0  0
 17 18  1  0  0  0  0
 17 15  1  0  0  0  0
 18 20  2  0  0  0  0
 19 23  1  0  0  0  0
 19 18  1  0  0  0  0
 20 21  1  0  0  0  0
 21 11  1  0  0  0  0
 22 17  1  0  0  0  0
 24 19  1  0  0  0  0
 25 30  2  0  0  0  0
 25 26  1  0  0  0  0
 26 27  2  0  0  0  0
 27  1  1  0  0  0  0
 28 27  1  0  0  0  0
 29 28  2  0  0  0  0
 30 29  1  0  0  0  0
 31 29  1  0  0  0  0
 31 40  1  0  0  0  0
 32 31  2  0  0  0  0
 33 32  1  0  0  0  0
 33 34  2  0  0  0  0
 34 35  1  0  0  0  0
 35 40  2  0  0  0  0
 35 36  1  0  0  0  0
 36 37  2  0  0  0  0
 37 38  1  0  0  0  0
 39 38  2  0  0  0  0
 40 39  1  0  0  0  0
M  END
>  <minimizedAffinity>
-9.4681654

$$$$

 OpenBabel03272514323D

 40 46  0  0  0  0  0  0  0  0999 V2000
   32.8620   27.8240   47.6530 N   0  0  0  0  0  0  0  0  0  0  0  0
   32.7420   26.7500   46.8700 C   0  0  0  0  0  3  0  0  0  0  0  0
   31.4750   26.5490   46.5530 N   0  0  0  0  0  0  0  0  0  0  0  0
   30.7610   27.5100   47.1440 C   0  0  0  0  0  0  0  0  0  0  0  0
   31.6380   28.2810   47.8140 N   0  0  0  0  0  0  0  0  0  0  0  0
   29.3400   27.8390   47.1860 C   0  0  0  0  0  0  0  0  0  0  0  0
   28.2030   27.1610   46.9750 N   0  0  0  0  0  0  0  0  0  0  0  0
   27.1860   27.9550   47.1520 O   0  0  0  0  0  0  0  0  0  0  0  0
   27.6290   29.1520   47.4780 C   0  0  0  0  0  0  0  0  0  0  0  0
   28.9880   29.1150   47.5090 N   0  0  0  0  0  0  0  0  0  0  0  0
   26.7480   30.2380   47.7350 N   0  0  0  0  0  0  0  0  0  0  0  0
   25.9800   30.5070   48.8050 C   0  0  0  0  0  3  0  0  0  0  0  0
   25.3050   31.6720   48.5880 N   0  0  0  0  0  0  0  0  0  0  0  0
   25.6780   32.1110   47.3570 C   0  0  0  0  0  0  0  0  0  0  0  0
   25.2750   33.2570   46.6660 C   0  0  0  0  0  0  0  0  0  0  0  0
   24.4680   34.0810   47.1170 O   0  0  0  0  0  0  0  0  0  0  0  0
   25.7830   33.5060   45.4290 N   0  0  0  0  0  0  0  0  0  0  0  0
   26.6720   32.6170   44.9100 C   0  0  0  0  0  0  0  0  0  0  0  0
   27.2640   32.7900   43.6130 N   0  0  0  0  0  0  0  0  0  0  0  0
   27.0460   31.5250   45.5890 N   0  0  0  0  0  0  0  0  0  0  0  0
   26.5930   31.2050   46.8140 C   0  0  0  0  0  0  0  0  0  0  0  0
   25.5020   34.3440   44.9000 H   0  0  0  0  0  0  0  0  0  0  0  0
   27.9340   32.0940   43.2560 H   0  0  0  0  0  0  0  0  0  0  0  0
   27.0180   33.6100   43.0410 H   0  0  0  0  0  0  0  0  0  0  0  0
   35.6920   28.6350   49.8510 C   0  0  0  0  0  3  0  0  0  0  0  0
   34.4940   28.0470   49.4710 C   0  0  0  0  0  3  0  0  0  0  0  0
   34.0670   28.3470   48.1910 C   0  0  0  0  0  0  0  0  0  0  0  0
   34.8250   29.1480   47.4610 N   0  0  0  0  0  0  0  0  0  0  0  0
   35.9680   29.7220   47.7940 C   0  0  0  0  0  0  0  0  0  0  0  0
   36.3560   29.4260   49.0110 N   0  0  0  0  0  0  0  0  0  0  0  0
   36.8710   30.5990   47.1010 C   0  0  0  0  0  0  0  0  0  0  0  0
   37.0490   30.5270   45.7190 C   0  0  0  0  0  3  0  0  0  0  0  0
   37.8990   31.3420   45.0120 C   0  0  0  0  0  3  0  0  0  0  0  0
   38.6430   32.3060   45.6620 C   0  0  0  0  0  3  0  0  0  0  0  0
   38.5020   32.4120   47.0060 C   0  0  0  0  0  0  0  0  0  0  0  0
   39.2450   33.3800   47.6750 C   0  0  0  0  0  3  0  0  0  0  0  0
   39.1700   33.5590   49.0180 C   0  0  0  0  0  3  0  0  0  0  0  0
   38.3050   32.7260   49.7200 C   0  0  0  0  0  3  0  0  0  0  0  0
   37.5840   31.7830   49.0460 C   0  0  0  0  0  3  0  0  0  0  0  0
   37.6460   31.5890   47.7040 C   0  0  0  0  0  0  0  0  0  0  0  0
  1  5  1  0  0  0  0
  1 27  1  0  0  0  0
  2  1  1  0  0  0  0
  3  2  2  0  0  0  0
  3  4  1  0  0  0  0
  4  6  1  0  0  0  0
  4  5  2  0  0  0  0
  6 10  1  0  0  0  0
  7  8  1  0  0  0  0
  7  6  2  0  0  0  0
  8  9  1  0  0  0  0
  9 10  2  0  0  0  0
  9 11  1  0  0  0  0
 11 12  1  0  0  0  0
 13 12  2  0  0  0  0
 14 13  1  0  0  0  0
 15 16  2  0  0  0  0
 15 14  1  0  0  0  0
 17 15  1  0  0  0  0
 18 17  1  0  0  0  0
 18 20  2  0  0  0  0
 19 18  1  0  0  0  0
 20 21  1  0  0  0  0
 21 14  2  0  0  0  0
 21 11  1  0  0  0  0
 22 17  1  0  0  0  0
 23 19  1  0  0  0  0
 24 19  1  0  0  0  0
 26 25  1  0  0  0  0
 27 26  2  0  0  0  0
 28 29  2  0  0  0  0
 28 27  1  0  0  0  0
 29 30  1  0  0  0  0
 30 25  2  0  0  0  0
 31 40  1  0  0  0  0
 31 29  1  0  0  0  0
 32 31  2  0  0  0  0
 33 34  2  0  0  0  0
 33 32  1  0  0  0  0
 34 35  1  0  0  0  0
 35 36  2  0  0  0  0
 35 40  1  0  0  0  0
 36 37  1  0  0  0  0
 37 38  2  0  0  0  0
 39 38  1  0  0  0  0
 40 39  2  0  0  0  0
M  END
>  <minimizedAffinity>
-9.37225628

$$$$

 OpenBabel03272514323D

 40 46  0  0  0  0  0  0  0  0999 V2000
   33.4770   30.6230   43.8990 N   0  0  0  0  0  0  0  0  0  0  0  0
   33.0430   31.5920   43.0900 C   0  0  0  0  0  3  0  0  0  0  0  0
   31.7280   31.5460   42.9780 N   0  0  0  0  0  0  0  0  0  0  0  0
   31.3010   30.5260   43.7270 C   0  0  0  0  0  0  0  0  0  0  0  0
   32.3970   29.9750   44.2820 N   0  0  0  0  0  0  0  0  0  0  0  0
   29.9880   29.9600   44.0190 C   0  0  0  0  0  0  0  0  0  0  0  0
   28.9730   29.4900   43.2810 N   0  0  0  0  0  0  0  0  0  0  0  0
   28.0120   29.0950   44.0680 O   0  0  0  0  0  0  0  0  0  0  0  0
   28.3740   29.2960   45.3190 C   0  0  0  0  0  0  0  0  0  0  0  0
   29.6190   29.8430   45.3250 N   0  0  0  0  0  0  0  0  0  0  0  0
   27.5270   28.9610   46.4110 N   0  0  0  0  0  0  0  0  0  0  0  0
   27.2290   27.7680   46.9530 C   0  0  0  0  0  3  0  0  0  0  0  0
   26.3660   27.9520   47.9920 N   0  0  0  0  0  0  0  0  0  0  0  0
   26.1410   29.2910   48.0740 C   0  0  0  0  0  0  0  0  0  0  0  0
   25.3340   30.0000   48.9680 C   0  0  0  0  0  0  0  0  0  0  0  0
   24.6700   29.4640   49.8650 O   0  0  0  0  0  0  0  0  0  0  0  0
   25.2560   31.3550   48.8680 N   0  0  0  0  0  0  0  0  0  0  0  0
   25.9750   31.9690   47.8900 C   0  0  0  0  0  0  0  0  0  0  0  0
   25.9590   33.3920   47.7040 N   0  0  0  0  0  0  0  0  0  0  0  0
   26.7440   31.2710   47.0450 N   0  0  0  0  0  0  0  0  0  0  0  0
   26.8770   29.9330   47.0740 C   0  0  0  0  0  0  0  0  0  0  0  0
   24.6680   31.9000   49.5150 H   0  0  0  0  0  0  0  0  0  0  0  0
   26.5190   33.8190   46.9520 H   0  0  0  0  0  0  0  0  0  0  0  0
   25.3890   33.9860   48.3220 H   0  0  0  0  0  0  0  0  0  0  0  0
   36.9880   29.5410   43.8960 C   0  0  0  0  0  3  0  0  0  0  0  0
   35.7040   29.7240   43.4010 C   0  0  0  0  0  3  0  0  0  0  0  0
   34.8260   30.3610   44.2560 C   0  0  0  0  0  0  0  0  0  0  0  0
   35.2800   30.7320   45.4420 N   0  0  0  0  0  0  0  0  0  0  0  0
   36.4930   30.5730   45.9400 C   0  0  0  0  0  0  0  0  0  0  0  0
   37.3110   29.9660   45.1150 N   0  0  0  0  0  0  0  0  0  0  0  0
   37.0990   30.9260   47.1950 C   0  0  0  0  0  0  0  0  0  0  0  0
   38.1300   31.8620   47.2730 C   0  0  0  0  0  3  0  0  0  0  0  0
   38.7410   32.2340   48.4460 C   0  0  0  0  0  3  0  0  0  0  0  0
   38.3470   31.6740   49.6460 C   0  0  0  0  0  3  0  0  0  0  0  0
   37.3480   30.7590   49.6160 C   0  0  0  0  0  0  0  0  0  0  0  0
   36.9400   30.1870   50.8180 C   0  0  0  0  0  3  0  0  0  0  0  0
   35.9480   29.2620   50.8860 C   0  0  0  0  0  3  0  0  0  0  0  0
   35.3400   28.8970   49.6900 C   0  0  0  0  0  3  0  0  0  0  0  0
   35.7540   29.4700   48.5220 C   0  0  0  0  0  3  0  0  0  0  0  0
   36.7430   30.3950   48.4340 C   0  0  0  0  0  0  0  0  0  0  0  0
  1 27  1  0  0  0  0
  1  5  1  0  0  0  0
  2  1  1  0  0  0  0
  3  2  2  0  0  0  0
  3  4  1  0  0  0  0
  4  6  1  0  0  0  0
  4  5  2  0  0  0  0
  6 10  1  0  0  0  0
  7  6  2  0  0  0  0
  7  8  1  0  0  0  0
  8  9  1  0  0  0  0
  9 10  2  0  0  0  0
  9 11  1  0  0  0  0
 11 12  1  0  0  0  0
 11 21  1  0  0  0  0
 12 13  2  0  0  0  0
 13 14  1  0  0  0  0
 14 15  1  0  0  0  0
 15 16  2  0  0  0  0
 17 15  1  0  0  0  0
 17 22  1  0  0  0  0
 18 17  1  0  0  0  0
 19 18  1  0  0  0  0
 19 24  1  0  0  0  0
 20 21  1  0  0  0  0
 20 18  2  0  0  0  0
 21 14  2  0  0  0  0
 23 19  1  0  0  0  0
 25 30  1  0  0  0  0
 26 25  2  0  0  0  0
 26 27  1  0  0  0  0
 27 28  2  0  0  0  0
 28 29  1  0  0  0  0
 29 31  1  0  0  0  0
 30 29  2  0  0  0  0
 31 32  2  0  0  0  0
 31 40  1  0  0  0  0
 32 33  1  0  0  0  0
 33 34  2  0  0  0  0
 35 34  1  0  0  0  0
 35 36  1  0  0  0  0
 36 37  2  0  0  0  0
 38 37  1  0  0  0  0
 39 38  2  0  0  0  0
 40 39  1  0  0  0  0
 40 35  2  0  0  0  0
M  END
>  <minimizedAffinity>
-9.29464436

$$$$

 OpenBabel03272514323D

 40 46  0  0  0  0  0  0  0  0999 V2000
   29.1840   28.8090   47.3770 N   0  0  0  0  0  0  0  0  0  0  0  0
   29.2240   27.5090   47.6770 C   0  0  0  0  0  3  0  0  0  0  0  0
   30.4040   27.0000   47.3700 N   0  0  0  0  0  0  0  0  0  0  0  0
   31.1420   27.9890   46.8600 C   0  0  0  0  0  0  0  0  0  0  0  0
   30.3680   29.0910   46.8750 N   0  0  0  0  0  0  0  0  0  0  0  0
   32.5030   28.0770   46.3410 C   0  0  0  0  0  0  0  0  0  0  0  0
   33.2980   27.2680   45.6260 N   0  0  0  0  0  0  0  0  0  0  0  0
   34.4470   27.8530   45.4310 O   0  0  0  0  0  0  0  0  0  0  0  0
   34.4260   29.0390   46.0060 C   0  0  0  0  0  0  0  0  0  0  0  0
   33.2110   29.2130   46.5910 N   0  0  0  0  0  0  0  0  0  0  0  0
   35.5440   29.9170   45.9640 N   0  0  0  0  0  0  0  0  0  0  0  0
   36.0140   30.6860   44.9670 C   0  0  0  0  0  3  0  0  0  0  0  0
   37.1180   31.3580   45.4040 N   0  0  0  0  0  0  0  0  0  0  0  0
   37.3130   30.9800   46.6960 C   0  0  0  0  0  0  0  0  0  0  0  0
   38.3060   31.3790   47.5940 C   0  0  0  0  0  0  0  0  0  0  0  0
   39.2020   32.1850   47.3120 O   0  0  0  0  0  0  0  0  0  0  0  0
   38.3110   30.8680   48.8560 N   0  0  0  0  0  0  0  0  0  0  0  0
   37.3370   29.9800   49.1920 C   0  0  0  0  0  0  0  0  0  0  0  0
   37.2570   29.3860   50.4970 N   0  0  0  0  0  0  0  0  0  0  0  0
   36.3930   29.6120   48.3160 N   0  0  0  0  0  0  0  0  0  0  0  0
   36.3160   30.0670   47.0530 C   0  0  0  0  0  0  0  0  0  0  0  0
   39.0320   31.1470   49.5370 H   0  0  0  0  0  0  0  0  0  0  0  0
   36.5030   28.7180   50.7130 H   0  0  0  0  0  0  0  0  0  0  0  0
   37.9520   29.6290   51.2160 H   0  0  0  0  0  0  0  0  0  0  0  0
   26.3500   30.6710   48.7900 C   0  0  0  0  0  3  0  0  0  0  0  0
   27.4010   29.7660   48.7640 C   0  0  0  0  0  3  0  0  0  0  0  0
   28.0840   29.6860   47.5650 C   0  0  0  0  0  0  0  0  0  0  0  0
   27.6820   30.4650   46.5740 N   0  0  0  0  0  0  0  0  0  0  0  0
   26.6870   31.3350   46.5680 C   0  0  0  0  0  0  0  0  0  0  0  0
   26.0520   31.3960   47.7140 N   0  0  0  0  0  0  0  0  0  0  0  0
   26.1600   32.2250   45.5710 C   0  0  0  0  0  0  0  0  0  0  0  0
   26.0760   31.8560   44.2290 C   0  0  0  0  0  3  0  0  0  0  0  0
   25.5800   32.6700   43.2390 C   0  0  0  0  0  3  0  0  0  0  0  0
   25.1240   33.9380   43.5420 C   0  0  0  0  0  3  0  0  0  0  0  0
   25.1870   34.3390   44.8350 C   0  0  0  0  0  0  0  0  0  0  0  0
   24.7310   35.6140   45.1550 C   0  0  0  0  0  3  0  0  0  0  0  0
   24.7550   36.1010   46.4220 C   0  0  0  0  0  3  0  0  0  0  0  0
   25.2600   35.2660   47.4120 C   0  0  0  0  0  3  0  0  0  0  0  0
   25.7020   34.0180   47.0790 C   0  0  0  0  0  3  0  0  0  0  0  0
   25.6870   33.5140   45.8180 C   0  0  0  0  0  0  0  0  0  0  0  0
  1 27  1  0  0  0  0
  1  2  1  0  0  0  0
  3  2  2  0  0  0  0
  4  5  2  0  0  0  0
  4  3  1  0  0  0  0
  5  1  1  0  0  0  0
  6 10  1  0  0  0  0
  6  4  1  0  0  0  0
  7  6  2  0  0  0  0
  8  7  1  0  0  0  0
  8  9  1  0  0  0  0
  9 10  2  0  0  0  0
 11  9  1  0  0  0  0
 11 21  1  0  0  0  0
 12 13  2  0  0  0  0
 12 11  1  0  0  0  0
 13 14  1  0  0  0  0
 14 21  2  0  0  0  0
 14 15  1  0  0  0  0
 15 17  1  0  0  0  0
 16 15  2  0  0  0  0
 17 18  1  0  0  0  0
 17 22  1  0  0  0  0
 18 19  1  0  0  0  0
 19 23  1  0  0  0  0
 19 24  1  0  0  0  0
 20 18  2  0  0  0  0
 21 20  1  0  0  0  0
 26 25  1  0  0  0  0
 27 26  2  0  0  0  0
 28 27  1  0  0  0  0
 29 28  2  0  0  0  0
 29 30  1  0  0  0  0
 30 25  2  0  0  0  0
 31 40  1  0  0  0  0
 31 29  1  0  0  0  0
 32 31  2  0  0  0  0
 33 34  2  0  0  0  0
 33 32  1  0  0  0  0
 34 35  1  0  0  0  0
 35 36  2  0  0  0  0
 35 40  1  0  0  0  0
 36 37  1  0  0  0  0
 37 38  2  0  0  0  0
 39 38  1  0  0  0  0
 40 39  2  0  0  0  0
M  END
>  <minimizedAffinity>
-9.18466759

$$$$

 OpenBabel03272514323D

 40 46  0  0  0  0  0  0  0  0999 V2000
   34.0360   28.2530   48.6010 N   0  0  0  0  0  0  0  0  0  0  0  0
   34.2030   27.2540   47.7320 C   0  0  0  0  0  3  0  0  0  0  0  0
   33.0390   26.8720   47.2370 N   0  0  0  0  0  0  0  0  0  0  0  0
   32.1000   27.6390   47.7960 C   0  0  0  0  0  0  0  0  0  0  0  0
   32.7390   28.4790   48.6310 N   0  0  0  0  0  0  0  0  0  0  0  0
   30.6470   27.7180   47.6730 C   0  0  0  0  0  0  0  0  0  0  0  0
   29.6810   26.8710   47.2910 N   0  0  0  0  0  0  0  0  0  0  0  0
   28.5260   27.4680   47.3720 O   0  0  0  0  0  0  0  0  0  0  0  0
   28.7100   28.7000   47.8020 C   0  0  0  0  0  0  0  0  0  0  0  0
   30.0410   28.8920   48.0020 N   0  0  0  0  0  0  0  0  0  0  0  0
   27.6260   29.6010   47.9920 N   0  0  0  0  0  0  0  0  0  0  0  0
   26.7040   29.6660   48.9680 C   0  0  0  0  0  3  0  0  0  0  0  0
   25.8630   30.7110   48.7180 N   0  0  0  0  0  0  0  0  0  0  0  0
   26.2940   31.2850   47.5630 C   0  0  0  0  0  0  0  0  0  0  0  0
   25.7780   32.3880   46.8770 C   0  0  0  0  0  0  0  0  0  0  0  0
   24.7910   33.0310   47.2570 O   0  0  0  0  0  0  0  0  0  0  0  0
   26.3750   32.7980   45.7250 N   0  0  0  0  0  0  0  0  0  0  0  0
   27.4620   32.1080   45.2840 C   0  0  0  0  0  0  0  0  0  0  0  0
   28.1600   32.4620   44.0810 N   0  0  0  0  0  0  0  0  0  0  0  0
   27.9410   31.0540   45.9580 N   0  0  0  0  0  0  0  0  0  0  0  0
   27.4120   30.5840   47.1020 C   0  0  0  0  0  0  0  0  0  0  0  0
   26.0140   33.6080   45.2010 H   0  0  0  0  0  0  0  0  0  0  0  0
   28.9800   31.9140   43.7820 H   0  0  0  0  0  0  0  0  0  0  0  0
   27.8420   33.2630   43.5180 H   0  0  0  0  0  0  0  0  0  0  0  0
   36.3290   29.3840   51.2380 C   0  0  0  0  0  3  0  0  0  0  0  0
   35.2980   28.6530   50.6660 C   0  0  0  0  0  3  0  0  0  0  0  0
   35.0550   28.9180   49.3310 C   0  0  0  0  0  0  0  0  0  0  0  0
   35.8130   29.8230   48.7350 N   0  0  0  0  0  0  0  0  0  0  0  0
   36.7990   30.5340   49.2520 C   0  0  0  0  0  0  0  0  0  0  0  0
   37.0140   30.2700   50.5180 N   0  0  0  0  0  0  0  0  0  0  0  0
   37.6830   31.5330   48.7160 C   0  0  0  0  0  0  0  0  0  0  0  0
   38.0990   32.6270   49.4750 C   0  0  0  0  0  3  0  0  0  0  0  0
   38.9420   33.6070   49.0100 C   0  0  0  0  0  3  0  0  0  0  0  0
   39.4330   33.5500   47.7200 C   0  0  0  0  0  3  0  0  0  0  0  0
   39.0540   32.5040   46.9470 C   0  0  0  0  0  0  0  0  0  0  0  0
   39.5420   32.4330   45.6450 C   0  0  0  0  0  3  0  0  0  0  0  0
   39.2180   31.4230   44.7980 C   0  0  0  0  0  3  0  0  0  0  0  0
   38.3640   30.4390   45.2840 C   0  0  0  0  0  3  0  0  0  0  0  0
   37.8960   30.5250   46.5640 C   0  0  0  0  0  3  0  0  0  0  0  0
   38.2090   31.5270   47.4250 C   0  0  0  0  0  0  0  0  0  0  0  0
  1  5  1  0  0  0  0
  1 27  1  0  0  0  0
  2  1  1  0  0  0  0
  3  2  2  0  0  0  0
  3  4  1  0  0  0  0
  4  5  2  0  0  0  0
  6  4  1  0  0  0  0
  6 10  1  0  0  0  0
  7  8  1  0  0  0  0
  7  6  2  0  0  0  0
  8  9  1  0  0  0  0
  9 11  1  0  0  0  0
  9 10  2  0  0  0  0
 11 12  1  0  0  0  0
 13 12  2  0  0  0  0
 14 13  1  0  0  0  0
 15 16  2  0  0  0  0
 15 14  1  0  0  0  0
 17 15  1  0  0  0  0
 18 17  1  0  0  0  0
 18 20  2  0  0  0  0
 19 18  1  0  0  0  0
 20 21  1  0  0  0  0
 21 14  2  0  0  0  0
 21 11  1  0  0  0  0
 22 17  1  0  0  0  0
 23 19  1  0  0  0  0
 24 19  1  0  0  0  0
 26 25  1  0  0  0  0
 27 26  2  0  0  0  0
 28 29  2  0  0  0  0
 28 27  1  0  0  0  0
 29 30  1  0  0  0  0
 30 25  2  0  0  0  0
 31 29  1  0  0  0  0
 31 32  1  0  0  0  0
 33 32  2  0  0  0  0
 34 33  1  0  0  0  0
 35 40  1  0  0  0  0
 35 34  2  0  0  0  0
 36 35  1  0  0  0  0
 37 38  1  0  0  0  0
 37 36  2  0  0  0  0
 38 39  2  0  0  0  0
 39 40  1  0  0  0  0
 40 31  2  0  0  0  0
M  END
>  <minimizedAffinity>
-9.16949749

$$$$

 OpenBabel03272514323D

 40 46  0  0  0  0  0  0  0  0999 V2000
   34.6950   29.9010   43.8550 N   0  0  0  0  0  0  0  0  0  0  0  0
   34.3000   29.3210   42.7190 C   0  0  0  0  0  3  0  0  0  0  0  0
   32.9850   29.3720   42.6070 N   0  0  0  0  0  0  0  0  0  0  0  0
   32.5180   29.9950   43.6920 C   0  0  0  0  0  0  0  0  0  0  0  0
   33.5900   30.3100   44.4430 N   0  0  0  0  0  0  0  0  0  0  0  0
   31.1840   30.3590   44.1590 C   0  0  0  0  0  0  0  0  0  0  0  0
   30.4660   31.4900   44.1880 N   0  0  0  0  0  0  0  0  0  0  0  0
   29.3030   31.2500   44.7270 O   0  0  0  0  0  0  0  0  0  0  0  0
   29.2380   29.9760   45.0550 C   0  0  0  0  0  0  0  0  0  0  0  0
   30.4120   29.3820   44.7100 N   0  0  0  0  0  0  0  0  0  0  0  0
   28.0840   29.4130   45.6670 N   0  0  0  0  0  0  0  0  0  0  0  0
   26.8920   29.0800   45.1430 C   0  0  0  0  0  3  0  0  0  0  0  0
   26.0990   28.5710   46.1290 N   0  0  0  0  0  0  0  0  0  0  0  0
   26.8350   28.6000   47.2710 C   0  0  0  0  0  0  0  0  0  0  0  0
   26.4850   28.1910   48.5610 C   0  0  0  0  0  0  0  0  0  0  0  0
   25.3810   27.7140   48.8520 O   0  0  0  0  0  0  0  0  0  0  0  0
   27.3910   28.3110   49.5690 N   0  0  0  0  0  0  0  0  0  0  0  0
   28.6130   28.8320   49.2760 C   0  0  0  0  0  0  0  0  0  0  0  0
   29.6350   28.9990   50.2700 N   0  0  0  0  0  0  0  0  0  0  0  0
   28.9290   29.2170   48.0330 N   0  0  0  0  0  0  0  0  0  0  0  0
   28.0950   29.1330   46.9810 C   0  0  0  0  0  0  0  0  0  0  0  0
   27.1580   28.0160   50.5280 H   0  0  0  0  0  0  0  0  0  0  0  0
   30.5480   29.3970   50.0070 H   0  0  0  0  0  0  0  0  0  0  0  0
   29.4560   28.7210   51.2450 H   0  0  0  0  0  0  0  0  0  0  0  0
   38.3570   29.8410   44.1430 C   0  0  0  0  0  3  0  0  0  0  0  0
   37.1160   29.6440   43.5540 C   0  0  0  0  0  3  0  0  0  0  0  0
   36.0310   30.0360   44.3150 C   0  0  0  0  0  0  0  0  0  0  0  0
   36.2700   30.5550   45.5080 N   0  0  0  0  0  0  0  0  0  0  0  0
   37.4370   30.7560   46.0950 C   0  0  0  0  0  0  0  0  0  0  0  0
   38.4530   30.3770   45.3590 N   0  0  0  0  0  0  0  0  0  0  0  0
   37.8220   31.3010   47.3670 C   0  0  0  0  0  0  0  0  0  0  0  0
   38.5940   32.4590   47.4660 C   0  0  0  0  0  3  0  0  0  0  0  0
   38.9870   33.0200   48.6560 C   0  0  0  0  0  3  0  0  0  0  0  0
   38.6200   32.4400   49.8550 C   0  0  0  0  0  3  0  0  0  0  0  0
   37.8690   31.3130   49.8070 C   0  0  0  0  0  0  0  0  0  0  0  0
   37.4920   30.7180   51.0070 C   0  0  0  0  0  3  0  0  0  0  0  0
   36.7400   29.5880   51.0570 C   0  0  0  0  0  3  0  0  0  0  0  0
   36.3510   29.0330   49.8440 C   0  0  0  0  0  3  0  0  0  0  0  0
   36.7300   29.6320   48.6760 C   0  0  0  0  0  3  0  0  0  0  0  0
   37.4810   30.7600   48.6060 C   0  0  0  0  0  0  0  0  0  0  0  0
  1 27  1  0  0  0  0
  1  5  1  0  0  0  0
  2  1  1  0  0  0  0
  3  2  2  0  0  0  0
  3  4  1  0  0  0  0
  4  6  1  0  0  0  0
  4  5  2  0  0  0  0
  6  7  2  0  0  0  0
  6 10  1  0  0  0  0
  7  8  1  0  0  0  0
  8  9  1  0  0  0  0
  9 11  1  0  0  0  0
 10  9  2  0  0  0  0
 11 21  1  0  0  0  0
 12 11  1  0  0  0  0
 12 13  2  0  0  0  0
 13 14  1  0  0  0  0
 14 15  1  0  0  0  0
 15 16  2  0  0  0  0
 15 17  1  0  0  0  0
 17 22  1  0  0  0  0
 18 17  1  0  0  0  0
 18 19  1  0  0  0  0
 19 24  1  0  0  0  0
 20 18  2  0  0  0  0
 21 14  2  0  0  0  0
 21 20  1  0  0  0  0
 23 19  1  0  0  0  0
 25 30  1  0  0  0  0
 26 25  2  0  0  0  0
 26 27  1  0  0  0  0
 27 28  2  0  0  0  0
 28 29  1  0  0  0  0
 29 31  1  0  0  0  0
 30 29  2  0  0  0  0
 31 32  2  0  0  0  0
 31 40  1  0  0  0  0
 32 33  1  0  0  0  0
 33 34  2  0  0  0  0
 35 34  1  0  0  0  0
 35 36  1  0  0  0  0
 36 37  2  0  0  0  0
 38 37  1  0  0  0  0
 39 38  2  0  0  0  0
 40 39  1  0  0  0  0
 40 35  2  0  0  0  0
M  END
>  <minimizedAffinity>
-9.03974342

$$$$

 OpenBabel03272514323D

 40 46  0  0  0  0  0  0  0  0999 V2000
   34.1430   28.3580   48.6050 N   0  0  0  0  0  0  0  0  0  0  0  0
   34.8770   28.3110   49.7180 C   0  0  0  0  0  3  0  0  0  0  0  0
   35.9270   29.1060   49.6130 N   0  0  0  0  0  0  0  0  0  0  0  0
   35.8730   29.6780   48.4080 C   0  0  0  0  0  0  0  0  0  0  0  0
   34.7660   29.2010   47.8080 N   0  0  0  0  0  0  0  0  0  0  0  0
   36.7170   30.6340   47.6980 C   0  0  0  0  0  0  0  0  0  0  0  0
   37.3850   31.7440   48.0400 N   0  0  0  0  0  0  0  0  0  0  0  0
   37.9950   32.2220   46.9920 O   0  0  0  0  0  0  0  0  0  0  0  0
   37.7430   31.4440   45.9590 C   0  0  0  0  0  0  0  0  0  0  0  0
   36.9370   30.4290   46.3700 N   0  0  0  0  0  0  0  0  0  0  0  0
   38.2750   31.7110   44.6670 N   0  0  0  0  0  0  0  0  0  0  0  0
   39.5150   31.5340   44.1790 C   0  0  0  0  0  3  0  0  0  0  0  0
   39.5430   31.9370   42.8760 N   0  0  0  0  0  0  0  0  0  0  0  0
   38.2880   32.3670   42.5790 C   0  0  0  0  0  0  0  0  0  0  0  0
   37.7900   32.8790   41.3770 C   0  0  0  0  0  0  0  0  0  0  0  0
   38.4740   33.0190   40.3560 O   0  0  0  0  0  0  0  0  0  0  0  0
   36.4830   33.2520   41.3000 N   0  0  0  0  0  0  0  0  0  0  0  0
   35.7080   33.1080   42.4090 C   0  0  0  0  0  0  0  0  0  0  0  0
   34.3200   33.4730   42.4280 N   0  0  0  0  0  0  0  0  0  0  0  0
   36.2050   32.6150   43.5500 N   0  0  0  0  0  0  0  0  0  0  0  0
   37.4820   32.2240   43.7120 C   0  0  0  0  0  0  0  0  0  0  0  0
   36.0920   33.6310   40.4260 H   0  0  0  0  0  0  0  0  0  0  0  0
   33.7670   33.3480   43.2880 H   0  0  0  0  0  0  0  0  0  0  0  0
   33.8770   33.8580   41.5820 H   0  0  0  0  0  0  0  0  0  0  0  0
   31.6370   26.0160   47.2880 C   0  0  0  0  0  3  0  0  0  0  0  0
   32.8790   26.6220   47.4190 C   0  0  0  0  0  3  0  0  0  0  0  0
   32.9450   27.6400   48.3510 C   0  0  0  0  0  0  0  0  0  0  0  0
   31.8420   27.9370   49.0190 N   0  0  0  0  0  0  0  0  0  0  0  0
   30.6480   27.3800   48.9160 C   0  0  0  0  0  0  0  0  0  0  0  0
   30.6050   26.4170   48.0280 N   0  0  0  0  0  0  0  0  0  0  0  0
   29.3910   27.6100   49.5750 C   0  0  0  0  0  0  0  0  0  0  0  0
   29.0820   27.0100   50.7960 C   0  0  0  0  0  3  0  0  0  0  0  0
   27.8970   27.1980   51.4640 C   0  0  0  0  0  3  0  0  0  0  0  0
   26.9210   28.0210   50.9360 C   0  0  0  0  0  3  0  0  0  0  0  0
   27.1790   28.6240   49.7510 C   0  0  0  0  0  0  0  0  0  0  0  0
   26.2050   29.4570   49.2070 C   0  0  0  0  0  3  0  0  0  0  0  0
   26.3740   30.1030   48.0250 C   0  0  0  0  0  3  0  0  0  0  0  0
   27.5790   29.9020   47.3610 C   0  0  0  0  0  3  0  0  0  0  0  0
   28.5230   29.0830   47.9100 C   0  0  0  0  0  3  0  0  0  0  0  0
   28.3720   28.4280   49.0900 C   0  0  0  0  0  0  0  0  0  0  0  0
  1  2  1  0  0  0  0
  3  2  2  0  0  0  0
  4  3  1  0  0  0  0
  5  4  2  0  0  0  0
  5  1  1  0  0  0  0
  6  7  2  0  0  0  0
  6  4  1  0  0  0  0
  8  7  1  0  0  0  0
  9 10  2  0  0  0  0
  9  8  1  0  0  0  0
 10  6  1  0  0  0  0
 11  9  1  0  0  0  0
 12 11  1  0  0  0  0
 13 12  2  0  0  0  0
 14 13  1  0  0  0  0
 14 21  2  0  0  0  0
 15 14  1  0  0  0  0
 16 15  2  0  0  0  0
 17 15  1  0  0  0  0
 17 18  1  0  0  0  0
 18 19  1  0  0  0  0
 18 20  2  0  0  0  0
 19 23  1  0  0  0  0
 20 21  1  0  0  0  0
 21 11  1  0  0  0  0
 22 17  1  0  0  0  0
 24 19  1  0  0  0  0
 25 26  2  0  0  0  0
 25 30  1  0  0  0  0
 26 27  1  0  0  0  0
 27  1  1  0  0  0  0
 27 28  2  0  0  0  0
 29 28  1  0  0  0  0
 29 31  1  0  0  0  0
 30 29  2  0  0  0  0
 31 32  1  0  0  0  0
 32 33  2  0  0  0  0
 34 33  1  0  0  0  0
 35 34  2  0  0  0  0
 36 35  1  0  0  0  0
 37 36  2  0  0  0  0
 38 39  2  0  0  0  0
 38 37  1  0  0  0  0
 39 40  1  0  0  0  0
 40 31  2  0  0  0  0
 40 35  1  0  0  0  0
M  END
>  <minimizedAffinity>
-8.99629307

$$$$

 OpenBabel03272514323D

 40 46  0  0  0  0  0  0  0  0999 V2000
   30.6650   27.9110   48.5410 N   0  0  0  0  0  0  0  0  0  0  0  0
   29.7920   27.4250   49.4260 C   0  0  0  0  0  3  0  0  0  0  0  0
   28.5950   27.9500   49.2300 N   0  0  0  0  0  0  0  0  0  0  0  0
   28.6950   28.7920   48.2000 C   0  0  0  0  0  0  0  0  0  0  0  0
   29.9780   28.7500   47.7940 N   0  0  0  0  0  0  0  0  0  0  0  0
   27.7520   29.6640   47.5060 C   0  0  0  0  0  0  0  0  0  0  0  0
   26.6940   30.4000   47.8740 N   0  0  0  0  0  0  0  0  0  0  0  0
   26.2010   31.0010   46.8290 O   0  0  0  0  0  0  0  0  0  0  0  0
   26.9150   30.6760   45.7710 C   0  0  0  0  0  0  0  0  0  0  0  0
   27.9060   29.8310   46.1630 N   0  0  0  0  0  0  0  0  0  0  0  0
   26.6170   31.1810   44.4750 N   0  0  0  0  0  0  0  0  0  0  0  0
   26.8340   32.3940   43.9380 C   0  0  0  0  0  3  0  0  0  0  0  0
   26.3720   32.4030   42.6550 N   0  0  0  0  0  0  0  0  0  0  0  0
   25.8650   31.1640   42.4190 C   0  0  0  0  0  0  0  0  0  0  0  0
   25.2730   30.6560   41.2590 C   0  0  0  0  0  0  0  0  0  0  0  0
   25.1210   31.3150   40.2220 O   0  0  0  0  0  0  0  0  0  0  0  0
   24.8300   29.3690   41.2430 N   0  0  0  0  0  0  0  0  0  0  0  0
   24.9850   28.6230   42.3700 C   0  0  0  0  0  0  0  0  0  0  0  0
   24.5510   27.2570   42.4520 N   0  0  0  0  0  0  0  0  0  0  0  0
   25.5560   29.1280   43.4700 N   0  0  0  0  0  0  0  0  0  0  0  0
   26.0200   30.3870   43.5710 C   0  0  0  0  0  0  0  0  0  0  0  0
   24.3910   28.9710   40.4000 H   0  0  0  0  0  0  0  0  0  0  0  0
   24.6870   26.7250   43.3230 H   0  0  0  0  0  0  0  0  0  0  0  0
   24.1050   26.8090   41.6390 H   0  0  0  0  0  0  0  0  0  0  0  0
   33.8590   26.2670   47.7730 C   0  0  0  0  0  3  0  0  0  0  0  0
   32.4840   26.4510   47.7810 C   0  0  0  0  0  3  0  0  0  0  0  0
   32.0420   27.5810   48.4430 C   0  0  0  0  0  0  0  0  0  0  0  0
   32.9510   28.3670   48.9940 N   0  0  0  0  0  0  0  0  0  0  0  0
   34.2640   28.2200   49.0030 C   0  0  0  0  0  0  0  0  0  0  0  0
   34.6640   27.1430   48.3710 N   0  0  0  0  0  0  0  0  0  0  0  0
   35.3410   28.9920   49.5590 C   0  0  0  0  0  0  0  0  0  0  0  0
   35.6340   28.9690   50.9220 C   0  0  0  0  0  3  0  0  0  0  0  0
   36.6510   29.6870   51.5010 C   0  0  0  0  0  3  0  0  0  0  0  0
   37.4610   30.4960   50.7280 C   0  0  0  0  0  3  0  0  0  0  0  0
   37.2130   30.5500   49.3970 C   0  0  0  0  0  0  0  0  0  0  0  0
   38.0210   31.3610   48.6060 C   0  0  0  0  0  3  0  0  0  0  0  0
   37.8470   31.4780   47.2650 C   0  0  0  0  0  3  0  0  0  0  0  0
   36.8130   30.7440   46.6940 C   0  0  0  0  0  3  0  0  0  0  0  0
   36.0310   29.9540   47.4870 C   0  0  0  0  0  3  0  0  0  0  0  0
   36.1890   29.8250   48.8290 C   0  0  0  0  0  0  0  0  0  0  0  0
  1  2  1  0  0  0  0
  3  2  2  0  0  0  0
  4  3  1  0  0  0  0
  5  4  2  0  0  0  0
  5  1  1  0  0  0  0
  6  7  2  0  0  0  0
  6  4  1  0  0  0  0
  8  7  1  0  0  0  0
  9 10  2  0  0  0  0
  9  8  1  0  0  0  0
 10  6  1  0  0  0  0
 11  9  1  0  0  0  0
 12 11  1  0  0  0  0
 13 12  2  0  0  0  0
 14 13  1  0  0  0  0
 14 21  2  0  0  0  0
 15 14  1  0  0  0  0
 16 15  2  0  0  0  0
 17 15  1  0  0  0  0
 17 18  1  0  0  0  0
 18 19  1  0  0  0  0
 18 20  2  0  0  0  0
 19 23  1  0  0  0  0
 20 21  1  0  0  0  0
 21 11  1  0  0  0  0
 22 17  1  0  0  0  0
 24 19  1  0  0  0  0
 25 26  2  0  0  0  0
 25 30  1  0  0  0  0
 26 27  1  0  0  0  0
 27  1  1  0  0  0  0
 27 28  2  0  0  0  0
 28 29  1  0  0  0  0
 29 31  1  0  0  0  0
 30 29  2  0  0  0  0
 31 32  1  0  0  0  0
 32 33  2  0  0  0  0
 34 33  1  0  0  0  0
 35 34  2  0  0  0  0
 36 35  1  0  0  0  0
 37 36  2  0  0  0  0
 38 37  1  0  0  0  0
 38 39  2  0  0  0  0
 39 40  1  0  0  0  0
 40 35  1  0  0  0  0
 40 31  2  0  0  0  0
M  END
>  <minimizedAffinity>
-8.93172169

$$$$
