
 OpenBabel03272514523D

 39 43  0  0  1  0  0  0  0  0999 V2000
   30.9290   27.9800   46.7940 C   0  0  1  0  0  0  0  0  0  0  0  0
   30.9320   29.4090   46.3270 C   0  0  0  0  0  1  0  0  0  0  0  0
   28.6000   26.8480   44.1600 C   0  0  0  0  0  3  0  0  0  0  0  0
   28.2800   25.5560   44.5300 C   0  0  0  0  0  0  0  0  0  0  0  0
   28.8760   25.0910   45.6860 C   0  0  0  0  0  3  0  0  0  0  0  0
   29.7180   25.9030   46.3800 N   0  0  0  0  0  0  0  0  0  0  0  0
   30.0090   27.1710   45.9810 C   0  0  0  0  0  0  0  0  0  0  0  0
   29.4290   27.6510   44.8390 N   0  0  0  0  0  0  0  0  0  0  0  0
   27.3850   24.8260   43.7170 N   0  0  0  0  0  0  0  0  0  0  0  0
   27.1300   23.8610   43.9710 H   0  0  0  0  0  0  0  0  0  0  0  0
   26.9880   25.2590   42.8710 H   0  0  0  0  0  0  0  0  0  0  0  0
   32.2750   27.3710   46.7140 C   0  0  0  0  0  2  0  0  0  0  0  0
   33.3670   28.2640   46.4640 N   0  0  0  0  0  0  0  0  0  0  0  0
   34.0550   28.6660   47.5590 C   0  0  0  0  0  3  0  0  0  0  0  0
   35.1330   29.5300   47.4720 C   0  0  0  0  0  0  0  0  0  0  0  0
   35.4980   29.9810   46.2210 C   0  0  0  0  0  0  0  0  0  0  0  0
   36.6070   30.8660   46.1590 N   0  0  0  0  0  0  0  0  0  0  0  0
   34.8150   29.5810   45.1450 N   0  0  0  0  0  0  0  0  0  0  0  0
   33.7750   28.7390   45.2850 C   0  0  0  0  0  0  0  0  0  0  0  0
   33.1150   28.3480   44.2880 O   0  0  0  0  0  0  0  0  0  0  0  0
   36.9220   31.2330   45.2490 H   0  0  0  0  0  0  0  0  0  0  0  0
   37.0950   31.1410   47.0230 H   0  0  0  0  0  0  0  0  0  0  0  0
   35.8420   29.9340   48.6990 C   0  0  0  0  0  0  0  0  0  0  0  0
   36.0360   31.2530   49.0100 C   0  0  0  0  0  3  0  0  0  0  0  0
   36.7090   31.5920   50.1700 C   0  0  0  0  0  3  0  0  0  0  0  0
   37.1560   30.5880   50.9660 C   0  0  0  0  0  3  0  0  0  0  0  0
   36.9830   29.2580   50.6920 C   0  0  0  0  0  3  0  0  0  0  0  0
   36.3090   28.9110   49.5280 C   0  0  0  0  0  3  0  0  0  0  0  0
   30.4570   27.9440   48.2620 C   0  0  0  0  0  2  0  0  0  0  0  0
   29.1120   28.5180   48.4270 C   0  0  0  0  0  0  0  0  0  0  0  0
   28.4570   29.4030   47.6530 N   0  0  0  0  0  0  0  0  0  0  0  0
   27.2230   29.8480   47.9240 C   0  0  0  0  0  3  0  0  0  0  0  0
   26.5530   29.4280   49.0130 N   0  0  0  0  0  0  0  0  0  0  0  0
   27.1550   28.5300   49.8470 C   0  0  0  0  0  0  0  0  0  0  0  0
   26.4070   28.1550   50.9270 C   0  0  0  0  0  3  0  0  0  0  0  0
   26.9540   27.2550   51.8070 C   0  0  0  0  0  3  0  0  0  0  0  0
   28.2240   26.7640   51.5710 C   0  0  0  0  0  3  0  0  0  0  0  0
   28.9270   27.1840   50.4610 C   0  0  0  0  0  3  0  0  0  0  0  0
   28.4250   28.0860   49.5470 C   0  0  0  0  0  0  0  0  0  0  0  0
  1  2  1  6  0  0  0
  1 29  1  0  0  0  0
  3  4  2  0  0  0  0
  3  8  1  0  0  0  0
  4  5  1  0  0  0  0
  5  6  2  0  0  0  0
  7  6  1  0  0  0  0
  7  1  1  0  0  0  0
  8  7  2  0  0  0  0
  9 10  1  0  0  0  0
  9  4  1  0  0  0  0
 11  9  1  0  0  0  0
 12  1  1  0  0  0  0
 13 12  1  0  0  0  0
 13 14  1  0  0  0  0
 15 14  2  0  0  0  0
 15 23  1  0  0  0  0
 16 15  1  0  0  0  0
 17 16  1  0  0  0  0
 17 22  1  0  0  0  0
 18 19  1  0  0  0  0
 18 16  2  0  0  0  0
 19 13  1  0  0  0  0
 20 19  2  0  0  0  0
 21 17  1  0  0  0  0
 23 24  2  0  0  0  0
 23 28  1  0  0  0  0
 24 25  1  0  0  0  0
 25 26  2  0  0  0  0
 27 26  1  0  0  0  0
 28 27  2  0  0  0  0
 29 30  1  0  0  0  0
 30 39  1  0  0  0  0
 31 32  1  0  0  0  0
 31 30  2  0  0  0  0
 32 33  2  0  0  0  0
 33 34  1  0  0  0  0
 34 35  1  0  0  0  0
 35 36  2  0  0  0  0
 37 36  1  0  0  0  0
 38 37  2  0  0  0  0
 39 34  2  0  0  0  0
 39 38  1  0  0  0  0
M  END
>  <minimizedAffinity>
-7.64562035

$$$$

 OpenBabel03272514523D

 39 43  0  0  1  0  0  0  0  0999 V2000
   33.4090   29.4690   45.4540 C   0  0  1  0  0  0  0  0  0  0  0  0
   34.7010   29.0610   44.8020 C   0  0  0  0  0  1  0  0  0  0  0  0
   31.5450   32.6020   44.8590 C   0  0  0  0  0  3  0  0  0  0  0  0
   31.9840   33.0200   43.6180 C   0  0  0  0  0  0  0  0  0  0  0  0
   32.9220   32.2140   43.0030 C   0  0  0  0  0  3  0  0  0  0  0  0
   33.3500   31.0850   43.6280 N   0  0  0  0  0  0  0  0  0  0  0  0
   32.8930   30.7070   44.8530 C   0  0  0  0  0  0  0  0  0  0  0  0
   31.9640   31.4920   45.4790 N   0  0  0  0  0  0  0  0  0  0  0  0
   31.4500   34.2130   43.0840 N   0  0  0  0  0  0  0  0  0  0  0  0
   31.7600   34.5480   42.1600 H   0  0  0  0  0  0  0  0  0  0  0  0
   30.7510   34.7490   43.6180 H   0  0  0  0  0  0  0  0  0  0  0  0
   32.3710   28.4220   45.3220 C   0  0  0  0  0  2  0  0  0  0  0  0
   31.7660   27.9640   46.5370 N   0  0  0  0  0  0  0  0  0  0  0  0
   30.5190   28.4300   46.7820 C   0  0  0  0  0  3  0  0  0  0  0  0
   29.8130   28.0750   47.9170 C   0  0  0  0  0  0  0  0  0  0  0  0
   30.4180   27.2190   48.8120 C   0  0  0  0  0  0  0  0  0  0  0  0
   29.6720   26.8700   49.9690 N   0  0  0  0  0  0  0  0  0  0  0  0
   31.6490   26.7630   48.5660 N   0  0  0  0  0  0  0  0  0  0  0  0
   32.2930   27.1390   47.4460 C   0  0  0  0  0  0  0  0  0  0  0  0
   33.4520   26.7240   47.1900 O   0  0  0  0  0  0  0  0  0  0  0  0
   30.0770   26.2340   50.6700 H   0  0  0  0  0  0  0  0  0  0  0  0
   28.7260   27.2540   50.1070 H   0  0  0  0  0  0  0  0  0  0  0  0
   28.4580   28.6160   48.1300 C   0  0  0  0  0  0  0  0  0  0  0  0
   27.3880   28.1680   47.4020 C   0  0  0  0  0  3  0  0  0  0  0  0
   26.1330   28.7020   47.6290 C   0  0  0  0  0  3  0  0  0  0  0  0
   26.0090   29.6630   48.5790 C   0  0  0  0  0  3  0  0  0  0  0  0
   27.0510   30.1380   49.3280 C   0  0  0  0  0  3  0  0  0  0  0  0
   28.3150   29.6070   49.1050 C   0  0  0  0  0  3  0  0  0  0  0  0
   33.6730   29.7160   46.9540 C   0  0  0  0  0  2  0  0  0  0  0  0
   35.0780   30.0590   47.2210 C   0  0  0  0  0  0  0  0  0  0  0  0
   36.0160   30.5450   46.3870 N   0  0  0  0  0  0  0  0  0  0  0  0
   37.2720   30.8130   46.7660 C   0  0  0  0  0  3  0  0  0  0  0  0
   37.6790   30.6040   48.0320 N   0  0  0  0  0  0  0  0  0  0  0  0
   36.7830   30.1100   48.9360 C   0  0  0  0  0  0  0  0  0  0  0  0
   37.2760   29.9300   50.1970 C   0  0  0  0  0  3  0  0  0  0  0  0
   36.4270   29.4350   51.1540 C   0  0  0  0  0  3  0  0  0  0  0  0
   35.1190   29.1430   50.8150 C   0  0  0  0  0  3  0  0  0  0  0  0
   34.6840   29.3490   49.5220 C   0  0  0  0  0  3  0  0  0  0  0  0
   35.4950   29.8430   48.5220 C   0  0  0  0  0  0  0  0  0  0  0  0
  1  2  1  6  0  0  0
  1 29  1  0  0  0  0
  3  8  1  0  0  0  0
  4  3  2  0  0  0  0
  5  4  1  0  0  0  0
  5  6  2  0  0  0  0
  6  7  1  0  0  0  0
  7  1  1  0  0  0  0
  7  8  2  0  0  0  0
  9 11  1  0  0  0  0
  9  4  1  0  0  0  0
 10  9  1  0  0  0  0
 12  1  1  0  0  0  0
 12 13  1  0  0  0  0
 13 14  1  0  0  0  0
 13 19  1  0  0  0  0
 14 15  2  0  0  0  0
 15 23  1  0  0  0  0
 15 16  1  0  0  0  0
 16 17  1  0  0  0  0
 17 22  1  0  0  0  0
 17 21  1  0  0  0  0
 18 16  2  0  0  0  0
 19 18  1  0  0  0  0
 20 19  2  0  0  0  0
 23 28  1  0  0  0  0
 24 25  1  0  0  0  0
 24 23  2  0  0  0  0
 25 26  2  0  0  0  0
 26 27  1  0  0  0  0
 28 27  2  0  0  0  0
 29 30  1  0  0  0  0
 30 39  1  0  0  0  0
 31 32  1  0  0  0  0
 31 30  2  0  0  0  0
 32 33  2  0  0  0  0
 33 34  1  0  0  0  0
 34 35  1  0  0  0  0
 35 36  2  0  0  0  0
 37 36  1  0  0  0  0
 38 37  2  0  0  0  0
 39 34  2  0  0  0  0
 39 38  1  0  0  0  0
M  END
>  <minimizedAffinity>
-7.29634714

$$$$

 OpenBabel03272514523D

 39 43  0  0  1  0  0  0  0  0999 V2000
   27.6260   28.9760   45.9400 C   0  0  1  0  0  0  0  0  0  0  0  0
   26.3560   28.7420   45.1700 C   0  0  0  0  0  1  0  0  0  0  0  0
   27.1960   26.6690   48.7930 C   0  0  0  0  0  3  0  0  0  0  0  0
   27.3290   27.4810   49.9020 C   0  0  0  0  0  0  0  0  0  0  0  0
   27.5700   28.8180   49.6490 C   0  0  0  0  0  3  0  0  0  0  0  0
   27.6570   29.2520   48.3640 N   0  0  0  0  0  0  0  0  0  0  0  0
   27.5200   28.4190   47.2970 C   0  0  0  0  0  0  0  0  0  0  0  0
   27.2810   27.0910   47.5250 N   0  0  0  0  0  0  0  0  0  0  0  0
   27.2110   26.8960   51.1810 N   0  0  0  0  0  0  0  0  0  0  0  0
   27.3060   27.4790   52.0250 H   0  0  0  0  0  0  0  0  0  0  0  0
   27.0290   25.8860   51.2710 H   0  0  0  0  0  0  0  0  0  0  0  0
   28.7950   28.3580   45.2760 C   0  0  0  0  0  2  0  0  0  0  0  0
   30.0810   28.8800   45.6290 N   0  0  0  0  0  0  0  0  0  0  0  0
   30.4560   30.0040   44.9730 C   0  0  0  0  0  3  0  0  0  0  0  0
   31.6720   30.6200   45.2080 C   0  0  0  0  0  0  0  0  0  0  0  0
   32.5110   30.0540   46.1430 C   0  0  0  0  0  0  0  0  0  0  0  0
   33.7530   30.7060   46.3670 N   0  0  0  0  0  0  0  0  0  0  0  0
   32.1370   28.9450   46.7870 N   0  0  0  0  0  0  0  0  0  0  0  0
   30.9430   28.3860   46.5210 C   0  0  0  0  0  0  0  0  0  0  0  0
   30.5660   27.3410   47.1120 O   0  0  0  0  0  0  0  0  0  0  0  0
   34.4180   30.3250   47.0550 H   0  0  0  0  0  0  0  0  0  0  0  0
   33.9890   31.5590   45.8400 H   0  0  0  0  0  0  0  0  0  0  0  0
   32.0250   31.8410   44.4620 C   0  0  0  0  0  0  0  0  0  0  0  0
   32.8570   31.7990   43.3760 C   0  0  0  0  0  3  0  0  0  0  0  0
   33.1660   32.9680   42.7030 C   0  0  0  0  0  3  0  0  0  0  0  0
   32.6230   34.1270   43.1530 C   0  0  0  0  0  3  0  0  0  0  0  0
   31.7870   34.2130   44.2330 C   0  0  0  0  0  3  0  0  0  0  0  0
   31.4730   33.0430   44.9130 C   0  0  0  0  0  3  0  0  0  0  0  0
   27.8640   30.4960   46.0450 C   0  0  0  0  0  2  0  0  0  0  0  0
   27.2100   31.2370   44.9550 C   0  0  0  0  0  0  0  0  0  0  0  0
   27.2830   31.0470   43.6250 N   0  0  0  0  0  0  0  0  0  0  0  0
   26.6290   31.8050   42.7350 C   0  0  0  0  0  3  0  0  0  0  0  0
   25.8460   32.8260   43.1290 N   0  0  0  0  0  0  0  0  0  0  0  0
   25.7240   33.0810   44.4640 C   0  0  0  0  0  0  0  0  0  0  0  0
   24.9100   34.1320   44.7790 C   0  0  0  0  0  3  0  0  0  0  0  0
   24.7440   34.4430   46.1050 C   0  0  0  0  0  3  0  0  0  0  0  0
   25.3960   33.6900   47.0640 C   0  0  0  0  0  3  0  0  0  0  0  0
   26.2040   32.6400   46.6790 C   0  0  0  0  0  3  0  0  0  0  0  0
   26.4060   32.2860   45.3620 C   0  0  0  0  0  0  0  0  0  0  0  0
  1  2  1  6  0  0  0
  1 29  1  0  0  0  0
  1  7  1  0  0  0  0
  3  4  1  0  0  0  0
  4  9  1  0  0  0  0
  5  4  2  0  0  0  0
  6  5  1  0  0  0  0
  7  8  1  0  0  0  0
  7  6  2  0  0  0  0
  8  3  2  0  0  0  0
  9 11  1  0  0  0  0
  9 10  1  0  0  0  0
 12 13  1  0  0  0  0
 12  1  1  0  0  0  0
 13 19  1  0  0  0  0
 14 15  2  0  0  0  0
 14 13  1  0  0  0  0
 15 16  1  0  0  0  0
 16 17  1  0  0  0  0
 16 18  2  0  0  0  0
 17 21  1  0  0  0  0
 19 18  1  0  0  0  0
 19 20  2  0  0  0  0
 22 17  1  0  0  0  0
 23 28  1  0  0  0  0
 23 15  1  0  0  0  0
 24 23  2  0  0  0  0
 25 26  2  0  0  0  0
 25 24  1  0  0  0  0
 26 27  1  0  0  0  0
 27 28  2  0  0  0  0
 30 39  1  0  0  0  0
 30 29  1  0  0  0  0
 31 30  2  0  0  0  0
 32 33  2  0  0  0  0
 32 31  1  0  0  0  0
 33 34  1  0  0  0  0
 34 35  2  0  0  0  0
 34 39  1  0  0  0  0
 35 36  1  0  0  0  0
 36 37  2  0  0  0  0
 38 37  1  0  0  0  0
 39 38  2  0  0  0  0
M  END
>  <minimizedAffinity>
-7.09885693

$$$$

 OpenBabel03272514523D

 39 43  0  0  1  0  0  0  0  0999 V2000
   33.7450   29.1220   46.0260 C   0  0  1  0  0  0  0  0  0  0  0  0
   34.8930   29.0850   45.0560 C   0  0  0  0  0  1  0  0  0  0  0  0
   30.3660   30.3990   45.2580 C   0  0  0  0  0  3  0  0  0  0  0  0
   30.1730   30.0590   43.9330 C   0  0  0  0  0  0  0  0  0  0  0  0
   31.2180   29.3940   43.3200 C   0  0  0  0  0  3  0  0  0  0  0  0
   32.3430   29.1150   44.0300 N   0  0  0  0  0  0  0  0  0  0  0  0
   32.4950   29.4670   45.3350 C   0  0  0  0  0  0  0  0  0  0  0  0
   31.4720   30.1260   45.9610 N   0  0  0  0  0  0  0  0  0  0  0  0
   28.9500   30.4090   43.3210 N   0  0  0  0  0  0  0  0  0  0  0  0
   28.7810   30.1670   42.3340 H   0  0  0  0  0  0  0  0  0  0  0  0
   28.2270   30.9050   43.8610 H   0  0  0  0  0  0  0  0  0  0  0  0
   33.5560   27.8210   46.7050 C   0  0  0  0  0  2  0  0  0  0  0  0
   32.2380   27.2610   46.6580 N   0  0  0  0  0  0  0  0  0  0  0  0
   31.3990   27.6590   47.6420 C   0  0  0  0  0  3  0  0  0  0  0  0
   30.0960   27.1990   47.7270 C   0  0  0  0  0  0  0  0  0  0  0  0
   29.6630   26.3100   46.7660 C   0  0  0  0  0  0  0  0  0  0  0  0
   28.3230   25.8540   46.8740 N   0  0  0  0  0  0  0  0  0  0  0  0
   30.4960   25.9210   45.7970 N   0  0  0  0  0  0  0  0  0  0  0  0
   31.7530   26.3990   45.7610 C   0  0  0  0  0  0  0  0  0  0  0  0
   32.5580   26.0480   44.8600 O   0  0  0  0  0  0  0  0  0  0  0  0
   27.9470   25.1900   46.1830 H   0  0  0  0  0  0  0  0  0  0  0  0
   27.7250   26.1880   47.6440 H   0  0  0  0  0  0  0  0  0  0  0  0
   29.2290   27.6670   48.8220 C   0  0  0  0  0  0  0  0  0  0  0  0
   28.4570   28.7900   48.6920 C   0  0  0  0  0  3  0  0  0  0  0  0
   27.6570   29.1990   49.7440 C   0  0  0  0  0  3  0  0  0  0  0  0
   27.6700   28.4580   50.8810 C   0  0  0  0  0  3  0  0  0  0  0  0
   28.4260   27.3300   51.0530 C   0  0  0  0  0  3  0  0  0  0  0  0
   29.2310   26.9150   50.0000 C   0  0  0  0  0  3  0  0  0  0  0  0
   34.0380   30.1980   47.0920 C   0  0  0  0  0  2  0  0  0  0  0  0
   35.4770   30.3300   47.3660 C   0  0  0  0  0  0  0  0  0  0  0  0
   36.4760   30.7000   46.5440 N   0  0  0  0  0  0  0  0  0  0  0  0
   37.7570   30.7770   46.9280 C   0  0  0  0  0  3  0  0  0  0  0  0
   38.1270   30.4810   48.1880 N   0  0  0  0  0  0  0  0  0  0  0  0
   37.1680   30.0970   49.0800 C   0  0  0  0  0  0  0  0  0  0  0  0
   37.6270   29.8160   50.3350 C   0  0  0  0  0  3  0  0  0  0  0  0
   36.7140   29.4230   51.2810 C   0  0  0  0  0  3  0  0  0  0  0  0
   35.3790   29.3280   50.9360 C   0  0  0  0  0  3  0  0  0  0  0  0
   34.9810   29.6270   49.6490 C   0  0  0  0  0  3  0  0  0  0  0  0
   35.8560   30.0250   48.6610 C   0  0  0  0  0  0  0  0  0  0  0  0
  1  2  1  6  0  0  0
  1 12  1  0  0  0  0
  1 29  1  0  0  0  0
  3  8  1  0  0  0  0
  4  3  2  0  0  0  0
  5  4  1  0  0  0  0
  5  6  2  0  0  0  0
  6  7  1  0  0  0  0
  7  8  2  0  0  0  0
  7  1  1  0  0  0  0
  9 11  1  0  0  0  0
  9  4  1  0  0  0  0
 10  9  1  0  0  0  0
 13 12  1  0  0  0  0
 13 14  1  0  0  0  0
 14 15  2  0  0  0  0
 15 23  1  0  0  0  0
 16 17  1  0  0  0  0
 16 15  1  0  0  0  0
 17 22  1  0  0  0  0
 18 16  2  0  0  0  0
 19 18  1  0  0  0  0
 19 13  1  0  0  0  0
 20 19  2  0  0  0  0
 21 17  1  0  0  0  0
 23 28  1  0  0  0  0
 24 23  2  0  0  0  0
 24 25  1  0  0  0  0
 25 26  2  0  0  0  0
 26 27  1  0  0  0  0
 28 27  2  0  0  0  0
 29 30  1  0  0  0  0
 30 39  1  0  0  0  0
 31 32  1  0  0  0  0
 31 30  2  0  0  0  0
 32 33  2  0  0  0  0
 33 34  1  0  0  0  0
 34 35  1  0  0  0  0
 35 36  2  0  0  0  0
 37 36  1  0  0  0  0
 38 37  2  0  0  0  0
 39 34  2  0  0  0  0
 39 38  1  0  0  0  0
M  END
>  <minimizedAffinity>
-7.09244776

$$$$

 OpenBabel03272514523D

 39 43  0  0  1  0  0  0  0  0999 V2000
   27.6890   28.5910   46.0050 C   0  0  1  0  0  0  0  0  0  0  0  0
   26.4810   28.5190   45.1130 C   0  0  0  0  0  1  0  0  0  0  0  0
   27.7290   27.6910   49.5870 C   0  0  0  0  0  3  0  0  0  0  0  0
   26.4750   28.0550   50.0370 C   0  0  0  0  0  0  0  0  0  0  0  0
   25.6310   28.6110   49.0950 C   0  0  0  0  0  3  0  0  0  0  0  0
   26.0620   28.7640   47.8150 N   0  0  0  0  0  0  0  0  0  0  0  0
   27.3080   28.3920   47.4110 C   0  0  0  0  0  0  0  0  0  0  0  0
   28.1590   27.8390   48.3280 N   0  0  0  0  0  0  0  0  0  0  0  0
   26.1580   27.8350   51.3950 N   0  0  0  0  0  0  0  0  0  0  0  0
   25.2290   28.0980   51.7560 H   0  0  0  0  0  0  0  0  0  0  0  0
   26.8540   27.4120   52.0250 H   0  0  0  0  0  0  0  0  0  0  0  0
   28.6980   27.5690   45.6500 C   0  0  0  0  0  2  0  0  0  0  0  0
   29.9610   28.0540   45.1770 N   0  0  0  0  0  0  0  0  0  0  0  0
   30.9050   28.2490   46.1280 C   0  0  0  0  0  3  0  0  0  0  0  0
   32.1700   28.7160   45.8200 C   0  0  0  0  0  0  0  0  0  0  0  0
   32.4550   28.9850   44.4980 C   0  0  0  0  0  0  0  0  0  0  0  0
   33.7600   29.4630   44.2090 N   0  0  0  0  0  0  0  0  0  0  0  0
   31.5190   28.7910   43.5640 N   0  0  0  0  0  0  0  0  0  0  0  0
   30.3040   28.3340   43.9170 C   0  0  0  0  0  0  0  0  0  0  0  0
   29.4040   28.1440   43.0590 O   0  0  0  0  0  0  0  0  0  0  0  0
   34.0260   29.6790   43.2370 H   0  0  0  0  0  0  0  0  0  0  0  0
   34.4410   29.5940   44.9700 H   0  0  0  0  0  0  0  0  0  0  0  0
   33.1560   28.9100   46.8980 C   0  0  0  0  0  0  0  0  0  0  0  0
   33.7670   30.1180   47.1000 C   0  0  0  0  0  3  0  0  0  0  0  0
   34.6880   30.2600   48.1210 C   0  0  0  0  0  3  0  0  0  0  0  0
   34.9540   29.1780   48.8960 C   0  0  0  0  0  3  0  0  0  0  0  0
   34.3670   27.9530   48.7290 C   0  0  0  0  0  3  0  0  0  0  0  0
   33.4410   27.8040   47.7050 C   0  0  0  0  0  3  0  0  0  0  0  0
   28.3270   29.9880   45.8570 C   0  0  0  0  0  2  0  0  0  0  0  0
   27.6060   30.8260   44.8860 C   0  0  0  0  0  0  0  0  0  0  0  0
   27.6400   30.8030   43.5410 N   0  0  0  0  0  0  0  0  0  0  0  0
   26.9260   31.6350   42.7710 C   0  0  0  0  0  3  0  0  0  0  0  0
   26.1170   32.5650   43.3110 N   0  0  0  0  0  0  0  0  0  0  0  0
   26.0320   32.6500   44.6710 C   0  0  0  0  0  0  0  0  0  0  0  0
   25.1880   33.6180   45.1360 C   0  0  0  0  0  3  0  0  0  0  0  0
   25.0560   33.7570   46.4960 C   0  0  0  0  0  3  0  0  0  0  0  0
   25.7700   32.9220   47.3340 C   0  0  0  0  0  3  0  0  0  0  0  0
   26.6050   31.9640   46.7990 C   0  0  0  0  0  3  0  0  0  0  0  0
   26.7750   31.7820   45.4430 C   0  0  0  0  0  0  0  0  0  0  0  0
  1  2  1  6  0  0  0
  1  7  1  0  0  0  0
  3  4  1  0  0  0  0
  4  9  1  0  0  0  0
  5  4  2  0  0  0  0
  6  5  1  0  0  0  0
  7  6  2  0  0  0  0
  7  8  1  0  0  0  0
  8  3  2  0  0  0  0
  9 10  1  0  0  0  0
  9 11  1  0  0  0  0
 12  1  1  0  0  0  0
 13 12  1  0  0  0  0
 13 14  1  0  0  0  0
 15 14  2  0  0  0  0
 15 23  1  0  0  0  0
 16 15  1  0  0  0  0
 17 16  1  0  0  0  0
 17 22  1  0  0  0  0
 18 19  1  0  0  0  0
 18 16  2  0  0  0  0
 19 13  1  0  0  0  0
 20 19  2  0  0  0  0
 21 17  1  0  0  0  0
 23 24  2  0  0  0  0
 23 28  1  0  0  0  0
 24 25  1  0  0  0  0
 25 26  2  0  0  0  0
 27 26  1  0  0  0  0
 28 27  2  0  0  0  0
 29  1  1  0  0  0  0
 30 39  1  0  0  0  0
 30 29  1  0  0  0  0
 31 30  2  0  0  0  0
 32 33  2  0  0  0  0
 32 31  1  0  0  0  0
 33 34  1  0  0  0  0
 34 35  2  0  0  0  0
 34 39  1  0  0  0  0
 35 36  1  0  0  0  0
 36 37  2  0  0  0  0
 38 37  1  0  0  0  0
 39 38  2  0  0  0  0
M  END
>  <minimizedAffinity>
-6.9647336

$$$$

 OpenBabel03272514523D

 39 43  0  0  1  0  0  0  0  0999 V2000
   27.9420   28.3950   46.4840 C   0  0  1  0  0  0  0  0  0  0  0  0
   26.5280   28.2460   45.9970 C   0  0  0  0  0  1  0  0  0  0  0  0
   27.1930   27.1630   49.8840 C   0  0  0  0  0  3  0  0  0  0  0  0
   28.3220   27.4850   50.6120 C   0  0  0  0  0  0  0  0  0  0  0  0
   29.3310   28.1230   49.9170 C   0  0  0  0  0  3  0  0  0  0  0  0
   29.1650   28.3940   48.5950 N   0  0  0  0  0  0  0  0  0  0  0  0
   28.0360   28.0600   47.9120 C   0  0  0  0  0  0  0  0  0  0  0  0
   27.0260   27.4270   48.5830 N   0  0  0  0  0  0  0  0  0  0  0  0
   28.3570   27.1460   51.9830 N   0  0  0  0  0  0  0  0  0  0  0  0
   29.1870   27.3750   52.5480 H   0  0  0  0  0  0  0  0  0  0  0  0
   27.5530   26.6710   52.4170 H   0  0  0  0  0  0  0  0  0  0  0  0
   28.8760   27.5220   45.7400 C   0  0  0  0  0  2  0  0  0  0  0  0
   30.0890   28.1290   45.2780 N   0  0  0  0  0  0  0  0  0  0  0  0
   31.0670   28.2580   46.2040 C   0  0  0  0  0  3  0  0  0  0  0  0
   32.2920   28.8280   45.9030 C   0  0  0  0  0  0  0  0  0  0  0  0
   32.4980   29.2690   44.6140 C   0  0  0  0  0  0  0  0  0  0  0  0
   33.7630   29.8490   44.3310 N   0  0  0  0  0  0  0  0  0  0  0  0
   31.5290   29.1390   43.7040 N   0  0  0  0  0  0  0  0  0  0  0  0
   30.3560   28.5770   44.0490 C   0  0  0  0  0  0  0  0  0  0  0  0
   29.4270   28.4430   43.2120 O   0  0  0  0  0  0  0  0  0  0  0  0
   33.9700   30.1950   43.3830 H   0  0  0  0  0  0  0  0  0  0  0  0
   34.4730   29.9250   45.0730 H   0  0  0  0  0  0  0  0  0  0  0  0
   33.3190   28.9430   46.9550 C   0  0  0  0  0  0  0  0  0  0  0  0
   33.9450   30.1330   47.2140 C   0  0  0  0  0  3  0  0  0  0  0  0
   34.9050   30.2000   48.2070 C   0  0  0  0  0  3  0  0  0  0  0  0
   35.1910   29.0670   48.8970 C   0  0  0  0  0  3  0  0  0  0  0  0
   34.5890   27.8590   48.6700 C   0  0  0  0  0  3  0  0  0  0  0  0
   33.6240   27.7850   47.6740 C   0  0  0  0  0  3  0  0  0  0  0  0
   28.3760   29.8620   46.2890 C   0  0  0  0  0  2  0  0  0  0  0  0
   27.3380   30.8110   46.7220 C   0  0  0  0  0  0  0  0  0  0  0  0
   26.7810   30.9780   47.9350 N   0  0  0  0  0  0  0  0  0  0  0  0
   25.8330   31.8880   48.1930 C   0  0  0  0  0  3  0  0  0  0  0  0
   25.3710   32.7070   47.2290 N   0  0  0  0  0  0  0  0  0  0  0  0
   25.8880   32.5950   45.9710 C   0  0  0  0  0  0  0  0  0  0  0  0
   25.3650   33.4630   45.0540 C   0  0  0  0  0  3  0  0  0  0  0  0
   25.8410   33.4030   43.7680 C   0  0  0  0  0  3  0  0  0  0  0  0
   26.8210   32.4810   43.4510 C   0  0  0  0  0  3  0  0  0  0  0  0
   27.3070   31.6330   44.4240 C   0  0  0  0  0  3  0  0  0  0  0  0
   26.8640   31.6510   45.7300 C   0  0  0  0  0  0  0  0  0  0  0  0
  1  2  1  6  0  0  0
  1  7  1  0  0  0  0
  3  4  1  0  0  0  0
  4  9  1  0  0  0  0
  5  4  2  0  0  0  0
  6  5  1  0  0  0  0
  7  8  1  0  0  0  0
  7  6  2  0  0  0  0
  8  3  2  0  0  0  0
  9 11  1  0  0  0  0
  9 10  1  0  0  0  0
 12  1  1  0  0  0  0
 13 12  1  0  0  0  0
 13 14  1  0  0  0  0
 15 14  2  0  0  0  0
 15 23  1  0  0  0  0
 16 15  1  0  0  0  0
 17 16  1  0  0  0  0
 17 22  1  0  0  0  0
 18 19  1  0  0  0  0
 18 16  2  0  0  0  0
 19 13  1  0  0  0  0
 20 19  2  0  0  0  0
 21 17  1  0  0  0  0
 23 24  2  0  0  0  0
 23 28  1  0  0  0  0
 24 25  1  0  0  0  0
 25 26  2  0  0  0  0
 27 26  1  0  0  0  0
 28 27  2  0  0  0  0
 29  1  1  0  0  0  0
 29 30  1  0  0  0  0
 30 31  1  0  0  0  0
 31 32  2  0  0  0  0
 33 32  1  0  0  0  0
 34 33  2  0  0  0  0
 35 34  1  0  0  0  0
 36 35  2  0  0  0  0
 37 36  1  0  0  0  0
 37 38  2  0  0  0  0
 38 39  1  0  0  0  0
 39 34  1  0  0  0  0
 39 30  2  0  0  0  0
M  END
>  <minimizedAffinity>
-6.96027088

$$$$

 OpenBabel03272514523D

 39 43  0  0  1  0  0  0  0  0999 V2000
   31.6280   27.6430   47.4270 C   0  0  1  0  0  0  0  0  0  0  0  0
   32.7530   27.3070   48.3660 C   0  0  0  0  0  1  0  0  0  0  0  0
   28.0530   28.0230   48.2720 C   0  0  0  0  0  3  0  0  0  0  0  0
   27.9690   27.5790   49.5770 C   0  0  0  0  0  0  0  0  0  0  0  0
   29.1510   27.1490   50.1490 C   0  0  0  0  0  3  0  0  0  0  0  0
   30.3000   27.1880   49.4220 N   0  0  0  0  0  0  0  0  0  0  0  0
   30.3410   27.6330   48.1370 C   0  0  0  0  0  0  0  0  0  0  0  0
   29.1810   28.0630   47.5530 N   0  0  0  0  0  0  0  0  0  0  0  0
   26.7090   27.5980   50.2140 N   0  0  0  0  0  0  0  0  0  0  0  0
   26.6190   27.2720   51.1870 H   0  0  0  0  0  0  0  0  0  0  0  0
   25.8800   27.9380   49.7060 H   0  0  0  0  0  0  0  0  0  0  0  0
   31.8060   28.9750   46.8080 C   0  0  0  0  0  2  0  0  0  0  0  0
   33.1530   29.3740   46.5270 N   0  0  0  0  0  0  0  0  0  0  0  0
   33.9370   29.5900   47.6090 C   0  0  0  0  0  3  0  0  0  0  0  0
   35.2580   29.9820   47.4920 C   0  0  0  0  0  0  0  0  0  0  0  0
   35.7710   30.1510   46.2240 C   0  0  0  0  0  0  0  0  0  0  0  0
   37.1290   30.5540   46.1310 N   0  0  0  0  0  0  0  0  0  0  0  0
   34.9930   29.9370   45.1590 N   0  0  0  0  0  0  0  0  0  0  0  0
   33.7130   29.5560   45.3280 C   0  0  0  0  0  0  0  0  0  0  0  0
   32.9590   29.3480   44.3430 O   0  0  0  0  0  0  0  0  0  0  0  0
   37.5620   30.6940   45.2070 H   0  0  0  0  0  0  0  0  0  0  0  0
   37.6810   30.7050   46.9870 H   0  0  0  0  0  0  0  0  0  0  0  0
   36.0620   30.2040   48.7080 C   0  0  0  0  0  0  0  0  0  0  0  0
   36.5430   31.4440   49.0300 C   0  0  0  0  0  3  0  0  0  0  0  0
   37.2950   31.6110   50.1780 C   0  0  0  0  0  3  0  0  0  0  0  0
   37.5290   30.5220   50.9530 C   0  0  0  0  0  3  0  0  0  0  0  0
   37.0670   29.2660   50.6680 C   0  0  0  0  0  3  0  0  0  0  0  0
   36.3110   29.0910   49.5160 C   0  0  0  0  0  3  0  0  0  0  0  0
   31.5880   26.5800   46.3100 C   0  0  0  0  0  2  0  0  0  0  0  0
   32.3180   25.3570   46.6810 C   0  0  0  0  0  0  0  0  0  0  0  0
   32.0440   24.4510   47.6370 N   0  0  0  0  0  0  0  0  0  0  0  0
   32.8040   23.3730   47.8710 C   0  0  0  0  0  3  0  0  0  0  0  0
   33.9120   23.1290   47.1460 N   0  0  0  0  0  0  0  0  0  0  0  0
   34.2540   24.0050   46.1580 C   0  0  0  0  0  0  0  0  0  0  0  0
   35.3900   23.6840   45.4700 C   0  0  0  0  0  3  0  0  0  0  0  0
   35.7920   24.5240   44.4620 C   0  0  0  0  0  3  0  0  0  0  0  0
   35.0420   25.6510   44.1800 C   0  0  0  0  0  3  0  0  0  0  0  0
   33.9040   25.9180   44.9130 C   0  0  0  0  0  3  0  0  0  0  0  0
   33.4560   25.1080   45.9350 C   0  0  0  0  0  0  0  0  0  0  0  0
  1  7  1  0  0  0  0
  1  2  1  1  0  0  0
  3  4  1  0  0  0  0
  4  5  2  0  0  0  0
  4  9  1  0  0  0  0
  6  5  1  0  0  0  0
  7  6  2  0  0  0  0
  8  7  1  0  0  0  0
  8  3  2  0  0  0  0
  9 10  1  0  0  0  0
 11  9  1  0  0  0  0
 12  1  1  0  0  0  0
 13 12  1  0  0  0  0
 13 14  1  0  0  0  0
 15 14  2  0  0  0  0
 15 23  1  0  0  0  0
 16 15  1  0  0  0  0
 17 16  1  0  0  0  0
 17 22  1  0  0  0  0
 18 19  1  0  0  0  0
 18 16  2  0  0  0  0
 19 13  1  0  0  0  0
 20 19  2  0  0  0  0
 21 17  1  0  0  0  0
 23 24  2  0  0  0  0
 23 28  1  0  0  0  0
 24 25  1  0  0  0  0
 25 26  2  0  0  0  0
 27 26  1  0  0  0  0
 28 27  2  0  0  0  0
 29 30  1  0  0  0  0
 29  1  1  0  0  0  0
 30 31  1  0  0  0  0
 31 32  2  0  0  0  0
 33 32  1  0  0  0  0
 34 33  2  0  0  0  0
 35 34  1  0  0  0  0
 36 35  2  0  0  0  0
 37 36  1  0  0  0  0
 37 38  2  0  0  0  0
 38 39  1  0  0  0  0
 39 34  1  0  0  0  0
 39 30  2  0  0  0  0
M  END
>  <minimizedAffinity>
-6.9559288

$$$$

 OpenBabel03272514523D

 39 43  0  0  1  0  0  0  0  0999 V2000
   31.6430   28.2760   45.5780 C   0  0  1  0  0  0  0  0  0  0  0  0
   32.8040   27.6920   44.8230 C   0  0  0  0  0  1  0  0  0  0  0  0
   29.9140   31.3010   44.3500 C   0  0  0  0  0  3  0  0  0  0  0  0
   29.5160   30.9620   43.0720 C   0  0  0  0  0  0  0  0  0  0  0  0
   29.8520   29.6910   42.6490 C   0  0  0  0  0  3  0  0  0  0  0  0
   30.5340   28.8640   43.4860 N   0  0  0  0  0  0  0  0  0  0  0  0
   30.9100   29.2370   44.7400 C   0  0  0  0  0  0  0  0  0  0  0  0
   30.5860   30.4910   45.1780 N   0  0  0  0  0  0  0  0  0  0  0  0
   28.8080   31.9200   42.3130 N   0  0  0  0  0  0  0  0  0  0  0  0
   28.4990   31.6920   41.3570 H   0  0  0  0  0  0  0  0  0  0  0  0
   28.6010   32.8450   42.7150 H   0  0  0  0  0  0  0  0  0  0  0  0
   30.6940   27.2320   46.0240 C   0  0  0  0  0  2  0  0  0  0  0  0
   30.1970   27.3490   47.3620 N   0  0  0  0  0  0  0  0  0  0  0  0
   29.0770   28.0950   47.5060 C   0  0  0  0  0  3  0  0  0  0  0  0
   28.4840   28.2990   48.7400 C   0  0  0  0  0  0  0  0  0  0  0  0
   29.0700   27.7120   49.8410 C   0  0  0  0  0  0  0  0  0  0  0  0
   28.4420   27.9350   51.0950 N   0  0  0  0  0  0  0  0  0  0  0  0
   30.1750   26.9770   49.6930 N   0  0  0  0  0  0  0  0  0  0  0  0
   30.7110   26.8100   48.4700 C   0  0  0  0  0  0  0  0  0  0  0  0
   31.7520   26.1230   48.3030 O   0  0  0  0  0  0  0  0  0  0  0  0
   28.8380   27.5200   51.9500 H   0  0  0  0  0  0  0  0  0  0  0  0
   27.5910   28.5130   51.1490 H   0  0  0  0  0  0  0  0  0  0  0  0
   27.2650   29.1230   48.8340 C   0  0  0  0  0  0  0  0  0  0  0  0
   27.3240   30.4900   48.8010 C   0  0  0  0  0  3  0  0  0  0  0  0
   26.1580   31.2290   48.8940 C   0  0  0  0  0  3  0  0  0  0  0  0
   24.9850   30.5580   49.0170 C   0  0  0  0  0  3  0  0  0  0  0  0
   24.8830   29.1940   49.0540 C   0  0  0  0  0  3  0  0  0  0  0  0
   26.0490   28.4460   48.9610 C   0  0  0  0  0  3  0  0  0  0  0  0
   32.1850   29.0130   46.8200 C   0  0  0  0  0  2  0  0  0  0  0  0
   33.5520   29.5170   46.6130 C   0  0  0  0  0  0  0  0  0  0  0  0
   34.1110   30.0540   45.5140 N   0  0  0  0  0  0  0  0  0  0  0  0
   35.3820   30.4740   45.4630 C   0  0  0  0  0  3  0  0  0  0  0  0
   36.1930   30.3780   46.5330 N   0  0  0  0  0  0  0  0  0  0  0  0
   35.6960   29.8410   47.6850 C   0  0  0  0  0  0  0  0  0  0  0  0
   36.5820   29.7810   48.7230 C   0  0  0  0  0  3  0  0  0  0  0  0
   36.1470   29.2520   49.9120 C   0  0  0  0  0  3  0  0  0  0  0  0
   34.8430   28.8050   50.0170 C   0  0  0  0  0  3  0  0  0  0  0  0
   33.9980   28.8940   48.9300 C   0  0  0  0  0  3  0  0  0  0  0  0
   34.3840   29.4170   47.7140 C   0  0  0  0  0  0  0  0  0  0  0  0
  1  2  1  6  0  0  0
  1 12  1  0  0  0  0
  1 29  1  0  0  0  0
  3  8  1  0  0  0  0
  4  3  2  0  0  0  0
  5  4  1  0  0  0  0
  5  6  2  0  0  0  0
  6  7  1  0  0  0  0
  7  8  2  0  0  0  0
  7  1  1  0  0  0  0
  9 11  1  0  0  0  0
  9  4  1  0  0  0  0
 10  9  1  0  0  0  0
 12 13  1  0  0  0  0
 13 14  1  0  0  0  0
 13 19  1  0  0  0  0
 14 15  2  0  0  0  0
 15 23  1  0  0  0  0
 15 16  1  0  0  0  0
 16 17  1  0  0  0  0
 17 22  1  0  0  0  0
 17 21  1  0  0  0  0
 18 16  2  0  0  0  0
 19 18  1  0  0  0  0
 20 19  2  0  0  0  0
 23 28  1  0  0  0  0
 24 23  2  0  0  0  0
 24 25  1  0  0  0  0
 25 26  2  0  0  0  0
 26 27  1  0  0  0  0
 28 27  2  0  0  0  0
 30 29  1  0  0  0  0
 30 39  1  0  0  0  0
 31 30  2  0  0  0  0
 32 31  1  0  0  0  0
 32 33  2  0  0  0  0
 33 34  1  0  0  0  0
 34 39  2  0  0  0  0
 34 35  1  0  0  0  0
 35 36  2  0  0  0  0
 36 37  1  0  0  0  0
 38 37  2  0  0  0  0
 39 38  1  0  0  0  0
M  END
>  <minimizedAffinity>
-6.91502428

$$$$

 OpenBabel03272514523D

 39 43  0  0  1  0  0  0  0  0999 V2000
   30.7300   27.3710   47.5870 C   0  0  1  0  0  0  0  0  0  0  0  0
   30.6100   28.4790   46.5770 C   0  0  0  0  0  1  0  0  0  0  0  0
   27.3880   27.7910   49.1040 C   0  0  0  0  0  3  0  0  0  0  0  0
   27.5840   27.4800   50.4350 C   0  0  0  0  0  0  0  0  0  0  0  0
   28.8710   27.1260   50.7920 C   0  0  0  0  0  3  0  0  0  0  0  0
   29.8480   27.1050   49.8450 N   0  0  0  0  0  0  0  0  0  0  0  0
   29.6130   27.4180   48.5420 C   0  0  0  0  0  0  0  0  0  0  0  0
   28.3460   27.7710   48.1680 N   0  0  0  0  0  0  0  0  0  0  0  0
   26.4790   27.5480   51.3110 N   0  0  0  0  0  0  0  0  0  0  0  0
   26.5980   27.3220   52.3090 H   0  0  0  0  0  0  0  0  0  0  0  0
   25.5540   27.8250   50.9520 H   0  0  0  0  0  0  0  0  0  0  0  0
   30.7350   26.0380   46.9450 C   0  0  0  0  0  2  0  0  0  0  0  0
   30.5120   26.0090   45.5300 N   0  0  0  0  0  0  0  0  0  0  0  0
   29.2160   26.0410   45.1420 C   0  0  0  0  0  3  0  0  0  0  0  0
   28.8490   26.0160   43.8080 C   0  0  0  0  0  0  0  0  0  0  0  0
   29.8510   25.9580   42.8640 C   0  0  0  0  0  0  0  0  0  0  0  0
   29.4480   25.9340   41.5020 N   0  0  0  0  0  0  0  0  0  0  0  0
   31.1290   25.9260   43.2530 N   0  0  0  0  0  0  0  0  0  0  0  0
   31.4320   25.9530   44.5640 C   0  0  0  0  0  0  0  0  0  0  0  0
   32.6270   25.9230   44.9570 O   0  0  0  0  0  0  0  0  0  0  0  0
   30.1570   25.8910   40.7560 H   0  0  0  0  0  0  0  0  0  0  0  0
   28.4470   25.9600   41.2610 H   0  0  0  0  0  0  0  0  0  0  0  0
   27.4200   26.0520   43.4460 C   0  0  0  0  0  0  0  0  0  0  0  0
   26.7090   27.2220   43.4590 C   0  0  0  0  0  3  0  0  0  0  0  0
   25.3700   27.2150   43.1150 C   0  0  0  0  0  3  0  0  0  0  0  0
   24.8050   26.0300   42.7720 C   0  0  0  0  0  3  0  0  0  0  0  0
   25.4790   24.8390   42.7460 C   0  0  0  0  0  3  0  0  0  0  0  0
   26.8240   24.8390   43.0910 C   0  0  0  0  0  3  0  0  0  0  0  0
   32.0520   27.5530   48.3600 C   0  0  0  0  0  2  0  0  0  0  0  0
   33.0200   28.3770   47.6190 C   0  0  0  0  0  0  0  0  0  0  0  0
   33.0660   28.6740   46.3070 N   0  0  0  0  0  0  0  0  0  0  0  0
   34.0150   29.4430   45.7580 C   0  0  0  0  0  3  0  0  0  0  0  0
   35.0010   29.9760   46.5040 N   0  0  0  0  0  0  0  0  0  0  0  0
   35.0200   29.7170   47.8440 C   0  0  0  0  0  0  0  0  0  0  0  0
   36.0520   30.2960   48.5280 C   0  0  0  0  0  3  0  0  0  0  0  0
   36.1310   30.0760   49.8810 C   0  0  0  0  0  3  0  0  0  0  0  0
   35.1750   29.2890   50.4960 C   0  0  0  0  0  3  0  0  0  0  0  0
   34.1580   28.7350   49.7470 C   0  0  0  0  0  3  0  0  0  0  0  0
   34.0320   28.9230   48.3870 C   0  0  0  0  0  0  0  0  0  0  0  0
  1  2  1  6  0  0  0
  1 29  1  0  0  0  0
  1  7  1  0  0  0  0
  3  4  1  0  0  0  0
  4  5  2  0  0  0  0
  4  9  1  0  0  0  0
  6  5  1  0  0  0  0
  7  6  2  0  0  0  0
  8  7  1  0  0  0  0
  8  3  2  0  0  0  0
  9 10  1  0  0  0  0
 11  9  1  0  0  0  0
 12  1  1  0  0  0  0
 13 12  1  0  0  0  0
 14 13  1  0  0  0  0
 15 14  2  0  0  0  0
 16 18  2  0  0  0  0
 16 15  1  0  0  0  0
 17 16  1  0  0  0  0
 18 19  1  0  0  0  0
 19 20  2  0  0  0  0
 19 13  1  0  0  0  0
 21 17  1  0  0  0  0
 22 17  1  0  0  0  0
 23 24  1  0  0  0  0
 23 15  1  0  0  0  0
 25 24  2  0  0  0  0
 26 25  1  0  0  0  0
 27 26  2  0  0  0  0
 27 28  1  0  0  0  0
 28 23  2  0  0  0  0
 30 29  1  0  0  0  0
 30 39  1  0  0  0  0
 31 30  2  0  0  0  0
 32 31  1  0  0  0  0
 32 33  2  0  0  0  0
 33 34  1  0  0  0  0
 34 39  2  0  0  0  0
 34 35  1  0  0  0  0
 35 36  2  0  0  0  0
 36 37  1  0  0  0  0
 38 37  2  0  0  0  0
 39 38  1  0  0  0  0
M  END
>  <minimizedAffinity>
-6.75257874

$$$$
