
 OpenBabel03272514493D

 35 40  0  0  0  0  0  0  0  0999 V2000
   32.2500   31.0230   43.1550 C   0  0  0  0  0  0  0  0  0  0  0  0
   30.9050   31.4560   43.3240 C   0  0  0  0  0  3  0  0  0  0  0  0
   30.3400   31.2720   44.5600 C   0  0  0  0  0  3  0  0  0  0  0  0
   31.1250   30.6990   45.4870 N   0  0  0  0  0  0  0  0  0  0  0  0
   32.3520   30.2960   45.3580 C   0  0  0  0  0  0  0  0  0  0  0  0
   32.9250   30.4660   44.1550 N   0  0  0  0  0  0  0  0  0  0  0  0
   32.9390   29.7310   46.4980 N   0  0  0  0  0  0  0  0  0  0  0  0
   33.9660   30.3970   47.0920 C   0  0  0  0  0  3  0  0  0  0  0  0
   34.3930   29.6750   48.1850 C   0  0  0  0  0  0  0  0  0  0  0  0
   33.6270   28.5850   48.2440 N   0  0  0  0  0  0  0  0  0  0  0  0
   32.7200   28.6140   47.1950 C   0  0  0  0  0  0  0  0  0  0  0  0
   31.7670   27.5880   46.9410 C   0  0  0  0  0  0  0  0  0  0  0  0
   31.9750   26.5930   45.9660 C   0  0  0  0  0  3  0  0  0  0  0  0
   30.8830   25.7660   45.9270 N   0  0  0  0  0  0  0  0  0  0  0  0
   29.9910   26.2560   46.8890 C   0  0  0  0  0  3  0  0  0  0  0  0
   30.5830   27.3110   47.4330 N   0  0  0  0  0  0  0  0  0  0  0  0
   29.6760   27.6940   48.4250 C   0  0  0  0  0  0  0  0  0  0  0  0
   29.8670   27.0220   49.5660 N   0  0  0  0  0  0  0  0  0  0  0  0
   29.0280   27.2340   50.6160 C   0  0  0  0  0  3  0  0  0  0  0  0
   28.0050   28.0830   50.5890 N   0  0  0  0  0  0  0  0  0  0  0  0
   27.7760   28.7850   49.4570 C   0  0  0  0  0  0  0  0  0  0  0  0
   26.7610   29.6860   49.2910 C   0  0  0  0  0  3  0  0  0  0  0  0
   26.5760   30.3610   48.1250 C   0  0  0  0  0  3  0  0  0  0  0  0
   27.4430   30.1320   47.0600 C   0  0  0  0  0  3  0  0  0  0  0  0
   28.4810   29.2390   47.1660 C   0  0  0  0  0  3  0  0  0  0  0  0
   28.6220   28.5890   48.3610 C   0  0  0  0  0  0  0  0  0  0  0  0
   35.4780   29.9940   49.1390 C   0  0  0  0  0  0  0  0  0  0  0  0
   35.6500   29.1020   50.2040 C   0  0  0  0  0  3  0  0  0  0  0  0
   36.6690   29.4470   51.0570 C   0  0  0  0  0  3  0  0  0  0  0  0
   37.4410   30.5600   50.8810 C   0  0  0  0  0  3  0  0  0  0  0  0
   37.2260   31.3930   49.8240 C   0  0  0  0  0  3  0  0  0  0  0  0
   36.2370   31.0860   48.9690 N   0  0  0  0  0  0  0  0  0  0  0  0
   32.8860   31.2140   41.8740 N   0  0  0  0  0  0  0  0  0  0  0  0
   33.8580   30.9080   41.7310 H   0  0  0  0  0  0  0  0  0  0  0  0
   32.3660   31.6570   41.1030 H   0  0  0  0  0  0  0  0  0  0  0  0
  1  2  2  0  0  0  0
  1  6  1  0  0  0  0
  2  3  1  0  0  0  0
  3  4  2  0  0  0  0
  5  4  1  0  0  0  0
  5  7  1  0  0  0  0
  6  5  2  0  0  0  0
  7  8  1  0  0  0  0
  7 11  1  0  0  0  0
  8  9  2  0  0  0  0
  9 10  1  0  0  0  0
  9 27  1  0  0  0  0
 11 10  2  0  0  0  0
 12 11  1  0  0  0  0
 12 16  1  0  0  0  0
 13 12  2  0  0  0  0
 14 13  1  0  0  0  0
 14 15  2  0  0  0  0
 15 16  1  0  0  0  0
 16 17  1  0  0  0  0
 17 18  1  0  0  0  0
 18 19  2  0  0  0  0
 20 19  1  0  0  0  0
 21 20  2  0  0  0  0
 22 21  1  0  0  0  0
 23 22  2  0  0  0  0
 24 25  2  0  0  0  0
 24 23  1  0  0  0  0
 25 26  1  0  0  0  0
 26 17  2  0  0  0  0
 26 21  1  0  0  0  0
 27 28  1  0  0  0  0
 28 29  2  0  0  0  0
 30 29  1  0  0  0  0
 31 30  2  0  0  0  0
 32 27  2  0  0  0  0
 32 31  1  0  0  0  0
 33  1  1  0  0  0  0
 34 33  1  0  0  0  0
 35 33  1  0  0  0  0
M  END
>  <minimizedAffinity>
-8.09248447

$$$$

 OpenBabel03272514493D

 35 40  0  0  0  0  0  0  0  0999 V2000
   32.1630   31.4320   44.1270 C   0  0  0  0  0  0  0  0  0  0  0  0
   32.2960   30.6420   42.9510 C   0  0  0  0  0  3  0  0  0  0  0  0
   31.6640   29.4250   42.9420 C   0  0  0  0  0  3  0  0  0  0  0  0
   30.9810   29.1070   44.0540 N   0  0  0  0  0  0  0  0  0  0  0  0
   30.8450   29.8100   45.1380 C   0  0  0  0  0  0  0  0  0  0  0  0
   31.4560   31.0050   45.1680 N   0  0  0  0  0  0  0  0  0  0  0  0
   30.0680   29.2350   46.1520 N   0  0  0  0  0  0  0  0  0  0  0  0
   28.8820   29.8210   46.4670 C   0  0  0  0  0  3  0  0  0  0  0  0
   28.2850   29.1030   47.4810 C   0  0  0  0  0  0  0  0  0  0  0  0
   29.1070   28.0940   47.7680 N   0  0  0  0  0  0  0  0  0  0  0  0
   30.2210   28.1720   46.9440 C   0  0  0  0  0  0  0  0  0  0  0  0
   31.3150   27.2640   47.0020 C   0  0  0  0  0  0  0  0  0  0  0  0
   31.1330   25.8700   47.0910 C   0  0  0  0  0  3  0  0  0  0  0  0
   32.3570   25.2590   47.1590 N   0  0  0  0  0  0  0  0  0  0  0  0
   33.3060   26.2860   47.1090 C   0  0  0  0  0  3  0  0  0  0  0  0
   32.6180   27.4160   47.0150 N   0  0  0  0  0  0  0  0  0  0  0  0
   33.6240   28.3790   46.8930 C   0  0  0  0  0  0  0  0  0  0  0  0
   34.0180   28.5350   45.6250 N   0  0  0  0  0  0  0  0  0  0  0  0
   35.0340   29.3940   45.3400 C   0  0  0  0  0  3  0  0  0  0  0  0
   35.6810   30.1090   46.2570 N   0  0  0  0  0  0  0  0  0  0  0  0
   35.3130   29.9840   47.5510 C   0  0  0  0  0  0  0  0  0  0  0  0
   35.8930   30.6550   48.5930 C   0  0  0  0  0  3  0  0  0  0  0  0
   35.4840   30.4850   49.8790 C   0  0  0  0  0  3  0  0  0  0  0  0
   34.4430   29.6010   50.1530 C   0  0  0  0  0  3  0  0  0  0  0  0
   33.8220   28.9000   49.1490 C   0  0  0  0  0  3  0  0  0  0  0  0
   34.2720   29.1090   47.8740 C   0  0  0  0  0  0  0  0  0  0  0  0
   26.9910   29.3520   48.1530 C   0  0  0  0  0  0  0  0  0  0  0  0
   26.3720   28.2420   48.7410 C   0  0  0  0  0  3  0  0  0  0  0  0
   25.1760   28.5320   49.3500 C   0  0  0  0  0  3  0  0  0  0  0  0
   24.6410   29.7870   49.3760 C   0  0  0  0  0  3  0  0  0  0  0  0
   25.2890   30.8320   48.7870 C   0  0  0  0  0  3  0  0  0  0  0  0
   26.4620   30.5850   48.1820 N   0  0  0  0  0  0  0  0  0  0  0  0
   32.7990   32.7270   44.1690 N   0  0  0  0  0  0  0  0  0  0  0  0
   32.7150   33.3150   45.0110 H   0  0  0  0  0  0  0  0  0  0  0  0
   33.3370   33.0630   43.3580 H   0  0  0  0  0  0  0  0  0  0  0  0
  1 33  1  0  0  0  0
  1  6  1  0  0  0  0
  2  1  2  0  0  0  0
  3  2  1  0  0  0  0
  3  4  2  0  0  0  0
  4  5  1  0  0  0  0
  5  6  2  0  0  0  0
  5  7  1  0  0  0  0
  7  8  1  0  0  0  0
  7 11  1  0  0  0  0
  8  9  2  0  0  0  0
  9 10  1  0  0  0  0
  9 27  1  0  0  0  0
 11 12  1  0  0  0  0
 11 10  2  0  0  0  0
 12 16  1  0  0  0  0
 12 13  2  0  0  0  0
 13 14  1  0  0  0  0
 15 14  2  0  0  0  0
 16 15  1  0  0  0  0
 17 16  1  0  0  0  0
 17 26  1  0  0  0  0
 18 17  2  0  0  0  0
 19 18  1  0  0  0  0
 19 20  2  0  0  0  0
 20 21  1  0  0  0  0
 21 26  2  0  0  0  0
 21 22  1  0  0  0  0
 22 23  2  0  0  0  0
 23 24  1  0  0  0  0
 25 24  2  0  0  0  0
 26 25  1  0  0  0  0
 27 32  2  0  0  0  0
 27 28  1  0  0  0  0
 28 29  2  0  0  0  0
 29 30  1  0  0  0  0
 31 30  2  0  0  0  0
 32 31  1  0  0  0  0
 33 34  1  0  0  0  0
 35 33  1  0  0  0  0
M  END
>  <minimizedAffinity>
-7.686306

$$$$

 OpenBabel03272514493D

 35 40  0  0  0  0  0  0  0  0999 V2000
   31.3250   32.1160   42.0500 C   0  0  0  0  0  0  0  0  0  0  0  0
   30.1810   32.9140   42.3280 C   0  0  0  0  0  3  0  0  0  0  0  0
   29.5950   32.7590   43.5590 C   0  0  0  0  0  3  0  0  0  0  0  0
   30.1720   31.8640   44.3770 N   0  0  0  0  0  0  0  0  0  0  0  0
   31.2140   31.1240   44.1460 C   0  0  0  0  0  0  0  0  0  0  0  0
   31.8030   31.2600   42.9470 N   0  0  0  0  0  0  0  0  0  0  0  0
   31.6070   30.2700   45.1860 N   0  0  0  0  0  0  0  0  0  0  0  0
   32.7930   30.5120   45.8060 C   0  0  0  0  0  3  0  0  0  0  0  0
   32.9850   29.5640   46.7880 C   0  0  0  0  0  0  0  0  0  0  0  0
   31.9210   28.7620   46.7540 N   0  0  0  0  0  0  0  0  0  0  0  0
   31.0590   29.1960   45.7580 C   0  0  0  0  0  0  0  0  0  0  0  0
   29.8340   28.5500   45.4300 C   0  0  0  0  0  0  0  0  0  0  0  0
   29.7030   27.7130   44.3050 C   0  0  0  0  0  3  0  0  0  0  0  0
   28.4130   27.2590   44.2290 N   0  0  0  0  0  0  0  0  0  0  0  0
   27.7400   27.8210   45.3200 C   0  0  0  0  0  3  0  0  0  0  0  0
   28.6380   28.5520   45.9670 N   0  0  0  0  0  0  0  0  0  0  0  0
   27.9190   29.0130   47.0740 C   0  0  0  0  0  0  0  0  0  0  0  0
   27.9350   28.1360   48.0830 N   0  0  0  0  0  0  0  0  0  0  0  0
   27.2310   28.4050   49.2150 C   0  0  0  0  0  3  0  0  0  0  0  0
   26.5100   29.5090   49.3970 N   0  0  0  0  0  0  0  0  0  0  0  0
   26.4680   30.4240   48.4040 C   0  0  0  0  0  0  0  0  0  0  0  0
   25.7660   31.5970   48.4550 C   0  0  0  0  0  3  0  0  0  0  0  0
   25.7560   32.4800   47.4200 C   0  0  0  0  0  3  0  0  0  0  0  0
   26.4810   32.1880   46.2670 C   0  0  0  0  0  3  0  0  0  0  0  0
   27.2050   31.0260   46.1570 C   0  0  0  0  0  3  0  0  0  0  0  0
   27.1820   30.1740   47.2270 C   0  0  0  0  0  0  0  0  0  0  0  0
   34.1220   29.4160   47.7220 C   0  0  0  0  0  0  0  0  0  0  0  0
   33.9910   28.4310   48.7090 C   0  0  0  0  0  3  0  0  0  0  0  0
   35.0740   28.3390   49.5470 C   0  0  0  0  0  3  0  0  0  0  0  0
   36.1760   29.1350   49.4280 C   0  0  0  0  0  3  0  0  0  0  0  0
   36.2490   30.0780   48.4460 C   0  0  0  0  0  3  0  0  0  0  0  0
   35.2070   30.1970   47.6080 N   0  0  0  0  0  0  0  0  0  0  0  0
   31.9800   32.2620   40.7720 N   0  0  0  0  0  0  0  0  0  0  0  0
   32.8090   31.6940   40.5510 H   0  0  0  0  0  0  0  0  0  0  0  0
   31.6160   32.9340   40.0820 H   0  0  0  0  0  0  0  0  0  0  0  0
  1  2  2  0  0  0  0
  1  6  1  0  0  0  0
  2  3  1  0  0  0  0
  3  4  2  0  0  0  0
  5  4  1  0  0  0  0
  5  7  1  0  0  0  0
  6  5  2  0  0  0  0
  7 11  1  0  0  0  0
  7  8  1  0  0  0  0
  8  9  2  0  0  0  0
  9 27  1  0  0  0  0
 10  9  1  0  0  0  0
 11 10  2  0  0  0  0
 12 11  1  0  0  0  0
 12 16  1  0  0  0  0
 13 12  2  0  0  0  0
 14 13  1  0  0  0  0
 14 15  2  0  0  0  0
 15 16  1  0  0  0  0
 16 17  1  0  0  0  0
 17 26  2  0  0  0  0
 17 18  1  0  0  0  0
 18 19  2  0  0  0  0
 19 20  1  0  0  0  0
 21 22  1  0  0  0  0
 21 20  2  0  0  0  0
 23 22  2  0  0  0  0
 24 23  1  0  0  0  0
 25 24  2  0  0  0  0
 25 26  1  0  0  0  0
 26 21  1  0  0  0  0
 27 28  1  0  0  0  0
 28 29  2  0  0  0  0
 30 29  1  0  0  0  0
 31 30  2  0  0  0  0
 32 27  2  0  0  0  0
 32 31  1  0  0  0  0
 33  1  1  0  0  0  0
 34 33  1  0  0  0  0
 35 33  1  0  0  0  0
M  END
>  <minimizedAffinity>
-7.30674028

$$$$

 OpenBabel03272514493D

 35 40  0  0  0  0  0  0  0  0999 V2000
   30.3530   31.0940   42.7930 C   0  0  0  0  0  0  0  0  0  0  0  0
   29.0510   31.4030   43.2770 C   0  0  0  0  0  3  0  0  0  0  0  0
   28.7990   31.1450   44.6010 C   0  0  0  0  0  3  0  0  0  0  0  0
   29.8190   30.6260   45.3040 N   0  0  0  0  0  0  0  0  0  0  0  0
   31.0130   30.3350   44.8860 C   0  0  0  0  0  0  0  0  0  0  0  0
   31.2810   30.5790   43.5930 N   0  0  0  0  0  0  0  0  0  0  0  0
   31.8890   29.8020   45.8420 N   0  0  0  0  0  0  0  0  0  0  0  0
   32.9660   30.5440   46.2150 C   0  0  0  0  0  3  0  0  0  0  0  0
   33.6890   29.8410   47.1540 C   0  0  0  0  0  0  0  0  0  0  0  0
   33.0470   28.6870   47.3410 N   0  0  0  0  0  0  0  0  0  0  0  0
   31.9260   28.6570   46.5260 C   0  0  0  0  0  0  0  0  0  0  0  0
   31.0270   27.5560   46.4530 C   0  0  0  0  0  0  0  0  0  0  0  0
   31.1170   26.5760   45.4450 C   0  0  0  0  0  3  0  0  0  0  0  0
   30.1090   25.6640   45.6130 N   0  0  0  0  0  0  0  0  0  0  0  0
   29.3890   26.0840   46.7370 C   0  0  0  0  0  3  0  0  0  0  0  0
   29.9900   27.1850   47.1660 N   0  0  0  0  0  0  0  0  0  0  0  0
   29.2690   27.4980   48.3230 C   0  0  0  0  0  0  0  0  0  0  0  0
   29.7360   26.8490   49.3950 N   0  0  0  0  0  0  0  0  0  0  0  0
   29.1080   26.9960   50.5920 C   0  0  0  0  0  3  0  0  0  0  0  0
   28.0350   27.7600   50.7790 N   0  0  0  0  0  0  0  0  0  0  0  0
   27.5310   28.4360   49.7230 C   0  0  0  0  0  0  0  0  0  0  0  0
   26.4340   29.2510   49.7720 C   0  0  0  0  0  3  0  0  0  0  0  0
   25.9680   29.9040   48.6730 C   0  0  0  0  0  3  0  0  0  0  0  0
   26.6220   29.7410   47.4550 C   0  0  0  0  0  3  0  0  0  0  0  0
   27.7290   28.9360   47.3430 C   0  0  0  0  0  3  0  0  0  0  0  0
   28.1560   28.3040   48.4790 C   0  0  0  0  0  0  0  0  0  0  0  0
   34.9320   30.2360   47.8510 C   0  0  0  0  0  0  0  0  0  0  0  0
   34.8740   30.2810   49.2490 C   0  0  0  0  0  3  0  0  0  0  0  0
   36.0550   30.6530   49.8410 C   0  0  0  0  0  3  0  0  0  0  0  0
   37.1810   30.9520   49.1310 C   0  0  0  0  0  3  0  0  0  0  0  0
   37.1800   30.8900   47.7690 C   0  0  0  0  0  3  0  0  0  0  0  0
   36.0410   30.5290   47.1550 N   0  0  0  0  0  0  0  0  0  0  0  0
   30.6620   31.3650   41.4100 N   0  0  0  0  0  0  0  0  0  0  0  0
   31.5980   31.1490   41.0400 H   0  0  0  0  0  0  0  0  0  0  0  0
   29.9460   31.7750   40.7940 H   0  0  0  0  0  0  0  0  0  0  0  0
  1  2  2  0  0  0  0
  1  6  1  0  0  0  0
  2  3  1  0  0  0  0
  3  4  2  0  0  0  0
  5  4  1  0  0  0  0
  5  7  1  0  0  0  0
  6  5  2  0  0  0  0
  7  8  1  0  0  0  0
  7 11  1  0  0  0  0
  8  9  2  0  0  0  0
  9 10  1  0  0  0  0
  9 27  1  0  0  0  0
 11 10  2  0  0  0  0
 12 11  1  0  0  0  0
 12 16  1  0  0  0  0
 13 14  1  0  0  0  0
 13 12  2  0  0  0  0
 14 15  2  0  0  0  0
 15 16  1  0  0  0  0
 16 17  1  0  0  0  0
 17 26  2  0  0  0  0
 17 18  1  0  0  0  0
 18 19  2  0  0  0  0
 19 20  1  0  0  0  0
 21 22  1  0  0  0  0
 21 20  2  0  0  0  0
 23 22  2  0  0  0  0
 24 23  1  0  0  0  0
 25 24  2  0  0  0  0
 25 26  1  0  0  0  0
 26 21  1  0  0  0  0
 27 28  1  0  0  0  0
 28 29  2  0  0  0  0
 30 29  1  0  0  0  0
 31 30  2  0  0  0  0
 32 31  1  0  0  0  0
 32 27  2  0  0  0  0
 33  1  1  0  0  0  0
 34 33  1  0  0  0  0
 35 33  1  0  0  0  0
M  END
>  <minimizedAffinity>
-7.2668786

$$$$

 OpenBabel03272514493D

 35 40  0  0  0  0  0  0  0  0999 V2000
   25.7120   33.1440   44.7100 C   0  0  0  0  0  0  0  0  0  0  0  0
   25.3570   32.5670   43.4580 C   0  0  0  0  0  3  0  0  0  0  0  0
   25.7840   31.2860   43.2180 C   0  0  0  0  0  3  0  0  0  0  0  0
   26.4950   30.7080   44.1990 N   0  0  0  0  0  0  0  0  0  0  0  0
   26.8320   31.2120   45.3470 C   0  0  0  0  0  0  0  0  0  0  0  0
   26.4250   32.4660   45.6030 N   0  0  0  0  0  0  0  0  0  0  0  0
   27.5800   30.3810   46.1910 N   0  0  0  0  0  0  0  0  0  0  0  0
   27.0060   29.9480   47.3460 C   0  0  0  0  0  3  0  0  0  0  0  0
   27.9060   29.1510   48.0200 C   0  0  0  0  0  0  0  0  0  0  0  0
   29.0100   29.1070   47.2730 N   0  0  0  0  0  0  0  0  0  0  0  0
   28.8130   29.8730   46.1330 C   0  0  0  0  0  0  0  0  0  0  0  0
   29.8020   30.0680   45.1280 C   0  0  0  0  0  0  0  0  0  0  0  0
   29.4930   30.6110   43.8650 C   0  0  0  0  0  3  0  0  0  0  0  0
   30.6310   30.6520   43.1030 N   0  0  0  0  0  0  0  0  0  0  0  0
   31.6530   30.1310   43.9040 C   0  0  0  0  0  3  0  0  0  0  0  0
   31.0880   29.8200   45.0630 N   0  0  0  0  0  0  0  0  0  0  0  0
   32.1740   29.3830   45.8270 C   0  0  0  0  0  0  0  0  0  0  0  0
   32.8050   30.3980   46.4280 N   0  0  0  0  0  0  0  0  0  0  0  0
   33.9210   30.1500   47.1640 C   0  0  0  0  0  3  0  0  0  0  0  0
   34.4460   28.9390   47.3340 N   0  0  0  0  0  0  0  0  0  0  0  0
   33.8390   27.8840   46.7460 C   0  0  0  0  0  0  0  0  0  0  0  0
   34.2710   26.5890   46.8340 C   0  0  0  0  0  3  0  0  0  0  0  0
   33.6220   25.5670   46.2160 C   0  0  0  0  0  3  0  0  0  0  0  0
   32.4800   25.8380   45.4650 C   0  0  0  0  0  3  0  0  0  0  0  0
   31.9980   27.1180   45.3400 C   0  0  0  0  0  3  0  0  0  0  0  0
   32.6880   28.1080   45.9830 C   0  0  0  0  0  0  0  0  0  0  0  0
   27.7380   28.4550   49.3140 C   0  0  0  0  0  0  0  0  0  0  0  0
   28.8450   27.7380   49.7830 C   0  0  0  0  0  3  0  0  0  0  0  0
   28.6320   27.1140   50.9870 C   0  0  0  0  0  3  0  0  0  0  0  0
   27.4480   27.1850   51.6620 C   0  0  0  0  0  3  0  0  0  0  0  0
   26.4020   27.9000   51.1570 C   0  0  0  0  0  3  0  0  0  0  0  0
   26.5760   28.5240   49.9810 N   0  0  0  0  0  0  0  0  0  0  0  0
   25.2680   34.4840   45.0080 N   0  0  0  0  0  0  0  0  0  0  0  0
   25.5140   34.9200   45.9070 H   0  0  0  0  0  0  0  0  0  0  0  0
   24.7050   35.0040   44.3200 H   0  0  0  0  0  0  0  0  0  0  0  0
  1 33  1  0  0  0  0
  1  6  1  0  0  0  0
  2  1  2  0  0  0  0
  3  2  1  0  0  0  0
  3  4  2  0  0  0  0
  4  5  1  0  0  0  0
  5  6  2  0  0  0  0
  5  7  1  0  0  0  0
  7  8  1  0  0  0  0
  8  9  2  0  0  0  0
  9 27  1  0  0  0  0
 10  9  1  0  0  0  0
 11  7  1  0  0  0  0
 11 10  2  0  0  0  0
 12 11  1  0  0  0  0
 13 12  2  0  0  0  0
 14 13  1  0  0  0  0
 14 15  2  0  0  0  0
 15 16  1  0  0  0  0
 16 12  1  0  0  0  0
 16 17  1  0  0  0  0
 17 26  2  0  0  0  0
 17 18  1  0  0  0  0
 18 19  2  0  0  0  0
 19 20  1  0  0  0  0
 21 22  1  0  0  0  0
 21 20  2  0  0  0  0
 23 22  2  0  0  0  0
 24 23  1  0  0  0  0
 25 24  2  0  0  0  0
 25 26  1  0  0  0  0
 26 21  1  0  0  0  0
 27 28  2  0  0  0  0
 27 32  1  0  0  0  0
 28 29  1  0  0  0  0
 29 30  2  0  0  0  0
 31 30  1  0  0  0  0
 32 31  2  0  0  0  0
 33 34  1  0  0  0  0
 35 33  1  0  0  0  0
M  END
>  <minimizedAffinity>
-7.22515202

$$$$

 OpenBabel03272514493D

 35 40  0  0  0  0  0  0  0  0999 V2000
   33.0670   29.9580   46.2250 C   0  0  0  0  0  0  0  0  0  0  0  0
   33.7340   29.0740   45.3320 C   0  0  0  0  0  3  0  0  0  0  0  0
   33.0000   28.5670   44.2910 C   0  0  0  0  0  3  0  0  0  0  0  0
   31.7190   28.9650   44.2250 N   0  0  0  0  0  0  0  0  0  0  0  0
   31.0880   29.7680   45.0260 C   0  0  0  0  0  0  0  0  0  0  0  0
   31.7880   30.2760   46.0530 N   0  0  0  0  0  0  0  0  0  0  0  0
   29.7430   30.0170   44.7190 N   0  0  0  0  0  0  0  0  0  0  0  0
   29.3920   31.2700   44.3260 C   0  0  0  0  0  3  0  0  0  0  0  0
   28.0370   31.2960   44.0760 C   0  0  0  0  0  0  0  0  0  0  0  0
   27.5820   30.0660   44.3170 N   0  0  0  0  0  0  0  0  0  0  0  0
   28.6410   29.2650   44.7190 C   0  0  0  0  0  0  0  0  0  0  0  0
   28.5060   27.8950   45.0840 C   0  0  0  0  0  0  0  0  0  0  0  0
   28.2260   26.8900   44.1380 C   0  0  0  0  0  3  0  0  0  0  0  0
   28.1260   25.6830   44.7810 N   0  0  0  0  0  0  0  0  0  0  0  0
   28.3480   25.9470   46.1370 C   0  0  0  0  0  3  0  0  0  0  0  0
   28.5640   27.2530   46.2260 N   0  0  0  0  0  0  0  0  0  0  0  0
   28.8520   27.4250   47.5830 C   0  0  0  0  0  0  0  0  0  0  0  0
   30.1440   27.2110   47.8530 N   0  0  0  0  0  0  0  0  0  0  0  0
   30.5790   27.2800   49.1400 C   0  0  0  0  0  3  0  0  0  0  0  0
   29.7910   27.5530   50.1770 N   0  0  0  0  0  0  0  0  0  0  0  0
   28.4780   27.7780   49.9490 C   0  0  0  0  0  0  0  0  0  0  0  0
   27.5580   28.0640   50.9190 C   0  0  0  0  0  3  0  0  0  0  0  0
   26.2460   28.2770   50.6310 C   0  0  0  0  0  3  0  0  0  0  0  0
   25.8170   28.2010   49.3090 C   0  0  0  0  0  3  0  0  0  0  0  0
   26.6940   27.9180   48.2910 C   0  0  0  0  0  3  0  0  0  0  0  0
   28.0020   27.7140   48.6360 C   0  0  0  0  0  0  0  0  0  0  0  0
   27.2000   32.4300   43.6270 C   0  0  0  0  0  0  0  0  0  0  0  0
   26.0270   32.6640   44.3560 C   0  0  0  0  0  3  0  0  0  0  0  0
   25.2910   33.7260   43.8950 C   0  0  0  0  0  3  0  0  0  0  0  0
   25.6680   34.4830   42.8230 C   0  0  0  0  0  3  0  0  0  0  0  0
   26.8220   34.2090   42.1500 C   0  0  0  0  0  3  0  0  0  0  0  0
   27.5680   33.1750   42.5750 N   0  0  0  0  0  0  0  0  0  0  0  0
   33.8100   30.5260   47.3250 N   0  0  0  0  0  0  0  0  0  0  0  0
   33.3460   31.1680   47.9830 H   0  0  0  0  0  0  0  0  0  0  0  0
   34.8040   30.2880   47.4510 H   0  0  0  0  0  0  0  0  0  0  0  0
  1 33  1  0  0  0  0
  2  1  2  0  0  0  0
  3  2  1  0  0  0  0
  4  3  2  0  0  0  0
  4  5  1  0  0  0  0
  5  6  2  0  0  0  0
  6  1  1  0  0  0  0
  7 11  1  0  0  0  0
  7  5  1  0  0  0  0
  8  7  1  0  0  0  0
  9 10  1  0  0  0  0
  9  8  2  0  0  0  0
 10 11  2  0  0  0  0
 11 12  1  0  0  0  0
 12 16  1  0  0  0  0
 13 14  1  0  0  0  0
 13 12  2  0  0  0  0
 14 15  2  0  0  0  0
 15 16  1  0  0  0  0
 16 17  1  0  0  0  0
 17 18  2  0  0  0  0
 17 26  1  0  0  0  0
 18 19  1  0  0  0  0
 19 20  2  0  0  0  0
 21 20  1  0  0  0  0
 21 22  1  0  0  0  0
 23 22  2  0  0  0  0
 24 23  1  0  0  0  0
 25 26  1  0  0  0  0
 25 24  2  0  0  0  0
 26 21  2  0  0  0  0
 27  9  1  0  0  0  0
 27 28  1  0  0  0  0
 29 28  2  0  0  0  0
 30 29  1  0  0  0  0
 31 32  1  0  0  0  0
 31 30  2  0  0  0  0
 32 27  2  0  0  0  0
 33 35  1  0  0  0  0
 33 34  1  0  0  0  0
M  END
>  <minimizedAffinity>
-7.04711151

$$$$

 OpenBabel03272514493D

 35 40  0  0  0  0  0  0  0  0999 V2000
   26.4010   31.9620   43.6000 C   0  0  0  0  0  0  0  0  0  0  0  0
   25.4220   31.4170   42.7220 C   0  0  0  0  0  3  0  0  0  0  0  0
   25.1780   30.0710   42.8180 C   0  0  0  0  0  3  0  0  0  0  0  0
   25.8940   29.4070   43.7400 N   0  0  0  0  0  0  0  0  0  0  0  0
   26.7910   29.8810   44.5500 C   0  0  0  0  0  0  0  0  0  0  0  0
   27.0460   31.1970   44.4730 N   0  0  0  0  0  0  0  0  0  0  0  0
   27.3870   28.9570   45.4200 N   0  0  0  0  0  0  0  0  0  0  0  0
   27.1410   29.0740   46.7520 C   0  0  0  0  0  3  0  0  0  0  0  0
   27.8180   28.0760   47.4200 C   0  0  0  0  0  0  0  0  0  0  0  0
   28.4630   27.3670   46.4920 N   0  0  0  0  0  0  0  0  0  0  0  0
   28.1990   27.9130   45.2440 C   0  0  0  0  0  0  0  0  0  0  0  0
   28.7520   27.4180   44.0290 C   0  0  0  0  0  0  0  0  0  0  0  0
   29.5550   28.2140   43.1890 C   0  0  0  0  0  3  0  0  0  0  0  0
   29.9160   27.4840   42.0880 N   0  0  0  0  0  0  0  0  0  0  0  0
   29.3300   26.2230   42.2500 C   0  0  0  0  0  3  0  0  0  0  0  0
   28.6770   26.2680   43.4030 N   0  0  0  0  0  0  0  0  0  0  0  0
   28.1890   24.9640   43.5310 C   0  0  0  0  0  0  0  0  0  0  0  0
   29.0860   24.1470   44.0930 N   0  0  0  0  0  0  0  0  0  0  0  0
   28.7910   22.8270   44.2350 C   0  0  0  0  0  3  0  0  0  0  0  0
   27.6440   22.2750   43.8470 N   0  0  0  0  0  0  0  0  0  0  0  0
   26.7080   23.0660   43.2760 C   0  0  0  0  0  0  0  0  0  0  0  0
   25.4900   22.6320   42.8290 C   0  0  0  0  0  3  0  0  0  0  0  0
   24.5880   23.4740   42.2570 C   0  0  0  0  0  3  0  0  0  0  0  0
   24.9070   24.8230   42.1170 C   0  0  0  0  0  3  0  0  0  0  0  0
   26.1130   25.3170   42.5470 C   0  0  0  0  0  3  0  0  0  0  0  0
   26.9830   24.4280   43.1160 C   0  0  0  0  0  0  0  0  0  0  0  0
   27.8570   27.7950   48.8720 C   0  0  0  0  0  0  0  0  0  0  0  0
   29.0270   27.1970   49.3570 C   0  0  0  0  0  3  0  0  0  0  0  0
   29.0070   26.9600   50.7090 C   0  0  0  0  0  3  0  0  0  0  0  0
   27.9450   27.2770   51.5050 C   0  0  0  0  0  3  0  0  0  0  0  0
   26.8310   27.8590   50.9760 C   0  0  0  0  0  3  0  0  0  0  0  0
   26.8150   28.1060   49.6560 N   0  0  0  0  0  0  0  0  0  0  0  0
   26.6740   33.3780   43.5400 N   0  0  0  0  0  0  0  0  0  0  0  0
   27.3790   33.7930   44.1660 H   0  0  0  0  0  0  0  0  0  0  0  0
   26.1650   33.9730   42.8710 H   0  0  0  0  0  0  0  0  0  0  0  0
  1  6  1  0  0  0  0
  2  3  1  0  0  0  0
  2  1  2  0  0  0  0
  3  4  2  0  0  0  0
  4  5  1  0  0  0  0
  5  7  1  0  0  0  0
  6  5  2  0  0  0  0
  7  8  1  0  0  0  0
  8  9  2  0  0  0  0
  9 27  1  0  0  0  0
 10  9  1  0  0  0  0
 11  7  1  0  0  0  0
 11 10  2  0  0  0  0
 12 11  1  0  0  0  0
 13 12  2  0  0  0  0
 14 15  2  0  0  0  0
 14 13  1  0  0  0  0
 15 16  1  0  0  0  0
 16 17  1  0  0  0  0
 16 12  1  0  0  0  0
 17 18  1  0  0  0  0
 18 19  2  0  0  0  0
 20 19  1  0  0  0  0
 21 20  2  0  0  0  0
 22 21  1  0  0  0  0
 23 22  2  0  0  0  0
 24 23  1  0  0  0  0
 24 25  2  0  0  0  0
 25 26  1  0  0  0  0
 26 21  1  0  0  0  0
 26 17  2  0  0  0  0
 27 28  2  0  0  0  0
 27 32  1  0  0  0  0
 28 29  1  0  0  0  0
 29 30  2  0  0  0  0
 31 30  1  0  0  0  0
 32 31  2  0  0  0  0
 33  1  1  0  0  0  0
 33 34  1  0  0  0  0
 35 33  1  0  0  0  0
M  END
>  <minimizedAffinity>
-6.87744427

$$$$

 OpenBabel03272514493D

 35 40  0  0  0  0  0  0  0  0999 V2000
   32.2560   24.6600   46.0760 C   0  0  0  0  0  0  0  0  0  0  0  0
   32.4130   24.6140   44.6630 C   0  0  0  0  0  3  0  0  0  0  0  0
   32.8900   25.7440   44.0500 C   0  0  0  0  0  3  0  0  0  0  0  0
   33.1620   26.7820   44.8580 N   0  0  0  0  0  0  0  0  0  0  0  0
   33.0270   26.8480   46.1480 C   0  0  0  0  0  0  0  0  0  0  0  0
   32.5610   25.7530   46.7680 N   0  0  0  0  0  0  0  0  0  0  0  0
   33.3920   28.0630   46.7450 N   0  0  0  0  0  0  0  0  0  0  0  0
   34.4760   28.0780   47.5660 C   0  0  0  0  0  3  0  0  0  0  0  0
   34.6570   29.3590   48.0420 C   0  0  0  0  0  0  0  0  0  0  0  0
   33.6880   30.1040   47.5080 N   0  0  0  0  0  0  0  0  0  0  0  0
   32.8960   29.3010   46.6990 C   0  0  0  0  0  0  0  0  0  0  0  0
   31.7520   29.7690   45.9950 C   0  0  0  0  0  0  0  0  0  0  0  0
   31.7570   30.9750   45.2670 C   0  0  0  0  0  3  0  0  0  0  0  0
   30.5160   31.1770   44.7220 N   0  0  0  0  0  0  0  0  0  0  0  0
   29.7360   30.0840   45.1170 C   0  0  0  0  0  3  0  0  0  0  0  0
   30.5300   29.3130   45.8490 N   0  0  0  0  0  0  0  0  0  0  0  0
   29.7120   28.2170   46.1380 C   0  0  0  0  0  0  0  0  0  0  0  0
   29.7450   27.2970   45.1680 N   0  0  0  0  0  0  0  0  0  0  0  0
   28.9570   26.1930   45.2660 C   0  0  0  0  0  3  0  0  0  0  0  0
   28.1350   25.9550   46.2860 N   0  0  0  0  0  0  0  0  0  0  0  0
   28.0730   26.8570   47.2900 C   0  0  0  0  0  0  0  0  0  0  0  0
   27.2720   26.7410   48.3920 C   0  0  0  0  0  3  0  0  0  0  0  0
   27.2470   27.6850   49.3710 C   0  0  0  0  0  3  0  0  0  0  0  0
   28.0580   28.8100   49.2540 C   0  0  0  0  0  3  0  0  0  0  0  0
   28.8840   28.9830   48.1700 C   0  0  0  0  0  3  0  0  0  0  0  0
   28.8720   28.0030   47.2160 C   0  0  0  0  0  0  0  0  0  0  0  0
   35.6990   29.8670   48.9610 C   0  0  0  0  0  0  0  0  0  0  0  0
   35.9590   29.0880   50.0960 C   0  0  0  0  0  3  0  0  0  0  0  0
   36.9330   29.6070   50.9120 C   0  0  0  0  0  3  0  0  0  0  0  0
   37.5850   30.7750   50.6410 C   0  0  0  0  0  3  0  0  0  0  0  0
   37.2900   31.4920   49.5200 C   0  0  0  0  0  3  0  0  0  0  0  0
   36.3420   31.0130   48.6980 N   0  0  0  0  0  0  0  0  0  0  0  0
   31.7720   23.4850   46.7600 N   0  0  0  0  0  0  0  0  0  0  0  0
   31.6510   23.4970   47.7820 H   0  0  0  0  0  0  0  0  0  0  0  0
   31.5470   22.6340   46.2240 H   0  0  0  0  0  0  0  0  0  0  0  0
  1 33  1  0  0  0  0
  1  6  1  0  0  0  0
  2  1  2  0  0  0  0
  3  2  1  0  0  0  0
  3  4  2  0  0  0  0
  4  5  1  0  0  0  0
  5  7  1  0  0  0  0
  5  6  2  0  0  0  0
  7  8  1  0  0  0  0
  8  9  2  0  0  0  0
  9 27  1  0  0  0  0
 10  9  1  0  0  0  0
 11  7  1  0  0  0  0
 11 10  2  0  0  0  0
 12 11  1  0  0  0  0
 13 12  2  0  0  0  0
 14 15  2  0  0  0  0
 14 13  1  0  0  0  0
 15 16  1  0  0  0  0
 16 12  1  0  0  0  0
 16 17  1  0  0  0  0
 17 26  1  0  0  0  0
 18 19  1  0  0  0  0
 18 17  2  0  0  0  0
 19 20  2  0  0  0  0
 20 21  1  0  0  0  0
 21 22  1  0  0  0  0
 22 23  2  0  0  0  0
 24 23  1  0  0  0  0
 25 24  2  0  0  0  0
 26 21  2  0  0  0  0
 26 25  1  0  0  0  0
 27 28  1  0  0  0  0
 28 29  2  0  0  0  0
 30 29  1  0  0  0  0
 31 30  2  0  0  0  0
 32 27  2  0  0  0  0
 32 31  1  0  0  0  0
 33 34  1  0  0  0  0
 35 33  1  0  0  0  0
M  END
>  <minimizedAffinity>
-6.85215807

$$$$

 OpenBabel03272514493D

 35 40  0  0  0  0  0  0  0  0999 V2000
   26.1570   28.6740   49.6250 C   0  0  0  0  0  0  0  0  0  0  0  0
   27.3740   28.4980   50.3420 C   0  0  0  0  0  3  0  0  0  0  0  0
   28.5400   28.7450   49.6630 C   0  0  0  0  0  3  0  0  0  0  0  0
   28.4060   29.1310   48.3840 N   0  0  0  0  0  0  0  0  0  0  0  0
   27.3100   29.2970   47.7080 C   0  0  0  0  0  0  0  0  0  0  0  0
   26.1560   29.0610   48.3540 N   0  0  0  0  0  0  0  0  0  0  0  0
   27.4610   29.7120   46.3780 N   0  0  0  0  0  0  0  0  0  0  0  0
   27.0260   30.9550   46.0370 C   0  0  0  0  0  3  0  0  0  0  0  0
   27.2670   31.1590   44.6950 C   0  0  0  0  0  0  0  0  0  0  0  0
   27.8440   30.0460   44.2390 N   0  0  0  0  0  0  0  0  0  0  0  0
   27.9660   29.1410   45.2830 C   0  0  0  0  0  0  0  0  0  0  0  0
   28.5150   27.8360   45.1410 C   0  0  0  0  0  0  0  0  0  0  0  0
   27.7080   26.6960   44.9550 C   0  0  0  0  0  3  0  0  0  0  0  0
   28.5070   25.5860   44.8800 N   0  0  0  0  0  0  0  0  0  0  0  0
   29.8220   26.0450   45.0210 C   0  0  0  0  0  3  0  0  0  0  0  0
   29.7370   27.3600   45.1630 N   0  0  0  0  0  0  0  0  0  0  0  0
   31.0790   27.7500   45.2190 C   0  0  0  0  0  0  0  0  0  0  0  0
   31.5980   27.9350   44.0010 N   0  0  0  0  0  0  0  0  0  0  0  0
   32.9130   28.2590   43.8770 C   0  0  0  0  0  3  0  0  0  0  0  0
   33.7420   28.4110   44.9070 N   0  0  0  0  0  0  0  0  0  0  0  0
   33.2580   28.2360   46.1560 C   0  0  0  0  0  0  0  0  0  0  0  0
   33.9960   28.3570   47.3010 C   0  0  0  0  0  3  0  0  0  0  0  0
   33.4560   28.1640   48.5340 C   0  0  0  0  0  3  0  0  0  0  0  0
   32.1080   27.8310   48.6440 C   0  0  0  0  0  3  0  0  0  0  0  0
   31.3150   27.6960   47.5300 C   0  0  0  0  0  3  0  0  0  0  0  0
   31.9090   27.9020   46.3150 C   0  0  0  0  0  0  0  0  0  0  0  0
   26.9710   32.3520   43.8720 C   0  0  0  0  0  0  0  0  0  0  0  0
   25.7710   33.0170   44.1520 C   0  0  0  0  0  3  0  0  0  0  0  0
   25.5480   34.1150   43.3580 C   0  0  0  0  0  3  0  0  0  0  0  0
   26.4170   34.5180   42.3860 C   0  0  0  0  0  3  0  0  0  0  0  0
   27.5720   33.8300   42.1580 C   0  0  0  0  0  3  0  0  0  0  0  0
   27.8230   32.7510   42.9160 N   0  0  0  0  0  0  0  0  0  0  0  0
   24.9090   28.4390   50.3090 N   0  0  0  0  0  0  0  0  0  0  0  0
   24.0170   28.5600   49.8090 H   0  0  0  0  0  0  0  0  0  0  0  0
   24.9100   28.1510   51.2980 H   0  0  0  0  0  0  0  0  0  0  0  0
  1 33  1  0  0  0  0
  1  2  1  0  0  0  0
  3  2  2  0  0  0  0
  4  3  1  0  0  0  0
  5  6  1  0  0  0  0
  5  4  2  0  0  0  0
  6  1  2  0  0  0  0
  7  5  1  0  0  0  0
  8  7  1  0  0  0  0
  9  8  2  0  0  0  0
 10  9  1  0  0  0  0
 10 11  2  0  0  0  0
 11  7  1  0  0  0  0
 12 16  1  0  0  0  0
 12 11  1  0  0  0  0
 13 12  2  0  0  0  0
 14 13  1  0  0  0  0
 14 15  2  0  0  0  0
 15 16  1  0  0  0  0
 16 17  1  0  0  0  0
 17 26  1  0  0  0  0
 18 17  2  0  0  0  0
 19 18  1  0  0  0  0
 19 20  2  0  0  0  0
 20 21  1  0  0  0  0
 21 26  2  0  0  0  0
 21 22  1  0  0  0  0
 22 23  2  0  0  0  0
 23 24  1  0  0  0  0
 25 24  2  0  0  0  0
 26 25  1  0  0  0  0
 27 28  1  0  0  0  0
 27  9  1  0  0  0  0
 29 28  2  0  0  0  0
 30 29  1  0  0  0  0
 31 30  2  0  0  0  0
 31 32  1  0  0  0  0
 32 27  2  0  0  0  0
 33 35  1  0  0  0  0
 34 33  1  0  0  0  0
M  END
>  <minimizedAffinity>
-6.67733812

$$$$
