
 OpenBabel03272514333D

 36 42  0  0  0  0  0  0  0  0999 V2000
   30.0090   28.0660   48.6990 N   0  0  0  0  0  0  0  0  0  0  0  0
   29.2840   27.6490   49.7490 C   0  0  0  0  0  3  0  0  0  0  0  0
   28.1270   28.2760   49.7990 N   0  0  0  0  0  0  0  0  0  0  0  0
   28.1000   29.1240   48.7500 C   0  0  0  0  0  0  0  0  0  0  0  0
   29.2750   28.9760   48.0870 N   0  0  0  0  0  0  0  0  0  0  0  0
   32.8620   25.9990   47.6670 C   0  0  0  0  0  3  0  0  0  0  0  0
   31.5500   26.2840   48.0100 C   0  0  0  0  0  3  0  0  0  0  0  0
   31.3080   27.6180   48.3260 C   0  0  0  0  0  0  0  0  0  0  0  0
   32.3080   28.4720   48.2750 N   0  0  0  0  0  0  0  0  0  0  0  0
   33.5620   28.2230   47.9530 C   0  0  0  0  0  0  0  0  0  0  0  0
   33.7910   26.9630   47.6540 N   0  0  0  0  0  0  0  0  0  0  0  0
   34.7390   29.0590   47.8590 C   0  0  0  0  0  0  0  0  0  0  0  0
   35.1710   29.5780   46.6470 C   0  0  0  0  0  3  0  0  0  0  0  0
   36.2820   30.3760   46.5030 C   0  0  0  0  0  3  0  0  0  0  0  0
   37.0430   30.7060   47.6090 C   0  0  0  0  0  3  0  0  0  0  0  0
   36.6540   30.2160   48.8200 C   0  0  0  0  0  0  0  0  0  0  0  0
   37.4180   30.5460   49.9250 C   0  0  0  0  0  3  0  0  0  0  0  0
   37.1040   30.1010   51.1790 C   0  0  0  0  0  3  0  0  0  0  0  0
   35.9750   29.2930   51.3080 C   0  0  0  0  0  3  0  0  0  0  0  0
   35.2490   28.9920   50.1840 C   0  0  0  0  0  3  0  0  0  0  0  0
   35.5410   29.4220   48.9330 C   0  0  0  0  0  0  0  0  0  0  0  0
   27.1230   30.0830   48.2520 C   0  0  0  0  0  0  0  0  0  0  0  0
   25.9950   30.6360   48.6810 N   0  0  0  0  0  0  0  0  0  0  0  0
   25.5240   31.4520   47.8010 O   0  0  0  0  0  0  0  0  0  0  0  0
   26.3330   31.4710   46.7410 C   0  0  0  0  0  0  0  0  0  0  0  0
   27.3120   30.6200   47.0410 N   0  0  0  0  0  0  0  0  0  0  0  0
   25.9600   32.3530   45.6180 C   0  0  0  0  0  0  0  0  0  0  0  0
   25.9910   31.9400   44.3390 N   0  0  0  0  0  0  0  0  0  0  0  0
   25.6430   32.7820   43.3670 C   0  0  0  0  0  3  0  0  0  0  0  0
   25.2450   34.0700   43.5580 N   0  0  0  0  0  0  0  0  0  0  0  0
   25.1950   34.5450   44.8370 C   0  0  0  0  0  0  0  0  0  0  0  0
   24.7970   35.8440   45.0560 C   0  0  0  0  0  3  0  0  0  0  0  0
   24.7410   36.3370   46.3410 C   0  0  0  0  0  3  0  0  0  0  0  0
   25.0970   35.4850   47.3690 C   0  0  0  0  0  3  0  0  0  0  0  0
   25.4870   34.1950   47.0840 C   0  0  0  0  0  3  0  0  0  0  0  0
   25.5610   33.6560   45.8320 C   0  0  0  0  0  0  0  0  0  0  0  0
  1  2  1  0  0  0  0
  2  3  2  0  0  0  0
  4  3  1  0  0  0  0
  5  1  1  0  0  0  0
  5  4  2  0  0  0  0
  6  7  1  0  0  0  0
  7  8  2  0  0  0  0
  8  1  1  0  0  0  0
  9  8  1  0  0  0  0
 10  9  2  0  0  0  0
 11  6  2  0  0  0  0
 11 10  1  0  0  0  0
 12 10  1  0  0  0  0
 12 21  1  0  0  0  0
 13 12  2  0  0  0  0
 14 13  1  0  0  0  0
 14 15  2  0  0  0  0
 15 16  1  0  0  0  0
 16 21  2  0  0  0  0
 16 17  1  0  0  0  0
 17 18  2  0  0  0  0
 18 19  1  0  0  0  0
 20 19  2  0  0  0  0
 21 20  1  0  0  0  0
 22 23  2  0  0  0  0
 22  4  1  0  0  0  0
 24 23  1  0  0  0  0
 25 26  2  0  0  0  0
 25 24  1  0  0  0  0
 26 22  1  0  0  0  0
 27 36  1  0  0  0  0
 27 25  1  0  0  0  0
 28 27  2  0  0  0  0
 29 30  2  0  0  0  0
 29 28  1  0  0  0  0
 30 31  1  0  0  0  0
 31 32  2  0  0  0  0
 31 36  1  0  0  0  0
 32 33  1  0  0  0  0
 33 34  2  0  0  0  0
 35 34  1  0  0  0  0
 36 35  2  0  0  0  0
M  END
>  <minimizedAffinity>
-10.1411667

$$$$

 OpenBabel03272514333D

 36 42  0  0  0  0  0  0  0  0999 V2000
   28.7290   28.8310   47.6490 N   0  0  0  0  0  0  0  0  0  0  0  0
   28.6450   27.4980   47.7980 C   0  0  0  0  0  3  0  0  0  0  0  0
   29.8220   26.9340   47.6310 N   0  0  0  0  0  0  0  0  0  0  0  0
   30.6960   27.9280   47.3670 C   0  0  0  0  0  0  0  0  0  0  0  0
   29.9950   29.0890   47.3830 N   0  0  0  0  0  0  0  0  0  0  0  0
   25.9120   30.8410   48.8740 C   0  0  0  0  0  3  0  0  0  0  0  0
   26.9130   29.8840   48.9220 C   0  0  0  0  0  3  0  0  0  0  0  0
   27.6640   29.7700   47.7550 C   0  0  0  0  0  0  0  0  0  0  0  0
   27.3740   30.5520   46.7370 N   0  0  0  0  0  0  0  0  0  0  0  0
   26.4260   31.4660   46.6690 C   0  0  0  0  0  0  0  0  0  0  0  0
   25.7170   31.5750   47.7710 N   0  0  0  0  0  0  0  0  0  0  0  0
   26.0110   32.3790   45.6260 C   0  0  0  0  0  0  0  0  0  0  0  0
   25.9920   32.0010   44.2910 C   0  0  0  0  0  3  0  0  0  0  0  0
   25.6070   32.8290   43.2620 C   0  0  0  0  0  3  0  0  0  0  0  0
   25.2080   34.1240   43.5320 C   0  0  0  0  0  3  0  0  0  0  0  0
   25.2130   34.5370   44.8310 C   0  0  0  0  0  0  0  0  0  0  0  0
   24.8140   35.8340   45.0970 C   0  0  0  0  0  3  0  0  0  0  0  0
   24.7870   36.3350   46.3700 C   0  0  0  0  0  3  0  0  0  0  0  0
   25.1800   35.4830   47.4000 C   0  0  0  0  0  3  0  0  0  0  0  0
   25.5670   34.2040   47.0880 C   0  0  0  0  0  3  0  0  0  0  0  0
   25.6020   33.6880   45.8360 C   0  0  0  0  0  0  0  0  0  0  0  0
   32.1250   27.9680   47.0910 C   0  0  0  0  0  0  0  0  0  0  0  0
   33.0170   27.2160   46.4580 N   0  0  0  0  0  0  0  0  0  0  0  0
   34.1910   27.7450   46.5260 O   0  0  0  0  0  0  0  0  0  0  0  0
   34.1210   28.8840   47.2170 C   0  0  0  0  0  0  0  0  0  0  0  0
   32.8380   29.0010   47.5550 N   0  0  0  0  0  0  0  0  0  0  0  0
   35.3730   29.6420   47.4040 C   0  0  0  0  0  0  0  0  0  0  0  0
   36.0040   30.2490   46.3840 N   0  0  0  0  0  0  0  0  0  0  0  0
   37.1320   30.9200   46.6140 C   0  0  0  0  0  3  0  0  0  0  0  0
   37.7250   31.0510   47.8340 N   0  0  0  0  0  0  0  0  0  0  0  0
   37.1280   30.4540   48.9070 C   0  0  0  0  0  0  0  0  0  0  0  0
   37.7090   30.5710   50.1490 C   0  0  0  0  0  3  0  0  0  0  0  0
   37.1180   29.9760   51.2410 C   0  0  0  0  0  3  0  0  0  0  0  0
   35.9470   29.2730   51.0310 C   0  0  0  0  0  3  0  0  0  0  0  0
   35.4160   29.1930   49.7620 C   0  0  0  0  0  3  0  0  0  0  0  0
   35.9590   29.7630   48.6470 C   0  0  0  0  0  0  0  0  0  0  0  0
  1  8  1  0  0  0  0
  1  2  1  0  0  0  0
  3  2  2  0  0  0  0
  4  5  2  0  0  0  0
  4  3  1  0  0  0  0
  5  1  1  0  0  0  0
  6  7  1  0  0  0  0
  8  7  2  0  0  0  0
  9  8  1  0  0  0  0
 10  9  2  0  0  0  0
 10 11  1  0  0  0  0
 11  6  2  0  0  0  0
 12 21  1  0  0  0  0
 12 10  1  0  0  0  0
 13 12  2  0  0  0  0
 14 15  2  0  0  0  0
 14 13  1  0  0  0  0
 15 16  1  0  0  0  0
 16 17  2  0  0  0  0
 16 21  1  0  0  0  0
 17 18  1  0  0  0  0
 18 19  2  0  0  0  0
 20 19  1  0  0  0  0
 21 20  2  0  0  0  0
 22  4  1  0  0  0  0
 22 26  1  0  0  0  0
 23 24  1  0  0  0  0
 23 22  2  0  0  0  0
 24 25  1  0  0  0  0
 25 27  1  0  0  0  0
 25 26  2  0  0  0  0
 27 36  1  0  0  0  0
 28 29  1  0  0  0  0
 28 27  2  0  0  0  0
 29 30  2  0  0  0  0
 30 31  1  0  0  0  0
 31 32  1  0  0  0  0
 32 33  2  0  0  0  0
 34 33  1  0  0  0  0
 35 34  2  0  0  0  0
 36 31  2  0  0  0  0
 36 35  1  0  0  0  0
M  END
>  <minimizedAffinity>
-9.71308708

$$$$

 OpenBabel03272514333D

 36 42  0  0  0  0  0  0  0  0999 V2000
   30.4090   27.8340   49.0920 N   0  0  0  0  0  0  0  0  0  0  0  0
   29.7580   27.1700   50.0610 C   0  0  0  0  0  3  0  0  0  0  0  0
   28.5210   27.6060   50.1760 N   0  0  0  0  0  0  0  0  0  0  0  0
   28.3650   28.5800   49.2560 C   0  0  0  0  0  0  0  0  0  0  0  0
   29.5460   28.7020   48.6000 N   0  0  0  0  0  0  0  0  0  0  0  0
   33.4440   26.6350   47.4090 C   0  0  0  0  0  3  0  0  0  0  0  0
   32.0910   26.7110   47.7000 C   0  0  0  0  0  3  0  0  0  0  0  0
   31.7600   27.6400   48.6830 C   0  0  0  0  0  0  0  0  0  0  0  0
   32.7220   28.3450   49.2380 N   0  0  0  0  0  0  0  0  0  0  0  0
   34.0130   28.2880   48.9780 C   0  0  0  0  0  0  0  0  0  0  0  0
   34.3270   27.4120   48.0490 N   0  0  0  0  0  0  0  0  0  0  0  0
   35.1570   28.9990   49.5080 C   0  0  0  0  0  0  0  0  0  0  0  0
   35.4800   28.9600   50.8570 C   0  0  0  0  0  3  0  0  0  0  0  0
   36.5540   29.6170   51.4110 C   0  0  0  0  0  3  0  0  0  0  0  0
   37.3870   30.3740   50.6090 C   0  0  0  0  0  3  0  0  0  0  0  0
   37.1040   30.4410   49.2770 C   0  0  0  0  0  0  0  0  0  0  0  0
   37.9390   31.2010   48.4780 C   0  0  0  0  0  3  0  0  0  0  0  0
   37.7340   31.3260   47.1320 C   0  0  0  0  0  3  0  0  0  0  0  0
   36.6420   30.6530   46.5870 C   0  0  0  0  0  3  0  0  0  0  0  0
   35.8420   29.9120   47.4180 C   0  0  0  0  0  3  0  0  0  0  0  0
   36.0260   29.7740   48.7530 C   0  0  0  0  0  0  0  0  0  0  0  0
   27.2550   29.4440   48.8800 C   0  0  0  0  0  0  0  0  0  0  0  0
   25.9850   29.6090   49.2320 N   0  0  0  0  0  0  0  0  0  0  0  0
   25.4420   30.5570   48.5480 O   0  0  0  0  0  0  0  0  0  0  0  0
   26.3420   31.0640   47.7050 C   0  0  0  0  0  0  0  0  0  0  0  0
   27.4520   30.3630   47.9270 N   0  0  0  0  0  0  0  0  0  0  0  0
   25.9060   32.1690   46.8300 C   0  0  0  0  0  0  0  0  0  0  0  0
   25.2260   33.2300   47.2980 N   0  0  0  0  0  0  0  0  0  0  0  0
   24.8590   34.1980   46.4590 C   0  0  0  0  0  3  0  0  0  0  0  0
   25.1180   34.2090   45.1220 N   0  0  0  0  0  0  0  0  0  0  0  0
   25.8040   33.1560   44.5900 C   0  0  0  0  0  0  0  0  0  0  0  0
   26.0770   33.1440   43.2420 C   0  0  0  0  0  3  0  0  0  0  0  0
   26.7700   32.0880   42.6910 C   0  0  0  0  0  3  0  0  0  0  0  0
   27.1640   31.0700   43.5380 C   0  0  0  0  0  3  0  0  0  0  0  0
   26.8600   31.1420   44.8800 C   0  0  0  0  0  3  0  0  0  0  0  0
   26.1770   32.1620   45.4770 C   0  0  0  0  0  0  0  0  0  0  0  0
  1  2  1  0  0  0  0
  2  3  2  0  0  0  0
  4  3  1  0  0  0  0
  5  1  1  0  0  0  0
  5  4  2  0  0  0  0
  6  7  2  0  0  0  0
  6 11  1  0  0  0  0
  7  8  1  0  0  0  0
  8  1  1  0  0  0  0
  8  9  2  0  0  0  0
 10  9  1  0  0  0  0
 10 12  1  0  0  0  0
 11 10  2  0  0  0  0
 12 13  1  0  0  0  0
 13 14  2  0  0  0  0
 15 14  1  0  0  0  0
 16 15  2  0  0  0  0
 17 16  1  0  0  0  0
 18 17  2  0  0  0  0
 19 18  1  0  0  0  0
 19 20  2  0  0  0  0
 20 21  1  0  0  0  0
 21 16  1  0  0  0  0
 21 12  2  0  0  0  0
 22 23  2  0  0  0  0
 22  4  1  0  0  0  0
 24 23  1  0  0  0  0
 25 26  2  0  0  0  0
 25 24  1  0  0  0  0
 26 22  1  0  0  0  0
 27 28  1  0  0  0  0
 27 25  1  0  0  0  0
 29 28  2  0  0  0  0
 30 29  1  0  0  0  0
 31 30  2  0  0  0  0
 31 36  1  0  0  0  0
 32 31  1  0  0  0  0
 33 32  2  0  0  0  0
 33 34  1  0  0  0  0
 34 35  2  0  0  0  0
 35 36  1  0  0  0  0
 36 27  2  0  0  0  0
M  END
>  <minimizedAffinity>
-9.56018353

$$$$

 OpenBabel03272514333D

 36 42  0  0  0  0  0  0  0  0999 V2000
   32.1360   29.0000   46.4490 N   0  0  0  0  0  0  0  0  0  0  0  0
   31.7760   28.0810   47.3600 C   0  0  0  0  0  3  0  0  0  0  0  0
   30.4690   28.0590   47.5110 N   0  0  0  0  0  0  0  0  0  0  0  0
   29.9650   28.9890   46.6730 C   0  0  0  0  0  0  0  0  0  0  0  0
   31.0160   29.5560   46.0310 N   0  0  0  0  0  0  0  0  0  0  0  0
   35.1870   29.4380   44.4540 C   0  0  0  0  0  3  0  0  0  0  0  0
   33.8720   29.0880   44.7150 C   0  0  0  0  0  3  0  0  0  0  0  0
   33.4600   29.3100   46.0270 C   0  0  0  0  0  0  0  0  0  0  0  0
   34.3210   29.8170   46.8830 N   0  0  0  0  0  0  0  0  0  0  0  0
   35.5750   30.1560   46.6570 C   0  0  0  0  0  0  0  0  0  0  0  0
   35.9640   29.9470   45.4180 N   0  0  0  0  0  0  0  0  0  0  0  0
   36.6110   30.7170   47.4980 C   0  0  0  0  0  0  0  0  0  0  0  0
   37.5510   31.6080   47.0010 C   0  0  0  0  0  3  0  0  0  0  0  0
   38.5550   32.1680   47.7570 C   0  0  0  0  0  3  0  0  0  0  0  0
   38.6680   31.8500   49.0980 C   0  0  0  0  0  3  0  0  0  0  0  0
   37.7650   30.9770   49.6250 C   0  0  0  0  0  0  0  0  0  0  0  0
   37.8820   30.6590   50.9670 C   0  0  0  0  0  3  0  0  0  0  0  0
   37.0200   29.7940   51.5820 C   0  0  0  0  0  3  0  0  0  0  0  0
   36.0090   29.2350   50.8020 C   0  0  0  0  0  3  0  0  0  0  0  0
   35.9330   29.5800   49.4760 C   0  0  0  0  0  3  0  0  0  0  0  0
   36.7740   30.4340   48.8470 C   0  0  0  0  0  0  0  0  0  0  0  0
   28.6170   29.4490   46.3690 C   0  0  0  0  0  0  0  0  0  0  0  0
   27.3740   29.0890   46.6660 N   0  0  0  0  0  0  0  0  0  0  0  0
   26.5240   29.8790   46.1040 O   0  0  0  0  0  0  0  0  0  0  0  0
   27.1800   30.8060   45.4050 C   0  0  0  0  0  0  0  0  0  0  0  0
   28.4690   30.5210   45.5820 N   0  0  0  0  0  0  0  0  0  0  0  0
   26.3740   31.8110   44.6860 C   0  0  0  0  0  0  0  0  0  0  0  0
   26.0780   31.6930   43.3800 N   0  0  0  0  0  0  0  0  0  0  0  0
   25.3450   32.6330   42.7840 C   0  0  0  0  0  3  0  0  0  0  0  0
   24.8520   33.7430   43.4000 N   0  0  0  0  0  0  0  0  0  0  0  0
   25.1210   33.9160   44.7270 C   0  0  0  0  0  0  0  0  0  0  0  0
   24.6340   35.0290   45.3710 C   0  0  0  0  0  3  0  0  0  0  0  0
   24.8980   35.2170   46.7110 C   0  0  0  0  0  3  0  0  0  0  0  0
   25.6560   34.2580   47.3540 C   0  0  0  0  0  3  0  0  0  0  0  0
   26.1140   33.1640   46.6520 C   0  0  0  0  0  3  0  0  0  0  0  0
   25.8830   32.9290   45.3270 C   0  0  0  0  0  0  0  0  0  0  0  0
  1  2  1  0  0  0  0
  2  3  2  0  0  0  0
  4  3  1  0  0  0  0
  5  1  1  0  0  0  0
  5  4  2  0  0  0  0
  6  7  2  0  0  0  0
  6 11  1  0  0  0  0
  7  8  1  0  0  0  0
  8  1  1  0  0  0  0
  8  9  2  0  0  0  0
 10  9  1  0  0  0  0
 10 12  1  0  0  0  0
 11 10  2  0  0  0  0
 12 21  1  0  0  0  0
 13 12  2  0  0  0  0
 13 14  1  0  0  0  0
 14 15  2  0  0  0  0
 15 16  1  0  0  0  0
 16 17  1  0  0  0  0
 17 18  2  0  0  0  0
 19 18  1  0  0  0  0
 20 19  2  0  0  0  0
 21 20  1  0  0  0  0
 21 16  2  0  0  0  0
 22 23  2  0  0  0  0
 22  4  1  0  0  0  0
 24 23  1  0  0  0  0
 25 26  2  0  0  0  0
 25 24  1  0  0  0  0
 26 22  1  0  0  0  0
 27 36  1  0  0  0  0
 27 25  1  0  0  0  0
 28 27  2  0  0  0  0
 29 28  1  0  0  0  0
 29 30  2  0  0  0  0
 30 31  1  0  0  0  0
 31 36  2  0  0  0  0
 31 32  1  0  0  0  0
 32 33  2  0  0  0  0
 33 34  1  0  0  0  0
 35 34  2  0  0  0  0
 36 35  1  0  0  0  0
M  END
>  <minimizedAffinity>
-9.55352402

$$$$

 OpenBabel03272514333D

 36 42  0  0  0  0  0  0  0  0999 V2000
   30.2390   27.7100   48.9130 N   0  0  0  0  0  0  0  0  0  0  0  0
   29.6240   27.1540   49.9690 C   0  0  0  0  0  3  0  0  0  0  0  0
   28.4400   27.6980   50.1610 N   0  0  0  0  0  0  0  0  0  0  0  0
   28.2830   28.6330   49.2010 C   0  0  0  0  0  0  0  0  0  0  0  0
   29.4080   28.6210   48.4450 N   0  0  0  0  0  0  0  0  0  0  0  0
   33.1190   25.9310   47.4910 C   0  0  0  0  0  3  0  0  0  0  0  0
   31.8230   26.0990   47.9540 C   0  0  0  0  0  3  0  0  0  0  0  0
   31.5290   27.3820   48.4070 C   0  0  0  0  0  0  0  0  0  0  0  0
   32.4700   28.3000   48.3620 N   0  0  0  0  0  0  0  0  0  0  0  0
   33.7070   28.1630   47.9270 C   0  0  0  0  0  0  0  0  0  0  0  0
   33.9860   26.9520   47.4990 N   0  0  0  0  0  0  0  0  0  0  0  0
   34.8220   29.0800   47.8240 C   0  0  0  0  0  0  0  0  0  0  0  0
   35.1930   29.6450   46.6130 C   0  0  0  0  0  3  0  0  0  0  0  0
   36.2430   30.5200   46.4600 C   0  0  0  0  0  3  0  0  0  0  0  0
   37.0020   30.8850   47.5570 C   0  0  0  0  0  3  0  0  0  0  0  0
   36.6720   30.3510   48.7670 C   0  0  0  0  0  0  0  0  0  0  0  0
   37.4340   30.7160   49.8620 C   0  0  0  0  0  3  0  0  0  0  0  0
   37.1780   30.2310   51.1150 C   0  0  0  0  0  3  0  0  0  0  0  0
   36.1100   29.3460   51.2520 C   0  0  0  0  0  3  0  0  0  0  0  0
   35.3830   29.0130   50.1370 C   0  0  0  0  0  3  0  0  0  0  0  0
   35.6190   29.4810   48.8880 C   0  0  0  0  0  0  0  0  0  0  0  0
   27.2160   29.5680   48.8680 C   0  0  0  0  0  0  0  0  0  0  0  0
   26.0060   29.8680   49.3240 N   0  0  0  0  0  0  0  0  0  0  0  0
   25.4780   30.8150   48.6270 O   0  0  0  0  0  0  0  0  0  0  0  0
   26.3300   31.1840   47.6690 C   0  0  0  0  0  0  0  0  0  0  0  0
   27.3940   30.4020   47.8370 N   0  0  0  0  0  0  0  0  0  0  0  0
   25.9030   32.2650   46.7600 C   0  0  0  0  0  0  0  0  0  0  0  0
   25.2430   33.3520   47.1970 N   0  0  0  0  0  0  0  0  0  0  0  0
   24.8830   34.2960   46.3290 C   0  0  0  0  0  3  0  0  0  0  0  0
   25.1310   34.2580   44.9900 N   0  0  0  0  0  0  0  0  0  0  0  0
   25.7970   33.1780   44.4890 C   0  0  0  0  0  0  0  0  0  0  0  0
   26.0590   33.1160   43.1400 C   0  0  0  0  0  3  0  0  0  0  0  0
   26.7310   32.0320   42.6200 C   0  0  0  0  0  3  0  0  0  0  0  0
   27.1170   31.0370   43.4990 C   0  0  0  0  0  3  0  0  0  0  0  0
   26.8250   31.1590   44.8400 C   0  0  0  0  0  3  0  0  0  0  0  0
   26.1620   32.2090   45.4070 C   0  0  0  0  0  0  0  0  0  0  0  0
  1  2  1  0  0  0  0
  2  3  2  0  0  0  0
  4  3  1  0  0  0  0
  5  1  1  0  0  0  0
  5  4  2  0  0  0  0
  6 11  2  0  0  0  0
  6  7  1  0  0  0  0
  7  8  2  0  0  0  0
  8  1  1  0  0  0  0
  9  8  1  0  0  0  0
 10  9  2  0  0  0  0
 11 10  1  0  0  0  0
 12 10  1  0  0  0  0
 12 21  1  0  0  0  0
 13 12  2  0  0  0  0
 14 13  1  0  0  0  0
 14 15  2  0  0  0  0
 15 16  1  0  0  0  0
 16 21  2  0  0  0  0
 16 17  1  0  0  0  0
 17 18  2  0  0  0  0
 18 19  1  0  0  0  0
 20 19  2  0  0  0  0
 21 20  1  0  0  0  0
 22  4  1  0  0  0  0
 22 23  2  0  0  0  0
 24 23  1  0  0  0  0
 25 26  2  0  0  0  0
 25 24  1  0  0  0  0
 26 22  1  0  0  0  0
 27 28  1  0  0  0  0
 27 25  1  0  0  0  0
 29 28  2  0  0  0  0
 30 29  1  0  0  0  0
 31 30  2  0  0  0  0
 31 36  1  0  0  0  0
 32 31  1  0  0  0  0
 33 32  2  0  0  0  0
 33 34  1  0  0  0  0
 34 35  2  0  0  0  0
 35 36  1  0  0  0  0
 36 27  2  0  0  0  0
M  END
>  <minimizedAffinity>
-9.45051384

$$$$

 OpenBabel03272514333D

 36 42  0  0  0  0  0  0  0  0999 V2000
   34.1710   29.7480   44.2780 N   0  0  0  0  0  0  0  0  0  0  0  0
   33.5530   29.9990   43.1120 C   0  0  0  0  0  3  0  0  0  0  0  0
   32.2820   29.6580   43.1740 N   0  0  0  0  0  0  0  0  0  0  0  0
   32.0690   29.1740   44.4150 C   0  0  0  0  0  0  0  0  0  0  0  0
   33.2520   29.2390   45.0760 N   0  0  0  0  0  0  0  0  0  0  0  0
   37.8290   29.9960   44.0980 C   0  0  0  0  0  3  0  0  0  0  0  0
   36.5450   29.7200   43.6560 C   0  0  0  0  0  3  0  0  0  0  0  0
   35.5420   29.9820   44.5850 C   0  0  0  0  0  0  0  0  0  0  0  0
   35.8800   30.4550   45.7650 N   0  0  0  0  0  0  0  0  0  0  0  0
   37.0920   30.7230   46.2060 C   0  0  0  0  0  0  0  0  0  0  0  0
   38.0410   30.4770   45.3300 N   0  0  0  0  0  0  0  0  0  0  0  0
   37.5910   31.2400   47.4630 C   0  0  0  0  0  0  0  0  0  0  0  0
   38.4050   32.3630   47.5190 C   0  0  0  0  0  3  0  0  0  0  0  0
   38.9050   32.8930   48.6850 C   0  0  0  0  0  3  0  0  0  0  0  0
   38.6030   32.3010   49.8980 C   0  0  0  0  0  3  0  0  0  0  0  0
   37.8070   31.1940   49.8870 C   0  0  0  0  0  0  0  0  0  0  0  0
   37.5080   30.6030   51.1020 C   0  0  0  0  0  3  0  0  0  0  0  0
   36.7180   29.4910   51.1890 C   0  0  0  0  0  3  0  0  0  0  0  0
   36.2190   28.9660   49.9970 C   0  0  0  0  0  3  0  0  0  0  0  0
   36.5430   29.5860   48.8170 C   0  0  0  0  0  3  0  0  0  0  0  0
   37.3220   30.6880   48.7080 C   0  0  0  0  0  0  0  0  0  0  0  0
   30.9020   28.6410   45.1040 C   0  0  0  0  0  0  0  0  0  0  0  0
   30.2100   27.5080   45.1140 N   0  0  0  0  0  0  0  0  0  0  0  0
   29.2280   27.5810   45.9470 O   0  0  0  0  0  0  0  0  0  0  0  0
   29.2330   28.7810   46.5290 C   0  0  0  0  0  0  0  0  0  0  0  0
   30.2730   29.4170   45.9940 N   0  0  0  0  0  0  0  0  0  0  0  0
   28.1780   29.0580   47.5220 C   0  0  0  0  0  0  0  0  0  0  0  0
   27.1550   29.8940   47.2690 N   0  0  0  0  0  0  0  0  0  0  0  0
   26.2310   30.1050   48.2060 C   0  0  0  0  0  3  0  0  0  0  0  0
   26.2300   29.5310   49.4410 N   0  0  0  0  0  0  0  0  0  0  0  0
   27.2450   28.6740   49.7540 C   0  0  0  0  0  0  0  0  0  0  0  0
   27.2650   28.0820   50.9960 C   0  0  0  0  0  3  0  0  0  0  0  0
   28.2830   27.2140   51.3260 C   0  0  0  0  0  3  0  0  0  0  0  0
   29.2550   26.9770   50.3730 C   0  0  0  0  0  3  0  0  0  0  0  0
   29.1770   27.6000   49.1470 C   0  0  0  0  0  3  0  0  0  0  0  0
   28.1930   28.4680   48.7690 C   0  0  0  0  0  0  0  0  0  0  0  0
  1  8  1  0  0  0  0
  1  5  1  0  0  0  0
  2  3  2  0  0  0  0
  2  1  1  0  0  0  0
  3  4  1  0  0  0  0
  4  5  2  0  0  0  0
  4 22  1  0  0  0  0
  6 11  1  0  0  0  0
  7  6  2  0  0  0  0
  7  8  1  0  0  0  0
  8  9  2  0  0  0  0
  9 10  1  0  0  0  0
 10 12  1  0  0  0  0
 11 10  2  0  0  0  0
 12 13  2  0  0  0  0
 12 21  1  0  0  0  0
 13 14  1  0  0  0  0
 14 15  2  0  0  0  0
 16 15  1  0  0  0  0
 16 17  1  0  0  0  0
 17 18  2  0  0  0  0
 19 18  1  0  0  0  0
 20 19  2  0  0  0  0
 21 20  1  0  0  0  0
 21 16  2  0  0  0  0
 22 23  2  0  0  0  0
 22 26  1  0  0  0  0
 23 24  1  0  0  0  0
 24 25  1  0  0  0  0
 25 27  1  0  0  0  0
 26 25  2  0  0  0  0
 27 36  1  0  0  0  0
 28 27  2  0  0  0  0
 28 29  1  0  0  0  0
 29 30  2  0  0  0  0
 30 31  1  0  0  0  0
 31 32  1  0  0  0  0
 32 33  2  0  0  0  0
 34 33  1  0  0  0  0
 35 34  2  0  0  0  0
 36 35  1  0  0  0  0
 36 31  2  0  0  0  0
M  END
>  <minimizedAffinity>
-9.28260899

$$$$

 OpenBabel03272514333D

 36 42  0  0  0  0  0  0  0  0999 V2000
   33.8560   29.3490   44.5930 N   0  0  0  0  0  0  0  0  0  0  0  0
   33.0650   29.5680   43.5300 C   0  0  0  0  0  3  0  0  0  0  0  0
   31.8630   29.0720   43.7320 N   0  0  0  0  0  0  0  0  0  0  0  0
   31.8730   28.5150   44.9610 C   0  0  0  0  0  0  0  0  0  0  0  0
   33.1170   28.6990   45.4710 N   0  0  0  0  0  0  0  0  0  0  0  0
   37.4110   30.0290   43.9770 C   0  0  0  0  0  3  0  0  0  0  0  0
   36.1220   29.6110   43.6860 C   0  0  0  0  0  3  0  0  0  0  0  0
   35.2190   29.7370   44.7380 C   0  0  0  0  0  0  0  0  0  0  0  0
   35.6450   30.2250   45.8830 N   0  0  0  0  0  0  0  0  0  0  0  0
   36.8650   30.6280   46.1820 C   0  0  0  0  0  0  0  0  0  0  0  0
   37.7180   30.5090   45.1880 N   0  0  0  0  0  0  0  0  0  0  0  0
   37.4540   31.1770   47.3840 C   0  0  0  0  0  0  0  0  0  0  0  0
   38.2700   32.2980   47.3500 C   0  0  0  0  0  3  0  0  0  0  0  0
   38.8550   32.8590   48.4620 C   0  0  0  0  0  3  0  0  0  0  0  0
   38.6400   32.3020   49.7090 C   0  0  0  0  0  3  0  0  0  0  0  0
   37.8450   31.1980   49.7870 C   0  0  0  0  0  0  0  0  0  0  0  0
   37.6340   30.6420   51.0350 C   0  0  0  0  0  3  0  0  0  0  0  0
   36.8510   29.5340   51.2100 C   0  0  0  0  0  3  0  0  0  0  0  0
   36.2660   28.9790   50.0730 C   0  0  0  0  0  3  0  0  0  0  0  0
   36.5040   29.5650   48.8560 C   0  0  0  0  0  3  0  0  0  0  0  0
   37.2750   30.6610   48.6600 C   0  0  0  0  0  0  0  0  0  0  0  0
   30.8770   27.8150   45.7600 C   0  0  0  0  0  0  0  0  0  0  0  0
   30.0940   26.7510   45.6280 N   0  0  0  0  0  0  0  0  0  0  0  0
   29.3790   26.5770   46.6860 O   0  0  0  0  0  0  0  0  0  0  0  0
   29.6640   27.5310   47.5730 C   0  0  0  0  0  0  0  0  0  0  0  0
   30.5900   28.2830   46.9800 N   0  0  0  0  0  0  0  0  0  0  0  0
   28.9420   27.5020   48.8590 C   0  0  0  0  0  0  0  0  0  0  0  0
   29.4730   26.9590   49.9680 N   0  0  0  0  0  0  0  0  0  0  0  0
   28.7730   26.9610   51.1020 C   0  0  0  0  0  3  0  0  0  0  0  0
   27.5220   27.4810   51.2430 N   0  0  0  0  0  0  0  0  0  0  0  0
   26.9310   28.0450   50.1490 C   0  0  0  0  0  0  0  0  0  0  0  0
   25.6680   28.5750   50.2660 C   0  0  0  0  0  3  0  0  0  0  0  0
   25.0590   29.1480   49.1710 C   0  0  0  0  0  3  0  0  0  0  0  0
   25.7630   29.1590   47.9820 C   0  0  0  0  0  3  0  0  0  0  0  0
   27.0260   28.6120   47.9300 C   0  0  0  0  0  3  0  0  0  0  0  0
   27.6750   28.0320   48.9820 C   0  0  0  0  0  0  0  0  0  0  0  0
  1  8  1  0  0  0  0
  1  5  1  0  0  0  0
  2  3  2  0  0  0  0
  2  1  1  0  0  0  0
  3  4  1  0  0  0  0
  4  5  2  0  0  0  0
  4 22  1  0  0  0  0
  6 11  1  0  0  0  0
  7  6  2  0  0  0  0
  7  8  1  0  0  0  0
  8  9  2  0  0  0  0
  9 10  1  0  0  0  0
 10 12  1  0  0  0  0
 11 10  2  0  0  0  0
 12 21  1  0  0  0  0
 13 12  2  0  0  0  0
 13 14  1  0  0  0  0
 14 15  2  0  0  0  0
 15 16  1  0  0  0  0
 16 17  1  0  0  0  0
 17 18  2  0  0  0  0
 19 18  1  0  0  0  0
 20 19  2  0  0  0  0
 21 20  1  0  0  0  0
 21 16  2  0  0  0  0
 22 26  1  0  0  0  0
 23 22  2  0  0  0  0
 23 24  1  0  0  0  0
 24 25  1  0  0  0  0
 25 27  1  0  0  0  0
 26 25  2  0  0  0  0
 27 36  2  0  0  0  0
 27 28  1  0  0  0  0
 28 29  2  0  0  0  0
 29 30  1  0  0  0  0
 31 32  1  0  0  0  0
 31 30  2  0  0  0  0
 33 32  2  0  0  0  0
 34 33  1  0  0  0  0
 35 34  2  0  0  0  0
 35 36  1  0  0  0  0
 36 31  1  0  0  0  0
M  END
>  <minimizedAffinity>
-9.21958065

$$$$

 OpenBabel03272514333D

 36 42  0  0  0  0  0  0  0  0999 V2000
   29.8990   28.5170   46.8740 N   0  0  0  0  0  0  0  0  0  0  0  0
   30.2130   27.2470   46.5710 C   0  0  0  0  0  3  0  0  0  0  0  0
   31.4760   27.1500   46.2130 N   0  0  0  0  0  0  0  0  0  0  0  0
   31.9970   28.3920   46.2860 C   0  0  0  0  0  0  0  0  0  0  0  0
   31.0020   29.2180   46.6960 N   0  0  0  0  0  0  0  0  0  0  0  0
   26.6810   28.9420   48.5910 C   0  0  0  0  0  3  0  0  0  0  0  0
   27.8960   28.3500   48.2840 C   0  0  0  0  0  3  0  0  0  0  0  0
   28.6300   29.0050   47.2980 C   0  0  0  0  0  0  0  0  0  0  0  0
   28.1300   30.0950   46.7570 N   0  0  0  0  0  0  0  0  0  0  0  0
   26.9780   30.6740   47.0320 C   0  0  0  0  0  0  0  0  0  0  0  0
   26.2850   30.0560   47.9630 N   0  0  0  0  0  0  0  0  0  0  0  0
   26.3230   31.8570   46.5170 C   0  0  0  0  0  0  0  0  0  0  0  0
   25.7920   32.8220   47.3600 C   0  0  0  0  0  3  0  0  0  0  0  0
   25.1600   33.9630   46.9220 C   0  0  0  0  0  3  0  0  0  0  0  0
   25.0250   34.2000   45.5670 C   0  0  0  0  0  3  0  0  0  0  0  0
   25.5320   33.2750   44.7030 C   0  0  0  0  0  0  0  0  0  0  0  0
   25.3930   33.5140   43.3480 C   0  0  0  0  0  3  0  0  0  0  0  0
   25.8710   32.6430   42.4080 C   0  0  0  0  0  3  0  0  0  0  0  0
   26.5090   31.4930   42.8690 C   0  0  0  0  0  3  0  0  0  0  0  0
   26.6220   31.2980   44.2220 C   0  0  0  0  0  3  0  0  0  0  0  0
   26.1580   32.1470   45.1690 C   0  0  0  0  0  0  0  0  0  0  0  0
   33.3160   28.9500   46.0240 C   0  0  0  0  0  0  0  0  0  0  0  0
   34.0990   29.1480   44.9700 N   0  0  0  0  0  0  0  0  0  0  0  0
   35.2090   29.7010   45.3240 O   0  0  0  0  0  0  0  0  0  0  0  0
   35.2040   29.8930   46.6440 C   0  0  0  0  0  0  0  0  0  0  0  0
   34.0280   29.4230   47.0540 N   0  0  0  0  0  0  0  0  0  0  0  0
   36.3970   30.5210   47.2430 C   0  0  0  0  0  0  0  0  0  0  0  0
   37.2540   31.2660   46.5230 N   0  0  0  0  0  0  0  0  0  0  0  0
   38.3160   31.8080   47.1200 C   0  0  0  0  0  3  0  0  0  0  0  0
   38.6230   31.6690   48.4390 N   0  0  0  0  0  0  0  0  0  0  0  0
   37.7880   30.9220   49.2190 C   0  0  0  0  0  0  0  0  0  0  0  0
   38.0770   30.7660   50.5550 C   0  0  0  0  0  3  0  0  0  0  0  0
   37.2440   30.0160   51.3550 C   0  0  0  0  0  3  0  0  0  0  0  0
   36.1350   29.4420   50.7620 C   0  0  0  0  0  3  0  0  0  0  0  0
   35.9010   29.6360   49.4190 C   0  0  0  0  0  3  0  0  0  0  0  0
   36.6920   30.3680   48.5810 C   0  0  0  0  0  0  0  0  0  0  0  0
  1  8  1  0  0  0  0
  2  1  1  0  0  0  0
  3  4  1  0  0  0  0
  3  2  2  0  0  0  0
  4  5  2  0  0  0  0
  5  1  1  0  0  0  0
  7  6  1  0  0  0  0
  8  7  2  0  0  0  0
  9 10  2  0  0  0  0
  9  8  1  0  0  0  0
 10 11  1  0  0  0  0
 11  6  2  0  0  0  0
 12 10  1  0  0  0  0
 12 13  1  0  0  0  0
 14 13  2  0  0  0  0
 15 14  1  0  0  0  0
 16 21  1  0  0  0  0
 16 15  2  0  0  0  0
 17 16  1  0  0  0  0
 18 19  1  0  0  0  0
 18 17  2  0  0  0  0
 19 20  2  0  0  0  0
 20 21  1  0  0  0  0
 21 12  2  0  0  0  0
 22  4  1  0  0  0  0
 22 26  1  0  0  0  0
 23 24  1  0  0  0  0
 23 22  2  0  0  0  0
 24 25  1  0  0  0  0
 25 26  2  0  0  0  0
 25 27  1  0  0  0  0
 27 36  1  0  0  0  0
 28 29  1  0  0  0  0
 28 27  2  0  0  0  0
 29 30  2  0  0  0  0
 30 31  1  0  0  0  0
 31 32  1  0  0  0  0
 32 33  2  0  0  0  0
 34 33  1  0  0  0  0
 35 34  2  0  0  0  0
 36 31  2  0  0  0  0
 36 35  1  0  0  0  0
M  END
>  <minimizedAffinity>
-9.21018219

$$$$

 OpenBabel03272514333D

 36 42  0  0  0  0  0  0  0  0999 V2000
   31.7280   28.1310   46.8850 N   0  0  0  0  0  0  0  0  0  0  0  0
   31.4180   27.0660   46.1270 C   0  0  0  0  0  3  0  0  0  0  0  0
   30.1880   27.1620   45.6670 N   0  0  0  0  0  0  0  0  0  0  0  0
   29.6860   28.3210   46.1400 C   0  0  0  0  0  0  0  0  0  0  0  0
   30.6560   28.9000   46.8900 N   0  0  0  0  0  0  0  0  0  0  0  0
   34.4840   28.1280   49.3110 C   0  0  0  0  0  3  0  0  0  0  0  0
   33.2440   27.7990   48.7880 C   0  0  0  0  0  3  0  0  0  0  0  0
   32.9630   28.3740   47.5510 C   0  0  0  0  0  0  0  0  0  0  0  0
   33.8650   29.1560   46.9980 N   0  0  0  0  0  0  0  0  0  0  0  0
   35.0490   29.4830   47.4780 C   0  0  0  0  0  0  0  0  0  0  0  0
   35.3150   28.9400   48.6450 N   0  0  0  0  0  0  0  0  0  0  0  0
   36.1180   30.3190   46.9750 C   0  0  0  0  0  0  0  0  0  0  0  0
   36.4210   30.3820   45.6230 C   0  0  0  0  0  3  0  0  0  0  0  0
   37.4260   31.1590   45.0950 C   0  0  0  0  0  3  0  0  0  0  0  0
   38.2060   31.9390   45.9280 C   0  0  0  0  0  3  0  0  0  0  0  0
   37.9420   31.9050   47.2650 C   0  0  0  0  0  0  0  0  0  0  0  0
   38.7250   32.6850   48.0970 C   0  0  0  0  0  3  0  0  0  0  0  0
   38.5330   32.7150   49.4510 C   0  0  0  0  0  3  0  0  0  0  0  0
   37.5110   31.9230   49.9690 C   0  0  0  0  0  3  0  0  0  0  0  0
   36.7610   31.1660   49.1060 C   0  0  0  0  0  3  0  0  0  0  0  0
   36.9330   31.1210   47.7630 C   0  0  0  0  0  0  0  0  0  0  0  0
   28.4030   28.9960   46.0000 C   0  0  0  0  0  0  0  0  0  0  0  0
   27.1800   28.8780   46.5040 N   0  0  0  0  0  0  0  0  0  0  0  0
   26.3960   29.7760   46.0120 O   0  0  0  0  0  0  0  0  0  0  0  0
   27.0780   30.5340   45.1520 C   0  0  0  0  0  0  0  0  0  0  0  0
   28.3130   30.0350   45.1610 N   0  0  0  0  0  0  0  0  0  0  0  0
   26.3470   31.6260   44.4820 C   0  0  0  0  0  0  0  0  0  0  0  0
   26.0930   31.6150   43.1620 N   0  0  0  0  0  0  0  0  0  0  0  0
   25.4280   32.6300   42.6110 C   0  0  0  0  0  3  0  0  0  0  0  0
   24.9670   33.7170   43.2890 N   0  0  0  0  0  0  0  0  0  0  0  0
   25.1970   33.7830   44.6340 C   0  0  0  0  0  0  0  0  0  0  0  0
   24.7420   34.8720   45.3400 C   0  0  0  0  0  3  0  0  0  0  0  0
   24.9660   34.9520   46.6970 C   0  0  0  0  0  3  0  0  0  0  0  0
   25.6530   33.9130   47.2940 C   0  0  0  0  0  3  0  0  0  0  0  0
   26.0830   32.8490   46.5300 C   0  0  0  0  0  3  0  0  0  0  0  0
   25.8890   32.7200   45.1850 C   0  0  0  0  0  0  0  0  0  0  0  0
  1  5  1  0  0  0  0
  1  8  1  0  0  0  0
  2  1  1  0  0  0  0
  3  2  2  0  0  0  0
  3  4  1  0  0  0  0
  4  5  2  0  0  0  0
  7  6  1  0  0  0  0
  8  7  2  0  0  0  0
  9 10  2  0  0  0  0
  9  8  1  0  0  0  0
 10 11  1  0  0  0  0
 11  6  2  0  0  0  0
 12 10  1  0  0  0  0
 12 21  1  0  0  0  0
 13 12  2  0  0  0  0
 14 13  1  0  0  0  0
 14 15  2  0  0  0  0
 15 16  1  0  0  0  0
 16 21  2  0  0  0  0
 16 17  1  0  0  0  0
 17 18  2  0  0  0  0
 18 19  1  0  0  0  0
 20 19  2  0  0  0  0
 21 20  1  0  0  0  0
 22  4  1  0  0  0  0
 22 23  2  0  0  0  0
 24 23  1  0  0  0  0
 25 26  2  0  0  0  0
 25 24  1  0  0  0  0
 26 22  1  0  0  0  0
 27 25  1  0  0  0  0
 27 36  1  0  0  0  0
 28 27  2  0  0  0  0
 29 28  1  0  0  0  0
 29 30  2  0  0  0  0
 30 31  1  0  0  0  0
 31 36  2  0  0  0  0
 31 32  1  0  0  0  0
 32 33  2  0  0  0  0
 33 34  1  0  0  0  0
 35 34  2  0  0  0  0
 36 35  1  0  0  0  0
M  END
>  <minimizedAffinity>
-9.08402443

$$$$
