
 OpenBabel03272514423D

 36 41  0  0  1  0  0  0  0  0999 V2000
   29.8050   27.3500   49.3290 C   0  0  0  0  0  0  0  0  0  0  0  0
   29.3040   26.9910   50.5890 C   0  0  0  0  0  3  0  0  0  0  0  0
   28.1840   27.6570   51.0530 C   0  0  0  0  0  3  0  0  0  0  0  0
   27.6160   28.6070   50.3020 N   0  0  0  0  0  0  0  0  0  0  0  0
   28.1340   28.9360   49.0640 C   0  0  0  0  0  0  0  0  0  0  0  0
   29.2070   28.3120   48.5990 N   0  0  0  0  0  0  0  0  0  0  0  0
   27.4870   29.9500   48.3320 N   0  0  0  0  0  0  0  0  0  0  0  0
   26.7930   30.8190   49.1050 C   0  0  0  0  0  3  0  0  0  0  0  0
   26.1910   31.7610   48.2490 C   0  0  0  0  0  3  0  0  0  0  0  0
   26.5490   31.4180   47.0050 N   0  0  0  0  0  0  0  0  0  0  0  0
   27.3300   30.3290   47.0480 C   0  0  0  0  0  0  0  0  0  0  0  0
   27.9880   29.5370   46.0620 N   0  0  0  0  0  0  0  0  0  0  0  0
   29.2920   29.2040   46.0890 C   0  0  0  0  0  3  0  0  0  0  0  0
   29.6140   28.4570   45.0320 N   0  0  0  0  0  0  0  0  0  0  0  0
   28.5270   28.2860   44.2900 C   0  0  0  0  0  0  0  0  0  0  0  0
   28.1880   27.6370   43.1030 C   0  0  0  0  0  0  0  0  0  0  0  0
   26.9490   27.6420   42.5780 N   0  0  0  0  0  0  0  0  0  0  0  0
   25.9850   28.3270   43.2590 C   0  0  0  0  0  3  0  0  0  0  0  0
   26.2700   28.9760   44.4230 N   0  0  0  0  0  0  0  0  0  0  0  0
   27.5130   28.9640   44.9400 C   0  0  0  0  0  0  0  0  0  0  0  0
   29.2990   26.9540   42.4880 N   0  0  0  0  0  0  0  0  0  0  0  0
   29.1620   26.4400   41.6060 H   0  0  0  0  0  0  0  0  0  0  0  0
   30.2290   26.9810   42.9300 H   0  0  0  0  0  0  0  0  0  0  0  0
   30.8960   26.7020   48.8780 O   0  0  0  0  0  0  0  0  0  0  0  0
   32.0090   27.4230   48.4220 C   0  0  0  0  0  0  0  0  0  0  0  0
   32.2930   27.2770   47.0920 C   0  0  0  0  0  3  0  0  0  0  0  0
   33.7410   28.3300   46.9180 S   0  0  0  0  0  0  0  0  0  0  0  0
   33.7340   28.8260   48.7540 C   0  0  0  0  0  0  0  0  0  0  0  0
   32.8250   28.2200   49.0620 N   0  0  0  0  0  0  0  0  0  0  0  0
   34.7770   29.7640   49.3080 C   0  0  2  0  0  3  0  0  0  0  0  0
   35.8650   30.1710   48.4440 C   0  0  0  0  0  2  0  0  0  0  0  0
   36.2540   29.1000   49.2690 C   0  0  1  0  0  3  0  0  0  0  0  0
   37.1350   29.5640   50.4370 C   0  0  0  0  0  0  0  0  0  0  0  0
   36.6540   29.5410   51.6760 O   0  0  0  0  0  0  0  0  0  0  0  0
   38.4490   30.0060   50.1920 O   0  0  0  0  0  0  0  0  0  0  0  0
   39.0180   30.3060   50.9450 H   0  0  0  0  0  0  0  0  0  0  0  0
  1  2  1  0  0  0  0
  2  3  2  0  0  0  0
  4  3  1  0  0  0  0
  5  4  2  0  0  0  0
  6  5  1  0  0  0  0
  6  1  2  0  0  0  0
  7  5  1  0  0  0  0
  7  8  1  0  0  0  0
  9  8  2  0  0  0  0
 10 11  2  0  0  0  0
 10  9  1  0  0  0  0
 11  7  1  0  0  0  0
 12 13  1  0  0  0  0
 12 11  1  0  0  0  0
 14 13  2  0  0  0  0
 15 20  1  0  0  0  0
 15 14  1  0  0  0  0
 16 15  2  0  0  0  0
 17 16  1  0  0  0  0
 17 18  2  0  0  0  0
 18 19  1  0  0  0  0
 19 20  2  0  0  0  0
 20 12  1  0  0  0  0
 21 23  1  0  0  0  0
 21 16  1  0  0  0  0
 22 21  1  0  0  0  0
 24  1  1  0  0  0  0
 25 24  1  0  0  0  0
 25 29  1  0  0  0  0
 26 25  2  0  0  0  0
 27 26  1  0  0  0  0
 27 28  1  0  0  0  0
 28 29  2  0  0  0  0
 30 28  1  6  0  0  0
 31 32  1  0  0  0  0
 31 30  1  0  0  0  0
 32 30  1  0  0  0  0
 32 33  1  1  0  0  0
 33 34  2  0  0  0  0
 35 33  1  0  0  0  0
 35 36  1  0  0  0  0
M  END
>  <minimizedAffinity>
-7.8517108

$$$$

 OpenBabel03272514423D

 36 41  0  0  1  0  0  0  0  0999 V2000
   29.1140   28.0850   48.7070 C   0  0  0  0  0  0  0  0  0  0  0  0
   28.6960   28.5580   49.9600 C   0  0  0  0  0  3  0  0  0  0  0  0
   27.8010   29.6130   49.9870 C   0  0  0  0  0  3  0  0  0  0  0  0
   27.3640   30.1450   48.8410 N   0  0  0  0  0  0  0  0  0  0  0  0
   27.7950   29.6550   47.6230 C   0  0  0  0  0  0  0  0  0  0  0  0
   28.6530   28.6450   47.5710 N   0  0  0  0  0  0  0  0  0  0  0  0
   27.2970   30.2670   46.4570 N   0  0  0  0  0  0  0  0  0  0  0  0
   26.8940   31.5460   46.6460 C   0  0  0  0  0  3  0  0  0  0  0  0
   26.4100   32.0260   45.4140 C   0  0  0  0  0  3  0  0  0  0  0  0
   26.5430   31.0180   44.5420 N   0  0  0  0  0  0  0  0  0  0  0  0
   27.0770   29.9560   45.1640 C   0  0  0  0  0  0  0  0  0  0  0  0
   27.4380   28.6400   44.7520 N   0  0  0  0  0  0  0  0  0  0  0  0
   28.6370   28.0680   44.9700 C   0  0  0  0  0  3  0  0  0  0  0  0
   28.6710   26.8330   44.4690 N   0  0  0  0  0  0  0  0  0  0  0  0
   27.4950   26.5700   43.9130 C   0  0  0  0  0  0  0  0  0  0  0  0
   26.8950   25.5050   43.2420 C   0  0  0  0  0  0  0  0  0  0  0  0
   25.6320   25.5360   42.7740 N   0  0  0  0  0  0  0  0  0  0  0  0
   24.9180   26.6800   42.9790 C   0  0  0  0  0  3  0  0  0  0  0  0
   25.4650   27.7450   43.6300 N   0  0  0  0  0  0  0  0  0  0  0  0
   26.7280   27.7050   44.0940 C   0  0  0  0  0  0  0  0  0  0  0  0
   27.7590   24.3610   43.0940 N   0  0  0  0  0  0  0  0  0  0  0  0
   27.4180   23.5170   42.6130 H   0  0  0  0  0  0  0  0  0  0  0  0
   28.7180   24.3880   43.4690 H   0  0  0  0  0  0  0  0  0  0  0  0
   29.9850   27.0590   48.6810 O   0  0  0  0  0  0  0  0  0  0  0  0
   31.3170   27.2720   48.2930 C   0  0  0  0  0  0  0  0  0  0  0  0
   31.6350   26.8370   47.0360 C   0  0  0  0  0  3  0  0  0  0  0  0
   33.3740   27.2830   46.9330 S   0  0  0  0  0  0  0  0  0  0  0  0
   33.4000   28.0210   48.6850 C   0  0  0  0  0  0  0  0  0  0  0  0
   32.3120   27.8220   48.9400 N   0  0  0  0  0  0  0  0  0  0  0  0
   34.6630   28.6110   49.2600 C   0  0  2  0  0  3  0  0  0  0  0  0
   34.5480   29.5370   50.3660 C   0  0  0  0  0  2  0  0  0  0  0  0
   34.6690   30.2270   49.1470 C   0  0  1  0  0  3  0  0  0  0  0  0
   36.0810   30.7940   48.9430 C   0  0  0  0  0  0  0  0  0  0  0  0
   36.7860   31.2000   49.9950 O   0  0  0  0  0  0  0  0  0  0  0  0
   36.6250   30.8760   47.6480 O   0  0  0  0  0  0  0  0  0  0  0  0
   37.5350   31.2410   47.5160 H   0  0  0  0  0  0  0  0  0  0  0  0
  1  2  1  0  0  0  0
  2  3  2  0  0  0  0
  4  3  1  0  0  0  0
  5  4  2  0  0  0  0
  6  5  1  0  0  0  0
  6  1  2  0  0  0  0
  7  8  1  0  0  0  0
  7  5  1  0  0  0  0
  9  8  2  0  0  0  0
 10 11  2  0  0  0  0
 10  9  1  0  0  0  0
 11  7  1  0  0  0  0
 12 13  1  0  0  0  0
 12 11  1  0  0  0  0
 14 13  2  0  0  0  0
 15 20  1  0  0  0  0
 15 14  1  0  0  0  0
 16 15  2  0  0  0  0
 17 18  2  0  0  0  0
 17 16  1  0  0  0  0
 18 19  1  0  0  0  0
 19 20  2  0  0  0  0
 20 12  1  0  0  0  0
 21 16  1  0  0  0  0
 21 23  1  0  0  0  0
 22 21  1  0  0  0  0
 24  1  1  0  0  0  0
 25 24  1  0  0  0  0
 25 29  1  0  0  0  0
 26 25  2  0  0  0  0
 27 26  1  0  0  0  0
 27 28  1  0  0  0  0
 28 29  2  0  0  0  0
 30 28  1  6  0  0  0
 30 31  1  0  0  0  0
 32 33  1  1  0  0  0
 32 30  1  0  0  0  0
 32 31  1  0  0  0  0
 33 34  2  0  0  0  0
 35 33  1  0  0  0  0
 36 35  1  0  0  0  0
M  END
>  <minimizedAffinity>
-7.12311316

$$$$

 OpenBabel03272514423D

 36 41  0  0  1  0  0  0  0  0999 V2000
   32.0850   30.2810   44.5610 C   0  0  0  0  0  0  0  0  0  0  0  0
   32.7430   31.4280   44.0920 C   0  0  0  0  0  3  0  0  0  0  0  0
   31.9650   32.4910   43.6690 C   0  0  0  0  0  3  0  0  0  0  0  0
   30.6320   32.4010   43.7160 N   0  0  0  0  0  0  0  0  0  0  0  0
   30.0150   31.2560   44.1840 C   0  0  0  0  0  0  0  0  0  0  0  0
   30.7400   30.2240   44.5950 N   0  0  0  0  0  0  0  0  0  0  0  0
   28.6080   31.2300   44.2010 N   0  0  0  0  0  0  0  0  0  0  0  0
   28.0390   32.0700   43.3030 C   0  0  0  0  0  3  0  0  0  0  0  0
   26.6430   31.9540   43.4380 C   0  0  0  0  0  3  0  0  0  0  0  0
   26.4340   31.0520   44.4060 N   0  0  0  0  0  0  0  0  0  0  0  0
   27.6140   30.6130   44.8700 C   0  0  0  0  0  0  0  0  0  0  0  0
   28.0030   29.6760   45.8720 N   0  0  0  0  0  0  0  0  0  0  0  0
   28.8720   28.6660   45.6840 C   0  0  0  0  0  3  0  0  0  0  0  0
   29.0330   27.9630   46.8050 N   0  0  0  0  0  0  0  0  0  0  0  0
   28.2720   28.4990   47.7510 C   0  0  0  0  0  0  0  0  0  0  0  0
   27.9870   28.2580   49.0950 C   0  0  0  0  0  0  0  0  0  0  0  0
   27.1350   29.0050   49.8220 N   0  0  0  0  0  0  0  0  0  0  0  0
   26.5270   30.0500   49.1910 C   0  0  0  0  0  3  0  0  0  0  0  0
   26.7760   30.3230   47.8790 N   0  0  0  0  0  0  0  0  0  0  0  0
   27.6300   29.5700   47.1610 C   0  0  0  0  0  0  0  0  0  0  0  0
   28.6960   27.1250   49.6360 N   0  0  0  0  0  0  0  0  0  0  0  0
   28.5610   26.8560   50.6210 H   0  0  0  0  0  0  0  0  0  0  0  0
   29.3370   26.5840   49.0380 H   0  0  0  0  0  0  0  0  0  0  0  0
   32.8430   29.2460   44.9720 O   0  0  0  0  0  0  0  0  0  0  0  0
   33.3930   29.2420   46.2630 C   0  0  0  0  0  0  0  0  0  0  0  0
   32.7940   28.3900   47.1490 C   0  0  0  0  0  3  0  0  0  0  0  0
   33.7650   28.6790   48.6350 S   0  0  0  0  0  0  0  0  0  0  0  0
   34.8790   29.9650   47.7870 C   0  0  0  0  0  0  0  0  0  0  0  0
   34.3910   29.9230   46.7630 N   0  0  0  0  0  0  0  0  0  0  0  0
   35.9870   30.6520   48.5450 C   0  0  2  0  0  3  0  0  0  0  0  0
   37.3530   30.4260   48.1220 C   0  0  0  0  0  2  0  0  0  0  0  0
   37.0150   29.5810   49.1940 C   0  0  1  0  0  3  0  0  0  0  0  0
   37.6090   30.0710   50.5220 C   0  0  0  0  0  0  0  0  0  0  0  0
   37.0540   29.6970   51.6710 O   0  0  0  0  0  0  0  0  0  0  0  0
   38.7410   30.9070   50.5180 O   0  0  0  0  0  0  0  0  0  0  0  0
   39.1250   31.2240   51.3740 H   0  0  0  0  0  0  0  0  0  0  0  0
  1  6  1  0  0  0  0
  1 24  1  0  0  0  0
  2  1  2  0  0  0  0
  3  4  2  0  0  0  0
  3  2  1  0  0  0  0
  4  5  1  0  0  0  0
  5  7  1  0  0  0  0
  5  6  2  0  0  0  0
  7 11  1  0  0  0  0
  8  9  2  0  0  0  0
  8  7  1  0  0  0  0
  9 10  1  0  0  0  0
 10 11  2  0  0  0  0
 11 12  1  0  0  0  0
 12 20  1  0  0  0  0
 13 12  1  0  0  0  0
 13 14  2  0  0  0  0
 14 15  1  0  0  0  0
 15 16  1  0  0  0  0
 16 21  1  0  0  0  0
 16 17  2  0  0  0  0
 18 17  1  0  0  0  0
 19 18  2  0  0  0  0
 20 15  2  0  0  0  0
 20 19  1  0  0  0  0
 21 22  1  0  0  0  0
 23 21  1  0  0  0  0
 24 25  1  0  0  0  0
 25 29  1  0  0  0  0
 25 26  2  0  0  0  0
 26 27  1  0  0  0  0
 28 27  1  0  0  0  0
 29 28  2  0  0  0  0
 30 28  1  6  0  0  0
 30 32  1  0  0  0  0
 31 30  1  0  0  0  0
 31 32  1  0  0  0  0
 32 33  1  1  0  0  0
 33 34  2  0  0  0  0
 35 33  1  0  0  0  0
 35 36  1  0  0  0  0
M  END
>  <minimizedAffinity>
-6.98769712

$$$$

 OpenBabel03272514423D

 36 41  0  0  1  0  0  0  0  0999 V2000
   29.3240   28.0550   47.5570 C   0  0  0  0  0  0  0  0  0  0  0  0
   28.8490   27.4050   48.7060 C   0  0  0  0  0  3  0  0  0  0  0  0
   27.7420   27.9400   49.3400 C   0  0  0  0  0  3  0  0  0  0  0  0
   27.1640   29.0420   48.8520 N   0  0  0  0  0  0  0  0  0  0  0  0
   27.6560   29.6580   47.7170 C   0  0  0  0  0  0  0  0  0  0  0  0
   28.7170   29.1640   47.0920 N   0  0  0  0  0  0  0  0  0  0  0  0
   27.0000   30.8170   47.2630 N   0  0  0  0  0  0  0  0  0  0  0  0
   26.3270   31.4760   48.2370 C   0  0  0  0  0  3  0  0  0  0  0  0
   25.7110   32.5950   47.6450 C   0  0  0  0  0  3  0  0  0  0  0  0
   26.0410   32.5610   46.3470 N   0  0  0  0  0  0  0  0  0  0  0  0
   26.8170   31.4930   46.1110 C   0  0  0  0  0  0  0  0  0  0  0  0
   27.4500   30.9600   44.9500 N   0  0  0  0  0  0  0  0  0  0  0  0
   28.7520   30.6300   44.8680 C   0  0  0  0  0  3  0  0  0  0  0  0
   29.0470   30.1580   43.6560 N   0  0  0  0  0  0  0  0  0  0  0  0
   27.9430   30.1700   42.9190 C   0  0  0  0  0  0  0  0  0  0  0  0
   27.5760   29.8230   41.6190 C   0  0  0  0  0  0  0  0  0  0  0  0
   26.3250   29.9540   41.1370 N   0  0  0  0  0  0  0  0  0  0  0  0
   25.3800   30.4560   41.9840 C   0  0  0  0  0  3  0  0  0  0  0  0
   25.6940   30.8080   43.2630 N   0  0  0  0  0  0  0  0  0  0  0  0
   26.9470   30.6720   43.7350 C   0  0  0  0  0  0  0  0  0  0  0  0
   28.6690   29.3080   40.8330 N   0  0  0  0  0  0  0  0  0  0  0  0
   28.5110   29.0200   39.8570 H   0  0  0  0  0  0  0  0  0  0  0  0
   29.6090   29.2280   41.2480 H   0  0  0  0  0  0  0  0  0  0  0  0
   30.4020   27.5330   46.9410 O   0  0  0  0  0  0  0  0  0  0  0  0
   31.6340   28.2030   46.9830 C   0  0  0  0  0  0  0  0  0  0  0  0
   31.9340   28.9420   45.8720 C   0  0  0  0  0  3  0  0  0  0  0  0
   33.5410   29.6170   46.3150 S   0  0  0  0  0  0  0  0  0  0  0  0
   33.5560   28.7540   48.0100 C   0  0  0  0  0  0  0  0  0  0  0  0
   32.5500   28.2380   47.9160 N   0  0  0  0  0  0  0  0  0  0  0  0
   34.7210   28.9180   48.9530 C   0  0  2  0  0  3  0  0  0  0  0  0
   34.4540   29.3570   50.3060 C   0  0  0  0  0  2  0  0  0  0  0  0
   34.8360   30.4400   49.4950 C   0  0  1  0  0  3  0  0  0  0  0  0
   36.2910   30.8630   49.7480 C   0  0  0  0  0  0  0  0  0  0  0  0
   36.8870   30.5240   50.8860 O   0  0  0  0  0  0  0  0  0  0  0  0
   36.9870   31.6010   48.7720 O   0  0  0  0  0  0  0  0  0  0  0  0
   37.9250   31.8740   48.9340 H   0  0  0  0  0  0  0  0  0  0  0  0
  1  2  1  0  0  0  0
  2  3  2  0  0  0  0
  4  3  1  0  0  0  0
  5  4  2  0  0  0  0
  6  1  2  0  0  0  0
  6  5  1  0  0  0  0
  7  5  1  0  0  0  0
  7  8  1  0  0  0  0
  9  8  2  0  0  0  0
 10  9  1  0  0  0  0
 11 10  2  0  0  0  0
 11  7  1  0  0  0  0
 12 11  1  0  0  0  0
 13 12  1  0  0  0  0
 14 13  2  0  0  0  0
 15 14  1  0  0  0  0
 15 20  1  0  0  0  0
 16 15  2  0  0  0  0
 17 16  1  0  0  0  0
 17 18  2  0  0  0  0
 18 19  1  0  0  0  0
 19 20  2  0  0  0  0
 20 12  1  0  0  0  0
 21 23  1  0  0  0  0
 21 16  1  0  0  0  0
 22 21  1  0  0  0  0
 24 25  1  0  0  0  0
 24  1  1  0  0  0  0
 25 29  1  0  0  0  0
 26 27  1  0  0  0  0
 26 25  2  0  0  0  0
 27 28  1  0  0  0  0
 29 28  2  0  0  0  0
 30 28  1  6  0  0  0
 30 32  1  0  0  0  0
 30 31  1  0  0  0  0
 32 33  1  1  0  0  0
 32 31  1  0  0  0  0
 33 34  2  0  0  0  0
 35 36  1  0  0  0  0
 35 33  1  0  0  0  0
M  END
>  <minimizedAffinity>
-6.91410398

$$$$

 OpenBabel03272514423D

 36 41  0  0  1  0  0  0  0  0999 V2000
   30.5200   27.4510   48.6930 C   0  0  0  0  0  0  0  0  0  0  0  0
   29.8480   28.0020   49.7940 C   0  0  0  0  0  3  0  0  0  0  0  0
   28.5250   28.3680   49.6270 C   0  0  0  0  0  3  0  0  0  0  0  0
   27.9300   28.1910   48.4430 N   0  0  0  0  0  0  0  0  0  0  0  0
   28.6200   27.6440   47.3780 C   0  0  0  0  0  0  0  0  0  0  0  0
   29.8890   27.2860   47.5140 N   0  0  0  0  0  0  0  0  0  0  0  0
   27.9310   27.4910   46.1600 N   0  0  0  0  0  0  0  0  0  0  0  0
   26.8900   28.3450   46.0140 C   0  0  0  0  0  3  0  0  0  0  0  0
   26.2880   28.0740   44.7710 C   0  0  0  0  0  3  0  0  0  0  0  0
   26.9910   27.0730   44.2250 N   0  0  0  0  0  0  0  0  0  0  0  0
   27.9820   26.7180   45.0570 C   0  0  0  0  0  0  0  0  0  0  0  0
   29.0190   25.7410   45.0080 N   0  0  0  0  0  0  0  0  0  0  0  0
   30.3230   25.9930   45.2250 C   0  0  0  0  0  3  0  0  0  0  0  0
   31.0470   24.8790   45.1110 N   0  0  0  0  0  0  0  0  0  0  0  0
   30.2320   23.8740   44.8170 C   0  0  0  0  0  0  0  0  0  0  0  0
   30.3400   22.5040   44.5760 C   0  0  0  0  0  0  0  0  0  0  0  0
   29.2890   21.7130   44.2910 N   0  0  0  0  0  0  0  0  0  0  0  0
   28.0590   22.3020   44.2410 C   0  0  0  0  0  3  0  0  0  0  0  0
   27.9070   23.6370   44.4710 N   0  0  0  0  0  0  0  0  0  0  0  0
   28.9640   24.4190   44.7550 C   0  0  0  0  0  0  0  0  0  0  0  0
   31.6930   22.0130   44.6590 N   0  0  0  0  0  0  0  0  0  0  0  0
   31.8880   21.0150   44.4990 H   0  0  0  0  0  0  0  0  0  0  0  0
   32.4630   22.6600   44.8800 H   0  0  0  0  0  0  0  0  0  0  0  0
   31.8080   27.0950   48.8570 O   0  0  0  0  0  0  0  0  0  0  0  0
   32.8380   27.9670   48.4710 C   0  0  0  0  0  0  0  0  0  0  0  0
   32.5790   28.7180   47.3580 C   0  0  0  0  0  3  0  0  0  0  0  0
   34.0980   29.6700   47.2090 S   0  0  0  0  0  0  0  0  0  0  0  0
   34.8790   28.8670   48.7440 C   0  0  0  0  0  0  0  0  0  0  0  0
   34.0120   28.1830   49.0050 N   0  0  0  0  0  0  0  0  0  0  0  0
   36.2630   29.2520   49.2010 C   0  0  2  0  0  3  0  0  0  0  0  0
   36.5260   29.3130   50.6240 C   0  0  0  0  0  2  0  0  0  0  0  0
   36.2360   30.5910   50.1130 C   0  0  1  0  0  3  0  0  0  0  0  0
   37.5030   31.4430   49.9400 C   0  0  0  0  0  0  0  0  0  0  0  0
   37.4080   32.6720   49.4430 O   0  0  0  0  0  0  0  0  0  0  0  0
   38.7550   30.9210   50.3140 O   0  0  0  0  0  0  0  0  0  0  0  0
   39.5720   31.4690   50.2030 H   0  0  0  0  0  0  0  0  0  0  0  0
  1 24  1  0  0  0  0
  1  2  1  0  0  0  0
  3  2  2  0  0  0  0
  4  3  1  0  0  0  0
  5  6  1  0  0  0  0
  5  4  2  0  0  0  0
  6  1  2  0  0  0  0
  7  5  1  0  0  0  0
  8  7  1  0  0  0  0
  9  8  2  0  0  0  0
 10  9  1  0  0  0  0
 10 11  2  0  0  0  0
 11  7  1  0  0  0  0
 12 11  1  0  0  0  0
 12 13  1  0  0  0  0
 14 13  2  0  0  0  0
 15 14  1  0  0  0  0
 16 21  1  0  0  0  0
 16 15  2  0  0  0  0
 17 16  1  0  0  0  0
 18 17  2  0  0  0  0
 18 19  1  0  0  0  0
 19 20  2  0  0  0  0
 20 15  1  0  0  0  0
 20 12  1  0  0  0  0
 21 23  1  0  0  0  0
 22 21  1  0  0  0  0
 25 24  1  0  0  0  0
 25 29  1  0  0  0  0
 26 25  2  0  0  0  0
 27 26  1  0  0  0  0
 27 28  1  0  0  0  0
 28 29  2  0  0  0  0
 30 28  1  1  0  0  0
 30 32  1  0  0  0  0
 30 31  1  0  0  0  0
 32 33  1  6  0  0  0
 32 31  1  0  0  0  0
 33 35  1  0  0  0  0
 34 33  2  0  0  0  0
 36 35  1  0  0  0  0
M  END
>  <minimizedAffinity>
-6.89515114

$$$$

 OpenBabel03272514423D

 36 41  0  0  1  0  0  0  0  0999 V2000
   32.2480   29.5370   46.6260 C   0  0  0  0  0  0  0  0  0  0  0  0
   32.6360   30.6410   45.8510 C   0  0  0  0  0  3  0  0  0  0  0  0
   31.7500   31.1010   44.8930 C   0  0  0  0  0  3  0  0  0  0  0  0
   30.5690   30.4940   44.7330 N   0  0  0  0  0  0  0  0  0  0  0  0
   30.2180   29.4100   45.5130 C   0  0  0  0  0  0  0  0  0  0  0  0
   31.0500   28.9500   46.4370 N   0  0  0  0  0  0  0  0  0  0  0  0
   28.9610   28.8180   45.2850 N   0  0  0  0  0  0  0  0  0  0  0  0
   28.4840   29.0230   44.0340 C   0  0  0  0  0  3  0  0  0  0  0  0
   27.2270   28.3950   43.9510 C   0  0  0  0  0  3  0  0  0  0  0  0
   27.0040   27.8430   45.1500 N   0  0  0  0  0  0  0  0  0  0  0  0
   28.0450   28.0940   45.9580 C   0  0  0  0  0  0  0  0  0  0  0  0
   28.3570   27.7660   47.3100 N   0  0  0  0  0  0  0  0  0  0  0  0
   29.5060   27.1960   47.7170 C   0  0  0  0  0  3  0  0  0  0  0  0
   29.5040   27.0130   49.0380 N   0  0  0  0  0  0  0  0  0  0  0  0
   28.3520   27.4590   49.5230 C   0  0  0  0  0  0  0  0  0  0  0  0
   27.7360   27.5600   50.7710 C   0  0  0  0  0  0  0  0  0  0  0  0
   26.5090   28.0810   50.9570 N   0  0  0  0  0  0  0  0  0  0  0  0
   25.8480   28.5300   49.8510 C   0  0  0  0  0  3  0  0  0  0  0  0
   26.4110   28.4520   48.6120 N   0  0  0  0  0  0  0  0  0  0  0  0
   27.6390   27.9290   48.4370 C   0  0  0  0  0  0  0  0  0  0  0  0
   28.5440   27.0490   51.8510 N   0  0  0  0  0  0  0  0  0  0  0  0
   28.1870   27.0740   52.8160 H   0  0  0  0  0  0  0  0  0  0  0  0
   29.4770   26.6590   51.6560 H   0  0  0  0  0  0  0  0  0  0  0  0
   33.1120   29.0900   47.5580 O   0  0  0  0  0  0  0  0  0  0  0  0
   34.3610   29.7080   47.7190 C   0  0  0  0  0  0  0  0  0  0  0  0
   34.6460   30.1230   48.9900 C   0  0  0  0  0  3  0  0  0  0  0  0
   36.2830   30.8370   48.7730 S   0  0  0  0  0  0  0  0  0  0  0  0
   36.3270   30.4440   46.9140 C   0  0  0  0  0  0  0  0  0  0  0  0
   35.3050   29.9530   46.8480 N   0  0  0  0  0  0  0  0  0  0  0  0
   37.5190   30.8160   46.0700 C   0  0  2  0  0  3  0  0  0  0  0  0
   37.3310   31.7650   44.9930 C   0  0  0  0  0  2  0  0  0  0  0  0
   37.2840   30.4440   44.5110 C   0  0  1  0  0  3  0  0  0  0  0  0
   38.5850   30.0440   43.8020 C   0  0  0  0  0  0  0  0  0  0  0  0
   39.1580   30.8880   42.9500 O   0  0  0  0  0  0  0  0  0  0  0  0
   39.1680   28.7890   44.0610 O   0  0  0  0  0  0  0  0  0  0  0  0
   40.0080   28.5300   43.6040 H   0  0  0  0  0  0  0  0  0  0  0  0
  1 24  1  0  0  0  0
  2  1  2  0  0  0  0
  3  2  1  0  0  0  0
  4  3  2  0  0  0  0
  4  5  1  0  0  0  0
  5  6  2  0  0  0  0
  6  1  1  0  0  0  0
  7  5  1  0  0  0  0
  7 11  1  0  0  0  0
  8  7  1  0  0  0  0
  9  8  2  0  0  0  0
  9 10  1  0  0  0  0
 10 11  2  0  0  0  0
 11 12  1  0  0  0  0
 12 13  1  0  0  0  0
 12 20  1  0  0  0  0
 13 14  2  0  0  0  0
 14 15  1  0  0  0  0
 15 16  1  0  0  0  0
 16 17  2  0  0  0  0
 16 21  1  0  0  0  0
 18 17  1  0  0  0  0
 19 18  2  0  0  0  0
 20 19  1  0  0  0  0
 20 15  2  0  0  0  0
 21 22  1  0  0  0  0
 23 21  1  0  0  0  0
 24 25  1  0  0  0  0
 25 26  2  0  0  0  0
 27 26  1  0  0  0  0
 28 27  1  0  0  0  0
 29 28  2  0  0  0  0
 29 25  1  0  0  0  0
 30 28  1  1  0  0  0
 31 30  1  0  0  0  0
 32 33  1  6  0  0  0
 32 31  1  0  0  0  0
 32 30  1  0  0  0  0
 33 35  1  0  0  0  0
 34 33  2  0  0  0  0
 36 35  1  0  0  0  0
M  END
>  <minimizedAffinity>
-6.82807922

$$$$

 OpenBabel03272514423D

 36 41  0  0  1  0  0  0  0  0999 V2000
   32.3790   31.1950   43.8890 C   0  0  0  0  0  0  0  0  0  0  0  0
   32.6560   32.5450   43.6280 C   0  0  0  0  0  3  0  0  0  0  0  0
   31.6250   33.4560   43.7770 C   0  0  0  0  0  3  0  0  0  0  0  0
   30.4140   33.0350   44.1580 N   0  0  0  0  0  0  0  0  0  0  0  0
   30.1760   31.6970   44.4080 C   0  0  0  0  0  0  0  0  0  0  0  0
   31.1480   30.8050   44.2720 N   0  0  0  0  0  0  0  0  0  0  0  0
   28.8760   31.3260   44.8010 N   0  0  0  0  0  0  0  0  0  0  0  0
   27.9170   32.1910   44.3910 C   0  0  0  0  0  3  0  0  0  0  0  0
   26.6810   31.7090   44.8620 C   0  0  0  0  0  3  0  0  0  0  0  0
   26.9500   30.5790   45.5300 N   0  0  0  0  0  0  0  0  0  0  0  0
   28.2700   30.3430   45.4970 C   0  0  0  0  0  0  0  0  0  0  0  0
   29.1110   29.3190   46.0210 N   0  0  0  0  0  0  0  0  0  0  0  0
   30.0160   28.6260   45.3060 C   0  0  0  0  0  3  0  0  0  0  0  0
   30.6480   27.7370   46.0730 N   0  0  0  0  0  0  0  0  0  0  0  0
   30.1690   27.8290   47.3070 C   0  0  0  0  0  0  0  0  0  0  0  0
   30.3870   27.2120   48.5390 C   0  0  0  0  0  0  0  0  0  0  0  0
   29.7180   27.5330   49.6620 N   0  0  0  0  0  0  0  0  0  0  0  0
   28.7780   28.5190   49.5690 C   0  0  0  0  0  3  0  0  0  0  0  0
   28.5330   29.1490   48.3860 N   0  0  0  0  0  0  0  0  0  0  0  0
   29.2080   28.8210   47.2680 C   0  0  0  0  0  0  0  0  0  0  0  0
   31.4040   26.1910   48.4960 N   0  0  0  0  0  0  0  0  0  0  0  0
   31.6470   25.6700   49.3510 H   0  0  0  0  0  0  0  0  0  0  0  0
   31.8870   25.9820   47.6100 H   0  0  0  0  0  0  0  0  0  0  0  0
   33.3830   30.3090   43.7440 O   0  0  0  0  0  0  0  0  0  0  0  0
   34.4450   30.2870   44.6620 C   0  0  0  0  0  0  0  0  0  0  0  0
   35.6610   30.6550   44.1560 C   0  0  0  0  0  3  0  0  0  0  0  0
   36.7130   30.4960   45.6060 S   0  0  0  0  0  0  0  0  0  0  0  0
   35.2790   29.9320   46.7190 C   0  0  0  0  0  0  0  0  0  0  0  0
   34.4630   29.9710   45.9310 N   0  0  0  0  0  0  0  0  0  0  0  0
   35.5080   29.6050   48.1730 C   0  0  2  0  0  3  0  0  0  0  0  0
   34.9070   30.4620   49.1730 C   0  0  0  0  0  2  0  0  0  0  0  0
   36.2470   30.8220   48.9460 C   0  0  1  0  0  3  0  0  0  0  0  0
   37.1740   30.3270   50.0650 C   0  0  0  0  0  0  0  0  0  0  0  0
   36.6620   29.9980   51.2470 O   0  0  0  0  0  0  0  0  0  0  0  0
   38.5580   30.2190   49.8340 O   0  0  0  0  0  0  0  0  0  0  0  0
   39.1570   29.9000   50.5550 H   0  0  0  0  0  0  0  0  0  0  0  0
  1  6  1  0  0  0  0
  2  3  1  0  0  0  0
  2  1  2  0  0  0  0
  3  4  2  0  0  0  0
  4  5  1  0  0  0  0
  5  7  1  0  0  0  0
  6  5  2  0  0  0  0
  7 11  1  0  0  0  0
  8  7  1  0  0  0  0
  8  9  2  0  0  0  0
  9 10  1  0  0  0  0
 11 10  2  0  0  0  0
 11 12  1  0  0  0  0
 12 20  1  0  0  0  0
 13 12  1  0  0  0  0
 13 14  2  0  0  0  0
 14 15  1  0  0  0  0
 15 16  1  0  0  0  0
 16 17  2  0  0  0  0
 18 17  1  0  0  0  0
 19 18  2  0  0  0  0
 20 15  2  0  0  0  0
 20 19  1  0  0  0  0
 21 16  1  0  0  0  0
 21 22  1  0  0  0  0
 23 21  1  0  0  0  0
 24  1  1  0  0  0  0
 24 25  1  0  0  0  0
 25 29  1  0  0  0  0
 26 25  2  0  0  0  0
 26 27  1  0  0  0  0
 27 28  1  0  0  0  0
 29 28  2  0  0  0  0
 30 28  1  6  0  0  0
 30 32  1  0  0  0  0
 30 31  1  0  0  0  0
 32 31  1  0  0  0  0
 32 33  1  1  0  0  0
 33 34  2  0  0  0  0
 35 33  1  0  0  0  0
 35 36  1  0  0  0  0
M  END
>  <minimizedAffinity>
-6.65107775

$$$$

 OpenBabel03272514423D

 36 41  0  0  1  0  0  0  0  0999 V2000
   30.3740   31.2150   43.3720 C   0  0  0  0  0  0  0  0  0  0  0  0
   31.2730   31.5880   42.3610 C   0  0  0  0  0  3  0  0  0  0  0  0
   30.7480   32.0980   41.1870 C   0  0  0  0  0  3  0  0  0  0  0  0
   29.4240   32.2220   41.0470 N   0  0  0  0  0  0  0  0  0  0  0  0
   28.5670   31.8470   42.0630 C   0  0  0  0  0  0  0  0  0  0  0  0
   29.0450   31.3540   43.1980 N   0  0  0  0  0  0  0  0  0  0  0  0
   27.1850   32.0010   41.8450 N   0  0  0  0  0  0  0  0  0  0  0  0
   26.8380   31.9930   40.5350 C   0  0  0  0  0  3  0  0  0  0  0  0
   25.4430   32.1700   40.4630 C   0  0  0  0  0  3  0  0  0  0  0  0
   25.0140   32.2740   41.7280 N   0  0  0  0  0  0  0  0  0  0  0  0
   26.0580   32.1730   42.5640 C   0  0  0  0  0  0  0  0  0  0  0  0
   26.2040   32.2100   43.9820 N   0  0  0  0  0  0  0  0  0  0  0  0
   26.8540   31.2850   44.7120 C   0  0  0  0  0  3  0  0  0  0  0  0
   26.8200   31.5940   46.0090 N   0  0  0  0  0  0  0  0  0  0  0  0
   26.1470   32.7290   46.1540 C   0  0  0  0  0  0  0  0  0  0  0  0
   25.7640   33.5640   47.2030 C   0  0  0  0  0  0  0  0  0  0  0  0
   25.0540   34.6960   47.0330 N   0  0  0  0  0  0  0  0  0  0  0  0
   24.7010   35.0260   45.7570 C   0  0  0  0  0  3  0  0  0  0  0  0
   25.0550   34.2390   44.7020 N   0  0  0  0  0  0  0  0  0  0  0  0
   25.7640   33.1090   44.8830 C   0  0  0  0  0  0  0  0  0  0  0  0
   26.2010   33.0990   48.4960 N   0  0  0  0  0  0  0  0  0  0  0  0
   25.9730   33.6400   49.3420 H   0  0  0  0  0  0  0  0  0  0  0  0
   26.7410   32.2250   48.5730 H   0  0  0  0  0  0  0  0  0  0  0  0
   30.8850   30.7180   44.5150 O   0  0  0  0  0  0  0  0  0  0  0  0
   30.2920   29.6050   45.1290 C   0  0  0  0  0  0  0  0  0  0  0  0
   30.5360   28.4050   44.5210 C   0  0  0  0  0  3  0  0  0  0  0  0
   29.6280   27.2740   45.5850 S   0  0  0  0  0  0  0  0  0  0  0  0
   29.0340   28.6640   46.7370 C   0  0  0  0  0  0  0  0  0  0  0  0
   29.5390   29.5240   46.1950 N   0  0  0  0  0  0  0  0  0  0  0  0
   28.1570   28.3640   47.9260 C   0  0  2  0  0  3  0  0  0  0  0  0
   27.2710   27.2210   47.8570 C   0  0  0  0  0  2  0  0  0  0  0  0
   26.5870   28.4060   47.5320 C   0  0  1  0  0  3  0  0  0  0  0  0
   25.7050   28.8980   48.6890 C   0  0  0  0  0  0  0  0  0  0  0  0
   25.3660   30.1810   48.7600 O   0  0  0  0  0  0  0  0  0  0  0  0
   25.2560   27.9880   49.6640 O   0  0  0  0  0  0  0  0  0  0  0  0
   24.6880   28.3040   50.4110 H   0  0  0  0  0  0  0  0  0  0  0  0
  1 24  1  0  0  0  0
  2  1  2  0  0  0  0
  3  2  1  0  0  0  0
  4  3  2  0  0  0  0
  4  5  1  0  0  0  0
  5  6  2  0  0  0  0
  6  1  1  0  0  0  0
  7  5  1  0  0  0  0
  7 11  1  0  0  0  0
  8  7  1  0  0  0  0
  9  8  2  0  0  0  0
  9 10  1  0  0  0  0
 10 11  2  0  0  0  0
 11 12  1  0  0  0  0
 12 13  1  0  0  0  0
 12 20  1  0  0  0  0
 13 14  2  0  0  0  0
 14 15  1  0  0  0  0
 15 16  1  0  0  0  0
 16 21  1  0  0  0  0
 17 16  2  0  0  0  0
 18 17  1  0  0  0  0
 19 20  1  0  0  0  0
 19 18  2  0  0  0  0
 20 15  2  0  0  0  0
 21 23  1  0  0  0  0
 21 22  1  0  0  0  0
 24 25  1  0  0  0  0
 25 29  1  0  0  0  0
 26 25  2  0  0  0  0
 26 27  1  0  0  0  0
 27 28  1  0  0  0  0
 29 28  2  0  0  0  0
 30 28  1  6  0  0  0
 31 30  1  0  0  0  0
 32 31  1  0  0  0  0
 32 30  1  0  0  0  0
 32 33  1  1  0  0  0
 33 34  2  0  0  0  0
 33 35  1  0  0  0  0
 35 36  1  0  0  0  0
M  END
>  <minimizedAffinity>
-6.64868164

$$$$

 OpenBabel03272514423D

 36 41  0  0  1  0  0  0  0  0999 V2000
   26.8600   30.8340   46.4630 C   0  0  0  0  0  0  0  0  0  0  0  0
   26.2040   31.6440   47.4030 C   0  0  0  0  0  3  0  0  0  0  0  0
   26.4770   31.4290   48.7420 C   0  0  0  0  0  3  0  0  0  0  0  0
   27.3410   30.4750   49.1010 N   0  0  0  0  0  0  0  0  0  0  0  0
   27.9710   29.6950   48.1500 C   0  0  0  0  0  0  0  0  0  0  0  0
   27.7260   29.8810   46.8600 N   0  0  0  0  0  0  0  0  0  0  0  0
   28.8660   28.7060   48.6010 N   0  0  0  0  0  0  0  0  0  0  0  0
   28.6180   28.2860   49.8640 C   0  0  0  0  0  3  0  0  0  0  0  0
   29.5870   27.3180   50.1880 C   0  0  0  0  0  3  0  0  0  0  0  0
   30.3720   27.1980   49.1090 N   0  0  0  0  0  0  0  0  0  0  0  0
   29.9420   28.0310   48.1490 C   0  0  0  0  0  0  0  0  0  0  0  0
   30.3730   28.3280   46.8230 N   0  0  0  0  0  0  0  0  0  0  0  0
   29.5770   28.3280   45.7380 C   0  0  0  0  0  3  0  0  0  0  0  0
   30.2680   28.6450   44.6420 N   0  0  0  0  0  0  0  0  0  0  0  0
   31.5310   28.8590   44.9880 C   0  0  0  0  0  0  0  0  0  0  0  0
   32.7210   29.2110   44.3510 C   0  0  0  0  0  0  0  0  0  0  0  0
   33.8950   29.3600   44.9940 N   0  0  0  0  0  0  0  0  0  0  0  0
   33.8980   29.1510   46.3430 C   0  0  0  0  0  3  0  0  0  0  0  0
   32.7590   28.8070   47.0060 N   0  0  0  0  0  0  0  0  0  0  0  0
   31.5900   28.6600   46.3540 C   0  0  0  0  0  0  0  0  0  0  0  0
   32.5760   29.4010   42.9290 N   0  0  0  0  0  0  0  0  0  0  0  0
   33.3920   29.6630   42.3590 H   0  0  0  0  0  0  0  0  0  0  0  0
   31.6560   29.2740   42.4840 H   0  0  0  0  0  0  0  0  0  0  0  0
   26.5940   31.0440   45.1590 O   0  0  0  0  0  0  0  0  0  0  0  0
   27.4890   31.7750   44.3630 C   0  0  0  0  0  0  0  0  0  0  0  0
   26.9110   32.5400   43.3890 C   0  0  0  0  0  3  0  0  0  0  0  0
   28.3540   33.2910   42.6210 S   0  0  0  0  0  0  0  0  0  0  0  0
   29.5670   32.4130   43.7920 C   0  0  0  0  0  0  0  0  0  0  0  0
   28.7940   31.8470   44.4010 N   0  0  0  0  0  0  0  0  0  0  0  0
   31.0550   32.6260   43.6700 C   0  0  2  0  0  3  0  0  0  0  0  0
   31.7860   33.0610   44.8410 C   0  0  0  0  0  2  0  0  0  0  0  0
   31.4660   34.1540   44.0160 C   0  0  1  0  0  3  0  0  0  0  0  0
   32.6760   34.6340   43.2010 C   0  0  0  0  0  0  0  0  0  0  0  0
   32.4930   35.1380   41.9840 O   0  0  0  0  0  0  0  0  0  0  0  0
   33.9700   34.5440   43.7460 O   0  0  0  0  0  0  0  0  0  0  0  0
   34.7500   34.8530   43.2210 H   0  0  0  0  0  0  0  0  0  0  0  0
  1  6  2  0  0  0  0
  1  2  1  0  0  0  0
  2  3  2  0  0  0  0
  3  4  1  0  0  0  0
  5  7  1  0  0  0  0
  5  4  2  0  0  0  0
  6  5  1  0  0  0  0
  7  8  1  0  0  0  0
  8  9  2  0  0  0  0
 10  9  1  0  0  0  0
 11  7  1  0  0  0  0
 11 10  2  0  0  0  0
 12 11  1  0  0  0  0
 13 12  1  0  0  0  0
 14 15  1  0  0  0  0
 14 13  2  0  0  0  0
 15 20  1  0  0  0  0
 16 15  2  0  0  0  0
 16 17  1  0  0  0  0
 17 18  2  0  0  0  0
 18 19  1  0  0  0  0
 20 12  1  0  0  0  0
 20 19  2  0  0  0  0
 21 16  1  0  0  0  0
 22 21  1  0  0  0  0
 23 21  1  0  0  0  0
 24  1  1  0  0  0  0
 25 29  1  0  0  0  0
 25 24  1  0  0  0  0
 26 25  2  0  0  0  0
 27 26  1  0  0  0  0
 27 28  1  0  0  0  0
 28 29  2  0  0  0  0
 30 28  1  1  0  0  0
 30 32  1  0  0  0  0
 30 31  1  0  0  0  0
 32 33  1  6  0  0  0
 32 31  1  0  0  0  0
 33 35  1  0  0  0  0
 34 33  2  0  0  0  0
 36 35  1  0  0  0  0
M  END
>  <minimizedAffinity>
-6.59451532

$$$$
