
 OpenBabel03272514483D

 38 44  0  0  0  0  0  0  0  0999 V2000
   32.3430   30.8100   43.2710 C   0  0  0  0  0  0  0  0  0  0  0  0
   31.0170   31.3020   43.4090 C   0  0  0  0  0  3  0  0  0  0  0  0
   30.4200   31.1560   44.6350 C   0  0  0  0  0  3  0  0  0  0  0  0
   31.1580   30.5600   45.5830 N   0  0  0  0  0  0  0  0  0  0  0  0
   32.3730   30.1030   45.4810 C   0  0  0  0  0  0  0  0  0  0  0  0
   32.9760   30.2350   44.2890 N   0  0  0  0  0  0  0  0  0  0  0  0
   32.9110   29.5260   46.6410 N   0  0  0  0  0  0  0  0  0  0  0  0
   33.9520   30.1560   47.2480 C   0  0  0  0  0  3  0  0  0  0  0  0
   34.3240   29.4290   48.3590 C   0  0  0  0  0  0  0  0  0  0  0  0
   33.5120   28.3750   48.4140 N   0  0  0  0  0  0  0  0  0  0  0  0
   32.6310   28.4290   47.3480 C   0  0  0  0  0  0  0  0  0  0  0  0
   31.6350   27.4420   47.0820 C   0  0  0  0  0  0  0  0  0  0  0  0
   31.8230   26.4270   46.1220 C   0  0  0  0  0  3  0  0  0  0  0  0
   30.6950   25.6480   46.0670 N   0  0  0  0  0  0  0  0  0  0  0  0
   29.8050   26.1880   47.0030 C   0  0  0  0  0  3  0  0  0  0  0  0
   30.4300   27.2220   47.5490 N   0  0  0  0  0  0  0  0  0  0  0  0
   29.5200   27.6540   48.5200 C   0  0  0  0  0  0  0  0  0  0  0  0
   29.6540   26.9880   49.6690 N   0  0  0  0  0  0  0  0  0  0  0  0
   28.8050   27.2460   50.6990 C   0  0  0  0  0  3  0  0  0  0  0  0
   27.8200   28.1430   50.6400 N   0  0  0  0  0  0  0  0  0  0  0  0
   27.6500   28.8390   49.4970 C   0  0  0  0  0  0  0  0  0  0  0  0
   26.6800   29.7860   49.2960 C   0  0  0  0  0  3  0  0  0  0  0  0
   26.5510   30.4540   48.1230 C   0  0  0  0  0  3  0  0  0  0  0  0
   27.4300   30.1740   47.0800 C   0  0  0  0  0  3  0  0  0  0  0  0
   28.4230   29.2390   47.2180 C   0  0  0  0  0  3  0  0  0  0  0  0
   28.5100   28.5930   48.4210 C   0  0  0  0  0  0  0  0  0  0  0  0
   35.3880   29.7460   49.2820 N   0  0  0  0  0  0  0  0  0  0  0  0
   35.4660   29.3030   50.5510 C   0  0  0  0  0  3  0  0  0  0  0  0
   36.5710   29.7840   51.1180 N   0  0  0  0  0  0  0  0  0  0  0  0
   37.1760   30.5340   50.1670 C   0  0  0  0  0  0  0  0  0  0  0  0
   38.3590   31.2640   50.2140 C   0  0  0  0  0  3  0  0  0  0  0  0
   38.7540   31.9360   49.1230 N   0  0  0  0  0  0  0  0  0  0  0  0
   38.0340   31.9210   47.9840 C   0  0  0  0  0  3  0  0  0  0  0  0
   36.8710   31.2120   47.9160 N   0  0  0  0  0  0  0  0  0  0  0  0
   36.4410   30.5260   48.9860 C   0  0  0  0  0  0  0  0  0  0  0  0
   33.0100   30.9580   41.9980 N   0  0  0  0  0  0  0  0  0  0  0  0
   33.9710   30.6080   41.8770 H   0  0  0  0  0  0  0  0  0  0  0  0
   32.5240   31.4120   41.2120 H   0  0  0  0  0  0  0  0  0  0  0  0
  1  2  2  0  0  0  0
  1  6  1  0  0  0  0
  2  3  1  0  0  0  0
  3  4  2  0  0  0  0
  5  4  1  0  0  0  0
  5  7  1  0  0  0  0
  6  5  2  0  0  0  0
  7  8  1  0  0  0  0
  7 11  1  0  0  0  0
  8  9  2  0  0  0  0
  9 10  1  0  0  0  0
  9 27  1  0  0  0  0
 11 10  2  0  0  0  0
 12 11  1  0  0  0  0
 12 16  1  0  0  0  0
 13 12  2  0  0  0  0
 14 13  1  0  0  0  0
 14 15  2  0  0  0  0
 15 16  1  0  0  0  0
 16 17  1  0  0  0  0
 17 18  1  0  0  0  0
 18 19  2  0  0  0  0
 20 19  1  0  0  0  0
 21 20  2  0  0  0  0
 22 21  1  0  0  0  0
 23 22  2  0  0  0  0
 24 25  2  0  0  0  0
 24 23  1  0  0  0  0
 25 26  1  0  0  0  0
 26 17  2  0  0  0  0
 26 21  1  0  0  0  0
 27 28  1  0  0  0  0
 28 29  2  0  0  0  0
 30 31  1  0  0  0  0
 30 29  1  0  0  0  0
 32 31  2  0  0  0  0
 33 32  1  0  0  0  0
 34 33  2  0  0  0  0
 34 35  1  0  0  0  0
 35 27  1  0  0  0  0
 35 30  2  0  0  0  0
 36  1  1  0  0  0  0
 37 36  1  0  0  0  0
 38 36  1  0  0  0  0
M  END
>  <minimizedAffinity>
-8.43085766

$$$$

 OpenBabel03272514483D

 38 44  0  0  0  0  0  0  0  0999 V2000
   27.7060   27.1660   50.7650 C   0  0  0  0  0  0  0  0  0  0  0  0
   29.0990   27.0990   51.0330 C   0  0  0  0  0  3  0  0  0  0  0  0
   29.9340   27.7720   50.1790 C   0  0  0  0  0  3  0  0  0  0  0  0
   29.3400   28.4300   49.1720 N   0  0  0  0  0  0  0  0  0  0  0  0
   28.0680   28.5070   48.9060 C   0  0  0  0  0  0  0  0  0  0  0  0
   27.2330   27.8540   49.7300 N   0  0  0  0  0  0  0  0  0  0  0  0
   27.7210   29.2730   47.7830 N   0  0  0  0  0  0  0  0  0  0  0  0
   27.0300   30.4270   47.9820 C   0  0  0  0  0  3  0  0  0  0  0  0
   26.7930   31.0190   46.7600 C   0  0  0  0  0  0  0  0  0  0  0  0
   27.3390   30.2250   45.8400 N   0  0  0  0  0  0  0  0  0  0  0  0
   27.9170   29.1370   46.4700 C   0  0  0  0  0  0  0  0  0  0  0  0
   28.5700   28.0700   45.7840 C   0  0  0  0  0  0  0  0  0  0  0  0
   27.9120   26.8620   45.4770 C   0  0  0  0  0  3  0  0  0  0  0  0
   28.7920   26.0200   44.8440 N   0  0  0  0  0  0  0  0  0  0  0  0
   30.0030   26.7170   44.7620 C   0  0  0  0  0  3  0  0  0  0  0  0
   29.7870   27.8970   45.3270 N   0  0  0  0  0  0  0  0  0  0  0  0
   31.0040   28.5590   45.1350 C   0  0  0  0  0  0  0  0  0  0  0  0
   31.0700   29.1590   43.9430 N   0  0  0  0  0  0  0  0  0  0  0  0
   32.2120   29.7980   43.5750 C   0  0  0  0  0  3  0  0  0  0  0  0
   33.3010   29.8690   44.3400 N   0  0  0  0  0  0  0  0  0  0  0  0
   33.2770   29.2760   45.5530 C   0  0  0  0  0  0  0  0  0  0  0  0
   34.3220   29.2680   46.4380 C   0  0  0  0  0  3  0  0  0  0  0  0
   34.2450   28.6510   47.6440 C   0  0  0  0  0  3  0  0  0  0  0  0
   33.0670   28.0010   48.0020 C   0  0  0  0  0  3  0  0  0  0  0  0
   31.9840   27.9750   47.1600 C   0  0  0  0  0  3  0  0  0  0  0  0
   32.1140   28.6120   45.9570 C   0  0  0  0  0  0  0  0  0  0  0  0
   26.0890   32.2580   46.5220 N   0  0  0  0  0  0  0  0  0  0  0  0
   25.4610   32.9820   47.4670 C   0  0  0  0  0  3  0  0  0  0  0  0
   24.9180   34.0620   46.9050 N   0  0  0  0  0  0  0  0  0  0  0  0
   25.2290   33.9870   45.5900 C   0  0  0  0  0  0  0  0  0  0  0  0
   24.9180   34.8480   44.5420 C   0  0  0  0  0  3  0  0  0  0  0  0
   25.3460   34.5510   43.3070 N   0  0  0  0  0  0  0  0  0  0  0  0
   26.0700   33.4420   43.0560 C   0  0  0  0  0  3  0  0  0  0  0  0
   26.3850   32.5840   44.0680 N   0  0  0  0  0  0  0  0  0  0  0  0
   25.9760   32.8450   45.3190 C   0  0  0  0  0  0  0  0  0  0  0  0
   26.7930   26.4800   51.6500 N   0  0  0  0  0  0  0  0  0  0  0  0
   25.7790   26.5150   51.4730 H   0  0  0  0  0  0  0  0  0  0  0  0
   27.1570   25.9540   52.4580 H   0  0  0  0  0  0  0  0  0  0  0  0
  1  2  1  0  0  0  0
  1 36  1  0  0  0  0
  3  2  2  0  0  0  0
  4  3  1  0  0  0  0
  5  4  2  0  0  0  0
  5  6  1  0  0  0  0
  6  1  2  0  0  0  0
  7  8  1  0  0  0  0
  7  5  1  0  0  0  0
  9  8  2  0  0  0  0
 10 11  2  0  0  0  0
 10  9  1  0  0  0  0
 11  7  1  0  0  0  0
 12 11  1  0  0  0  0
 13 12  2  0  0  0  0
 14 13  1  0  0  0  0
 15 14  2  0  0  0  0
 15 16  1  0  0  0  0
 16 12  1  0  0  0  0
 17 16  1  0  0  0  0
 17 26  1  0  0  0  0
 18 17  2  0  0  0  0
 19 18  1  0  0  0  0
 19 20  2  0  0  0  0
 20 21  1  0  0  0  0
 21 26  2  0  0  0  0
 21 22  1  0  0  0  0
 22 23  2  0  0  0  0
 23 24  1  0  0  0  0
 25 24  2  0  0  0  0
 26 25  1  0  0  0  0
 27  9  1  0  0  0  0
 27 28  1  0  0  0  0
 29 28  2  0  0  0  0
 30 29  1  0  0  0  0
 31 30  2  0  0  0  0
 32 31  1  0  0  0  0
 33 32  2  0  0  0  0
 33 34  1  0  0  0  0
 34 35  2  0  0  0  0
 35 30  1  0  0  0  0
 35 27  1  0  0  0  0
 36 38  1  0  0  0  0
 37 36  1  0  0  0  0
M  END
>  <minimizedAffinity>
-7.9194417

$$$$

 OpenBabel03272514483D

 38 44  0  0  0  0  0  0  0  0999 V2000
   32.2090   31.5530   44.0280 C   0  0  0  0  0  0  0  0  0  0  0  0
   32.3500   30.8660   42.7920 C   0  0  0  0  0  3  0  0  0  0  0  0
   31.8150   29.6060   42.7120 C   0  0  0  0  0  3  0  0  0  0  0  0
   31.2080   29.1520   43.8190 N   0  0  0  0  0  0  0  0  0  0  0  0
   31.0650   29.7630   44.9600 C   0  0  0  0  0  0  0  0  0  0  0  0
   31.5830   30.9970   45.0610 N   0  0  0  0  0  0  0  0  0  0  0  0
   30.3780   29.0500   45.9540 N   0  0  0  0  0  0  0  0  0  0  0  0
   29.1650   29.5160   46.3560 C   0  0  0  0  0  3  0  0  0  0  0  0
   28.6670   28.6770   47.3300 C   0  0  0  0  0  0  0  0  0  0  0  0
   29.5760   27.7190   47.5080 N   0  0  0  0  0  0  0  0  0  0  0  0
   30.6420   27.9460   46.6560 C   0  0  0  0  0  0  0  0  0  0  0  0
   31.8090   27.1260   46.6000 C   0  0  0  0  0  0  0  0  0  0  0  0
   31.7360   25.7230   46.4940 C   0  0  0  0  0  3  0  0  0  0  0  0
   33.0070   25.2070   46.4900 N   0  0  0  0  0  0  0  0  0  0  0  0
   33.8710   26.3040   46.5940 C   0  0  0  0  0  3  0  0  0  0  0  0
   33.0960   27.3770   46.6490 N   0  0  0  0  0  0  0  0  0  0  0  0
   34.0220   28.4260   46.6700 C   0  0  0  0  0  0  0  0  0  0  0  0
   34.4040   28.7850   45.4410 N   0  0  0  0  0  0  0  0  0  0  0  0
   35.3470   29.7520   45.2870 C   0  0  0  0  0  3  0  0  0  0  0  0
   35.9340   30.3840   46.3040 N   0  0  0  0  0  0  0  0  0  0  0  0
   35.5760   30.0520   47.5620 C   0  0  0  0  0  0  0  0  0  0  0  0
   36.0980   30.6150   48.6960 C   0  0  0  0  0  3  0  0  0  0  0  0
   35.7050   30.2390   49.9390 C   0  0  0  0  0  3  0  0  0  0  0  0
   34.7380   29.2460   50.0760 C   0  0  0  0  0  3  0  0  0  0  0  0
   34.1760   28.6440   48.9790 C   0  0  0  0  0  3  0  0  0  0  0  0
   34.6070   29.0590   47.7490 C   0  0  0  0  0  0  0  0  0  0  0  0
   27.4080   28.8110   48.0250 N   0  0  0  0  0  0  0  0  0  0  0  0
   26.8120   27.8350   48.7350 C   0  0  0  0  0  3  0  0  0  0  0  0
   25.6690   28.2950   49.2410 N   0  0  0  0  0  0  0  0  0  0  0  0
   25.5750   29.5800   48.8270 C   0  0  0  0  0  0  0  0  0  0  0  0
   24.5870   30.5310   49.0630 C   0  0  0  0  0  3  0  0  0  0  0  0
   24.7230   31.7560   48.5340 N   0  0  0  0  0  0  0  0  0  0  0  0
   25.7900   32.0880   47.7820 C   0  0  0  0  0  3  0  0  0  0  0  0
   26.7710   31.1710   47.5380 N   0  0  0  0  0  0  0  0  0  0  0  0
   26.6720   29.9340   48.0490 C   0  0  0  0  0  0  0  0  0  0  0  0
   32.7490   32.8880   44.1470 N   0  0  0  0  0  0  0  0  0  0  0  0
   32.6570   33.4040   45.0340 H   0  0  0  0  0  0  0  0  0  0  0  0
   33.2260   33.3240   43.3440 H   0  0  0  0  0  0  0  0  0  0  0  0
  1 36  1  0  0  0  0
  1  6  1  0  0  0  0
  2  1  2  0  0  0  0
  3  2  1  0  0  0  0
  3  4  2  0  0  0  0
  4  5  1  0  0  0  0
  5  6  2  0  0  0  0
  5  7  1  0  0  0  0
  7  8  1  0  0  0  0
  7 11  1  0  0  0  0
  8  9  2  0  0  0  0
  9 10  1  0  0  0  0
  9 27  1  0  0  0  0
 11 10  2  0  0  0  0
 12 16  1  0  0  0  0
 12 11  1  0  0  0  0
 13 12  2  0  0  0  0
 14 13  1  0  0  0  0
 14 15  2  0  0  0  0
 15 16  1  0  0  0  0
 16 17  1  0  0  0  0
 17 26  1  0  0  0  0
 18 17  2  0  0  0  0
 19 18  1  0  0  0  0
 19 20  2  0  0  0  0
 20 21  1  0  0  0  0
 21 26  2  0  0  0  0
 21 22  1  0  0  0  0
 22 23  2  0  0  0  0
 23 24  1  0  0  0  0
 25 24  2  0  0  0  0
 26 25  1  0  0  0  0
 27 35  1  0  0  0  0
 27 28  1  0  0  0  0
 28 29  2  0  0  0  0
 30 31  1  0  0  0  0
 30 29  1  0  0  0  0
 32 31  2  0  0  0  0
 33 32  1  0  0  0  0
 34 33  2  0  0  0  0
 34 35  1  0  0  0  0
 35 30  2  0  0  0  0
 36 37  1  0  0  0  0
 38 36  1  0  0  0  0
M  END
>  <minimizedAffinity>
-7.83704996

$$$$

 OpenBabel03272514483D

 38 44  0  0  0  0  0  0  0  0999 V2000
   31.6490   32.1370   42.2980 C   0  0  0  0  0  0  0  0  0  0  0  0
   30.5310   32.9810   42.5370 C   0  0  0  0  0  3  0  0  0  0  0  0
   29.8570   32.8070   43.7180 C   0  0  0  0  0  3  0  0  0  0  0  0
   30.3300   31.8500   44.5310 N   0  0  0  0  0  0  0  0  0  0  0  0
   31.3510   31.0660   44.3340 C   0  0  0  0  0  0  0  0  0  0  0  0
   32.0250   31.2190   43.1830 N   0  0  0  0  0  0  0  0  0  0  0  0
   31.6280   30.1510   45.3610 N   0  0  0  0  0  0  0  0  0  0  0  0
   32.7800   30.3060   46.0660 C   0  0  0  0  0  3  0  0  0  0  0  0
   32.8570   29.3110   47.0170 C   0  0  0  0  0  0  0  0  0  0  0  0
   31.7590   28.5690   46.8800 N   0  0  0  0  0  0  0  0  0  0  0  0
   30.9920   29.0850   45.8510 C   0  0  0  0  0  0  0  0  0  0  0  0
   29.7570   28.5190   45.4130 C   0  0  0  0  0  0  0  0  0  0  0  0
   29.6480   27.7980   44.2070 C   0  0  0  0  0  3  0  0  0  0  0  0
   28.3450   27.4020   44.0370 N   0  0  0  0  0  0  0  0  0  0  0  0
   27.6460   27.8850   45.1500 C   0  0  0  0  0  3  0  0  0  0  0  0
   28.5390   28.5170   45.8980 N   0  0  0  0  0  0  0  0  0  0  0  0
   27.7890   28.8950   47.0180 C   0  0  0  0  0  0  0  0  0  0  0  0
   27.7290   27.9270   47.9360 N   0  0  0  0  0  0  0  0  0  0  0  0
   26.9890   28.1120   49.0600 C   0  0  0  0  0  3  0  0  0  0  0  0
   26.2990   29.2230   49.3190 N   0  0  0  0  0  0  0  0  0  0  0  0
   26.3330   30.2270   48.4170 C   0  0  0  0  0  0  0  0  0  0  0  0
   25.6710   31.4190   48.5510 C   0  0  0  0  0  3  0  0  0  0  0  0
   25.7360   32.3940   47.6110 C   0  0  0  0  0  3  0  0  0  0  0  0
   26.4990   32.1840   46.4640 C   0  0  0  0  0  3  0  0  0  0  0  0
   27.1870   31.0130   46.2720 C   0  0  0  0  0  3  0  0  0  0  0  0
   27.0880   30.0630   47.2510 C   0  0  0  0  0  0  0  0  0  0  0  0
   33.9190   29.1100   47.9740 N   0  0  0  0  0  0  0  0  0  0  0  0
   33.8270   28.3480   49.0800 C   0  0  0  0  0  3  0  0  0  0  0  0
   34.9860   28.3830   49.7360 N   0  0  0  0  0  0  0  0  0  0  0  0
   35.7970   29.1840   49.0070 C   0  0  0  0  0  0  0  0  0  0  0  0
   37.1160   29.5680   49.2260 C   0  0  0  0  0  3  0  0  0  0  0  0
   37.7120   30.3850   48.3450 N   0  0  0  0  0  0  0  0  0  0  0  0
   37.0660   30.8410   47.2530 C   0  0  0  0  0  3  0  0  0  0  0  0
   35.7720   30.4770   47.0190 N   0  0  0  0  0  0  0  0  0  0  0  0
   35.1400   29.6610   47.8770 C   0  0  0  0  0  0  0  0  0  0  0  0
   32.3920   32.2990   41.0690 N   0  0  0  0  0  0  0  0  0  0  0  0
   33.2050   31.6970   40.8760 H   0  0  0  0  0  0  0  0  0  0  0  0
   32.1080   33.0160   40.3860 H   0  0  0  0  0  0  0  0  0  0  0  0
  1  2  2  0  0  0  0
  1  6  1  0  0  0  0
  2  3  1  0  0  0  0
  3  4  2  0  0  0  0
  5  4  1  0  0  0  0
  5  7  1  0  0  0  0
  6  5  2  0  0  0  0
  7 11  1  0  0  0  0
  7  8  1  0  0  0  0
  8  9  2  0  0  0  0
  9 27  1  0  0  0  0
 10  9  1  0  0  0  0
 11 10  2  0  0  0  0
 12 11  1  0  0  0  0
 12 16  1  0  0  0  0
 13 12  2  0  0  0  0
 14 13  1  0  0  0  0
 14 15  2  0  0  0  0
 15 16  1  0  0  0  0
 16 17  1  0  0  0  0
 17 26  2  0  0  0  0
 17 18  1  0  0  0  0
 18 19  2  0  0  0  0
 19 20  1  0  0  0  0
 21 22  1  0  0  0  0
 21 20  2  0  0  0  0
 23 22  2  0  0  0  0
 24 23  1  0  0  0  0
 25 24  2  0  0  0  0
 25 26  1  0  0  0  0
 26 21  1  0  0  0  0
 27 28  1  0  0  0  0
 28 29  2  0  0  0  0
 30 31  1  0  0  0  0
 30 29  1  0  0  0  0
 32 31  2  0  0  0  0
 33 32  1  0  0  0  0
 34 33  2  0  0  0  0
 34 35  1  0  0  0  0
 35 27  1  0  0  0  0
 35 30  2  0  0  0  0
 36  1  1  0  0  0  0
 37 36  1  0  0  0  0
 38 36  1  0  0  0  0
M  END
>  <minimizedAffinity>
-7.71279383

$$$$

 OpenBabel03272514483D

 38 44  0  0  0  0  0  0  0  0999 V2000
   31.1000   31.2080   42.5770 C   0  0  0  0  0  0  0  0  0  0  0  0
   29.8280   31.6490   43.0320 C   0  0  0  0  0  3  0  0  0  0  0  0
   29.5280   31.4370   44.3530 C   0  0  0  0  0  3  0  0  0  0  0  0
   30.4770   30.8320   45.0830 N   0  0  0  0  0  0  0  0  0  0  0  0
   31.6480   30.4210   44.6900 C   0  0  0  0  0  0  0  0  0  0  0  0
   31.9620   30.6170   43.4000 N   0  0  0  0  0  0  0  0  0  0  0  0
   32.4490   29.8190   45.6730 N   0  0  0  0  0  0  0  0  0  0  0  0
   33.5850   30.4610   46.0560 C   0  0  0  0  0  3  0  0  0  0  0  0
   34.2170   29.7070   47.0210 C   0  0  0  0  0  0  0  0  0  0  0  0
   33.4640   28.6240   47.2120 N   0  0  0  0  0  0  0  0  0  0  0  0
   32.3630   28.6880   46.3750 C   0  0  0  0  0  0  0  0  0  0  0  0
   31.3590   27.6780   46.2970 C   0  0  0  0  0  0  0  0  0  0  0  0
   31.3830   26.6700   45.3130 C   0  0  0  0  0  3  0  0  0  0  0  0
   30.2830   25.8640   45.4680 N   0  0  0  0  0  0  0  0  0  0  0  0
   29.5760   26.3820   46.5600 C   0  0  0  0  0  3  0  0  0  0  0  0
   30.2690   27.4290   46.9840 N   0  0  0  0  0  0  0  0  0  0  0  0
   29.5510   27.8380   48.1130 C   0  0  0  0  0  0  0  0  0  0  0  0
   29.9170   27.1720   49.2120 N   0  0  0  0  0  0  0  0  0  0  0  0
   29.2730   27.4080   50.3850 C   0  0  0  0  0  3  0  0  0  0  0  0
   28.2750   28.2810   50.5210 N   0  0  0  0  0  0  0  0  0  0  0  0
   27.8740   28.9760   49.4350 C   0  0  0  0  0  0  0  0  0  0  0  0
   26.8630   29.9000   49.4290 C   0  0  0  0  0  3  0  0  0  0  0  0
   26.4980   30.5670   48.3060 C   0  0  0  0  0  3  0  0  0  0  0  0
   27.1680   30.3090   47.1130 C   0  0  0  0  0  3  0  0  0  0  0  0
   28.1910   29.3980   47.0540 C   0  0  0  0  0  3  0  0  0  0  0  0
   28.5200   28.7530   48.2140 C   0  0  0  0  0  0  0  0  0  0  0  0
   35.4540   30.0250   47.6940 N   0  0  0  0  0  0  0  0  0  0  0  0
   36.5520   30.5250   47.0950 C   0  0  0  0  0  3  0  0  0  0  0  0
   37.5080   30.7010   48.0050 N   0  0  0  0  0  0  0  0  0  0  0  0
   36.9740   30.2990   49.1820 C   0  0  0  0  0  0  0  0  0  0  0  0
   37.5290   30.2670   50.4580 C   0  0  0  0  0  3  0  0  0  0  0  0
   36.7860   29.8180   51.4800 N   0  0  0  0  0  0  0  0  0  0  0  0
   35.5180   29.3990   51.3030 C   0  0  0  0  0  3  0  0  0  0  0  0
   34.9540   29.4210   50.0600 N   0  0  0  0  0  0  0  0  0  0  0  0
   35.6640   29.8640   49.0110 C   0  0  0  0  0  0  0  0  0  0  0  0
   31.4570   31.4250   41.1950 N   0  0  0  0  0  0  0  0  0  0  0  0
   32.3750   31.1130   40.8440 H   0  0  0  0  0  0  0  0  0  0  0  0
   30.7950   31.8920   40.5580 H   0  0  0  0  0  0  0  0  0  0  0  0
  1  2  2  0  0  0  0
  1  6  1  0  0  0  0
  2  3  1  0  0  0  0
  3  4  2  0  0  0  0
  5  4  1  0  0  0  0
  5  7  1  0  0  0  0
  6  5  2  0  0  0  0
  7  8  1  0  0  0  0
  7 11  1  0  0  0  0
  8  9  2  0  0  0  0
  9 10  1  0  0  0  0
  9 27  1  0  0  0  0
 11 10  2  0  0  0  0
 12 11  1  0  0  0  0
 12 16  1  0  0  0  0
 13 14  1  0  0  0  0
 13 12  2  0  0  0  0
 14 15  2  0  0  0  0
 15 16  1  0  0  0  0
 16 17  1  0  0  0  0
 17 26  2  0  0  0  0
 17 18  1  0  0  0  0
 18 19  2  0  0  0  0
 19 20  1  0  0  0  0
 21 20  2  0  0  0  0
 22 21  1  0  0  0  0
 23 22  2  0  0  0  0
 24 23  1  0  0  0  0
 25 24  2  0  0  0  0
 25 26  1  0  0  0  0
 26 21  1  0  0  0  0
 27 35  1  0  0  0  0
 28 27  1  0  0  0  0
 28 29  2  0  0  0  0
 29 30  1  0  0  0  0
 30 31  1  0  0  0  0
 31 32  2  0  0  0  0
 33 32  1  0  0  0  0
 34 33  2  0  0  0  0
 35 30  2  0  0  0  0
 35 34  1  0  0  0  0
 36  1  1  0  0  0  0
 37 36  1  0  0  0  0
 38 36  1  0  0  0  0
M  END
>  <minimizedAffinity>
-7.62057447

$$$$

 OpenBabel03272514483D

 38 44  0  0  0  0  0  0  0  0999 V2000
   27.6500   27.2470   50.9660 C   0  0  0  0  0  0  0  0  0  0  0  0
   29.0450   26.9800   50.9920 C   0  0  0  0  0  3  0  0  0  0  0  0
   29.7910   27.4510   49.9430 C   0  0  0  0  0  3  0  0  0  0  0  0
   29.1190   28.1210   48.9950 N   0  0  0  0  0  0  0  0  0  0  0  0
   27.8430   28.3790   48.9500 C   0  0  0  0  0  0  0  0  0  0  0  0
   27.0940   27.9260   49.9670 N   0  0  0  0  0  0  0  0  0  0  0  0
   27.4040   29.1080   47.8350 N   0  0  0  0  0  0  0  0  0  0  0  0
   26.9330   30.3680   48.0370 C   0  0  0  0  0  3  0  0  0  0  0  0
   26.5580   30.9020   46.8230 C   0  0  0  0  0  0  0  0  0  0  0  0
   26.8030   29.9680   45.9050 N   0  0  0  0  0  0  0  0  0  0  0  0
   27.3280   28.8500   46.5280 C   0  0  0  0  0  0  0  0  0  0  0  0
   27.6820   27.6470   45.8470 C   0  0  0  0  0  0  0  0  0  0  0  0
   28.3050   26.5670   46.5050 C   0  0  0  0  0  3  0  0  0  0  0  0
   28.5480   25.5680   45.5960 N   0  0  0  0  0  0  0  0  0  0  0  0
   28.0690   26.0380   44.3670 C   0  0  0  0  0  3  0  0  0  0  0  0
   27.5810   27.2480   44.6010 N   0  0  0  0  0  0  0  0  0  0  0  0
   27.0540   27.6140   43.3580 C   0  0  0  0  0  0  0  0  0  0  0  0
   25.8080   27.1630   43.1850 N   0  0  0  0  0  0  0  0  0  0  0  0
   25.1730   27.3820   42.0040 C   0  0  0  0  0  3  0  0  0  0  0  0
   25.7200   28.0330   40.9780 N   0  0  0  0  0  0  0  0  0  0  0  0
   26.9770   28.5060   41.1100 C   0  0  0  0  0  0  0  0  0  0  0  0
   27.6600   29.1880   40.1390 C   0  0  0  0  0  3  0  0  0  0  0  0
   28.9260   29.6380   40.3240 C   0  0  0  0  0  3  0  0  0  0  0  0
   29.5610   29.4020   41.5410 C   0  0  0  0  0  3  0  0  0  0  0  0
   28.9300   28.7270   42.5540 C   0  0  0  0  0  3  0  0  0  0  0  0
   27.6540   28.2950   42.3160 C   0  0  0  0  0  0  0  0  0  0  0  0
   26.0050   32.2150   46.5900 N   0  0  0  0  0  0  0  0  0  0  0  0
   25.5630   33.0480   47.5520 C   0  0  0  0  0  3  0  0  0  0  0  0
   25.1200   34.1720   46.9910 N   0  0  0  0  0  0  0  0  0  0  0  0
   25.3020   34.0140   45.6590 C   0  0  0  0  0  0  0  0  0  0  0  0
   25.0160   34.8750   44.6040 C   0  0  0  0  0  3  0  0  0  0  0  0
   25.2910   34.4840   43.3510 N   0  0  0  0  0  0  0  0  0  0  0  0
   25.8370   33.2810   43.0890 C   0  0  0  0  0  3  0  0  0  0  0  0
   26.1250   32.4200   44.1090 N   0  0  0  0  0  0  0  0  0  0  0  0
   25.8650   32.7740   45.3770 C   0  0  0  0  0  0  0  0  0  0  0  0
   26.8320   26.7780   52.0610 N   0  0  0  0  0  0  0  0  0  0  0  0
   25.8180   26.9610   52.0620 H   0  0  0  0  0  0  0  0  0  0  0  0
   27.2630   26.2600   52.8410 H   0  0  0  0  0  0  0  0  0  0  0  0
  1  2  1  0  0  0  0
  1 36  1  0  0  0  0
  3  2  2  0  0  0  0
  4  3  1  0  0  0  0
  5  4  2  0  0  0  0
  5  6  1  0  0  0  0
  6  1  2  0  0  0  0
  7  8  1  0  0  0  0
  7  5  1  0  0  0  0
  9  8  2  0  0  0  0
 10 11  2  0  0  0  0
 10  9  1  0  0  0  0
 11  7  1  0  0  0  0
 12 13  2  0  0  0  0
 12 11  1  0  0  0  0
 14 13  1  0  0  0  0
 15 16  1  0  0  0  0
 15 14  2  0  0  0  0
 16 12  1  0  0  0  0
 17 16  1  0  0  0  0
 18 17  1  0  0  0  0
 19 18  2  0  0  0  0
 20 21  2  0  0  0  0
 20 19  1  0  0  0  0
 21 26  1  0  0  0  0
 22 23  2  0  0  0  0
 22 21  1  0  0  0  0
 23 24  1  0  0  0  0
 24 25  2  0  0  0  0
 26 25  1  0  0  0  0
 26 17  2  0  0  0  0
 27  9  1  0  0  0  0
 27 28  1  0  0  0  0
 29 28  2  0  0  0  0
 30 29  1  0  0  0  0
 31 30  2  0  0  0  0
 32 31  1  0  0  0  0
 33 32  2  0  0  0  0
 33 34  1  0  0  0  0
 34 35  2  0  0  0  0
 35 30  1  0  0  0  0
 35 27  1  0  0  0  0
 36 37  1  0  0  0  0
 36 38  1  0  0  0  0
M  END
>  <minimizedAffinity>
-7.48035526

$$$$

 OpenBabel03272514483D

 38 44  0  0  0  0  0  0  0  0999 V2000
   27.1050   27.9620   50.0180 C   0  0  0  0  0  0  0  0  0  0  0  0
   28.4650   27.6220   50.2510 C   0  0  0  0  0  3  0  0  0  0  0  0
   29.3390   27.7910   49.2090 C   0  0  0  0  0  3  0  0  0  0  0  0
   28.8140   28.2650   48.0690 N   0  0  0  0  0  0  0  0  0  0  0  0
   27.5740   28.5840   47.8320 C   0  0  0  0  0  0  0  0  0  0  0  0
   26.7000   28.4250   48.8390 N   0  0  0  0  0  0  0  0  0  0  0  0
   27.3000   29.0620   46.5420 N   0  0  0  0  0  0  0  0  0  0  0  0
   26.9210   30.3610   46.4060 C   0  0  0  0  0  3  0  0  0  0  0  0
   26.7030   30.6230   45.0700 C   0  0  0  0  0  0  0  0  0  0  0  0
   26.9500   29.4900   44.4160 N   0  0  0  0  0  0  0  0  0  0  0  0
   27.3210   28.5150   45.3250 C   0  0  0  0  0  0  0  0  0  0  0  0
   27.6310   27.1680   44.9710 C   0  0  0  0  0  0  0  0  0  0  0  0
   28.4190   26.3380   45.7940 C   0  0  0  0  0  3  0  0  0  0  0  0
   28.5710   25.1170   45.1870 N   0  0  0  0  0  0  0  0  0  0  0  0
   27.8690   25.1970   43.9780 C   0  0  0  0  0  3  0  0  0  0  0  0
   27.3520   26.4160   43.9330 N   0  0  0  0  0  0  0  0  0  0  0  0
   26.6060   26.3920   42.7500 C   0  0  0  0  0  0  0  0  0  0  0  0
   25.3790   25.8970   42.9360 N   0  0  0  0  0  0  0  0  0  0  0  0
   24.5460   25.7490   41.8730 C   0  0  0  0  0  3  0  0  0  0  0  0
   24.8750   26.0720   40.6230 N   0  0  0  0  0  0  0  0  0  0  0  0
   26.1050   26.5760   40.3900 C   0  0  0  0  0  0  0  0  0  0  0  0
   26.5770   26.9470   39.1580 C   0  0  0  0  0  3  0  0  0  0  0  0
   27.8250   27.4450   38.9800 C   0  0  0  0  0  3  0  0  0  0  0  0
   28.6650   27.5870   40.0820 C   0  0  0  0  0  3  0  0  0  0  0  0
   28.2520   27.2360   41.3420 C   0  0  0  0  0  3  0  0  0  0  0  0
   26.9840   26.7390   41.4670 C   0  0  0  0  0  0  0  0  0  0  0  0
   26.2860   31.8790   44.4930 N   0  0  0  0  0  0  0  0  0  0  0  0
   26.3430   32.1820   43.1820 C   0  0  0  0  0  3  0  0  0  0  0  0
   25.8820   33.4180   42.9960 N   0  0  0  0  0  0  0  0  0  0  0  0
   25.5370   33.8700   44.2240 C   0  0  0  0  0  0  0  0  0  0  0  0
   25.0020   35.0940   44.6150 C   0  0  0  0  0  3  0  0  0  0  0  0
   24.7430   35.3070   45.9130 N   0  0  0  0  0  0  0  0  0  0  0  0
   24.9870   34.3670   46.8470 C   0  0  0  0  0  3  0  0  0  0  0  0
   25.5120   33.1600   46.4860 N   0  0  0  0  0  0  0  0  0  0  0  0
   25.7850   32.9080   45.1970 C   0  0  0  0  0  0  0  0  0  0  0  0
   26.1550   27.8090   51.0960 N   0  0  0  0  0  0  0  0  0  0  0  0
   25.1640   28.0490   50.9470 H   0  0  0  0  0  0  0  0  0  0  0  0
   26.4690   27.4590   52.0130 H   0  0  0  0  0  0  0  0  0  0  0  0
  1  2  1  0  0  0  0
  1 36  1  0  0  0  0
  3  2  2  0  0  0  0
  4  3  1  0  0  0  0
  5  4  2  0  0  0  0
  5  6  1  0  0  0  0
  6  1  2  0  0  0  0
  7  5  1  0  0  0  0
  8  7  1  0  0  0  0
  9  8  2  0  0  0  0
 10  9  1  0  0  0  0
 10 11  2  0  0  0  0
 11  7  1  0  0  0  0
 12 11  1  0  0  0  0
 12 13  2  0  0  0  0
 14 13  1  0  0  0  0
 15 14  2  0  0  0  0
 16 15  1  0  0  0  0
 16 12  1  0  0  0  0
 17 18  1  0  0  0  0
 17 16  1  0  0  0  0
 19 18  2  0  0  0  0
 20 19  1  0  0  0  0
 21 20  2  0  0  0  0
 21 26  1  0  0  0  0
 22 21  1  0  0  0  0
 23 22  2  0  0  0  0
 23 24  1  0  0  0  0
 24 25  2  0  0  0  0
 25 26  1  0  0  0  0
 26 17  2  0  0  0  0
 27  9  1  0  0  0  0
 27 35  1  0  0  0  0
 28 27  1  0  0  0  0
 29 28  2  0  0  0  0
 29 30  1  0  0  0  0
 30 31  2  0  0  0  0
 30 35  1  0  0  0  0
 31 32  1  0  0  0  0
 32 33  2  0  0  0  0
 34 33  1  0  0  0  0
 35 34  2  0  0  0  0
 36 38  1  0  0  0  0
 37 36  1  0  0  0  0
M  END
>  <minimizedAffinity>
-7.17471313

$$$$

 OpenBabel03272514483D

 38 44  0  0  0  0  0  0  0  0999 V2000
   32.3800   28.2020   47.4720 C   0  0  0  0  0  0  0  0  0  0  0  0
   32.4140   26.9190   46.8620 C   0  0  0  0  0  3  0  0  0  0  0  0
   32.0120   26.8380   45.5530 C   0  0  0  0  0  3  0  0  0  0  0  0
   31.6270   27.9890   44.9830 N   0  0  0  0  0  0  0  0  0  0  0  0
   31.5880   29.1740   45.5200 C   0  0  0  0  0  0  0  0  0  0  0  0
   31.9760   29.2760   46.8010 N   0  0  0  0  0  0  0  0  0  0  0  0
   31.1430   30.2110   44.6860 N   0  0  0  0  0  0  0  0  0  0  0  0
   32.0340   31.1750   44.3300 C   0  0  0  0  0  3  0  0  0  0  0  0
   31.3990   32.0890   43.5170 C   0  0  0  0  0  0  0  0  0  0  0  0
   30.1390   31.6740   43.3890 N   0  0  0  0  0  0  0  0  0  0  0  0
   29.9740   30.5070   44.1150 C   0  0  0  0  0  0  0  0  0  0  0  0
   28.7390   29.8010   44.2230 C   0  0  0  0  0  0  0  0  0  0  0  0
   28.4380   28.6860   43.4150 C   0  0  0  0  0  3  0  0  0  0  0  0
   27.1790   28.2360   43.7220 N   0  0  0  0  0  0  0  0  0  0  0  0
   26.7000   29.0820   44.7290 C   0  0  0  0  0  3  0  0  0  0  0  0
   27.6670   29.9580   44.9630 N   0  0  0  0  0  0  0  0  0  0  0  0
   27.1520   30.7100   46.0250 C   0  0  0  0  0  0  0  0  0  0  0  0
   27.4010   30.1450   47.2100 N   0  0  0  0  0  0  0  0  0  0  0  0
   26.9160   30.7190   48.3420 C   0  0  0  0  0  3  0  0  0  0  0  0
   26.1890   31.8360   48.3540 N   0  0  0  0  0  0  0  0  0  0  0  0
   25.9160   32.4400   47.1790 C   0  0  0  0  0  0  0  0  0  0  0  0
   25.1810   33.5880   47.0430 C   0  0  0  0  0  3  0  0  0  0  0  0
   24.9320   34.1510   45.8350 C   0  0  0  0  0  3  0  0  0  0  0  0
   25.4360   33.5460   44.6850 C   0  0  0  0  0  3  0  0  0  0  0  0
   26.1810   32.3970   44.7540 C   0  0  0  0  0  3  0  0  0  0  0  0
   26.4030   31.8710   45.9970 C   0  0  0  0  0  0  0  0  0  0  0  0
   31.9820   33.2670   42.9200 N   0  0  0  0  0  0  0  0  0  0  0  0
   31.3240   34.4170   42.6800 C   0  0  0  0  0  3  0  0  0  0  0  0
   32.1590   35.2950   42.1250 N   0  0  0  0  0  0  0  0  0  0  0  0
   33.3500   34.6590   42.0300 C   0  0  0  0  0  0  0  0  0  0  0  0
   34.5690   35.1030   41.5290 C   0  0  0  0  0  3  0  0  0  0  0  0
   35.6210   34.2720   41.5430 N   0  0  0  0  0  0  0  0  0  0  0  0
   35.5270   33.0190   42.0300 C   0  0  0  0  0  3  0  0  0  0  0  0
   34.3400   32.5630   42.5260 N   0  0  0  0  0  0  0  0  0  0  0  0
   33.2640   33.3640   42.5300 C   0  0  0  0  0  0  0  0  0  0  0  0
   32.8080   28.3290   48.8460 N   0  0  0  0  0  0  0  0  0  0  0  0
   32.7910   29.2500   49.3070 H   0  0  0  0  0  0  0  0  0  0  0  0
   33.1310   27.4990   49.3640 H   0  0  0  0  0  0  0  0  0  0  0  0
  1 36  1  0  0  0  0
  2  1  1  0  0  0  0
  3  2  2  0  0  0  0
  4  5  2  0  0  0  0
  4  3  1  0  0  0  0
  5  6  1  0  0  0  0
  6  1  2  0  0  0  0
  7  5  1  0  0  0  0
  8  7  1  0  0  0  0
  9  8  2  0  0  0  0
 10  9  1  0  0  0  0
 10 11  2  0  0  0  0
 11 12  1  0  0  0  0
 11  7  1  0  0  0  0
 12 16  1  0  0  0  0
 13 14  1  0  0  0  0
 13 12  2  0  0  0  0
 14 15  2  0  0  0  0
 15 16  1  0  0  0  0
 16 17  1  0  0  0  0
 17 18  1  0  0  0  0
 18 19  2  0  0  0  0
 19 20  1  0  0  0  0
 21 20  2  0  0  0  0
 22 21  1  0  0  0  0
 23 22  2  0  0  0  0
 24 25  2  0  0  0  0
 24 23  1  0  0  0  0
 25 26  1  0  0  0  0
 26 17  2  0  0  0  0
 26 21  1  0  0  0  0
 27  9  1  0  0  0  0
 28 27  1  0  0  0  0
 29 28  2  0  0  0  0
 30 29  1  0  0  0  0
 30 35  1  0  0  0  0
 31 32  1  0  0  0  0
 31 30  2  0  0  0  0
 32 33  2  0  0  0  0
 33 34  1  0  0  0  0
 34 35  2  0  0  0  0
 35 27  1  0  0  0  0
 36 37  1  0  0  0  0
 36 38  1  0  0  0  0
M  END
>  <minimizedAffinity>
-7.0993638

$$$$

 OpenBabel03272514483D

 38 44  0  0  0  0  0  0  0  0999 V2000
   32.2480   24.4250   46.4280 C   0  0  0  0  0  0  0  0  0  0  0  0
   32.4630   24.3340   45.0260 C   0  0  0  0  0  3  0  0  0  0  0  0
   32.9780   25.4380   44.3990 C   0  0  0  0  0  3  0  0  0  0  0  0
   33.2270   26.4990   45.1820 N   0  0  0  0  0  0  0  0  0  0  0  0
   33.0400   26.6060   46.4660 C   0  0  0  0  0  0  0  0  0  0  0  0
   32.5350   25.5360   47.1010 N   0  0  0  0  0  0  0  0  0  0  0  0
   33.3940   27.8380   47.0370 N   0  0  0  0  0  0  0  0  0  0  0  0
   34.4440   27.8670   47.9010 C   0  0  0  0  0  3  0  0  0  0  0  0
   34.6210   29.1610   48.3410 C   0  0  0  0  0  0  0  0  0  0  0  0
   33.6850   29.8980   47.7440 N   0  0  0  0  0  0  0  0  0  0  0  0
   32.9180   29.0800   46.9330 C   0  0  0  0  0  0  0  0  0  0  0  0
   31.8060   29.5350   46.1630 C   0  0  0  0  0  0  0  0  0  0  0  0
   31.8770   30.6810   45.3460 C   0  0  0  0  0  3  0  0  0  0  0  0
   30.6560   30.8860   44.7540 N   0  0  0  0  0  0  0  0  0  0  0  0
   29.8260   29.8560   45.2130 C   0  0  0  0  0  3  0  0  0  0  0  0
   30.5710   29.1160   46.0210 N   0  0  0  0  0  0  0  0  0  0  0  0
   29.7050   28.0740   46.3700 C   0  0  0  0  0  0  0  0  0  0  0  0
   29.7220   27.0830   45.4750 N   0  0  0  0  0  0  0  0  0  0  0  0
   28.8920   26.0190   45.6360 C   0  0  0  0  0  3  0  0  0  0  0  0
   28.0380   25.8910   46.6520 N   0  0  0  0  0  0  0  0  0  0  0  0
   27.9900   26.8700   47.5800 C   0  0  0  0  0  0  0  0  0  0  0  0
   27.1610   26.8710   48.6700 C   0  0  0  0  0  3  0  0  0  0  0  0
   27.1500   27.8850   49.5710 C   0  0  0  0  0  3  0  0  0  0  0  0
   28.0070   28.9670   49.3880 C   0  0  0  0  0  3  0  0  0  0  0  0
   28.8620   29.0250   48.3180 C   0  0  0  0  0  3  0  0  0  0  0  0
   28.8340   27.9770   47.4390 C   0  0  0  0  0  0  0  0  0  0  0  0
   35.6240   29.6280   49.2690 N   0  0  0  0  0  0  0  0  0  0  0  0
   35.7020   29.2720   50.5650 C   0  0  0  0  0  3  0  0  0  0  0  0
   36.7420   29.8840   51.1280 N   0  0  0  0  0  0  0  0  0  0  0  0
   37.3070   30.6260   50.1470 C   0  0  0  0  0  0  0  0  0  0  0  0
   38.4180   31.4620   50.1780 C   0  0  0  0  0  3  0  0  0  0  0  0
   38.7850   32.1000   49.0570 N   0  0  0  0  0  0  0  0  0  0  0  0
   38.1050   31.9520   47.9040 C   0  0  0  0  0  3  0  0  0  0  0  0
   37.0110   31.1370   47.8510 N   0  0  0  0  0  0  0  0  0  0  0  0
   36.6120   30.4810   48.9510 C   0  0  0  0  0  0  0  0  0  0  0  0
   31.7190   23.2770   47.1270 N   0  0  0  0  0  0  0  0  0  0  0  0
   31.5550   23.3230   48.1430 H   0  0  0  0  0  0  0  0  0  0  0  0
   31.5040   22.4130   46.6090 H   0  0  0  0  0  0  0  0  0  0  0  0
  1  6  1  0  0  0  0
  1 36  1  0  0  0  0
  2  1  2  0  0  0  0
  3  2  1  0  0  0  0
  3  4  2  0  0  0  0
  4  5  1  0  0  0  0
  5  7  1  0  0  0  0
  5  6  2  0  0  0  0
  7  8  1  0  0  0  0
  8  9  2  0  0  0  0
  9 27  1  0  0  0  0
 10  9  1  0  0  0  0
 11  7  1  0  0  0  0
 11 10  2  0  0  0  0
 12 11  1  0  0  0  0
 13 12  2  0  0  0  0
 14 15  2  0  0  0  0
 14 13  1  0  0  0  0
 15 16  1  0  0  0  0
 16 12  1  0  0  0  0
 16 17  1  0  0  0  0
 17 26  1  0  0  0  0
 18 19  1  0  0  0  0
 18 17  2  0  0  0  0
 19 20  2  0  0  0  0
 20 21  1  0  0  0  0
 21 22  1  0  0  0  0
 22 23  2  0  0  0  0
 24 23  1  0  0  0  0
 25 24  2  0  0  0  0
 26 21  2  0  0  0  0
 26 25  1  0  0  0  0
 27 28  1  0  0  0  0
 28 29  2  0  0  0  0
 30 31  1  0  0  0  0
 30 29  1  0  0  0  0
 32 31  2  0  0  0  0
 33 32  1  0  0  0  0
 34 33  2  0  0  0  0
 34 35  1  0  0  0  0
 35 27  1  0  0  0  0
 35 30  2  0  0  0  0
 36 37  1  0  0  0  0
 38 36  1  0  0  0  0
M  END
>  <minimizedAffinity>
-7.08967686

$$$$
