
 OpenBabel03272514483D

 35 40  0  0  0  0  0  0  0  0999 V2000
   32.5120   30.7900   43.2010 C   0  0  0  0  0  0  0  0  0  0  0  0
   31.1820   31.2710   43.3080 C   0  0  0  0  0  3  0  0  0  0  0  0
   30.5680   31.1440   44.5270 C   0  0  0  0  0  3  0  0  0  0  0  0
   31.2890   30.5760   45.4990 N   0  0  0  0  0  0  0  0  0  0  0  0
   32.5180   30.1230   45.4230 C   0  0  0  0  0  0  0  0  0  0  0  0
   33.1350   30.2390   44.2390 N   0  0  0  0  0  0  0  0  0  0  0  0
   33.0420   29.5770   46.6040 N   0  0  0  0  0  0  0  0  0  0  0  0
   34.0610   30.2350   47.2130 C   0  0  0  0  0  3  0  0  0  0  0  0
   34.4210   29.5310   48.3490 C   0  0  0  0  0  0  0  0  0  0  0  0
   33.6210   28.4680   48.4050 N   0  0  0  0  0  0  0  0  0  0  0  0
   32.7630   28.4910   47.3240 C   0  0  0  0  0  0  0  0  0  0  0  0
   31.7840   27.4890   47.0650 C   0  0  0  0  0  0  0  0  0  0  0  0
   31.9930   26.4570   46.1290 C   0  0  0  0  0  3  0  0  0  0  0  0
   30.8780   25.6580   46.0760 N   0  0  0  0  0  0  0  0  0  0  0  0
   29.9720   26.2080   46.9920 C   0  0  0  0  0  3  0  0  0  0  0  0
   30.5740   27.2610   47.5230 N   0  0  0  0  0  0  0  0  0  0  0  0
   29.6500   27.7010   48.4740 C   0  0  0  0  0  0  0  0  0  0  0  0
   29.7790   27.0570   49.6400 N   0  0  0  0  0  0  0  0  0  0  0  0
   28.9120   27.3280   50.6510 C   0  0  0  0  0  3  0  0  0  0  0  0
   27.9200   28.2120   50.5650 N   0  0  0  0  0  0  0  0  0  0  0  0
   27.7530   28.8850   49.4050 C   0  0  0  0  0  0  0  0  0  0  0  0
   26.7730   29.8110   49.1740 C   0  0  0  0  0  3  0  0  0  0  0  0
   26.6480   30.4510   47.9860 C   0  0  0  0  0  3  0  0  0  0  0  0
   27.5430   30.1640   46.9590 C   0  0  0  0  0  3  0  0  0  0  0  0
   28.5490   29.2430   47.1260 C   0  0  0  0  0  3  0  0  0  0  0  0
   28.6300   28.6280   48.3440 C   0  0  0  0  0  0  0  0  0  0  0  0
   35.4880   29.9050   49.3010 C   0  0  0  0  0  0  0  0  0  0  0  0
   36.3030   30.9670   49.0160 C   0  0  0  0  0  3  0  0  0  0  0  0
   37.2970   31.3360   49.8800 C   0  0  0  0  0  3  0  0  0  0  0  0
   37.4540   30.6070   51.0390 C   0  0  0  0  0  3  0  0  0  0  0  0
   36.6280   29.5210   51.3320 C   0  0  0  0  0  3  0  0  0  0  0  0
   35.6200   29.1560   50.4510 C   0  0  0  0  0  3  0  0  0  0  0  0
   33.1880   30.9200   41.9330 N   0  0  0  0  0  0  0  0  0  0  0  0
   34.1550   30.5800   41.8270 H   0  0  0  0  0  0  0  0  0  0  0  0
   32.7040   31.3530   41.1340 H   0  0  0  0  0  0  0  0  0  0  0  0
  1  2  2  0  0  0  0
  1  6  1  0  0  0  0
  2  3  1  0  0  0  0
  3  4  2  0  0  0  0
  5  4  1  0  0  0  0
  5  7  1  0  0  0  0
  6  5  2  0  0  0  0
  7  8  1  0  0  0  0
  7 11  1  0  0  0  0
  8  9  2  0  0  0  0
  9 10  1  0  0  0  0
  9 27  1  0  0  0  0
 11 10  2  0  0  0  0
 12 11  1  0  0  0  0
 12 16  1  0  0  0  0
 13 12  2  0  0  0  0
 14 13  1  0  0  0  0
 14 15  2  0  0  0  0
 15 16  1  0  0  0  0
 16 17  1  0  0  0  0
 17 18  1  0  0  0  0
 18 19  2  0  0  0  0
 20 19  1  0  0  0  0
 21 20  2  0  0  0  0
 22 21  1  0  0  0  0
 23 22  2  0  0  0  0
 24 25  2  0  0  0  0
 24 23  1  0  0  0  0
 25 26  1  0  0  0  0
 26 17  2  0  0  0  0
 26 21  1  0  0  0  0
 27 32  1  0  0  0  0
 28 27  2  0  0  0  0
 28 29  1  0  0  0  0
 29 30  2  0  0  0  0
 30 31  1  0  0  0  0
 32 31  2  0  0  0  0
 33  1  1  0  0  0  0
 34 33  1  0  0  0  0
 35 33  1  0  0  0  0
M  END
>  <minimizedAffinity>
-8.56520748

$$$$

 OpenBabel03272514483D

 35 40  0  0  0  0  0  0  0  0999 V2000
   27.3390   27.7820   50.5850 C   0  0  0  0  0  0  0  0  0  0  0  0
   28.7320   27.6310   50.8070 C   0  0  0  0  0  3  0  0  0  0  0  0
   29.5770   28.2380   49.9130 C   0  0  0  0  0  3  0  0  0  0  0  0
   28.9980   28.9160   48.9170 N   0  0  0  0  0  0  0  0  0  0  0  0
   27.7150   29.0680   48.6900 C   0  0  0  0  0  0  0  0  0  0  0  0
   26.8740   28.4810   49.5530 N   0  0  0  0  0  0  0  0  0  0  0  0
   27.3790   29.8400   47.5690 N   0  0  0  0  0  0  0  0  0  0  0  0
   26.7770   31.0380   47.7770 C   0  0  0  0  0  3  0  0  0  0  0  0
   26.5370   31.6280   46.5480 C   0  0  0  0  0  0  0  0  0  0  0  0
   26.9940   30.7820   45.6260 N   0  0  0  0  0  0  0  0  0  0  0  0
   27.5180   29.6690   46.2540 C   0  0  0  0  0  0  0  0  0  0  0  0
   28.0760   28.5560   45.5620 C   0  0  0  0  0  0  0  0  0  0  0  0
   27.3470   27.3740   45.3260 C   0  0  0  0  0  3  0  0  0  0  0  0
   28.1420   26.4740   44.6630 N   0  0  0  0  0  0  0  0  0  0  0  0
   29.3770   27.1120   44.4910 C   0  0  0  0  0  3  0  0  0  0  0  0
   29.2540   28.3120   45.0360 N   0  0  0  0  0  0  0  0  0  0  0  0
   30.4860   28.9090   44.7540 C   0  0  0  0  0  0  0  0  0  0  0  0
   30.5060   29.4770   43.5430 N   0  0  0  0  0  0  0  0  0  0  0  0
   31.6550   30.0490   43.0930 C   0  0  0  0  0  3  0  0  0  0  0  0
   32.7890   30.0880   43.7900 N   0  0  0  0  0  0  0  0  0  0  0  0
   32.8120   29.5270   45.0190 C   0  0  0  0  0  0  0  0  0  0  0  0
   33.9080   29.4870   45.8380 C   0  0  0  0  0  3  0  0  0  0  0  0
   33.8760   28.9010   47.0600 C   0  0  0  0  0  3  0  0  0  0  0  0
   32.6930   28.3190   47.5070 C   0  0  0  0  0  3  0  0  0  0  0  0
   31.5580   28.3260   46.7330 C   0  0  0  0  0  3  0  0  0  0  0  0
   31.6450   28.9300   45.5100 C   0  0  0  0  0  0  0  0  0  0  0  0
   25.8980   32.9420   46.3240 C   0  0  0  0  0  0  0  0  0  0  0  0
   25.5090   33.2950   45.0610 C   0  0  0  0  0  3  0  0  0  0  0  0
   24.9150   34.5050   44.8260 C   0  0  0  0  0  3  0  0  0  0  0  0
   24.7220   35.3520   45.8950 C   0  0  0  0  0  3  0  0  0  0  0  0
   25.1200   34.9970   47.1850 C   0  0  0  0  0  3  0  0  0  0  0  0
   25.7200   33.7680   47.4140 C   0  0  0  0  0  3  0  0  0  0  0  0
   26.4270   27.1630   51.5140 N   0  0  0  0  0  0  0  0  0  0  0  0
   25.4100   27.2570   51.3770 H   0  0  0  0  0  0  0  0  0  0  0  0
   26.7910   26.6270   52.3150 H   0  0  0  0  0  0  0  0  0  0  0  0
  1  2  1  0  0  0  0
  1 33  1  0  0  0  0
  3  2  2  0  0  0  0
  4  3  1  0  0  0  0
  5  4  2  0  0  0  0
  5  6  1  0  0  0  0
  6  1  2  0  0  0  0
  7  8  1  0  0  0  0
  7  5  1  0  0  0  0
  9  8  2  0  0  0  0
 10 11  2  0  0  0  0
 10  9  1  0  0  0  0
 11  7  1  0  0  0  0
 12 11  1  0  0  0  0
 13 12  2  0  0  0  0
 14 13  1  0  0  0  0
 15 14  2  0  0  0  0
 15 16  1  0  0  0  0
 16 12  1  0  0  0  0
 17 16  1  0  0  0  0
 17 26  1  0  0  0  0
 18 17  2  0  0  0  0
 19 18  1  0  0  0  0
 19 20  2  0  0  0  0
 20 21  1  0  0  0  0
 21 26  2  0  0  0  0
 21 22  1  0  0  0  0
 22 23  2  0  0  0  0
 23 24  1  0  0  0  0
 25 24  2  0  0  0  0
 26 25  1  0  0  0  0
 27  9  1  0  0  0  0
 27 32  1  0  0  0  0
 28 27  2  0  0  0  0
 29 28  1  0  0  0  0
 29 30  2  0  0  0  0
 30 31  1  0  0  0  0
 31 32  2  0  0  0  0
 33 35  1  0  0  0  0
 34 33  1  0  0  0  0
M  END
>  <minimizedAffinity>
-8.00488758

$$$$

 OpenBabel03272514483D

 35 40  0  0  0  0  0  0  0  0999 V2000
   32.1230   31.4160   44.1550 C   0  0  0  0  0  0  0  0  0  0  0  0
   32.2410   30.6350   42.9770 C   0  0  0  0  0  3  0  0  0  0  0  0
   31.6140   29.4150   42.9700 C   0  0  0  0  0  3  0  0  0  0  0  0
   30.9500   29.0830   44.0820 N   0  0  0  0  0  0  0  0  0  0  0  0
   30.8280   29.7870   45.1820 C   0  0  0  0  0  0  0  0  0  0  0  0
   31.4350   30.9820   45.2070 N   0  0  0  0  0  0  0  0  0  0  0  0
   30.0640   29.2010   46.2020 N   0  0  0  0  0  0  0  0  0  0  0  0
   28.8810   29.7810   46.5250 C   0  0  0  0  0  3  0  0  0  0  0  0
   28.2960   29.0480   47.5440 C   0  0  0  0  0  0  0  0  0  0  0  0
   29.1320   28.0470   47.8170 N   0  0  0  0  0  0  0  0  0  0  0  0
   30.2320   28.1370   46.9870 C   0  0  0  0  0  0  0  0  0  0  0  0
   31.3310   27.2320   47.0250 C   0  0  0  0  0  0  0  0  0  0  0  0
   31.1540   25.8360   47.1080 C   0  0  0  0  0  3  0  0  0  0  0  0
   32.3820   25.2240   47.1490 N   0  0  0  0  0  0  0  0  0  0  0  0
   33.3250   26.2580   47.0920 C   0  0  0  0  0  3  0  0  0  0  0  0
   32.6350   27.3860   47.0190 N   0  0  0  0  0  0  0  0  0  0  0  0
   33.6340   28.3530   46.8840 C   0  0  0  0  0  0  0  0  0  0  0  0
   34.0110   28.5170   45.6100 N   0  0  0  0  0  0  0  0  0  0  0  0
   35.0190   29.3810   45.3180 C   0  0  0  0  0  3  0  0  0  0  0  0
   35.6750   30.0950   46.2300 N   0  0  0  0  0  0  0  0  0  0  0  0
   35.3270   29.9610   47.5290 C   0  0  0  0  0  0  0  0  0  0  0  0
   35.9190   30.6250   48.5680 C   0  0  0  0  0  3  0  0  0  0  0  0
   35.5350   30.4440   49.8560 C   0  0  0  0  0  3  0  0  0  0  0  0
   34.5010   29.5570   50.1400 C   0  0  0  0  0  3  0  0  0  0  0  0
   33.8640   28.8590   49.1420 C   0  0  0  0  0  3  0  0  0  0  0  0
   34.2920   29.0790   47.8620 C   0  0  0  0  0  0  0  0  0  0  0  0
   26.9980   29.3370   48.1880 C   0  0  0  0  0  0  0  0  0  0  0  0
   26.5310   30.6230   48.2140 C   0  0  0  0  0  3  0  0  0  0  0  0
   25.3320   30.9190   48.8030 C   0  0  0  0  0  3  0  0  0  0  0  0
   24.6140   29.8870   49.3670 C   0  0  0  0  0  3  0  0  0  0  0  0
   25.0880   28.5750   49.3460 C   0  0  0  0  0  3  0  0  0  0  0  0
   26.3040   28.2840   48.7450 C   0  0  0  0  0  3  0  0  0  0  0  0
   32.7630   32.7070   44.1870 N   0  0  0  0  0  0  0  0  0  0  0  0
   32.6930   33.2960   45.0300 H   0  0  0  0  0  0  0  0  0  0  0  0
   33.2900   33.0420   43.3670 H   0  0  0  0  0  0  0  0  0  0  0  0
  1 33  1  0  0  0  0
  1  6  1  0  0  0  0
  2  1  2  0  0  0  0
  3  2  1  0  0  0  0
  3  4  2  0  0  0  0
  4  5  1  0  0  0  0
  5  6  2  0  0  0  0
  5  7  1  0  0  0  0
  7  8  1  0  0  0  0
  7 11  1  0  0  0  0
  8  9  2  0  0  0  0
  9 10  1  0  0  0  0
  9 27  1  0  0  0  0
 11 12  1  0  0  0  0
 11 10  2  0  0  0  0
 12 13  2  0  0  0  0
 13 14  1  0  0  0  0
 15 14  2  0  0  0  0
 16 12  1  0  0  0  0
 16 15  1  0  0  0  0
 17 16  1  0  0  0  0
 17 26  1  0  0  0  0
 18 17  2  0  0  0  0
 19 18  1  0  0  0  0
 19 20  2  0  0  0  0
 20 21  1  0  0  0  0
 21 26  2  0  0  0  0
 21 22  1  0  0  0  0
 22 23  2  0  0  0  0
 23 24  1  0  0  0  0
 25 24  2  0  0  0  0
 26 25  1  0  0  0  0
 27 28  2  0  0  0  0
 27 32  1  0  0  0  0
 28 29  1  0  0  0  0
 29 30  2  0  0  0  0
 31 30  1  0  0  0  0
 32 31  2  0  0  0  0
 33 34  1  0  0  0  0
 35 33  1  0  0  0  0
M  END
>  <minimizedAffinity>
-7.90928507

$$$$

 OpenBabel03272514483D

 35 40  0  0  0  0  0  0  0  0999 V2000
   31.5670   31.4960   42.2830 C   0  0  0  0  0  0  0  0  0  0  0  0
   30.3750   32.2240   42.5320 C   0  0  0  0  0  3  0  0  0  0  0  0
   29.8290   32.1200   43.7860 C   0  0  0  0  0  3  0  0  0  0  0  0
   30.4800   31.3380   44.6530 N   0  0  0  0  0  0  0  0  0  0  0  0
   31.5800   30.6550   44.4460 C   0  0  0  0  0  0  0  0  0  0  0  0
   32.1280   30.7440   43.2260 N   0  0  0  0  0  0  0  0  0  0  0  0
   32.0560   29.9160   45.5390 N   0  0  0  0  0  0  0  0  0  0  0  0
   33.2270   30.3010   46.1070 C   0  0  0  0  0  3  0  0  0  0  0  0
   33.5080   29.4450   47.1580 C   0  0  0  0  0  0  0  0  0  0  0  0
   32.5100   28.5640   47.2050 N   0  0  0  0  0  0  0  0  0  0  0  0
   31.6060   28.8510   46.2010 C   0  0  0  0  0  0  0  0  0  0  0  0
   30.4260   28.0920   45.9550 C   0  0  0  0  0  0  0  0  0  0  0  0
   30.3460   27.1410   44.9180 C   0  0  0  0  0  3  0  0  0  0  0  0
   29.0900   26.5860   44.9060 N   0  0  0  0  0  0  0  0  0  0  0  0
   28.3900   27.2060   45.9490 C   0  0  0  0  0  3  0  0  0  0  0  0
   29.2350   28.0600   46.5060 N   0  0  0  0  0  0  0  0  0  0  0  0
   28.4970   28.5730   47.5770 C   0  0  0  0  0  0  0  0  0  0  0  0
   28.5830   27.7990   48.6660 N   0  0  0  0  0  0  0  0  0  0  0  0
   27.8710   28.1290   49.7760 C   0  0  0  0  0  3  0  0  0  0  0  0
   27.0760   29.1940   49.8620 N   0  0  0  0  0  0  0  0  0  0  0  0
   26.9610   30.0030   48.7850 C   0  0  0  0  0  0  0  0  0  0  0  0
   26.1760   31.1220   48.7310 C   0  0  0  0  0  3  0  0  0  0  0  0
   26.0920   31.8940   47.6190 C   0  0  0  0  0  3  0  0  0  0  0  0
   26.8260   31.5440   46.4890 C   0  0  0  0  0  3  0  0  0  0  0  0
   27.6330   30.4320   46.4790 C   0  0  0  0  0  3  0  0  0  0  0  0
   27.6820   29.6900   47.6260 C   0  0  0  0  0  0  0  0  0  0  0  0
   34.6900   29.5130   48.0430 C   0  0  0  0  0  0  0  0  0  0  0  0
   35.8190   30.1530   47.6090 C   0  0  0  0  0  3  0  0  0  0  0  0
   36.9270   30.2320   48.4080 C   0  0  0  0  0  3  0  0  0  0  0  0
   36.8700   29.6500   49.6560 C   0  0  0  0  0  3  0  0  0  0  0  0
   35.7220   28.9940   50.1000 C   0  0  0  0  0  3  0  0  0  0  0  0
   34.6030   28.9200   49.2840 C   0  0  0  0  0  3  0  0  0  0  0  0
   32.1690   31.5940   40.9770 N   0  0  0  0  0  0  0  0  0  0  0  0
   33.0350   31.0760   40.7690 H   0  0  0  0  0  0  0  0  0  0  0  0
   31.7340   32.1820   40.2520 H   0  0  0  0  0  0  0  0  0  0  0  0
  1  2  2  0  0  0  0
  1  6  1  0  0  0  0
  2  3  1  0  0  0  0
  3  4  2  0  0  0  0
  5  4  1  0  0  0  0
  5  7  1  0  0  0  0
  6  5  2  0  0  0  0
  7  8  1  0  0  0  0
  7 11  1  0  0  0  0
  8  9  2  0  0  0  0
  9 10  1  0  0  0  0
  9 27  1  0  0  0  0
 11 10  2  0  0  0  0
 12 11  1  0  0  0  0
 12 16  1  0  0  0  0
 13 12  2  0  0  0  0
 14 13  1  0  0  0  0
 14 15  2  0  0  0  0
 15 16  1  0  0  0  0
 16 17  1  0  0  0  0
 17 26  2  0  0  0  0
 17 18  1  0  0  0  0
 18 19  2  0  0  0  0
 19 20  1  0  0  0  0
 21 20  2  0  0  0  0
 22 21  1  0  0  0  0
 23 22  2  0  0  0  0
 24 23  1  0  0  0  0
 25 24  2  0  0  0  0
 25 26  1  0  0  0  0
 26 21  1  0  0  0  0
 27 32  1  0  0  0  0
 28 27  2  0  0  0  0
 28 29  1  0  0  0  0
 29 30  2  0  0  0  0
 30 31  1  0  0  0  0
 32 31  2  0  0  0  0
 33  1  1  0  0  0  0
 34 33  1  0  0  0  0
 35 33  1  0  0  0  0
M  END
>  <minimizedAffinity>
-7.5612731

$$$$

 OpenBabel03272514483D

 35 40  0  0  0  0  0  0  0  0999 V2000
   27.6440   27.4810   50.4830 C   0  0  0  0  0  0  0  0  0  0  0  0
   29.0430   27.3430   50.6670 C   0  0  0  0  0  3  0  0  0  0  0  0
   29.8580   27.9600   49.7520 C   0  0  0  0  0  3  0  0  0  0  0  0
   29.2460   28.6340   48.7730 N   0  0  0  0  0  0  0  0  0  0  0  0
   27.9560   28.7740   48.5820 C   0  0  0  0  0  0  0  0  0  0  0  0
   27.1440   28.1770   49.4660 N   0  0  0  0  0  0  0  0  0  0  0  0
   27.5830   29.5440   47.4710 N   0  0  0  0  0  0  0  0  0  0  0  0
   26.9750   30.7360   47.6970 C   0  0  0  0  0  3  0  0  0  0  0  0
   26.6950   31.3250   46.4760 C   0  0  0  0  0  0  0  0  0  0  0  0
   27.1360   30.4850   45.5410 N   0  0  0  0  0  0  0  0  0  0  0  0
   27.6870   29.3760   46.1530 C   0  0  0  0  0  0  0  0  0  0  0  0
   28.2370   28.2700   45.4440 C   0  0  0  0  0  0  0  0  0  0  0  0
   29.4090   27.6120   45.8700 C   0  0  0  0  0  3  0  0  0  0  0  0
   29.7110   26.6060   44.9860 N   0  0  0  0  0  0  0  0  0  0  0  0
   28.7130   26.6490   44.0040 C   0  0  0  0  0  3  0  0  0  0  0  0
   27.9000   27.6360   44.3450 N   0  0  0  0  0  0  0  0  0  0  0  0
   26.8980   27.5630   43.3730 C   0  0  0  0  0  0  0  0  0  0  0  0
   25.9430   26.6830   43.6990 N   0  0  0  0  0  0  0  0  0  0  0  0
   24.9260   26.4490   42.8270 C   0  0  0  0  0  3  0  0  0  0  0  0
   24.8070   27.0500   41.6440 N   0  0  0  0  0  0  0  0  0  0  0  0
   25.7490   27.9460   41.2760 C   0  0  0  0  0  0  0  0  0  0  0  0
   25.7560   28.6280   40.0900 C   0  0  0  0  0  3  0  0  0  0  0  0
   26.7330   29.5110   39.7690 C   0  0  0  0  0  3  0  0  0  0  0  0
   27.7690   29.7400   40.6720 C   0  0  0  0  0  3  0  0  0  0  0  0
   27.8200   29.0870   41.8790 C   0  0  0  0  0  3  0  0  0  0  0  0
   26.8090   28.2080   42.1530 C   0  0  0  0  0  0  0  0  0  0  0  0
   26.0380   32.6330   46.2730 C   0  0  0  0  0  0  0  0  0  0  0  0
   25.8500   33.4650   47.3430 C   0  0  0  0  0  3  0  0  0  0  0  0
   25.2450   34.6820   47.1830 C   0  0  0  0  0  3  0  0  0  0  0  0
   24.8320   35.0410   45.9180 C   0  0  0  0  0  3  0  0  0  0  0  0
   25.0190   34.1940   44.8250 C   0  0  0  0  0  3  0  0  0  0  0  0
   25.6350   32.9630   44.9960 C   0  0  0  0  0  3  0  0  0  0  0  0
   26.7630   26.8510   51.4350 N   0  0  0  0  0  0  0  0  0  0  0  0
   25.7410   26.9350   51.3260 H   0  0  0  0  0  0  0  0  0  0  0  0
   27.1540   26.3180   52.2250 H   0  0  0  0  0  0  0  0  0  0  0  0
  1  2  1  0  0  0  0
  1 33  1  0  0  0  0
  3  2  2  0  0  0  0
  4  3  1  0  0  0  0
  5  4  2  0  0  0  0
  5  6  1  0  0  0  0
  6  1  2  0  0  0  0
  7  8  1  0  0  0  0
  7  5  1  0  0  0  0
  9  8  2  0  0  0  0
 10 11  2  0  0  0  0
 10  9  1  0  0  0  0
 11  7  1  0  0  0  0
 12 13  2  0  0  0  0
 12 11  1  0  0  0  0
 14 13  1  0  0  0  0
 15 16  1  0  0  0  0
 15 14  2  0  0  0  0
 16 12  1  0  0  0  0
 17 18  1  0  0  0  0
 17 16  1  0  0  0  0
 19 18  2  0  0  0  0
 20 19  1  0  0  0  0
 21 20  2  0  0  0  0
 21 26  1  0  0  0  0
 22 21  1  0  0  0  0
 23 22  2  0  0  0  0
 23 24  1  0  0  0  0
 24 25  2  0  0  0  0
 25 26  1  0  0  0  0
 26 17  2  0  0  0  0
 27  9  1  0  0  0  0
 27 28  1  0  0  0  0
 29 28  2  0  0  0  0
 30 29  1  0  0  0  0
 31 32  1  0  0  0  0
 31 30  2  0  0  0  0
 32 27  2  0  0  0  0
 33 35  1  0  0  0  0
 34 33  1  0  0  0  0
M  END
>  <minimizedAffinity>
-7.54476786

$$$$

 OpenBabel03272514483D

 35 40  0  0  0  0  0  0  0  0999 V2000
   32.3610   24.5270   46.3850 C   0  0  0  0  0  0  0  0  0  0  0  0
   32.5470   24.4450   44.9820 C   0  0  0  0  0  3  0  0  0  0  0  0
   33.0470   25.5560   44.3510 C   0  0  0  0  0  3  0  0  0  0  0  0
   33.3110   26.6100   45.1290 N   0  0  0  0  0  0  0  0  0  0  0  0
   33.1460   26.7100   46.4260 C   0  0  0  0  0  0  0  0  0  0  0  0
   32.6580   25.6350   47.0600 N   0  0  0  0  0  0  0  0  0  0  0  0
   33.5130   27.9380   46.9970 N   0  0  0  0  0  0  0  0  0  0  0  0
   34.5830   27.9590   47.8310 C   0  0  0  0  0  3  0  0  0  0  0  0
   34.7680   29.2560   48.2760 C   0  0  0  0  0  0  0  0  0  0  0  0
   33.8130   29.9910   47.7070 N   0  0  0  0  0  0  0  0  0  0  0  0
   33.0300   29.1770   46.9130 C   0  0  0  0  0  0  0  0  0  0  0  0
   31.9030   29.6370   46.1720 C   0  0  0  0  0  0  0  0  0  0  0  0
   31.9270   30.8390   45.4370 C   0  0  0  0  0  3  0  0  0  0  0  0
   30.7020   31.0360   44.8480 N   0  0  0  0  0  0  0  0  0  0  0  0
   29.9170   29.9400   45.2280 C   0  0  0  0  0  3  0  0  0  0  0  0
   30.6870   29.1780   45.9900 N   0  0  0  0  0  0  0  0  0  0  0  0
   29.8670   28.0790   46.2590 C   0  0  0  0  0  0  0  0  0  0  0  0
   29.9310   27.1530   45.2930 N   0  0  0  0  0  0  0  0  0  0  0  0
   29.1440   26.0480   45.3760 C   0  0  0  0  0  3  0  0  0  0  0  0
   28.2960   25.8110   46.3740 N   0  0  0  0  0  0  0  0  0  0  0  0
   28.2000   26.7190   47.3700 C   0  0  0  0  0  0  0  0  0  0  0  0
   27.3650   26.6090   48.4490 C   0  0  0  0  0  3  0  0  0  0  0  0
   27.3040   27.5570   49.4160 C   0  0  0  0  0  3  0  0  0  0  0  0
   28.1150   28.6840   49.3190 C   0  0  0  0  0  3  0  0  0  0  0  0
   28.9750   28.8550   48.2600 C   0  0  0  0  0  3  0  0  0  0  0  0
   28.9970   27.8690   47.3140 C   0  0  0  0  0  0  0  0  0  0  0  0
   35.8260   29.7160   49.2000 C   0  0  0  0  0  0  0  0  0  0  0  0
   35.7650   29.3660   50.5210 C   0  0  0  0  0  3  0  0  0  0  0  0
   36.7310   29.7770   51.3980 C   0  0  0  0  0  3  0  0  0  0  0  0
   37.7620   30.5510   50.9120 C   0  0  0  0  0  3  0  0  0  0  0  0
   37.8270   30.9130   49.5660 C   0  0  0  0  0  3  0  0  0  0  0  0
   36.8440   30.4900   48.6840 C   0  0  0  0  0  3  0  0  0  0  0  0
   31.8460   23.3710   47.0770 N   0  0  0  0  0  0  0  0  0  0  0  0
   31.7010   23.4030   48.0960 H   0  0  0  0  0  0  0  0  0  0  0  0
   31.6220   22.5140   46.5510 H   0  0  0  0  0  0  0  0  0  0  0  0
  1  6  1  0  0  0  0
  1 33  1  0  0  0  0
  2  1  2  0  0  0  0
  3  2  1  0  0  0  0
  3  4  2  0  0  0  0
  4  5  1  0  0  0  0
  5  7  1  0  0  0  0
  5  6  2  0  0  0  0
  7  8  1  0  0  0  0
  8  9  2  0  0  0  0
  9 27  1  0  0  0  0
 10  9  1  0  0  0  0
 11  7  1  0  0  0  0
 11 10  2  0  0  0  0
 12 11  1  0  0  0  0
 13 12  2  0  0  0  0
 14 15  2  0  0  0  0
 14 13  1  0  0  0  0
 15 16  1  0  0  0  0
 16 12  1  0  0  0  0
 16 17  1  0  0  0  0
 17 26  1  0  0  0  0
 18 19  1  0  0  0  0
 18 17  2  0  0  0  0
 19 20  2  0  0  0  0
 20 21  1  0  0  0  0
 21 22  1  0  0  0  0
 22 23  2  0  0  0  0
 24 23  1  0  0  0  0
 25 24  2  0  0  0  0
 26 21  2  0  0  0  0
 26 25  1  0  0  0  0
 27 28  1  0  0  0  0
 28 29  2  0  0  0  0
 30 29  1  0  0  0  0
 31 30  2  0  0  0  0
 32 27  2  0  0  0  0
 32 31  1  0  0  0  0
 33 34  1  0  0  0  0
 35 33  1  0  0  0  0
M  END
>  <minimizedAffinity>
-7.29225874

$$$$

 OpenBabel03272514483D

 35 40  0  0  0  0  0  0  0  0999 V2000
   30.0580   27.9150   46.6410 C   0  0  0  0  0  0  0  0  0  0  0  0
   30.1840   26.8140   45.7560 C   0  0  0  0  0  3  0  0  0  0  0  0
   31.4390   26.5360   45.2780 C   0  0  0  0  0  3  0  0  0  0  0  0
   32.4240   27.3360   45.6990 N   0  0  0  0  0  0  0  0  0  0  0  0
   32.3320   28.3580   46.5150 C   0  0  0  0  0  0  0  0  0  0  0  0
   31.1130   28.6450   46.9910 N   0  0  0  0  0  0  0  0  0  0  0  0
   33.5330   29.0260   46.7970 N   0  0  0  0  0  0  0  0  0  0  0  0
   34.0230   28.9500   48.0600 C   0  0  0  0  0  3  0  0  0  0  0  0
   35.2030   29.6710   48.1180 C   0  0  0  0  0  0  0  0  0  0  0  0
   35.4030   30.1670   46.8970 N   0  0  0  0  0  0  0  0  0  0  0  0
   34.3690   29.7710   46.0730 C   0  0  0  0  0  0  0  0  0  0  0  0
   34.2590   30.1410   44.7020 C   0  0  0  0  0  0  0  0  0  0  0  0
   33.0330   30.5220   44.1210 C   0  0  0  0  0  3  0  0  0  0  0  0
   33.2270   30.8010   42.7920 N   0  0  0  0  0  0  0  0  0  0  0  0
   34.5910   30.5870   42.5530 C   0  0  0  0  0  3  0  0  0  0  0  0
   35.1150   30.2110   43.7090 N   0  0  0  0  0  0  0  0  0  0  0  0
   36.4760   30.0970   43.4100 C   0  0  0  0  0  0  0  0  0  0  0  0
   37.1160   31.2680   43.5170 N   0  0  0  0  0  0  0  0  0  0  0  0
   38.4360   31.3380   43.2000 C   0  0  0  0  0  3  0  0  0  0  0  0
   39.1570   30.3000   42.7830 N   0  0  0  0  0  0  0  0  0  0  0  0
   38.5510   29.0980   42.6610 C   0  0  0  0  0  0  0  0  0  0  0  0
   39.1670   27.9530   42.2370 C   0  0  0  0  0  3  0  0  0  0  0  0
   38.5050   26.7740   42.1250 C   0  0  0  0  0  3  0  0  0  0  0  0
   37.1530   26.7170   42.4530 C   0  0  0  0  0  3  0  0  0  0  0  0
   36.4770   27.8320   42.8860 C   0  0  0  0  0  3  0  0  0  0  0  0
   37.1910   28.9940   42.9800 C   0  0  0  0  0  0  0  0  0  0  0  0
   36.0590   29.8430   49.3100 C   0  0  0  0  0  0  0  0  0  0  0  0
   35.6440   29.3430   50.5140 C   0  0  0  0  0  3  0  0  0  0  0  0
   36.4170   29.4880   51.6340 C   0  0  0  0  0  3  0  0  0  0  0  0
   37.6200   30.1490   51.5110 C   0  0  0  0  0  3  0  0  0  0  0  0
   38.0450   30.6630   50.2860 C   0  0  0  0  0  3  0  0  0  0  0  0
   37.2560   30.5110   49.1560 C   0  0  0  0  0  3  0  0  0  0  0  0
   28.7520   28.2240   47.1680 N   0  0  0  0  0  0  0  0  0  0  0  0
   28.6320   29.0180   47.8130 H   0  0  0  0  0  0  0  0  0  0  0  0
   27.9390   27.6520   46.8980 H   0  0  0  0  0  0  0  0  0  0  0  0
  1  6  1  0  0  0  0
  1 33  1  0  0  0  0
  2  1  2  0  0  0  0
  3  4  2  0  0  0  0
  3  2  1  0  0  0  0
  4  5  1  0  0  0  0
  5  7  1  0  0  0  0
  5  6  2  0  0  0  0
  7  8  1  0  0  0  0
  8  9  2  0  0  0  0
  9 27  1  0  0  0  0
 10  9  1  0  0  0  0
 11  7  1  0  0  0  0
 11 10  2  0  0  0  0
 12 11  1  0  0  0  0
 13 12  2  0  0  0  0
 14 13  1  0  0  0  0
 15 14  2  0  0  0  0
 15 16  1  0  0  0  0
 16 12  1  0  0  0  0
 17 18  1  0  0  0  0
 17 16  1  0  0  0  0
 19 18  2  0  0  0  0
 20 19  1  0  0  0  0
 21 20  2  0  0  0  0
 21 26  1  0  0  0  0
 22 21  1  0  0  0  0
 23 22  2  0  0  0  0
 23 24  1  0  0  0  0
 24 25  2  0  0  0  0
 25 26  1  0  0  0  0
 26 17  2  0  0  0  0
 27 28  1  0  0  0  0
 28 29  2  0  0  0  0
 30 29  1  0  0  0  0
 31 30  2  0  0  0  0
 32 27  2  0  0  0  0
 32 31  1  0  0  0  0
 33 34  1  0  0  0  0
 35 33  1  0  0  0  0
M  END
>  <minimizedAffinity>
-6.92455769

$$$$

 OpenBabel03272514483D

 35 40  0  0  0  0  0  0  0  0999 V2000
   32.5260   30.6730   43.5920 C   0  0  0  0  0  0  0  0  0  0  0  0
   32.5410   29.9550   42.3690 C   0  0  0  0  0  3  0  0  0  0  0  0
   31.3410   29.4750   41.9110 C   0  0  0  0  0  3  0  0  0  0  0  0
   30.2700   29.7330   42.6690 N   0  0  0  0  0  0  0  0  0  0  0  0
   30.2320   30.3920   43.8020 C   0  0  0  0  0  0  0  0  0  0  0  0
   31.3960   30.8690   44.2660 N   0  0  0  0  0  0  0  0  0  0  0  0
   28.9660   30.5240   44.3900 N   0  0  0  0  0  0  0  0  0  0  0  0
   28.4180   31.7650   44.4520 C   0  0  0  0  0  3  0  0  0  0  0  0
   27.1790   31.6680   45.0630 C   0  0  0  0  0  0  0  0  0  0  0  0
   27.0030   30.3810   45.3580 N   0  0  0  0  0  0  0  0  0  0  0  0
   28.1090   29.6660   44.9430 C   0  0  0  0  0  0  0  0  0  0  0  0
   28.2580   28.2610   45.1210 C   0  0  0  0  0  0  0  0  0  0  0  0
   27.9410   27.3360   44.1060 C   0  0  0  0  0  3  0  0  0  0  0  0
   28.1620   26.0620   44.5670 N   0  0  0  0  0  0  0  0  0  0  0  0
   28.6200   26.2070   45.8830 C   0  0  0  0  0  3  0  0  0  0  0  0
   28.6490   27.5090   46.1240 N   0  0  0  0  0  0  0  0  0  0  0  0
   29.1870   27.5740   47.4120 C   0  0  0  0  0  0  0  0  0  0  0  0
   30.5260   27.5610   47.4020 N   0  0  0  0  0  0  0  0  0  0  0  0
   31.2020   27.5570   48.5810 C   0  0  0  0  0  3  0  0  0  0  0  0
   30.6150   27.5690   49.7760 N   0  0  0  0  0  0  0  0  0  0  0  0
   29.2650   27.5830   49.8330 C   0  0  0  0  0  0  0  0  0  0  0  0
   28.5330   27.5880   50.9880 C   0  0  0  0  0  3  0  0  0  0  0  0
   27.1770   27.5940   50.9860 C   0  0  0  0  0  3  0  0  0  0  0  0
   26.4970   27.5970   49.7710 C   0  0  0  0  0  3  0  0  0  0  0  0
   27.1740   27.5930   48.5750 C   0  0  0  0  0  3  0  0  0  0  0  0
   28.5400   27.5870   48.6350 C   0  0  0  0  0  0  0  0  0  0  0  0
   26.2500   32.7870   45.3250 C   0  0  0  0  0  0  0  0  0  0  0  0
   25.8230   33.0220   46.6040 C   0  0  0  0  0  3  0  0  0  0  0  0
   24.9640   34.0500   46.8750 C   0  0  0  0  0  3  0  0  0  0  0  0
   24.5430   34.8390   45.8260 C   0  0  0  0  0  3  0  0  0  0  0  0
   24.9740   34.6020   44.5200 C   0  0  0  0  0  3  0  0  0  0  0  0
   25.8470   33.5570   44.2550 C   0  0  0  0  0  3  0  0  0  0  0  0
   33.7710   31.1990   44.0930 N   0  0  0  0  0  0  0  0  0  0  0  0
   33.7900   31.7240   44.9790 H   0  0  0  0  0  0  0  0  0  0  0  0
   34.6430   31.0490   43.5650 H   0  0  0  0  0  0  0  0  0  0  0  0
  1 33  1  0  0  0  0
  1  6  1  0  0  0  0
  2  1  2  0  0  0  0
  3  2  1  0  0  0  0
  3  4  2  0  0  0  0
  4  5  1  0  0  0  0
  5  6  2  0  0  0  0
  5  7  1  0  0  0  0
  7  8  1  0  0  0  0
  7 11  1  0  0  0  0
  8  9  2  0  0  0  0
  9 27  1  0  0  0  0
  9 10  1  0  0  0  0
 11 12  1  0  0  0  0
 11 10  2  0  0  0  0
 12 16  1  0  0  0  0
 13 14  1  0  0  0  0
 13 12  2  0  0  0  0
 14 15  2  0  0  0  0
 15 16  1  0  0  0  0
 16 17  1  0  0  0  0
 17 26  1  0  0  0  0
 18 17  2  0  0  0  0
 18 19  1  0  0  0  0
 19 20  2  0  0  0  0
 20 21  1  0  0  0  0
 21 22  1  0  0  0  0
 23 22  2  0  0  0  0
 24 23  1  0  0  0  0
 25 26  1  0  0  0  0
 25 24  2  0  0  0  0
 26 21  2  0  0  0  0
 27 28  1  0  0  0  0
 28 29  2  0  0  0  0
 30 29  1  0  0  0  0
 31 30  2  0  0  0  0
 32 31  1  0  0  0  0
 32 27  2  0  0  0  0
 33 34  1  0  0  0  0
 35 33  1  0  0  0  0
M  END
>  <minimizedAffinity>
-6.89423656

$$$$

 OpenBabel03272514483D

 35 40  0  0  0  0  0  0  0  0999 V2000
   29.7060   28.3900   42.7890 C   0  0  0  0  0  0  0  0  0  0  0  0
   29.6810   27.1880   42.0360 C   0  0  0  0  0  3  0  0  0  0  0  0
   29.7190   26.0110   42.7380 C   0  0  0  0  0  3  0  0  0  0  0  0
   29.7760   26.1150   44.0690 N   0  0  0  0  0  0  0  0  0  0  0  0
   29.8020   27.2130   44.7860 C   0  0  0  0  0  0  0  0  0  0  0  0
   29.7660   28.3740   44.1180 N   0  0  0  0  0  0  0  0  0  0  0  0
   29.8560   27.0350   46.1760 N   0  0  0  0  0  0  0  0  0  0  0  0
   28.7770   27.4080   46.9090 C   0  0  0  0  0  3  0  0  0  0  0  0
   29.0390   27.1480   48.2430 C   0  0  0  0  0  0  0  0  0  0  0  0
   30.2640   26.6260   48.2920 N   0  0  0  0  0  0  0  0  0  0  0  0
   30.7770   26.5540   47.0120 C   0  0  0  0  0  0  0  0  0  0  0  0
   32.0770   26.0610   46.7030 C   0  0  0  0  0  0  0  0  0  0  0  0
   32.3240   24.6960   46.4560 C   0  0  0  0  0  3  0  0  0  0  0  0
   33.6620   24.5140   46.2100 N   0  0  0  0  0  0  0  0  0  0  0  0
   34.2440   25.7840   46.3090 C   0  0  0  0  0  3  0  0  0  0  0  0
   33.2590   26.6220   46.5940 N   0  0  0  0  0  0  0  0  0  0  0  0
   33.8990   27.8640   46.5960 C   0  0  0  0  0  0  0  0  0  0  0  0
   33.9760   28.3950   45.3700 N   0  0  0  0  0  0  0  0  0  0  0  0
   34.6260   29.5760   45.1940 C   0  0  0  0  0  3  0  0  0  0  0  0
   35.2030   30.2620   46.1780 N   0  0  0  0  0  0  0  0  0  0  0  0
   35.1480   29.7630   47.4330 C   0  0  0  0  0  0  0  0  0  0  0  0
   35.7030   30.3560   48.5330 C   0  0  0  0  0  3  0  0  0  0  0  0
   35.6250   29.8050   49.7690 C   0  0  0  0  0  3  0  0  0  0  0  0
   34.9570   28.5950   49.9350 C   0  0  0  0  0  3  0  0  0  0  0  0
   34.3770   27.9480   48.8700 C   0  0  0  0  0  3  0  0  0  0  0  0
   34.4860   28.5480   47.6460 C   0  0  0  0  0  0  0  0  0  0  0  0
   28.1250   27.4040   49.3750 C   0  0  0  0  0  0  0  0  0  0  0  0
   26.9640   28.0970   49.1600 C   0  0  0  0  0  3  0  0  0  0  0  0
   26.1000   28.3480   50.1890 C   0  0  0  0  0  3  0  0  0  0  0  0
   26.4320   27.8840   51.4440 C   0  0  0  0  0  3  0  0  0  0  0  0
   27.6160   27.1810   51.6690 C   0  0  0  0  0  3  0  0  0  0  0  0
   28.4860   26.9290   50.6180 C   0  0  0  0  0  3  0  0  0  0  0  0
   29.6570   29.6440   42.0790 N   0  0  0  0  0  0  0  0  0  0  0  0
   29.6730   30.5330   42.6000 H   0  0  0  0  0  0  0  0  0  0  0  0
   29.6050   29.6520   41.0500 H   0  0  0  0  0  0  0  0  0  0  0  0
  1  6  1  0  0  0  0
  2  3  1  0  0  0  0
  2  1  2  0  0  0  0
  3  4  2  0  0  0  0
  4  5  1  0  0  0  0
  5  7  1  0  0  0  0
  6  5  2  0  0  0  0
  7  8  1  0  0  0  0
  7 11  1  0  0  0  0
  8  9  2  0  0  0  0
  9 10  1  0  0  0  0
  9 27  1  0  0  0  0
 11 10  2  0  0  0  0
 12 11  1  0  0  0  0
 13 12  2  0  0  0  0
 14 15  2  0  0  0  0
 14 13  1  0  0  0  0
 15 16  1  0  0  0  0
 16 17  1  0  0  0  0
 16 12  1  0  0  0  0
 17 26  1  0  0  0  0
 18 17  2  0  0  0  0
 19 18  1  0  0  0  0
 19 20  2  0  0  0  0
 20 21  1  0  0  0  0
 21 26  2  0  0  0  0
 21 22  1  0  0  0  0
 22 23  2  0  0  0  0
 23 24  1  0  0  0  0
 25 24  2  0  0  0  0
 26 25  1  0  0  0  0
 27 32  1  0  0  0  0
 28 27  2  0  0  0  0
 28 29  1  0  0  0  0
 29 30  2  0  0  0  0
 30 31  1  0  0  0  0
 32 31  2  0  0  0  0
 33 34  1  0  0  0  0
 33  1  1  0  0  0  0
 35 33  1  0  0  0  0
M  END
>  <minimizedAffinity>
-6.80071402

$$$$
