
 OpenBabel03272514353D

 30 33  0  0  1  0  0  0  0  0999 V2000
   32.8440   25.6980   47.3430 C   0  0  0  0  0  3  0  0  0  0  0  0
   31.5090   25.7930   47.7120 C   0  0  0  0  0  3  0  0  0  0  0  0
   30.9510   26.9820   48.0230 C   0  0  0  0  0  0  0  0  0  0  0  0
   31.7350   28.0970   47.9690 N   0  0  0  0  0  0  0  0  0  0  0  0
   33.0360   28.0090   47.6100 C   0  0  0  0  0  0  0  0  0  0  0  0
   33.5710   26.8540   47.3080 N   0  0  0  0  0  0  0  0  0  0  0  0
   33.8590   29.2520   47.6090 C   0  0  2  0  0  3  0  0  0  0  0  0
   33.5960   30.0130   46.2710 C   0  0  0  0  0  1  0  0  0  0  0  0
   35.3130   28.9920   47.6430 C   0  0  0  0  0  2  0  0  0  0  0  0
   36.0240   29.5270   48.8050 C   0  0  0  0  0  0  0  0  0  0  0  0
   35.8160   29.0150   50.0920 C   0  0  0  0  0  3  0  0  0  0  0  0
   36.4940   29.4970   51.2150 C   0  0  0  0  0  3  0  0  0  0  0  0
   37.4080   30.5200   51.0580 C   0  0  0  0  0  3  0  0  0  0  0  0
   37.6310   31.0420   49.8040 C   0  0  0  0  0  0  0  0  0  0  0  0
   38.5480   32.0690   49.6820 C   0  0  0  0  0  3  0  0  0  0  0  0
   38.8100   32.6410   48.4310 C   0  0  0  0  0  3  0  0  0  0  0  0
   38.1380   32.1610   47.3280 C   0  0  0  0  0  3  0  0  0  0  0  0
   37.2360   31.1370   47.5110 C   0  0  0  0  0  3  0  0  0  0  0  0
   36.9440   30.5410   48.7190 C   0  0  0  0  0  0  0  0  0  0  0  0
   29.5050   26.9660   48.3500 C   0  0  0  0  0  2  0  0  0  0  0  0
   29.0690   28.3030   48.7700 C   0  0  0  0  0  2  0  0  0  0  0  0
   28.3410   28.2800   50.0140 N   0  0  0  0  0  0  0  0  0  0  0  0
   28.7580   27.0950   50.8090 C   0  0  0  0  0  2  0  0  0  0  0  0
   27.7220   27.1030   51.9100 C   0  0  0  0  0  2  0  0  0  0  0  0
   26.4870   27.7380   51.2780 C   0  0  0  0  0  2  0  0  0  0  0  0
   26.9720   27.9530   49.8560 C   0  0  1  0  0  3  0  0  0  0  0  0
   26.1470   29.0570   49.2730 C   0  0  0  0  0  0  0  0  0  0  0  0
   26.7000   30.2980   49.3550 F   0  0  0  0  0  0  0  0  0  0  0  0
   24.8790   28.9930   49.8090 F   0  0  0  0  0  0  0  0  0  0  0  0
   26.0060   28.8230   47.8880 F   0  0  0  0  0  0  0  0  0  0  0  0
  1  2  1  0  0  0  0
  2  3  2  0  0  0  0
  3 20  1  0  0  0  0
  4  3  1  0  0  0  0
  5  4  2  0  0  0  0
  6  1  2  0  0  0  0
  6  5  1  0  0  0  0
  7  8  1  6  0  0  0
  7  5  1  0  0  0  0
  7  9  1  0  0  0  0
  9 10  1  0  0  0  0
 10 11  1  0  0  0  0
 11 12  2  0  0  0  0
 13 12  1  0  0  0  0
 14 13  2  0  0  0  0
 15 14  1  0  0  0  0
 16 15  2  0  0  0  0
 17 18  2  0  0  0  0
 17 16  1  0  0  0  0
 18 19  1  0  0  0  0
 19 10  2  0  0  0  0
 19 14  1  0  0  0  0
 20 21  1  0  0  0  0
 21 22  1  0  0  0  0
 22 23  1  0  0  0  0
 23 24  1  0  0  0  0
 25 24  1  0  0  0  0
 26 27  1  1  0  0  0
 26 22  1  0  0  0  0
 26 25  1  0  0  0  0
 27 28  1  0  0  0  0
 27 29  1  0  0  0  0
 30 27  1  0  0  0  0
M  END
>  <minimizedAffinity>
-8.15029812

$$$$

 OpenBabel03272514353D

 30 33  0  0  1  0  0  0  0  0999 V2000
   32.1140   25.8430   47.6610 C   0  0  0  0  0  3  0  0  0  0  0  0
   30.7880   26.1580   47.3950 C   0  0  0  0  0  3  0  0  0  0  0  0
   30.3910   27.4380   47.2340 C   0  0  0  0  0  0  0  0  0  0  0  0
   31.3280   28.4240   47.3440 N   0  0  0  0  0  0  0  0  0  0  0  0
   32.6200   28.1220   47.6050 C   0  0  0  0  0  0  0  0  0  0  0  0
   33.0000   26.8790   47.7560 N   0  0  0  0  0  0  0  0  0  0  0  0
   33.5960   29.2380   47.7570 C   0  0  2  0  0  3  0  0  0  0  0  0
   33.5250   30.1300   46.4770 C   0  0  0  0  0  1  0  0  0  0  0  0
   34.9990   28.7830   47.8520 C   0  0  0  0  0  2  0  0  0  0  0  0
   35.7840   29.3770   48.9340 C   0  0  0  0  0  0  0  0  0  0  0  0
   35.6020   28.9960   50.2700 C   0  0  0  0  0  3  0  0  0  0  0  0
   36.3500   29.5360   51.3180 C   0  0  0  0  0  3  0  0  0  0  0  0
   37.3120   30.4860   51.0360 C   0  0  0  0  0  3  0  0  0  0  0  0
   37.5120   30.8790   49.7320 C   0  0  0  0  0  0  0  0  0  0  0  0
   38.4780   31.8360   49.4840 C   0  0  0  0  0  3  0  0  0  0  0  0
   38.7200   32.2770   48.1770 C   0  0  0  0  0  3  0  0  0  0  0  0
   37.9780   31.7400   47.1470 C   0  0  0  0  0  3  0  0  0  0  0  0
   37.0290   30.7910   47.4560 C   0  0  0  0  0  3  0  0  0  0  0  0
   36.7550   30.3240   48.7230 C   0  0  0  0  0  0  0  0  0  0  0  0
   28.9620   27.6480   46.9000 C   0  0  0  0  0  2  0  0  0  0  0  0
   28.1420   26.6000   47.5210 C   0  0  0  0  0  2  0  0  0  0  0  0
   27.0770   27.1410   48.3290 N   0  0  0  0  0  0  0  0  0  0  0  0
   26.4240   28.2610   47.6020 C   0  0  0  0  0  2  0  0  0  0  0  0
   25.5520   28.8450   48.6900 C   0  0  0  0  0  2  0  0  0  0  0  0
   26.2900   28.5390   49.9890 C   0  0  0  0  0  2  0  0  0  0  0  0
   27.5410   27.8640   49.4550 C   0  0  1  0  0  3  0  0  0  0  0  0
   28.0780   27.0020   50.5530 C   0  0  0  0  0  0  0  0  0  0  0  0
   29.4140   26.7440   50.4860 F   0  0  0  0  0  0  0  0  0  0  0  0
   27.3120   25.8610   50.6370 F   0  0  0  0  0  0  0  0  0  0  0  0
   27.9110   27.6850   51.7770 F   0  0  0  0  0  0  0  0  0  0  0  0
  1  6  1  0  0  0  0
  2  1  2  0  0  0  0
  3  4  2  0  0  0  0
  3  2  1  0  0  0  0
  4  5  1  0  0  0  0
  5  6  2  0  0  0  0
  5  7  1  0  0  0  0
  7  8  1  6  0  0  0
  7  9  1  0  0  0  0
  9 10  1  0  0  0  0
 10 11  1  0  0  0  0
 11 12  2  0  0  0  0
 13 12  1  0  0  0  0
 14 13  2  0  0  0  0
 15 14  1  0  0  0  0
 16 15  2  0  0  0  0
 17 18  2  0  0  0  0
 17 16  1  0  0  0  0
 18 19  1  0  0  0  0
 19 10  2  0  0  0  0
 19 14  1  0  0  0  0
 20  3  1  0  0  0  0
 20 21  1  0  0  0  0
 21 22  1  0  0  0  0
 22 26  1  0  0  0  0
 23 22  1  0  0  0  0
 23 24  1  0  0  0  0
 24 25  1  0  0  0  0
 26 25  1  0  0  0  0
 26 27  1  1  0  0  0
 27 29  1  0  0  0  0
 27 30  1  0  0  0  0
 28 27  1  0  0  0  0
M  END
>  <minimizedAffinity>
-7.98394346

$$$$

 OpenBabel03272514353D

 30 33  0  0  1  0  0  0  0  0999 V2000
   31.0170   27.4720   44.5120 C   0  0  0  0  0  3  0  0  0  0  0  0
   29.9350   27.4430   45.3810 C   0  0  0  0  0  3  0  0  0  0  0  0
   30.0970   27.6190   46.7090 C   0  0  0  0  0  0  0  0  0  0  0  0
   31.3600   27.8250   47.1840 N   0  0  0  0  0  0  0  0  0  0  0  0
   32.4180   27.8540   46.3410 C   0  0  0  0  0  0  0  0  0  0  0  0
   32.2540   27.6850   45.0540 N   0  0  0  0  0  0  0  0  0  0  0  0
   33.7800   28.0400   46.9160 C   0  0  2  0  0  3  0  0  0  0  0  0
   34.0240   26.9180   47.9740 C   0  0  0  0  0  1  0  0  0  0  0  0
   33.9420   29.3180   47.6410 C   0  0  0  0  0  2  0  0  0  0  0  0
   35.3090   29.8320   47.7190 C   0  0  0  0  0  0  0  0  0  0  0  0
   35.9860   30.2990   46.5840 C   0  0  0  0  0  3  0  0  0  0  0  0
   37.2850   30.8090   46.6360 C   0  0  0  0  0  3  0  0  0  0  0  0
   37.9380   30.8590   47.8510 C   0  0  0  0  0  3  0  0  0  0  0  0
   37.2980   30.4070   48.9830 C   0  0  0  0  0  0  0  0  0  0  0  0
   37.9800   30.4650   50.1830 C   0  0  0  0  0  3  0  0  0  0  0  0
   37.3790   30.0130   51.3640 C   0  0  0  0  0  3  0  0  0  0  0  0
   36.0980   29.5110   51.3060 C   0  0  0  0  0  3  0  0  0  0  0  0
   35.4670   29.4770   50.0820 C   0  0  0  0  0  3  0  0  0  0  0  0
   36.0150   29.9100   48.8940 C   0  0  0  0  0  0  0  0  0  0  0  0
   28.8630   27.6210   47.5300 C   0  0  0  0  0  2  0  0  0  0  0  0
   28.7890   28.8520   48.3250 C   0  0  0  0  0  2  0  0  0  0  0  0
   28.2930   28.6180   49.6580 N   0  0  0  0  0  0  0  0  0  0  0  0
   29.0260   27.4750   50.2650 C   0  0  0  0  0  2  0  0  0  0  0  0
   28.2010   27.2260   51.5070 C   0  0  0  0  0  2  0  0  0  0  0  0
   26.7920   27.6730   51.1360 C   0  0  0  0  0  2  0  0  0  0  0  0
   26.9890   28.0660   49.6820 C   0  0  1  0  0  3  0  0  0  0  0  0
   25.9080   29.0420   49.3400 C   0  0  0  0  0  0  0  0  0  0  0  0
   26.2840   30.3510   49.3580 F   0  0  0  0  0  0  0  0  0  0  0  0
   24.8110   28.7850   50.1320 F   0  0  0  0  0  0  0  0  0  0  0  0
   25.5030   28.8090   48.0080 F   0  0  0  0  0  0  0  0  0  0  0  0
  1  6  2  0  0  0  0
  1  2  1  0  0  0  0
  2  3  2  0  0  0  0
  3  4  1  0  0  0  0
  3 20  1  0  0  0  0
  5  7  1  0  0  0  0
  5  4  2  0  0  0  0
  6  5  1  0  0  0  0
  7  9  1  0  0  0  0
  7  8  1  1  0  0  0
  9 10  1  0  0  0  0
 10 19  1  0  0  0  0
 11 12  1  0  0  0  0
 11 10  2  0  0  0  0
 12 13  2  0  0  0  0
 13 14  1  0  0  0  0
 14 15  1  0  0  0  0
 15 16  2  0  0  0  0
 17 16  1  0  0  0  0
 18 17  2  0  0  0  0
 19 14  2  0  0  0  0
 19 18  1  0  0  0  0
 20 21  1  0  0  0  0
 21 22  1  0  0  0  0
 22 26  1  0  0  0  0
 22 23  1  0  0  0  0
 23 24  1  0  0  0  0
 25 24  1  0  0  0  0
 26 27  1  1  0  0  0
 26 25  1  0  0  0  0
 27 28  1  0  0  0  0
 27 29  1  0  0  0  0
 30 27  1  0  0  0  0
M  END
>  <minimizedAffinity>
-7.94835615

$$$$

 OpenBabel03272514353D

 30 33  0  0  1  0  0  0  0  0999 V2000
   33.5400   26.1330   47.2190 C   0  0  0  0  0  3  0  0  0  0  0  0
   32.1880   26.0860   47.5290 C   0  0  0  0  0  3  0  0  0  0  0  0
   31.6320   26.9770   48.3770 C   0  0  0  0  0  0  0  0  0  0  0  0
   32.4360   27.9310   48.9300 N   0  0  0  0  0  0  0  0  0  0  0  0
   33.7540   27.9800   48.6310 C   0  0  0  0  0  0  0  0  0  0  0  0
   34.2870   27.1150   47.8060 N   0  0  0  0  0  0  0  0  0  0  0  0
   34.5960   29.0160   49.2940 C   0  0  2  0  0  3  0  0  0  0  0  0
   33.8740   29.4730   50.6010 C   0  0  0  0  0  1  0  0  0  0  0  0
   34.7690   30.2390   48.4830 C   0  0  0  0  0  2  0  0  0  0  0  0
   36.1080   30.8280   48.5050 C   0  0  0  0  0  0  0  0  0  0  0  0
   36.6570   31.3660   49.6770 C   0  0  0  0  0  3  0  0  0  0  0  0
   37.9390   31.9180   49.7270 C   0  0  0  0  0  3  0  0  0  0  0  0
   38.7050   31.9390   48.5780 C   0  0  0  0  0  3  0  0  0  0  0  0
   38.1910   31.4170   47.4130 C   0  0  0  0  0  0  0  0  0  0  0  0
   38.9810   31.4590   46.2790 C   0  0  0  0  0  3  0  0  0  0  0  0
   38.5070   30.9480   45.0650 C   0  0  0  0  0  3  0  0  0  0  0  0
   37.2410   30.4050   45.0220 C   0  0  0  0  0  3  0  0  0  0  0  0
   36.5000   30.3920   46.1840 C   0  0  0  0  0  3  0  0  0  0  0  0
   36.9220   30.8800   47.4010 C   0  0  0  0  0  0  0  0  0  0  0  0
   30.1700   26.8600   48.5900 C   0  0  0  0  0  2  0  0  0  0  0  0
   29.5840   28.1900   48.8010 C   0  0  0  0  0  2  0  0  0  0  0  0
   28.7430   28.2420   49.9700 N   0  0  0  0  0  0  0  0  0  0  0  0
   28.7880   26.9320   50.6710 C   0  0  0  0  0  2  0  0  0  0  0  0
   27.6700   27.1010   51.6750 C   0  0  0  0  0  2  0  0  0  0  0  0
   26.6900   28.0620   51.0110 C   0  0  0  0  0  2  0  0  0  0  0  0
   27.3600   28.2680   49.6640 C   0  0  1  0  0  3  0  0  0  0  0  0
   26.8790   29.5810   49.1310 C   0  0  0  0  0  0  0  0  0  0  0  0
   26.9220   29.7050   47.7750 F   0  0  0  0  0  0  0  0  0  0  0  0
   27.5400   30.5950   49.7870 F   0  0  0  0  0  0  0  0  0  0  0  0
   25.5120   29.7190   49.4560 F   0  0  0  0  0  0  0  0  0  0  0  0
  1  2  2  0  0  0  0
  1  6  1  0  0  0  0
  2  3  1  0  0  0  0
  3 20  1  0  0  0  0
  3  4  2  0  0  0  0
  5  4  1  0  0  0  0
  5  7  1  0  0  0  0
  6  5  2  0  0  0  0
  7  8  1  1  0  0  0
  9 10  1  0  0  0  0
  9  7  1  0  0  0  0
 10 11  1  0  0  0  0
 11 12  2  0  0  0  0
 13 12  1  0  0  0  0
 14 13  2  0  0  0  0
 15 14  1  0  0  0  0
 16 15  2  0  0  0  0
 17 16  1  0  0  0  0
 17 18  2  0  0  0  0
 18 19  1  0  0  0  0
 19 14  1  0  0  0  0
 19 10  2  0  0  0  0
 20 21  1  0  0  0  0
 21 22  1  0  0  0  0
 22 23  1  0  0  0  0
 23 24  1  0  0  0  0
 25 24  1  0  0  0  0
 26 27  1  1  0  0  0
 26 22  1  0  0  0  0
 26 25  1  0  0  0  0
 27 30  1  0  0  0  0
 27 29  1  0  0  0  0
 28 27  1  0  0  0  0
M  END
>  <minimizedAffinity>
-7.82523346

$$$$

 OpenBabel03272514353D

 30 33  0  0  1  0  0  0  0  0999 V2000
   31.1060   30.9560   44.9020 C   0  0  0  0  0  3  0  0  0  0  0  0
   29.9780   30.3090   45.3870 C   0  0  0  0  0  3  0  0  0  0  0  0
   30.0800   29.2210   46.1790 C   0  0  0  0  0  0  0  0  0  0  0  0
   31.3270   28.7640   46.4920 N   0  0  0  0  0  0  0  0  0  0  0  0
   32.4290   29.3900   46.0210 C   0  0  0  0  0  0  0  0  0  0  0  0
   32.3240   30.4470   45.2550 N   0  0  0  0  0  0  0  0  0  0  0  0
   33.7670   28.8260   46.3570 C   0  0  2  0  0  3  0  0  0  0  0  0
   33.6720   27.2680   46.2970 C   0  0  0  0  0  1  0  0  0  0  0  0
   34.2120   29.1480   47.7290 C   0  0  0  0  0  2  0  0  0  0  0  0
   35.5120   29.8100   47.8340 C   0  0  0  0  0  0  0  0  0  0  0  0
   36.1400   30.3770   46.7170 C   0  0  0  0  0  3  0  0  0  0  0  0
   37.3730   31.0290   46.7940 C   0  0  0  0  0  3  0  0  0  0  0  0
   38.0070   31.1230   48.0170 C   0  0  0  0  0  3  0  0  0  0  0  0
   37.4130   30.5740   49.1310 C   0  0  0  0  0  0  0  0  0  0  0  0
   38.0750   30.6800   50.3390 C   0  0  0  0  0  3  0  0  0  0  0  0
   37.5200   30.1350   51.5030 C   0  0  0  0  0  3  0  0  0  0  0  0
   36.3030   29.4930   51.4200 C   0  0  0  0  0  3  0  0  0  0  0  0
   35.6900   29.4180   50.1890 C   0  0  0  0  0  3  0  0  0  0  0  0
   36.1950   29.9380   49.0170 C   0  0  0  0  0  0  0  0  0  0  0  0
   28.8070   28.6480   46.6790 C   0  0  0  0  0  2  0  0  0  0  0  0
   28.3390   29.4060   47.8470 C   0  0  0  0  0  2  0  0  0  0  0  0
   27.3940   28.6630   48.6420 N   0  0  0  0  0  0  0  0  0  0  0  0
   26.1420   29.4510   48.7870 C   0  0  0  0  0  2  0  0  0  0  0  0
   25.4130   28.6490   49.8400 C   0  0  0  0  0  2  0  0  0  0  0  0
   26.5160   28.0040   50.6730 C   0  0  0  0  0  2  0  0  0  0  0  0
   27.7520   28.5860   50.0110 C   0  0  1  0  0  3  0  0  0  0  0  0
   28.8840   27.6500   50.2930 C   0  0  0  0  0  0  0  0  0  0  0  0
   29.0470   26.6490   49.3840 F   0  0  0  0  0  0  0  0  0  0  0  0
   28.7680   27.1910   51.5860 F   0  0  0  0  0  0  0  0  0  0  0  0
   30.0910   28.3800   50.2350 F   0  0  0  0  0  0  0  0  0  0  0  0
  1  6  2  0  0  0  0
  1  2  1  0  0  0  0
  2  3  2  0  0  0  0
  3  4  1  0  0  0  0
  3 20  1  0  0  0  0
  5  7  1  0  0  0  0
  5  4  2  0  0  0  0
  6  5  1  0  0  0  0
  7  8  1  1  0  0  0
  7  9  1  0  0  0  0
  9 10  1  0  0  0  0
 10 19  1  0  0  0  0
 11 12  1  0  0  0  0
 11 10  2  0  0  0  0
 12 13  2  0  0  0  0
 13 14  1  0  0  0  0
 14 15  1  0  0  0  0
 15 16  2  0  0  0  0
 17 16  1  0  0  0  0
 18 17  2  0  0  0  0
 19 14  2  0  0  0  0
 19 18  1  0  0  0  0
 20 21  1  0  0  0  0
 21 22  1  0  0  0  0
 22 23  1  0  0  0  0
 22 26  1  0  0  0  0
 23 24  1  0  0  0  0
 24 25  1  0  0  0  0
 26 27  1  6  0  0  0
 26 25  1  0  0  0  0
 27 29  1  0  0  0  0
 28 27  1  0  0  0  0
 30 27  1  0  0  0  0
M  END
>  <minimizedAffinity>
-7.80648708

$$$$

 OpenBabel03272514353D

 30 33  0  0  1  0  0  0  0  0999 V2000
   32.8880   25.5230   47.1990 C   0  0  0  0  0  3  0  0  0  0  0  0
   31.6350   25.8470   47.7010 C   0  0  0  0  0  3  0  0  0  0  0  0
   31.4390   26.9670   48.4280 C   0  0  0  0  0  0  0  0  0  0  0  0
   32.5100   27.7790   48.6650 N   0  0  0  0  0  0  0  0  0  0  0  0
   33.7330   27.4670   48.1790 C   0  0  0  0  0  0  0  0  0  0  0  0
   33.9160   26.3810   47.4720 N   0  0  0  0  0  0  0  0  0  0  0  0
   34.8770   28.3660   48.5020 C   0  0  2  0  0  3  0  0  0  0  0  0
   35.0000   28.4640   50.0560 C   0  0  0  0  0  1  0  0  0  0  0  0
   34.6880   29.7520   48.0260 C   0  0  0  0  0  2  0  0  0  0  0  0
   35.8240   30.3360   47.3140 C   0  0  0  0  0  0  0  0  0  0  0  0
   36.0020   30.1530   45.9360 C   0  0  0  0  0  3  0  0  0  0  0  0
   37.0690   30.7140   45.2310 C   0  0  0  0  0  3  0  0  0  0  0  0
   37.9920   31.4830   45.9110 C   0  0  0  0  0  3  0  0  0  0  0  0
   37.8420   31.6800   47.2650 C   0  0  0  0  0  0  0  0  0  0  0  0
   38.7850   32.4500   47.9180 C   0  0  0  0  0  3  0  0  0  0  0  0
   38.6850   32.6780   49.2960 C   0  0  0  0  0  3  0  0  0  0  0  0
   37.6300   32.1210   49.9860 C   0  0  0  0  0  3  0  0  0  0  0  0
   36.7210   31.3630   49.2820 C   0  0  0  0  0  3  0  0  0  0  0  0
   36.7760   31.1110   47.9290 C   0  0  0  0  0  0  0  0  0  0  0  0
   30.0480   27.2340   48.8640 C   0  0  0  0  0  2  0  0  0  0  0  0
   30.0440   28.1990   49.9710 C   0  0  0  0  0  2  0  0  0  0  0  0
   28.7940   28.2100   50.6880 N   0  0  0  0  0  0  0  0  0  0  0  0
   28.5050   26.8450   51.2000 C   0  0  0  0  0  2  0  0  0  0  0  0
   27.0750   27.0050   51.6660 C   0  0  0  0  0  2  0  0  0  0  0  0
   26.4900   28.0860   50.7640 C   0  0  0  0  0  2  0  0  0  0  0  0
   27.6660   28.3590   49.8430 C   0  0  1  0  0  3  0  0  0  0  0  0
   27.4880   29.7430   49.3030 C   0  0  0  0  0  0  0  0  0  0  0  0
   28.0260   29.9560   48.0700 F   0  0  0  0  0  0  0  0  0  0  0  0
   27.9260   30.6470   50.2460 F   0  0  0  0  0  0  0  0  0  0  0  0
   26.1070   29.9810   49.1330 F   0  0  0  0  0  0  0  0  0  0  0  0
  1  6  2  0  0  0  0
  1  2  1  0  0  0  0
  2  3  2  0  0  0  0
  3  4  1  0  0  0  0
  3 20  1  0  0  0  0
  5  7  1  0  0  0  0
  5  4  2  0  0  0  0
  6  5  1  0  0  0  0
  7  8  1  1  0  0  0
  9  7  1  0  0  0  0
 10 19  1  0  0  0  0
 10  9  1  0  0  0  0
 11 10  2  0  0  0  0
 12 13  2  0  0  0  0
 12 11  1  0  0  0  0
 13 14  1  0  0  0  0
 14 15  2  0  0  0  0
 14 19  1  0  0  0  0
 15 16  1  0  0  0  0
 16 17  2  0  0  0  0
 18 17  1  0  0  0  0
 19 18  2  0  0  0  0
 20 21  1  0  0  0  0
 21 22  1  0  0  0  0
 22 23  1  0  0  0  0
 23 24  1  0  0  0  0
 25 24  1  0  0  0  0
 26 27  1  1  0  0  0
 26 22  1  0  0  0  0
 26 25  1  0  0  0  0
 27 29  1  0  0  0  0
 28 27  1  0  0  0  0
 30 27  1  0  0  0  0
M  END
>  <minimizedAffinity>
-7.757339

$$$$

 OpenBabel03272514353D

 30 33  0  0  1  0  0  0  0  0999 V2000
   33.3350   25.6260   47.2350 C   0  0  0  0  0  3  0  0  0  0  0  0
   31.9870   25.6900   47.5620 C   0  0  0  0  0  3  0  0  0  0  0  0
   31.4880   26.7180   48.2800 C   0  0  0  0  0  0  0  0  0  0  0  0
   32.3450   27.6990   48.6850 N   0  0  0  0  0  0  0  0  0  0  0  0
   33.6590   27.6410   48.3700 C   0  0  0  0  0  0  0  0  0  0  0  0
   34.1360   26.6430   47.6710 N   0  0  0  0  0  0  0  0  0  0  0  0
   34.5600   28.7160   48.8730 C   0  0  2  0  0  3  0  0  0  0  0  0
   34.1630   29.0400   50.3480 C   0  0  0  0  0  1  0  0  0  0  0  0
   34.4250   29.9880   48.1330 C   0  0  0  0  0  2  0  0  0  0  0  0
   35.5650   30.3540   47.2910 C   0  0  0  0  0  0  0  0  0  0  0  0
   35.6010   30.0400   45.9260 C   0  0  0  0  0  3  0  0  0  0  0  0
   36.6700   30.3920   45.0980 C   0  0  0  0  0  3  0  0  0  0  0  0
   37.7390   31.0780   45.6390 C   0  0  0  0  0  3  0  0  0  0  0  0
   37.7300   31.3990   46.9770 C   0  0  0  0  0  0  0  0  0  0  0  0
   38.8170   32.0810   47.4890 C   0  0  0  0  0  3  0  0  0  0  0  0
   38.8630   32.4280   48.8440 C   0  0  0  0  0  3  0  0  0  0  0  0
   37.8060   32.0780   49.6560 C   0  0  0  0  0  3  0  0  0  0  0  0
   36.7500   31.3990   49.0890 C   0  0  0  0  0  3  0  0  0  0  0  0
   36.6580   31.0360   47.7640 C   0  0  0  0  0  0  0  0  0  0  0  0
   30.0250   26.7050   48.5210 C   0  0  0  0  0  2  0  0  0  0  0  0
   29.5860   28.0140   49.0190 C   0  0  0  0  0  2  0  0  0  0  0  0
   28.1590   28.1920   48.9160 N   0  0  0  0  0  0  0  0  0  0  0  0
   27.8690   29.4560   48.1900 C   0  0  0  0  0  2  0  0  0  0  0  0
   26.3800   29.5890   48.4210 C   0  0  0  0  0  2  0  0  0  0  0  0
   26.1290   28.9000   49.7580 C   0  0  0  0  0  2  0  0  0  0  0  0
   27.5440   28.5140   50.1520 C   0  0  1  0  0  3  0  0  0  0  0  0
   27.4380   27.3600   51.0980 C   0  0  0  0  0  0  0  0  0  0  0  0
   28.4370   27.2730   52.0190 F   0  0  0  0  0  0  0  0  0  0  0  0
   27.2720   26.2030   50.3690 F   0  0  0  0  0  0  0  0  0  0  0  0
   26.2630   27.5200   51.8640 F   0  0  0  0  0  0  0  0  0  0  0  0
  1  2  2  0  0  0  0
  1  6  1  0  0  0  0
  2  3  1  0  0  0  0
  3 20  1  0  0  0  0
  3  4  2  0  0  0  0
  5  4  1  0  0  0  0
  5  7  1  0  0  0  0
  6  5  2  0  0  0  0
  7  8  1  1  0  0  0
  9  7  1  0  0  0  0
 10 19  1  0  0  0  0
 10  9  1  0  0  0  0
 11 10  2  0  0  0  0
 12 13  2  0  0  0  0
 12 11  1  0  0  0  0
 13 14  1  0  0  0  0
 14 15  2  0  0  0  0
 14 19  1  0  0  0  0
 15 16  1  0  0  0  0
 16 17  2  0  0  0  0
 18 17  1  0  0  0  0
 19 18  2  0  0  0  0
 20 21  1  0  0  0  0
 22 21  1  0  0  0  0
 22 26  1  0  0  0  0
 23 24  1  0  0  0  0
 23 22  1  0  0  0  0
 24 25  1  0  0  0  0
 25 26  1  0  0  0  0
 26 27  1  1  0  0  0
 27 30  1  0  0  0  0
 27 28  1  0  0  0  0
 29 27  1  0  0  0  0
M  END
>  <minimizedAffinity>
-7.6162653

$$$$

 OpenBabel03272514353D

 30 33  0  0  1  0  0  0  0  0999 V2000
   31.3470   26.3310   46.0490 C   0  0  0  0  0  3  0  0  0  0  0  0
   30.0540   26.7070   46.3880 C   0  0  0  0  0  3  0  0  0  0  0  0
   29.7900   27.9270   46.9010 C   0  0  0  0  0  0  0  0  0  0  0  0
   30.8320   28.7900   47.0840 N   0  0  0  0  0  0  0  0  0  0  0  0
   32.0930   28.4290   46.7550 C   0  0  0  0  0  0  0  0  0  0  0  0
   32.3420   27.2450   46.2560 N   0  0  0  0  0  0  0  0  0  0  0  0
   33.2000   29.3930   47.0140 C   0  0  2  0  0  3  0  0  0  0  0  0
   33.4010   30.2640   45.7330 C   0  0  0  0  0  1  0  0  0  0  0  0
   34.5010   28.7390   47.2630 C   0  0  0  0  0  2  0  0  0  0  0  0
   35.1990   29.1630   48.4770 C   0  0  0  0  0  0  0  0  0  0  0  0
   34.8030   28.7210   49.7460 C   0  0  0  0  0  3  0  0  0  0  0  0
   35.4630   29.0990   50.9170 C   0  0  0  0  0  3  0  0  0  0  0  0
   36.5530   29.9430   50.8310 C   0  0  0  0  0  3  0  0  0  0  0  0
   36.9640   30.3930   49.5970 C   0  0  0  0  0  0  0  0  0  0  0  0
   38.0540   31.2400   49.5450 C   0  0  0  0  0  3  0  0  0  0  0  0
   38.5120   31.7330   48.3170 C   0  0  0  0  0  3  0  0  0  0  0  0
   37.8560   31.3570   47.1650 C   0  0  0  0  0  3  0  0  0  0  0  0
   36.7760   30.5100   47.2790 C   0  0  0  0  0  3  0  0  0  0  0  0
   36.2880   29.9990   48.4620 C   0  0  0  0  0  0  0  0  0  0  0  0
   28.3660   28.2330   47.1750 C   0  0  0  0  0  2  0  0  0  0  0  0
   28.2560   29.5010   47.9060 C   0  0  0  0  0  2  0  0  0  0  0  0
   27.0940   29.5450   48.7590 N   0  0  0  0  0  0  0  0  0  0  0  0
   26.5050   28.1840   48.8640 C   0  0  0  0  0  2  0  0  0  0  0  0
   25.1930   28.4870   49.5520 C   0  0  0  0  0  2  0  0  0  0  0  0
   24.8420   29.9050   49.1150 C   0  0  0  0  0  2  0  0  0  0  0  0
   25.9890   30.2060   48.1680 C   0  0  1  0  0  3  0  0  0  0  0  0
   26.1310   31.6940   48.1070 C   0  0  0  0  0  0  0  0  0  0  0  0
   26.7530   32.1710   46.9940 F   0  0  0  0  0  0  0  0  0  0  0  0
   26.7080   32.1320   49.2790 F   0  0  0  0  0  0  0  0  0  0  0  0
   24.8400   32.2620   48.0620 F   0  0  0  0  0  0  0  0  0  0  0  0
  1  6  2  0  0  0  0
  1  2  1  0  0  0  0
  2  3  2  0  0  0  0
  3  4  1  0  0  0  0
  3 20  1  0  0  0  0
  5  7  1  0  0  0  0
  5  4  2  0  0  0  0
  6  5  1  0  0  0  0
  7  8  1  6  0  0  0
  7  9  1  0  0  0  0
  9 10  1  0  0  0  0
 10 11  1  0  0  0  0
 11 12  2  0  0  0  0
 13 12  1  0  0  0  0
 14 13  2  0  0  0  0
 15 14  1  0  0  0  0
 16 15  2  0  0  0  0
 17 18  2  0  0  0  0
 17 16  1  0  0  0  0
 18 19  1  0  0  0  0
 19 10  2  0  0  0  0
 19 14  1  0  0  0  0
 20 21  1  0  0  0  0
 21 22  1  0  0  0  0
 22 23  1  0  0  0  0
 23 24  1  0  0  0  0
 25 24  1  0  0  0  0
 26 27  1  1  0  0  0
 26 22  1  0  0  0  0
 26 25  1  0  0  0  0
 27 29  1  0  0  0  0
 28 27  1  0  0  0  0
 30 27  1  0  0  0  0
M  END
>  <minimizedAffinity>
-7.51379061

$$$$

 OpenBabel03272514353D

 30 33  0  0  1  0  0  0  0  0999 V2000
   31.8500   26.2430   47.0340 C   0  0  0  0  0  3  0  0  0  0  0  0
   30.5230   26.6370   46.9330 C   0  0  0  0  0  3  0  0  0  0  0  0
   30.1790   27.9410   46.9110 C   0  0  0  0  0  0  0  0  0  0  0  0
   31.1720   28.8730   46.9960 N   0  0  0  0  0  0  0  0  0  0  0  0
   32.4660   28.4950   47.0960 C   0  0  0  0  0  0  0  0  0  0  0  0
   32.7940   27.2280   47.1140 N   0  0  0  0  0  0  0  0  0  0  0  0
   33.5090   29.5520   47.2290 C   0  0  2  0  0  3  0  0  0  0  0  0
   33.1750   30.6990   46.2240 C   0  0  0  0  0  1  0  0  0  0  0  0
   34.8650   29.0870   46.8700 C   0  0  0  0  0  2  0  0  0  0  0  0
   35.9680   29.8950   47.3880 C   0  0  0  0  0  0  0  0  0  0  0  0
   36.7410   30.7090   46.5490 C   0  0  0  0  0  3  0  0  0  0  0  0
   37.7880   31.5030   47.0230 C   0  0  0  0  0  3  0  0  0  0  0  0
   38.0820   31.4910   48.3720 C   0  0  0  0  0  3  0  0  0  0  0  0
   37.3400   30.7000   49.2190 C   0  0  0  0  0  0  0  0  0  0  0  0
   37.6620   30.7060   50.5620 C   0  0  0  0  0  3  0  0  0  0  0  0
   36.9440   29.9170   51.4680 C   0  0  0  0  0  3  0  0  0  0  0  0
   35.9120   29.1360   50.9950 C   0  0  0  0  0  3  0  0  0  0  0  0
   35.6370   29.1710   49.6460 C   0  0  0  0  0  3  0  0  0  0  0  0
   36.3130   29.9300   48.7160 C   0  0  0  0  0  0  0  0  0  0  0  0
   28.7360   28.2400   46.7460 C   0  0  0  0  0  2  0  0  0  0  0  0
   28.2920   29.1730   47.7890 C   0  0  0  0  0  2  0  0  0  0  0  0
   27.0290   28.7910   48.3680 N   0  0  0  0  0  0  0  0  0  0  0  0
   26.0960   29.9480   48.3280 C   0  0  0  0  0  2  0  0  0  0  0  0
   24.9660   29.4410   49.1960 C   0  0  0  0  0  2  0  0  0  0  0  0
   25.6280   28.4800   50.1770 C   0  0  0  0  0  2  0  0  0  0  0  0
   27.0860   28.6170   49.7730 C   0  0  1  0  0  3  0  0  0  0  0  0
   27.7800   27.3640   50.2030 C   0  0  0  0  0  0  0  0  0  0  0  0
   27.2990   26.7980   51.3450 F   0  0  0  0  0  0  0  0  0  0  0  0
   29.1360   27.6020   50.2490 F   0  0  0  0  0  0  0  0  0  0  0  0
   27.5810   26.3810   49.2100 F   0  0  0  0  0  0  0  0  0  0  0  0
  1  6  1  0  0  0  0
  2  1  2  0  0  0  0
  3  2  1  0  0  0  0
  3  4  2  0  0  0  0
  4  5  1  0  0  0  0
  5  6  2  0  0  0  0
  5  7  1  0  0  0  0
  7  8  1  6  0  0  0
  9  7  1  0  0  0  0
  9 10  1  0  0  0  0
 10 19  1  0  0  0  0
 11 12  1  0  0  0  0
 11 10  2  0  0  0  0
 12 13  2  0  0  0  0
 13 14  1  0  0  0  0
 14 15  1  0  0  0  0
 15 16  2  0  0  0  0
 17 16  1  0  0  0  0
 18 17  2  0  0  0  0
 19 14  2  0  0  0  0
 19 18  1  0  0  0  0
 20  3  1  0  0  0  0
 20 21  1  0  0  0  0
 21 22  1  0  0  0  0
 22 26  1  0  0  0  0
 23 22  1  0  0  0  0
 23 24  1  0  0  0  0
 24 25  1  0  0  0  0
 26 25  1  0  0  0  0
 26 27  1  6  0  0  0
 27 29  1  0  0  0  0
 27 28  1  0  0  0  0
 30 27  1  0  0  0  0
M  END
>  <minimizedAffinity>
-7.21026897

$$$$
