
 OpenBabel03272514323D

 31 36  0  0  0  0  0  0  0  0999 V2000
   35.9780   29.8320   44.0870 C   0  0  0  0  0  3  0  0  0  0  0  0
   34.6920   29.3250   44.1760 C   0  0  0  0  0  3  0  0  0  0  0  0
   34.1400   29.3570   45.4390 C   0  0  0  0  0  0  0  0  0  0  0  0
   34.8710   29.8590   46.4380 N   0  0  0  0  0  0  0  0  0  0  0  0
   36.0860   30.3440   46.3770 C   0  0  0  0  0  0  0  0  0  0  0  0
   36.6080   30.3080   45.1630 N   0  0  0  0  0  0  0  0  0  0  0  0
   36.9800   30.9100   47.3650 C   0  0  0  0  0  0  0  0  0  0  0  0
   37.8980   31.8890   47.0480 C   0  0  0  0  0  3  0  0  0  0  0  0
   38.7640   32.4560   47.9480 C   0  0  0  0  0  3  0  0  0  0  0  0
   38.7510   32.0500   49.2700 C   0  0  0  0  0  3  0  0  0  0  0  0
   37.8680   31.0930   49.6260 C   0  0  0  0  0  0  0  0  0  0  0  0
   37.8470   30.6790   50.9450 C   0  0  0  0  0  3  0  0  0  0  0  0
   36.9960   29.7250   51.4020 C   0  0  0  0  0  3  0  0  0  0  0  0
   36.1200   29.1540   50.4780 C   0  0  0  0  0  3  0  0  0  0  0  0
   36.1660   29.5870   49.1710 C   0  0  0  0  0  3  0  0  0  0  0  0
   37.0120   30.5440   48.6950 C   0  0  0  0  0  0  0  0  0  0  0  0
   32.8300   28.8730   45.6940 N   0  0  0  0  0  0  0  0  0  0  0  0
   31.9210   28.5010   44.7840 C   0  0  0  0  0  3  0  0  0  0  0  0
   30.8090   28.1030   45.3730 N   0  0  0  0  0  0  0  0  0  0  0  0
   30.9940   28.2170   46.6920 C   0  0  0  0  0  0  0  0  0  0  0  0
   32.2480   28.6940   46.8600 N   0  0  0  0  0  0  0  0  0  0  0  0
   30.1740   27.9480   47.8600 C   0  0  0  0  0  0  0  0  0  0  0  0
   30.0970   26.9550   48.7760 N   0  0  0  0  0  0  0  0  0  0  0  0
   29.1530   27.2250   49.6410 O   0  0  0  0  0  0  0  0  0  0  0  0
   28.6010   28.3810   49.3170 C   0  0  0  0  0  0  0  0  0  0  0  0
   29.2260   28.8520   48.2050 N   0  0  0  0  0  0  0  0  0  0  0  0
   27.4780   29.1100   50.0080 C   0  0  0  0  0  3  0  0  0  0  0  0
   26.2520   28.2100   50.0580 C   0  0  0  0  0  2  0  0  0  0  0  0
   25.1230   28.9770   49.4080 C   0  0  0  0  0  2  0  0  0  0  0  0
   25.7650   30.0430   48.5800 C   0  0  0  0  0  2  0  0  0  0  0  0
   27.1240   30.3130   49.1920 C   0  0  0  0  0  2  0  0  0  0  0  0
  1  2  2  0  0  0  0
  1  6  1  0  0  0  0
  2  3  1  0  0  0  0
  3 17  1  0  0  0  0
  3  4  2  0  0  0  0
  5  4  1  0  0  0  0
  5  7  1  0  0  0  0
  6  5  2  0  0  0  0
  7 16  1  0  0  0  0
  8  7  2  0  0  0  0
  8  9  1  0  0  0  0
  9 10  2  0  0  0  0
 10 11  1  0  0  0  0
 11 12  1  0  0  0  0
 12 13  2  0  0  0  0
 14 13  1  0  0  0  0
 15 14  2  0  0  0  0
 16 15  1  0  0  0  0
 16 11  2  0  0  0  0
 17 21  1  0  0  0  0
 18 19  2  0  0  0  0
 18 17  1  0  0  0  0
 19 20  1  0  0  0  0
 20 21  2  0  0  0  0
 20 22  1  0  0  0  0
 22 26  1  0  0  0  0
 22 23  2  0  0  0  0
 23 24  1  0  0  0  0
 25 24  1  0  0  0  0
 25 27  1  0  0  0  0
 26 25  2  0  0  0  0
 27 28  1  0  0  0  0
 29 28  1  0  0  0  0
 30 31  1  0  0  0  0
 30 29  1  0  0  0  0
 31 27  1  0  0  0  0
M  END
>  <minimizedAffinity>
-8.57518959

$$$$

 OpenBabel03272514323D

 31 36  0  0  0  0  0  0  0  0999 V2000
   28.2370   29.2600   44.5480 C   0  0  0  0  0  3  0  0  0  0  0  0
   29.6110   29.4290   44.4930 C   0  0  0  0  0  3  0  0  0  0  0  0
   30.2430   29.4550   45.7180 C   0  0  0  0  0  0  0  0  0  0  0  0
   29.4990   29.3190   46.8190 N   0  0  0  0  0  0  0  0  0  0  0  0
   28.2010   29.1570   46.8940 C   0  0  0  0  0  0  0  0  0  0  0  0
   27.6030   29.1350   45.7150 N   0  0  0  0  0  0  0  0  0  0  0  0
   27.2830   29.0000   48.0020 C   0  0  0  0  0  0  0  0  0  0  0  0
   26.0020   29.5090   47.9710 C   0  0  0  0  0  3  0  0  0  0  0  0
   25.0960   29.3860   48.9940 C   0  0  0  0  0  3  0  0  0  0  0  0
   25.4480   28.7150   50.1510 C   0  0  0  0  0  3  0  0  0  0  0  0
   26.6930   28.1980   50.2250 C   0  0  0  0  0  0  0  0  0  0  0  0
   27.0550   27.5260   51.3780 C   0  0  0  0  0  3  0  0  0  0  0  0
   28.2830   26.9710   51.5490 C   0  0  0  0  0  3  0  0  0  0  0  0
   29.1960   27.1030   50.5030 C   0  0  0  0  0  3  0  0  0  0  0  0
   28.8050   27.7800   49.3690 C   0  0  0  0  0  3  0  0  0  0  0  0
   27.5780   28.3420   49.1790 C   0  0  0  0  0  0  0  0  0  0  0  0
   31.6480   29.6220   45.8300 N   0  0  0  0  0  0  0  0  0  0  0  0
   32.4830   30.0540   44.8760 C   0  0  0  0  0  3  0  0  0  0  0  0
   33.7230   30.0870   45.3240 N   0  0  0  0  0  0  0  0  0  0  0  0
   33.7000   29.6690   46.5940 C   0  0  0  0  0  0  0  0  0  0  0  0
   32.4080   29.3890   46.8780 N   0  0  0  0  0  0  0  0  0  0  0  0
   34.7100   29.4800   47.6200 C   0  0  0  0  0  0  0  0  0  0  0  0
   34.8160   28.7290   48.7410 N   0  0  0  0  0  0  0  0  0  0  0  0
   35.9730   28.9480   49.3120 O   0  0  0  0  0  0  0  0  0  0  0  0
   36.6390   29.8320   48.5890 C   0  0  0  0  0  0  0  0  0  0  0  0
   35.8660   30.1780   47.5250 N   0  0  0  0  0  0  0  0  0  0  0  0
   38.0120   30.4020   48.8360 C   0  0  0  0  0  3  0  0  0  0  0  0
   37.9460   31.3810   50.0000 C   0  0  0  0  0  2  0  0  0  0  0  0
   38.4950   32.6940   49.4940 C   0  0  0  0  0  2  0  0  0  0  0  0
   38.4140   32.6350   48.0030 C   0  0  0  0  0  2  0  0  0  0  0  0
   38.4300   31.1690   47.6230 C   0  0  0  0  0  2  0  0  0  0  0  0
  1  6  1  0  0  0  0
  2  1  2  0  0  0  0
  2  3  1  0  0  0  0
  3 17  1  0  0  0  0
  3  4  2  0  0  0  0
  4  5  1  0  0  0  0
  5  7  1  0  0  0  0
  6  5  2  0  0  0  0
  7 16  1  0  0  0  0
  8  7  2  0  0  0  0
  8  9  1  0  0  0  0
  9 10  2  0  0  0  0
 10 11  1  0  0  0  0
 11 12  1  0  0  0  0
 12 13  2  0  0  0  0
 14 13  1  0  0  0  0
 15 14  2  0  0  0  0
 16 15  1  0  0  0  0
 16 11  2  0  0  0  0
 17 21  1  0  0  0  0
 18 19  2  0  0  0  0
 18 17  1  0  0  0  0
 19 20  1  0  0  0  0
 20 21  2  0  0  0  0
 20 22  1  0  0  0  0
 22 23  2  0  0  0  0
 23 24  1  0  0  0  0
 25 27  1  0  0  0  0
 25 24  1  0  0  0  0
 26 22  1  0  0  0  0
 26 25  2  0  0  0  0
 27 28  1  0  0  0  0
 29 28  1  0  0  0  0
 30 29  1  0  0  0  0
 31 30  1  0  0  0  0
 31 27  1  0  0  0  0
M  END
>  <minimizedAffinity>
-8.38827705

$$$$

 OpenBabel03272514323D

 31 36  0  0  0  0  0  0  0  0999 V2000
   36.8580   29.9500   43.9550 C   0  0  0  0  0  3  0  0  0  0  0  0
   35.5780   29.4600   43.7560 C   0  0  0  0  0  3  0  0  0  0  0  0
   34.7680   29.4780   44.8730 C   0  0  0  0  0  0  0  0  0  0  0  0
   35.2740   29.9520   46.0150 N   0  0  0  0  0  0  0  0  0  0  0  0
   36.4790   30.4190   46.2250 C   0  0  0  0  0  0  0  0  0  0  0  0
   37.2480   30.3980   45.1500 N   0  0  0  0  0  0  0  0  0  0  0  0
   37.1460   30.9550   47.3930 C   0  0  0  0  0  0  0  0  0  0  0  0
   38.0590   31.9840   47.3080 C   0  0  0  0  0  3  0  0  0  0  0  0
   38.7160   32.5250   48.3850 C   0  0  0  0  0  3  0  0  0  0  0  0
   38.4770   32.0370   49.6560 C   0  0  0  0  0  3  0  0  0  0  0  0
   37.5890   31.0290   49.7870 C   0  0  0  0  0  0  0  0  0  0  0  0
   37.3440   30.5330   51.0540 C   0  0  0  0  0  3  0  0  0  0  0  0
   36.4690   29.5220   51.2900 C   0  0  0  0  0  3  0  0  0  0  0  0
   35.8070   28.9780   50.1880 C   0  0  0  0  0  3  0  0  0  0  0  0
   36.0750   29.4930   48.9400 C   0  0  0  0  0  3  0  0  0  0  0  0
   36.9480   30.5090   48.6840 C   0  0  0  0  0  0  0  0  0  0  0  0
   33.4290   29.0090   44.8310 N   0  0  0  0  0  0  0  0  0  0  0  0
   32.7260   28.6850   43.7390 C   0  0  0  0  0  3  0  0  0  0  0  0
   31.5120   28.2860   44.0690 N   0  0  0  0  0  0  0  0  0  0  0  0
   31.4200   28.3500   45.4000 C   0  0  0  0  0  0  0  0  0  0  0  0
   32.6160   28.7980   45.8430 N   0  0  0  0  0  0  0  0  0  0  0  0
   30.3720   28.0540   46.3620 C   0  0  0  0  0  0  0  0  0  0  0  0
   29.1650   27.4440   46.3160 N   0  0  0  0  0  0  0  0  0  0  0  0
   28.6210   27.4500   47.5060 O   0  0  0  0  0  0  0  0  0  0  0  0
   29.4460   28.0540   48.3440 C   0  0  0  0  0  0  0  0  0  0  0  0
   30.5490   28.4400   47.6480 N   0  0  0  0  0  0  0  0  0  0  0  0
   29.2660   28.3070   49.8180 C   0  0  0  0  0  3  0  0  0  0  0  0
   29.1090   26.9760   50.5390 C   0  0  0  0  0  2  0  0  0  0  0  0
   27.8070   27.0470   51.3030 C   0  0  0  0  0  2  0  0  0  0  0  0
   27.0100   28.1410   50.6690 C   0  0  0  0  0  2  0  0  0  0  0  0
   28.0010   29.0800   50.0140 C   0  0  0  0  0  2  0  0  0  0  0  0
  1  6  1  0  0  0  0
  2  1  2  0  0  0  0
  2  3  1  0  0  0  0
  3  4  2  0  0  0  0
  4  5  1  0  0  0  0
  5  7  1  0  0  0  0
  6  5  2  0  0  0  0
  7 16  1  0  0  0  0
  8  7  2  0  0  0  0
  8  9  1  0  0  0  0
  9 10  2  0  0  0  0
 10 11  1  0  0  0  0
 11 12  1  0  0  0  0
 12 13  2  0  0  0  0
 14 13  1  0  0  0  0
 15 14  2  0  0  0  0
 16 15  1  0  0  0  0
 16 11  2  0  0  0  0
 17  3  1  0  0  0  0
 17 21  1  0  0  0  0
 18 19  2  0  0  0  0
 18 17  1  0  0  0  0
 19 20  1  0  0  0  0
 20 21  2  0  0  0  0
 20 22  1  0  0  0  0
 22 26  1  0  0  0  0
 23 22  2  0  0  0  0
 23 24  1  0  0  0  0
 24 25  1  0  0  0  0
 25 27  1  0  0  0  0
 26 25  2  0  0  0  0
 27 31  1  0  0  0  0
 27 28  1  0  0  0  0
 28 29  1  0  0  0  0
 30 29  1  0  0  0  0
 31 30  1  0  0  0  0
M  END
>  <minimizedAffinity>
-8.36937428

$$$$

 OpenBabel03272514323D

 31 36  0  0  0  0  0  0  0  0999 V2000
   33.4480   27.1300   47.5900 C   0  0  0  0  0  3  0  0  0  0  0  0
   32.7920   27.7730   46.5530 C   0  0  0  0  0  3  0  0  0  0  0  0
   33.1040   29.1080   46.4060 C   0  0  0  0  0  0  0  0  0  0  0  0
   33.9850   29.6500   47.2510 N   0  0  0  0  0  0  0  0  0  0  0  0
   34.6170   29.0620   48.2360 C   0  0  0  0  0  0  0  0  0  0  0  0
   34.3110   27.7830   48.3700 N   0  0  0  0  0  0  0  0  0  0  0  0
   35.5810   29.5230   49.2120 C   0  0  0  0  0  0  0  0  0  0  0  0
   35.5310   29.1330   50.5340 C   0  0  0  0  0  3  0  0  0  0  0  0
   36.4210   29.5410   51.4950 C   0  0  0  0  0  3  0  0  0  0  0  0
   37.4510   30.4020   51.1610 C   0  0  0  0  0  3  0  0  0  0  0  0
   37.5390   30.8100   49.8770 C   0  0  0  0  0  0  0  0  0  0  0  0
   38.5650   31.6710   49.5330 C   0  0  0  0  0  3  0  0  0  0  0  0
   38.7400   32.1380   48.2700 C   0  0  0  0  0  3  0  0  0  0  0  0
   37.8290   31.7160   47.3010 C   0  0  0  0  0  3  0  0  0  0  0  0
   36.8170   30.8600   47.6760 C   0  0  0  0  0  3  0  0  0  0  0  0
   36.6280   30.3800   48.9380 C   0  0  0  0  0  0  0  0  0  0  0  0
   32.5150   29.9050   45.3890 N   0  0  0  0  0  0  0  0  0  0  0  0
   33.1020   30.3370   44.2670 C   0  0  0  0  0  3  0  0  0  0  0  0
   32.2600   31.0540   43.5480 N   0  0  0  0  0  0  0  0  0  0  0  0
   31.1010   31.0920   44.2120 C   0  0  0  0  0  0  0  0  0  0  0  0
   31.2870   30.3750   45.3430 N   0  0  0  0  0  0  0  0  0  0  0  0
   29.8070   31.7030   43.9640 C   0  0  0  0  0  0  0  0  0  0  0  0
   29.3180   32.5980   43.0740 N   0  0  0  0  0  0  0  0  0  0  0  0
   28.0450   32.8000   43.3050 O   0  0  0  0  0  0  0  0  0  0  0  0
   27.6800   32.0550   44.3340 C   0  0  0  0  0  0  0  0  0  0  0  0
   28.7670   31.3590   44.7610 N   0  0  0  0  0  0  0  0  0  0  0  0
   26.3200   31.9420   44.9740 C   0  0  0  0  0  3  0  0  0  0  0  0
   25.5110   33.1920   44.6540 C   0  0  0  0  0  2  0  0  0  0  0  0
   25.0730   33.7750   45.9780 C   0  0  0  0  0  2  0  0  0  0  0  0
   25.9860   33.1980   47.0120 C   0  0  0  0  0  2  0  0  0  0  0  0
   26.5000   31.8870   46.4570 C   0  0  0  0  0  2  0  0  0  0  0  0
  1  6  1  0  0  0  0
  2  1  2  0  0  0  0
  3  2  1  0  0  0  0
  3  4  2  0  0  0  0
  4  5  1  0  0  0  0
  5  6  2  0  0  0  0
  5  7  1  0  0  0  0
  7  8  1  0  0  0  0
  8  9  2  0  0  0  0
 10  9  1  0  0  0  0
 11 10  2  0  0  0  0
 12 11  1  0  0  0  0
 13 12  2  0  0  0  0
 14 15  2  0  0  0  0
 14 13  1  0  0  0  0
 15 16  1  0  0  0  0
 16  7  2  0  0  0  0
 16 11  1  0  0  0  0
 17  3  1  0  0  0  0
 18 17  1  0  0  0  0
 19 20  1  0  0  0  0
 19 18  2  0  0  0  0
 20 21  2  0  0  0  0
 21 17  1  0  0  0  0
 22 20  1  0  0  0  0
 22 26  1  0  0  0  0
 23 24  1  0  0  0  0
 23 22  2  0  0  0  0
 24 25  1  0  0  0  0
 25 26  2  0  0  0  0
 25 27  1  0  0  0  0
 27 31  1  0  0  0  0
 28 27  1  0  0  0  0
 28 29  1  0  0  0  0
 29 30  1  0  0  0  0
 31 30  1  0  0  0  0
M  END
>  <minimizedAffinity>
-8.1388092

$$$$

 OpenBabel03272514323D

 31 36  0  0  0  0  0  0  0  0999 V2000
   35.3900   29.9410   44.7210 C   0  0  0  0  0  3  0  0  0  0  0  0
   34.0530   30.0890   44.3900 C   0  0  0  0  0  3  0  0  0  0  0  0
   33.1920   30.1660   45.4650 C   0  0  0  0  0  0  0  0  0  0  0  0
   33.7070   30.0930   46.6950 N   0  0  0  0  0  0  0  0  0  0  0  0
   34.9660   29.9540   47.0310 C   0  0  0  0  0  0  0  0  0  0  0  0
   35.7830   29.8810   45.9940 N   0  0  0  0  0  0  0  0  0  0  0  0
   35.6490   29.8620   48.3040 C   0  0  0  0  0  0  0  0  0  0  0  0
   35.2830   28.9470   49.2670 C   0  0  0  0  0  3  0  0  0  0  0  0
   35.8990   28.8210   50.4870 C   0  0  0  0  0  3  0  0  0  0  0  0
   36.9600   29.6460   50.8140 C   0  0  0  0  0  3  0  0  0  0  0  0
   37.3520   30.5580   49.8990 C   0  0  0  0  0  0  0  0  0  0  0  0
   38.4120   31.3890   50.2160 C   0  0  0  0  0  3  0  0  0  0  0  0
   38.8820   32.3370   49.3650 C   0  0  0  0  0  3  0  0  0  0  0  0
   38.2470   32.4570   48.1280 C   0  0  0  0  0  3  0  0  0  0  0  0
   37.1950   31.6150   47.8440 C   0  0  0  0  0  3  0  0  0  0  0  0
   36.7110   30.6570   48.6840 C   0  0  0  0  0  0  0  0  0  0  0  0
   31.7910   30.3170   45.2910 N   0  0  0  0  0  0  0  0  0  0  0  0
   31.1710   30.9390   44.2800 C   0  0  0  0  0  3  0  0  0  0  0  0
   29.8620   30.8900   44.4380 N   0  0  0  0  0  0  0  0  0  0  0  0
   29.6210   30.2240   45.5710 C   0  0  0  0  0  0  0  0  0  0  0  0
   30.8290   29.8830   46.0750 N   0  0  0  0  0  0  0  0  0  0  0  0
   28.4190   29.8380   46.2870 C   0  0  0  0  0  0  0  0  0  0  0  0
   27.1290   30.2490   46.2990 N   0  0  0  0  0  0  0  0  0  0  0  0
   26.4460   29.5360   47.1570 O   0  0  0  0  0  0  0  0  0  0  0  0
   27.2590   28.6570   47.7170 C   0  0  0  0  0  0  0  0  0  0  0  0
   28.4990   28.8280   47.1860 N   0  0  0  0  0  0  0  0  0  0  0  0
   26.9410   27.6190   48.7620 C   0  0  0  0  0  3  0  0  0  0  0  0
   26.2920   28.2970   49.9610 C   0  0  0  0  0  2  0  0  0  0  0  0
   27.1230   27.9320   51.1690 C   0  0  0  0  0  2  0  0  0  0  0  0
   28.4520   27.4920   50.6450 C   0  0  0  0  0  2  0  0  0  0  0  0
   28.2240   27.0090   49.2280 C   0  0  0  0  0  2  0  0  0  0  0  0
  1  6  1  0  0  0  0
  2  1  2  0  0  0  0
  2  3  1  0  0  0  0
  3  4  2  0  0  0  0
  4  5  1  0  0  0  0
  5  7  1  0  0  0  0
  6  5  2  0  0  0  0
  7 16  2  0  0  0  0
  7  8  1  0  0  0  0
  8  9  2  0  0  0  0
  9 10  1  0  0  0  0
 11 12  1  0  0  0  0
 11 10  2  0  0  0  0
 13 12  2  0  0  0  0
 14 13  1  0  0  0  0
 15 14  2  0  0  0  0
 15 16  1  0  0  0  0
 16 11  1  0  0  0  0
 17  3  1  0  0  0  0
 17 21  1  0  0  0  0
 18 19  2  0  0  0  0
 18 17  1  0  0  0  0
 19 20  1  0  0  0  0
 20 21  2  0  0  0  0
 20 22  1  0  0  0  0
 22 23  2  0  0  0  0
 22 26  1  0  0  0  0
 23 24  1  0  0  0  0
 24 25  1  0  0  0  0
 25 27  1  0  0  0  0
 26 25  2  0  0  0  0
 27 31  1  0  0  0  0
 27 28  1  0  0  0  0
 28 29  1  0  0  0  0
 30 29  1  0  0  0  0
 31 30  1  0  0  0  0
M  END
>  <minimizedAffinity>
-8.12096119

$$$$

 OpenBabel03272514323D

 31 36  0  0  0  0  0  0  0  0999 V2000
   31.8290   26.2530   47.5570 C   0  0  0  0  0  3  0  0  0  0  0  0
   33.0020   26.9690   47.7350 C   0  0  0  0  0  3  0  0  0  0  0  0
   32.9260   27.9890   48.6600 C   0  0  0  0  0  0  0  0  0  0  0  0
   31.7630   28.1930   49.2850 N   0  0  0  0  0  0  0  0  0  0  0  0
   30.6440   27.5290   49.1320 C   0  0  0  0  0  0  0  0  0  0  0  0
   30.7260   26.5540   48.2440 N   0  0  0  0  0  0  0  0  0  0  0  0
   29.3330   27.6430   49.7360 C   0  0  0  0  0  0  0  0  0  0  0  0
   28.9930   26.9600   50.8840 C   0  0  0  0  0  3  0  0  0  0  0  0
   27.7660   27.0360   51.4940 C   0  0  0  0  0  3  0  0  0  0  0  0
   26.7750   27.8360   50.9550 C   0  0  0  0  0  3  0  0  0  0  0  0
   27.0640   28.5230   49.8290 C   0  0  0  0  0  0  0  0  0  0  0  0
   26.0800   29.3260   49.2820 C   0  0  0  0  0  3  0  0  0  0  0  0
   26.2720   30.0570   48.1530 C   0  0  0  0  0  3  0  0  0  0  0  0
   27.5230   29.9720   47.5420 C   0  0  0  0  0  3  0  0  0  0  0  0
   28.4810   29.1630   48.1110 C   0  0  0  0  0  3  0  0  0  0  0  0
   28.3070   28.4230   49.2430 C   0  0  0  0  0  0  0  0  0  0  0  0
   34.0430   28.8140   48.9550 N   0  0  0  0  0  0  0  0  0  0  0  0
   34.5190   29.1160   50.1690 C   0  0  0  0  0  3  0  0  0  0  0  0
   35.5690   29.9090   50.0720 N   0  0  0  0  0  0  0  0  0  0  0  0
   35.7840   30.1300   48.7720 C   0  0  0  0  0  0  0  0  0  0  0  0
   34.8280   29.4430   48.1070 N   0  0  0  0  0  0  0  0  0  0  0  0
   36.7600   30.8980   48.0190 C   0  0  0  0  0  0  0  0  0  0  0  0
   37.6460   31.8790   48.3080 N   0  0  0  0  0  0  0  0  0  0  0  0
   38.2970   32.2200   47.2240 O   0  0  0  0  0  0  0  0  0  0  0  0
   37.8590   31.4810   46.2190 C   0  0  0  0  0  0  0  0  0  0  0  0
   36.8970   30.6460   46.6950 N   0  0  0  0  0  0  0  0  0  0  0  0
   38.2990   31.5020   44.7790 C   0  0  0  0  0  3  0  0  0  0  0  0
   37.0770   31.3760   43.8800 C   0  0  0  0  0  2  0  0  0  0  0  0
   37.3220   30.1870   42.9800 C   0  0  0  0  0  2  0  0  0  0  0  0
   38.3800   29.3680   43.6480 C   0  0  0  0  0  2  0  0  0  0  0  0
   39.1680   30.3100   44.5320 C   0  0  0  0  0  2  0  0  0  0  0  0
  1  2  2  0  0  0  0
  1  6  1  0  0  0  0
  2  3  1  0  0  0  0
  3 17  1  0  0  0  0
  3  4  2  0  0  0  0
  5  4  1  0  0  0  0
  5  7  1  0  0  0  0
  6  5  2  0  0  0  0
  7  8  1  0  0  0  0
  8  9  2  0  0  0  0
 10  9  1  0  0  0  0
 11 10  2  0  0  0  0
 12 11  1  0  0  0  0
 13 12  2  0  0  0  0
 14 15  2  0  0  0  0
 14 13  1  0  0  0  0
 15 16  1  0  0  0  0
 16  7  2  0  0  0  0
 16 11  1  0  0  0  0
 17 18  1  0  0  0  0
 19 18  2  0  0  0  0
 20 19  1  0  0  0  0
 21 20  2  0  0  0  0
 21 17  1  0  0  0  0
 22 23  2  0  0  0  0
 22 20  1  0  0  0  0
 24 23  1  0  0  0  0
 25 26  2  0  0  0  0
 25 24  1  0  0  0  0
 26 22  1  0  0  0  0
 27 25  1  0  0  0  0
 28 27  1  0  0  0  0
 29 30  1  0  0  0  0
 29 28  1  0  0  0  0
 30 31  1  0  0  0  0
 31 27  1  0  0  0  0
M  END
>  <minimizedAffinity>
-8.091856

$$$$

 OpenBabel03272514323D

 31 36  0  0  0  0  0  0  0  0999 V2000
   33.2220   26.1420   47.5290 C   0  0  0  0  0  3  0  0  0  0  0  0
   31.8660   26.4190   47.5960 C   0  0  0  0  0  3  0  0  0  0  0  0
   31.5510   27.7570   47.7090 C   0  0  0  0  0  0  0  0  0  0  0  0
   32.5500   28.6430   47.7440 N   0  0  0  0  0  0  0  0  0  0  0  0
   33.8370   28.4030   47.6820 C   0  0  0  0  0  0  0  0  0  0  0  0
   34.1290   27.1190   47.5740 N   0  0  0  0  0  0  0  0  0  0  0  0
   35.0070   29.2550   47.7090 C   0  0  0  0  0  0  0  0  0  0  0  0
   35.5070   29.8490   46.5690 C   0  0  0  0  0  3  0  0  0  0  0  0
   36.6110   30.6630   46.5430 C   0  0  0  0  0  3  0  0  0  0  0  0
   37.2980   30.9320   47.7130 C   0  0  0  0  0  3  0  0  0  0  0  0
   36.8440   30.3710   48.8530 C   0  0  0  0  0  0  0  0  0  0  0  0
   37.5250   30.6330   50.0280 C   0  0  0  0  0  3  0  0  0  0  0  0
   37.1470   30.1180   51.2260 C   0  0  0  0  0  3  0  0  0  0  0  0
   36.0240   29.2900   51.2410 C   0  0  0  0  0  3  0  0  0  0  0  0
   35.3690   29.0480   50.0540 C   0  0  0  0  0  3  0  0  0  0  0  0
   35.7320   29.5580   48.8430 C   0  0  0  0  0  0  0  0  0  0  0  0
   30.2060   28.2030   47.7900 N   0  0  0  0  0  0  0  0  0  0  0  0
   29.2390   27.7010   48.5680 C   0  0  0  0  0  3  0  0  0  0  0  0
   28.1090   28.3580   48.3880 N   0  0  0  0  0  0  0  0  0  0  0  0
   28.3400   29.3070   47.4760 C   0  0  0  0  0  0  0  0  0  0  0  0
   29.6410   29.1870   47.1250 N   0  0  0  0  0  0  0  0  0  0  0  0
   27.5300   30.3390   46.8550 C   0  0  0  0  0  0  0  0  0  0  0  0
   26.5320   31.1580   47.2640 N   0  0  0  0  0  0  0  0  0  0  0  0
   26.1490   31.9180   46.2700 O   0  0  0  0  0  0  0  0  0  0  0  0
   26.8750   31.6190   45.2060 C   0  0  0  0  0  0  0  0  0  0  0  0
   27.7460   30.6330   45.5510 N   0  0  0  0  0  0  0  0  0  0  0  0
   26.8070   32.2190   43.8260 C   0  0  0  0  0  3  0  0  0  0  0  0
   25.7310   33.2960   43.8000 C   0  0  0  0  0  2  0  0  0  0  0  0
   24.7760   32.9280   42.6880 C   0  0  0  0  0  2  0  0  0  0  0  0
   24.9900   31.4730   42.4180 C   0  0  0  0  0  2  0  0  0  0  0  0
   26.4000   31.1490   42.8650 C   0  0  0  0  0  2  0  0  0  0  0  0
  1  6  2  0  0  0  0
  1  2  1  0  0  0  0
  2  3  2  0  0  0  0
  3  4  1  0  0  0  0
  3 17  1  0  0  0  0
  5  7  1  0  0  0  0
  5  4  2  0  0  0  0
  6  5  1  0  0  0  0
  7 16  1  0  0  0  0
  8  7  2  0  0  0  0
  9  8  1  0  0  0  0
  9 10  2  0  0  0  0
 10 11  1  0  0  0  0
 11 12  1  0  0  0  0
 12 13  2  0  0  0  0
 13 14  1  0  0  0  0
 15 14  2  0  0  0  0
 16 11  2  0  0  0  0
 16 15  1  0  0  0  0
 17 18  1  0  0  0  0
 19 18  2  0  0  0  0
 20 19  1  0  0  0  0
 21 20  2  0  0  0  0
 21 17  1  0  0  0  0
 22 23  2  0  0  0  0
 22 20  1  0  0  0  0
 24 23  1  0  0  0  0
 25 26  2  0  0  0  0
 25 24  1  0  0  0  0
 26 22  1  0  0  0  0
 27 25  1  0  0  0  0
 28 27  1  0  0  0  0
 29 28  1  0  0  0  0
 30 29  1  0  0  0  0
 30 31  1  0  0  0  0
 31 27  1  0  0  0  0
M  END
>  <minimizedAffinity>
-7.81292105

$$$$

 OpenBabel03272514323D

 31 36  0  0  0  0  0  0  0  0999 V2000
   33.1610   27.8450   47.3420 C   0  0  0  0  0  3  0  0  0  0  0  0
   32.1270   28.4760   46.6690 C   0  0  0  0  0  3  0  0  0  0  0  0
   32.3820   29.7810   46.3030 C   0  0  0  0  0  0  0  0  0  0  0  0
   33.5680   30.3080   46.6180 N   0  0  0  0  0  0  0  0  0  0  0  0
   34.5590   29.7300   47.2520 C   0  0  0  0  0  0  0  0  0  0  0  0
   34.3050   28.4810   47.5990 N   0  0  0  0  0  0  0  0  0  0  0  0
   35.8760   30.1780   47.6520 C   0  0  0  0  0  0  0  0  0  0  0  0
   36.7750   30.7080   46.7510 C   0  0  0  0  0  3  0  0  0  0  0  0
   38.0320   31.1460   47.0810 C   0  0  0  0  0  3  0  0  0  0  0  0
   38.4690   31.0700   48.3910 C   0  0  0  0  0  3  0  0  0  0  0  0
   37.6210   30.5580   49.3080 C   0  0  0  0  0  0  0  0  0  0  0  0
   38.0480   30.4770   50.6210 C   0  0  0  0  0  3  0  0  0  0  0  0
   37.2700   29.9780   51.6160 C   0  0  0  0  0  3  0  0  0  0  0  0
   35.9940   29.5350   51.2690 C   0  0  0  0  0  3  0  0  0  0  0  0
   35.5990   29.6280   49.9530 C   0  0  0  0  0  3  0  0  0  0  0  0
   36.3650   30.1260   48.9410 C   0  0  0  0  0  0  0  0  0  0  0  0
   31.4210   30.5630   45.6080 N   0  0  0  0  0  0  0  0  0  0  0  0
   31.6330   31.7320   44.9930 C   0  0  0  0  0  3  0  0  0  0  0  0
   30.5170   32.1800   44.4500 N   0  0  0  0  0  0  0  0  0  0  0  0
   29.5580   31.2880   44.7140 C   0  0  0  0  0  0  0  0  0  0  0  0
   30.1450   30.3010   45.4300 N   0  0  0  0  0  0  0  0  0  0  0  0
   28.1430   31.1940   44.4040 C   0  0  0  0  0  0  0  0  0  0  0  0
   27.1960   30.2310   44.5000 N   0  0  0  0  0  0  0  0  0  0  0  0
   26.0500   30.6930   44.0690 O   0  0  0  0  0  0  0  0  0  0  0  0
   26.2180   31.9480   43.6870 C   0  0  0  0  0  0  0  0  0  0  0  0
   27.5210   32.2810   43.8890 N   0  0  0  0  0  0  0  0  0  0  0  0
   25.1970   32.9000   43.1210 C   0  0  0  0  0  3  0  0  0  0  0  0
   24.5430   32.2660   41.9010 C   0  0  0  0  0  2  0  0  0  0  0  0
   24.7320   33.2340   40.7560 C   0  0  0  0  0  2  0  0  0  0  0  0
   25.8570   34.1350   41.1510 C   0  0  0  0  0  2  0  0  0  0  0  0
   25.9060   34.1350   42.6640 C   0  0  0  0  0  2  0  0  0  0  0  0
  1  6  1  0  0  0  0
  2  1  2  0  0  0  0
  3  4  2  0  0  0  0
  3  2  1  0  0  0  0
  4  5  1  0  0  0  0
  5  6  2  0  0  0  0
  5  7  1  0  0  0  0
  7 16  1  0  0  0  0
  8  9  1  0  0  0  0
  8  7  2  0  0  0  0
  9 10  2  0  0  0  0
 10 11  1  0  0  0  0
 11 12  1  0  0  0  0
 12 13  2  0  0  0  0
 14 13  1  0  0  0  0
 15 14  2  0  0  0  0
 16 11  2  0  0  0  0
 16 15  1  0  0  0  0
 17  3  1  0  0  0  0
 18 17  1  0  0  0  0
 19 20  1  0  0  0  0
 19 18  2  0  0  0  0
 20 21  2  0  0  0  0
 21 17  1  0  0  0  0
 22 23  2  0  0  0  0
 22 20  1  0  0  0  0
 24 23  1  0  0  0  0
 25 26  2  0  0  0  0
 25 24  1  0  0  0  0
 26 22  1  0  0  0  0
 27 25  1  0  0  0  0
 28 27  1  0  0  0  0
 29 30  1  0  0  0  0
 29 28  1  0  0  0  0
 30 31  1  0  0  0  0
 31 27  1  0  0  0  0
M  END
>  <minimizedAffinity>
-7.73903799

$$$$

 OpenBabel03272514323D

 31 36  0  0  0  0  0  0  0  0999 V2000
   34.6280   29.4700   44.5940 C   0  0  0  0  0  3  0  0  0  0  0  0
   33.3990   28.9870   45.0130 C   0  0  0  0  0  3  0  0  0  0  0  0
   33.1880   29.0400   46.3750 C   0  0  0  0  0  0  0  0  0  0  0  0
   34.1560   29.5370   47.1490 N   0  0  0  0  0  0  0  0  0  0  0  0
   35.3240   29.9980   46.7740 C   0  0  0  0  0  0  0  0  0  0  0  0
   35.5180   29.9430   45.4680 N   0  0  0  0  0  0  0  0  0  0  0  0
   36.4480   30.5560   47.4960 C   0  0  0  0  0  0  0  0  0  0  0  0
   37.3890   31.3560   46.8820 C   0  0  0  0  0  3  0  0  0  0  0  0
   38.4700   31.9080   47.5220 C   0  0  0  0  0  3  0  0  0  0  0  0
   38.6680   31.6730   48.8700 C   0  0  0  0  0  3  0  0  0  0  0  0
   37.7710   30.8960   49.5130 C   0  0  0  0  0  0  0  0  0  0  0  0
   37.9600   30.6540   50.8610 C   0  0  0  0  0  3  0  0  0  0  0  0
   37.1140   29.8870   51.5960 C   0  0  0  0  0  3  0  0  0  0  0  0
   36.0190   29.3300   50.9350 C   0  0  0  0  0  3  0  0  0  0  0  0
   35.8590   29.5890   49.5910 C   0  0  0  0  0  3  0  0  0  0  0  0
   36.6960   30.3570   48.8380 C   0  0  0  0  0  0  0  0  0  0  0  0
   31.9780   28.5820   46.9610 N   0  0  0  0  0  0  0  0  0  0  0  0
   31.8520   27.8660   48.0850 C   0  0  0  0  0  3  0  0  0  0  0  0
   30.5810   27.6140   48.3350 N   0  0  0  0  0  0  0  0  0  0  0  0
   29.8630   28.1750   47.3580 C   0  0  0  0  0  0  0  0  0  0  0  0
   30.7510   28.7640   46.5250 N   0  0  0  0  0  0  0  0  0  0  0  0
   28.4450   28.2580   47.0570 C   0  0  0  0  0  0  0  0  0  0  0  0
   27.3220   28.5130   47.7690 N   0  0  0  0  0  0  0  0  0  0  0  0
   26.2780   28.4630   46.9800 O   0  0  0  0  0  0  0  0  0  0  0  0
   26.6880   28.1790   45.7550 C   0  0  0  0  0  0  0  0  0  0  0  0
   28.0420   28.0480   45.7820 N   0  0  0  0  0  0  0  0  0  0  0  0
   25.8640   28.0160   44.5050 C   0  0  0  0  0  3  0  0  0  0  0  0
   26.4220   26.8620   43.6840 C   0  0  0  0  0  2  0  0  0  0  0  0
   26.7260   27.4140   42.3100 C   0  0  0  0  0  2  0  0  0  0  0  0
   26.8180   28.8980   42.4670 C   0  0  0  0  0  2  0  0  0  0  0  0
   25.9970   29.2600   43.6860 C   0  0  0  0  0  2  0  0  0  0  0  0
  1  2  2  0  0  0  0
  1  6  1  0  0  0  0
  2  3  1  0  0  0  0
  3 17  1  0  0  0  0
  3  4  2  0  0  0  0
  5  4  1  0  0  0  0
  5  7  1  0  0  0  0
  6  5  2  0  0  0  0
  7 16  1  0  0  0  0
  8  7  2  0  0  0  0
  8  9  1  0  0  0  0
  9 10  2  0  0  0  0
 10 11  1  0  0  0  0
 11 12  1  0  0  0  0
 12 13  2  0  0  0  0
 14 13  1  0  0  0  0
 15 14  2  0  0  0  0
 16 11  2  0  0  0  0
 16 15  1  0  0  0  0
 17 18  1  0  0  0  0
 18 19  2  0  0  0  0
 20 19  1  0  0  0  0
 21 17  1  0  0  0  0
 21 20  2  0  0  0  0
 22 20  1  0  0  0  0
 22 23  2  0  0  0  0
 24 23  1  0  0  0  0
 25 26  2  0  0  0  0
 25 24  1  0  0  0  0
 26 22  1  0  0  0  0
 27 25  1  0  0  0  0
 28 27  1  0  0  0  0
 29 30  1  0  0  0  0
 29 28  1  0  0  0  0
 30 31  1  0  0  0  0
 31 27  1  0  0  0  0
M  END
>  <minimizedAffinity>
-7.6817832

$$$$
