
 OpenBabel03272514343D

 30 34  0  0  0  0  0  0  0  0999 V2000
   32.6020   26.0160   47.7470 C   0  0  0  0  0  3  0  0  0  0  0  0
   31.2680   26.3280   47.4980 C   0  0  0  0  0  3  0  0  0  0  0  0
   31.0140   27.6670   47.2310 C   0  0  0  0  0  0  0  0  0  0  0  0
   32.0320   28.5070   47.2360 N   0  0  0  0  0  0  0  0  0  0  0  0
   33.3060   28.2270   47.4720 C   0  0  0  0  0  0  0  0  0  0  0  0
   33.5350   26.9640   47.7220 N   0  0  0  0  0  0  0  0  0  0  0  0
   29.7020   28.1360   46.9590 N   0  0  0  0  0  0  0  0  0  0  0  0
   28.8670   27.6800   46.0130 C   0  0  0  0  0  3  0  0  0  0  0  0
   27.7250   28.3420   46.0360 N   0  0  0  0  0  0  0  0  0  0  0  0
   27.8300   29.2500   47.0230 C   0  0  0  0  0  0  0  0  0  0  0  0
   29.0480   29.1020   47.5700 N   0  0  0  0  0  0  0  0  0  0  0  0
   34.4990   29.0560   47.5050 C   0  0  0  0  0  0  0  0  0  0  0  0
   35.0050   29.6290   46.3450 C   0  0  0  0  0  3  0  0  0  0  0  0
   36.1330   30.4240   46.3160 C   0  0  0  0  0  3  0  0  0  0  0  0
   36.8280   30.6880   47.4860 C   0  0  0  0  0  3  0  0  0  0  0  0
   36.3610   30.1440   48.6390 C   0  0  0  0  0  0  0  0  0  0  0  0
   37.0410   30.3960   49.8160 C   0  0  0  0  0  3  0  0  0  0  0  0
   36.6510   29.8960   51.0160 C   0  0  0  0  0  3  0  0  0  0  0  0
   35.5090   29.0950   51.0280 C   0  0  0  0  0  3  0  0  0  0  0  0
   34.8540   28.8630   49.8370 C   0  0  0  0  0  3  0  0  0  0  0  0
   35.2300   29.3530   48.6360 C   0  0  0  0  0  0  0  0  0  0  0  0
   26.9300   30.2760   47.5540 C   0  0  0  0  0  0  0  0  0  0  0  0
   26.1240   30.3680   48.6300 N   0  0  0  0  0  0  0  0  0  0  0  0
   25.5320   31.5230   48.6320 O   0  0  0  0  0  0  0  0  0  0  0  0
   25.9390   32.2060   47.5600 C   0  0  0  0  0  0  0  0  0  0  0  0
   26.8130   31.4500   46.8680 N   0  0  0  0  0  0  0  0  0  0  0  0
   25.5330   33.5490   47.1610 C   0  0  0  0  0  0  0  0  0  0  0  0
   24.6690   33.7400   46.2380 O   0  0  0  0  0  0  0  0  0  0  0  0
   26.0690   34.6760   47.7680 O   0  0  0  0  0  0  0  0  0  0  0  0
   25.7790   35.5790   47.4810 H   0  0  0  0  0  0  0  0  0  0  0  0
  2  1  2  0  0  0  0
  3  4  2  0  0  0  0
  3  2  1  0  0  0  0
  4  5  1  0  0  0  0
  5 12  1  0  0  0  0
  5  6  2  0  0  0  0
  6  1  1  0  0  0  0
  7  3  1  0  0  0  0
  7 11  1  0  0  0  0
  8  9  2  0  0  0  0
  8  7  1  0  0  0  0
  9 10  1  0  0  0  0
 10 22  1  0  0  0  0
 10 11  2  0  0  0  0
 12 21  1  0  0  0  0
 13 12  2  0  0  0  0
 14 13  1  0  0  0  0
 14 15  2  0  0  0  0
 15 16  1  0  0  0  0
 16 17  1  0  0  0  0
 17 18  2  0  0  0  0
 18 19  1  0  0  0  0
 20 19  2  0  0  0  0
 21 16  2  0  0  0  0
 21 20  1  0  0  0  0
 22 23  2  0  0  0  0
 23 24  1  0  0  0  0
 25 24  1  0  0  0  0
 26 22  1  0  0  0  0
 26 25  2  0  0  0  0
 27 25  1  0  0  0  0
 27 29  1  0  0  0  0
 28 27  2  0  0  0  0
 30 29  1  0  0  0  0
M  END
>  <minimizedAffinity>
-8.44241905

$$$$

 OpenBabel03272514343D

 30 34  0  0  0  0  0  0  0  0999 V2000
   35.3250   29.3980   44.2220 C   0  0  0  0  0  3  0  0  0  0  0  0
   33.9330   29.3600   44.2410 C   0  0  0  0  0  3  0  0  0  0  0  0
   33.3470   29.7720   45.4320 C   0  0  0  0  0  0  0  0  0  0  0  0
   34.1380   30.1520   46.4160 N   0  0  0  0  0  0  0  0  0  0  0  0
   35.4640   30.1930   46.4150 C   0  0  0  0  0  0  0  0  0  0  0  0
   36.0060   29.8050   45.2900 N   0  0  0  0  0  0  0  0  0  0  0  0
   31.9380   29.7870   45.6000 N   0  0  0  0  0  0  0  0  0  0  0  0
   31.0420   30.4120   44.8210 C   0  0  0  0  0  3  0  0  0  0  0  0
   29.8150   30.2190   45.2670 N   0  0  0  0  0  0  0  0  0  0  0  0
   29.9250   29.4490   46.3650 C   0  0  0  0  0  0  0  0  0  0  0  0
   31.2330   29.2010   46.5460 N   0  0  0  0  0  0  0  0  0  0  0  0
   36.4300   30.5900   47.4240 C   0  0  0  0  0  0  0  0  0  0  0  0
   37.5180   31.3900   47.1000 C   0  0  0  0  0  3  0  0  0  0  0  0
   38.4670   31.7970   48.0160 C   0  0  0  0  0  3  0  0  0  0  0  0
   38.3650   31.4060   49.3430 C   0  0  0  0  0  3  0  0  0  0  0  0
   37.3140   30.6230   49.6950 C   0  0  0  0  0  0  0  0  0  0  0  0
   37.1960   30.2230   51.0130 C   0  0  0  0  0  3  0  0  0  0  0  0
   36.1810   29.4410   51.4600 C   0  0  0  0  0  3  0  0  0  0  0  0
   35.2310   29.0390   50.5210 C   0  0  0  0  0  3  0  0  0  0  0  0
   35.3770   29.4550   49.2140 C   0  0  0  0  0  3  0  0  0  0  0  0
   36.3820   30.2320   48.7560 C   0  0  0  0  0  0  0  0  0  0  0  0
   28.9560   28.8880   47.3090 C   0  0  0  0  0  0  0  0  0  0  0  0
   28.9430   27.8280   48.1410 N   0  0  0  0  0  0  0  0  0  0  0  0
   27.8090   27.7830   48.7690 O   0  0  0  0  0  0  0  0  0  0  0  0
   27.0610   28.8100   48.3630 C   0  0  0  0  0  0  0  0  0  0  0  0
   27.7520   29.5180   47.4490 N   0  0  0  0  0  0  0  0  0  0  0  0
   25.7120   29.1500   48.8030 C   0  0  0  0  0  0  0  0  0  0  0  0
   25.3700   30.3600   49.0340 O   0  0  0  0  0  0  0  0  0  0  0  0
   24.7440   28.1720   48.9880 O   0  0  0  0  0  0  0  0  0  0  0  0
   23.8350   28.4260   49.2870 H   0  0  0  0  0  0  0  0  0  0  0  0
  1  2  2  0  0  0  0
  1  6  1  0  0  0  0
  2  3  1  0  0  0  0
  3  7  1  0  0  0  0
  3  4  2  0  0  0  0
  5  4  1  0  0  0  0
  5 12  1  0  0  0  0
  6  5  2  0  0  0  0
  7 11  1  0  0  0  0
  8  9  2  0  0  0  0
  8  7  1  0  0  0  0
  9 10  1  0  0  0  0
 10 11  2  0  0  0  0
 10 22  1  0  0  0  0
 12 21  1  0  0  0  0
 13 12  2  0  0  0  0
 13 14  1  0  0  0  0
 14 15  2  0  0  0  0
 15 16  1  0  0  0  0
 16 17  1  0  0  0  0
 17 18  2  0  0  0  0
 19 18  1  0  0  0  0
 20 19  2  0  0  0  0
 21 20  1  0  0  0  0
 21 16  2  0  0  0  0
 22 26  1  0  0  0  0
 22 23  2  0  0  0  0
 23 24  1  0  0  0  0
 25 24  1  0  0  0  0
 25 27  1  0  0  0  0
 26 25  2  0  0  0  0
 27 29  1  0  0  0  0
 27 28  2  0  0  0  0
 29 30  1  0  0  0  0
M  END
>  <minimizedAffinity>
-8.36838627

$$$$

 OpenBabel03272514343D

 30 34  0  0  0  0  0  0  0  0999 V2000
   35.1050   29.9870   44.8450 C   0  0  0  0  0  3  0  0  0  0  0  0
   33.7700   30.1740   44.4940 C   0  0  0  0  0  3  0  0  0  0  0  0
   32.8880   30.2770   45.5620 C   0  0  0  0  0  0  0  0  0  0  0  0
   33.3770   30.1910   46.7850 N   0  0  0  0  0  0  0  0  0  0  0  0
   34.6430   30.0130   47.1350 C   0  0  0  0  0  0  0  0  0  0  0  0
   35.4660   29.9170   46.1230 N   0  0  0  0  0  0  0  0  0  0  0  0
   31.4960   30.4690   45.3610 N   0  0  0  0  0  0  0  0  0  0  0  0
   30.9140   31.4470   44.6500 C   0  0  0  0  0  3  0  0  0  0  0  0
   29.6000   31.3260   44.6710 N   0  0  0  0  0  0  0  0  0  0  0  0
   29.3290   30.2410   45.4190 C   0  0  0  0  0  0  0  0  0  0  0  0
   30.5060   29.7370   45.8280 N   0  0  0  0  0  0  0  0  0  0  0  0
   35.2930   29.9050   48.4300 C   0  0  0  0  0  0  0  0  0  0  0  0
   34.7820   29.0770   49.4210 C   0  0  0  0  0  3  0  0  0  0  0  0
   35.3570   28.9340   50.6690 C   0  0  0  0  0  3  0  0  0  0  0  0
   36.5060   29.6400   50.9890 C   0  0  0  0  0  3  0  0  0  0  0  0
   37.0330   30.4590   50.0440 C   0  0  0  0  0  0  0  0  0  0  0  0
   38.1790   31.1700   50.3450 C   0  0  0  0  0  3  0  0  0  0  0  0
   38.7780   32.0130   49.4660 C   0  0  0  0  0  3  0  0  0  0  0  0
   38.1850   32.1450   48.2100 C   0  0  0  0  0  3  0  0  0  0  0  0
   37.0420   31.4210   47.9410 C   0  0  0  0  0  3  0  0  0  0  0  0
   36.4360   30.5800   48.8060 C   0  0  0  0  0  0  0  0  0  0  0  0
   28.0890   29.5770   45.8270 C   0  0  0  0  0  0  0  0  0  0  0  0
   27.1890   28.7840   45.2130 N   0  0  0  0  0  0  0  0  0  0  0  0
   26.2510   28.4620   46.0490 O   0  0  0  0  0  0  0  0  0  0  0  0
   26.5200   29.0350   47.2240 C   0  0  0  0  0  0  0  0  0  0  0  0
   27.6620   29.7390   47.1140 N   0  0  0  0  0  0  0  0  0  0  0  0
   25.7360   28.9460   48.4510 C   0  0  0  0  0  0  0  0  0  0  0  0
   25.2990   29.9910   49.0430 O   0  0  0  0  0  0  0  0  0  0  0  0
   25.4320   27.7200   49.0270 O   0  0  0  0  0  0  0  0  0  0  0  0
   24.8990   27.6830   49.8600 H   0  0  0  0  0  0  0  0  0  0  0  0
  1  6  1  0  0  0  0
  2  1  2  0  0  0  0
  2  3  1  0  0  0  0
  3  4  2  0  0  0  0
  4  5  1  0  0  0  0
  5 12  1  0  0  0  0
  6  5  2  0  0  0  0
  7  3  1  0  0  0  0
  7 11  1  0  0  0  0
  8  9  2  0  0  0  0
  8  7  1  0  0  0  0
  9 10  1  0  0  0  0
 10 22  1  0  0  0  0
 10 11  2  0  0  0  0
 12 21  2  0  0  0  0
 12 13  1  0  0  0  0
 13 14  2  0  0  0  0
 14 15  1  0  0  0  0
 16 17  1  0  0  0  0
 16 15  2  0  0  0  0
 18 17  2  0  0  0  0
 19 18  1  0  0  0  0
 20 19  2  0  0  0  0
 20 21  1  0  0  0  0
 21 16  1  0  0  0  0
 22 26  1  0  0  0  0
 23 22  2  0  0  0  0
 23 24  1  0  0  0  0
 24 25  1  0  0  0  0
 25 27  1  0  0  0  0
 26 25  2  0  0  0  0
 27 29  1  0  0  0  0
 27 28  2  0  0  0  0
 29 30  1  0  0  0  0
M  END
>  <minimizedAffinity>
-8.31225967

$$$$

 OpenBabel03272514343D

 30 34  0  0  0  0  0  0  0  0999 V2000
   34.6390   29.6840   44.1060 C   0  0  0  0  0  3  0  0  0  0  0  0
   33.2590   29.5580   44.2460 C   0  0  0  0  0  3  0  0  0  0  0  0
   32.7820   29.7020   45.5430 C   0  0  0  0  0  0  0  0  0  0  0  0
   33.6530   29.9380   46.5050 N   0  0  0  0  0  0  0  0  0  0  0  0
   34.9690   30.0590   46.3890 C   0  0  0  0  0  0  0  0  0  0  0  0
   35.4080   29.9230   45.1640 N   0  0  0  0  0  0  0  0  0  0  0  0
   31.3980   29.6000   45.8420 N   0  0  0  0  0  0  0  0  0  0  0  0
   30.4020   30.3040   45.2850 C   0  0  0  0  0  3  0  0  0  0  0  0
   29.2360   29.9560   45.7960 N   0  0  0  0  0  0  0  0  0  0  0  0
   29.4900   29.0020   46.7100 C   0  0  0  0  0  0  0  0  0  0  0  0
   30.8190   28.8040   46.7170 N   0  0  0  0  0  0  0  0  0  0  0  0
   36.0160   30.3160   47.3610 C   0  0  0  0  0  0  0  0  0  0  0  0
   37.2100   30.9180   46.9860 C   0  0  0  0  0  3  0  0  0  0  0  0
   38.2400   31.1870   47.8660 C   0  0  0  0  0  3  0  0  0  0  0  0
   38.1150   30.8520   49.2060 C   0  0  0  0  0  3  0  0  0  0  0  0
   36.9600   30.2610   49.6080 C   0  0  0  0  0  0  0  0  0  0  0  0
   36.8160   29.9200   50.9390 C   0  0  0  0  0  3  0  0  0  0  0  0
   35.7010   29.3270   51.4340 C   0  0  0  0  0  3  0  0  0  0  0  0
   34.6700   29.0630   50.5320 C   0  0  0  0  0  3  0  0  0  0  0  0
   34.8440   29.4160   49.2100 C   0  0  0  0  0  3  0  0  0  0  0  0
   35.9490   30.0060   48.7040 C   0  0  0  0  0  0  0  0  0  0  0  0
   28.6470   28.2150   47.6130 C   0  0  0  0  0  0  0  0  0  0  0  0
   27.7360   27.2360   47.4520 N   0  0  0  0  0  0  0  0  0  0  0  0
   27.2730   26.8780   48.6090 O   0  0  0  0  0  0  0  0  0  0  0  0
   27.8710   27.6140   49.5480 C   0  0  0  0  0  0  0  0  0  0  0  0
   28.7350   28.4590   48.9540 N   0  0  0  0  0  0  0  0  0  0  0  0
   27.6570   27.5520   50.9900 C   0  0  0  0  0  0  0  0  0  0  0  0
   26.5020   27.7400   51.5030 O   0  0  0  0  0  0  0  0  0  0  0  0
   28.7030   27.2860   51.8640 O   0  0  0  0  0  0  0  0  0  0  0  0
   28.5350   27.2490   52.8390 H   0  0  0  0  0  0  0  0  0  0  0  0
  1  2  2  0  0  0  0
  1  6  1  0  0  0  0
  2  3  1  0  0  0  0
  3  7  1  0  0  0  0
  3  4  2  0  0  0  0
  5  4  1  0  0  0  0
  5 12  1  0  0  0  0
  6  5  2  0  0  0  0
  7 11  1  0  0  0  0
  8  9  2  0  0  0  0
  8  7  1  0  0  0  0
  9 10  1  0  0  0  0
 10 11  2  0  0  0  0
 10 22  1  0  0  0  0
 12 21  1  0  0  0  0
 13 12  2  0  0  0  0
 13 14  1  0  0  0  0
 14 15  2  0  0  0  0
 15 16  1  0  0  0  0
 16 17  1  0  0  0  0
 17 18  2  0  0  0  0
 19 18  1  0  0  0  0
 20 19  2  0  0  0  0
 21 20  1  0  0  0  0
 21 16  2  0  0  0  0
 22 26  1  0  0  0  0
 23 22  2  0  0  0  0
 23 24  1  0  0  0  0
 24 25  1  0  0  0  0
 25 27  1  0  0  0  0
 26 25  2  0  0  0  0
 27 28  2  0  0  0  0
 27 29  1  0  0  0  0
 29 30  1  0  0  0  0
M  END
>  <minimizedAffinity>
-8.25303841

$$$$

 OpenBabel03272514343D

 30 34  0  0  0  0  0  0  0  0999 V2000
   32.6200   25.9700   47.5410 C   0  0  0  0  0  3  0  0  0  0  0  0
   31.3930   26.4320   47.0700 C   0  0  0  0  0  3  0  0  0  0  0  0
   31.2110   27.8070   47.1480 C   0  0  0  0  0  0  0  0  0  0  0  0
   32.1880   28.5380   47.6490 N   0  0  0  0  0  0  0  0  0  0  0  0
   33.3600   28.1140   48.1030 C   0  0  0  0  0  0  0  0  0  0  0  0
   33.5230   26.8180   48.0240 N   0  0  0  0  0  0  0  0  0  0  0  0
   30.0110   28.4240   46.7070 N   0  0  0  0  0  0  0  0  0  0  0  0
   29.4500   28.3120   45.4930 C   0  0  0  0  0  3  0  0  0  0  0  0
   28.3380   29.0200   45.4220 N   0  0  0  0  0  0  0  0  0  0  0  0
   28.1800   29.6040   46.6240 C   0  0  0  0  0  0  0  0  0  0  0  0
   29.2170   29.2230   47.3890 N   0  0  0  0  0  0  0  0  0  0  0  0
   34.5000   28.8140   48.6690 C   0  0  0  0  0  0  0  0  0  0  0  0
   34.7540   28.7820   50.0340 C   0  0  0  0  0  3  0  0  0  0  0  0
   35.8210   29.4270   50.6270 C   0  0  0  0  0  3  0  0  0  0  0  0
   36.7090   30.1580   49.8530 C   0  0  0  0  0  3  0  0  0  0  0  0
   36.4910   30.2110   48.5140 C   0  0  0  0  0  0  0  0  0  0  0  0
   37.3660   30.9340   47.7260 C   0  0  0  0  0  3  0  0  0  0  0  0
   37.2300   31.0450   46.3810 C   0  0  0  0  0  3  0  0  0  0  0  0
   36.1470   30.3870   45.7970 C   0  0  0  0  0  3  0  0  0  0  0  0
   35.2920   29.6730   46.6110 C   0  0  0  0  0  3  0  0  0  0  0  0
   35.4150   29.5550   47.9510 C   0  0  0  0  0  0  0  0  0  0  0  0
   27.1680   30.4990   47.1890 C   0  0  0  0  0  0  0  0  0  0  0  0
   26.3410   30.4490   48.2510 N   0  0  0  0  0  0  0  0  0  0  0  0
   25.6300   31.5330   48.3010 O   0  0  0  0  0  0  0  0  0  0  0  0
   25.9780   32.3110   47.2750 C   0  0  0  0  0  0  0  0  0  0  0  0
   26.9380   31.6900   46.5620 N   0  0  0  0  0  0  0  0  0  0  0  0
   25.4380   33.6240   46.9370 C   0  0  0  0  0  0  0  0  0  0  0  0
   24.8580   33.8410   45.8190 O   0  0  0  0  0  0  0  0  0  0  0  0
   25.5330   34.6930   47.8180 O   0  0  0  0  0  0  0  0  0  0  0  0
   25.1600   35.5750   47.5690 H   0  0  0  0  0  0  0  0  0  0  0  0
  1  6  1  0  0  0  0
  2  3  1  0  0  0  0
  2  1  2  0  0  0  0
  3  4  2  0  0  0  0
  4  5  1  0  0  0  0
  5 12  1  0  0  0  0
  6  5  2  0  0  0  0
  7  3  1  0  0  0  0
  7 11  1  0  0  0  0
  8  7  1  0  0  0  0
  9  8  2  0  0  0  0
  9 10  1  0  0  0  0
 10 22  1  0  0  0  0
 10 11  2  0  0  0  0
 12 13  1  0  0  0  0
 13 14  2  0  0  0  0
 15 14  1  0  0  0  0
 16 15  2  0  0  0  0
 17 16  1  0  0  0  0
 18 17  2  0  0  0  0
 19 18  1  0  0  0  0
 19 20  2  0  0  0  0
 20 21  1  0  0  0  0
 21 16  1  0  0  0  0
 21 12  2  0  0  0  0
 22 23  2  0  0  0  0
 23 24  1  0  0  0  0
 25 24  1  0  0  0  0
 26 22  1  0  0  0  0
 26 25  2  0  0  0  0
 27 25  1  0  0  0  0
 27 29  1  0  0  0  0
 28 27  2  0  0  0  0
 30 29  1  0  0  0  0
M  END
>  <minimizedAffinity>
-7.83920956

$$$$

 OpenBabel03272514343D

 30 34  0  0  0  0  0  0  0  0999 V2000
   32.6200   27.5620   48.2440 C   0  0  0  0  0  3  0  0  0  0  0  0
   32.1430   28.0930   47.0490 C   0  0  0  0  0  3  0  0  0  0  0  0
   32.8230   29.2130   46.5870 C   0  0  0  0  0  0  0  0  0  0  0  0
   33.8370   29.6650   47.3010 N   0  0  0  0  0  0  0  0  0  0  0  0
   34.3030   29.1710   48.4400 C   0  0  0  0  0  0  0  0  0  0  0  0
   33.6560   28.1170   48.8660 N   0  0  0  0  0  0  0  0  0  0  0  0
   32.4510   29.8640   45.3820 N   0  0  0  0  0  0  0  0  0  0  0  0
   32.3350   29.3040   44.1680 C   0  0  0  0  0  3  0  0  0  0  0  0
   31.9710   30.2000   43.2700 N   0  0  0  0  0  0  0  0  0  0  0  0
   31.8520   31.3700   43.9230 C   0  0  0  0  0  0  0  0  0  0  0  0
   32.1520   31.1360   45.2120 N   0  0  0  0  0  0  0  0  0  0  0  0
   35.3970   29.5760   49.3050 C   0  0  0  0  0  0  0  0  0  0  0  0
   35.4120   29.2310   50.6500 C   0  0  0  0  0  3  0  0  0  0  0  0
   36.4240   29.5870   51.5190 C   0  0  0  0  0  3  0  0  0  0  0  0
   37.5010   30.3320   51.0630 C   0  0  0  0  0  3  0  0  0  0  0  0
   37.5190   30.6870   49.7530 C   0  0  0  0  0  0  0  0  0  0  0  0
   38.5850   31.4290   49.2800 C   0  0  0  0  0  3  0  0  0  0  0  0
   38.6900   31.8310   47.9890 C   0  0  0  0  0  3  0  0  0  0  0  0
   37.6600   31.4620   47.1240 C   0  0  0  0  0  3  0  0  0  0  0  0
   36.6100   30.7210   47.6270 C   0  0  0  0  0  3  0  0  0  0  0  0
   36.4920   30.3150   48.9090 C   0  0  0  0  0  0  0  0  0  0  0  0
   31.4860   32.7270   43.5120 C   0  0  0  0  0  0  0  0  0  0  0  0
   32.0500   33.9440   43.6410 N   0  0  0  0  0  0  0  0  0  0  0  0
   31.2930   34.8350   43.0810 O   0  0  0  0  0  0  0  0  0  0  0  0
   30.2220   34.2210   42.5750 C   0  0  0  0  0  0  0  0  0  0  0  0
   30.3160   32.9010   42.8300 N   0  0  0  0  0  0  0  0  0  0  0  0
   29.1070   34.8310   41.8580 C   0  0  0  0  0  0  0  0  0  0  0  0
   29.1990   35.1470   40.6230 O   0  0  0  0  0  0  0  0  0  0  0  0
   27.9000   35.0950   42.4910 O   0  0  0  0  0  0  0  0  0  0  0  0
   27.1570   35.5110   41.9850 H   0  0  0  0  0  0  0  0  0  0  0  0
  1  6  1  0  0  0  0
  2  1  2  0  0  0  0
  3  2  1  0  0  0  0
  3  4  2  0  0  0  0
  4  5  1  0  0  0  0
  5  6  2  0  0  0  0
  5 12  1  0  0  0  0
  7  3  1  0  0  0  0
  8  7  1  0  0  0  0
  9 10  1  0  0  0  0
  9  8  2  0  0  0  0
 10 11  2  0  0  0  0
 11  7  1  0  0  0  0
 12 13  1  0  0  0  0
 13 14  2  0  0  0  0
 15 14  1  0  0  0  0
 16 15  2  0  0  0  0
 17 16  1  0  0  0  0
 18 17  2  0  0  0  0
 19 20  2  0  0  0  0
 19 18  1  0  0  0  0
 20 21  1  0  0  0  0
 21 12  2  0  0  0  0
 21 16  1  0  0  0  0
 22 23  2  0  0  0  0
 22 10  1  0  0  0  0
 24 23  1  0  0  0  0
 25 26  2  0  0  0  0
 25 24  1  0  0  0  0
 26 22  1  0  0  0  0
 27 29  1  0  0  0  0
 27 25  1  0  0  0  0
 28 27  2  0  0  0  0
 30 29  1  0  0  0  0
M  END
>  <minimizedAffinity>
-7.71512794

$$$$

 OpenBabel03272514343D

 30 34  0  0  0  0  0  0  0  0999 V2000
   28.9120   29.8470   45.0040 C   0  0  0  0  0  3  0  0  0  0  0  0
   30.2690   29.5460   45.0810 C   0  0  0  0  0  3  0  0  0  0  0  0
   30.6900   29.0230   46.2970 C   0  0  0  0  0  0  0  0  0  0  0  0
   29.7920   28.8610   47.2500 N   0  0  0  0  0  0  0  0  0  0  0  0
   28.4970   29.1430   47.1930 C   0  0  0  0  0  0  0  0  0  0  0  0
   28.1110   29.6340   46.0440 N   0  0  0  0  0  0  0  0  0  0  0  0
   32.0450   28.6680   46.5250 N   0  0  0  0  0  0  0  0  0  0  0  0
   32.7920   27.8320   45.7870 C   0  0  0  0  0  3  0  0  0  0  0  0
   34.0110   27.7290   46.2830 N   0  0  0  0  0  0  0  0  0  0  0  0
   34.0490   28.5190   47.3710 C   0  0  0  0  0  0  0  0  0  0  0  0
   32.8340   29.0810   47.4960 N   0  0  0  0  0  0  0  0  0  0  0  0
   27.4240   29.0100   48.1630 C   0  0  0  0  0  0  0  0  0  0  0  0
   26.1760   29.5720   47.9320 C   0  0  0  0  0  3  0  0  0  0  0  0
   25.1200   29.4770   48.8170 C   0  0  0  0  0  3  0  0  0  0  0  0
   25.2740   28.7930   50.0130 C   0  0  0  0  0  3  0  0  0  0  0  0
   26.4830   28.2310   50.2720 C   0  0  0  0  0  0  0  0  0  0  0  0
   26.6560   27.5450   51.4590 C   0  0  0  0  0  3  0  0  0  0  0  0
   27.8260   26.9510   51.8050 C   0  0  0  0  0  3  0  0  0  0  0  0
   28.8820   27.0550   50.9000 C   0  0  0  0  0  3  0  0  0  0  0  0
   28.6770   27.7470   49.7240 C   0  0  0  0  0  3  0  0  0  0  0  0
   27.5190   28.3430   49.3670 C   0  0  0  0  0  0  0  0  0  0  0  0
   35.0870   28.8430   48.3520 C   0  0  0  0  0  0  0  0  0  0  0  0
   35.3720   28.4360   49.6040 N   0  0  0  0  0  0  0  0  0  0  0  0
   36.4300   29.0530   50.0320 O   0  0  0  0  0  0  0  0  0  0  0  0
   36.8570   29.8720   49.0690 C   0  0  0  0  0  0  0  0  0  0  0  0
   36.0360   29.7620   48.0070 N   0  0  0  0  0  0  0  0  0  0  0  0
   38.0140   30.7610   49.1120 C   0  0  0  0  0  0  0  0  0  0  0  0
   38.3630   31.4530   48.0970 O   0  0  0  0  0  0  0  0  0  0  0  0
   38.7830   30.8890   50.2610 O   0  0  0  0  0  0  0  0  0  0  0  0
   39.5650   31.4970   50.2680 H   0  0  0  0  0  0  0  0  0  0  0  0
  1  2  2  0  0  0  0
  1  6  1  0  0  0  0
  2  3  1  0  0  0  0
  3  7  1  0  0  0  0
  3  4  2  0  0  0  0
  5  4  1  0  0  0  0
  5 12  1  0  0  0  0
  6  5  2  0  0  0  0
  7 11  1  0  0  0  0
  8  9  2  0  0  0  0
  8  7  1  0  0  0  0
  9 10  1  0  0  0  0
 10 11  2  0  0  0  0
 10 22  1  0  0  0  0
 12 21  1  0  0  0  0
 13 12  2  0  0  0  0
 13 14  1  0  0  0  0
 14 15  2  0  0  0  0
 15 16  1  0  0  0  0
 16 17  1  0  0  0  0
 17 18  2  0  0  0  0
 19 18  1  0  0  0  0
 20 19  2  0  0  0  0
 21 20  1  0  0  0  0
 21 16  2  0  0  0  0
 22 23  2  0  0  0  0
 23 24  1  0  0  0  0
 25 27  1  0  0  0  0
 25 24  1  0  0  0  0
 26 22  1  0  0  0  0
 26 25  2  0  0  0  0
 27 29  1  0  0  0  0
 28 27  2  0  0  0  0
 29 30  1  0  0  0  0
M  END
>  <minimizedAffinity>
-7.70420408

$$$$

 OpenBabel03272514343D

 30 34  0  0  0  0  0  0  0  0999 V2000
   31.7710   26.5950   48.1880 C   0  0  0  0  0  3  0  0  0  0  0  0
   30.5610   26.9530   47.5990 C   0  0  0  0  0  3  0  0  0  0  0  0
   30.5760   28.1560   46.9030 C   0  0  0  0  0  0  0  0  0  0  0  0
   31.7050   28.8370   46.8610 N   0  0  0  0  0  0  0  0  0  0  0  0
   32.8640   28.5110   47.4160 C   0  0  0  0  0  0  0  0  0  0  0  0
   32.8400   27.3770   48.0680 N   0  0  0  0  0  0  0  0  0  0  0  0
   29.4170   28.6510   46.2510 N   0  0  0  0  0  0  0  0  0  0  0  0
   28.6740   28.0110   45.3370 C   0  0  0  0  0  3  0  0  0  0  0  0
   27.6670   28.7650   44.9360 N   0  0  0  0  0  0  0  0  0  0  0  0
   27.7670   29.9240   45.6110 C   0  0  0  0  0  0  0  0  0  0  0  0
   28.8460   29.8280   46.4070 N   0  0  0  0  0  0  0  0  0  0  0  0
   34.1580   29.1710   47.4380 C   0  0  0  0  0  0  0  0  0  0  0  0
   34.7400   29.6440   46.2690 C   0  0  0  0  0  3  0  0  0  0  0  0
   35.9660   30.2790   46.2290 C   0  0  0  0  0  3  0  0  0  0  0  0
   36.6870   30.4730   47.3970 C   0  0  0  0  0  3  0  0  0  0  0  0
   36.1470   30.0220   48.5590 C   0  0  0  0  0  0  0  0  0  0  0  0
   36.8510   30.2060   49.7340 C   0  0  0  0  0  3  0  0  0  0  0  0
   36.3950   29.7910   50.9420 C   0  0  0  0  0  3  0  0  0  0  0  0
   35.1550   29.1520   50.9650 C   0  0  0  0  0  3  0  0  0  0  0  0
   34.4770   28.9840   49.7750 C   0  0  0  0  0  3  0  0  0  0  0  0
   34.9200   29.3920   48.5660 C   0  0  0  0  0  0  0  0  0  0  0  0
   26.9780   31.1580   45.6270 C   0  0  0  0  0  0  0  0  0  0  0  0
   26.4420   31.9310   46.5910 N   0  0  0  0  0  0  0  0  0  0  0  0
   25.8240   32.9350   46.0500 O   0  0  0  0  0  0  0  0  0  0  0  0
   25.9440   32.8380   44.7240 C   0  0  0  0  0  0  0  0  0  0  0  0
   26.6600   31.7360   44.4310 N   0  0  0  0  0  0  0  0  0  0  0  0
   25.4050   33.7480   43.7180 C   0  0  0  0  0  0  0  0  0  0  0  0
   24.5440   33.3590   42.8580 O   0  0  0  0  0  0  0  0  0  0  0  0
   25.8080   35.0750   43.6550 O   0  0  0  0  0  0  0  0  0  0  0  0
   25.4290   35.6740   42.9640 H   0  0  0  0  0  0  0  0  0  0  0  0
  2  1  2  0  0  0  0
  3  2  1  0  0  0  0
  4  3  2  0  0  0  0
  4  5  1  0  0  0  0
  5 12  1  0  0  0  0
  5  6  2  0  0  0  0
  6  1  1  0  0  0  0
  7 11  1  0  0  0  0
  7  3  1  0  0  0  0
  8  7  1  0  0  0  0
  9  8  2  0  0  0  0
  9 10  1  0  0  0  0
 10 22  1  0  0  0  0
 10 11  2  0  0  0  0
 12 21  1  0  0  0  0
 13 12  2  0  0  0  0
 14 13  1  0  0  0  0
 14 15  2  0  0  0  0
 15 16  1  0  0  0  0
 16 21  2  0  0  0  0
 16 17  1  0  0  0  0
 17 18  2  0  0  0  0
 18 19  1  0  0  0  0
 20 19  2  0  0  0  0
 21 20  1  0  0  0  0
 22 23  2  0  0  0  0
 24 23  1  0  0  0  0
 25 24  1  0  0  0  0
 26 25  2  0  0  0  0
 26 22  1  0  0  0  0
 27 25  1  0  0  0  0
 28 27  2  0  0  0  0
 29 27  1  0  0  0  0
 30 29  1  0  0  0  0
M  END
>  <minimizedAffinity>
-7.65601397

$$$$

 OpenBabel03272514343D

 30 34  0  0  0  0  0  0  0  0999 V2000
   34.5520   29.7500   43.5080 C   0  0  0  0  0  3  0  0  0  0  0  0
   33.1620   29.8220   43.5540 C   0  0  0  0  0  3  0  0  0  0  0  0
   32.6230   30.0430   44.8160 C   0  0  0  0  0  0  0  0  0  0  0  0
   33.4520   30.1610   45.8350 N   0  0  0  0  0  0  0  0  0  0  0  0
   34.7770   30.0940   45.8080 C   0  0  0  0  0  0  0  0  0  0  0  0
   35.2740   29.8870   44.6170 N   0  0  0  0  0  0  0  0  0  0  0  0
   31.2220   30.1390   45.0190 N   0  0  0  0  0  0  0  0  0  0  0  0
   30.3750   30.9730   44.3970 C   0  0  0  0  0  3  0  0  0  0  0  0
   29.1400   30.7970   44.8280 N   0  0  0  0  0  0  0  0  0  0  0  0
   29.1940   29.8240   45.7550 C   0  0  0  0  0  0  0  0  0  0  0  0
   30.4790   29.4400   45.8520 N   0  0  0  0  0  0  0  0  0  0  0  0
   35.7820   30.2090   46.8510 C   0  0  0  0  0  0  0  0  0  0  0  0
   37.0560   30.6850   46.5680 C   0  0  0  0  0  3  0  0  0  0  0  0
   38.0500   30.8160   47.5170 C   0  0  0  0  0  3  0  0  0  0  0  0
   37.8050   30.4620   48.8350 C   0  0  0  0  0  3  0  0  0  0  0  0
   36.5700   29.9920   49.1470 C   0  0  0  0  0  0  0  0  0  0  0  0
   36.3060   29.6340   50.4550 C   0  0  0  0  0  3  0  0  0  0  0  0
   35.1030   29.1550   50.8630 C   0  0  0  0  0  3  0  0  0  0  0  0
   34.1100   29.0300   49.8920 C   0  0  0  0  0  3  0  0  0  0  0  0
   34.4050   29.3960   48.5950 C   0  0  0  0  0  3  0  0  0  0  0  0
   35.5960   29.8730   48.1760 C   0  0  0  0  0  0  0  0  0  0  0  0
   28.1900   29.1720   46.5980 C   0  0  0  0  0  0  0  0  0  0  0  0
   27.1150   28.3940   46.3670 N   0  0  0  0  0  0  0  0  0  0  0  0
   26.5560   28.0770   47.4930 O   0  0  0  0  0  0  0  0  0  0  0  0
   27.2540   28.6400   48.4820 C   0  0  0  0  0  0  0  0  0  0  0  0
   28.2810   29.3310   47.9510 N   0  0  0  0  0  0  0  0  0  0  0  0
   26.9880   28.5530   49.9140 C   0  0  0  0  0  0  0  0  0  0  0  0
   27.8080   29.0180   50.7760 O   0  0  0  0  0  0  0  0  0  0  0  0
   25.8310   27.9580   50.3990 O   0  0  0  0  0  0  0  0  0  0  0  0
   25.6700   27.9100   51.3750 H   0  0  0  0  0  0  0  0  0  0  0  0
  1  2  2  0  0  0  0
  1  6  1  0  0  0  0
  2  3  1  0  0  0  0
  3  7  1  0  0  0  0
  3  4  2  0  0  0  0
  5  4  1  0  0  0  0
  5 12  1  0  0  0  0
  6  5  2  0  0  0  0
  7 11  1  0  0  0  0
  8  9  2  0  0  0  0
  8  7  1  0  0  0  0
  9 10  1  0  0  0  0
 10 11  2  0  0  0  0
 10 22  1  0  0  0  0
 12 21  1  0  0  0  0
 13 12  2  0  0  0  0
 13 14  1  0  0  0  0
 14 15  2  0  0  0  0
 15 16  1  0  0  0  0
 16 17  1  0  0  0  0
 17 18  2  0  0  0  0
 19 18  1  0  0  0  0
 20 19  2  0  0  0  0
 21 20  1  0  0  0  0
 21 16  2  0  0  0  0
 22 26  1  0  0  0  0
 23 22  2  0  0  0  0
 23 24  1  0  0  0  0
 24 25  1  0  0  0  0
 25 27  1  0  0  0  0
 26 25  2  0  0  0  0
 27 29  1  0  0  0  0
 27 28  2  0  0  0  0
 29 30  1  0  0  0  0
M  END
>  <minimizedAffinity>
-7.56439066

$$$$
