
 OpenBabel03262521013D

 31 32  0  0  1  0  0  0  0  0999 V2000
   39.7170   32.9110   46.3120 N   0  0  0  0  0  0  0  0  0  0  0  0
   38.3980   32.3740   46.1900 C   0  0  1  0  0  0  0  0  0  0  0  0
   37.9660   32.4100   44.7430 C   0  0  0  0  0  0  0  0  0  0  0  0
   38.9290   31.6310   43.9820 N   0  0  0  0  0  0  0  0  0  0  0  0
   40.1800   32.3920   44.0140 C   0  0  0  0  0  0  0  0  0  0  0  0
   40.6730   32.3120   45.4370 C   0  0  2  0  0  0  0  0  0  0  0  0
   40.0420   33.0910   47.2630 H   0  0  0  0  0  0  0  0  0  0  0  0
   37.7060   32.9600   46.8170 H   0  0  0  0  0  0  0  0  0  0  0  0
   36.9570   31.9440   44.6260 H   0  0  0  0  0  0  0  0  0  0  0  0
   38.0200   33.4480   44.3970 H   0  0  0  0  0  0  0  0  0  0  0  0
   39.0240   30.6610   44.2870 H   0  0  0  0  0  0  0  0  0  0  0  0
   39.9400   33.4360   43.8000 H   0  0  0  0  0  0  0  0  0  0  0  0
   40.9250   31.9730   43.3040 H   0  0  0  0  0  0  0  0  0  0  0  0
   41.6050   32.9320   45.4790 H   0  0  0  0  0  0  0  0  0  0  0  0
   40.9850   30.9790   45.7520 N   0  0  0  0  0  0  0  0  0  0  0  0
   41.2960   30.7720   46.7050 H   0  0  0  0  0  0  0  0  0  0  0  0
   40.8600   30.2530   45.0750 H   0  0  0  0  0  0  0  0  0  0  0  0
   38.3330   30.6100   46.6900 S   0  0  0  0  0  0  0  0  0  0  0  0
   37.6230   30.7790   50.6700 C   0  0  0  0  0  0  0  0  0  0  0  0
   38.2480   30.9400   49.4520 C   0  0  0  0  0  0  0  0  0  0  0  0
   37.6360   30.4660   48.3140 C   0  0  0  0  0  0  0  0  0  0  0  0
   36.4060   29.8430   48.4380 N   0  0  0  0  0  0  0  0  0  0  0  0
   35.8550   29.7180   49.6430 C   0  0  0  0  0  0  0  0  0  0  0  0
   36.4400   30.1740   50.7600 N   0  0  0  0  0  0  0  0  0  0  0  0
   38.0750   31.1380   51.5800 H   0  0  0  0  0  0  0  0  0  0  0  0
   39.1940   31.4220   49.3790 H   0  0  0  0  0  0  0  0  0  0  0  0
   34.5530   29.0570   49.7610 C   0  0  0  0  0  0  0  0  0  0  0  0
   34.3490   27.8930   49.3140 O   0  0  0  0  0  0  0  0  0  0  0  0
   33.4910   29.7740   50.4120 N   0  0  0  0  0  0  0  0  0  0  0  0
   33.6850   30.1050   51.4000 H   0  0  0  0  0  0  0  0  0  0  0  0
   32.6030   29.9100   49.8440 H   0  0  0  0  0  0  0  0  0  0  0  0
  1  7  1  0  0  0  0
  2  1  1  0  0  0  0
  2 18  1  0  0  0  0
  2  8  1  1  0  0  0
  3  2  1  0  0  0  0
  4  5  1  0  0  0  0
  4 11  1  0  0  0  0
  4  3  1  0  0  0  0
  5  6  1  0  0  0  0
  6 14  1  1  0  0  0
  6 15  1  0  0  0  0
  6  1  1  0  0  0  0
  9  3  1  0  0  0  0
 10  3  1  0  0  0  0
 12  5  1  0  0  0  0
 13  5  1  0  0  0  0
 15 16  1  0  0  0  0
 17 15  1  0  0  0  0
 18 21  1  0  0  0  0
 19 24  1  0  0  0  0
 19 25  1  0  0  0  0
 20 19  2  0  0  0  0
 21 22  2  0  0  0  0
 21 20  1  0  0  0  0
 22 23  1  0  0  0  0
 23 27  1  0  0  0  0
 23 24  2  0  0  0  0
 26 20  1  0  0  0  0
 27 29  1  0  0  0  0
 28 27  2  0  0  0  0
 29 30  1  0  0  0  0
 31 29  1  0  0  0  0
M  END
>  <minimizedAffinity>
-5.69356918

>  <minimizedRMSD>
0.380031675

$$$$
