REMARK  Name = 
REMARK  4 active torsions:
REMARK  status: ('A' for Active; 'I' for Inactive)
REMARK    1  A    between atoms: C_2  and  S_8
REMARK    2  A    between atoms: C_6  and  N_7
REMARK    3  A    between atoms: S_8  and  C_11
REMARK    4  A    between atoms: C_13  and  C_15
REMARK                            x       y       z     vdW  Elec       q    Type
REMARK                         _______ _______ _______ _____ _____    ______ ____
ROOT
ATOM      1  N   UNL     1      39.594  32.868  46.288  0.00  0.00    +0.000 NA
ATOM      2  C   UNL     1      38.272  32.366  46.080  0.00  0.00    +0.000 C 
ATOM      3  C   UNL     1      37.937  32.410  44.608  0.00  0.00    +0.000 C 
ATOM      4  N   UNL     1      38.926  31.604  43.912  0.00  0.00    +0.000 NA
ATOM      5  C   UNL     1      40.192  32.332  44.025  0.00  0.00    +0.000 C 
ATOM      6  C   UNL     1      40.589  32.242  45.477  0.00  0.00    +0.000 C 
ATOM      7  H   UNL     1      39.861  33.041  47.258  0.00  0.00    +0.000 HD
ATOM      8  H   UNL     1      37.556  32.971  46.660  0.00  0.00    +0.000 HD
ATOM      9  H   UNL     1      36.925  31.971  44.425  0.00  0.00    +0.000 HD
ATOM     10  H   UNL     1      38.041  33.446  44.266  0.00  0.00    +0.000 HD
ATOM     11  H   UNL     1      38.976  30.633  44.222  0.00  0.00    +0.000 HD
ATOM     12  H   UNL     1      39.994  33.382  43.796  0.00  0.00    +0.000 HD
ATOM     13  H   UNL     1      40.971  31.892  43.366  0.00  0.00    +0.000 HD
ATOM     14  H   UNL     1      41.532  32.837  45.580  0.00  0.00    +0.000 HD
ENDROOT
BRANCH   6  15
ATOM     15  N   UNL     1      40.844  30.902  45.812  0.00  0.00    +0.000 NA
ATOM     16  H   UNL     1      41.087  30.689  46.784  0.00  0.00    +0.000 HD
ATOM     17  H   UNL     1      40.745  30.178  45.129  0.00  0.00    +0.000 HD
ENDBRANCH   6  15
BRANCH   2  18
ATOM     18  S   UNL     1      38.128  30.605  46.575  0.00  0.00    +0.000 S 
BRANCH  18  21
ATOM     19  C   UNL     1      37.896  30.930  50.602  0.00  0.00    +0.000 A 
ATOM     20  C   UNL     1      38.351  31.076  49.309  0.00  0.00    +0.000 A 
ATOM     21  C   UNL     1      37.649  30.492  48.279  0.00  0.00    +0.000 A 
ATOM     22  N   UNL     1      36.504  29.777  48.584  0.00  0.00    +0.000 NA
ATOM     23  C   UNL     1      36.117  29.673  49.853  0.00  0.00    +0.000 A 
ATOM     24  N   UNL     1      36.791  30.236  50.866  0.00  0.00    +0.000 NA
ATOM     25  H   UNL     1      38.422  31.374  51.431  0.00  0.00    +0.000 HD
ATOM     26  H   UNL     1      39.235  31.630  49.096  0.00  0.00    +0.000 HD
BRANCH  23  27
ATOM     27  C   UNL     1      34.903  28.914  50.163  0.00  0.00    +0.000 C 
ATOM     28  O   UNL     1      34.515  27.948  49.447  0.00  0.00    +0.000 OA
ATOM     29  N   UNL     1      34.147  29.298  51.324  0.00  0.00    +0.000 N 
ATOM     30  H   UNL     1      34.274  28.695  52.187  0.00  0.00    +0.000 HD
ATOM     31  H   UNL     1      33.527  30.154  51.215  0.00  0.00    +0.000 HD
ENDBRANCH  23  27
ENDBRANCH  18  21
ENDBRANCH   2  18
TORSDOF 4
