
     RDKit          3D

 14 14  0  0  0  0  0  0  0  0999 V2000
   37.2567   30.1801   51.4067 C   0  0  0  0  0  0  0  0  0  0  0  0
   38.0929   30.7620   50.4467 C   0  0  0  0  0  0  0  0  0  0  0  0
   37.8080   30.4980   49.1096 C   0  0  0  0  0  0  0  0  0  0  0  0
   36.7518   29.7041   48.8325 N   0  0  0  0  0  0  0  0  0  0  0  0
   35.9630   29.1572   49.7875 C   0  0  0  0  0  0  0  0  0  0  0  0
   36.2238   29.4018   51.0879 N   0  0  0  0  0  0  0  0  0  0  0  0
   34.8243   28.3032   49.4791 C   0  0  0  0  0  0  0  0  0  0  0  0
   33.6295   28.7267   49.5691 O   0  0  0  0  0  0  0  0  0  0  0  0
   37.5044   30.4045   52.4387 H   0  0  0  0  0  0  0  0  0  0  0  0
   38.9372   31.3955   50.6375 H   0  0  0  0  0  0  0  0  0  0  0  0
   38.3485   30.8644   48.2448 H   0  0  0  0  0  0  0  0  0  0  0  0
   35.1561   26.9615   49.0703 N   0  0  0  0  0  0  0  0  0  0  0  0
   35.7327   26.1408   49.3966 H   0  0  0  0  0  0  0  0  0  0  0  0
   34.6927   26.6779   48.1608 H   0  0  0  0  0  0  0  0  0  0  0  0
  2  1  2  0
  3  2  1  0
  4  3  2  0
  4  5  1  0
  5  6  2  0
  6  1  1  0
  7  8  2  0
  7  5  1  0
  1  9  1  0
  2 10  1  0
  3 11  1  0
 12 13  1  0
 12 14  1  0
  7 12  1  0
M  ISO  5   9  14  10  14  11  14  13   5  14   5
M  END
>  <DihAtoms>  (1) 
7,6,11,12

>  <DihDeg>  (1) 
-53.129930337671574

$$$$
