
 OpenBabel03272508423D

 14 14  0  0  0  0  0  0  0  0999 V2000
   37.5800   30.2810   51.3230 C   0  0  0  0  0  0  0  0  0  0  0  0
   38.2330   30.9010   50.2510 C   0  0  0  0  0  0  0  0  0  0  0  0
   37.5880   30.8870   49.0180 C   0  0  0  0  0  0  0  0  0  0  0  0
   36.3850   30.2790   48.9400 N   0  0  0  0  0  0  0  0  0  0  0  0
   35.7810   29.6880   49.9980 C   0  0  0  0  0  0  0  0  0  0  0  0
   36.3910   29.6930   51.2000 N   0  0  0  0  0  0  0  0  0  0  0  0
   38.1070   30.3080   52.2700 H   0  0  0  0  0  0  0  0  0  0  0  0
   39.1870   31.3900   50.2840 H   0  0  0  0  0  0  0  0  0  0  0  0
   37.9490   31.3160   48.0900 H   0  0  0  0  0  0  0  0  0  0  0  0
   34.4820   29.0370   49.9040 C   0  0  0  0  0  0  0  0  0  0  0  0
   33.4760   29.4610   50.5540 O   0  0  0  0  0  0  0  0  0  0  0  0
   34.4300   27.8930   49.0300 N   0  0  0  0  0  0  0  0  0  0  0  0
   34.4940   27.6620   48.0030 H   0  0  0  0  0  0  0  0  0  0  0  0
   34.2850   26.9790   49.5490 H   0  0  0  0  0  0  0  0  0  0  0  0
  1  7  1  0  0  0  0
  2  8  1  0  0  0  0
  2  1  2  0  0  0  0
  3  2  1  0  0  0  0
  4  3  2  0  0  0  0
  4  5  1  0  0  0  0
  5  6  2  0  0  0  0
  6  1  1  0  0  0  0
  9  3  1  0  0  0  0
 10  5  1  0  0  0  0
 10 11  2  0  0  0  0
 12 14  1  0  0  0  0
 12 10  1  0  0  0  0
 13 12  1  0  0  0  0
M  END
>  <minimizedAffinity>
-3.27870274

>  <minimizedRMSD>
0.755043924

$$$$
