
 OpenBabel03272502453D

 33 35  0  0  0  0  0  0  0  0999 V2000
   37.8340   32.3930   49.3920 C   0  0  0  0  0  0  0  0  0  0  0  0
   38.6170   32.7340   48.2840 C   0  0  0  0  0  0  0  0  0  0  0  0
   38.2650   32.1480   47.0660 C   0  0  0  0  0  0  0  0  0  0  0  0
   37.2070   31.3020   47.0220 N   0  0  0  0  0  0  0  0  0  0  0  0
   36.4760   30.9970   48.1100 C   0  0  0  0  0  0  0  0  0  0  0  0
   36.8100   31.5570   49.2820 N   0  0  0  0  0  0  0  0  0  0  0  0
   38.0990   32.8440   50.3530 H   0  0  0  0  0  0  0  0  0  0  0  0
   39.4620   33.4140   48.3340 H   0  0  0  0  0  0  0  0  0  0  0  0
   39.0040   32.4230   45.8370 C   0  0  0  0  0  0  0  0  0  0  0  0
   40.3660   32.2580   45.6820 C   0  0  0  0  0  0  0  0  0  0  0  0
   40.7520   32.5940   44.4330 N   0  0  0  0  0  0  0  0  0  0  0  0
   39.6470   32.9740   43.7880 C   0  0  0  0  0  0  0  0  0  0  0  0
   38.6230   32.8660   44.6360 N   0  0  0  0  0  0  0  0  0  0  0  0
   38.1810   33.1570   41.8590 C   0  0  0  0  0  0  0  0  0  0  0  0
   37.3050   32.5470   42.4940 O   0  0  0  0  0  0  0  0  0  0  0  0
   39.4490   33.4280   42.4590 N   0  0  0  0  0  0  0  0  0  0  0  0
   41.1020   31.9080   46.4150 H   0  0  0  0  0  0  0  0  0  0  0  0
   41.6920   32.5900   43.9790 H   0  0  0  0  0  0  0  0  0  0  0  0
   38.0320   33.5180   40.8080 H   0  0  0  0  0  0  0  0  0  0  0  0
   40.2400   33.9320   42.0010 H   0  0  0  0  0  0  0  0  0  0  0  0
   36.5870   28.6690   49.9170 Cl  0  0  0  0  0  0  0  0  0  0  0  0
   35.3120   28.9530   48.7970 C   0  0  0  0  0  0  0  0  0  0  0  0
   35.3540   30.0800   47.9890 C   0  0  0  0  0  0  0  0  0  0  0  0
   34.3620   30.3430   47.0870 C   0  0  0  0  0  0  0  0  0  0  0  0
   33.2780   29.4920   46.9450 C   0  0  0  0  0  0  0  0  0  0  0  0
   33.2120   28.3640   47.7350 C   0  0  0  0  0  0  0  0  0  0  0  0
   31.8920   27.2150   47.6450 Cl  0  0  0  0  0  0  0  0  0  0  0  0
   34.2280   28.1350   48.6290 C   0  0  0  0  0  0  0  0  0  0  0  0
   34.4020   31.2170   46.4670 H   0  0  0  0  0  0  0  0  0  0  0  0
   32.4820   29.6870   46.2330 H   0  0  0  0  0  0  0  0  0  0  0  0
   34.1830   26.9710   49.4600 N   0  0  0  0  0  0  0  0  0  0  0  0
   34.9320   26.4040   49.9090 H   0  0  0  0  0  0  0  0  0  0  0  0
   33.1820   26.6550   49.6290 H   0  0  0  0  0  0  0  0  0  0  0  0
  1  7  1  0  0  0  0
  2  8  1  0  0  0  0
  2  1  2  0  0  0  0
  3  2  1  0  0  0  0
  4  3  2  0  0  0  0
  4  5  1  0  0  0  0
  5  6  2  0  0  0  0
  6  1  1  0  0  0  0
  9  3  1  0  0  0  0
 10  9  2  0  0  0  0
 10 17  1  0  0  0  0
 11 10  1  0  0  0  0
 12 11  1  0  0  0  0
 12 13  2  0  0  0  0
 13  9  1  0  0  0  0
 14 16  1  0  0  0  0
 14 15  2  0  0  0  0
 16 12  1  0  0  0  0
 18 11  1  0  0  0  0
 19 14  1  0  0  0  0
 20 16  1  0  0  0  0
 22 21  1  0  0  0  0
 23  5  1  0  0  0  0
 23 22  2  0  0  0  0
 24 23  1  0  0  0  0
 25 24  2  0  0  0  0
 25 26  1  0  0  0  0
 26 28  2  0  0  0  0
 27 26  1  0  0  0  0
 28 22  1  0  0  0  0
 28 31  1  0  0  0  0
 29 24  1  0  0  0  0
 30 25  1  0  0  0  0
 31 33  1  0  0  0  0
 31 32  1  0  0  0  0
M  END
>  <minimizedAffinity>
-5.28054047

>  <minimizedRMSD>
0.478912264

$$$$
