
 OpenBabel03272502453D

 33 35  0  0  0  0  0  0  0  0999 V2000
   37.8620   32.3990   49.3820 C   0  0  0  0  0  0  0  0  0  0  0  0
   38.6400   32.7390   48.2700 C   0  0  0  0  0  0  0  0  0  0  0  0
   38.2800   32.1540   47.0540 C   0  0  0  0  0  0  0  0  0  0  0  0
   37.2220   31.3080   47.0160 N   0  0  0  0  0  0  0  0  0  0  0  0
   36.4960   31.0040   48.1070 C   0  0  0  0  0  0  0  0  0  0  0  0
   36.8370   31.5640   49.2780 N   0  0  0  0  0  0  0  0  0  0  0  0
   38.1320   32.8490   50.3420 H   0  0  0  0  0  0  0  0  0  0  0  0
   39.4850   33.4180   48.3150 H   0  0  0  0  0  0  0  0  0  0  0  0
   39.0130   32.4270   45.8210 C   0  0  0  0  0  0  0  0  0  0  0  0
   40.3740   32.2610   45.6590 C   0  0  0  0  0  0  0  0  0  0  0  0
   40.7550   32.5970   44.4080 N   0  0  0  0  0  0  0  0  0  0  0  0
   39.6460   32.9780   43.7680 C   0  0  0  0  0  0  0  0  0  0  0  0
   38.6260   32.8710   44.6220 N   0  0  0  0  0  0  0  0  0  0  0  0
   38.1700   33.1620   41.8470 C   0  0  0  0  0  0  0  0  0  0  0  0
   37.2970   32.5530   42.4870 O   0  0  0  0  0  0  0  0  0  0  0  0
   39.4410   33.4320   42.4410 N   0  0  0  0  0  0  0  0  0  0  0  0
   41.1140   31.9110   46.3880 H   0  0  0  0  0  0  0  0  0  0  0  0
   41.6920   32.5920   43.9490 H   0  0  0  0  0  0  0  0  0  0  0  0
   38.0160   33.5230   40.7970 H   0  0  0  0  0  0  0  0  0  0  0  0
   40.2300   33.9350   41.9780 H   0  0  0  0  0  0  0  0  0  0  0  0
   36.6090   28.6810   49.9210 Cl  0  0  0  0  0  0  0  0  0  0  0  0
   35.3320   28.9630   48.8040 C   0  0  0  0  0  0  0  0  0  0  0  0
   35.3720   30.0880   47.9920 C   0  0  0  0  0  0  0  0  0  0  0  0
   34.3790   30.3500   47.0920 C   0  0  0  0  0  0  0  0  0  0  0  0
   33.2930   29.4990   46.9560 C   0  0  0  0  0  0  0  0  0  0  0  0
   33.2280   28.3740   47.7490 C   0  0  0  0  0  0  0  0  0  0  0  0
   31.9060   27.2260   47.6670 Cl  0  0  0  0  0  0  0  0  0  0  0  0
   34.2460   28.1470   48.6410 C   0  0  0  0  0  0  0  0  0  0  0  0
   34.4180   31.2220   46.4700 H   0  0  0  0  0  0  0  0  0  0  0  0
   32.4950   29.6930   46.2450 H   0  0  0  0  0  0  0  0  0  0  0  0
   34.2020   26.9850   49.4760 N   0  0  0  0  0  0  0  0  0  0  0  0
   34.7490   26.0990   49.4690 H   0  0  0  0  0  0  0  0  0  0  0  0
   33.4600   27.0790   50.2320 H   0  0  0  0  0  0  0  0  0  0  0  0
  1  7  1  0  0  0  0
  2  8  1  0  0  0  0
  2  1  2  0  0  0  0
  3  2  1  0  0  0  0
  4  3  2  0  0  0  0
  4  5  1  0  0  0  0
  5  6  2  0  0  0  0
  6  1  1  0  0  0  0
  9  3  1  0  0  0  0
 10  9  2  0  0  0  0
 10 17  1  0  0  0  0
 11 10  1  0  0  0  0
 12 11  1  0  0  0  0
 12 13  2  0  0  0  0
 13  9  1  0  0  0  0
 14 16  1  0  0  0  0
 14 15  2  0  0  0  0
 16 12  1  0  0  0  0
 18 11  1  0  0  0  0
 19 14  1  0  0  0  0
 20 16  1  0  0  0  0
 22 21  1  0  0  0  0
 23  5  1  0  0  0  0
 23 22  2  0  0  0  0
 24 23  1  0  0  0  0
 25 24  2  0  0  0  0
 25 26  1  0  0  0  0
 26 28  2  0  0  0  0
 27 26  1  0  0  0  0
 28 22  1  0  0  0  0
 28 31  1  0  0  0  0
 29 24  1  0  0  0  0
 30 25  1  0  0  0  0
 31 33  1  0  0  0  0
 32 31  1  0  0  0  0
M  END
>  <minimizedAffinity>
-5.27126312

>  <minimizedRMSD>
0.468271941

$$$$
