
 OpenBabel03262522453D

 31 33  0  0  1  0  0  0  0  0999 V2000
   38.1240   25.3030   35.8690 C   0  0  1  0  0  0  0  0  0  0  0  0
   38.2480   26.5850   36.4970 C   0  0  0  0  0  0  0  0  0  0  0  0
   38.9030   26.4360   35.1360 C   0  0  2  0  0  0  0  0  0  0  0  0
   37.3180   25.0140   35.1480 H   0  0  0  0  0  0  0  0  0  0  0  0
   37.3550   27.2690   36.4860 H   0  0  0  0  0  0  0  0  0  0  0  0
   38.9310   26.8120   37.3350 H   0  0  0  0  0  0  0  0  0  0  0  0
   39.9570   26.6780   35.2960 H   0  0  0  0  0  0  0  0  0  0  0  0
   40.0490   23.6220   35.4590 C   0  0  0  0  0  0  0  0  0  0  0  0
   38.9870   24.1410   36.3110 C   0  0  0  0  0  0  0  0  0  0  0  0
   38.8190   23.6280   37.5610 C   0  0  0  0  0  0  0  0  0  0  0  0
   39.6770   22.6310   37.9460 N   0  0  0  0  0  0  0  0  0  0  0  0
   40.6520   22.1650   37.1470 C   0  0  0  0  0  0  0  0  0  0  0  0
   40.8370   22.6540   35.9180 N   0  0  0  0  0  0  0  0  0  0  0  0
   41.5330   21.1280   37.5910 N   0  0  0  0  0  0  0  0  0  0  0  0
   40.1400   24.0630   34.4770 H   0  0  0  0  0  0  0  0  0  0  0  0
   41.8580   21.2260   38.5780 H   0  0  0  0  0  0  0  0  0  0  0  0
   41.8610   20.3180   37.0250 H   0  0  0  0  0  0  0  0  0  0  0  0
   37.7980   24.1070   38.4230 N   0  0  0  0  0  0  0  0  0  0  0  0
   37.8080   24.9030   39.1010 H   0  0  0  0  0  0  0  0  0  0  0  0
   37.0740   23.3900   38.1290 H   0  0  0  0  0  0  0  0  0  0  0  0
   39.8250   26.3700   32.1770 Cl  0  0  0  0  0  0  0  0  0  0  0  0
   38.4130   27.2340   32.7260 C   0  0  0  0  0  0  0  0  0  0  0  0
   38.1980   27.1770   34.0860 C   0  0  0  0  0  0  0  0  0  0  0  0
   37.0900   27.8690   34.5540 C   0  0  0  0  0  0  0  0  0  0  0  0
   36.2480   28.5840   33.7000 C   0  0  0  0  0  0  0  0  0  0  0  0
   36.5220   28.6100   32.3160 C   0  0  0  0  0  0  0  0  0  0  0  0
   35.5810   29.5130   31.1560 Cl  0  0  0  0  0  0  0  0  0  0  0  0
   37.6360   27.9100   31.8420 C   0  0  0  0  0  0  0  0  0  0  0  0
   36.6450   28.0070   35.5260 H   0  0  0  0  0  0  0  0  0  0  0  0
   35.3800   29.1500   33.9150 H   0  0  0  0  0  0  0  0  0  0  0  0
   37.9160   27.8750   30.7980 H   0  0  0  0  0  0  0  0  0  0  0  0
  1  4  1  6  0  0  0
  1  9  1  0  0  0  0
  1  2  1  0  0  0  0
  2  6  1  0  0  0  0
  3  7  1  6  0  0  0
  3  1  1  0  0  0  0
  3  2  1  0  0  0  0
  5  2  1  0  0  0  0
  8 13  2  0  0  0  0
  8  9  1  0  0  0  0
  9 10  2  0  0  0  0
 10 11  1  0  0  0  0
 10 18  1  0  0  0  0
 12 14  1  0  0  0  0
 12 11  2  0  0  0  0
 13 12  1  0  0  0  0
 14 16  1  0  0  0  0
 15  8  1  0  0  0  0
 17 14  1  0  0  0  0
 18 19  1  0  0  0  0
 20 18  1  0  0  0  0
 21 22  1  0  0  0  0
 22 23  1  0  0  0  0
 23 24  2  0  0  0  0
 23  3  1  0  0  0  0
 24 29  1  0  0  0  0
 25 30  1  0  0  0  0
 25 24  1  0  0  0  0
 26 25  2  0  0  0  0
 27 26  1  0  0  0  0
 28 26  1  0  0  0  0
 28 22  2  0  0  0  0
 31 28  1  0  0  0  0
M  END
>  <minimizedAffinity>
-5.78803968

$$$$

 OpenBabel03262522453D

 31 33  0  0  1  0  0  0  0  0999 V2000
   38.7580   26.6470   35.0290 C   0  0  1  0  0  0  0  0  0  0  0  0
   38.2330   26.7020   36.3600 C   0  0  0  0  0  0  0  0  0  0  0  0
   38.1180   25.3680   35.6460 C   0  0  2  0  0  0  0  0  0  0  0  0
   39.7980   26.3300   34.7590 H   0  0  0  0  0  0  0  0  0  0  0  0
   38.9600   26.6850   37.2180 H   0  0  0  0  0  0  0  0  0  0  0  0
   37.2760   27.1800   36.6400 H   0  0  0  0  0  0  0  0  0  0  0  0
   37.0500   25.1360   35.6410 H   0  0  0  0  0  0  0  0  0  0  0  0
   36.7100   27.9090   34.0730 C   0  0  0  0  0  0  0  0  0  0  0  0
   37.9830   27.2310   33.8680 C   0  0  0  0  0  0  0  0  0  0  0  0
   38.5290   27.1940   32.6210 C   0  0  0  0  0  0  0  0  0  0  0  0
   37.8280   27.8080   31.6150 N   0  0  0  0  0  0  0  0  0  0  0  0
   36.6550   28.4290   31.8240 C   0  0  0  0  0  0  0  0  0  0  0  0
   36.1020   28.4790   33.0390 N   0  0  0  0  0  0  0  0  0  0  0  0
   35.9590   29.0650   30.7480 N   0  0  0  0  0  0  0  0  0  0  0  0
   36.3210   27.9100   35.0820 H   0  0  0  0  0  0  0  0  0  0  0  0
   36.5680   29.6030   30.0930 H   0  0  0  0  0  0  0  0  0  0  0  0
   34.9320   29.0330   30.5780 H   0  0  0  0  0  0  0  0  0  0  0  0
   39.7690   26.5460   32.3770 N   0  0  0  0  0  0  0  0  0  0  0  0
   40.7450   26.9150   32.4430 H   0  0  0  0  0  0  0  0  0  0  0  0
   39.3440   25.6090   32.1210 H   0  0  0  0  0  0  0  0  0  0  0  0
   37.7720   24.2470   38.5150 Cl  0  0  0  0  0  0  0  0  0  0  0  0
   39.0050   23.7000   37.4110 C   0  0  0  0  0  0  0  0  0  0  0  0
   39.0210   24.3540   36.1980 C   0  0  0  0  0  0  0  0  0  0  0  0
   40.0030   23.9500   35.3040 C   0  0  0  0  0  0  0  0  0  0  0  0
   40.9210   22.9440   35.6160 C   0  0  0  0  0  0  0  0  0  0  0  0
   40.8580   22.3140   36.8770 C   0  0  0  0  0  0  0  0  0  0  0  0
   41.9830   21.0880   37.4070 Cl  0  0  0  0  0  0  0  0  0  0  0  0
   39.8670   22.7170   37.7770 C   0  0  0  0  0  0  0  0  0  0  0  0
   40.2680   24.2350   34.2990 H   0  0  0  0  0  0  0  0  0  0  0  0
   41.7120   22.5410   35.0400 H   0  0  0  0  0  0  0  0  0  0  0  0
   39.7470   22.2850   38.7610 H   0  0  0  0  0  0  0  0  0  0  0  0
  1  4  1  6  0  0  0
  1  3  1  0  0  0  0
  1  2  1  0  0  0  0
  2  6  1  0  0  0  0
  2  5  1  0  0  0  0
  3  7  1  6  0  0  0
  3 23  1  0  0  0  0
  3  2  1  0  0  0  0
  8 15  1  0  0  0  0
  9  8  1  0  0  0  0
  9  1  1  0  0  0  0
 10  9  2  0  0  0  0
 11 12  2  0  0  0  0
 11 10  1  0  0  0  0
 12 13  1  0  0  0  0
 13  8  2  0  0  0  0
 14 12  1  0  0  0  0
 16 14  1  0  0  0  0
 17 14  1  0  0  0  0
 18 19  1  0  0  0  0
 18 10  1  0  0  0  0
 20 18  1  0  0  0  0
 22 28  1  0  0  0  0
 22 21  1  0  0  0  0
 23 22  2  0  0  0  0
 24 25  2  0  0  0  0
 24 23  1  0  0  0  0
 25 26  1  0  0  0  0
 26 27  1  0  0  0  0
 26 28  2  0  0  0  0
 28 31  1  0  0  0  0
 29 24  1  0  0  0  0
 30 25  1  0  0  0  0
M  END
>  <minimizedAffinity>
-5.54848289

$$$$

 OpenBabel03262522453D

 31 33  0  0  1  0  0  0  0  0999 V2000
   38.4000   25.8710   33.8630 C   0  0  1  0  0  0  0  0  0  0  0  0
   38.2540   25.2430   32.5840 C   0  0  0  0  0  0  0  0  0  0  0  0
   37.0650   26.0480   33.0790 C   0  0  2  0  0  0  0  0  0  0  0  0
   38.7600   26.9180   34.0300 H   0  0  0  0  0  0  0  0  0  0  0  0
   38.7690   25.7120   31.7010 H   0  0  0  0  0  0  0  0  0  0  0  0
   38.0710   24.1650   32.4300 H   0  0  0  0  0  0  0  0  0  0  0  0
   36.2290   25.3430   33.0960 H   0  0  0  0  0  0  0  0  0  0  0  0
   38.2200   23.6100   35.1100 C   0  0  0  0  0  0  0  0  0  0  0  0
   38.2700   25.0650   35.1380 C   0  0  0  0  0  0  0  0  0  0  0  0
   38.2820   25.7130   36.3360 C   0  0  0  0  0  0  0  0  0  0  0  0
   38.2450   24.9370   37.4640 N   0  0  0  0  0  0  0  0  0  0  0  0
   38.2000   23.5950   37.4200 C   0  0  0  0  0  0  0  0  0  0  0  0
   38.1880   22.9380   36.2560 N   0  0  0  0  0  0  0  0  0  0  0  0
   38.1690   22.8200   38.6220 N   0  0  0  0  0  0  0  0  0  0  0  0
   38.2130   23.1450   34.1350 H   0  0  0  0  0  0  0  0  0  0  0  0
   38.8090   23.1590   39.3750 H   0  0  0  0  0  0  0  0  0  0  0  0
   37.5820   21.9770   38.7940 H   0  0  0  0  0  0  0  0  0  0  0  0
   38.3320   27.1310   36.4070 N   0  0  0  0  0  0  0  0  0  0  0  0
   39.1550   27.7750   36.4140 H   0  0  0  0  0  0  0  0  0  0  0  0
   37.2810   27.2660   36.4470 H   0  0  0  0  0  0  0  0  0  0  0  0
   35.9250   28.6050   34.4080 Cl  0  0  0  0  0  0  0  0  0  0  0  0
   36.4400   28.5330   32.7440 C   0  0  0  0  0  0  0  0  0  0  0  0
   36.8760   27.2930   32.3300 C   0  0  0  0  0  0  0  0  0  0  0  0
   37.2770   27.2020   31.0050 C   0  0  0  0  0  0  0  0  0  0  0  0
   37.2380   28.3000   30.1410 C   0  0  0  0  0  0  0  0  0  0  0  0
   36.7780   29.5440   30.6210 C   0  0  0  0  0  0  0  0  0  0  0  0
   36.6260   30.9720   29.6280 Cl  0  0  0  0  0  0  0  0  0  0  0  0
   36.3760   29.6390   31.9580 C   0  0  0  0  0  0  0  0  0  0  0  0
   37.6750   26.4090   30.3920 H   0  0  0  0  0  0  0  0  0  0  0  0
   37.5090   28.3740   29.1210 H   0  0  0  0  0  0  0  0  0  0  0  0
   36.0140   30.5530   32.4060 H   0  0  0  0  0  0  0  0  0  0  0  0
  1  4  1  1  0  0  0
  1  9  1  0  0  0  0
  2  3  1  0  0  0  0
  2  1  1  0  0  0  0
  3  7  1  1  0  0  0
  3  1  1  0  0  0  0
  5  2  1  0  0  0  0
  6  2  1  0  0  0  0
  8  9  2  0  0  0  0
  8 13  1  0  0  0  0
  9 10  1  0  0  0  0
 10 18  1  0  0  0  0
 10 11  2  0  0  0  0
 12 11  1  0  0  0  0
 12 14  1  0  0  0  0
 13 12  2  0  0  0  0
 14 17  1  0  0  0  0
 14 16  1  0  0  0  0
 15  8  1  0  0  0  0
 18 19  1  0  0  0  0
 18 20  1  0  0  0  0
 22 21  1  0  0  0  0
 23 22  1  0  0  0  0
 23  3  1  0  0  0  0
 24 23  2  0  0  0  0
 25 26  2  0  0  0  0
 25 24  1  0  0  0  0
 26 28  1  0  0  0  0
 27 26  1  0  0  0  0
 28 31  1  0  0  0  0
 28 22  2  0  0  0  0
 29 24  1  0  0  0  0
 30 25  1  0  0  0  0
M  END
>  <minimizedAffinity>
-5.4073658

$$$$

 OpenBabel03262522453D

 31 33  0  0  1  0  0  0  0  0999 V2000
   38.6200   24.8690   33.8340 C   0  0  1  0  0  0  0  0  0  0  0  0
   38.6950   25.7030   34.9960 C   0  0  0  0  0  0  0  0  0  0  0  0
   38.2320   24.2750   35.2210 C   0  0  2  0  0  0  0  0  0  0  0  0
   39.4390   24.1990   33.4690 H   0  0  0  0  0  0  0  0  0  0  0  0
   39.7100   25.9150   35.4330 H   0  0  0  0  0  0  0  0  0  0  0  0
   37.9630   26.4900   35.2540 H   0  0  0  0  0  0  0  0  0  0  0  0
   37.2480   24.3630   35.6880 H   0  0  0  0  0  0  0  0  0  0  0  0
   36.7750   26.2640   32.6730 C   0  0  0  0  0  0  0  0  0  0  0  0
   37.4630   24.9950   32.8660 C   0  0  0  0  0  0  0  0  0  0  0  0
   37.1160   23.9210   32.1050 C   0  0  0  0  0  0  0  0  0  0  0  0
   36.1170   24.1060   31.1850 N   0  0  0  0  0  0  0  0  0  0  0  0
   35.4930   25.2840   31.0200 C   0  0  0  0  0  0  0  0  0  0  0  0
   35.8180   26.3520   31.7540 N   0  0  0  0  0  0  0  0  0  0  0  0
   34.4600   25.4380   30.0420 N   0  0  0  0  0  0  0  0  0  0  0  0
   37.0880   27.0850   33.3020 H   0  0  0  0  0  0  0  0  0  0  0  0
   34.6530   24.9730   29.1270 H   0  0  0  0  0  0  0  0  0  0  0  0
   33.5670   25.9590   30.1700 H   0  0  0  0  0  0  0  0  0  0  0  0
   37.7640   22.6660   32.2600 N   0  0  0  0  0  0  0  0  0  0  0  0
   38.6330   22.2980   31.8110 H   0  0  0  0  0  0  0  0  0  0  0  0
   37.0680   22.2800   32.9610 H   0  0  0  0  0  0  0  0  0  0  0  0
   38.2980   24.0380   38.3110 Cl  0  0  0  0  0  0  0  0  0  0  0  0
   39.3960   23.1880   37.2570 C   0  0  0  0  0  0  0  0  0  0  0  0
   39.2330   23.4610   35.9170 C   0  0  0  0  0  0  0  0  0  0  0  0
   40.1050   22.8110   35.0550 C   0  0  0  0  0  0  0  0  0  0  0  0
   41.0900   21.9350   35.5180 C   0  0  0  0  0  0  0  0  0  0  0  0
   41.2120   21.6990   36.9040 C   0  0  0  0  0  0  0  0  0  0  0  0
   42.4370   20.6750   37.6100 Cl  0  0  0  0  0  0  0  0  0  0  0  0
   40.3320   22.3500   37.7740 C   0  0  0  0  0  0  0  0  0  0  0  0
   40.2290   22.7900   33.9840 H   0  0  0  0  0  0  0  0  0  0  0  0
   41.8140   21.3790   34.9830 H   0  0  0  0  0  0  0  0  0  0  0  0
   40.3540   22.2240   38.8470 H   0  0  0  0  0  0  0  0  0  0  0  0
  1  4  1  6  0  0  0
  1  2  1  0  0  0  0
  1  3  1  0  0  0  0
  2  3  1  0  0  0  0
  2  6  1  0  0  0  0
  2  5  1  0  0  0  0
  3  7  1  1  0  0  0
  3 23  1  0  0  0  0
  8  9  1  0  0  0  0
  8 15  1  0  0  0  0
  9  1  1  0  0  0  0
 10 18  1  0  0  0  0
 10  9  2  0  0  0  0
 11 10  1  0  0  0  0
 12 11  2  0  0  0  0
 12 13  1  0  0  0  0
 13  8  2  0  0  0  0
 14 17  1  0  0  0  0
 14 12  1  0  0  0  0
 16 14  1  0  0  0  0
 18 20  1  0  0  0  0
 19 18  1  0  0  0  0
 22 28  1  0  0  0  0
 22 21  1  0  0  0  0
 23 22  2  0  0  0  0
 24 25  2  0  0  0  0
 24 23  1  0  0  0  0
 25 26  1  0  0  0  0
 26 27  1  0  0  0  0
 26 28  2  0  0  0  0
 28 31  1  0  0  0  0
 29 24  1  0  0  0  0
 30 25  1  0  0  0  0
M  END
>  <minimizedAffinity>
-5.31754112

$$$$

 OpenBabel03262522453D

 31 33  0  0  1  0  0  0  0  0999 V2000
   38.1220   27.1300   33.6320 C   0  0  1  0  0  0  0  0  0  0  0  0
   38.0830   26.8870   32.2210 C   0  0  0  0  0  0  0  0  0  0  0  0
   36.7740   27.2980   32.8690 C   0  0  2  0  0  0  0  0  0  0  0  0
   38.2920   28.1280   34.1100 H   0  0  0  0  0  0  0  0  0  0  0  0
   38.5050   27.6730   31.5360 H   0  0  0  0  0  0  0  0  0  0  0  0
   38.0930   25.8860   31.7540 H   0  0  0  0  0  0  0  0  0  0  0  0
   36.0750   26.4880   32.6440 H   0  0  0  0  0  0  0  0  0  0  0  0
   38.0460   24.5970   34.1600 C   0  0  0  0  0  0  0  0  0  0  0  0
   38.1410   25.9780   34.6140 C   0  0  0  0  0  0  0  0  0  0  0  0
   38.3320   26.2370   35.9360 C   0  0  0  0  0  0  0  0  0  0  0  0
   38.4240   25.1580   36.7760 N   0  0  0  0  0  0  0  0  0  0  0  0
   38.3360   23.8900   36.3400 C   0  0  0  0  0  0  0  0  0  0  0  0
   38.1490   23.6120   35.0460 N   0  0  0  0  0  0  0  0  0  0  0  0
   38.4450   22.7900   37.2490 N   0  0  0  0  0  0  0  0  0  0  0  0
   37.8950   24.4460   33.1010 H   0  0  0  0  0  0  0  0  0  0  0  0
   39.1890   22.8970   37.9730 H   0  0  0  0  0  0  0  0  0  0  0  0
   37.8620   21.9280   37.2400 H   0  0  0  0  0  0  0  0  0  0  0  0
   38.4320   27.5690   36.4200 N   0  0  0  0  0  0  0  0  0  0  0  0
   39.2670   28.1920   36.5070 H   0  0  0  0  0  0  0  0  0  0  0  0
   37.4000   27.6720   36.6420 H   0  0  0  0  0  0  0  0  0  0  0  0
   36.8240   28.2920   29.9340 Cl  0  0  0  0  0  0  0  0  0  0  0  0
   36.2660   29.2640   31.2690 C   0  0  0  0  0  0  0  0  0  0  0  0
   36.3650   28.6570   32.5020 C   0  0  0  0  0  0  0  0  0  0  0  0
   35.9430   29.4130   33.5860 C   0  0  0  0  0  0  0  0  0  0  0  0
   35.4520   30.7130   33.4370 C   0  0  0  0  0  0  0  0  0  0  0  0
   35.3790   31.2840   32.1490 C   0  0  0  0  0  0  0  0  0  0  0  0
   34.8410   32.9150   31.8390 Cl  0  0  0  0  0  0  0  0  0  0  0  0
   35.8000   30.5210   31.0550 C   0  0  0  0  0  0  0  0  0  0  0  0
   35.8730   29.2340   34.6470 H   0  0  0  0  0  0  0  0  0  0  0  0
   35.1000   31.3960   34.1650 H   0  0  0  0  0  0  0  0  0  0  0  0
   35.7750   30.8800   30.0360 H   0  0  0  0  0  0  0  0  0  0  0  0
  1  4  1  1  0  0  0
  1  9  1  0  0  0  0
  2  3  1  0  0  0  0
  2  1  1  0  0  0  0
  3  7  1  1  0  0  0
  3  1  1  0  0  0  0
  5  2  1  0  0  0  0
  6  2  1  0  0  0  0
  8  9  2  0  0  0  0
  8 13  1  0  0  0  0
  9 10  1  0  0  0  0
 10 18  1  0  0  0  0
 10 11  2  0  0  0  0
 12 11  1  0  0  0  0
 12 14  1  0  0  0  0
 13 12  2  0  0  0  0
 14 16  1  0  0  0  0
 15  8  1  0  0  0  0
 17 14  1  0  0  0  0
 18 19  1  0  0  0  0
 18 20  1  0  0  0  0
 21 22  1  0  0  0  0
 22 23  1  0  0  0  0
 23  3  1  0  0  0  0
 23 24  2  0  0  0  0
 24 29  1  0  0  0  0
 25 24  1  0  0  0  0
 25 30  1  0  0  0  0
 26 25  2  0  0  0  0
 27 26  1  0  0  0  0
 28 22  2  0  0  0  0
 28 26  1  0  0  0  0
 31 28  1  0  0  0  0
M  END
>  <minimizedAffinity>
-5.2645278

$$$$

 OpenBabel03262522453D

 31 33  0  0  1  0  0  0  0  0999 V2000
   38.9720   23.4050   35.8130 C   0  0  1  0  0  0  0  0  0  0  0  0
   38.7720   24.5800   36.6080 C   0  0  0  0  0  0  0  0  0  0  0  0
   39.3760   24.7930   35.2320 C   0  0  2  0  0  0  0  0  0  0  0  0
   38.2420   22.9990   35.0690 H   0  0  0  0  0  0  0  0  0  0  0  0
   37.7270   24.9850   36.7010 H   0  0  0  0  0  0  0  0  0  0  0  0
   39.4070   24.8780   37.4620 H   0  0  0  0  0  0  0  0  0  0  0  0
   40.3300   25.2950   35.4120 H   0  0  0  0  0  0  0  0  0  0  0  0
   41.0190   22.0410   35.0080 C   0  0  0  0  0  0  0  0  0  0  0  0
   40.1400   22.4810   36.0830 C   0  0  0  0  0  0  0  0  0  0  0  0
   40.4190   22.1230   37.3670 C   0  0  0  0  0  0  0  0  0  0  0  0
   41.5340   21.3510   37.5700 N   0  0  0  0  0  0  0  0  0  0  0  0
   42.3340   20.9550   36.5660 C   0  0  0  0  0  0  0  0  0  0  0  0
   42.0810   21.2960   35.2990 N   0  0  0  0  0  0  0  0  0  0  0  0
   43.4940   20.1560   36.8220 N   0  0  0  0  0  0  0  0  0  0  0  0
   40.7530   22.3530   34.0080 H   0  0  0  0  0  0  0  0  0  0  0  0
   44.0430   20.4440   37.6620 H   0  0  0  0  0  0  0  0  0  0  0  0
   43.8170   19.3450   36.2550 H   0  0  0  0  0  0  0  0  0  0  0  0
   39.5890   22.5330   38.4440 N   0  0  0  0  0  0  0  0  0  0  0  0
   39.6170   23.4040   39.0210 H   0  0  0  0  0  0  0  0  0  0  0  0
   38.9750   21.6680   38.4320 H   0  0  0  0  0  0  0  0  0  0  0  0
   38.2520   27.6370   35.7390 Cl  0  0  0  0  0  0  0  0  0  0  0  0
   37.8830   26.6950   34.3180 C   0  0  0  0  0  0  0  0  0  0  0  0
   38.4450   25.4370   34.3010 C   0  0  0  0  0  0  0  0  0  0  0  0
   38.1560   24.6590   33.1900 C   0  0  0  0  0  0  0  0  0  0  0  0
   37.3400   25.1200   32.1530 C   0  0  0  0  0  0  0  0  0  0  0  0
   36.7880   26.4170   32.2300 C   0  0  0  0  0  0  0  0  0  0  0  0
   35.7090   27.0840   31.0310 Cl  0  0  0  0  0  0  0  0  0  0  0  0
   37.0820   27.2040   33.3470 C   0  0  0  0  0  0  0  0  0  0  0  0
   38.4420   23.6700   32.8680 H   0  0  0  0  0  0  0  0  0  0  0  0
   37.0390   24.6420   31.2590 H   0  0  0  0  0  0  0  0  0  0  0  0
   36.7030   28.2070   33.4830 H   0  0  0  0  0  0  0  0  0  0  0  0
  1  4  1  6  0  0  0
  1  9  1  0  0  0  0
  1  2  1  0  0  0  0
  2  5  1  0  0  0  0
  2  6  1  0  0  0  0
  3  7  1  6  0  0  0
  3  1  1  0  0  0  0
  3  2  1  0  0  0  0
  8 13  2  0  0  0  0
  8  9  1  0  0  0  0
  9 10  2  0  0  0  0
 10 11  1  0  0  0  0
 10 18  1  0  0  0  0
 12 14  1  0  0  0  0
 12 11  2  0  0  0  0
 13 12  1  0  0  0  0
 14 16  1  0  0  0  0
 15  8  1  0  0  0  0
 17 14  1  0  0  0  0
 18 19  1  0  0  0  0
 20 18  1  0  0  0  0
 22 21  1  0  0  0  0
 23 22  1  0  0  0  0
 23  3  1  0  0  0  0
 24 23  2  0  0  0  0
 25 26  2  0  0  0  0
 25 24  1  0  0  0  0
 26 28  1  0  0  0  0
 27 26  1  0  0  0  0
 28 31  1  0  0  0  0
 28 22  2  0  0  0  0
 29 24  1  0  0  0  0
 30 25  1  0  0  0  0
M  END
>  <minimizedAffinity>
-5.14905643

$$$$

 OpenBabel03262522453D

 31 33  0  0  1  0  0  0  0  0999 V2000
   38.3400   24.4930   35.4420 C   0  0  1  0  0  0  0  0  0  0  0  0
   37.7460   25.5000   36.2700 C   0  0  0  0  0  0  0  0  0  0  0  0
   38.8370   25.9640   35.3210 C   0  0  2  0  0  0  0  0  0  0  0  0
   38.0060   24.2310   34.4060 H   0  0  0  0  0  0  0  0  0  0  0  0
   36.7250   25.8810   35.9910 H   0  0  0  0  0  0  0  0  0  0  0  0
   37.9570   25.6360   37.3460 H   0  0  0  0  0  0  0  0  0  0  0  0
   39.5950   26.4250   35.9600 H   0  0  0  0  0  0  0  0  0  0  0  0
   39.4870   23.3190   37.4440 C   0  0  0  0  0  0  0  0  0  0  0  0
   39.3660   23.5350   36.0090 C   0  0  0  0  0  0  0  0  0  0  0  0
   40.1320   22.8030   35.1540 C   0  0  0  0  0  0  0  0  0  0  0  0
   40.9890   21.8900   35.7110 N   0  0  0  0  0  0  0  0  0  0  0  0
   41.0860   21.7030   37.0380 C   0  0  0  0  0  0  0  0  0  0  0  0
   40.3440   22.4090   37.8960 N   0  0  0  0  0  0  0  0  0  0  0  0
   41.9890   20.7340   37.5800 N   0  0  0  0  0  0  0  0  0  0  0  0
   38.8560   23.9250   38.0790 H   0  0  0  0  0  0  0  0  0  0  0  0
   42.0170   19.8280   37.0610 H   0  0  0  0  0  0  0  0  0  0  0  0
   42.5920   20.8590   38.4200 H   0  0  0  0  0  0  0  0  0  0  0  0
   40.0440   22.9810   33.7470 N   0  0  0  0  0  0  0  0  0  0  0  0
   39.4070   22.5310   33.0520 H   0  0  0  0  0  0  0  0  0  0  0  0
   40.8230   23.6980   33.6880 H   0  0  0  0  0  0  0  0  0  0  0  0
   40.3340   26.2000   32.6180 Cl  0  0  0  0  0  0  0  0  0  0  0  0
   38.7960   26.9570   32.9350 C   0  0  0  0  0  0  0  0  0  0  0  0
   38.3160   26.7690   34.2130 C   0  0  0  0  0  0  0  0  0  0  0  0
   37.1000   27.3740   34.4990 C   0  0  0  0  0  0  0  0  0  0  0  0
   36.4070   28.1300   33.5510 C   0  0  0  0  0  0  0  0  0  0  0  0
   36.9510   28.2910   32.2590 C   0  0  0  0  0  0  0  0  0  0  0  0
   36.2120   29.2590   31.0080 Cl  0  0  0  0  0  0  0  0  0  0  0  0
   38.1740   27.6790   31.9680 C   0  0  0  0  0  0  0  0  0  0  0  0
   36.4620   27.4060   35.3680 H   0  0  0  0  0  0  0  0  0  0  0  0
   35.4840   28.6410   33.6300 H   0  0  0  0  0  0  0  0  0  0  0  0
   38.6590   27.7490   31.0040 H   0  0  0  0  0  0  0  0  0  0  0  0
  1  4  1  6  0  0  0
  1  9  1  0  0  0  0
  1  2  1  0  0  0  0
  2  6  1  0  0  0  0
  3  1  1  0  0  0  0
  3  7  1  1  0  0  0
  3  2  1  0  0  0  0
  5  2  1  0  0  0  0
  8 13  1  0  0  0  0
  8 15  1  0  0  0  0
  9  8  2  0  0  0  0
 10 11  2  0  0  0  0
 10  9  1  0  0  0  0
 11 12  1  0  0  0  0
 12 14  1  0  0  0  0
 12 13  2  0  0  0  0
 14 17  1  0  0  0  0
 16 14  1  0  0  0  0
 18 10  1  0  0  0  0
 19 18  1  0  0  0  0
 20 18  1  0  0  0  0
 21 22  1  0  0  0  0
 22 23  1  0  0  0  0
 23 24  2  0  0  0  0
 23  3  1  0  0  0  0
 24 29  1  0  0  0  0
 25 30  1  0  0  0  0
 25 24  1  0  0  0  0
 26 25  2  0  0  0  0
 27 26  1  0  0  0  0
 28 26  1  0  0  0  0
 28 22  2  0  0  0  0
 31 28  1  0  0  0  0
M  END
>  <minimizedAffinity>
-5.14327431

$$$$

 OpenBabel03262522453D

 31 33  0  0  1  0  0  0  0  0999 V2000
   38.8980   26.1540   34.3100 C   0  0  1  0  0  0  0  0  0  0  0  0
   38.6920   25.8560   32.9240 C   0  0  0  0  0  0  0  0  0  0  0  0
   37.4430   26.0410   33.7670 C   0  0  2  0  0  0  0  0  0  0  0  0
   38.9480   27.1840   34.7470 H   0  0  0  0  0  0  0  0  0  0  0  0
   38.8480   26.6820   32.1760 H   0  0  0  0  0  0  0  0  0  0  0  0
   38.8200   24.8580   32.4690 H   0  0  0  0  0  0  0  0  0  0  0  0
   36.8840   25.1070   33.6590 H   0  0  0  0  0  0  0  0  0  0  0  0
   38.3300   24.5430   36.2550 C   0  0  0  0  0  0  0  0  0  0  0  0
   39.2840   25.0620   35.2850 C   0  0  0  0  0  0  0  0  0  0  0  0
   40.5220   24.5010   35.1950 C   0  0  0  0  0  0  0  0  0  0  0  0
   40.7970   23.4610   36.0440 N   0  0  0  0  0  0  0  0  0  0  0  0
   39.9040   22.9950   36.9330 C   0  0  0  0  0  0  0  0  0  0  0  0
   38.6830   23.5290   37.0370 N   0  0  0  0  0  0  0  0  0  0  0  0
   40.2280   21.9010   37.7970 N   0  0  0  0  0  0  0  0  0  0  0  0
   37.3620   25.0240   36.2850 H   0  0  0  0  0  0  0  0  0  0  0  0
   40.7550   21.1260   37.3380 H   0  0  0  0  0  0  0  0  0  0  0  0
   39.9860   21.8250   38.8060 H   0  0  0  0  0  0  0  0  0  0  0  0
   41.4810   24.9760   34.2610 N   0  0  0  0  0  0  0  0  0  0  0  0
   41.6390   24.7060   33.2640 H   0  0  0  0  0  0  0  0  0  0  0  0
   41.9390   25.6610   34.9290 H   0  0  0  0  0  0  0  0  0  0  0  0
   36.3240   26.6360   30.9380 Cl  0  0  0  0  0  0  0  0  0  0  0  0
   36.1240   27.7090   32.2970 C   0  0  0  0  0  0  0  0  0  0  0  0
   36.7330   27.2860   33.4580 C   0  0  0  0  0  0  0  0  0  0  0  0
   36.6050   28.1290   34.5530 C   0  0  0  0  0  0  0  0  0  0  0  0
   35.9030   29.3350   34.4820 C   0  0  0  0  0  0  0  0  0  0  0  0
   35.3040   29.7180   33.2630 C   0  0  0  0  0  0  0  0  0  0  0  0
   34.4540   31.2250   33.0310 Cl  0  0  0  0  0  0  0  0  0  0  0  0
   35.4300   28.8680   32.1600 C   0  0  0  0  0  0  0  0  0  0  0  0
   36.9340   28.0850   35.5790 H   0  0  0  0  0  0  0  0  0  0  0  0
   35.7270   30.0660   35.2260 H   0  0  0  0  0  0  0  0  0  0  0  0
   35.0000   29.0840   31.1920 H   0  0  0  0  0  0  0  0  0  0  0  0
  1  4  1  1  0  0  0
  1  9  1  0  0  0  0
  2  3  1  0  0  0  0
  2  1  1  0  0  0  0
  3  7  1  1  0  0  0
  3  1  1  0  0  0  0
  5  2  1  0  0  0  0
  6  2  1  0  0  0  0
  8 15  1  0  0  0  0
  8 13  1  0  0  0  0
  9  8  2  0  0  0  0
 10  9  1  0  0  0  0
 10 11  2  0  0  0  0
 11 12  1  0  0  0  0
 12 13  2  0  0  0  0
 12 14  1  0  0  0  0
 14 17  1  0  0  0  0
 16 14  1  0  0  0  0
 18 20  1  0  0  0  0
 18 10  1  0  0  0  0
 19 18  1  0  0  0  0
 21 22  1  0  0  0  0
 22 23  1  0  0  0  0
 23  3  1  0  0  0  0
 23 24  2  0  0  0  0
 24 29  1  0  0  0  0
 25 24  1  0  0  0  0
 25 30  1  0  0  0  0
 26 25  2  0  0  0  0
 27 26  1  0  0  0  0
 28 22  2  0  0  0  0
 28 26  1  0  0  0  0
 31 28  1  0  0  0  0
M  END
>  <minimizedAffinity>
-5.13895655

$$$$

 OpenBabel03262522453D

 31 33  0  0  1  0  0  0  0  0999 V2000
   35.1030   29.8410   32.7650 C   0  0  1  0  0  0  0  0  0  0  0  0
   33.7320   29.5310   33.0380 C   0  0  0  0  0  0  0  0  0  0  0  0
   34.6810   29.4870   34.2220 C   0  0  2  0  0  0  0  0  0  0  0  0
   35.5640   30.8580   32.8530 H   0  0  0  0  0  0  0  0  0  0  0  0
   32.9970   30.3810   33.0910 H   0  0  0  0  0  0  0  0  0  0  0  0
   33.2390   28.5750   32.7830 H   0  0  0  0  0  0  0  0  0  0  0  0
   34.5940   28.4740   34.6220 H   0  0  0  0  0  0  0  0  0  0  0  0
   36.4620   27.6390   32.8420 C   0  0  0  0  0  0  0  0  0  0  0  0
   36.0110   28.8180   32.1160 C   0  0  0  0  0  0  0  0  0  0  0  0
   36.3430   28.9650   30.8040 C   0  0  0  0  0  0  0  0  0  0  0  0
   37.0990   27.9720   30.2370 N   0  0  0  0  0  0  0  0  0  0  0  0
   37.5060   26.8910   30.9230 C   0  0  0  0  0  0  0  0  0  0  0  0
   37.1910   26.7250   32.2100 N   0  0  0  0  0  0  0  0  0  0  0  0
   38.2880   25.8720   30.2920 N   0  0  0  0  0  0  0  0  0  0  0  0
   36.1710   27.5710   33.8810 H   0  0  0  0  0  0  0  0  0  0  0  0
   37.9800   25.6220   29.3260 H   0  0  0  0  0  0  0  0  0  0  0  0
   39.1060   25.3810   30.7080 H   0  0  0  0  0  0  0  0  0  0  0  0
   35.9210   30.0990   30.0580 N   0  0  0  0  0  0  0  0  0  0  0  0
   35.0400   30.2600   29.5210 H   0  0  0  0  0  0  0  0  0  0  0  0
   36.7920   30.6730   30.2500 H   0  0  0  0  0  0  0  0  0  0  0  0
   32.0620   29.7800   35.8550 Cl  0  0  0  0  0  0  0  0  0  0  0  0
   33.4150   30.8710   36.0010 C   0  0  0  0  0  0  0  0  0  0  0  0
   34.4680   30.5960   35.1570 C   0  0  0  0  0  0  0  0  0  0  0  0
   35.5520   31.4580   35.2400 C   0  0  0  0  0  0  0  0  0  0  0  0
   35.5730   32.5410   36.1220 C   0  0  0  0  0  0  0  0  0  0  0  0
   34.4620   32.7750   36.9600 C   0  0  0  0  0  0  0  0  0  0  0  0
   34.3420   34.1250   38.0600 Cl  0  0  0  0  0  0  0  0  0  0  0  0
   33.3700   31.9050   36.8800 C   0  0  0  0  0  0  0  0  0  0  0  0
   36.5110   31.5110   34.7490 H   0  0  0  0  0  0  0  0  0  0  0  0
   36.3220   33.2700   36.2900 H   0  0  0  0  0  0  0  0  0  0  0  0
   32.4810   32.0100   37.4860 H   0  0  0  0  0  0  0  0  0  0  0  0
  1  4  1  6  0  0  0
  1  2  1  0  0  0  0
  1  3  1  0  0  0  0
  2  5  1  0  0  0  0
  2  3  1  0  0  0  0
  3  7  1  1  0  0  0
  3 23  1  0  0  0  0
  6  2  1  0  0  0  0
  8 15  1  0  0  0  0
  9  1  1  0  0  0  0
  9  8  2  0  0  0  0
 10  9  1  0  0  0  0
 11 10  2  0  0  0  0
 11 12  1  0  0  0  0
 12 13  2  0  0  0  0
 13  8  1  0  0  0  0
 14 17  1  0  0  0  0
 14 12  1  0  0  0  0
 16 14  1  0  0  0  0
 18 20  1  0  0  0  0
 18 10  1  0  0  0  0
 19 18  1  0  0  0  0
 21 22  1  0  0  0  0
 22 28  1  0  0  0  0
 23 24  1  0  0  0  0
 23 22  2  0  0  0  0
 24 25  2  0  0  0  0
 25 30  1  0  0  0  0
 25 26  1  0  0  0  0
 26 27  1  0  0  0  0
 28 26  2  0  0  0  0
 28 31  1  0  0  0  0
 29 24  1  0  0  0  0
M  END
>  <minimizedAffinity>
-5.13798189

$$$$
