
 OpenBabel03272502453D

 33 35  0  0  0  0  0  0  0  0999 V2000
   37.8640   32.3990   49.3810 C   0  0  0  0  0  0  0  0  0  0  0  0
   38.6420   32.7390   48.2690 C   0  0  0  0  0  0  0  0  0  0  0  0
   38.2810   32.1540   47.0530 C   0  0  0  0  0  0  0  0  0  0  0  0
   37.2220   31.3090   47.0150 N   0  0  0  0  0  0  0  0  0  0  0  0
   36.4970   31.0050   48.1070 C   0  0  0  0  0  0  0  0  0  0  0  0
   36.8380   31.5640   49.2770 N   0  0  0  0  0  0  0  0  0  0  0  0
   38.1340   32.8490   50.3410 H   0  0  0  0  0  0  0  0  0  0  0  0
   39.4870   33.4180   48.3140 H   0  0  0  0  0  0  0  0  0  0  0  0
   39.0140   32.4270   45.8200 C   0  0  0  0  0  0  0  0  0  0  0  0
   40.3750   32.2610   45.6570 C   0  0  0  0  0  0  0  0  0  0  0  0
   40.7550   32.5970   44.4060 N   0  0  0  0  0  0  0  0  0  0  0  0
   39.6460   32.9780   43.7670 C   0  0  0  0  0  0  0  0  0  0  0  0
   38.6270   32.8710   44.6210 N   0  0  0  0  0  0  0  0  0  0  0  0
   38.1690   33.1610   41.8460 C   0  0  0  0  0  0  0  0  0  0  0  0
   37.2970   32.5520   42.4860 O   0  0  0  0  0  0  0  0  0  0  0  0
   39.4410   33.4320   42.4400 N   0  0  0  0  0  0  0  0  0  0  0  0
   41.1140   31.9110   46.3860 H   0  0  0  0  0  0  0  0  0  0  0  0
   41.6920   32.5920   43.9470 H   0  0  0  0  0  0  0  0  0  0  0  0
   38.0150   33.5230   40.7960 H   0  0  0  0  0  0  0  0  0  0  0  0
   40.2300   33.9350   41.9760 H   0  0  0  0  0  0  0  0  0  0  0  0
   36.6100   28.6820   49.9200 Cl  0  0  0  0  0  0  0  0  0  0  0  0
   35.3320   28.9640   48.8040 C   0  0  0  0  0  0  0  0  0  0  0  0
   35.3730   30.0890   47.9920 C   0  0  0  0  0  0  0  0  0  0  0  0
   34.3790   30.3510   47.0920 C   0  0  0  0  0  0  0  0  0  0  0  0
   33.2930   29.5010   46.9560 C   0  0  0  0  0  0  0  0  0  0  0  0
   33.2280   28.3760   47.7500 C   0  0  0  0  0  0  0  0  0  0  0  0
   31.9050   27.2290   47.6680 Cl  0  0  0  0  0  0  0  0  0  0  0  0
   34.2460   28.1480   48.6410 C   0  0  0  0  0  0  0  0  0  0  0  0
   34.4180   31.2230   46.4700 H   0  0  0  0  0  0  0  0  0  0  0  0
   32.4950   29.6950   46.2460 H   0  0  0  0  0  0  0  0  0  0  0  0
   34.2020   26.9860   49.4760 N   0  0  0  0  0  0  0  0  0  0  0  0
   33.4250   26.5380   50.0050 H   0  0  0  0  0  0  0  0  0  0  0  0
   35.1550   26.5220   49.5450 H   0  0  0  0  0  0  0  0  0  0  0  0
  1  7  1  0  0  0  0
  2  8  1  0  0  0  0
  2  1  2  0  0  0  0
  3  2  1  0  0  0  0
  4  3  2  0  0  0  0
  4  5  1  0  0  0  0
  5  6  2  0  0  0  0
  6  1  1  0  0  0  0
  9  3  1  0  0  0  0
 10  9  2  0  0  0  0
 10 17  1  0  0  0  0
 11 10  1  0  0  0  0
 12 11  1  0  0  0  0
 12 13  2  0  0  0  0
 13  9  1  0  0  0  0
 14 16  1  0  0  0  0
 14 15  2  0  0  0  0
 16 12  1  0  0  0  0
 18 11  1  0  0  0  0
 19 14  1  0  0  0  0
 20 16  1  0  0  0  0
 22 21  1  0  0  0  0
 23  5  1  0  0  0  0
 23 22  2  0  0  0  0
 24 23  1  0  0  0  0
 25 24  2  0  0  0  0
 25 26  1  0  0  0  0
 26 28  2  0  0  0  0
 27 26  1  0  0  0  0
 28 22  1  0  0  0  0
 28 31  1  0  0  0  0
 29 24  1  0  0  0  0
 30 25  1  0  0  0  0
 31 33  1  0  0  0  0
 31 32  1  0  0  0  0
M  END
>  <minimizedAffinity>
-5.27126265

>  <minimizedRMSD>
0.468339592

$$$$
