
 OpenBabel03272508573D

 34 36  0  0  1  0  0  0  0  0999 V2000
   38.3680   31.8970   44.4980 C   0  0  0  0  0  0  0  0  0  0  0  0
   37.2590   32.4590   44.4010 O   0  0  0  0  0  0  0  0  0  0  0  0
   38.9410   31.6210   45.8030 N   0  0  0  0  0  0  0  0  0  0  0  0
   39.9320   31.3600   45.9450 H   0  0  0  0  0  0  0  0  0  0  0  0
   39.1500   31.4890   43.3100 C   0  0  0  0  0  0  0  0  0  0  0  0
   40.1470   30.5670   43.4570 C   0  0  0  0  0  0  0  0  0  0  0  0
   40.8550   30.2180   42.3230 C   0  0  0  0  0  0  0  0  0  0  0  0
   40.5170   30.8150   41.1210 C   0  0  0  0  0  0  0  0  0  0  0  0
   39.5060   31.7480   40.9780 C   0  0  0  0  0  0  0  0  0  0  0  0
   38.8490   32.0510   42.1130 N   0  0  0  0  0  0  0  0  0  0  0  0
   40.3920   30.1150   44.4060 H   0  0  0  0  0  0  0  0  0  0  0  0
   41.6570   29.4900   42.3890 H   0  0  0  0  0  0  0  0  0  0  0  0
   41.0900   30.5220   40.2480 H   0  0  0  0  0  0  0  0  0  0  0  0
   39.1790   32.3470   39.6930 C   0  0  0  0  0  0  0  0  0  0  0  0
   38.8190   33.5490   39.6580 O   0  0  0  0  0  0  0  0  0  0  0  0
   39.3110   31.4610   38.5770 N   0  0  0  0  0  0  0  0  0  0  0  0
   40.2360   31.7790   38.2000 H   0  0  0  0  0  0  0  0  0  0  0  0
   38.4120   30.9030   38.6630 H   0  0  0  0  0  0  0  0  0  0  0  0
   38.4330   31.0970   48.1810 C   0  0  2  0  0  0  0  0  0  0  0  0
   38.6890   32.5620   48.1010 C   0  0  0  0  0  0  0  0  0  0  0  0
   38.0710   31.7190   46.9510 C   0  0  1  0  0  0  0  0  0  0  0  0
   39.3980   30.5240   48.2870 H   0  0  0  0  0  0  0  0  0  0  0  0
   39.6930   32.9690   47.9610 H   0  0  0  0  0  0  0  0  0  0  0  0
   37.9550   33.1880   48.6470 H   0  0  0  0  0  0  0  0  0  0  0  0
   36.9900   31.9350   46.7420 H   0  0  0  0  0  0  0  0  0  0  0  0
   35.0780   30.2410   49.4980 C   0  0  0  0  0  0  0  0  0  0  0  0
   35.4000   29.5490   50.7180 C   0  0  0  0  0  0  0  0  0  0  0  0
   36.8070   29.4060   51.0560 C   0  0  0  0  0  0  0  0  0  0  0  0
   37.7510   29.9230   50.2170 N   0  0  0  0  0  0  0  0  0  0  0  0
   37.3710   30.5590   49.0890 C   0  0  0  0  0  0  0  0  0  0  0  0
   36.0450   30.7300   48.7080 N   0  0  0  0  0  0  0  0  0  0  0  0
   34.0230   30.3060   49.3170 H   0  0  0  0  0  0  0  0  0  0  0  0
   34.6460   29.1430   51.3760 H   0  0  0  0  0  0  0  0  0  0  0  0
   37.0420   28.8920   51.9630 H   0  0  0  0  0  0  0  0  0  0  0  0
  1  3  1  0  0  0  0
  2  1  2  0  0  0  0
  3  4  1  0  0  0  0
  3 21  1  0  0  0  0
  5  6  1  0  0  0  0
  5  1  1  0  0  0  0
  6 11  1  0  0  0  0
  7 12  1  0  0  0  0
  7  6  2  0  0  0  0
  8  7  1  0  0  0  0
  9  8  2  0  0  0  0
  9 10  1  0  0  0  0
 10  5  2  0  0  0  0
 13  8  1  0  0  0  0
 14  9  1  0  0  0  0
 15 14  2  0  0  0  0
 16 18  1  0  0  0  0
 16 14  1  0  0  0  0
 17 16  1  0  0  0  0
 19 22  1  6  0  0  0
 19 30  1  0  0  0  0
 20 19  1  0  0  0  0
 20 24  1  0  0  0  0
 21 25  1  6  0  0  0
 21 20  1  0  0  0  0
 21 19  1  0  0  0  0
 23 20  1  0  0  0  0
 26 27  1  0  0  0  0
 27 28  2  0  0  0  0
 27 33  1  0  0  0  0
 28 34  1  0  0  0  0
 29 28  1  0  0  0  0
 30 29  2  0  0  0  0
 31 30  1  0  0  0  0
 31 26  2  0  0  0  0
 32 26  1  0  0  0  0
M  END
>  <minimizedAffinity>
-5.02640676

>  <minimizedRMSD>
0.0319164395

$$$$
