REMARK  Name = 
REMARK  3 active torsions:
REMARK  status: ('A' for Active; 'I' for Inactive)
REMARK    1  A    between atoms: C_1  and  C_7
REMARK    2  A    between atoms: C_5  and  C_10
REMARK    3  A    between atoms: C_10  and  N_13
REMARK                            x       y       z     vdW  Elec       q    Type
REMARK                         _______ _______ _______ _____ _____    ______ ____
ROOT
ATOM      1  C   UNL     1      37.465  31.442  49.385  0.00  0.00    +0.000 A 
ATOM      2  C   UNL     1      37.872  32.724  49.706  0.00  0.00    +0.000 A 
ATOM      3  C   UNL     1      38.679  33.319  48.762  0.00  0.00    +0.000 A 
ATOM      4  N   UNL     1      39.031  32.672  47.610  0.00  0.00    +0.000 NA
ATOM      5  C   UNL     1      38.608  31.420  47.342  0.00  0.00    +0.000 A 
ATOM      6  N   UNL     1      37.811  30.802  48.252  0.00  0.00    +0.000 NA
ATOM      7  H   UNL     1      37.606  33.242  50.597  0.00  0.00    +0.000 HD
ATOM      8  H   UNL     1      39.055  34.324  48.914  0.00  0.00    +0.000 HD
ENDROOT
BRANCH   1   9
ATOM      9  C   UNL     1      36.553  30.721  50.355  0.00  0.00    +0.000 C 
ATOM     10  C   UNL     1      36.507  29.302  50.467  0.00  0.00    +0.000 C 
ATOM     11  C   UNL     1      37.351  30.044  51.491  0.00  0.00    +0.000 C 
ATOM     12  H   UNL     1      35.683  31.341  50.722  0.00  0.00    +0.000 HD
ATOM     13  H   UNL     1      37.136  28.652  49.791  0.00  0.00    +0.000 HD
ATOM     14  H   UNL     1      35.609  28.790  50.813  0.00  0.00    +0.000 HD
ATOM     15  H   UNL     1      36.882  30.108  52.493  0.00  0.00    +0.000 HD
ATOM     16  H   UNL     1      38.444  30.009  51.411  0.00  0.00    +0.000 HD
ENDBRANCH   1   9
BRANCH   5  17
ATOM     17  C   UNL     1      38.964  30.721  46.116  0.00  0.00    +0.000 C 
ATOM     18  H   UNL     1      38.644  29.675  46.144  0.00  0.00    +0.000 HD
ATOM     19  H   UNL     1      38.478  31.181  45.210  0.00  0.00    +0.000 HD
BRANCH  17  22
ATOM     20  C   UNL     1      41.065  31.548  45.030  0.00  0.00    +0.000 C 
ATOM     21  O   UNL     1      40.463  32.273  44.186  0.00  0.00    +0.000 OA
ATOM     22  N   UNL     1      40.411  30.751  45.998  0.00  0.00    +0.000 N 
ATOM     23  H   UNL     1      40.928  30.150  46.671  0.00  0.00    +0.000 HD
ATOM     24  N   UNL     1      42.499  31.517  45.022  0.00  0.00    +0.000 N 
ATOM     25  H   UNL     1      43.020  32.427  45.038  0.00  0.00    +0.000 HD
ATOM     26  H   UNL     1      43.034  30.631  45.000  0.00  0.00    +0.000 HD
ENDBRANCH  17  22
ENDBRANCH   5  17
TORSDOF 3
