
 OpenBabel03272510313D

 26 27  0  0  0  0  0  0  0  0999 V2000
   36.4300   31.0910   49.2140 C   0  0  0  0  0  0  0  0  0  0  0  0
   36.8860   32.1350   49.9970 C   0  0  0  0  0  0  0  0  0  0  0  0
   37.8600   32.9080   49.4050 C   0  0  0  0  0  0  0  0  0  0  0  0
   38.3180   32.6420   48.1450 N   0  0  0  0  0  0  0  0  0  0  0  0
   37.8410   31.6100   47.4200 C   0  0  0  0  0  0  0  0  0  0  0  0
   36.8800   30.8260   47.9730 N   0  0  0  0  0  0  0  0  0  0  0  0
   36.5390   32.3560   50.9790 H   0  0  0  0  0  0  0  0  0  0  0  0
   38.2880   33.7530   49.9330 H   0  0  0  0  0  0  0  0  0  0  0  0
   35.3390   30.2040   49.7750 C   0  0  0  0  0  0  0  0  0  0  0  0
   35.3050   28.7940   49.5740 C   0  0  0  0  0  0  0  0  0  0  0  0
   35.8720   29.2850   50.8960 C   0  0  0  0  0  0  0  0  0  0  0  0
   34.3920   30.7530   50.0540 H   0  0  0  0  0  0  0  0  0  0  0  0
   36.0890   28.2860   48.9400 H   0  0  0  0  0  0  0  0  0  0  0  0
   34.3660   28.2420   49.5890 H   0  0  0  0  0  0  0  0  0  0  0  0
   35.1850   29.1480   51.7540 H   0  0  0  0  0  0  0  0  0  0  0  0
   36.9550   29.2420   51.0640 H   0  0  0  0  0  0  0  0  0  0  0  0
   38.3100   31.3200   46.0720 C   0  0  0  0  0  0  0  0  0  0  0  0
   37.6610   30.5960   45.5700 H   0  0  0  0  0  0  0  0  0  0  0  0
   38.3260   32.2400   45.4230 H   0  0  0  0  0  0  0  0  0  0  0  0
   40.7890   31.4220   45.7250 C   0  0  0  0  0  0  0  0  0  0  0  0
   40.7660   32.5590   45.1700 O   0  0  0  0  0  0  0  0  0  0  0  0
   39.6370   30.7420   46.1840 N   0  0  0  0  0  0  0  0  0  0  0  0
   39.6800   29.8000   46.6230 H   0  0  0  0  0  0  0  0  0  0  0  0
   42.0500   30.7650   45.9100 N   0  0  0  0  0  0  0  0  0  0  0  0
   42.8910   31.3490   46.1400 H   0  0  0  0  0  0  0  0  0  0  0  0
   42.1580   29.7390   45.8230 H   0  0  0  0  0  0  0  0  0  0  0  0
  1  9  1  0  0  0  0
  1  2  1  0  0  0  0
  2  7  1  0  0  0  0
  3  8  1  0  0  0  0
  3  2  2  0  0  0  0
  4  3  1  0  0  0  0
  5  6  1  0  0  0  0
  5  4  2  0  0  0  0
  6  1  2  0  0  0  0
  9 12  1  0  0  0  0
  9 11  1  0  0  0  0
 10 14  1  0  0  0  0
 10  9  1  0  0  0  0
 10 11  1  0  0  0  0
 11 16  1  0  0  0  0
 11 15  1  0  0  0  0
 13 10  1  0  0  0  0
 17 22  1  0  0  0  0
 17  5  1  0  0  0  0
 18 17  1  0  0  0  0
 19 17  1  0  0  0  0
 20 24  1  0  0  0  0
 20 22  1  0  0  0  0
 21 20  2  0  0  0  0
 22 23  1  0  0  0  0
 24 25  1  0  0  0  0
 26 24  1  0  0  0  0
M  END
>  <minimizedAffinity>
-5.08861971

>  <minimizedRMSD>
1.1539042

$$$$
