
 OpenBabel03272510313D

 26 27  0  0  0  0  0  0  0  0999 V2000
   36.4300   31.0910   49.2140 C   0  0  0  0  0  0  0  0  0  0  0  0
   36.8870   32.1350   49.9970 C   0  0  0  0  0  0  0  0  0  0  0  0
   37.8610   32.9080   49.4050 C   0  0  0  0  0  0  0  0  0  0  0  0
   38.3190   32.6420   48.1450 N   0  0  0  0  0  0  0  0  0  0  0  0
   37.8410   31.6100   47.4200 C   0  0  0  0  0  0  0  0  0  0  0  0
   36.8800   30.8260   47.9730 N   0  0  0  0  0  0  0  0  0  0  0  0
   36.5400   32.3570   50.9790 H   0  0  0  0  0  0  0  0  0  0  0  0
   38.2890   33.7530   49.9320 H   0  0  0  0  0  0  0  0  0  0  0  0
   35.3390   30.2050   49.7760 C   0  0  0  0  0  0  0  0  0  0  0  0
   35.3040   28.7950   49.5740 C   0  0  0  0  0  0  0  0  0  0  0  0
   35.8720   29.2850   50.8960 C   0  0  0  0  0  0  0  0  0  0  0  0
   34.3920   30.7540   50.0560 H   0  0  0  0  0  0  0  0  0  0  0  0
   36.0880   28.2870   48.9390 H   0  0  0  0  0  0  0  0  0  0  0  0
   34.3640   28.2440   49.5900 H   0  0  0  0  0  0  0  0  0  0  0  0
   35.1850   29.1480   51.7550 H   0  0  0  0  0  0  0  0  0  0  0  0
   36.9550   29.2410   51.0630 H   0  0  0  0  0  0  0  0  0  0  0  0
   38.3090   31.3200   46.0720 C   0  0  0  0  0  0  0  0  0  0  0  0
   37.6610   30.5950   45.5710 H   0  0  0  0  0  0  0  0  0  0  0  0
   38.3250   32.2390   45.4220 H   0  0  0  0  0  0  0  0  0  0  0  0
   40.7880   31.4220   45.7250 C   0  0  0  0  0  0  0  0  0  0  0  0
   40.7650   32.5590   45.1710 O   0  0  0  0  0  0  0  0  0  0  0  0
   39.6370   30.7420   46.1840 N   0  0  0  0  0  0  0  0  0  0  0  0
   39.6800   29.8000   46.6220 H   0  0  0  0  0  0  0  0  0  0  0  0
   42.0500   30.7650   45.9100 N   0  0  0  0  0  0  0  0  0  0  0  0
   42.5620   30.4170   45.0630 H   0  0  0  0  0  0  0  0  0  0  0  0
   42.4700   30.6250   46.8450 H   0  0  0  0  0  0  0  0  0  0  0  0
  1  9  1  0  0  0  0
  1  2  1  0  0  0  0
  2  7  1  0  0  0  0
  3  8  1  0  0  0  0
  3  2  2  0  0  0  0
  4  3  1  0  0  0  0
  5  6  1  0  0  0  0
  5  4  2  0  0  0  0
  6  1  2  0  0  0  0
  9 12  1  0  0  0  0
  9 11  1  0  0  0  0
 10 14  1  0  0  0  0
 10  9  1  0  0  0  0
 10 11  1  0  0  0  0
 11 16  1  0  0  0  0
 11 15  1  0  0  0  0
 13 10  1  0  0  0  0
 17 22  1  0  0  0  0
 17  5  1  0  0  0  0
 18 17  1  0  0  0  0
 19 17  1  0  0  0  0
 20 24  1  0  0  0  0
 20 22  1  0  0  0  0
 21 20  2  0  0  0  0
 22 23  1  0  0  0  0
 24 26  1  0  0  0  0
 25 24  1  0  0  0  0
M  END
>  <minimizedAffinity>
-5.08833933

>  <minimizedRMSD>
1.15382636

$$$$
