REMARK  Name = 
REMARK  2 active torsions:
REMARK  status: ('A' for Active; 'I' for Inactive)
REMARK    1  A    between atoms: C_1  and  C_7
REMARK    2  A    between atoms: C_6  and  N_15
REMARK                            x       y       z     vdW  Elec       q    Type
REMARK                         _______ _______ _______ _____ _____    ______ ____
ROOT
ATOM      1  C   UNL     1      36.079  30.689  49.065  0.00  0.00    +0.000 C 
ATOM      2  C   UNL     1      37.019  31.642  49.741  0.00  0.00    +0.000 C 
ATOM      3  C   UNL     1      38.048  30.942  50.603  0.00  0.00    +0.000 C 
ATOM      4  C   UNL     1      37.355  30.075  51.654  0.00  0.00    +0.000 C 
ATOM      5  C   UNL     1      36.118  29.377  51.147  0.00  0.00    +0.000 C 
ATOM      6  C   UNL     1      36.187  29.308  49.612  0.00  0.00    +0.000 C 
ATOM      7  H   UNL     1      34.993  30.976  49.169  0.00  0.00    +0.000 HD
ATOM      8  H   UNL     1      36.368  32.189  50.503  0.00  0.00    +0.000 HD
ATOM      9  H   UNL     1      37.451  32.422  49.143  0.00  0.00    +0.000 HD
ATOM     10  H   UNL     1      38.619  31.711  51.123  0.00  0.00    +0.000 HD
ATOM     11  H   UNL     1      38.673  30.250  50.003  0.00  0.00    +0.000 HD
ATOM     12  H   UNL     1      38.123  29.350  52.003  0.00  0.00    +0.000 HD
ATOM     13  H   UNL     1      37.094  30.683  52.545  0.00  0.00    +0.000 HD
ATOM     14  H   UNL     1      36.059  28.327  51.493  0.00  0.00    +0.000 HD
ATOM     15  H   UNL     1      35.225  29.967  51.414  0.00  0.00    +0.000 HD
ATOM     16  H   UNL     1      37.160  28.905  49.480  0.00  0.00    +0.000 HD
ENDROOT
BRANCH   1  17
ATOM     17  C   UNL     1      36.323  30.648  47.599  0.00  0.00    +0.000 A 
ATOM     18  C   UNL     1      37.581  31.108  47.179  0.00  0.00    +0.000 A 
ATOM     19  C   UNL     1      37.831  31.076  45.803  0.00  0.00    +0.000 A 
ATOM     20  N   UNL     1      36.850  30.605  44.958  0.00  0.00    +0.000 NA
ATOM     21  C   UNL     1      35.636  30.167  45.423  0.00  0.00    +0.000 A 
ATOM     22  N   UNL     1      35.392  30.197  46.746  0.00  0.00    +0.000 NA
ATOM     23  H   UNL     1      38.422  31.485  47.725  0.00  0.00    +0.000 HD
ATOM     24  H   UNL     1      38.732  31.390  45.332  0.00  0.00    +0.000 HD
ATOM     25  H   UNL     1      34.907  29.808  44.706  0.00  0.00    +0.000 HD
ENDBRANCH   1  17
BRANCH   6  28
ATOM     26  C   UNL     1      33.941  28.200  49.244  0.00  0.00    +0.000 C 
ATOM     27  O   UNL     1      33.117  28.854  49.937  0.00  0.00    +0.000 OA
ATOM     28  N   UNL     1      35.331  28.349  49.017  0.00  0.00    +0.000 N 
ATOM     29  H   UNL     1      35.613  27.600  48.310  0.00  0.00    +0.000 HD
ATOM     30  N   UNL     1      33.066  27.208  48.711  0.00  0.00    +0.000 N 
ATOM     31  H   UNL     1      32.691  27.290  47.739  0.00  0.00    +0.000 HD
ATOM     32  H   UNL     1      32.760  26.367  49.246  0.00  0.00    +0.000 HD
ENDBRANCH   6  28
TORSDOF 2
