REMARK  Name = 
REMARK  2 active torsions:
REMARK  status: ('A' for Active; 'I' for Inactive)
REMARK    1  A    between atoms: C_3  and  C_10
REMARK    2  A    between atoms: C_7  and  N_16
REMARK                            x       y       z     vdW  Elec       q    Type
REMARK                         _______ _______ _______ _____ _____    ______ ____
ROOT
ATOM      1  F   UNL     1      38.461  30.437  47.308  0.00  0.00    +0.000 F 
ATOM      2  C   UNL     1      38.756  31.667  47.787  0.00  0.00    +0.000 A 
ATOM      3  C   UNL     1      38.236  32.078  48.997  0.00  0.00    +0.000 A 
ATOM      4  C   UNL     1      38.572  33.339  49.430  0.00  0.00    +0.000 A 
ATOM      5  C   UNL     1      39.392  34.168  48.699  0.00  0.00    +0.000 A 
ATOM      6  C   UNL     1      39.905  33.751  47.496  0.00  0.00    +0.000 A 
ATOM      7  C   UNL     1      39.582  32.481  47.033  0.00  0.00    +0.000 A 
ATOM      8  H   UNL     1      38.164  33.661  50.379  0.00  0.00    +0.000 HD
ATOM      9  H   UNL     1      39.637  35.142  49.058  0.00  0.00    +0.000 HD
ATOM     10  H   UNL     1      40.549  34.408  46.925  0.00  0.00    +0.000 HD
ENDROOT
BRANCH   3  13
ATOM     11  C   UNL     1      36.930  29.597  51.532  0.00  0.00    +0.000 A 
ATOM     12  C   UNL     1      37.776  30.480  50.857  0.00  0.00    +0.000 A 
ATOM     13  C   UNL     1      37.376  31.153  49.720  0.00  0.00    +0.000 A 
ATOM     14  N   UNL     1      36.096  30.907  49.285  0.00  0.00    +0.000 NA
ATOM     15  C   UNL     1      35.283  30.056  49.937  0.00  0.00    +0.000 A 
ATOM     16  N   UNL     1      35.684  29.419  51.027  0.00  0.00    +0.000 NA
ATOM     17  H   UNL     1      37.276  29.082  52.426  0.00  0.00    +0.000 HD
ATOM     18  H   UNL     1      38.787  30.651  51.231  0.00  0.00    +0.000 HD
ATOM     19  H   UNL     1      34.305  29.959  49.485  0.00  0.00    +0.000 HD
ENDBRANCH   3  13
BRANCH   7  22
ATOM     20  C   UNL     1      39.187  32.158  44.687  0.00  0.00    +0.000 C 
ATOM     21  O   UNL     1      38.081  32.713  44.991  0.00  0.00    +0.000 OA
ATOM     22  N   UNL     1      40.091  31.997  45.783  0.00  0.00    +0.000 N 
ATOM     23  H   UNL     1      41.010  31.557  45.593  0.00  0.00    +0.000 HD
ATOM     24  N   UNL     1      39.456  31.754  43.373  0.00  0.00    +0.000 N 
ATOM     25  H   UNL     1      39.961  32.348  42.709  0.00  0.00    +0.000 HD
ATOM     26  H   UNL     1      39.143  30.835  43.052  0.00  0.00    +0.000 HD
ENDBRANCH   7  22
TORSDOF 2
