REMARK  Name = 
REMARK  8 active torsions:
REMARK  status: ('A' for Active; 'I' for Inactive)
REMARK    1  A    between atoms: C_1  and  C_4
REMARK    2  A    between atoms: C_1  and  C_14
REMARK    3  A    between atoms: C_7  and  C_9
REMARK    4  A    between atoms: C_8  and  O_10
REMARK    5  A    between atoms: O_10  and  C_11
REMARK    6  A    between atoms: C_14  and  C_16
REMARK    7  A    between atoms: C_15  and  C_21
REMARK    8  A    between atoms: C_23  and  C_24
REMARK                            x       y       z     vdW  Elec       q    Type
REMARK                         _______ _______ _______ _____ _____    ______ ____
ROOT
ATOM      1  C   UNL     1      32.742  27.879  48.727  0.00  0.00    +0.000 C 
ATOM      2  H   UNL     1      33.093  27.209  49.557  0.00  0.00    +0.000 HD
ATOM      3  H   UNL     1      32.281  28.759  49.239  0.00  0.00    +0.000 HD
ENDROOT
BRANCH   1   5
ATOM      4  C   UNL     1      30.426  27.215  48.378  0.00  0.00    +0.000 A 
ATOM      5  C   UNL     1      31.735  27.210  47.957  0.00  0.00    +0.000 A 
ATOM      6  C   UNL     1      31.958  26.571  46.804  0.00  0.00    +0.000 A 
ATOM      7  N   UNL     1      30.979  25.977  46.106  0.00  0.00    +0.000 NA
ATOM      8  C   UNL     1      29.686  25.966  46.493  0.00  0.00    +0.000 A 
ATOM      9  N   UNL     1      29.400  26.586  47.634  0.00  0.00    +0.000 NA
ATOM     10  H   UNL     1      32.937  26.485  46.352  0.00  0.00    +0.000 HD
ATOM     11  H   UNL     1      28.869  25.504  45.966  0.00  0.00    +0.000 HD
BRANCH   4  12
ATOM     12  C   UNL     1      29.985  27.786  49.686  0.00  0.00    +0.000 C 
ATOM     13  C   UNL     1      28.913  28.759  49.700  0.00  0.00    +0.000 C 
ATOM     14  C   UNL     1      28.635  27.287  50.117  0.00  0.00    +0.000 C 
ATOM     15  H   UNL     1      30.790  27.990  50.400  0.00  0.00    +0.000 HD
ATOM     16  H   UNL     1      28.483  29.100  48.741  0.00  0.00    +0.000 HD
ATOM     17  H   UNL     1      28.858  29.529  50.491  0.00  0.00    +0.000 HD
ATOM     18  H   UNL     1      27.926  26.819  49.374  0.00  0.00    +0.000 HD
BRANCH  14  19
ATOM     19  C   UNL     1      28.332  27.161  51.548  0.00  0.00    +0.000 C 
ATOM     20  O   UNL     1      27.228  26.707  51.815  0.00  0.00    +0.000 OA
ATOM     21  N   UNL     1      29.351  27.579  52.469  0.00  0.00    +0.000 N 
ATOM     22  H   UNL     1      29.167  28.466  53.006  0.00  0.00    +0.000 HD
ATOM     23  H   UNL     1      29.925  26.753  52.211  0.00  0.00    +0.000 HD
ENDBRANCH  14  19
ENDBRANCH   4  12
ENDBRANCH   1   5
BRANCH   1  24
ATOM     24  C   UNL     1      33.909  28.407  47.950  0.00  0.00    +0.000 C 
ATOM     25  H   UNL     1      33.463  29.051  47.162  0.00  0.00    +0.000 HD
ATOM     26  H   UNL     1      34.337  27.526  47.383  0.00  0.00    +0.000 HD
BRANCH  24  29
ATOM     27  F   UNL     1      35.204  30.617  46.888  0.00  0.00    +0.000 F 
ATOM     28  C   UNL     1      35.584  30.090  48.104  0.00  0.00    +0.000 A 
ATOM     29  C   UNL     1      34.958  28.982  48.699  0.00  0.00    +0.000 A 
ATOM     30  C   UNL     1      35.471  28.642  49.873  0.00  0.00    +0.000 A 
ATOM     31  C   UNL     1      36.508  29.270  50.492  0.00  0.00    +0.000 A 
ATOM     32  C   UNL     1      37.135  30.368  49.908  0.00  0.00    +0.000 A 
ATOM     33  C   UNL     1      36.616  30.709  48.725  0.00  0.00    +0.000 A 
ATOM     34  H   UNL     1      35.005  27.767  50.382  0.00  0.00    +0.000 HD
ATOM     35  H   UNL     1      36.832  28.879  51.469  0.00  0.00    +0.000 HD
BRANCH  32  36
ATOM     36  C   UNL     1      38.249  31.040  50.570  0.00  0.00    +0.000 C 
ATOM     37  H   UNL     1      38.002  32.050  50.918  0.00  0.00    +0.000 HD
ATOM     38  H   UNL     1      38.574  30.473  51.476  0.00  0.00    +0.000 HD
ATOM     39  H   UNL     1      39.124  31.164  49.883  0.00  0.00    +0.000 HD
ENDBRANCH  32  36
BRANCH  33  40
ATOM     40  O   UNL     1      37.271  31.846  48.104  0.00  0.00    +0.000 OA
BRANCH  40  41
ATOM     41  C   UNL     1      38.371  31.560  47.373  0.00  0.00    +0.000 C 
ATOM     42  O   UNL     1      39.231  32.504  47.369  0.00  0.00    +0.000 OA
ATOM     43  N   UNL     1      38.792  30.475  46.618  0.00  0.00    +0.000 N 
ATOM     44  H   UNL     1      39.786  30.175  46.470  0.00  0.00    +0.000 HD
ATOM     45  H   UNL     1      39.171  29.674  46.064  0.00  0.00    +0.000 HD
ENDBRANCH  40  41
ENDBRANCH  33  40
ENDBRANCH  24  29
ENDBRANCH   1  24
TORSDOF 8
