
 OpenBabel03272507253D

 27 28  0  0  1  0  0  0  0  0999 V2000
   40.0740   25.8870   33.0280 C   0  0  0  0  0  0  0  0  0  0  0  0
   39.3270   25.3900   34.1060 C   0  0  0  0  0  0  0  0  0  0  0  0
   39.9800   24.6150   35.0760 C   0  0  0  0  0  0  0  0  0  0  0  0
   41.2980   24.3900   34.9170 N   0  0  0  0  0  0  0  0  0  0  0  0
   42.0000   24.8820   33.8640 C   0  0  0  0  0  0  0  0  0  0  0  0
   41.3780   25.6240   32.9340 N   0  0  0  0  0  0  0  0  0  0  0  0
   39.2860   24.0860   36.1730 N   0  0  0  0  0  0  0  0  0  0  0  0
   38.0830   24.6740   36.7660 C   0  0  0  0  0  0  0  0  0  0  0  0
   37.7950   23.9010   38.0080 C   0  0  0  0  0  0  0  0  0  0  0  0
   39.1320   23.3070   38.3130 C   0  0  0  0  0  0  0  0  0  0  0  0
   39.5710   22.9020   36.9220 C   0  0  2  0  0  0  0  0  0  0  0  0
   39.5550   26.4820   32.2870 H   0  0  0  0  0  0  0  0  0  0  0  0
   38.2600   25.5950   34.1990 H   0  0  0  0  0  0  0  0  0  0  0  0
   43.0740   24.6510   33.8100 H   0  0  0  0  0  0  0  0  0  0  0  0
   37.2700   24.4660   36.0180 H   0  0  0  0  0  0  0  0  0  0  0  0
   38.1590   25.7550   36.8720 H   0  0  0  0  0  0  0  0  0  0  0  0
   37.5340   24.6370   38.8220 H   0  0  0  0  0  0  0  0  0  0  0  0
   37.0040   23.1520   37.9430 H   0  0  0  0  0  0  0  0  0  0  0  0
   39.0490   22.3690   38.9320 H   0  0  0  0  0  0  0  0  0  0  0  0
   39.8250   24.0410   38.7570 H   0  0  0  0  0  0  0  0  0  0  0  0
   40.9400   22.3610   36.8880 C   0  0  0  0  0  0  0  0  0  0  0  0
   41.0190   21.4060   37.8960 F   0  0  0  0  0  0  0  0  0  0  0  0
   41.9380   23.2630   37.1250 F   0  0  0  0  0  0  0  0  0  0  0  0
   41.0750   21.6630   35.7030 F   0  0  0  0  0  0  0  0  0  0  0  0
   38.6100   21.9000   36.4390 N   0  0  0  0  0  0  0  0  0  0  0  0
   39.1530   21.0680   36.1010 H   0  0  0  0  0  0  0  0  0  0  0  0
   38.1340   22.3030   35.6230 H   0  0  0  0  0  0  0  0  0  0  0  0
  1  2  1  0  0  0  0
  2 13  1  0  0  0  0
  2  3  2  0  0  0  0
  3  7  1  0  0  0  0
  4  3  1  0  0  0  0
  5  4  2  0  0  0  0
  6  1  2  0  0  0  0
  6  5  1  0  0  0  0
  7  8  1  0  0  0  0
  7 11  1  0  0  0  0
  8 16  1  0  0  0  0
  8  9  1  0  0  0  0
  9 10  1  0  0  0  0
  9 17  1  0  0  0  0
 10 20  1  0  0  0  0
 10 19  1  0  0  0  0
 11 25  1  6  0  0  0
 11 10  1  0  0  0  0
 12  1  1  0  0  0  0
 14  5  1  0  0  0  0
 15  8  1  0  0  0  0
 18  9  1  0  0  0  0
 21 11  1  0  0  0  0
 21 23  1  0  0  0  0
 21 22  1  0  0  0  0
 24 21  1  0  0  0  0
 26 25  1  0  0  0  0
 27 25  1  0  0  0  0
M  END
>  <minimizedAffinity>
-4.66986036

$$$$

 OpenBabel03272507253D

 27 28  0  0  1  0  0  0  0  0999 V2000
   36.9920   23.3850   31.1180 C   0  0  0  0  0  0  0  0  0  0  0  0
   37.5960   23.3410   32.3830 C   0  0  0  0  0  0  0  0  0  0  0  0
   37.4940   24.4640   33.2170 C   0  0  0  0  0  0  0  0  0  0  0  0
   36.8150   25.5300   32.7530 N   0  0  0  0  0  0  0  0  0  0  0  0
   36.2380   25.5500   31.5240 C   0  0  0  0  0  0  0  0  0  0  0  0
   36.3340   24.4760   30.7250 N   0  0  0  0  0  0  0  0  0  0  0  0
   38.0820   24.4820   34.4890 N   0  0  0  0  0  0  0  0  0  0  0  0
   38.3280   23.2980   35.3160 C   0  0  0  0  0  0  0  0  0  0  0  0
   38.7870   23.7920   36.6460 C   0  0  0  0  0  0  0  0  0  0  0  0
   38.2530   25.1880   36.6540 C   0  0  0  0  0  0  0  0  0  0  0  0
   38.5660   25.6040   35.2330 C   0  0  2  0  0  0  0  0  0  0  0  0
   37.0800   22.5100   30.4870 H   0  0  0  0  0  0  0  0  0  0  0  0
   38.1380   22.4580   32.7220 H   0  0  0  0  0  0  0  0  0  0  0  0
   35.7010   26.4620   31.2240 H   0  0  0  0  0  0  0  0  0  0  0  0
   39.1860   22.7760   34.8110 H   0  0  0  0  0  0  0  0  0  0  0  0
   37.4830   22.6120   35.3160 H   0  0  0  0  0  0  0  0  0  0  0  0
   38.2510   23.1960   37.4400 H   0  0  0  0  0  0  0  0  0  0  0  0
   39.8610   23.7490   36.8360 H   0  0  0  0  0  0  0  0  0  0  0  0
   38.8350   25.8610   37.3440 H   0  0  0  0  0  0  0  0  0  0  0  0
   37.1690   25.2200   36.8540 H   0  0  0  0  0  0  0  0  0  0  0  0
   38.0490   26.9430   34.9010 C   0  0  0  0  0  0  0  0  0  0  0  0
   38.5320   27.8110   35.8750 F   0  0  0  0  0  0  0  0  0  0  0  0
   36.6890   27.0690   34.9040 F   0  0  0  0  0  0  0  0  0  0  0  0
   38.6540   27.3340   33.7220 F   0  0  0  0  0  0  0  0  0  0  0  0
   40.0270   25.5650   35.0810 N   0  0  0  0  0  0  0  0  0  0  0  0
   40.3360   26.4860   34.6840 H   0  0  0  0  0  0  0  0  0  0  0  0
   40.2430   24.8450   34.3810 H   0  0  0  0  0  0  0  0  0  0  0  0
  1  2  1  0  0  0  0
  2 13  1  0  0  0  0
  2  3  2  0  0  0  0
  3  7  1  0  0  0  0
  4  3  1  0  0  0  0
  5  4  2  0  0  0  0
  6  1  2  0  0  0  0
  6  5  1  0  0  0  0
  7 11  1  0  0  0  0
  7  8  1  0  0  0  0
  8 16  1  0  0  0  0
  8  9  1  0  0  0  0
  9 10  1  0  0  0  0
  9 18  1  0  0  0  0
  9 17  1  0  0  0  0
 10 20  1  0  0  0  0
 10 19  1  0  0  0  0
 11 21  1  6  0  0  0
 11 10  1  0  0  0  0
 12  1  1  0  0  0  0
 14  5  1  0  0  0  0
 15  8  1  0  0  0  0
 21 23  1  0  0  0  0
 21 22  1  0  0  0  0
 24 21  1  0  0  0  0
 25 11  1  0  0  0  0
 26 25  1  0  0  0  0
 27 25  1  0  0  0  0
M  END
>  <minimizedAffinity>
-4.40405464

$$$$

 OpenBabel03272507253D

 27 28  0  0  1  0  0  0  0  0999 V2000
   39.5380   24.3570   35.3580 C   0  0  0  0  0  0  0  0  0  0  0  0
   38.8020   24.9050   34.2970 C   0  0  0  0  0  0  0  0  0  0  0  0
   37.8590   24.0970   33.6460 C   0  0  0  0  0  0  0  0  0  0  0  0
   37.7100   22.8320   34.0790 N   0  0  0  0  0  0  0  0  0  0  0  0
   38.4340   22.3230   35.1090 C   0  0  0  0  0  0  0  0  0  0  0  0
   39.3380   23.0940   35.7340 N   0  0  0  0  0  0  0  0  0  0  0  0
   37.0970   24.5860   32.5760 N   0  0  0  0  0  0  0  0  0  0  0  0
   36.7370   25.9920   32.3760 C   0  0  0  0  0  0  0  0  0  0  0  0
   35.7780   26.0320   31.2350 C   0  0  0  0  0  0  0  0  0  0  0  0
   35.2540   24.6320   31.2290 C   0  0  0  0  0  0  0  0  0  0  0  0
   36.5340   23.8640   31.4780 C   0  0  2  0  0  0  0  0  0  0  0  0
   40.2630   24.9940   35.8500 H   0  0  0  0  0  0  0  0  0  0  0  0
   38.9520   25.9360   33.9760 H   0  0  0  0  0  0  0  0  0  0  0  0
   38.2500   21.2780   35.4000 H   0  0  0  0  0  0  0  0  0  0  0  0
   37.6950   26.4860   32.0570 H   0  0  0  0  0  0  0  0  0  0  0  0
   36.4150   26.4710   33.2990 H   0  0  0  0  0  0  0  0  0  0  0  0
   34.9380   26.7310   31.5130 H   0  0  0  0  0  0  0  0  0  0  0  0
   36.1850   26.3350   30.2690 H   0  0  0  0  0  0  0  0  0  0  0  0
   34.8640   24.3290   30.2170 H   0  0  0  0  0  0  0  0  0  0  0  0
   34.5160   24.4580   32.0310 H   0  0  0  0  0  0  0  0  0  0  0  0
   36.3120   22.4160   31.6280 C   0  0  0  0  0  0  0  0  0  0  0  0
   35.4940   22.0230   30.5750 F   0  0  0  0  0  0  0  0  0  0  0  0
   35.6820   22.0310   32.7780 F   0  0  0  0  0  0  0  0  0  0  0  0
   37.5260   21.7910   31.4100 F   0  0  0  0  0  0  0  0  0  0  0  0
   37.4280   24.1310   30.3420 N   0  0  0  0  0  0  0  0  0  0  0  0
   37.7620   23.2090   29.9690 H   0  0  0  0  0  0  0  0  0  0  0  0
   38.2490   24.6260   30.7090 H   0  0  0  0  0  0  0  0  0  0  0  0
  1  6  1  0  0  0  0
  1 12  1  0  0  0  0
  2  1  2  0  0  0  0
  3  4  2  0  0  0  0
  3  2  1  0  0  0  0
  4  5  1  0  0  0  0
  5 14  1  0  0  0  0
  5  6  2  0  0  0  0
  7  3  1  0  0  0  0
  8  7  1  0  0  0  0
  8 16  1  0  0  0  0
  9 17  1  0  0  0  0
  9  8  1  0  0  0  0
 10  9  1  0  0  0  0
 10 11  1  0  0  0  0
 10 20  1  0  0  0  0
 11 25  1  6  0  0  0
 11 21  1  0  0  0  0
 11  7  1  0  0  0  0
 13  2  1  0  0  0  0
 15  8  1  0  0  0  0
 18  9  1  0  0  0  0
 19 10  1  0  0  0  0
 21 23  1  0  0  0  0
 22 21  1  0  0  0  0
 24 21  1  0  0  0  0
 25 27  1  0  0  0  0
 26 25  1  0  0  0  0
M  END
>  <minimizedAffinity>
-4.3648138

$$$$

 OpenBabel03272507253D

 27 28  0  0  1  0  0  0  0  0999 V2000
   37.7380   28.3400   30.6180 C   0  0  0  0  0  0  0  0  0  0  0  0
   38.6030   27.5170   31.3530 C   0  0  0  0  0  0  0  0  0  0  0  0
   38.2320   27.1420   32.6530 C   0  0  0  0  0  0  0  0  0  0  0  0
   37.0560   27.5960   33.1250 N   0  0  0  0  0  0  0  0  0  0  0  0
   36.2350   28.3930   32.3940 C   0  0  0  0  0  0  0  0  0  0  0  0
   36.5880   28.7530   31.1500 N   0  0  0  0  0  0  0  0  0  0  0  0
   39.0570   26.3260   33.4390 N   0  0  0  0  0  0  0  0  0  0  0  0
   40.0080   25.3420   32.9150 C   0  0  0  0  0  0  0  0  0  0  0  0
   40.5260   24.5800   34.0870 C   0  0  0  0  0  0  0  0  0  0  0  0
   39.4500   24.8080   35.0980 C   0  0  0  0  0  0  0  0  0  0  0  0
   39.1660   26.2760   34.8640 C   0  0  2  0  0  0  0  0  0  0  0  0
   38.0400   28.6200   29.6170 H   0  0  0  0  0  0  0  0  0  0  0  0
   39.5480   27.1690   30.9350 H   0  0  0  0  0  0  0  0  0  0  0  0
   35.2910   28.7190   32.8560 H   0  0  0  0  0  0  0  0  0  0  0  0
   40.8450   25.9600   32.4890 H   0  0  0  0  0  0  0  0  0  0  0  0
   39.5880   24.7560   32.0990 H   0  0  0  0  0  0  0  0  0  0  0  0
   40.5360   23.4870   33.8110 H   0  0  0  0  0  0  0  0  0  0  0  0
   41.5150   24.8620   34.4510 H   0  0  0  0  0  0  0  0  0  0  0  0
   39.8280   24.6960   36.1540 H   0  0  0  0  0  0  0  0  0  0  0  0
   38.5570   24.1890   34.9070 H   0  0  0  0  0  0  0  0  0  0  0  0
   38.0420   26.7780   35.6730 C   0  0  0  0  0  0  0  0  0  0  0  0
   38.2950   26.4010   36.9880 F   0  0  0  0  0  0  0  0  0  0  0  0
   36.8120   26.2780   35.3520 F   0  0  0  0  0  0  0  0  0  0  0  0
   38.1150   28.1580   35.6610 F   0  0  0  0  0  0  0  0  0  0  0  0
   40.3970   27.0120   35.1820 N   0  0  0  0  0  0  0  0  0  0  0  0
   40.1510   27.7820   35.8510 H   0  0  0  0  0  0  0  0  0  0  0  0
   40.7210   27.4550   34.3150 H   0  0  0  0  0  0  0  0  0  0  0  0
  1  6  2  0  0  0  0
  1  2  1  0  0  0  0
  2  3  2  0  0  0  0
  3  4  1  0  0  0  0
  3  7  1  0  0  0  0
  5 14  1  0  0  0  0
  5  4  2  0  0  0  0
  6  5  1  0  0  0  0
  7 11  1  0  0  0  0
  8  7  1  0  0  0  0
  8  9  1  0  0  0  0
  9 18  1  0  0  0  0
  9 10  1  0  0  0  0
 10 19  1  0  0  0  0
 11 10  1  0  0  0  0
 11 25  1  1  0  0  0
 11 21  1  0  0  0  0
 12  1  1  0  0  0  0
 13  2  1  0  0  0  0
 15  8  1  0  0  0  0
 16  8  1  0  0  0  0
 17  9  1  0  0  0  0
 20 10  1  0  0  0  0
 21 22  1  0  0  0  0
 23 21  1  0  0  0  0
 24 21  1  0  0  0  0
 25 26  1  0  0  0  0
 27 25  1  0  0  0  0
M  END
>  <minimizedAffinity>
-4.23900223

$$$$

 OpenBabel03272507253D

 27 28  0  0  1  0  0  0  0  0999 V2000
   35.6980   24.8360   30.9630 C   0  0  0  0  0  0  0  0  0  0  0  0
   36.5820   24.2760   31.8970 C   0  0  0  0  0  0  0  0  0  0  0  0
   37.2010   25.1230   32.8280 C   0  0  0  0  0  0  0  0  0  0  0  0
   36.9090   26.4360   32.7740 N   0  0  0  0  0  0  0  0  0  0  0  0
   36.0490   26.9550   31.8590 C   0  0  0  0  0  0  0  0  0  0  0  0
   35.4560   26.1470   30.9670 N   0  0  0  0  0  0  0  0  0  0  0  0
   38.0980   24.6240   33.7830 N   0  0  0  0  0  0  0  0  0  0  0  0
   38.0780   23.2620   34.3210 C   0  0  0  0  0  0  0  0  0  0  0  0
   39.0750   23.2230   35.4290 C   0  0  0  0  0  0  0  0  0  0  0  0
   39.1830   24.6690   35.7910 C   0  0  0  0  0  0  0  0  0  0  0  0
   39.1950   25.2920   34.4120 C   0  0  2  0  0  0  0  0  0  0  0  0
   35.2290   24.1680   30.2510 H   0  0  0  0  0  0  0  0  0  0  0  0
   36.7920   23.2070   31.9090 H   0  0  0  0  0  0  0  0  0  0  0  0
   35.8670   28.0390   31.8840 H   0  0  0  0  0  0  0  0  0  0  0  0
   38.4540   22.6200   33.4770 H   0  0  0  0  0  0  0  0  0  0  0  0
   37.0700   22.9270   34.5600 H   0  0  0  0  0  0  0  0  0  0  0  0
   38.6090   22.6690   36.2940 H   0  0  0  0  0  0  0  0  0  0  0  0
   40.0400   22.7710   35.1990 H   0  0  0  0  0  0  0  0  0  0  0  0
   40.1660   24.9110   36.2840 H   0  0  0  0  0  0  0  0  0  0  0  0
   38.3210   25.0180   36.3840 H   0  0  0  0  0  0  0  0  0  0  0  0
   39.1940   26.7640   34.4480 C   0  0  0  0  0  0  0  0  0  0  0  0
   40.2490   27.1460   35.2700 F   0  0  0  0  0  0  0  0  0  0  0  0
   38.0690   27.3420   34.9630 F   0  0  0  0  0  0  0  0  0  0  0  0
   39.5300   27.2050   33.1830 F   0  0  0  0  0  0  0  0  0  0  0  0
   40.3950   24.7960   33.7220 N   0  0  0  0  0  0  0  0  0  0  0  0
   40.9160   25.6240   33.3440 H   0  0  0  0  0  0  0  0  0  0  0  0
   40.0780   24.2430   32.9170 H   0  0  0  0  0  0  0  0  0  0  0  0
  1  6  2  0  0  0  0
  1  2  1  0  0  0  0
  2 13  1  0  0  0  0
  2  3  2  0  0  0  0
  3  7  1  0  0  0  0
  4  3  1  0  0  0  0
  5 14  1  0  0  0  0
  5  4  2  0  0  0  0
  6  5  1  0  0  0  0
  7  8  1  0  0  0  0
  7 11  1  0  0  0  0
  8 16  1  0  0  0  0
  8  9  1  0  0  0  0
  9 10  1  0  0  0  0
  9 17  1  0  0  0  0
 10 19  1  0  0  0  0
 10 20  1  0  0  0  0
 11 25  1  6  0  0  0
 11 21  1  0  0  0  0
 11 10  1  0  0  0  0
 12  1  1  0  0  0  0
 15  8  1  0  0  0  0
 18  9  1  0  0  0  0
 21 23  1  0  0  0  0
 21 22  1  0  0  0  0
 24 21  1  0  0  0  0
 26 25  1  0  0  0  0
 27 25  1  0  0  0  0
M  END
>  <minimizedAffinity>
-4.23506165

$$$$

 OpenBabel03272507253D

 27 28  0  0  1  0  0  0  0  0999 V2000
   36.5780   26.3790   32.0130 C   0  0  0  0  0  0  0  0  0  0  0  0
   37.2450   25.2120   32.4130 C   0  0  0  0  0  0  0  0  0  0  0  0
   36.7320   23.9720   32.0070 C   0  0  0  0  0  0  0  0  0  0  0  0
   35.6190   23.9700   31.2490 N   0  0  0  0  0  0  0  0  0  0  0  0
   34.9910   25.1140   30.8740 C   0  0  0  0  0  0  0  0  0  0  0  0
   35.4800   26.3020   31.2610 N   0  0  0  0  0  0  0  0  0  0  0  0
   37.3510   22.7700   32.3810 N   0  0  0  0  0  0  0  0  0  0  0  0
   38.7770   22.6190   32.6780 C   0  0  0  0  0  0  0  0  0  0  0  0
   39.0290   21.1590   32.8420 C   0  0  0  0  0  0  0  0  0  0  0  0
   37.8750   20.5660   32.1000 C   0  0  0  0  0  0  0  0  0  0  0  0
   36.7600   21.4800   32.5610 C   0  0  2  0  0  0  0  0  0  0  0  0
   36.9870   27.3280   32.3350 H   0  0  0  0  0  0  0  0  0  0  0  0
   38.1440   25.2560   33.0280 H   0  0  0  0  0  0  0  0  0  0  0  0
   34.0870   25.0230   30.2540 H   0  0  0  0  0  0  0  0  0  0  0  0
   38.9110   23.1210   33.6760 H   0  0  0  0  0  0  0  0  0  0  0  0
   39.4060   23.1450   31.9630 H   0  0  0  0  0  0  0  0  0  0  0  0
   39.9800   20.9080   32.2900 H   0  0  0  0  0  0  0  0  0  0  0  0
   39.1070   20.7910   33.8660 H   0  0  0  0  0  0  0  0  0  0  0  0
   37.6310   19.5250   32.4550 H   0  0  0  0  0  0  0  0  0  0  0  0
   38.0100   20.6140   31.0070 H   0  0  0  0  0  0  0  0  0  0  0  0
   35.4760   21.1970   31.8980 C   0  0  0  0  0  0  0  0  0  0  0  0
   35.2090   19.8470   32.1020 F   0  0  0  0  0  0  0  0  0  0  0  0
   35.4500   21.4010   30.5470 F   0  0  0  0  0  0  0  0  0  0  0  0
   34.4960   21.8790   32.5940 F   0  0  0  0  0  0  0  0  0  0  0  0
   36.6350   21.3140   34.0160 N   0  0  0  0  0  0  0  0  0  0  0  0
   35.6270   21.1180   34.2340 H   0  0  0  0  0  0  0  0  0  0  0  0
   36.8690   22.2160   34.4470 H   0  0  0  0  0  0  0  0  0  0  0  0
  1 12  1  0  0  0  0
  1  2  1  0  0  0  0
  2 13  1  0  0  0  0
  3  7  1  0  0  0  0
  3  2  2  0  0  0  0
  4  3  1  0  0  0  0
  5  4  2  0  0  0  0
  5  6  1  0  0  0  0
  6  1  2  0  0  0  0
  7 11  1  0  0  0  0
  7  8  1  0  0  0  0
  8  9  1  0  0  0  0
  8 15  1  0  0  0  0
  9 18  1  0  0  0  0
 10 19  1  0  0  0  0
 10 11  1  0  0  0  0
 10  9  1  0  0  0  0
 11 21  1  6  0  0  0
 11 25  1  0  0  0  0
 14  5  1  0  0  0  0
 16  8  1  0  0  0  0
 17  9  1  0  0  0  0
 20 10  1  0  0  0  0
 21 22  1  0  0  0  0
 21 24  1  0  0  0  0
 23 21  1  0  0  0  0
 25 26  1  0  0  0  0
 25 27  1  0  0  0  0
M  END
>  <minimizedAffinity>
-4.22398376

$$$$

 OpenBabel03272507253D

 27 28  0  0  1  0  0  0  0  0999 V2000
   31.7060   29.4790   33.9570 C   0  0  0  0  0  0  0  0  0  0  0  0
   31.9770   30.5630   34.8040 C   0  0  0  0  0  0  0  0  0  0  0  0
   33.2460   31.1590   34.7480 C   0  0  0  0  0  0  0  0  0  0  0  0
   34.1390   30.6540   33.8760 N   0  0  0  0  0  0  0  0  0  0  0  0
   33.8530   29.6030   33.0650 C   0  0  0  0  0  0  0  0  0  0  0  0
   32.6400   29.0300   33.1170 N   0  0  0  0  0  0  0  0  0  0  0  0
   33.5780   32.2420   35.5730 N   0  0  0  0  0  0  0  0  0  0  0  0
   32.6210   33.2130   36.1090 C   0  0  0  0  0  0  0  0  0  0  0  0
   33.4210   34.2850   36.7690 C   0  0  0  0  0  0  0  0  0  0  0  0
   34.7460   34.1330   36.0960 C   0  0  0  0  0  0  0  0  0  0  0  0
   34.8640   32.6240   36.0690 C   0  0  2  0  0  0  0  0  0  0  0  0
   30.7230   29.0290   34.0130 H   0  0  0  0  0  0  0  0  0  0  0  0
   31.2270   30.9430   35.4960 H   0  0  0  0  0  0  0  0  0  0  0  0
   34.6400   29.2530   32.3820 H   0  0  0  0  0  0  0  0  0  0  0  0
   32.0590   32.6450   36.9010 H   0  0  0  0  0  0  0  0  0  0  0  0
   31.8970   33.5340   35.3630 H   0  0  0  0  0  0  0  0  0  0  0  0
   32.9780   35.2780   36.4720 H   0  0  0  0  0  0  0  0  0  0  0  0
   33.4900   34.2390   37.8570 H   0  0  0  0  0  0  0  0  0  0  0  0
   35.5910   34.5310   36.7270 H   0  0  0  0  0  0  0  0  0  0  0  0
   34.7510   34.5560   35.0770 H   0  0  0  0  0  0  0  0  0  0  0  0
   36.0620   32.1550   35.3530 C   0  0  0  0  0  0  0  0  0  0  0  0
   37.1320   32.9050   35.8270 F   0  0  0  0  0  0  0  0  0  0  0  0
   36.0410   32.3180   33.9960 F   0  0  0  0  0  0  0  0  0  0  0  0
   36.3050   30.8590   35.7650 F   0  0  0  0  0  0  0  0  0  0  0  0
   34.8890   32.1660   37.4660 N   0  0  0  0  0  0  0  0  0  0  0  0
   35.7200   31.5370   37.5850 H   0  0  0  0  0  0  0  0  0  0  0  0
   34.0500   31.5930   37.6150 H   0  0  0  0  0  0  0  0  0  0  0  0
  1 12  1  0  0  0  0
  1  2  1  0  0  0  0
  2 13  1  0  0  0  0
  3  2  2  0  0  0  0
  3  7  1  0  0  0  0
  4  3  1  0  0  0  0
  5  6  1  0  0  0  0
  5  4  2  0  0  0  0
  6  1  2  0  0  0  0
  7 11  1  0  0  0  0
  7  8  1  0  0  0  0
  8  9  1  0  0  0  0
  8 15  1  0  0  0  0
  9 18  1  0  0  0  0
 10 19  1  0  0  0  0
 10  9  1  0  0  0  0
 11 21  1  6  0  0  0
 11 10  1  0  0  0  0
 11 25  1  0  0  0  0
 14  5  1  0  0  0  0
 16  8  1  0  0  0  0
 17  9  1  0  0  0  0
 20 10  1  0  0  0  0
 21 24  1  0  0  0  0
 21 22  1  0  0  0  0
 23 21  1  0  0  0  0
 25 26  1  0  0  0  0
 25 27  1  0  0  0  0
M  END
>  <minimizedAffinity>
-4.22393036

$$$$

 OpenBabel03272507253D

 27 28  0  0  1  0  0  0  0  0999 V2000
   39.3440   22.6850   37.4460 C   0  0  0  0  0  0  0  0  0  0  0  0
   39.7290   23.3260   36.2600 C   0  0  0  0  0  0  0  0  0  0  0  0
   39.2270   24.6090   35.9960 C   0  0  0  0  0  0  0  0  0  0  0  0
   38.3970   25.1580   36.9030 N   0  0  0  0  0  0  0  0  0  0  0  0
   38.0380   24.5160   38.0450 C   0  0  0  0  0  0  0  0  0  0  0  0
   38.5170   23.2890   38.3000 N   0  0  0  0  0  0  0  0  0  0  0  0
   39.5710   25.2990   34.8250 N   0  0  0  0  0  0  0  0  0  0  0  0
   40.8190   25.1140   34.0800 C   0  0  0  0  0  0  0  0  0  0  0  0
   40.8490   26.1690   33.0260 C   0  0  0  0  0  0  0  0  0  0  0  0
   39.9100   27.1870   33.5880 C   0  0  0  0  0  0  0  0  0  0  0  0
   38.8160   26.2840   34.1150 C   0  0  2  0  0  0  0  0  0  0  0  0
   39.7390   21.6950   37.6350 H   0  0  0  0  0  0  0  0  0  0  0  0
   40.4040   22.8480   35.5500 H   0  0  0  0  0  0  0  0  0  0  0  0
   37.3550   25.0370   38.7320 H   0  0  0  0  0  0  0  0  0  0  0  0
   40.7040   24.1130   33.5820 H   0  0  0  0  0  0  0  0  0  0  0  0
   41.6860   25.0550   34.7340 H   0  0  0  0  0  0  0  0  0  0  0  0
   41.8870   26.6090   33.0060 H   0  0  0  0  0  0  0  0  0  0  0  0
   40.5790   25.8560   32.0170 H   0  0  0  0  0  0  0  0  0  0  0  0
   39.4600   27.8380   32.7860 H   0  0  0  0  0  0  0  0  0  0  0  0
   40.3690   27.7790   34.3970 H   0  0  0  0  0  0  0  0  0  0  0  0
   37.7640   27.0190   34.8370 C   0  0  0  0  0  0  0  0  0  0  0  0
   37.2850   27.9920   33.9660 F   0  0  0  0  0  0  0  0  0  0  0  0
   38.1680   27.6700   35.9680 F   0  0  0  0  0  0  0  0  0  0  0  0
   36.7130   26.1430   35.0310 F   0  0  0  0  0  0  0  0  0  0  0  0
   38.2470   25.5740   32.9610 N   0  0  0  0  0  0  0  0  0  0  0  0
   37.2050   25.6950   32.9880 H   0  0  0  0  0  0  0  0  0  0  0  0
   38.4390   24.5740   33.0920 H   0  0  0  0  0  0  0  0  0  0  0  0
  1 12  1  0  0  0  0
  1  6  1  0  0  0  0
  2  1  2  0  0  0  0
  3  2  1  0  0  0  0
  3  4  2  0  0  0  0
  4  5  1  0  0  0  0
  5  6  2  0  0  0  0
  5 14  1  0  0  0  0
  7  3  1  0  0  0  0
  8 16  1  0  0  0  0
  8  7  1  0  0  0  0
  9 10  1  0  0  0  0
  9  8  1  0  0  0  0
 10 11  1  0  0  0  0
 10 20  1  0  0  0  0
 11 25  1  6  0  0  0
 11  7  1  0  0  0  0
 11 21  1  0  0  0  0
 13  2  1  0  0  0  0
 15  8  1  0  0  0  0
 17  9  1  0  0  0  0
 18  9  1  0  0  0  0
 19 10  1  0  0  0  0
 21 24  1  0  0  0  0
 21 23  1  0  0  0  0
 22 21  1  0  0  0  0
 25 26  1  0  0  0  0
 25 27  1  0  0  0  0
M  END
>  <minimizedAffinity>
-4.15343142

$$$$

 OpenBabel03272507253D

 27 28  0  0  1  0  0  0  0  0999 V2000
   43.4470   23.0120   35.0810 C   0  0  0  0  0  0  0  0  0  0  0  0
   42.3550   23.8680   34.8730 C   0  0  0  0  0  0  0  0  0  0  0  0
   41.2210   23.7210   35.6850 C   0  0  0  0  0  0  0  0  0  0  0  0
   41.2450   22.7600   36.6280 N   0  0  0  0  0  0  0  0  0  0  0  0
   42.3140   21.9430   36.8100 C   0  0  0  0  0  0  0  0  0  0  0  0
   43.4000   22.0810   36.0340 N   0  0  0  0  0  0  0  0  0  0  0  0
   40.0970   24.5420   35.5220 N   0  0  0  0  0  0  0  0  0  0  0  0
   40.1260   25.9070   34.9900 C   0  0  0  0  0  0  0  0  0  0  0  0
   38.7550   26.4650   35.1670 C   0  0  0  0  0  0  0  0  0  0  0  0
   38.2120   25.6000   36.2570 C   0  0  0  0  0  0  0  0  0  0  0  0
   38.7280   24.2490   35.8110 C   0  0  2  0  0  0  0  0  0  0  0  0
   44.3140   23.1380   34.4450 H   0  0  0  0  0  0  0  0  0  0  0  0
   42.3750   24.6350   34.0980 H   0  0  0  0  0  0  0  0  0  0  0  0
   42.2500   21.1830   37.6030 H   0  0  0  0  0  0  0  0  0  0  0  0
   40.3210   25.7760   33.8900 H   0  0  0  0  0  0  0  0  0  0  0  0
   40.9470   26.4930   35.3990 H   0  0  0  0  0  0  0  0  0  0  0  0
   38.8580   27.5180   35.5590 H   0  0  0  0  0  0  0  0  0  0  0  0
   38.1180   26.4800   34.2810 H   0  0  0  0  0  0  0  0  0  0  0  0
   37.0860   25.5570   36.2450 H   0  0  0  0  0  0  0  0  0  0  0  0
   38.6090   25.8760   37.2480 H   0  0  0  0  0  0  0  0  0  0  0  0
   38.4270   23.1740   36.7720 C   0  0  0  0  0  0  0  0  0  0  0  0
   37.0610   23.2370   37.0280 F   0  0  0  0  0  0  0  0  0  0  0  0
   39.0570   23.2690   37.9810 F   0  0  0  0  0  0  0  0  0  0  0  0
   38.6280   21.9730   36.1200 F   0  0  0  0  0  0  0  0  0  0  0  0
   38.1130   23.9590   34.5070 N   0  0  0  0  0  0  0  0  0  0  0  0
   37.6810   23.0040   34.5590 H   0  0  0  0  0  0  0  0  0  0  0  0
   38.8710   23.9120   33.8160 H   0  0  0  0  0  0  0  0  0  0  0  0
  1  6  1  0  0  0  0
  2  1  2  0  0  0  0
  2  3  1  0  0  0  0
  3  4  2  0  0  0  0
  4  5  1  0  0  0  0
  5 14  1  0  0  0  0
  6  5  2  0  0  0  0
  7  3  1  0  0  0  0
  7 11  1  0  0  0  0
  8  9  1  0  0  0  0
  8 16  1  0  0  0  0
  8  7  1  0  0  0  0
  9 17  1  0  0  0  0
  9 10  1  0  0  0  0
 10 20  1  0  0  0  0
 11 25  1  6  0  0  0
 11 10  1  0  0  0  0
 11 21  1  0  0  0  0
 12  1  1  0  0  0  0
 13  2  1  0  0  0  0
 15  8  1  0  0  0  0
 18  9  1  0  0  0  0
 19 10  1  0  0  0  0
 21 22  1  0  0  0  0
 21 23  1  0  0  0  0
 24 21  1  0  0  0  0
 25 26  1  0  0  0  0
 27 25  1  0  0  0  0
M  END
>  <minimizedAffinity>
-4.11458588

$$$$
