
 OpenBabel03262523213D

 35 37  0  0  1  0  0  0  0  0999 V2000
   38.2760   21.5440   32.5490 C   0  0  0  0  0  0  0  0  0  0  0  0
   36.9480   21.6790   32.1610 C   0  0  0  0  0  0  0  0  0  0  0  0
   36.3950   22.9480   32.1320 C   0  0  0  0  0  0  0  0  0  0  0  0
   37.1640   24.0100   32.4790 N   0  0  0  0  0  0  0  0  0  0  0  0
   38.4120   23.8900   32.8450 C   0  0  0  0  0  0  0  0  0  0  0  0
   38.8760   22.6720   32.8530 N   0  0  0  0  0  0  0  0  0  0  0  0
   39.1770   25.0200   33.1940 N   0  0  0  0  0  0  0  0  0  0  0  0
   39.4010   26.1390   32.2730 C   0  0  0  0  0  0  0  0  0  0  0  0
   40.1390   27.1400   33.0510 C   0  0  0  0  0  0  0  0  0  0  0  0
   39.9340   26.7150   34.5060 C   0  0  0  0  0  0  0  0  0  0  0  0
   39.9020   25.2650   34.4500 C   0  0  1  0  0  0  0  0  0  0  0  0
   38.6900   20.5620   32.5680 H   0  0  0  0  0  0  0  0  0  0  0  0
   36.3300   20.8350   31.8840 H   0  0  0  0  0  0  0  0  0  0  0  0
   35.3490   23.0560   31.8250 H   0  0  0  0  0  0  0  0  0  0  0  0
   40.0400   25.7330   31.4600 H   0  0  0  0  0  0  0  0  0  0  0  0
   38.4610   26.4730   31.7940 H   0  0  0  0  0  0  0  0  0  0  0  0
   39.7880   28.1580   32.8280 H   0  0  0  0  0  0  0  0  0  0  0  0
   41.2230   27.1450   32.7600 H   0  0  0  0  0  0  0  0  0  0  0  0
   40.7730   27.2040   34.9520 H   0  0  0  0  0  0  0  0  0  0  0  0
   38.9020   27.0980   34.5760 H   0  0  0  0  0  0  0  0  0  0  0  0
   40.8830   24.7910   34.1310 H   0  0  0  0  0  0  0  0  0  0  0  0
   40.1430   23.4780   36.2120 C   0  0  0  0  0  0  0  0  0  0  0  0
   39.4720   24.5530   35.6160 C   0  0  0  0  0  0  0  0  0  0  0  0
   38.3650   24.9320   36.3610 C   0  0  0  0  0  0  0  0  0  0  0  0
   37.9530   24.3560   37.5430 C   0  0  0  0  0  0  0  0  0  0  0  0
   38.7040   23.2820   38.0550 C   0  0  0  0  0  0  0  0  0  0  0  0
   39.8290   22.8120   37.3920 C   0  0  0  0  0  0  0  0  0  0  0  0
   37.6190   25.6480   36.1280 H   0  0  0  0  0  0  0  0  0  0  0  0
   37.1230   24.5920   38.1750 H   0  0  0  0  0  0  0  0  0  0  0  0
   38.4640   22.7540   38.9860 H   0  0  0  0  0  0  0  0  0  0  0  0
   40.5750   21.7300   37.9130 N   0  0  0  0  0  0  0  0  0  0  0  0
   41.3280   21.2270   37.3590 H   0  0  0  0  0  0  0  0  0  0  0  0
   40.2410   21.5520   38.8980 H   0  0  0  0  0  0  0  0  0  0  0  0
   42.1450   22.4530   34.9530 N   0  0  0  0  0  0  0  0  0  0  0  0
   41.2670   22.9110   35.4980 C   0  0  0  0  0  0  0  0  0  0  0  0
  1 12  1  0  0  0  0
  1  6  1  0  0  0  0
  2  1  2  0  0  0  0
  3  2  1  0  0  0  0
  3  4  2  0  0  0  0
  4  5  1  0  0  0  0
  5  6  2  0  0  0  0
  5  7  1  0  0  0  0
  7 11  1  0  0  0  0
  8  9  1  0  0  0  0
  8  7  1  0  0  0  0
  9 10  1  0  0  0  0
 10 20  1  0  0  0  0
 10 19  1  0  0  0  0
 11 21  1  6  0  0  0
 11 10  1  0  0  0  0
 11 23  1  0  0  0  0
 13  2  1  0  0  0  0
 14  3  1  0  0  0  0
 15  8  1  0  0  0  0
 16  8  1  0  0  0  0
 17  9  1  0  0  0  0
 18  9  1  0  0  0  0
 22 27  1  0  0  0  0
 23 22  2  0  0  0  0
 23 24  1  0  0  0  0
 24 25  2  0  0  0  0
 25 26  1  0  0  0  0
 25 29  1  0  0  0  0
 26 30  1  0  0  0  0
 27 31  1  0  0  0  0
 27 26  2  0  0  0  0
 28 24  1  0  0  0  0
 31 33  1  0  0  0  0
 32 31  1  0  0  0  0
 34 35  3  0  0  0  0
 35 22  1  0  0  0  0
M  END
>  <minimizedAffinity>
-5.35551929

$$$$

 OpenBabel03262523213D

 35 37  0  0  1  0  0  0  0  0999 V2000
   37.5040   24.2370   37.0020 C   0  0  0  0  0  0  0  0  0  0  0  0
   38.2970   23.1570   37.3730 C   0  0  0  0  0  0  0  0  0  0  0  0
   39.5270   23.0000   36.7560 C   0  0  0  0  0  0  0  0  0  0  0  0
   39.9130   23.9010   35.8180 N   0  0  0  0  0  0  0  0  0  0  0  0
   39.1720   24.9160   35.4640 C   0  0  0  0  0  0  0  0  0  0  0  0
   38.0260   25.0110   36.0800 N   0  0  0  0  0  0  0  0  0  0  0  0
   39.6130   25.8310   34.4880 N   0  0  0  0  0  0  0  0  0  0  0  0
   40.8560   26.5970   34.6260 C   0  0  0  0  0  0  0  0  0  0  0  0
   41.0000   27.3330   33.3650 C   0  0  0  0  0  0  0  0  0  0  0  0
   40.0460   26.6240   32.4030 C   0  0  0  0  0  0  0  0  0  0  0  0
   38.9340   26.2160   33.2430 C   0  0  1  0  0  0  0  0  0  0  0  0
   36.5590   24.3460   37.4840 H   0  0  0  0  0  0  0  0  0  0  0  0
   37.9940   22.4350   38.1200 H   0  0  0  0  0  0  0  0  0  0  0  0
   40.1540   22.1510   37.0480 H   0  0  0  0  0  0  0  0  0  0  0  0
   40.6810   27.3010   35.4670 H   0  0  0  0  0  0  0  0  0  0  0  0
   41.7050   25.9540   34.9300 H   0  0  0  0  0  0  0  0  0  0  0  0
   42.0470   27.3470   33.0290 H   0  0  0  0  0  0  0  0  0  0  0  0
   40.7340   28.4130   33.5070 H   0  0  0  0  0  0  0  0  0  0  0  0
   39.9040   27.4060   31.6890 H   0  0  0  0  0  0  0  0  0  0  0  0
   40.7060   25.7570   32.2300 H   0  0  0  0  0  0  0  0  0  0  0  0
   38.3400   27.0800   33.6770 H   0  0  0  0  0  0  0  0  0  0  0  0
   36.7590   25.6550   32.0980 C   0  0  0  0  0  0  0  0  0  0  0  0
   37.9750   25.3030   32.6980 C   0  0  0  0  0  0  0  0  0  0  0  0
   38.2050   23.9370   32.6100 C   0  0  0  0  0  0  0  0  0  0  0  0
   37.3730   23.0170   32.0100 C   0  0  0  0  0  0  0  0  0  0  0  0
   36.1750   23.4800   31.4350 C   0  0  0  0  0  0  0  0  0  0  0  0
   35.8370   24.8250   31.4680 C   0  0  0  0  0  0  0  0  0  0  0  0
   38.9860   23.3650   33.0390 H   0  0  0  0  0  0  0  0  0  0  0  0
   37.4800   21.9590   31.8970 H   0  0  0  0  0  0  0  0  0  0  0  0
   35.4440   22.8340   30.9350 H   0  0  0  0  0  0  0  0  0  0  0  0
   34.6300   25.2820   30.8890 N   0  0  0  0  0  0  0  0  0  0  0  0
   34.2480   26.2590   31.0430 H   0  0  0  0  0  0  0  0  0  0  0  0
   34.2290   24.4920   30.3160 H   0  0  0  0  0  0  0  0  0  0  0  0
   36.0280   28.1200   32.2590 N   0  0  0  0  0  0  0  0  0  0  0  0
   36.3400   27.0360   32.1940 C   0  0  0  0  0  0  0  0  0  0  0  0
  1  2  1  0  0  0  0
  1 12  1  0  0  0  0
  2 13  1  0  0  0  0
  3 14  1  0  0  0  0
  3  2  2  0  0  0  0
  4  3  1  0  0  0  0
  5  4  2  0  0  0  0
  5  6  1  0  0  0  0
  6  1  2  0  0  0  0
  7  8  1  0  0  0  0
  7  5  1  0  0  0  0
  8 16  1  0  0  0  0
  8 15  1  0  0  0  0
  9 18  1  0  0  0  0
  9  8  1  0  0  0  0
 10 11  1  0  0  0  0
 10  9  1  0  0  0  0
 11 21  1  1  0  0  0
 11  7  1  0  0  0  0
 17  9  1  0  0  0  0
 19 10  1  0  0  0  0
 20 10  1  0  0  0  0
 22 35  1  0  0  0  0
 22 23  1  0  0  0  0
 23 11  1  0  0  0  0
 24 23  2  0  0  0  0
 24 28  1  0  0  0  0
 25 24  1  0  0  0  0
 26 27  1  0  0  0  0
 26 25  2  0  0  0  0
 27 22  2  0  0  0  0
 29 25  1  0  0  0  0
 30 26  1  0  0  0  0
 31 32  1  0  0  0  0
 31 27  1  0  0  0  0
 33 31  1  0  0  0  0
 35 34  3  0  0  0  0
M  END
>  <minimizedAffinity>
-5.11634731

$$$$

 OpenBabel03262523213D

 35 37  0  0  1  0  0  0  0  0999 V2000
   37.6800   22.7240   33.0360 C   0  0  0  0  0  0  0  0  0  0  0  0
   36.5420   22.3290   32.3430 C   0  0  0  0  0  0  0  0  0  0  0  0
   36.2110   23.0030   31.1800 C   0  0  0  0  0  0  0  0  0  0  0  0
   37.0050   24.0190   30.7590 N   0  0  0  0  0  0  0  0  0  0  0  0
   38.0750   24.3960   31.4060 C   0  0  0  0  0  0  0  0  0  0  0  0
   38.3350   23.7230   32.4920 N   0  0  0  0  0  0  0  0  0  0  0  0
   38.8740   25.4540   30.9310 N   0  0  0  0  0  0  0  0  0  0  0  0
   39.5020   25.4390   29.6060 C   0  0  0  0  0  0  0  0  0  0  0  0
   40.1410   26.7520   29.4640 C   0  0  0  0  0  0  0  0  0  0  0  0
   39.4890   27.6090   30.5490 C   0  0  0  0  0  0  0  0  0  0  0  0
   39.2600   26.6810   31.6430 C   0  0  1  0  0  0  0  0  0  0  0  0
   37.9240   22.1970   33.9300 H   0  0  0  0  0  0  0  0  0  0  0  0
   35.9050   21.5190   32.6750 H   0  0  0  0  0  0  0  0  0  0  0  0
   35.3150   22.6930   30.6320 H   0  0  0  0  0  0  0  0  0  0  0  0
   40.2700   24.6370   29.6480 H   0  0  0  0  0  0  0  0  0  0  0  0
   38.7860   25.1430   28.8140 H   0  0  0  0  0  0  0  0  0  0  0  0
   40.0170   27.1480   28.4450 H   0  0  0  0  0  0  0  0  0  0  0  0
   41.2510   26.6660   29.6010 H   0  0  0  0  0  0  0  0  0  0  0  0
   40.2380   28.3640   30.6510 H   0  0  0  0  0  0  0  0  0  0  0  0
   38.5440   27.7620   30.0010 H   0  0  0  0  0  0  0  0  0  0  0  0
   40.2090   26.2720   32.1100 H   0  0  0  0  0  0  0  0  0  0  0  0
   38.7880   27.1070   34.0830 C   0  0  0  0  0  0  0  0  0  0  0  0
   38.4290   27.1090   32.7290 C   0  0  0  0  0  0  0  0  0  0  0  0
   37.1830   27.6870   32.5380 C   0  0  0  0  0  0  0  0  0  0  0  0
   36.3770   28.2080   33.5270 C   0  0  0  0  0  0  0  0  0  0  0  0
   36.8370   28.1570   34.8550 C   0  0  0  0  0  0  0  0  0  0  0  0
   38.0670   27.5960   35.1670 C   0  0  0  0  0  0  0  0  0  0  0  0
   36.6100   27.7560   31.6500 H   0  0  0  0  0  0  0  0  0  0  0  0
   35.4140   28.6710   33.4610 H   0  0  0  0  0  0  0  0  0  0  0  0
   36.2750   28.5420   35.7150 H   0  0  0  0  0  0  0  0  0  0  0  0
   38.5200   27.5450   36.5050 N   0  0  0  0  0  0  0  0  0  0  0  0
   39.3610   26.9750   36.8100 H   0  0  0  0  0  0  0  0  0  0  0  0
   37.8820   28.1550   37.0850 H   0  0  0  0  0  0  0  0  0  0  0  0
   40.9870   25.9400   34.7510 N   0  0  0  0  0  0  0  0  0  0  0  0
   40.0250   26.4500   34.4470 C   0  0  0  0  0  0  0  0  0  0  0  0
  1 12  1  0  0  0  0
  2 13  1  0  0  0  0
  2  1  2  0  0  0  0
  3  2  1  0  0  0  0
  4  3  2  0  0  0  0
  4  5  1  0  0  0  0
  5  6  2  0  0  0  0
  6  1  1  0  0  0  0
  7  5  1  0  0  0  0
  7 11  1  0  0  0  0
  8 15  1  0  0  0  0
  8  7  1  0  0  0  0
  9 18  1  0  0  0  0
  9  8  1  0  0  0  0
  9 10  1  0  0  0  0
 10 19  1  0  0  0  0
 10 11  1  0  0  0  0
 11 21  1  1  0  0  0
 11 23  1  0  0  0  0
 14  3  1  0  0  0  0
 16  8  1  0  0  0  0
 17  9  1  0  0  0  0
 20 10  1  0  0  0  0
 22 35  1  0  0  0  0
 22 27  1  0  0  0  0
 23 22  2  0  0  0  0
 24 23  1  0  0  0  0
 24 25  2  0  0  0  0
 25 26  1  0  0  0  0
 26 27  2  0  0  0  0
 26 30  1  0  0  0  0
 27 31  1  0  0  0  0
 28 24  1  0  0  0  0
 29 25  1  0  0  0  0
 31 32  1  0  0  0  0
 31 33  1  0  0  0  0
 35 34  3  0  0  0  0
M  END
>  <minimizedAffinity>
-5.00775909

$$$$

 OpenBabel03262523213D

 35 37  0  0  1  0  0  0  0  0999 V2000
   37.9970   23.0990   36.4670 C   0  0  0  0  0  0  0  0  0  0  0  0
   37.8070   22.0830   35.5370 C   0  0  0  0  0  0  0  0  0  0  0  0
   38.6350   22.0410   34.4280 C   0  0  0  0  0  0  0  0  0  0  0  0
   39.5980   22.9860   34.2890 N   0  0  0  0  0  0  0  0  0  0  0  0
   39.7810   23.9440   35.1580 C   0  0  0  0  0  0  0  0  0  0  0  0
   38.9710   23.9310   36.1800 N   0  0  0  0  0  0  0  0  0  0  0  0
   40.7960   24.9030   34.9770 N   0  0  0  0  0  0  0  0  0  0  0  0
   42.2130   24.5430   34.8550 C   0  0  0  0  0  0  0  0  0  0  0  0
   42.9100   25.8020   34.5710 C   0  0  0  0  0  0  0  0  0  0  0  0
   41.8010   26.7580   34.1290 C   0  0  0  0  0  0  0  0  0  0  0  0
   40.6550   26.3660   34.9320 C   0  0  1  0  0  0  0  0  0  0  0  0
   37.3530   23.1210   37.3170 H   0  0  0  0  0  0  0  0  0  0  0  0
   37.0400   21.3270   35.6430 H   0  0  0  0  0  0  0  0  0  0  0  0
   38.4880   21.2410   33.6950 H   0  0  0  0  0  0  0  0  0  0  0  0
   42.5090   24.1530   35.8520 H   0  0  0  0  0  0  0  0  0  0  0  0
   42.3670   23.7140   34.1380 H   0  0  0  0  0  0  0  0  0  0  0  0
   43.7030   25.6590   33.8230 H   0  0  0  0  0  0  0  0  0  0  0  0
   43.4470   26.1700   35.4850 H   0  0  0  0  0  0  0  0  0  0  0  0
   42.2830   27.6910   34.3260 H   0  0  0  0  0  0  0  0  0  0  0  0
   41.6980   26.3290   33.1180 H   0  0  0  0  0  0  0  0  0  0  0  0
   40.7850   26.5470   36.0450 H   0  0  0  0  0  0  0  0  0  0  0  0
   38.7450   26.7750   33.3390 C   0  0  0  0  0  0  0  0  0  0  0  0
   39.3730   26.9010   34.5850 C   0  0  0  0  0  0  0  0  0  0  0  0
   38.5470   27.5290   35.5050 C   0  0  0  0  0  0  0  0  0  0  0  0
   37.2660   27.9770   35.2650 C   0  0  0  0  0  0  0  0  0  0  0  0
   36.7300   27.7970   33.9760 C   0  0  0  0  0  0  0  0  0  0  0  0
   37.4670   27.1860   32.9720 C   0  0  0  0  0  0  0  0  0  0  0  0
   38.7680   27.8400   36.4940 H   0  0  0  0  0  0  0  0  0  0  0  0
   36.5700   28.4610   35.9160 H   0  0  0  0  0  0  0  0  0  0  0  0
   35.7240   28.1160   33.6800 H   0  0  0  0  0  0  0  0  0  0  0  0
   36.9220   27.0120   31.6790 N   0  0  0  0  0  0  0  0  0  0  0  0
   37.5020   26.7160   30.8420 H   0  0  0  0  0  0  0  0  0  0  0  0
   35.8900   27.2260   31.7330 H   0  0  0  0  0  0  0  0  0  0  0  0
   40.1110   25.7770   31.3960 N   0  0  0  0  0  0  0  0  0  0  0  0
   39.5200   26.2210   32.2500 C   0  0  0  0  0  0  0  0  0  0  0  0
  1 12  1  0  0  0  0
  2 13  1  0  0  0  0
  2  1  2  0  0  0  0
  3  2  1  0  0  0  0
  4  3  2  0  0  0  0
  4  5  1  0  0  0  0
  5  6  2  0  0  0  0
  6  1  1  0  0  0  0
  7  5  1  0  0  0  0
  8  7  1  0  0  0  0
  8 15  1  0  0  0  0
  9  8  1  0  0  0  0
  9 18  1  0  0  0  0
 10 19  1  0  0  0  0
 10  9  1  0  0  0  0
 10 11  1  0  0  0  0
 11  7  1  0  0  0  0
 11 21  1  1  0  0  0
 14  3  1  0  0  0  0
 16  8  1  0  0  0  0
 17  9  1  0  0  0  0
 20 10  1  0  0  0  0
 22 23  1  0  0  0  0
 23 11  1  0  0  0  0
 23 24  2  0  0  0  0
 24 28  1  0  0  0  0
 25 24  1  0  0  0  0
 25 29  1  0  0  0  0
 26 25  2  0  0  0  0
 27 22  2  0  0  0  0
 27 26  1  0  0  0  0
 30 26  1  0  0  0  0
 31 33  1  0  0  0  0
 31 27  1  0  0  0  0
 32 31  1  0  0  0  0
 34 35  3  0  0  0  0
 35 22  1  0  0  0  0
M  END
>  <minimizedAffinity>
-5.0027914

$$$$

 OpenBabel03262523213D

 35 37  0  0  1  0  0  0  0  0999 V2000
   32.3820   31.7520   31.3800 C   0  0  0  0  0  0  0  0  0  0  0  0
   33.0920   32.7070   30.6600 C   0  0  0  0  0  0  0  0  0  0  0  0
   34.4660   32.5680   30.5580 C   0  0  0  0  0  0  0  0  0  0  0  0
   35.0690   31.5120   31.1600 N   0  0  0  0  0  0  0  0  0  0  0  0
   34.4080   30.6130   31.8390 C   0  0  0  0  0  0  0  0  0  0  0  0
   33.1180   30.7970   31.8990 N   0  0  0  0  0  0  0  0  0  0  0  0
   35.0720   29.5280   32.4450 N   0  0  0  0  0  0  0  0  0  0  0  0
   35.8820   28.5720   31.6840 C   0  0  0  0  0  0  0  0  0  0  0  0
   36.4780   27.6830   32.6880 C   0  0  0  0  0  0  0  0  0  0  0  0
   36.3110   28.4380   34.0070 C   0  0  0  0  0  0  0  0  0  0  0  0
   35.0440   29.1320   33.8600 C   0  0  1  0  0  0  0  0  0  0  0  0
   31.3250   31.8700   31.4510 H   0  0  0  0  0  0  0  0  0  0  0  0
   32.6170   33.5510   30.1790 H   0  0  0  0  0  0  0  0  0  0  0  0
   35.0270   33.3180   29.9900 H   0  0  0  0  0  0  0  0  0  0  0  0
   35.1640   28.0110   31.0480 H   0  0  0  0  0  0  0  0  0  0  0  0
   36.5790   29.0810   30.9910 H   0  0  0  0  0  0  0  0  0  0  0  0
   37.5210   27.4420   32.4390 H   0  0  0  0  0  0  0  0  0  0  0  0
   35.9530   26.6920   32.6970 H   0  0  0  0  0  0  0  0  0  0  0  0
   36.3820   27.6180   34.6890 H   0  0  0  0  0  0  0  0  0  0  0  0
   37.1350   29.1470   33.8210 H   0  0  0  0  0  0  0  0  0  0  0  0
   34.1440   28.4450   33.7880 H   0  0  0  0  0  0  0  0  0  0  0  0
   33.4770   30.2570   35.4840 C   0  0  0  0  0  0  0  0  0  0  0  0
   34.7070   30.1360   34.8250 C   0  0  0  0  0  0  0  0  0  0  0  0
   35.6280   31.0590   35.3010 C   0  0  0  0  0  0  0  0  0  0  0  0
   35.4000   31.9840   36.2960 C   0  0  0  0  0  0  0  0  0  0  0  0
   34.1270   32.0170   36.8940 C   0  0  0  0  0  0  0  0  0  0  0  0
   33.1240   31.1450   36.4950 C   0  0  0  0  0  0  0  0  0  0  0  0
   36.6040   31.2690   34.9460 H   0  0  0  0  0  0  0  0  0  0  0  0
   36.0530   32.7190   36.7190 H   0  0  0  0  0  0  0  0  0  0  0  0
   33.8420   32.7130   37.6920 H   0  0  0  0  0  0  0  0  0  0  0  0
   31.8470   31.1880   37.0990 N   0  0  0  0  0  0  0  0  0  0  0  0
   31.0060   30.6690   36.7120 H   0  0  0  0  0  0  0  0  0  0  0  0
   31.9150   31.8030   37.9540 H   0  0  0  0  0  0  0  0  0  0  0  0
   31.5260   28.7730   34.6890 N   0  0  0  0  0  0  0  0  0  0  0  0
   32.3880   29.4200   35.0290 C   0  0  0  0  0  0  0  0  0  0  0  0
  1 12  1  0  0  0  0
  1  6  1  0  0  0  0
  2  1  2  0  0  0  0
  3  2  1  0  0  0  0
  3  4  2  0  0  0  0
  4  5  1  0  0  0  0
  5  6  2  0  0  0  0
  5  7  1  0  0  0  0
  7 11  1  0  0  0  0
  8  7  1  0  0  0  0
  8  9  1  0  0  0  0
  9 18  1  0  0  0  0
  9 10  1  0  0  0  0
 10 19  1  0  0  0  0
 11 21  1  1  0  0  0
 11 10  1  0  0  0  0
 11 23  1  0  0  0  0
 13  2  1  0  0  0  0
 14  3  1  0  0  0  0
 15  8  1  0  0  0  0
 16  8  1  0  0  0  0
 17  9  1  0  0  0  0
 20 10  1  0  0  0  0
 22 27  1  0  0  0  0
 23 24  1  0  0  0  0
 23 22  2  0  0  0  0
 24 25  2  0  0  0  0
 25 29  1  0  0  0  0
 25 26  1  0  0  0  0
 26 30  1  0  0  0  0
 27 26  2  0  0  0  0
 27 31  1  0  0  0  0
 28 24  1  0  0  0  0
 31 33  1  0  0  0  0
 32 31  1  0  0  0  0
 34 35  3  0  0  0  0
 35 22  1  0  0  0  0
M  END
>  <minimizedAffinity>
-4.95517683

$$$$

 OpenBabel03262523213D

 35 37  0  0  1  0  0  0  0  0999 V2000
   35.9530   29.8410   32.5170 C   0  0  0  0  0  0  0  0  0  0  0  0
   36.3040   30.4160   31.3010 C   0  0  0  0  0  0  0  0  0  0  0  0
   36.5830   29.5790   30.2330 C   0  0  0  0  0  0  0  0  0  0  0  0
   36.5040   28.2360   30.4090 N   0  0  0  0  0  0  0  0  0  0  0  0
   36.1760   27.6910   31.5500 C   0  0  0  0  0  0  0  0  0  0  0  0
   35.9250   28.5290   32.5170 N   0  0  0  0  0  0  0  0  0  0  0  0
   36.1010   26.2910   31.6900 N   0  0  0  0  0  0  0  0  0  0  0  0
   35.2130   25.4610   30.8690 C   0  0  0  0  0  0  0  0  0  0  0  0
   35.5190   24.0770   31.2470 C   0  0  0  0  0  0  0  0  0  0  0  0
   36.8650   24.1690   31.9650 C   0  0  0  0  0  0  0  0  0  0  0  0
   36.8100   25.4430   32.6590 C   0  0  1  0  0  0  0  0  0  0  0  0
   35.7410   30.4960   33.3320 H   0  0  0  0  0  0  0  0  0  0  0  0
   36.3700   31.4860   31.1540 H   0  0  0  0  0  0  0  0  0  0  0  0
   36.8580   30.0290   29.2730 H   0  0  0  0  0  0  0  0  0  0  0  0
   34.1810   25.7280   31.1810 H   0  0  0  0  0  0  0  0  0  0  0  0
   35.2900   25.7130   29.7940 H   0  0  0  0  0  0  0  0  0  0  0  0
   35.5230   23.4150   30.3690 H   0  0  0  0  0  0  0  0  0  0  0  0
   34.7120   23.6620   31.9090 H   0  0  0  0  0  0  0  0  0  0  0  0
   36.8260   23.2630   32.5310 H   0  0  0  0  0  0  0  0  0  0  0  0
   37.4610   24.2830   31.0440 H   0  0  0  0  0  0  0  0  0  0  0  0
   36.0260   25.4930   33.4780 H   0  0  0  0  0  0  0  0  0  0  0  0
   39.1820   26.2880   32.5200 C   0  0  0  0  0  0  0  0  0  0  0  0
   38.0210   25.9550   33.2290 C   0  0  0  0  0  0  0  0  0  0  0  0
   38.1380   26.2820   34.5720 C   0  0  0  0  0  0  0  0  0  0  0  0
   39.2350   26.8670   35.1660 C   0  0  0  0  0  0  0  0  0  0  0  0
   40.3490   27.1630   34.3590 C   0  0  0  0  0  0  0  0  0  0  0  0
   40.3480   26.8750   33.0020 C   0  0  0  0  0  0  0  0  0  0  0  0
   37.4700   26.0760   35.3680 H   0  0  0  0  0  0  0  0  0  0  0  0
   39.4000   27.1530   36.1840 H   0  0  0  0  0  0  0  0  0  0  0  0
   41.2700   27.6280   34.7300 H   0  0  0  0  0  0  0  0  0  0  0  0
   41.4720   27.1730   32.1990 N   0  0  0  0  0  0  0  0  0  0  0  0
   41.5860   26.8140   31.2070 H   0  0  0  0  0  0  0  0  0  0  0  0
   42.1200   27.7840   32.7650 H   0  0  0  0  0  0  0  0  0  0  0  0
   39.3100   25.6350   30.0310 N   0  0  0  0  0  0  0  0  0  0  0  0
   39.2430   25.9190   31.1220 C   0  0  0  0  0  0  0  0  0  0  0  0
  1  6  1  0  0  0  0
  1 12  1  0  0  0  0
  2  1  2  0  0  0  0
  3  4  2  0  0  0  0
  3  2  1  0  0  0  0
  4  5  1  0  0  0  0
  5  7  1  0  0  0  0
  5  6  2  0  0  0  0
  7 11  1  0  0  0  0
  8 15  1  0  0  0  0
  8  9  1  0  0  0  0
  8  7  1  0  0  0  0
  9 18  1  0  0  0  0
  9 10  1  0  0  0  0
 10 19  1  0  0  0  0
 10 11  1  0  0  0  0
 11 23  1  0  0  0  0
 11 21  1  1  0  0  0
 13  2  1  0  0  0  0
 14  3  1  0  0  0  0
 16  8  1  0  0  0  0
 17  9  1  0  0  0  0
 20 10  1  0  0  0  0
 22 27  2  0  0  0  0
 22 23  1  0  0  0  0
 23 24  2  0  0  0  0
 24 25  1  0  0  0  0
 24 28  1  0  0  0  0
 25 29  1  0  0  0  0
 26 30  1  0  0  0  0
 26 25  2  0  0  0  0
 27 26  1  0  0  0  0
 31 33  1  0  0  0  0
 31 27  1  0  0  0  0
 32 31  1  0  0  0  0
 34 35  3  0  0  0  0
 35 22  1  0  0  0  0
M  END
>  <minimizedAffinity>
-4.91559315

$$$$

 OpenBabel03262523213D

 35 37  0  0  1  0  0  0  0  0999 V2000
   39.3960   21.9190   31.8210 C   0  0  0  0  0  0  0  0  0  0  0  0
   38.3520   21.0480   32.1110 C   0  0  0  0  0  0  0  0  0  0  0  0
   37.3590   21.4740   32.9760 C   0  0  0  0  0  0  0  0  0  0  0  0
   37.4370   22.7190   33.5080 N   0  0  0  0  0  0  0  0  0  0  0  0
   38.4160   23.5420   33.2410 C   0  0  0  0  0  0  0  0  0  0  0  0
   39.3200   23.0850   32.4200 N   0  0  0  0  0  0  0  0  0  0  0  0
   38.4570   24.8290   33.8110 N   0  0  0  0  0  0  0  0  0  0  0  0
   37.3840   25.8120   33.6260 C   0  0  0  0  0  0  0  0  0  0  0  0
   37.7600   26.9580   34.4620 C   0  0  0  0  0  0  0  0  0  0  0  0
   38.8210   26.4020   35.4120 C   0  0  0  0  0  0  0  0  0  0  0  0
   39.5380   25.4260   34.6100 C   0  0  1  0  0  0  0  0  0  0  0  0
   40.1550   21.5790   31.1530 H   0  0  0  0  0  0  0  0  0  0  0  0
   38.2840   20.0530   31.6900 H   0  0  0  0  0  0  0  0  0  0  0  0
   36.5350   20.7900   33.2050 H   0  0  0  0  0  0  0  0  0  0  0  0
   37.4170   26.0900   32.5510 H   0  0  0  0  0  0  0  0  0  0  0  0
   36.3850   25.3700   33.8030 H   0  0  0  0  0  0  0  0  0  0  0  0
   36.8830   27.3850   34.9700 H   0  0  0  0  0  0  0  0  0  0  0  0
   38.1550   27.7950   33.8280 H   0  0  0  0  0  0  0  0  0  0  0  0
   39.3070   27.3130   35.6860 H   0  0  0  0  0  0  0  0  0  0  0  0
   38.1040   25.8760   36.0650 H   0  0  0  0  0  0  0  0  0  0  0  0
   40.1140   25.8740   33.7400 H   0  0  0  0  0  0  0  0  0  0  0  0
   40.0940   23.6040   36.2610 C   0  0  0  0  0  0  0  0  0  0  0  0
   40.4420   24.5370   35.2760 C   0  0  0  0  0  0  0  0  0  0  0  0
   41.7810   24.4310   34.9310 C   0  0  0  0  0  0  0  0  0  0  0  0
   42.6810   23.5320   35.4610 C   0  0  0  0  0  0  0  0  0  0  0  0
   42.2230   22.6350   36.4440 C   0  0  0  0  0  0  0  0  0  0  0  0
   40.9040   22.6530   36.8730 C   0  0  0  0  0  0  0  0  0  0  0  0
   42.3540   25.0480   34.2870 H   0  0  0  0  0  0  0  0  0  0  0  0
   43.7190   23.3840   35.2460 H   0  0  0  0  0  0  0  0  0  0  0  0
   42.8550   21.8820   36.9290 H   0  0  0  0  0  0  0  0  0  0  0  0
   40.4540   21.7510   37.8640 N   0  0  0  0  0  0  0  0  0  0  0  0
   39.5130   21.8430   38.3450 H   0  0  0  0  0  0  0  0  0  0  0  0
   41.2060   21.0240   38.0040 H   0  0  0  0  0  0  0  0  0  0  0  0
   37.6960   23.6810   37.2030 N   0  0  0  0  0  0  0  0  0  0  0  0
   38.7480   23.6580   36.7900 C   0  0  0  0  0  0  0  0  0  0  0  0
  1  2  2  0  0  0  0
  1  6  1  0  0  0  0
  2  3  1  0  0  0  0
  3 14  1  0  0  0  0
  3  4  2  0  0  0  0
  5  4  1  0  0  0  0
  5  7  1  0  0  0  0
  6  5  2  0  0  0  0
  7 11  1  0  0  0  0
  8 16  1  0  0  0  0
  8  7  1  0  0  0  0
  8  9  1  0  0  0  0
  9 17  1  0  0  0  0
  9 10  1  0  0  0  0
 10 19  1  0  0  0  0
 10 20  1  0  0  0  0
 11 21  1  6  0  0  0
 11 23  1  0  0  0  0
 11 10  1  0  0  0  0
 12  1  1  0  0  0  0
 13  2  1  0  0  0  0
 15  8  1  0  0  0  0
 18  9  1  0  0  0  0
 22 35  1  0  0  0  0
 22 27  1  0  0  0  0
 23 22  2  0  0  0  0
 24 23  1  0  0  0  0
 24 25  2  0  0  0  0
 25 26  1  0  0  0  0
 26 27  2  0  0  0  0
 26 30  1  0  0  0  0
 27 31  1  0  0  0  0
 28 24  1  0  0  0  0
 29 25  1  0  0  0  0
 31 33  1  0  0  0  0
 31 32  1  0  0  0  0
 35 34  3  0  0  0  0
M  END
>  <minimizedAffinity>
-4.91464996

$$$$

 OpenBabel03262523213D

 35 37  0  0  1  0  0  0  0  0999 V2000
   37.5460   21.7450   32.4390 C   0  0  0  0  0  0  0  0  0  0  0  0
   36.8380   22.5790   31.5800 C   0  0  0  0  0  0  0  0  0  0  0  0
   37.3870   23.8080   31.2540 C   0  0  0  0  0  0  0  0  0  0  0  0
   38.5890   24.1530   31.7800 N   0  0  0  0  0  0  0  0  0  0  0  0
   39.2580   23.3750   32.5880 C   0  0  0  0  0  0  0  0  0  0  0  0
   38.6910   22.2310   32.8570 N   0  0  0  0  0  0  0  0  0  0  0  0
   40.5060   23.7700   33.1080 N   0  0  0  0  0  0  0  0  0  0  0  0
   41.6480   24.1100   32.2530 C   0  0  0  0  0  0  0  0  0  0  0  0
   42.6960   24.5680   33.1710 C   0  0  0  0  0  0  0  0  0  0  0  0
   41.9550   24.8640   34.4750 C   0  0  0  0  0  0  0  0  0  0  0  0
   40.9040   23.8620   34.5200 C   0  0  1  0  0  0  0  0  0  0  0  0
   37.1120   20.8010   32.6820 H   0  0  0  0  0  0  0  0  0  0  0  0
   35.8790   22.3090   31.1590 H   0  0  0  0  0  0  0  0  0  0  0  0
   36.8320   24.4660   30.5770 H   0  0  0  0  0  0  0  0  0  0  0  0
   41.9490   23.1590   31.7650 H   0  0  0  0  0  0  0  0  0  0  0  0
   41.3600   24.8010   31.4380 H   0  0  0  0  0  0  0  0  0  0  0  0
   43.2390   25.4310   32.7580 H   0  0  0  0  0  0  0  0  0  0  0  0
   43.4810   23.7760   33.2990 H   0  0  0  0  0  0  0  0  0  0  0  0
   42.7720   24.7970   35.1610 H   0  0  0  0  0  0  0  0  0  0  0  0
   41.5280   25.8210   34.1310 H   0  0  0  0  0  0  0  0  0  0  0  0
   41.2830   22.7970   34.6220 H   0  0  0  0  0  0  0  0  0  0  0  0
   39.7550   23.2930   36.6910 C   0  0  0  0  0  0  0  0  0  0  0  0
   39.8670   24.0150   35.4960 C   0  0  0  0  0  0  0  0  0  0  0  0
   38.8910   24.9970   35.4070 C   0  0  0  0  0  0  0  0  0  0  0  0
   37.9270   25.2630   36.3540 C   0  0  0  0  0  0  0  0  0  0  0  0
   37.9070   24.4770   37.5210 C   0  0  0  0  0  0  0  0  0  0  0  0
   38.8310   23.4610   37.7170 C   0  0  0  0  0  0  0  0  0  0  0  0
   38.6660   25.6400   34.5950 H   0  0  0  0  0  0  0  0  0  0  0  0
   37.1500   25.9990   36.3620 H   0  0  0  0  0  0  0  0  0  0  0  0
   37.1840   24.6050   38.3350 H   0  0  0  0  0  0  0  0  0  0  0  0
   38.8020   22.6750   38.8910 N   0  0  0  0  0  0  0  0  0  0  0  0
   39.3670   21.7840   39.0050 H   0  0  0  0  0  0  0  0  0  0  0  0
   38.1440   23.1380   39.5740 H   0  0  0  0  0  0  0  0  0  0  0  0
   41.3560   21.3050   37.0480 N   0  0  0  0  0  0  0  0  0  0  0  0
   40.6490   22.1720   36.8820 C   0  0  0  0  0  0  0  0  0  0  0  0
  1 12  1  0  0  0  0
  1  6  1  0  0  0  0
  2  1  2  0  0  0  0
  3  2  1  0  0  0  0
  3  4  2  0  0  0  0
  4  5  1  0  0  0  0
  5  6  2  0  0  0  0
  5  7  1  0  0  0  0
  7 11  1  0  0  0  0
  8  7  1  0  0  0  0
  8  9  1  0  0  0  0
  9 18  1  0  0  0  0
  9 10  1  0  0  0  0
 10 11  1  0  0  0  0
 10 19  1  0  0  0  0
 11 21  1  1  0  0  0
 11 23  1  0  0  0  0
 13  2  1  0  0  0  0
 14  3  1  0  0  0  0
 15  8  1  0  0  0  0
 16  8  1  0  0  0  0
 17  9  1  0  0  0  0
 20 10  1  0  0  0  0
 22 35  1  0  0  0  0
 22 27  1  0  0  0  0
 23 22  2  0  0  0  0
 24 23  1  0  0  0  0
 24 25  2  0  0  0  0
 25 29  1  0  0  0  0
 25 26  1  0  0  0  0
 26 27  2  0  0  0  0
 26 30  1  0  0  0  0
 27 31  1  0  0  0  0
 28 24  1  0  0  0  0
 31 32  1  0  0  0  0
 31 33  1  0  0  0  0
 35 34  3  0  0  0  0
M  END
>  <minimizedAffinity>
-4.82102251

$$$$

 OpenBabel03262523213D

 35 37  0  0  1  0  0  0  0  0999 V2000
   36.1850   23.9180   31.3730 C   0  0  0  0  0  0  0  0  0  0  0  0
   35.1800   24.8530   31.1470 C   0  0  0  0  0  0  0  0  0  0  0  0
   35.5090   26.1970   31.1880 C   0  0  0  0  0  0  0  0  0  0  0  0
   36.7920   26.5540   31.4470 N   0  0  0  0  0  0  0  0  0  0  0  0
   37.7400   25.6820   31.6620 C   0  0  0  0  0  0  0  0  0  0  0  0
   37.3690   24.4320   31.6090 N   0  0  0  0  0  0  0  0  0  0  0  0
   39.0610   26.0950   31.9230 N   0  0  0  0  0  0  0  0  0  0  0  0
   39.8310   26.9210   30.9870 C   0  0  0  0  0  0  0  0  0  0  0  0
   41.0920   27.2150   31.6770 C   0  0  0  0  0  0  0  0  0  0  0  0
   40.8060   26.8910   33.1430 C   0  0  0  0  0  0  0  0  0  0  0  0
   39.8970   25.7590   33.0850 C   0  0  1  0  0  0  0  0  0  0  0  0
   35.9190   22.8860   31.3390 H   0  0  0  0  0  0  0  0  0  0  0  0
   34.1560   24.5730   30.9400 H   0  0  0  0  0  0  0  0  0  0  0  0
   34.7200   26.9350   31.0090 H   0  0  0  0  0  0  0  0  0  0  0  0
   40.0150   26.2750   30.1020 H   0  0  0  0  0  0  0  0  0  0  0  0
   39.2450   27.7870   30.6240 H   0  0  0  0  0  0  0  0  0  0  0  0
   41.4100   28.2530   31.5010 H   0  0  0  0  0  0  0  0  0  0  0  0
   41.9240   26.5900   31.2590 H   0  0  0  0  0  0  0  0  0  0  0  0
   41.8060   26.7410   33.4890 H   0  0  0  0  0  0  0  0  0  0  0  0
   40.2270   27.8100   33.3370 H   0  0  0  0  0  0  0  0  0  0  0  0
   40.3560   24.8170   32.6500 H   0  0  0  0  0  0  0  0  0  0  0  0
   39.1530   24.0570   34.7890 C   0  0  0  0  0  0  0  0  0  0  0  0
   39.2330   25.3640   34.2910 C   0  0  0  0  0  0  0  0  0  0  0  0
   38.6700   26.2760   35.1720 C   0  0  0  0  0  0  0  0  0  0  0  0
   38.1050   25.9740   36.3920 C   0  0  0  0  0  0  0  0  0  0  0  0
   38.0810   24.6270   36.7980 C   0  0  0  0  0  0  0  0  0  0  0  0
   38.6090   23.6260   35.9950 C   0  0  0  0  0  0  0  0  0  0  0  0
   38.5040   27.3130   35.0400 H   0  0  0  0  0  0  0  0  0  0  0  0
   37.6600   26.6140   37.1250 H   0  0  0  0  0  0  0  0  0  0  0  0
   37.6560   24.2800   37.7470 H   0  0  0  0  0  0  0  0  0  0  0  0
   38.5780   22.2750   36.4090 N   0  0  0  0  0  0  0  0  0  0  0  0
   38.8050   21.4660   35.7620 H   0  0  0  0  0  0  0  0  0  0  0  0
   38.2990   22.2560   37.4270 H   0  0  0  0  0  0  0  0  0  0  0  0
   39.9790   22.1350   33.2850 N   0  0  0  0  0  0  0  0  0  0  0  0
   39.6170   22.9850   33.9360 C   0  0  0  0  0  0  0  0  0  0  0  0
  1  6  1  0  0  0  0
  2  3  1  0  0  0  0
  2  1  2  0  0  0  0
  3  4  2  0  0  0  0
  4  5  1  0  0  0  0
  5  7  1  0  0  0  0
  6  5  2  0  0  0  0
  7 11  1  0  0  0  0
  8  9  1  0  0  0  0
  8  7  1  0  0  0  0
  9 10  1  0  0  0  0
 10 20  1  0  0  0  0
 10 19  1  0  0  0  0
 11 21  1  6  0  0  0
 11 10  1  0  0  0  0
 11 23  1  0  0  0  0
 12  1  1  0  0  0  0
 13  2  1  0  0  0  0
 14  3  1  0  0  0  0
 15  8  1  0  0  0  0
 16  8  1  0  0  0  0
 17  9  1  0  0  0  0
 18  9  1  0  0  0  0
 22 27  1  0  0  0  0
 23 22  2  0  0  0  0
 23 24  1  0  0  0  0
 24 25  2  0  0  0  0
 25 26  1  0  0  0  0
 25 29  1  0  0  0  0
 26 30  1  0  0  0  0
 27 31  1  0  0  0  0
 27 26  2  0  0  0  0
 28 24  1  0  0  0  0
 31 33  1  0  0  0  0
 32 31  1  0  0  0  0
 34 35  3  0  0  0  0
 35 22  1  0  0  0  0
M  END
>  <minimizedAffinity>
-4.81322575

$$$$
