
     RDKit          3D

 21 22  0  0  0  0  0  0  0  0999 V2000
   37.5205   30.4279   50.9281 C   0  0  0  0  0  0  0  0  0  0  0  0
   37.2080   31.0567   49.7098 C   0  0  0  0  0  0  0  0  0  0  0  0
   35.9675   30.7810   49.1344 C   0  0  0  0  0  0  0  0  0  0  0  0
   35.1220   29.9170   49.7815 N   0  0  0  0  0  0  0  0  0  0  0  0
   35.4771   29.3377   50.9581 C   0  0  0  0  0  0  0  0  0  0  0  0
   36.6577   29.5866   51.5264 N   0  0  0  0  0  0  0  0  0  0  0  0
   38.0804   31.9691   49.0102 C   0  0  0  0  0  0  0  0  0  0  0  0
   38.5404   33.1445   49.5871 C   0  0  0  0  0  0  0  0  0  0  0  0
   39.3805   34.0416   48.9386 C   0  0  0  0  0  0  0  0  0  0  0  0
   39.7915   33.7610   47.6409 C   0  0  0  0  0  0  0  0  0  0  0  0
   39.3196   32.5932   47.1011 C   0  0  0  0  0  0  0  0  0  0  0  0
   38.5098   31.7518   47.7580 N   0  0  0  0  0  0  0  0  0  0  0  0
   38.4942   30.6694   51.3411 H   0  0  0  0  0  0  0  0  0  0  0  0
   35.6055   31.2016   48.1962 H   0  0  0  0  0  0  0  0  0  0  0  0
   34.7066   28.6869   51.3379 H   0  0  0  0  0  0  0  0  0  0  0  0
   38.2559   33.4117   50.5848 H   0  0  0  0  0  0  0  0  0  0  0  0
   39.7277   34.9510   49.4043 H   0  0  0  0  0  0  0  0  0  0  0  0
   39.5749   32.2782   46.1034 H   0  0  0  0  0  0  0  0  0  0  0  0
   40.6421   34.5934   46.8809 N   0  0  0  0  0  0  0  0  0  0  0  0
   40.4488   35.6215   46.8893 H   0  0  0  0  0  0  0  0  0  0  0  0
   41.3748   34.0107   46.4017 H   0  0  0  0  0  0  0  0  0  0  0  0
  1  6  2  0
  2  1  1  0
  3  2  2  0
  3  4  1  0
  4  5  2  0
  5  6  1  0
  7  8  2  0
  7  2  1  0
  9  8  1  0
 10  9  2  0
 11 10  1  0
 11 12  2  0
 12  7  1  0
  1 13  1  0
  3 14  1  0
  5 15  1  0
  8 16  1  0
  9 17  1  0
 11 18  1  0
 19 20  1  0
 19 21  1  0
 10 19  1  0
M  ISO  8  13  14  14  14  15  14  16  14  17  14  18  14  20   5  21   5
M  END
>  <DihAtoms>  (1) 
8,9,18,19

>  <DihDeg>  (1) 
90.29135731737581

$$$$
