
 OpenBabel03272510303D

 22 23  0  0  0  0  0  0  0  0999 V2000
   38.5240   24.9320   36.3390 C   0  0  0  0  0  0  0  0  0  0  0  0
   37.8370   25.0180   37.5530 C   0  0  0  0  0  0  0  0  0  0  0  0
   38.1200   24.0260   38.4600 C   0  0  0  0  0  0  0  0  0  0  0  0
   39.0160   23.0410   38.1620 N   0  0  0  0  0  0  0  0  0  0  0  0
   39.6640   23.0010   36.9580 C   0  0  0  0  0  0  0  0  0  0  0  0
   39.4070   23.9750   36.0250 N   0  0  0  0  0  0  0  0  0  0  0  0
   37.1340   25.8110   37.7600 H   0  0  0  0  0  0  0  0  0  0  0  0
   37.6390   23.9990   39.4370 H   0  0  0  0  0  0  0  0  0  0  0  0
   38.2760   26.0130   35.3150 C   0  0  0  0  0  0  0  0  0  0  0  0
   38.0860   27.3960   35.6630 C   0  0  0  0  0  0  0  0  0  0  0  0
   39.4580   26.9820   35.1790 C   0  0  0  0  0  0  0  0  0  0  0  0
   37.8610   25.6360   34.3370 H   0  0  0  0  0  0  0  0  0  0  0  0
   37.4730   28.0530   35.0350 H   0  0  0  0  0  0  0  0  0  0  0  0
   38.0940   27.6770   36.7570 H   0  0  0  0  0  0  0  0  0  0  0  0
   39.6630   27.2800   34.1410 H   0  0  0  0  0  0  0  0  0  0  0  0
   40.2910   26.8890   35.8990 H   0  0  0  0  0  0  0  0  0  0  0  0
   40.6360   21.9720   36.6160 C   0  0  0  0  0  0  0  0  0  0  0  0
   41.5490   22.4540   36.1720 H   0  0  0  0  0  0  0  0  0  0  0  0
   40.2530   21.2480   35.8670 H   0  0  0  0  0  0  0  0  0  0  0  0
   41.0510   21.3120   37.8360 N   0  0  0  0  0  0  0  0  0  0  0  0
   42.0150   20.9360   37.6540 H   0  0  0  0  0  0  0  0  0  0  0  0
   40.3580   20.5550   38.0750 H   0  0  0  0  0  0  0  0  0  0  0  0
  1  2  1  0  0  0  0
  2  7  1  0  0  0  0
  2  3  2  0  0  0  0
  3  8  1  0  0  0  0
  4  3  1  0  0  0  0
  5  4  2  0  0  0  0
  6  1  2  0  0  0  0
  6  5  1  0  0  0  0
  9 10  1  0  0  0  0
  9  1  1  0  0  0  0
 10 14  1  0  0  0  0
 11  9  1  0  0  0  0
 11 10  1  0  0  0  0
 11 16  1  0  0  0  0
 12  9  1  0  0  0  0
 13 10  1  0  0  0  0
 15 11  1  0  0  0  0
 17  5  1  0  0  0  0
 17 20  1  0  0  0  0
 18 17  1  0  0  0  0
 19 17  1  0  0  0  0
 20 22  1  0  0  0  0
 21 20  1  0  0  0  0
M  END
>  <minimizedAffinity>
-4.19787788

$$$$

 OpenBabel03272510303D

 22 23  0  0  0  0  0  0  0  0999 V2000
   38.1870   24.9330   35.1780 C   0  0  0  0  0  0  0  0  0  0  0  0
   38.1940   23.9410   34.1950 C   0  0  0  0  0  0  0  0  0  0  0  0
   38.0260   22.6570   34.6530 C   0  0  0  0  0  0  0  0  0  0  0  0
   37.8660   22.4050   35.9850 N   0  0  0  0  0  0  0  0  0  0  0  0
   37.8670   23.4130   36.9100 C   0  0  0  0  0  0  0  0  0  0  0  0
   38.0320   24.7100   36.4900 N   0  0  0  0  0  0  0  0  0  0  0  0
   38.3210   24.1710   33.1480 H   0  0  0  0  0  0  0  0  0  0  0  0
   38.0170   21.8090   33.9700 H   0  0  0  0  0  0  0  0  0  0  0  0
   38.3360   26.3660   34.7290 C   0  0  0  0  0  0  0  0  0  0  0  0
   38.5440   27.4580   35.6440 C   0  0  0  0  0  0  0  0  0  0  0  0
   39.7590   26.9050   34.9320 C   0  0  0  0  0  0  0  0  0  0  0  0
   37.8910   26.5830   33.7170 H   0  0  0  0  0  0  0  0  0  0  0  0
   38.1950   28.4680   35.4000 H   0  0  0  0  0  0  0  0  0  0  0  0
   38.5670   27.2310   36.7500 H   0  0  0  0  0  0  0  0  0  0  0  0
   40.1080   27.5410   34.1070 H   0  0  0  0  0  0  0  0  0  0  0  0
   40.4800   26.2730   35.4820 H   0  0  0  0  0  0  0  0  0  0  0  0
   37.6840   23.1790   38.3360 C   0  0  0  0  0  0  0  0  0  0  0  0
   36.9980   22.3010   38.4850 H   0  0  0  0  0  0  0  0  0  0  0  0
   37.2250   24.0430   38.8590 H   0  0  0  0  0  0  0  0  0  0  0  0
   38.9650   22.8240   38.9080 N   0  0  0  0  0  0  0  0  0  0  0  0
   38.7570   22.2440   39.7590 H   0  0  0  0  0  0  0  0  0  0  0  0
   39.4990   23.7030   39.1380 H   0  0  0  0  0  0  0  0  0  0  0  0
  1  6  1  0  0  0  0
  2  3  1  0  0  0  0
  2  1  2  0  0  0  0
  3  4  2  0  0  0  0
  4  5  1  0  0  0  0
  5 17  1  0  0  0  0
  6  5  2  0  0  0  0
  7  2  1  0  0  0  0
  8  3  1  0  0  0  0
  9 11  1  0  0  0  0
  9  1  1  0  0  0  0
  9 10  1  0  0  0  0
 10 14  1  0  0  0  0
 11 16  1  0  0  0  0
 11 10  1  0  0  0  0
 12  9  1  0  0  0  0
 13 10  1  0  0  0  0
 15 11  1  0  0  0  0
 17 18  1  0  0  0  0
 17 19  1  0  0  0  0
 17 20  1  0  0  0  0
 20 22  1  0  0  0  0
 20 21  1  0  0  0  0
M  END
>  <minimizedAffinity>
-4.02489614

$$$$

 OpenBabel03272510303D

 22 23  0  0  0  0  0  0  0  0999 V2000
   39.2040   25.4110   35.6710 C   0  0  0  0  0  0  0  0  0  0  0  0
   37.9100   25.3750   36.1970 C   0  0  0  0  0  0  0  0  0  0  0  0
   37.5560   24.1960   36.8080 C   0  0  0  0  0  0  0  0  0  0  0  0
   38.4340   23.1540   36.8770 N   0  0  0  0  0  0  0  0  0  0  0  0
   39.6920   23.2400   36.3460 C   0  0  0  0  0  0  0  0  0  0  0  0
   40.0820   24.4020   35.7270 N   0  0  0  0  0  0  0  0  0  0  0  0
   37.2380   26.2170   36.1270 H   0  0  0  0  0  0  0  0  0  0  0  0
   36.5700   24.0620   37.2500 H   0  0  0  0  0  0  0  0  0  0  0  0
   39.6580   26.6930   35.0150 C   0  0  0  0  0  0  0  0  0  0  0  0
   40.8920   26.8050   34.2830 C   0  0  0  0  0  0  0  0  0  0  0  0
   39.6220   26.6180   33.4830 C   0  0  0  0  0  0  0  0  0  0  0  0
   39.1980   27.6240   35.4520 H   0  0  0  0  0  0  0  0  0  0  0  0
   41.4240   27.7610   34.2250 H   0  0  0  0  0  0  0  0  0  0  0  0
   41.5630   25.8980   34.2240 H   0  0  0  0  0  0  0  0  0  0  0  0
   39.2660   27.5430   33.0080 H   0  0  0  0  0  0  0  0  0  0  0  0
   39.4040   25.6410   33.0150 H   0  0  0  0  0  0  0  0  0  0  0  0
   40.6570   22.1510   36.4170 C   0  0  0  0  0  0  0  0  0  0  0  0
   41.6840   22.5470   36.1910 H   0  0  0  0  0  0  0  0  0  0  0  0
   40.4510   21.3430   35.6850 H   0  0  0  0  0  0  0  0  0  0  0  0
   40.6810   21.6500   37.7760 N   0  0  0  0  0  0  0  0  0  0  0  0
   41.6330   21.2300   37.9170 H   0  0  0  0  0  0  0  0  0  0  0  0
   39.9050   20.9480   37.9010 H   0  0  0  0  0  0  0  0  0  0  0  0
  1  6  2  0  0  0  0
  1  2  1  0  0  0  0
  2  3  2  0  0  0  0
  3  4  1  0  0  0  0
  3  8  1  0  0  0  0
  5 17  1  0  0  0  0
  5  4  2  0  0  0  0
  6  5  1  0  0  0  0
  7  2  1  0  0  0  0
  9 12  1  0  0  0  0
  9  1  1  0  0  0  0
 10  9  1  0  0  0  0
 11 10  1  0  0  0  0
 11  9  1  0  0  0  0
 13 10  1  0  0  0  0
 14 10  1  0  0  0  0
 15 11  1  0  0  0  0
 16 11  1  0  0  0  0
 17 20  1  0  0  0  0
 18 17  1  0  0  0  0
 19 17  1  0  0  0  0
 20 22  1  0  0  0  0
 20 21  1  0  0  0  0
M  END
>  <minimizedAffinity>
-3.67650747

$$$$

 OpenBabel03272510303D

 22 23  0  0  0  0  0  0  0  0999 V2000
   36.3980   26.7630   32.3230 C   0  0  0  0  0  0  0  0  0  0  0  0
   35.8040   28.0260   32.2710 C   0  0  0  0  0  0  0  0  0  0  0  0
   35.9260   28.7810   33.4120 C   0  0  0  0  0  0  0  0  0  0  0  0
   36.5880   28.2980   34.5020 N   0  0  0  0  0  0  0  0  0  0  0  0
   37.1530   27.0520   34.5040 C   0  0  0  0  0  0  0  0  0  0  0  0
   37.0530   26.2670   33.3820 N   0  0  0  0  0  0  0  0  0  0  0  0
   35.2870   28.3810   31.3920 H   0  0  0  0  0  0  0  0  0  0  0  0
   35.4980   29.7810   33.4770 H   0  0  0  0  0  0  0  0  0  0  0  0
   36.3240   25.9000   31.0870 C   0  0  0  0  0  0  0  0  0  0  0  0
   36.3020   24.4620   31.1320 C   0  0  0  0  0  0  0  0  0  0  0  0
   34.9790   25.1720   30.9530 C   0  0  0  0  0  0  0  0  0  0  0  0
   36.6780   26.4090   30.1460 H   0  0  0  0  0  0  0  0  0  0  0  0
   36.7070   23.8690   30.3040 H   0  0  0  0  0  0  0  0  0  0  0  0
   36.3760   23.9590   32.1410 H   0  0  0  0  0  0  0  0  0  0  0  0
   34.6010   25.1360   29.9220 H   0  0  0  0  0  0  0  0  0  0  0  0
   34.2680   25.2350   31.7970 H   0  0  0  0  0  0  0  0  0  0  0  0
   37.8800   26.5140   35.6460 C   0  0  0  0  0  0  0  0  0  0  0  0
   38.6160   25.7430   35.2910 H   0  0  0  0  0  0  0  0  0  0  0  0
   37.2160   26.0160   36.3830 H   0  0  0  0  0  0  0  0  0  0  0  0
   38.6420   27.5870   36.2500 N   0  0  0  0  0  0  0  0  0  0  0  0
   39.4580   27.1340   36.7310 H   0  0  0  0  0  0  0  0  0  0  0  0
   38.0230   28.1210   36.9160 H   0  0  0  0  0  0  0  0  0  0  0  0
  1  6  1  0  0  0  0
  2  1  2  0  0  0  0
  2  3  1  0  0  0  0
  3  8  1  0  0  0  0
  3  4  2  0  0  0  0
  4  5  1  0  0  0  0
  5 17  1  0  0  0  0
  6  5  2  0  0  0  0
  7  2  1  0  0  0  0
  9 10  1  0  0  0  0
  9  1  1  0  0  0  0
 10 14  1  0  0  0  0
 11  9  1  0  0  0  0
 11 10  1  0  0  0  0
 11 16  1  0  0  0  0
 12  9  1  0  0  0  0
 13 10  1  0  0  0  0
 15 11  1  0  0  0  0
 17 20  1  0  0  0  0
 17 19  1  0  0  0  0
 18 17  1  0  0  0  0
 20 21  1  0  0  0  0
 20 22  1  0  0  0  0
M  END
>  <minimizedAffinity>
-3.6654737

$$$$

 OpenBabel03272510303D

 22 23  0  0  0  0  0  0  0  0999 V2000
   37.0540   27.1510   33.9470 C   0  0  0  0  0  0  0  0  0  0  0  0
   36.4650   28.2760   33.3650 C   0  0  0  0  0  0  0  0  0  0  0  0
   35.9010   28.0720   32.1290 C   0  0  0  0  0  0  0  0  0  0  0  0
   35.9320   26.8410   31.5410 N   0  0  0  0  0  0  0  0  0  0  0  0
   36.5210   25.7690   32.1530 C   0  0  0  0  0  0  0  0  0  0  0  0
   37.0970   25.9340   33.3890 N   0  0  0  0  0  0  0  0  0  0  0  0
   36.4550   29.2380   33.8560 H   0  0  0  0  0  0  0  0  0  0  0  0
   35.4160   28.8830   31.5870 H   0  0  0  0  0  0  0  0  0  0  0  0
   37.6630   27.3080   35.3190 C   0  0  0  0  0  0  0  0  0  0  0  0
   38.2600   26.2170   36.0430 C   0  0  0  0  0  0  0  0  0  0  0  0
   39.1900   27.1580   35.3100 C   0  0  0  0  0  0  0  0  0  0  0  0
   37.2810   28.1990   35.8950 H   0  0  0  0  0  0  0  0  0  0  0  0
   38.2640   26.2080   37.1390 H   0  0  0  0  0  0  0  0  0  0  0  0
   38.2430   25.1910   35.5710 H   0  0  0  0  0  0  0  0  0  0  0  0
   39.7040   27.8670   35.9730 H   0  0  0  0  0  0  0  0  0  0  0  0
   39.6740   26.8330   34.3710 H   0  0  0  0  0  0  0  0  0  0  0  0
   36.5580   24.4400   31.5590 C   0  0  0  0  0  0  0  0  0  0  0  0
   35.5180   24.1350   31.2620 H   0  0  0  0  0  0  0  0  0  0  0  0
   36.9380   23.6650   32.2570 H   0  0  0  0  0  0  0  0  0  0  0  0
   37.3470   24.5030   30.3460 N   0  0  0  0  0  0  0  0  0  0  0  0
   37.0020   23.7260   29.7290 H   0  0  0  0  0  0  0  0  0  0  0  0
   38.3680   24.4040   30.5910 H   0  0  0  0  0  0  0  0  0  0  0  0
  1  9  1  0  0  0  0
  2  7  1  0  0  0  0
  2  1  2  0  0  0  0
  3  2  1  0  0  0  0
  4  3  2  0  0  0  0
  4  5  1  0  0  0  0
  5  6  2  0  0  0  0
  6  1  1  0  0  0  0
  8  3  1  0  0  0  0
  9 12  1  0  0  0  0
  9 10  1  0  0  0  0
 10 13  1  0  0  0  0
 11  9  1  0  0  0  0
 11 15  1  0  0  0  0
 11 10  1  0  0  0  0
 14 10  1  0  0  0  0
 16 11  1  0  0  0  0
 17  5  1  0  0  0  0
 17 19  1  0  0  0  0
 18 17  1  0  0  0  0
 20 22  1  0  0  0  0
 20 17  1  0  0  0  0
 21 20  1  0  0  0  0
M  END
>  <minimizedAffinity>
-3.64562654

$$$$

 OpenBabel03272510303D

 22 23  0  0  0  0  0  0  0  0999 V2000
   36.9410   27.5770   34.4030 C   0  0  0  0  0  0  0  0  0  0  0  0
   36.2490   28.7670   34.6370 C   0  0  0  0  0  0  0  0  0  0  0  0
   35.5350   29.2540   33.5690 C   0  0  0  0  0  0  0  0  0  0  0  0
   35.5280   28.5930   32.3750 N   0  0  0  0  0  0  0  0  0  0  0  0
   36.2240   27.4300   32.1950 C   0  0  0  0  0  0  0  0  0  0  0  0
   36.9490   26.9120   33.2410 N   0  0  0  0  0  0  0  0  0  0  0  0
   36.2730   29.2670   35.5950 H   0  0  0  0  0  0  0  0  0  0  0  0
   34.9600   30.1760   33.6450 H   0  0  0  0  0  0  0  0  0  0  0  0
   37.7180   26.9790   35.5510 C   0  0  0  0  0  0  0  0  0  0  0  0
   38.5200   25.7910   35.4220 C   0  0  0  0  0  0  0  0  0  0  0  0
   39.2360   27.1230   35.3780 C   0  0  0  0  0  0  0  0  0  0  0  0
   37.3310   27.2660   36.5700 H   0  0  0  0  0  0  0  0  0  0  0  0
   38.6790   25.1270   36.2790 H   0  0  0  0  0  0  0  0  0  0  0  0
   38.5430   25.2690   34.4210 H   0  0  0  0  0  0  0  0  0  0  0  0
   39.7620   27.3670   36.3110 H   0  0  0  0  0  0  0  0  0  0  0  0
   39.6140   27.5140   34.4150 H   0  0  0  0  0  0  0  0  0  0  0  0
   36.2240   26.6930   30.9380 C   0  0  0  0  0  0  0  0  0  0  0  0
   35.2130   26.2300   30.7780 H   0  0  0  0  0  0  0  0  0  0  0  0
   36.9660   25.8690   30.9210 H   0  0  0  0  0  0  0  0  0  0  0  0
   36.4400   27.6330   29.8580 N   0  0  0  0  0  0  0  0  0  0  0  0
   36.0000   27.2070   29.0050 H   0  0  0  0  0  0  0  0  0  0  0  0
   37.4750   27.7970   29.7430 H   0  0  0  0  0  0  0  0  0  0  0  0
  1  2  1  0  0  0  0
  1  9  1  0  0  0  0
  2  7  1  0  0  0  0
  3  8  1  0  0  0  0
  3  2  2  0  0  0  0
  4  3  1  0  0  0  0
  5  4  2  0  0  0  0
  5  6  1  0  0  0  0
  6  1  2  0  0  0  0
  9 12  1  0  0  0  0
 10  9  1  0  0  0  0
 10 13  1  0  0  0  0
 11 10  1  0  0  0  0
 11  9  1  0  0  0  0
 11 15  1  0  0  0  0
 14 10  1  0  0  0  0
 16 11  1  0  0  0  0
 17  5  1  0  0  0  0
 18 17  1  0  0  0  0
 19 17  1  0  0  0  0
 20 17  1  0  0  0  0
 21 20  1  0  0  0  0
 22 20  1  0  0  0  0
M  END
>  <minimizedAffinity>
-3.59416842

$$$$

 OpenBabel03272510303D

 22 23  0  0  0  0  0  0  0  0999 V2000
   39.9220   25.4890   35.0260 C   0  0  0  0  0  0  0  0  0  0  0  0
   41.2500   25.8050   34.7300 C   0  0  0  0  0  0  0  0  0  0  0  0
   42.1720   24.8450   35.0710 C   0  0  0  0  0  0  0  0  0  0  0  0
   41.7810   23.6770   35.6570 N   0  0  0  0  0  0  0  0  0  0  0  0
   40.4660   23.4150   35.9260 C   0  0  0  0  0  0  0  0  0  0  0  0
   39.5140   24.3500   35.6000 N   0  0  0  0  0  0  0  0  0  0  0  0
   41.5290   26.7380   34.2650 H   0  0  0  0  0  0  0  0  0  0  0  0
   43.2360   24.9910   34.8840 H   0  0  0  0  0  0  0  0  0  0  0  0
   38.8610   26.4940   34.6460 C   0  0  0  0  0  0  0  0  0  0  0  0
   37.5140   26.4440   35.1520 C   0  0  0  0  0  0  0  0  0  0  0  0
   38.4710   27.4130   35.8110 C   0  0  0  0  0  0  0  0  0  0  0  0
   39.0560   27.0260   33.6710 H   0  0  0  0  0  0  0  0  0  0  0  0
   36.6790   26.8360   34.5610 H   0  0  0  0  0  0  0  0  0  0  0  0
   37.2350   25.5950   35.8430 H   0  0  0  0  0  0  0  0  0  0  0  0
   38.3100   28.4580   35.5100 H   0  0  0  0  0  0  0  0  0  0  0  0
   38.8830   27.1870   36.8110 H   0  0  0  0  0  0  0  0  0  0  0  0
   40.0150   22.1720   36.5370 C   0  0  0  0  0  0  0  0  0  0  0  0
   40.6970   21.3340   36.2260 H   0  0  0  0  0  0  0  0  0  0  0  0
   38.9880   21.8870   36.2280 H   0  0  0  0  0  0  0  0  0  0  0  0
   40.1260   22.3020   37.9750 N   0  0  0  0  0  0  0  0  0  0  0  0
   40.2450   21.3280   38.3500 H   0  0  0  0  0  0  0  0  0  0  0  0
   39.2640   22.7790   38.3480 H   0  0  0  0  0  0  0  0  0  0  0  0
  1  6  1  0  0  0  0
  2  1  2  0  0  0  0
  2  3  1  0  0  0  0
  3  4  2  0  0  0  0
  4  5  1  0  0  0  0
  5 17  1  0  0  0  0
  6  5  2  0  0  0  0
  7  2  1  0  0  0  0
  8  3  1  0  0  0  0
  9  1  1  0  0  0  0
  9 10  1  0  0  0  0
  9 11  1  0  0  0  0
 10 11  1  0  0  0  0
 10 14  1  0  0  0  0
 11 16  1  0  0  0  0
 12  9  1  0  0  0  0
 13 10  1  0  0  0  0
 15 11  1  0  0  0  0
 17 20  1  0  0  0  0
 18 17  1  0  0  0  0
 19 17  1  0  0  0  0
 20 22  1  0  0  0  0
 20 21  1  0  0  0  0
M  END
>  <minimizedAffinity>
-3.56061077

$$$$

 OpenBabel03272510303D

 22 23  0  0  0  0  0  0  0  0999 V2000
   37.2720   26.5690   33.7440 C   0  0  0  0  0  0  0  0  0  0  0  0
   37.5000   25.2560   33.3270 C   0  0  0  0  0  0  0  0  0  0  0  0
   37.3480   25.0320   31.9800 C   0  0  0  0  0  0  0  0  0  0  0  0
   36.9960   26.0460   31.1380 N   0  0  0  0  0  0  0  0  0  0  0  0
   36.7840   27.3170   31.5970 C   0  0  0  0  0  0  0  0  0  0  0  0
   36.9260   27.5800   32.9370 N   0  0  0  0  0  0  0  0  0  0  0  0
   37.7780   24.4740   34.0170 H   0  0  0  0  0  0  0  0  0  0  0  0
   37.5020   24.0430   31.5500 H   0  0  0  0  0  0  0  0  0  0  0  0
   37.4550   26.8810   35.2100 C   0  0  0  0  0  0  0  0  0  0  0  0
   38.1950   26.0330   36.1070 C   0  0  0  0  0  0  0  0  0  0  0  0
   38.9030   27.2530   35.5590 C   0  0  0  0  0  0  0  0  0  0  0  0
   36.6760   27.5750   35.6360 H   0  0  0  0  0  0  0  0  0  0  0  0
   37.9460   25.9940   37.1730 H   0  0  0  0  0  0  0  0  0  0  0  0
   38.6310   25.0750   35.6980 H   0  0  0  0  0  0  0  0  0  0  0  0
   38.9810   28.0740   36.2850 H   0  0  0  0  0  0  0  0  0  0  0  0
   39.6730   27.1370   34.7750 H   0  0  0  0  0  0  0  0  0  0  0  0
   36.4230   28.4250   30.7220 C   0  0  0  0  0  0  0  0  0  0  0  0
   37.0110   29.3370   31.0120 H   0  0  0  0  0  0  0  0  0  0  0  0
   35.3480   28.6950   30.7900 H   0  0  0  0  0  0  0  0  0  0  0  0
   36.8050   28.0810   29.3680 N   0  0  0  0  0  0  0  0  0  0  0  0
   36.9660   28.9900   28.8680 H   0  0  0  0  0  0  0  0  0  0  0  0
   36.0400   27.5050   28.9280 H   0  0  0  0  0  0  0  0  0  0  0  0
  1  9  1  0  0  0  0
  2  1  1  0  0  0  0
  2  7  1  0  0  0  0
  3  2  2  0  0  0  0
  4  5  2  0  0  0  0
  4  3  1  0  0  0  0
  5  6  1  0  0  0  0
  6  1  2  0  0  0  0
  8  3  1  0  0  0  0
  9 11  1  0  0  0  0
  9 12  1  0  0  0  0
  9 10  1  0  0  0  0
 10 13  1  0  0  0  0
 11 10  1  0  0  0  0
 11 15  1  0  0  0  0
 14 10  1  0  0  0  0
 16 11  1  0  0  0  0
 17 19  1  0  0  0  0
 17 18  1  0  0  0  0
 17  5  1  0  0  0  0
 20 17  1  0  0  0  0
 21 20  1  0  0  0  0
 22 20  1  0  0  0  0
M  END
>  <minimizedAffinity>
-3.50693917

$$$$

 OpenBabel03272510303D

 22 23  0  0  0  0  0  0  0  0999 V2000
   35.9240   21.8550   31.6260 C   0  0  0  0  0  0  0  0  0  0  0  0
   37.1000   21.4350   30.9990 C   0  0  0  0  0  0  0  0  0  0  0  0
   37.9110   22.4410   30.5340 C   0  0  0  0  0  0  0  0  0  0  0  0
   37.5610   23.7500   30.6910 N   0  0  0  0  0  0  0  0  0  0  0  0
   36.3970   24.1110   31.3120 C   0  0  0  0  0  0  0  0  0  0  0  0
   35.5600   23.1330   31.7910 N   0  0  0  0  0  0  0  0  0  0  0  0
   37.3510   20.3900   30.8910 H   0  0  0  0  0  0  0  0  0  0  0  0
   38.8520   22.2210   30.0300 H   0  0  0  0  0  0  0  0  0  0  0  0
   35.0080   20.7940   32.1850 C   0  0  0  0  0  0  0  0  0  0  0  0
   35.4100   19.4230   32.3610 C   0  0  0  0  0  0  0  0  0  0  0  0
   35.4350   20.3190   33.5800 C   0  0  0  0  0  0  0  0  0  0  0  0
   33.9110   21.0300   32.0830 H   0  0  0  0  0  0  0  0  0  0  0  0
   34.6750   18.6130   32.3080 H   0  0  0  0  0  0  0  0  0  0  0  0
   36.4510   19.1260   32.0380 H   0  0  0  0  0  0  0  0  0  0  0  0
   34.5900   20.1500   34.2620 H   0  0  0  0  0  0  0  0  0  0  0  0
   36.4000   20.6800   33.9790 H   0  0  0  0  0  0  0  0  0  0  0  0
   36.0020   25.4990   31.5080 C   0  0  0  0  0  0  0  0  0  0  0  0
   36.9140   26.1200   31.7210 H   0  0  0  0  0  0  0  0  0  0  0  0
   35.3100   25.6340   32.3650 H   0  0  0  0  0  0  0  0  0  0  0  0
   35.4280   25.9900   30.2730 N   0  0  0  0  0  0  0  0  0  0  0  0
   35.5740   27.0300   30.2730 H   0  0  0  0  0  0  0  0  0  0  0  0
   34.4100   25.7230   30.2330 H   0  0  0  0  0  0  0  0  0  0  0  0
  1  6  1  0  0  0  0
  1  9  1  0  0  0  0
  2  1  2  0  0  0  0
  3  4  2  0  0  0  0
  3  2  1  0  0  0  0
  4  5  1  0  0  0  0
  5 17  1  0  0  0  0
  5  6  2  0  0  0  0
  7  2  1  0  0  0  0
  8  3  1  0  0  0  0
  9 10  1  0  0  0  0
  9 11  1  0  0  0  0
 10 11  1  0  0  0  0
 11 16  1  0  0  0  0
 11 15  1  0  0  0  0
 12  9  1  0  0  0  0
 13 10  1  0  0  0  0
 14 10  1  0  0  0  0
 17 18  1  0  0  0  0
 17 19  1  0  0  0  0
 20 17  1  0  0  0  0
 21 20  1  0  0  0  0
 22 20  1  0  0  0  0
M  END
>  <minimizedAffinity>
-3.50437069

$$$$
