
 OpenBabel03262523553D

 28 29  0  0  1  0  0  0  0  0999 V2000
   38.5490   25.6060   34.9480 C   0  0  1  0  0  0  0  0  0  0  0  0
   37.8520   24.9880   33.8020 C   0  0  0  0  0  0  0  0  0  0  0  0
   37.9160   25.9040   32.6260 C   0  0  0  0  0  0  0  0  0  0  0  0
   37.8820   27.3350   33.0280 C   0  0  0  0  0  0  0  0  0  0  0  0
   37.1110   27.5660   34.3040 C   0  0  0  0  0  0  0  0  0  0  0  0
   37.7160   26.7730   35.4540 C   0  0  2  0  0  0  0  0  0  0  0  0
   39.5180   26.0720   34.6180 H   0  0  0  0  0  0  0  0  0  0  0  0
   36.8470   24.6370   34.0530 H   0  0  0  0  0  0  0  0  0  0  0  0
   38.4410   24.0630   33.5300 H   0  0  0  0  0  0  0  0  0  0  0  0
   36.9870   25.7170   32.0390 H   0  0  0  0  0  0  0  0  0  0  0  0
   38.7350   25.6580   31.9430 H   0  0  0  0  0  0  0  0  0  0  0  0
   37.4830   27.9660   32.2400 H   0  0  0  0  0  0  0  0  0  0  0  0
   38.9390   27.6250   33.2360 H   0  0  0  0  0  0  0  0  0  0  0  0
   37.0290   28.6410   34.4950 H   0  0  0  0  0  0  0  0  0  0  0  0
   36.0930   27.1630   34.1300 H   0  0  0  0  0  0  0  0  0  0  0  0
   36.9630   26.4000   36.1720 H   0  0  0  0  0  0  0  0  0  0  0  0
   39.9590   22.8580   37.0120 C   0  0  0  0  0  0  0  0  0  0  0  0
   39.7480   23.7410   35.9450 C   0  0  0  0  0  0  0  0  0  0  0  0
   38.7520   24.6940   36.0900 C   0  0  0  0  0  0  0  0  0  0  0  0
   38.0220   24.7310   37.2580 N   0  0  0  0  0  0  0  0  0  0  0  0
   38.2500   23.8700   38.2580 C   0  0  0  0  0  0  0  0  0  0  0  0
   39.2120   22.9390   38.1380 N   0  0  0  0  0  0  0  0  0  0  0  0
   40.6880   22.0630   37.0620 H   0  0  0  0  0  0  0  0  0  0  0  0
   40.4370   23.4970   35.1640 H   0  0  0  0  0  0  0  0  0  0  0  0
   37.6610   23.9230   39.1640 H   0  0  0  0  0  0  0  0  0  0  0  0
   38.5020   27.7850   36.1470 N   0  0  0  0  0  0  0  0  0  0  0  0
   38.3660   27.6020   37.1660 H   0  0  0  0  0  0  0  0  0  0  0  0
   38.1760   28.7230   35.8900 H   0  0  0  0  0  0  0  0  0  0  0  0
  1  7  1  6  0  0  0
  1  6  1  0  0  0  0
  1 19  1  0  0  0  0
  2  8  1  0  0  0  0
  2  1  1  0  0  0  0
  3  4  1  0  0  0  0
  3  2  1  0  0  0  0
  4 13  1  0  0  0  0
  4  5  1  0  0  0  0
  5 14  1  0  0  0  0
  5  6  1  0  0  0  0
  6 26  1  0  0  0  0
  6 16  1  1  0  0  0
  9  2  1  0  0  0  0
 10  3  1  0  0  0  0
 11  3  1  0  0  0  0
 12  4  1  0  0  0  0
 15  5  1  0  0  0  0
 17 23  1  0  0  0  0
 17 22  1  0  0  0  0
 18 19  1  0  0  0  0
 18 17  2  0  0  0  0
 19 20  2  0  0  0  0
 20 21  1  0  0  0  0
 21 25  1  0  0  0  0
 22 21  2  0  0  0  0
 24 18  1  0  0  0  0
 26 27  1  0  0  0  0
 28 26  1  0  0  0  0
M  END
>  <minimizedAffinity>
-4.45365095

$$$$

 OpenBabel03262523553D

 28 29  0  0  1  0  0  0  0  0999 V2000
   37.9440   25.6620   35.4770 C   0  0  1  0  0  0  0  0  0  0  0  0
   38.2350   27.0420   35.9160 C   0  0  0  0  0  0  0  0  0  0  0  0
   37.3450   27.9950   35.1920 C   0  0  0  0  0  0  0  0  0  0  0  0
   37.0480   27.5400   33.8070 C   0  0  0  0  0  0  0  0  0  0  0  0
   38.1650   26.7220   33.2080 C   0  0  0  0  0  0  0  0  0  0  0  0
   38.4460   25.4890   34.0530 C   0  0  2  0  0  0  0  0  0  0  0  0
   36.8340   25.4940   35.4090 H   0  0  0  0  0  0  0  0  0  0  0  0
   39.3000   27.2880   35.8730 H   0  0  0  0  0  0  0  0  0  0  0  0
   37.9530   27.0970   37.0090 H   0  0  0  0  0  0  0  0  0  0  0  0
   37.9210   28.9440   35.0970 H   0  0  0  0  0  0  0  0  0  0  0  0
   36.4540   28.2630   35.7670 H   0  0  0  0  0  0  0  0  0  0  0  0
   36.8110   28.3720   33.1510 H   0  0  0  0  0  0  0  0  0  0  0  0
   36.1630   26.8650   33.8850 H   0  0  0  0  0  0  0  0  0  0  0  0
   37.9400   26.5050   32.1580 H   0  0  0  0  0  0  0  0  0  0  0  0
   39.0720   27.3590   33.2460 H   0  0  0  0  0  0  0  0  0  0  0  0
   39.5160   25.2070   34.0740 H   0  0  0  0  0  0  0  0  0  0  0  0
   38.6640   23.4260   38.3550 C   0  0  0  0  0  0  0  0  0  0  0  0
   38.0600   24.4050   37.5540 C   0  0  0  0  0  0  0  0  0  0  0  0
   38.5970   24.6230   36.2950 C   0  0  0  0  0  0  0  0  0  0  0  0
   39.6840   23.8800   35.8910 N   0  0  0  0  0  0  0  0  0  0  0  0
   40.2380   22.9520   36.6830 C   0  0  0  0  0  0  0  0  0  0  0  0
   39.7320   22.7250   37.9070 N   0  0  0  0  0  0  0  0  0  0  0  0
   38.3740   23.1340   39.3530 H   0  0  0  0  0  0  0  0  0  0  0  0
   37.2480   24.8340   38.1020 H   0  0  0  0  0  0  0  0  0  0  0  0
   41.0910   22.3840   36.3380 H   0  0  0  0  0  0  0  0  0  0  0  0
   37.7450   24.4440   33.3180 N   0  0  0  0  0  0  0  0  0  0  0  0
   38.3690   23.6070   33.3490 H   0  0  0  0  0  0  0  0  0  0  0  0
   37.5740   24.7460   32.3530 H   0  0  0  0  0  0  0  0  0  0  0  0
  1  7  1  1  0  0  0
  1  2  1  0  0  0  0
  1 19  1  0  0  0  0
  2  9  1  0  0  0  0
  3 11  1  0  0  0  0
  3  2  1  0  0  0  0
  4 13  1  0  0  0  0
  4  3  1  0  0  0  0
  5 15  1  0  0  0  0
  5  4  1  0  0  0  0
  5  6  1  0  0  0  0
  6 16  1  1  0  0  0
  6  1  1  0  0  0  0
  8  2  1  0  0  0  0
 10  3  1  0  0  0  0
 12  4  1  0  0  0  0
 14  5  1  0  0  0  0
 17 23  1  0  0  0  0
 18 24  1  0  0  0  0
 18 17  2  0  0  0  0
 19 18  1  0  0  0  0
 20 19  2  0  0  0  0
 20 21  1  0  0  0  0
 21 22  2  0  0  0  0
 22 17  1  0  0  0  0
 25 21  1  0  0  0  0
 26 27  1  0  0  0  0
 26  6  1  0  0  0  0
 28 26  1  0  0  0  0
M  END
>  <minimizedAffinity>
-4.37027311

$$$$

 OpenBabel03262523553D

 28 29  0  0  1  0  0  0  0  0999 V2000
   38.7060   24.6810   36.2340 C   0  0  1  0  0  0  0  0  0  0  0  0
   37.7800   24.1680   37.2640 C   0  0  0  0  0  0  0  0  0  0  0  0
   38.5600   23.5270   38.3620 C   0  0  0  0  0  0  0  0  0  0  0  0
   39.7940   22.8670   37.8600 C   0  0  0  0  0  0  0  0  0  0  0  0
   39.6550   22.3620   36.4460 C   0  0  0  0  0  0  0  0  0  0  0  0
   39.3150   23.5010   35.4950 C   0  0  2  0  0  0  0  0  0  0  0  0
   39.5820   25.1990   36.7120 H   0  0  0  0  0  0  0  0  0  0  0  0
   36.9810   23.5470   36.8480 H   0  0  0  0  0  0  0  0  0  0  0  0
   37.2650   25.0690   37.7110 H   0  0  0  0  0  0  0  0  0  0  0  0
   37.9110   22.7170   38.7700 H   0  0  0  0  0  0  0  0  0  0  0  0
   38.7330   24.2000   39.2070 H   0  0  0  0  0  0  0  0  0  0  0  0
   40.1110   22.0570   38.5090 H   0  0  0  0  0  0  0  0  0  0  0  0
   40.5830   23.6570   37.8420 H   0  0  0  0  0  0  0  0  0  0  0  0
   40.5500   21.7970   36.1660 H   0  0  0  0  0  0  0  0  0  0  0  0
   38.7900   21.6680   36.4470 H   0  0  0  0  0  0  0  0  0  0  0  0
   38.6420   23.1980   34.6720 H   0  0  0  0  0  0  0  0  0  0  0  0
   37.1330   27.6650   34.6780 C   0  0  0  0  0  0  0  0  0  0  0  0
   37.7520   26.8300   35.6180 C   0  0  0  0  0  0  0  0  0  0  0  0
   38.0610   25.5380   35.2220 C   0  0  0  0  0  0  0  0  0  0  0  0
   37.7520   25.1370   33.9410 N   0  0  0  0  0  0  0  0  0  0  0  0
   37.1590   25.9610   33.0670 C   0  0  0  0  0  0  0  0  0  0  0  0
   36.8520   27.2180   33.4310 N   0  0  0  0  0  0  0  0  0  0  0  0
   36.8280   28.6910   34.8210 H   0  0  0  0  0  0  0  0  0  0  0  0
   37.8730   27.3790   36.5280 H   0  0  0  0  0  0  0  0  0  0  0  0
   36.9290   25.6170   32.0680 H   0  0  0  0  0  0  0  0  0  0  0  0
   40.6100   23.8020   34.8980 N   0  0  0  0  0  0  0  0  0  0  0  0
   40.4210   23.9850   33.8870 H   0  0  0  0  0  0  0  0  0  0  0  0
   41.2470   23.0070   35.0190 H   0  0  0  0  0  0  0  0  0  0  0  0
  1  7  1  1  0  0  0
  1  2  1  0  0  0  0
  2  9  1  0  0  0  0
  2  3  1  0  0  0  0
  3 10  1  0  0  0  0
  3 11  1  0  0  0  0
  4  3  1  0  0  0  0
  4 12  1  0  0  0  0
  5 15  1  0  0  0  0
  5  4  1  0  0  0  0
  6 16  1  6  0  0  0
  6  1  1  0  0  0  0
  6  5  1  0  0  0  0
  8  2  1  0  0  0  0
 13  4  1  0  0  0  0
 14  5  1  0  0  0  0
 17 23  1  0  0  0  0
 17 18  1  0  0  0  0
 18 24  1  0  0  0  0
 19 18  2  0  0  0  0
 19  1  1  0  0  0  0
 20 19  1  0  0  0  0
 21 22  1  0  0  0  0
 21 20  2  0  0  0  0
 22 17  2  0  0  0  0
 25 21  1  0  0  0  0
 26 28  1  0  0  0  0
 26  6  1  0  0  0  0
 27 26  1  0  0  0  0
M  END
>  <minimizedAffinity>
-4.24532318

$$$$

 OpenBabel03262523553D

 28 29  0  0  1  0  0  0  0  0999 V2000
   39.3270   23.5140   35.5800 C   0  0  1  0  0  0  0  0  0  0  0  0
   40.7520   23.8890   35.6650 C   0  0  0  0  0  0  0  0  0  0  0  0
   41.5270   22.7730   36.2800 C   0  0  0  0  0  0  0  0  0  0  0  0
   40.7340   22.0370   37.3000 C   0  0  0  0  0  0  0  0  0  0  0  0
   39.7150   22.9090   37.9900 C   0  0  0  0  0  0  0  0  0  0  0  0
   38.7420   23.5050   36.9830 C   0  0  2  0  0  0  0  0  0  0  0  0
   39.2170   22.4540   35.2210 H   0  0  0  0  0  0  0  0  0  0  0  0
   40.9100   24.8660   36.1310 H   0  0  0  0  0  0  0  0  0  0  0  0
   41.1200   23.9960   34.6010 H   0  0  0  0  0  0  0  0  0  0  0  0
   42.3770   23.2490   36.8220 H   0  0  0  0  0  0  0  0  0  0  0  0
   41.9980   22.1240   35.5360 H   0  0  0  0  0  0  0  0  0  0  0  0
   41.3700   21.5620   38.0400 H   0  0  0  0  0  0  0  0  0  0  0  0
   40.1630   21.2550   36.7440 H   0  0  0  0  0  0  0  0  0  0  0  0
   39.2360   22.3460   38.7980 H   0  0  0  0  0  0  0  0  0  0  0  0
   40.2790   23.7520   38.4380 H   0  0  0  0  0  0  0  0  0  0  0  0
   38.4090   24.5260   37.2470 H   0  0  0  0  0  0  0  0  0  0  0  0
   37.4300   26.5620   34.6260 C   0  0  0  0  0  0  0  0  0  0  0  0
   38.2100   25.6620   35.3650 C   0  0  0  0  0  0  0  0  0  0  0  0
   38.5090   24.4420   34.7770 C   0  0  0  0  0  0  0  0  0  0  0  0
   38.0340   24.1720   33.5130 N   0  0  0  0  0  0  0  0  0  0  0  0
   37.2890   25.0550   32.8360 C   0  0  0  0  0  0  0  0  0  0  0  0
   36.9890   26.2440   33.3870 N   0  0  0  0  0  0  0  0  0  0  0  0
   37.1090   27.5460   34.9330 H   0  0  0  0  0  0  0  0  0  0  0  0
   38.4400   26.1110   36.3080 H   0  0  0  0  0  0  0  0  0  0  0  0
   36.9300   24.8150   31.8440 H   0  0  0  0  0  0  0  0  0  0  0  0
   37.5830   22.6310   37.1180 N   0  0  0  0  0  0  0  0  0  0  0  0
   36.7490   23.2570   37.0700 H   0  0  0  0  0  0  0  0  0  0  0  0
   37.6220   22.1300   38.0130 H   0  0  0  0  0  0  0  0  0  0  0  0
  1  7  1  6  0  0  0
  1  2  1  0  0  0  0
  1  6  1  0  0  0  0
  2  8  1  0  0  0  0
  2  3  1  0  0  0  0
  3 10  1  0  0  0  0
  3  4  1  0  0  0  0
  4  5  1  0  0  0  0
  4 12  1  0  0  0  0
  5 15  1  0  0  0  0
  5 14  1  0  0  0  0
  6 26  1  0  0  0  0
  6 16  1  1  0  0  0
  6  5  1  0  0  0  0
  9  2  1  0  0  0  0
 11  3  1  0  0  0  0
 13  4  1  0  0  0  0
 17 23  1  0  0  0  0
 17 18  1  0  0  0  0
 18 24  1  0  0  0  0
 19 18  2  0  0  0  0
 19  1  1  0  0  0  0
 20 19  1  0  0  0  0
 21 22  1  0  0  0  0
 21 20  2  0  0  0  0
 22 17  2  0  0  0  0
 25 21  1  0  0  0  0
 26 28  1  0  0  0  0
 27 26  1  0  0  0  0
M  END
>  <minimizedAffinity>
-4.11998463

$$$$

 OpenBabel03262523553D

 28 29  0  0  1  0  0  0  0  0999 V2000
   39.3600   27.2790   33.9050 C   0  0  1  0  0  0  0  0  0  0  0  0
   38.7120   26.7970   32.6700 C   0  0  0  0  0  0  0  0  0  0  0  0
   37.4180   27.5120   32.4730 C   0  0  0  0  0  0  0  0  0  0  0  0
   36.7540   27.8340   33.7640 C   0  0  0  0  0  0  0  0  0  0  0  0
   37.0720   26.8370   34.8500 C   0  0  0  0  0  0  0  0  0  0  0  0
   38.5720   26.7690   35.1000 C   0  0  2  0  0  0  0  0  0  0  0  0
   39.2910   28.3990   33.9780 H   0  0  0  0  0  0  0  0  0  0  0  0
   38.6430   25.7060   32.6210 H   0  0  0  0  0  0  0  0  0  0  0  0
   39.3860   27.0980   31.8140 H   0  0  0  0  0  0  0  0  0  0  0  0
   36.7470   26.7970   31.9410 H   0  0  0  0  0  0  0  0  0  0  0  0
   37.5060   28.3690   31.7980 H   0  0  0  0  0  0  0  0  0  0  0  0
   35.6780   27.9240   33.6540 H   0  0  0  0  0  0  0  0  0  0  0  0
   37.1770   28.8130   34.0940 H   0  0  0  0  0  0  0  0  0  0  0  0
   36.4790   27.0620   35.7420 H   0  0  0  0  0  0  0  0  0  0  0  0
   36.7600   25.8460   34.4640 H   0  0  0  0  0  0  0  0  0  0  0  0
   38.9250   25.7550   35.3660 H   0  0  0  0  0  0  0  0  0  0  0  0
   43.0400   27.0400   33.4550 C   0  0  0  0  0  0  0  0  0  0  0  0
   41.7120   27.4660   33.3190 C   0  0  0  0  0  0  0  0  0  0  0  0
   40.7500   26.8140   34.0740 C   0  0  0  0  0  0  0  0  0  0  0  0
   41.1340   25.7910   34.9130 N   0  0  0  0  0  0  0  0  0  0  0  0
   42.4140   25.4090   35.0190 C   0  0  0  0  0  0  0  0  0  0  0  0
   43.3620   26.0300   34.2960 N   0  0  0  0  0  0  0  0  0  0  0  0
   43.9040   27.4380   32.9450 H   0  0  0  0  0  0  0  0  0  0  0  0
   41.6850   28.2630   32.6060 H   0  0  0  0  0  0  0  0  0  0  0  0
   42.6860   24.6030   35.6870 H   0  0  0  0  0  0  0  0  0  0  0  0
   38.7250   27.5980   36.2890 N   0  0  0  0  0  0  0  0  0  0  0  0
   39.4250   27.1080   36.8890 H   0  0  0  0  0  0  0  0  0  0  0  0
   37.8240   27.6940   36.7700 H   0  0  0  0  0  0  0  0  0  0  0  0
  1  7  1  1  0  0  0
  1 19  1  0  0  0  0
  1  6  1  0  0  0  0
  2  1  1  0  0  0  0
  3  2  1  0  0  0  0
  3  4  1  0  0  0  0
  4 13  1  0  0  0  0
  4  5  1  0  0  0  0
  5  6  1  0  0  0  0
  5 14  1  0  0  0  0
  6 16  1  1  0  0  0
  6 26  1  0  0  0  0
  8  2  1  0  0  0  0
  9  2  1  0  0  0  0
 10  3  1  0  0  0  0
 11  3  1  0  0  0  0
 12  4  1  0  0  0  0
 15  5  1  0  0  0  0
 17 22  1  0  0  0  0
 18 17  2  0  0  0  0
 18 19  1  0  0  0  0
 19 20  2  0  0  0  0
 20 21  1  0  0  0  0
 21 25  1  0  0  0  0
 22 21  2  0  0  0  0
 23 17  1  0  0  0  0
 24 18  1  0  0  0  0
 26 28  1  0  0  0  0
 26 27  1  0  0  0  0
M  END
>  <minimizedAffinity>
-4.06527138

$$$$

 OpenBabel03262523553D

 28 29  0  0  1  0  0  0  0  0999 V2000
   38.6690   22.4450   35.4560 C   0  0  1  0  0  0  0  0  0  0  0  0
   39.9310   23.2030   35.3380 C   0  0  0  0  0  0  0  0  0  0  0  0
   40.7950   22.9200   36.5210 C   0  0  0  0  0  0  0  0  0  0  0  0
   39.9980   22.6960   37.7560 C   0  0  0  0  0  0  0  0  0  0  0  0
   38.6960   23.4580   37.7570 C   0  0  0  0  0  0  0  0  0  0  0  0
   37.8340   23.0600   36.5680 C   0  0  2  0  0  0  0  0  0  0  0  0
   38.8680   21.3930   35.8000 H   0  0  0  0  0  0  0  0  0  0  0  0
   39.7740   24.2650   35.1310 H   0  0  0  0  0  0  0  0  0  0  0  0
   40.4690   22.7910   34.4330 H   0  0  0  0  0  0  0  0  0  0  0  0
   41.3950   23.8440   36.6930 H   0  0  0  0  0  0  0  0  0  0  0  0
   41.5350   22.1370   36.3270 H   0  0  0  0  0  0  0  0  0  0  0  0
   40.5640   22.9370   38.6500 H   0  0  0  0  0  0  0  0  0  0  0  0
   39.7350   21.6120   37.7640 H   0  0  0  0  0  0  0  0  0  0  0  0
   38.2020   23.3410   38.7280 H   0  0  0  0  0  0  0  0  0  0  0  0
   38.9600   24.5270   37.6270 H   0  0  0  0  0  0  0  0  0  0  0  0
   37.2400   23.8980   36.1590 H   0  0  0  0  0  0  0  0  0  0  0  0
   37.2260   23.6090   32.2370 C   0  0  0  0  0  0  0  0  0  0  0  0
   38.0030   23.5620   33.4020 C   0  0  0  0  0  0  0  0  0  0  0  0
   37.8420   22.4650   34.2350 C   0  0  0  0  0  0  0  0  0  0  0  0
   36.9390   21.4850   33.8870 N   0  0  0  0  0  0  0  0  0  0  0  0
   36.2110   21.5620   32.7650 C   0  0  0  0  0  0  0  0  0  0  0  0
   36.3540   22.6160   31.9430 N   0  0  0  0  0  0  0  0  0  0  0  0
   37.2290   24.3850   31.4860 H   0  0  0  0  0  0  0  0  0  0  0  0
   38.6120   24.4400   33.4370 H   0  0  0  0  0  0  0  0  0  0  0  0
   35.5100   20.7770   32.5180 H   0  0  0  0  0  0  0  0  0  0  0  0
   36.8930   22.1230   37.1680 N   0  0  0  0  0  0  0  0  0  0  0  0
   35.9680   22.3310   36.7310 H   0  0  0  0  0  0  0  0  0  0  0  0
   36.8640   22.2540   38.1840 H   0  0  0  0  0  0  0  0  0  0  0  0
  1  7  1  1  0  0  0
  1  6  1  0  0  0  0
  2  1  1  0  0  0  0
  2  3  1  0  0  0  0
  3 10  1  0  0  0  0
  3  4  1  0  0  0  0
  4  5  1  0  0  0  0
  4 13  1  0  0  0  0
  4 12  1  0  0  0  0
  5 14  1  0  0  0  0
  6 16  1  6  0  0  0
  6 26  1  0  0  0  0
  6  5  1  0  0  0  0
  8  2  1  0  0  0  0
  9  2  1  0  0  0  0
 11  3  1  0  0  0  0
 15  5  1  0  0  0  0
 17 18  1  0  0  0  0
 18 24  1  0  0  0  0
 18 19  2  0  0  0  0
 19  1  1  0  0  0  0
 20 19  1  0  0  0  0
 21 20  2  0  0  0  0
 22 17  2  0  0  0  0
 22 21  1  0  0  0  0
 23 17  1  0  0  0  0
 25 21  1  0  0  0  0
 26 28  1  0  0  0  0
 27 26  1  0  0  0  0
M  END
>  <minimizedAffinity>
-3.97399879

$$$$

 OpenBabel03262523553D

 28 29  0  0  1  0  0  0  0  0999 V2000
   36.0580   27.4680   31.0450 C   0  0  1  0  0  0  0  0  0  0  0  0
   35.9330   28.0330   32.4030 C   0  0  0  0  0  0  0  0  0  0  0  0
   35.3570   29.4060   32.3220 C   0  0  0  0  0  0  0  0  0  0  0  0
   35.7880   30.1220   31.0920 C   0  0  0  0  0  0  0  0  0  0  0  0
   37.1510   29.6900   30.6110 C   0  0  0  0  0  0  0  0  0  0  0  0
   37.1730   28.1980   30.3140 C   0  0  2  0  0  0  0  0  0  0  0  0
   35.1350   27.6830   30.4400 H   0  0  0  0  0  0  0  0  0  0  0  0
   36.8580   27.9590   32.9830 H   0  0  0  0  0  0  0  0  0  0  0  0
   35.1780   27.3930   32.9490 H   0  0  0  0  0  0  0  0  0  0  0  0
   35.7840   29.9720   33.1830 H   0  0  0  0  0  0  0  0  0  0  0  0
   34.2750   29.4220   32.4830 H   0  0  0  0  0  0  0  0  0  0  0  0
   35.7710   31.1990   31.2240 H   0  0  0  0  0  0  0  0  0  0  0  0
   35.0620   29.8350   30.2940 H   0  0  0  0  0  0  0  0  0  0  0  0
   37.4610   30.3190   29.7700 H   0  0  0  0  0  0  0  0  0  0  0  0
   37.8490   29.8670   31.4540 H   0  0  0  0  0  0  0  0  0  0  0  0
   38.1420   27.7190   30.5530 H   0  0  0  0  0  0  0  0  0  0  0  0
   35.6330   23.7810   31.1980 C   0  0  0  0  0  0  0  0  0  0  0  0
   35.3410   25.1510   31.2100 C   0  0  0  0  0  0  0  0  0  0  0  0
   36.3950   26.0320   31.0210 C   0  0  0  0  0  0  0  0  0  0  0  0
   37.6640   25.5300   30.8330 N   0  0  0  0  0  0  0  0  0  0  0  0
   37.9070   24.2130   30.8280 C   0  0  0  0  0  0  0  0  0  0  0  0
   36.8990   23.3430   31.0080 N   0  0  0  0  0  0  0  0  0  0  0  0
   34.9350   22.9670   31.3280 H   0  0  0  0  0  0  0  0  0  0  0  0
   34.2920   25.2710   31.3790 H   0  0  0  0  0  0  0  0  0  0  0  0
   38.9140   23.8480   30.6780 H   0  0  0  0  0  0  0  0  0  0  0  0
   37.0290   28.1680   28.8640 N   0  0  0  0  0  0  0  0  0  0  0  0
   37.6730   27.4180   28.5300 H   0  0  0  0  0  0  0  0  0  0  0  0
   37.2800   29.0800   28.4660 H   0  0  0  0  0  0  0  0  0  0  0  0
  1  7  1  6  0  0  0
  1  2  1  0  0  0  0
  2  9  1  0  0  0  0
  2  8  1  0  0  0  0
  3  2  1  0  0  0  0
  3 11  1  0  0  0  0
  3 10  1  0  0  0  0
  4 12  1  0  0  0  0
  4  3  1  0  0  0  0
  5  4  1  0  0  0  0
  5 15  1  0  0  0  0
  6 16  1  1  0  0  0
  6  5  1  0  0  0  0
  6  1  1  0  0  0  0
 13  4  1  0  0  0  0
 14  5  1  0  0  0  0
 17 18  1  0  0  0  0
 17 23  1  0  0  0  0
 18 24  1  0  0  0  0
 19  1  1  0  0  0  0
 19 18  2  0  0  0  0
 20 19  1  0  0  0  0
 21 20  2  0  0  0  0
 21 22  1  0  0  0  0
 22 17  2  0  0  0  0
 25 21  1  0  0  0  0
 26  6  1  0  0  0  0
 27 26  1  0  0  0  0
 28 26  1  0  0  0  0
M  END
>  <minimizedAffinity>
-3.93879724

$$$$

 OpenBabel03262523553D

 28 29  0  0  1  0  0  0  0  0999 V2000
   37.9690   26.4250   34.1710 C   0  0  1  0  0  0  0  0  0  0  0  0
   38.5970   25.6340   33.0940 C   0  0  0  0  0  0  0  0  0  0  0  0
   39.4370   24.5550   33.6910 C   0  0  0  0  0  0  0  0  0  0  0  0
   40.0630   24.9780   34.9710 C   0  0  0  0  0  0  0  0  0  0  0  0
   40.3320   26.4610   35.0300 C   0  0  0  0  0  0  0  0  0  0  0  0
   39.0440   27.2520   34.8570 C   0  0  2  0  0  0  0  0  0  0  0  0
   37.5720   25.7500   34.9790 H   0  0  0  0  0  0  0  0  0  0  0  0
   39.1080   26.2530   32.3520 H   0  0  0  0  0  0  0  0  0  0  0  0
   37.7550   25.1240   32.5380 H   0  0  0  0  0  0  0  0  0  0  0  0
   40.2710   24.3800   32.9720 H   0  0  0  0  0  0  0  0  0  0  0  0
   38.9130   23.5960   33.7520 H   0  0  0  0  0  0  0  0  0  0  0  0
   40.9790   24.4310   35.1720 H   0  0  0  0  0  0  0  0  0  0  0  0
   39.3160   24.7560   35.7710 H   0  0  0  0  0  0  0  0  0  0  0  0
   40.8860   26.6990   35.9440 H   0  0  0  0  0  0  0  0  0  0  0  0
   40.9790   26.6940   34.1600 H   0  0  0  0  0  0  0  0  0  0  0  0
   39.1840   28.2010   34.3050 H   0  0  0  0  0  0  0  0  0  0  0  0
   35.6090   28.1580   31.8850 C   0  0  0  0  0  0  0  0  0  0  0  0
   36.5850   27.2730   32.3610 C   0  0  0  0  0  0  0  0  0  0  0  0
   36.9360   27.3660   33.6990 C   0  0  0  0  0  0  0  0  0  0  0  0
   36.3200   28.3100   34.4910 N   0  0  0  0  0  0  0  0  0  0  0  0
   35.3910   29.1420   34.0020 C   0  0  0  0  0  0  0  0  0  0  0  0
   35.0360   29.0670   32.7080 N   0  0  0  0  0  0  0  0  0  0  0  0
   35.2230   28.2180   30.8780 H   0  0  0  0  0  0  0  0  0  0  0  0
   36.9020   26.6520   31.5500 H   0  0  0  0  0  0  0  0  0  0  0  0
   34.9240   29.8740   34.6470 H   0  0  0  0  0  0  0  0  0  0  0  0
   38.7110   27.6040   36.2320 N   0  0  0  0  0  0  0  0  0  0  0  0
   38.3620   28.5880   36.1960 H   0  0  0  0  0  0  0  0  0  0  0  0
   39.5420   27.5250   36.8270 H   0  0  0  0  0  0  0  0  0  0  0  0
  1  6  1  0  0  0  0
  1  7  1  1  0  0  0
  2  3  1  0  0  0  0
  2  1  1  0  0  0  0
  3 11  1  0  0  0  0
  3  4  1  0  0  0  0
  4  5  1  0  0  0  0
  4 12  1  0  0  0  0
  4 13  1  0  0  0  0
  5 14  1  0  0  0  0
  6 16  1  6  0  0  0
  6  5  1  0  0  0  0
  6 26  1  0  0  0  0
  8  2  1  0  0  0  0
  9  2  1  0  0  0  0
 10  3  1  0  0  0  0
 15  5  1  0  0  0  0
 17 18  2  0  0  0  0
 17 22  1  0  0  0  0
 18 19  1  0  0  0  0
 19  1  1  0  0  0  0
 19 20  2  0  0  0  0
 21 20  1  0  0  0  0
 21 25  1  0  0  0  0
 22 21  2  0  0  0  0
 23 17  1  0  0  0  0
 24 18  1  0  0  0  0
 26 28  1  0  0  0  0
 27 26  1  0  0  0  0
M  END
>  <minimizedAffinity>
-3.91563463

$$$$

 OpenBabel03262523553D

 28 29  0  0  1  0  0  0  0  0999 V2000
   36.9320   21.3400   33.2940 C   0  0  1  0  0  0  0  0  0  0  0  0
   35.7710   20.6430   33.8820 C   0  0  0  0  0  0  0  0  0  0  0  0
   35.3580   19.5210   32.9900 C   0  0  0  0  0  0  0  0  0  0  0  0
   35.5780   19.8370   31.5540 C   0  0  0  0  0  0  0  0  0  0  0  0
   35.4610   21.3110   31.2550 C   0  0  0  0  0  0  0  0  0  0  0  0
   36.4690   22.1110   32.0680 C   0  0  2  0  0  0  0  0  0  0  0  0
   37.6800   20.6000   32.8970 H   0  0  0  0  0  0  0  0  0  0  0  0
   34.9620   21.3240   34.1640 H   0  0  0  0  0  0  0  0  0  0  0  0
   36.1300   20.1790   34.8470 H   0  0  0  0  0  0  0  0  0  0  0  0
   34.2570   19.4080   33.1240 H   0  0  0  0  0  0  0  0  0  0  0  0
   35.7780   18.5590   33.2970 H   0  0  0  0  0  0  0  0  0  0  0  0
   34.9070   19.2790   30.9090 H   0  0  0  0  0  0  0  0  0  0  0  0
   36.6330   19.5480   31.3300 H   0  0  0  0  0  0  0  0  0  0  0  0
   35.5280   21.4740   30.1730 H   0  0  0  0  0  0  0  0  0  0  0  0
   34.4510   21.6180   31.5920 H   0  0  0  0  0  0  0  0  0  0  0  0
   36.0910   23.1020   32.3810 H   0  0  0  0  0  0  0  0  0  0  0  0
   38.1970   22.8810   36.4290 C   0  0  0  0  0  0  0  0  0  0  0  0
   37.6020   21.9710   35.5440 C   0  0  0  0  0  0  0  0  0  0  0  0
   37.5690   22.3140   34.2010 C   0  0  0  0  0  0  0  0  0  0  0  0
   38.1120   23.5150   33.8000 N   0  0  0  0  0  0  0  0  0  0  0  0
   38.6720   24.3610   34.6740 C   0  0  0  0  0  0  0  0  0  0  0  0
   38.7160   24.0470   35.9800 N   0  0  0  0  0  0  0  0  0  0  0  0
   38.3050   22.7700   37.4970 H   0  0  0  0  0  0  0  0  0  0  0  0
   37.2580   21.1290   36.1060 H   0  0  0  0  0  0  0  0  0  0  0  0
   39.0910   25.2970   34.3300 H   0  0  0  0  0  0  0  0  0  0  0  0
   37.5320   22.3460   31.1000 N   0  0  0  0  0  0  0  0  0  0  0  0
   37.8490   23.3280   31.2590 H   0  0  0  0  0  0  0  0  0  0  0  0
   37.1740   22.2200   30.1460 H   0  0  0  0  0  0  0  0  0  0  0  0
  1  7  1  6  0  0  0
  1  2  1  0  0  0  0
  1 19  1  0  0  0  0
  2  8  1  0  0  0  0
  2  9  1  0  0  0  0
  3 10  1  0  0  0  0
  3 11  1  0  0  0  0
  3  2  1  0  0  0  0
  4  3  1  0  0  0  0
  5  4  1  0  0  0  0
  5 15  1  0  0  0  0
  5  6  1  0  0  0  0
  6 16  1  1  0  0  0
  6  1  1  0  0  0  0
 12  4  1  0  0  0  0
 13  4  1  0  0  0  0
 14  5  1  0  0  0  0
 17 23  1  0  0  0  0
 18 24  1  0  0  0  0
 18 17  2  0  0  0  0
 19 18  1  0  0  0  0
 20 19  2  0  0  0  0
 20 21  1  0  0  0  0
 21 22  2  0  0  0  0
 22 17  1  0  0  0  0
 25 21  1  0  0  0  0
 26 27  1  0  0  0  0
 26  6  1  0  0  0  0
 28 26  1  0  0  0  0
M  END
>  <minimizedAffinity>
-3.91085672

$$$$
