
 OpenBabel03272501533D

 18 18  0  0  0  0  0  0  0  0999 V2000
   37.3250   30.1930   51.4230 C   0  0  0  0  0  0  0  0  0  0  0  0
   38.0760   30.7110   50.3670 C   0  0  0  0  0  0  0  0  0  0  0  0
   37.7250   30.4080   49.0190 C   0  0  0  0  0  0  0  0  0  0  0  0
   36.6450   29.6090   48.8500 N   0  0  0  0  0  0  0  0  0  0  0  0
   35.9390   29.1240   49.8990 C   0  0  0  0  0  0  0  0  0  0  0  0
   36.2780   29.4150   51.1590 N   0  0  0  0  0  0  0  0  0  0  0  0
   37.6730   30.4830   52.4060 H   0  0  0  0  0  0  0  0  0  0  0  0
   38.9550   31.3610   50.4870 H   0  0  0  0  0  0  0  0  0  0  0  0
   38.2890   30.7960   48.1890 H   0  0  0  0  0  0  0  0  0  0  0  0
   34.7640   28.2490   49.5730 C   0  0  0  0  0  0  0  0  0  0  0  0
   35.1520   27.3190   49.0790 H   0  0  0  0  0  0  0  0  0  0  0  0
   34.2310   27.9470   50.5090 H   0  0  0  0  0  0  0  0  0  0  0  0
   33.8630   28.9090   48.5840 C   0  0  0  0  0  0  0  0  0  0  0  0
   34.0730   29.9910   48.4450 H   0  0  0  0  0  0  0  0  0  0  0  0
   32.8150   28.7160   48.9130 H   0  0  0  0  0  0  0  0  0  0  0  0
   34.1240   28.2830   47.2860 N   0  0  0  0  0  0  0  0  0  0  0  0
   33.3000   28.3840   46.6690 H   0  0  0  0  0  0  0  0  0  0  0  0
   35.0330   28.5380   46.8810 H   0  0  0  0  0  0  0  0  0  0  0  0
  1  7  1  0  0  0  0
  2  8  1  0  0  0  0
  2  1  2  0  0  0  0
  3  2  1  0  0  0  0
  4  3  2  0  0  0  0
  4  5  1  0  0  0  0
  5  6  2  0  0  0  0
  6  1  1  0  0  0  0
  9  3  1  0  0  0  0
 10  5  1  0  0  0  0
 10 12  1  0  0  0  0
 11 10  1  0  0  0  0
 13 15  1  0  0  0  0
 13 10  1  0  0  0  0
 14 13  1  0  0  0  0
 16 13  1  0  0  0  0
 17 16  1  0  0  0  0
 18 16  1  0  0  0  0
M  END
>  <minimizedAffinity>
-3.41978765

>  <minimizedRMSD>
0.579006255

$$$$
