
 OpenBabel03272510183D

 22 23  0  0  0  0  0  0  0  0999 V2000
   41.2120   24.5780   33.9500 Br  0  0  0  0  0  0  0  0  0  0  0  0
   40.3860   23.9520   35.5440 C   0  0  0  0  0  0  0  0  0  0  0  0
   39.1240   24.3970   35.9090 C   0  0  0  0  0  0  0  0  0  0  0  0
   38.5980   23.8930   37.0830 C   0  0  0  0  0  0  0  0  0  0  0  0
   39.2540   22.9860   37.8940 C   0  0  0  0  0  0  0  0  0  0  0  0
   40.4990   22.5740   37.4960 C   0  0  0  0  0  0  0  0  0  0  0  0
   41.0560   23.0620   36.3220 C   0  0  0  0  0  0  0  0  0  0  0  0
   37.6010   24.2730   37.3280 H   0  0  0  0  0  0  0  0  0  0  0  0
   40.9860   21.8650   38.1520 H   0  0  0  0  0  0  0  0  0  0  0  0
   42.0420   22.6880   36.0760 H   0  0  0  0  0  0  0  0  0  0  0  0
   37.6570   27.5490   34.8220 C   0  0  0  0  0  0  0  0  0  0  0  0
   37.0330   27.2180   33.5780 C   0  0  0  0  0  0  0  0  0  0  0  0
   37.1380   25.9010   33.1470 C   0  0  0  0  0  0  0  0  0  0  0  0
   37.8200   25.0000   33.9160 N   0  0  0  0  0  0  0  0  0  0  0  0
   38.3960   25.3520   35.0850 C   0  0  0  0  0  0  0  0  0  0  0  0
   38.3050   26.6190   35.5190 N   0  0  0  0  0  0  0  0  0  0  0  0
   37.5890   28.5660   35.1790 H   0  0  0  0  0  0  0  0  0  0  0  0
   36.4990   27.9780   33.0030 H   0  0  0  0  0  0  0  0  0  0  0  0
   36.6830   25.5940   32.2100 H   0  0  0  0  0  0  0  0  0  0  0  0
   38.5400   22.5900   39.0600 N   0  0  0  0  0  0  0  0  0  0  0  0
   37.9570   21.7710   38.7810 H   0  0  0  0  0  0  0  0  0  0  0  0
   38.5300   22.9660   40.0210 H   0  0  0  0  0  0  0  0  0  0  0  0
  1  2  1  0  0  0  0
  2  3  2  0  0  0  0
  2  7  1  0  0  0  0
  3  4  1  0  0  0  0
  4  8  1  0  0  0  0
  4  5  2  0  0  0  0
  5 20  1  0  0  0  0
  6  5  1  0  0  0  0
  6  9  1  0  0  0  0
  7  6  2  0  0  0  0
 10  7  1  0  0  0  0
 11 17  1  0  0  0  0
 11 16  1  0  0  0  0
 12 11  2  0  0  0  0
 13 12  1  0  0  0  0
 13 14  2  0  0  0  0
 14 15  1  0  0  0  0
 15 16  2  0  0  0  0
 15  3  1  0  0  0  0
 18 12  1  0  0  0  0
 19 13  1  0  0  0  0
 20 22  1  0  0  0  0
 21 20  1  0  0  0  0
M  END
>  <minimizedAffinity>
-4.50624275

$$$$

 OpenBabel03272510183D

 22 23  0  0  0  0  0  0  0  0999 V2000
   37.4570   26.5010   35.2690 Br  0  0  0  0  0  0  0  0  0  0  0  0
   38.3870   25.0420   36.0560 C   0  0  0  0  0  0  0  0  0  0  0  0
   39.6260   24.6500   35.5710 C   0  0  0  0  0  0  0  0  0  0  0  0
   40.2330   23.5790   36.2000 C   0  0  0  0  0  0  0  0  0  0  0  0
   39.6780   22.8950   37.2660 C   0  0  0  0  0  0  0  0  0  0  0  0
   38.4520   23.3170   37.7110 C   0  0  0  0  0  0  0  0  0  0  0  0
   37.8150   24.3890   37.1010 C   0  0  0  0  0  0  0  0  0  0  0  0
   41.2070   23.3070   35.7830 H   0  0  0  0  0  0  0  0  0  0  0  0
   38.0440   22.7610   38.5450 H   0  0  0  0  0  0  0  0  0  0  0  0
   36.8510   24.6600   37.5110 H   0  0  0  0  0  0  0  0  0  0  0  0
   41.6240   27.0900   33.7490 C   0  0  0  0  0  0  0  0  0  0  0  0
   41.4630   26.7020   32.3820 C   0  0  0  0  0  0  0  0  0  0  0  0
   40.6600   25.5960   32.1260 C   0  0  0  0  0  0  0  0  0  0  0  0
   40.0730   24.9430   33.1740 N   0  0  0  0  0  0  0  0  0  0  0  0
   40.2490   25.3410   34.4520 C   0  0  0  0  0  0  0  0  0  0  0  0
   41.0200   26.4070   34.7180 N   0  0  0  0  0  0  0  0  0  0  0  0
   42.2420   27.9470   33.9730 H   0  0  0  0  0  0  0  0  0  0  0  0
   41.9560   27.2600   31.5820 H   0  0  0  0  0  0  0  0  0  0  0  0
   40.5040   25.2570   31.1070 H   0  0  0  0  0  0  0  0  0  0  0  0
   40.4640   21.8220   37.7710 N   0  0  0  0  0  0  0  0  0  0  0  0
   41.0940   22.2360   38.4920 H   0  0  0  0  0  0  0  0  0  0  0  0
   40.4820   20.8160   37.5410 H   0  0  0  0  0  0  0  0  0  0  0  0
  1  2  1  0  0  0  0
  2  7  1  0  0  0  0
  3  2  2  0  0  0  0
  3  4  1  0  0  0  0
  4  5  2  0  0  0  0
  5  6  1  0  0  0  0
  5 20  1  0  0  0  0
  6  9  1  0  0  0  0
  7 10  1  0  0  0  0
  7  6  2  0  0  0  0
  8  4  1  0  0  0  0
 11 17  1  0  0  0  0
 11 16  1  0  0  0  0
 12 11  2  0  0  0  0
 13 12  1  0  0  0  0
 13 14  2  0  0  0  0
 14 15  1  0  0  0  0
 15 16  2  0  0  0  0
 15  3  1  0  0  0  0
 18 12  1  0  0  0  0
 19 13  1  0  0  0  0
 20 21  1  0  0  0  0
 22 20  1  0  0  0  0
M  END
>  <minimizedAffinity>
-4.32591391

$$$$

 OpenBabel03272510183D

 22 23  0  0  0  0  0  0  0  0999 V2000
   39.8110   25.5110   30.8260 Br  0  0  0  0  0  0  0  0  0  0  0  0
   39.4640   26.1610   32.5780 C   0  0  0  0  0  0  0  0  0  0  0  0
   38.1780   26.1410   33.0980 C   0  0  0  0  0  0  0  0  0  0  0  0
   38.0130   26.6330   34.3790 C   0  0  0  0  0  0  0  0  0  0  0  0
   39.0450   27.1320   35.1520 C   0  0  0  0  0  0  0  0  0  0  0  0
   40.3000   27.1330   34.5980 C   0  0  0  0  0  0  0  0  0  0  0  0
   40.4980   26.6460   33.3130 C   0  0  0  0  0  0  0  0  0  0  0  0
   36.9820   26.5960   34.7450 H   0  0  0  0  0  0  0  0  0  0  0  0
   41.0840   27.5300   35.2270 H   0  0  0  0  0  0  0  0  0  0  0  0
   41.5160   26.6810   32.9480 H   0  0  0  0  0  0  0  0  0  0  0  0
   35.2420   26.1110   30.9420 C   0  0  0  0  0  0  0  0  0  0  0  0
   34.9240   24.7210   30.8280 C   0  0  0  0  0  0  0  0  0  0  0  0
   35.7410   23.8250   31.5070 C   0  0  0  0  0  0  0  0  0  0  0  0
   36.7920   24.3040   32.2370 N   0  0  0  0  0  0  0  0  0  0  0  0
   37.0600   25.6240   32.3210 C   0  0  0  0  0  0  0  0  0  0  0  0
   36.2810   26.5050   31.6730 N   0  0  0  0  0  0  0  0  0  0  0  0
   34.6210   26.8260   30.4250 H   0  0  0  0  0  0  0  0  0  0  0  0
   34.0710   24.3920   30.2290 H   0  0  0  0  0  0  0  0  0  0  0  0
   35.5470   22.7580   31.4550 H   0  0  0  0  0  0  0  0  0  0  0  0
   38.6660   27.5900   36.4440 N   0  0  0  0  0  0  0  0  0  0  0  0
   38.7250   26.7620   37.0760 H   0  0  0  0  0  0  0  0  0  0  0  0
   38.3790   28.5200   36.7870 H   0  0  0  0  0  0  0  0  0  0  0  0
  1  2  1  0  0  0  0
  2  3  2  0  0  0  0
  2  7  1  0  0  0  0
  3  4  1  0  0  0  0
  4  8  1  0  0  0  0
  4  5  2  0  0  0  0
  5 20  1  0  0  0  0
  6  5  1  0  0  0  0
  6  9  1  0  0  0  0
  7  6  2  0  0  0  0
 10  7  1  0  0  0  0
 11 16  1  0  0  0  0
 12 11  2  0  0  0  0
 12 13  1  0  0  0  0
 13 14  2  0  0  0  0
 14 15  1  0  0  0  0
 15  3  1  0  0  0  0
 16 15  2  0  0  0  0
 17 11  1  0  0  0  0
 18 12  1  0  0  0  0
 19 13  1  0  0  0  0
 20 22  1  0  0  0  0
 20 21  1  0  0  0  0
M  END
>  <minimizedAffinity>
-4.2266078

$$$$

 OpenBabel03272510183D

 22 23  0  0  0  0  0  0  0  0999 V2000
   38.5710   27.3150   35.6590 Br  0  0  0  0  0  0  0  0  0  0  0  0
   38.0960   26.1630   34.2250 C   0  0  0  0  0  0  0  0  0  0  0  0
   38.0940   24.7860   34.3940 C   0  0  0  0  0  0  0  0  0  0  0  0
   37.7370   24.0210   33.3000 C   0  0  0  0  0  0  0  0  0  0  0  0
   37.3880   24.5500   32.0710 C   0  0  0  0  0  0  0  0  0  0  0  0
   37.4040   25.9150   31.9480 C   0  0  0  0  0  0  0  0  0  0  0  0
   37.7590   26.7110   33.0280 C   0  0  0  0  0  0  0  0  0  0  0  0
   37.7510   22.9420   33.4820 H   0  0  0  0  0  0  0  0  0  0  0  0
   37.1270   26.2970   30.9750 H   0  0  0  0  0  0  0  0  0  0  0  0
   37.7460   27.7790   32.8510 H   0  0  0  0  0  0  0  0  0  0  0  0
   40.0650   23.0430   36.9130 C   0  0  0  0  0  0  0  0  0  0  0  0
   39.2070   23.0260   38.0580 C   0  0  0  0  0  0  0  0  0  0  0  0
   37.9590   23.6230   37.9240 C   0  0  0  0  0  0  0  0  0  0  0  0
   37.6160   24.1890   36.7290 N   0  0  0  0  0  0  0  0  0  0  0  0
   38.4540   24.1850   35.6700 C   0  0  0  0  0  0  0  0  0  0  0  0
   39.6630   23.6120   35.7790 N   0  0  0  0  0  0  0  0  0  0  0  0
   41.0390   22.5840   36.9920 H   0  0  0  0  0  0  0  0  0  0  0  0
   39.5320   22.5590   38.9900 H   0  0  0  0  0  0  0  0  0  0  0  0
   37.2680   23.6390   38.7610 H   0  0  0  0  0  0  0  0  0  0  0  0
   37.0530   23.5920   31.0740 N   0  0  0  0  0  0  0  0  0  0  0  0
   36.0310   23.4100   31.1750 H   0  0  0  0  0  0  0  0  0  0  0  0
   37.6240   23.1180   30.3560 H   0  0  0  0  0  0  0  0  0  0  0  0
  2  3  1  0  0  0  0
  2  1  1  0  0  0  0
  3 15  1  0  0  0  0
  4  8  1  0  0  0  0
  4  3  2  0  0  0  0
  5  4  1  0  0  0  0
  6  5  2  0  0  0  0
  6  7  1  0  0  0  0
  7  2  2  0  0  0  0
  9  6  1  0  0  0  0
 10  7  1  0  0  0  0
 11 17  1  0  0  0  0
 11 12  1  0  0  0  0
 12 18  1  0  0  0  0
 13 12  2  0  0  0  0
 13 19  1  0  0  0  0
 14 13  1  0  0  0  0
 15 16  1  0  0  0  0
 15 14  2  0  0  0  0
 16 11  2  0  0  0  0
 20 21  1  0  0  0  0
 20  5  1  0  0  0  0
 22 20  1  0  0  0  0
M  END
>  <minimizedAffinity>
-4.14212227

$$$$

 OpenBabel03272510183D

 22 23  0  0  0  0  0  0  0  0999 V2000
   41.7680   25.9740   33.6160 Br  0  0  0  0  0  0  0  0  0  0  0  0
   41.3710   24.6520   34.9230 C   0  0  0  0  0  0  0  0  0  0  0  0
   40.1010   24.5610   35.4730 C   0  0  0  0  0  0  0  0  0  0  0  0
   39.8970   23.5720   36.4170 C   0  0  0  0  0  0  0  0  0  0  0  0
   40.8770   22.6880   36.8310 C   0  0  0  0  0  0  0  0  0  0  0  0
   42.1180   22.8150   36.2610 C   0  0  0  0  0  0  0  0  0  0  0  0
   42.3540   23.7980   35.3100 C   0  0  0  0  0  0  0  0  0  0  0  0
   38.8810   23.5400   36.8220 H   0  0  0  0  0  0  0  0  0  0  0  0
   42.8620   22.1100   36.6060 H   0  0  0  0  0  0  0  0  0  0  0  0
   43.3580   23.8330   34.9070 H   0  0  0  0  0  0  0  0  0  0  0  0
   37.9320   27.4870   35.4560 C   0  0  0  0  0  0  0  0  0  0  0  0
   37.0470   27.2420   34.3600 C   0  0  0  0  0  0  0  0  0  0  0  0
   37.2260   26.0600   33.6510 C   0  0  0  0  0  0  0  0  0  0  0  0
   38.2230   25.2030   34.0260 N   0  0  0  0  0  0  0  0  0  0  0  0
   39.0390   25.4700   35.0680 C   0  0  0  0  0  0  0  0  0  0  0  0
   38.8800   26.6060   35.7660 N   0  0  0  0  0  0  0  0  0  0  0  0
   37.8110   28.3980   36.0230 H   0  0  0  0  0  0  0  0  0  0  0  0
   36.2660   27.9620   34.1020 H   0  0  0  0  0  0  0  0  0  0  0  0
   36.5830   25.8240   32.8090 H   0  0  0  0  0  0  0  0  0  0  0  0
   40.4650   21.7450   37.8120 N   0  0  0  0  0  0  0  0  0  0  0  0
   40.0850   20.9260   37.2890 H   0  0  0  0  0  0  0  0  0  0  0  0
   40.4930   21.7690   38.8440 H   0  0  0  0  0  0  0  0  0  0  0  0
  1  2  1  0  0  0  0
  2  7  2  0  0  0  0
  2  3  1  0  0  0  0
  3  4  2  0  0  0  0
  4  8  1  0  0  0  0
  4  5  1  0  0  0  0
  5 20  1  0  0  0  0
  6  9  1  0  0  0  0
  6  5  2  0  0  0  0
  7  6  1  0  0  0  0
 10  7  1  0  0  0  0
 11 16  1  0  0  0  0
 11 17  1  0  0  0  0
 12 11  2  0  0  0  0
 13 14  2  0  0  0  0
 13 12  1  0  0  0  0
 14 15  1  0  0  0  0
 15  3  1  0  0  0  0
 15 16  2  0  0  0  0
 18 12  1  0  0  0  0
 19 13  1  0  0  0  0
 20 22  1  0  0  0  0
 21 20  1  0  0  0  0
M  END
>  <minimizedAffinity>
-4.14002228

$$$$

 OpenBabel03272510183D

 22 23  0  0  0  0  0  0  0  0999 V2000
   41.1370   21.9250   33.4400 Br  0  0  0  0  0  0  0  0  0  0  0  0
   40.4400   22.2600   35.1760 C   0  0  0  0  0  0  0  0  0  0  0  0
   39.1460   22.7330   35.3400 C   0  0  0  0  0  0  0  0  0  0  0  0
   38.7190   22.9510   36.6360 C   0  0  0  0  0  0  0  0  0  0  0  0
   39.5010   22.7250   37.7530 C   0  0  0  0  0  0  0  0  0  0  0  0
   40.7740   22.2590   37.5450 C   0  0  0  0  0  0  0  0  0  0  0  0
   41.2330   22.0310   36.2550 C   0  0  0  0  0  0  0  0  0  0  0  0
   37.6930   23.3230   36.7140 H   0  0  0  0  0  0  0  0  0  0  0  0
   41.3600   22.0940   38.4390 H   0  0  0  0  0  0  0  0  0  0  0  0
   42.2480   21.6620   36.1740 H   0  0  0  0  0  0  0  0  0  0  0  0
   36.7470   22.1140   32.6700 C   0  0  0  0  0  0  0  0  0  0  0  0
   36.6340   23.3830   32.0200 C   0  0  0  0  0  0  0  0  0  0  0  0
   37.3990   24.4270   32.5280 C   0  0  0  0  0  0  0  0  0  0  0  0
   38.2070   24.1970   33.6050 N   0  0  0  0  0  0  0  0  0  0  0  0
   38.2870   22.9840   34.1920 C   0  0  0  0  0  0  0  0  0  0  0  0
   37.5570   21.9630   33.7150 N   0  0  0  0  0  0  0  0  0  0  0  0
   36.1640   21.2870   32.2930 H   0  0  0  0  0  0  0  0  0  0  0  0
   35.9710   23.5120   31.1610 H   0  0  0  0  0  0  0  0  0  0  0  0
   37.3520   25.4120   32.0740 H   0  0  0  0  0  0  0  0  0  0  0  0
   38.8750   23.0130   38.9980 N   0  0  0  0  0  0  0  0  0  0  0  0
   38.3840   22.1380   39.2860 H   0  0  0  0  0  0  0  0  0  0  0  0
   38.8510   23.8690   39.5740 H   0  0  0  0  0  0  0  0  0  0  0  0
  1  2  1  0  0  0  0
  2  3  2  0  0  0  0
  2  7  1  0  0  0  0
  3  4  1  0  0  0  0
  4  8  1  0  0  0  0
  4  5  2  0  0  0  0
  5 20  1  0  0  0  0
  6  5  1  0  0  0  0
  6  9  1  0  0  0  0
  7  6  2  0  0  0  0
 10  7  1  0  0  0  0
 11 16  1  0  0  0  0
 12 13  1  0  0  0  0
 12 11  2  0  0  0  0
 13 14  2  0  0  0  0
 14 15  1  0  0  0  0
 15  3  1  0  0  0  0
 16 15  2  0  0  0  0
 17 11  1  0  0  0  0
 18 12  1  0  0  0  0
 19 13  1  0  0  0  0
 20 21  1  0  0  0  0
 20 22  1  0  0  0  0
M  END
>  <minimizedAffinity>
-4.07021379

$$$$

 OpenBabel03272510183D

 22 23  0  0  0  0  0  0  0  0999 V2000
   34.8700   29.3430   33.8830 Br  0  0  0  0  0  0  0  0  0  0  0  0
   34.6460   30.7110   35.1830 C   0  0  0  0  0  0  0  0  0  0  0  0
   33.4560   30.8310   35.8850 C   0  0  0  0  0  0  0  0  0  0  0  0
   33.3760   31.8540   36.8110 C   0  0  0  0  0  0  0  0  0  0  0  0
   34.4030   32.7440   37.0670 C   0  0  0  0  0  0  0  0  0  0  0  0
   35.5610   32.5880   36.3500 C   0  0  0  0  0  0  0  0  0  0  0  0
   35.6730   31.5710   35.4120 C   0  0  0  0  0  0  0  0  0  0  0  0
   32.4190   31.9080   37.3390 H   0  0  0  0  0  0  0  0  0  0  0  0
   36.3450   33.3000   36.5730 H   0  0  0  0  0  0  0  0  0  0  0  0
   36.6180   31.5140   34.8880 H   0  0  0  0  0  0  0  0  0  0  0  0
   30.3780   29.4890   34.4750 C   0  0  0  0  0  0  0  0  0  0  0  0
   30.2190   28.2360   35.1470 C   0  0  0  0  0  0  0  0  0  0  0  0
   31.1900   27.8890   36.0790 C   0  0  0  0  0  0  0  0  0  0  0  0
   32.2320   28.7430   36.3050 N   0  0  0  0  0  0  0  0  0  0  0  0
   32.3480   29.9170   35.6490 C   0  0  0  0  0  0  0  0  0  0  0  0
   31.4190   30.2710   34.7460 N   0  0  0  0  0  0  0  0  0  0  0  0
   29.6350   29.7810   33.7470 H   0  0  0  0  0  0  0  0  0  0  0  0
   29.3650   27.5910   34.9290 H   0  0  0  0  0  0  0  0  0  0  0  0
   31.1190   26.9490   36.6190 H   0  0  0  0  0  0  0  0  0  0  0  0
   34.1210   33.7240   38.0580 N   0  0  0  0  0  0  0  0  0  0  0  0
   34.3910   33.3010   38.9730 H   0  0  0  0  0  0  0  0  0  0  0  0
   33.7330   34.6780   37.9910 H   0  0  0  0  0  0  0  0  0  0  0  0
  1  2  1  0  0  0  0
  2  7  2  0  0  0  0
  2  3  1  0  0  0  0
  3  4  2  0  0  0  0
  4  5  1  0  0  0  0
  4  8  1  0  0  0  0
  5 20  1  0  0  0  0
  6  9  1  0  0  0  0
  6  5  2  0  0  0  0
  7  6  1  0  0  0  0
 10  7  1  0  0  0  0
 11 16  2  0  0  0  0
 11 12  1  0  0  0  0
 12 13  2  0  0  0  0
 13 14  1  0  0  0  0
 13 19  1  0  0  0  0
 15  3  1  0  0  0  0
 15 14  2  0  0  0  0
 16 15  1  0  0  0  0
 17 11  1  0  0  0  0
 18 12  1  0  0  0  0
 20 21  1  0  0  0  0
 22 20  1  0  0  0  0
M  END
>  <minimizedAffinity>
-4.05871248

$$$$

 OpenBabel03272510183D

 22 23  0  0  0  0  0  0  0  0999 V2000
   38.3620   27.4810   35.7090 Br  0  0  0  0  0  0  0  0  0  0  0  0
   37.7520   26.5940   34.1420 C   0  0  0  0  0  0  0  0  0  0  0  0
   37.9330   25.2280   33.9870 C   0  0  0  0  0  0  0  0  0  0  0  0
   37.4600   24.6630   32.8180 C   0  0  0  0  0  0  0  0  0  0  0  0
   36.8290   25.3780   31.8160 C   0  0  0  0  0  0  0  0  0  0  0  0
   36.6730   26.7260   32.0110 C   0  0  0  0  0  0  0  0  0  0  0  0
   37.1370   27.3240   33.1750 C   0  0  0  0  0  0  0  0  0  0  0  0
   37.6250   23.5840   32.7420 H   0  0  0  0  0  0  0  0  0  0  0  0
   36.1770   27.2570   31.2100 H   0  0  0  0  0  0  0  0  0  0  0  0
   36.9750   28.3910   33.2540 H   0  0  0  0  0  0  0  0  0  0  0  0
   38.3780   23.2620   37.0210 C   0  0  0  0  0  0  0  0  0  0  0  0
   39.7680   22.9250   37.0020 C   0  0  0  0  0  0  0  0  0  0  0  0
   40.5190   23.3940   35.9310 C   0  0  0  0  0  0  0  0  0  0  0  0
   39.9070   24.1380   34.9620 N   0  0  0  0  0  0  0  0  0  0  0  0
   38.5910   24.4350   35.0150 C   0  0  0  0  0  0  0  0  0  0  0  0
   37.8490   23.9930   36.0430 N   0  0  0  0  0  0  0  0  0  0  0  0
   37.7730   22.9110   37.8440 H   0  0  0  0  0  0  0  0  0  0  0  0
   40.2070   22.3260   37.8030 H   0  0  0  0  0  0  0  0  0  0  0  0
   41.5790   23.1680   35.8650 H   0  0  0  0  0  0  0  0  0  0  0  0
   36.4180   24.6100   30.6920 N   0  0  0  0  0  0  0  0  0  0  0  0
   35.4590   24.2610   30.9120 H   0  0  0  0  0  0  0  0  0  0  0  0
   36.8900   24.3850   29.8020 H   0  0  0  0  0  0  0  0  0  0  0  0
  2  1  1  0  0  0  0
  3  2  1  0  0  0  0
  3 15  1  0  0  0  0
  4  3  2  0  0  0  0
  5  6  2  0  0  0  0
  5  4  1  0  0  0  0
  6  7  1  0  0  0  0
  7 10  1  0  0  0  0
  7  2  2  0  0  0  0
  8  4  1  0  0  0  0
  9  6  1  0  0  0  0
 11 17  1  0  0  0  0
 12 11  1  0  0  0  0
 12 18  1  0  0  0  0
 13 12  2  0  0  0  0
 14 15  2  0  0  0  0
 14 13  1  0  0  0  0
 15 16  1  0  0  0  0
 16 11  2  0  0  0  0
 19 13  1  0  0  0  0
 20 21  1  0  0  0  0
 20  5  1  0  0  0  0
 22 20  1  0  0  0  0
M  END
>  <minimizedAffinity>
-4.05808783

$$$$

 OpenBabel03272510183D

 22 23  0  0  0  0  0  0  0  0999 V2000
   38.7470   24.4800   33.5290 Br  0  0  0  0  0  0  0  0  0  0  0  0
   37.6510   22.9280   33.5020 C   0  0  0  0  0  0  0  0  0  0  0  0
   37.5000   22.1480   34.6390 C   0  0  0  0  0  0  0  0  0  0  0  0
   36.6860   21.0370   34.5330 C   0  0  0  0  0  0  0  0  0  0  0  0
   36.0290   20.6710   33.3720 C   0  0  0  0  0  0  0  0  0  0  0  0
   36.2070   21.4700   32.2720 C   0  0  0  0  0  0  0  0  0  0  0  0
   37.0180   22.5930   32.3470 C   0  0  0  0  0  0  0  0  0  0  0  0
   36.5980   20.4540   35.4550 H   0  0  0  0  0  0  0  0  0  0  0  0
   35.6800   21.1570   31.3810 H   0  0  0  0  0  0  0  0  0  0  0  0
   37.1070   23.1720   31.4360 H   0  0  0  0  0  0  0  0  0  0  0  0
   38.0110   23.4960   37.9840 C   0  0  0  0  0  0  0  0  0  0  0  0
   39.3790   23.1840   38.2660 C   0  0  0  0  0  0  0  0  0  0  0  0
   40.0920   22.5110   37.2810 C   0  0  0  0  0  0  0  0  0  0  0  0
   39.4660   22.1830   36.1120 N   0  0  0  0  0  0  0  0  0  0  0  0
   38.1720   22.4950   35.8830 C   0  0  0  0  0  0  0  0  0  0  0  0
   37.4670   23.1460   36.8220 N   0  0  0  0  0  0  0  0  0  0  0  0
   37.4370   24.0200   38.7340 H   0  0  0  0  0  0  0  0  0  0  0  0
   39.8300   23.4700   39.2190 H   0  0  0  0  0  0  0  0  0  0  0  0
   41.1330   22.2490   37.4420 H   0  0  0  0  0  0  0  0  0  0  0  0
   35.2390   19.4920   33.4700 N   0  0  0  0  0  0  0  0  0  0  0  0
   34.2950   19.7990   33.7920 H   0  0  0  0  0  0  0  0  0  0  0  0
   35.4580   18.5010   33.2850 H   0  0  0  0  0  0  0  0  0  0  0  0
  2  1  1  0  0  0  0
  2  3  1  0  0  0  0
  3 15  1  0  0  0  0
  4  3  2  0  0  0  0
  4  8  1  0  0  0  0
  5 20  1  0  0  0  0
  5  4  1  0  0  0  0
  6  7  1  0  0  0  0
  6  5  2  0  0  0  0
  7  2  2  0  0  0  0
  9  6  1  0  0  0  0
 10  7  1  0  0  0  0
 11 12  1  0  0  0  0
 11 17  1  0  0  0  0
 12 18  1  0  0  0  0
 13 19  1  0  0  0  0
 13 12  2  0  0  0  0
 14 13  1  0  0  0  0
 15 14  2  0  0  0  0
 15 16  1  0  0  0  0
 16 11  2  0  0  0  0
 20 21  1  0  0  0  0
 22 20  1  0  0  0  0
M  END
>  <minimizedAffinity>
-4.04898548

$$$$
