
 OpenBabel03272508433D

 20 21  0  0  0  0  0  0  0  0999 V2000
   38.7380   22.8900   36.0220 C   0  0  0  0  0  0  0  0  0  0  0  0
   39.6390   22.3560   36.7410 O   0  0  0  0  0  0  0  0  0  0  0  0
   36.7330   21.2510   33.4680 C   0  0  0  0  0  0  0  0  0  0  0  0
   35.6880   20.6590   34.1820 C   0  0  0  0  0  0  0  0  0  0  0  0
   35.6680   20.8230   35.5610 C   0  0  0  0  0  0  0  0  0  0  0  0
   36.6600   21.5490   36.1620 N   0  0  0  0  0  0  0  0  0  0  0  0
   37.6460   22.1020   35.4460 C   0  0  0  0  0  0  0  0  0  0  0  0
   37.6720   21.9470   34.1120 N   0  0  0  0  0  0  0  0  0  0  0  0
   36.7570   21.1270   32.3860 H   0  0  0  0  0  0  0  0  0  0  0  0
   34.9170   20.0890   33.6650 H   0  0  0  0  0  0  0  0  0  0  0  0
   34.8740   20.3840   36.1700 H   0  0  0  0  0  0  0  0  0  0  0  0
   38.8920   24.3310   35.8280 C   0  0  0  0  0  0  0  0  0  0  0  0
   39.9730   24.7650   35.0500 C   0  0  0  0  0  0  0  0  0  0  0  0
   40.6540   24.0390   34.6210 H   0  0  0  0  0  0  0  0  0  0  0  0
   40.2110   26.1250   34.7990 C   0  0  0  0  0  3  0  0  0  0  0  0
   39.3360   27.0750   35.3470 C   0  0  0  0  0  0  0  0  0  0  0  0
   39.5550   28.1120   35.1290 H   0  0  0  0  0  0  0  0  0  0  0  0
   38.2740   26.6260   36.1130 C   0  0  0  0  0  0  0  0  0  0  0  0
   37.6040   27.3930   36.5290 H   0  0  0  0  0  0  0  0  0  0  0  0
   38.0550   25.2900   36.3490 C   0  0  0  0  0  3  0  0  0  0  0  0
  1  2  2  0  0  0  0
  3  8  2  0  0  0  0
  3  4  1  0  0  0  0
  4  5  2  0  0  0  0
  5  6  1  0  0  0  0
  5 11  1  0  0  0  0
  7  1  1  0  0  0  0
  7  6  2  0  0  0  0
  8  7  1  0  0  0  0
  9  3  1  0  0  0  0
 10  4  1  0  0  0  0
 12  1  1  0  0  0  0
 12 20  1  0  0  0  0
 13 12  2  0  0  0  0
 14 13  1  0  0  0  0
 15 13  1  0  0  0  0
 15 16  2  0  0  0  0
 16 18  1  0  0  0  0
 17 16  1  0  0  0  0
 18 20  2  0  0  0  0
 18 19  1  0  0  0  0
M  END
>  <minimizedAffinity>
-4.52142096

$$$$

 OpenBabel03272508433D

 20 21  0  0  0  0  0  0  0  0999 V2000
   38.7980   22.8820   36.0060 C   0  0  0  0  0  0  0  0  0  0  0  0
   39.6570   22.3490   36.7760 O   0  0  0  0  0  0  0  0  0  0  0  0
   36.7630   21.2650   33.4610 C   0  0  0  0  0  0  0  0  0  0  0  0
   35.7090   20.6930   34.1790 C   0  0  0  0  0  0  0  0  0  0  0  0
   35.6950   20.8610   35.5580 C   0  0  0  0  0  0  0  0  0  0  0  0
   36.6990   21.5740   36.1540 N   0  0  0  0  0  0  0  0  0  0  0  0
   37.6920   22.1090   35.4350 C   0  0  0  0  0  0  0  0  0  0  0  0
   37.7130   21.9490   34.1020 N   0  0  0  0  0  0  0  0  0  0  0  0
   36.7830   21.1370   32.3800 H   0  0  0  0  0  0  0  0  0  0  0  0
   34.9290   20.1330   33.6650 H   0  0  0  0  0  0  0  0  0  0  0  0
   34.8940   20.4370   36.1700 H   0  0  0  0  0  0  0  0  0  0  0  0
   39.0120   24.3050   35.7510 C   0  0  0  0  0  0  0  0  0  0  0  0
   38.1030   25.2060   36.3210 C   0  0  0  0  0  0  0  0  0  0  0  0
   37.2800   24.8340   36.9220 H   0  0  0  0  0  0  0  0  0  0  0  0
   38.2180   26.5920   36.1420 C   0  0  0  0  0  3  0  0  0  0  0  0
   39.2780   27.0880   35.3680 C   0  0  0  0  0  0  0  0  0  0  0  0
   39.3310   28.1630   35.2550 H   0  0  0  0  0  0  0  0  0  0  0  0
   40.1660   26.1820   34.8140 C   0  0  0  0  0  0  0  0  0  0  0  0
   40.9870   26.5980   34.2120 H   0  0  0  0  0  0  0  0  0  0  0  0
   40.0390   24.8250   34.9980 C   0  0  0  0  0  3  0  0  0  0  0  0
  1  2  2  0  0  0  0
  3  8  2  0  0  0  0
  3  4  1  0  0  0  0
  4  5  2  0  0  0  0
  5  6  1  0  0  0  0
  5 11  1  0  0  0  0
  7  1  1  0  0  0  0
  7  6  2  0  0  0  0
  8  7  1  0  0  0  0
  9  3  1  0  0  0  0
 10  4  1  0  0  0  0
 12  1  1  0  0  0  0
 12 13  1  0  0  0  0
 13 14  1  0  0  0  0
 15 13  2  0  0  0  0
 16 15  1  0  0  0  0
 17 16  1  0  0  0  0
 18 20  1  0  0  0  0
 18 16  2  0  0  0  0
 19 18  1  0  0  0  0
 20 12  2  0  0  0  0
M  END
>  <minimizedAffinity>
-4.51247311

$$$$

 OpenBabel03272508433D

 20 21  0  0  0  0  0  0  0  0999 V2000
   38.8480   24.4740   34.3470 C   0  0  0  0  0  0  0  0  0  0  0  0
   39.8720   25.1440   34.0070 O   0  0  0  0  0  0  0  0  0  0  0  0
   36.2470   24.8950   31.8400 C   0  0  0  0  0  0  0  0  0  0  0  0
   35.8640   23.5890   31.5220 C   0  0  0  0  0  0  0  0  0  0  0  0
   36.5080   22.5450   32.1760 C   0  0  0  0  0  0  0  0  0  0  0  0
   37.4790   22.8320   33.0960 N   0  0  0  0  0  0  0  0  0  0  0  0
   37.8190   24.0950   33.3760 C   0  0  0  0  0  0  0  0  0  0  0  0
   37.2020   25.1080   32.7470 N   0  0  0  0  0  0  0  0  0  0  0  0
   35.7470   25.7190   31.3320 H   0  0  0  0  0  0  0  0  0  0  0  0
   35.0850   23.4040   30.7830 H   0  0  0  0  0  0  0  0  0  0  0  0
   36.2480   21.5040   31.9680 H   0  0  0  0  0  0  0  0  0  0  0  0
   38.7960   24.1250   35.7660 C   0  0  0  0  0  0  0  0  0  0  0  0
   39.7740   23.2460   36.2500 C   0  0  0  0  0  0  0  0  0  0  0  0
   40.5280   22.8550   35.5760 H   0  0  0  0  0  0  0  0  0  0  0  0
   39.8170   22.8490   37.5940 C   0  0  0  0  0  3  0  0  0  0  0  0
   38.8480   23.3480   38.4780 C   0  0  0  0  0  0  0  0  0  0  0  0
   38.9170   23.0180   39.5060 H   0  0  0  0  0  0  0  0  0  0  0  0
   37.8900   24.2150   37.9810 C   0  0  0  0  0  0  0  0  0  0  0  0
   37.1440   24.5920   38.6950 H   0  0  0  0  0  0  0  0  0  0  0  0
   37.8620   24.5950   36.6590 C   0  0  0  0  0  3  0  0  0  0  0  0
  1 12  1  0  0  0  0
  2  1  2  0  0  0  0
  3  8  1  0  0  0  0
  4  3  2  0  0  0  0
  4  5  1  0  0  0  0
  5  6  2  0  0  0  0
  6  7  1  0  0  0  0
  7  1  1  0  0  0  0
  8  7  2  0  0  0  0
  9  3  1  0  0  0  0
 10  4  1  0  0  0  0
 11  5  1  0  0  0  0
 12 13  2  0  0  0  0
 12 20  1  0  0  0  0
 13 15  1  0  0  0  0
 14 13  1  0  0  0  0
 15 16  2  0  0  0  0
 16 17  1  0  0  0  0
 18 16  1  0  0  0  0
 18 19  1  0  0  0  0
 20 18  2  0  0  0  0
M  END
>  <minimizedAffinity>
-4.31294775

$$$$

 OpenBabel03272508433D

 20 21  0  0  0  0  0  0  0  0999 V2000
   38.8450   22.8600   35.9390 C   0  0  0  0  0  0  0  0  0  0  0  0
   39.6570   22.1810   36.6410 O   0  0  0  0  0  0  0  0  0  0  0  0
   38.2100   26.4370   36.1190 C   0  0  0  0  0  0  0  0  0  0  0  0
   39.2450   27.0050   35.3710 C   0  0  0  0  0  0  0  0  0  0  0  0
   40.1770   26.1510   34.7960 C   0  0  0  0  0  0  0  0  0  0  0  0
   40.0480   24.8010   34.9790 N   0  0  0  0  0  0  0  0  0  0  0  0
   39.0440   24.2920   35.7010 C   0  0  0  0  0  0  0  0  0  0  0  0
   38.1390   25.1120   36.2610 N   0  0  0  0  0  0  0  0  0  0  0  0
   37.4740   27.1000   36.5740 H   0  0  0  0  0  0  0  0  0  0  0  0
   39.3100   28.0860   35.2490 H   0  0  0  0  0  0  0  0  0  0  0  0
   41.0060   26.5400   34.2000 H   0  0  0  0  0  0  0  0  0  0  0  0
   37.7210   22.0950   35.4030 C   0  0  0  0  0  0  0  0  0  0  0  0
   37.6880   21.8820   34.0170 C   0  0  0  0  0  0  0  0  0  0  0  0
   38.4780   22.2830   33.3930 H   0  0  0  0  0  0  0  0  0  0  0  0
   36.6570   21.1590   33.4000 C   0  0  0  0  0  3  0  0  0  0  0  0
   35.6290   20.6350   34.1980 C   0  0  0  0  0  0  0  0  0  0  0  0
   34.8540   20.0830   33.6830 H   0  0  0  0  0  0  0  0  0  0  0  0
   35.6790   20.8540   35.5640 C   0  0  0  0  0  0  0  0  0  0  0  0
   34.8610   20.4310   36.1640 H   0  0  0  0  0  0  0  0  0  0  0  0
   36.6980   21.5660   36.1540 C   0  0  0  0  0  3  0  0  0  0  0  0
  1  2  2  0  0  0  0
  3  8  1  0  0  0  0
  3  9  1  0  0  0  0
  4  3  2  0  0  0  0
  5  6  2  0  0  0  0
  5  4  1  0  0  0  0
  6  7  1  0  0  0  0
  7  1  1  0  0  0  0
  7  8  2  0  0  0  0
 10  4  1  0  0  0  0
 11  5  1  0  0  0  0
 12  1  1  0  0  0  0
 12 20  1  0  0  0  0
 13 12  2  0  0  0  0
 14 13  1  0  0  0  0
 15 13  1  0  0  0  0
 15 16  2  0  0  0  0
 16 18  1  0  0  0  0
 17 16  1  0  0  0  0
 18 20  2  0  0  0  0
 18 19  1  0  0  0  0
M  END
>  <minimizedAffinity>
-4.2948637

$$$$

 OpenBabel03272508433D

 20 21  0  0  0  0  0  0  0  0999 V2000
   38.3240   22.8760   34.1980 C   0  0  0  0  0  0  0  0  0  0  0  0
   39.1390   23.3550   33.3480 O   0  0  0  0  0  0  0  0  0  0  0  0
   39.9340   22.6070   37.4480 C   0  0  0  0  0  0  0  0  0  0  0  0
   39.0680   23.2810   38.3140 C   0  0  0  0  0  0  0  0  0  0  0  0
   37.9150   23.8380   37.7780 C   0  0  0  0  0  0  0  0  0  0  0  0
   37.6710   23.7060   36.4380 N   0  0  0  0  0  0  0  0  0  0  0  0
   38.5210   23.0540   35.6390 C   0  0  0  0  0  0  0  0  0  0  0  0
   39.6390   22.5140   36.1500 N   0  0  0  0  0  0  0  0  0  0  0  0
   40.8410   22.1680   37.8610 H   0  0  0  0  0  0  0  0  0  0  0  0
   39.3000   23.3610   39.3760 H   0  0  0  0  0  0  0  0  0  0  0  0
   37.2010   24.3750   38.4090 H   0  0  0  0  0  0  0  0  0  0  0  0
   37.1980   22.1500   33.6140 C   0  0  0  0  0  0  0  0  0  0  0  0
   36.7490   22.5620   32.3520 C   0  0  0  0  0  0  0  0  0  0  0  0
   37.2360   23.3920   31.8520 H   0  0  0  0  0  0  0  0  0  0  0  0
   35.6780   21.9330   31.7010 C   0  0  0  0  0  3  0  0  0  0  0  0
   35.0390   20.8580   32.3370 C   0  0  0  0  0  0  0  0  0  0  0  0
   34.2180   20.4000   31.8010 H   0  0  0  0  0  0  0  0  0  0  0  0
   35.4970   20.4650   33.5830 C   0  0  0  0  0  0  0  0  0  0  0  0
   34.9780   19.6190   34.0580 H   0  0  0  0  0  0  0  0  0  0  0  0
   36.5490   21.0930   34.2080 C   0  0  0  0  0  3  0  0  0  0  0  0
  1  7  1  0  0  0  0
  2  1  2  0  0  0  0
  3  9  1  0  0  0  0
  3  4  1  0  0  0  0
  4 10  1  0  0  0  0
  5  4  2  0  0  0  0
  5 11  1  0  0  0  0
  6  5  1  0  0  0  0
  7  8  1  0  0  0  0
  7  6  2  0  0  0  0
  8  3  2  0  0  0  0
 12  1  1  0  0  0  0
 12 20  1  0  0  0  0
 13 12  2  0  0  0  0
 14 13  1  0  0  0  0
 15 16  2  0  0  0  0
 15 13  1  0  0  0  0
 16 18  1  0  0  0  0
 17 16  1  0  0  0  0
 18 19  1  0  0  0  0
 18 20  2  0  0  0  0
M  END
>  <minimizedAffinity>
-4.23475885

$$$$

 OpenBabel03272508433D

 20 21  0  0  0  0  0  0  0  0999 V2000
   38.2460   23.8540   34.5110 C   0  0  0  0  0  0  0  0  0  0  0  0
   38.0220   22.7480   33.9280 O   0  0  0  0  0  0  0  0  0  0  0  0
   37.0490   26.6550   32.5230 C   0  0  0  0  0  0  0  0  0  0  0  0
   38.1800   27.4580   32.3500 C   0  0  0  0  0  0  0  0  0  0  0  0
   39.3720   27.0360   32.9240 C   0  0  0  0  0  0  0  0  0  0  0  0
   39.3950   25.8620   33.6270 N   0  0  0  0  0  0  0  0  0  0  0  0
   38.2940   25.1180   33.7720 C   0  0  0  0  0  0  0  0  0  0  0  0
   37.1370   25.5210   33.2210 N   0  0  0  0  0  0  0  0  0  0  0  0
   36.1100   26.9790   32.0770 H   0  0  0  0  0  0  0  0  0  0  0  0
   38.1180   28.3860   31.7810 H   0  0  0  0  0  0  0  0  0  0  0  0
   40.2880   27.6240   32.8190 H   0  0  0  0  0  0  0  0  0  0  0  0
   38.4460   23.7490   35.9550 C   0  0  0  0  0  0  0  0  0  0  0  0
   39.5130   22.9570   36.4020 C   0  0  0  0  0  0  0  0  0  0  0  0
   40.1470   22.4520   35.6820 H   0  0  0  0  0  0  0  0  0  0  0  0
   39.7950   22.7900   37.7660 C   0  0  0  0  0  3  0  0  0  0  0  0
   38.9820   23.4380   38.7080 C   0  0  0  0  0  0  0  0  0  0  0  0
   39.2350   23.2830   39.7490 H   0  0  0  0  0  0  0  0  0  0  0  0
   37.9340   24.2160   38.2470 C   0  0  0  0  0  0  0  0  0  0  0  0
   37.3140   24.7120   39.0080 H   0  0  0  0  0  0  0  0  0  0  0  0
   37.6700   24.3690   36.9060 C   0  0  0  0  0  3  0  0  0  0  0  0
  1 12  1  0  0  0  0
  2  1  2  0  0  0  0
  3  8  1  0  0  0  0
  4  3  2  0  0  0  0
  4  5  1  0  0  0  0
  5  6  2  0  0  0  0
  6  7  1  0  0  0  0
  7  1  1  0  0  0  0
  8  7  2  0  0  0  0
  9  3  1  0  0  0  0
 10  4  1  0  0  0  0
 11  5  1  0  0  0  0
 12 13  2  0  0  0  0
 12 20  1  0  0  0  0
 13 15  1  0  0  0  0
 14 13  1  0  0  0  0
 15 16  2  0  0  0  0
 16 17  1  0  0  0  0
 18 16  1  0  0  0  0
 18 19  1  0  0  0  0
 20 18  2  0  0  0  0
M  END
>  <minimizedAffinity>
-4.18612099

$$$$

 OpenBabel03272508433D

 20 21  0  0  0  0  0  0  0  0999 V2000
   38.2020   23.7120   34.5050 C   0  0  0  0  0  0  0  0  0  0  0  0
   37.9450   22.6100   33.9280 O   0  0  0  0  0  0  0  0  0  0  0  0
   39.3800   26.9190   33.2560 C   0  0  0  0  0  0  0  0  0  0  0  0
   38.3130   27.4000   32.4920 C   0  0  0  0  0  0  0  0  0  0  0  0
   37.1720   26.6150   32.4010 C   0  0  0  0  0  0  0  0  0  0  0  0
   37.1340   25.4140   33.0560 N   0  0  0  0  0  0  0  0  0  0  0  0
   38.1730   24.9850   33.7790 C   0  0  0  0  0  0  0  0  0  0  0  0
   39.2810   25.7390   33.8710 N   0  0  0  0  0  0  0  0  0  0  0  0
   40.2790   27.5290   33.3320 H   0  0  0  0  0  0  0  0  0  0  0  0
   38.3840   28.3630   31.9870 H   0  0  0  0  0  0  0  0  0  0  0  0
   36.3060   26.9420   31.8190 H   0  0  0  0  0  0  0  0  0  0  0  0
   38.5210   23.5930   35.9260 C   0  0  0  0  0  0  0  0  0  0  0  0
   37.6890   24.2660   36.8320 C   0  0  0  0  0  0  0  0  0  0  0  0
   36.8500   24.8460   36.4640 H   0  0  0  0  0  0  0  0  0  0  0  0
   37.9040   24.2160   38.2170 C   0  0  0  0  0  3  0  0  0  0  0  0
   38.9860   23.4690   38.7060 C   0  0  0  0  0  0  0  0  0  0  0  0
   39.1150   23.4560   39.7810 H   0  0  0  0  0  0  0  0  0  0  0  0
   39.7950   22.8110   37.7970 C   0  0  0  0  0  0  0  0  0  0  0  0
   40.6350   22.2320   38.2080 H   0  0  0  0  0  0  0  0  0  0  0  0
   39.5720   22.8700   36.4410 C   0  0  0  0  0  3  0  0  0  0  0  0
  1 12  1  0  0  0  0
  2  1  2  0  0  0  0
  3  9  1  0  0  0  0
  3  8  1  0  0  0  0
  4  3  2  0  0  0  0
  5  4  1  0  0  0  0
  5  6  2  0  0  0  0
  6  7  1  0  0  0  0
  7  8  2  0  0  0  0
  7  1  1  0  0  0  0
 10  4  1  0  0  0  0
 11  5  1  0  0  0  0
 12 20  2  0  0  0  0
 12 13  1  0  0  0  0
 13 15  2  0  0  0  0
 14 13  1  0  0  0  0
 15 16  1  0  0  0  0
 16 17  1  0  0  0  0
 18 19  1  0  0  0  0
 18 16  2  0  0  0  0
 20 18  1  0  0  0  0
M  END
>  <minimizedAffinity>
-4.17727137

$$$$

 OpenBabel03272508433D

 20 21  0  0  0  0  0  0  0  0999 V2000
   38.8440   22.1600   34.3450 C   0  0  0  0  0  0  0  0  0  0  0  0
   39.9600   21.7030   33.9440 O   0  0  0  0  0  0  0  0  0  0  0  0
   35.7140   21.1840   32.7720 C   0  0  0  0  0  0  0  0  0  0  0  0
   35.4450   22.2200   31.8740 C   0  0  0  0  0  0  0  0  0  0  0  0
   36.3500   23.2720   31.8050 C   0  0  0  0  0  0  0  0  0  0  0  0
   37.4570   23.2540   32.6090 N   0  0  0  0  0  0  0  0  0  0  0  0
   37.6830   22.2440   33.4560 C   0  0  0  0  0  0  0  0  0  0  0  0
   36.8120   21.2240   33.5290 N   0  0  0  0  0  0  0  0  0  0  0  0
   35.0090   20.3550   32.8320 H   0  0  0  0  0  0  0  0  0  0  0  0
   34.5520   22.1950   31.2510 H   0  0  0  0  0  0  0  0  0  0  0  0
   36.1910   24.1090   31.1200 H   0  0  0  0  0  0  0  0  0  0  0  0
   38.8300   22.5830   35.7450 C   0  0  0  0  0  0  0  0  0  0  0  0
   39.9880   22.3500   36.5000 C   0  0  0  0  0  0  0  0  0  0  0  0
   40.8440   21.8730   36.0390 H   0  0  0  0  0  0  0  0  0  0  0  0
   40.0810   22.7190   37.8500 C   0  0  0  0  0  3  0  0  0  0  0  0
   38.9790   23.3380   38.4590 C   0  0  0  0  0  0  0  0  0  0  0  0
   39.0930   23.6070   39.5010 H   0  0  0  0  0  0  0  0  0  0  0  0
   37.8450   23.5600   37.6960 C   0  0  0  0  0  0  0  0  0  0  0  0
   36.9970   24.0480   38.1990 H   0  0  0  0  0  0  0  0  0  0  0  0
   37.7690   23.1920   36.3730 C   0  0  0  0  0  3  0  0  0  0  0  0
  1 12  1  0  0  0  0
  2  1  2  0  0  0  0
  3  9  1  0  0  0  0
  3  8  1  0  0  0  0
  4  3  2  0  0  0  0
  5  4  1  0  0  0  0
  5  6  2  0  0  0  0
  6  7  1  0  0  0  0
  7  8  2  0  0  0  0
  7  1  1  0  0  0  0
 10  4  1  0  0  0  0
 11  5  1  0  0  0  0
 12 20  2  0  0  0  0
 12 13  1  0  0  0  0
 13 15  2  0  0  0  0
 14 13  1  0  0  0  0
 15 16  1  0  0  0  0
 16 17  1  0  0  0  0
 18 19  1  0  0  0  0
 18 16  2  0  0  0  0
 20 18  1  0  0  0  0
M  END
>  <minimizedAffinity>
-4.17218971

$$$$

 OpenBabel03272508433D

 20 21  0  0  0  0  0  0  0  0999 V2000
   34.7920   29.4710   33.7450 C   0  0  0  0  0  0  0  0  0  0  0  0
   33.7370   29.3810   33.0430 O   0  0  0  0  0  0  0  0  0  0  0  0
   37.5430   27.1610   34.3180 C   0  0  0  0  0  0  0  0  0  0  0  0
   38.2090   27.1120   33.0910 C   0  0  0  0  0  0  0  0  0  0  0  0
   37.7080   27.8820   32.0480 C   0  0  0  0  0  0  0  0  0  0  0  0
   36.5970   28.6510   32.2600 N   0  0  0  0  0  0  0  0  0  0  0  0
   35.9850   28.6740   33.4490 C   0  0  0  0  0  0  0  0  0  0  0  0
   36.4620   27.9320   34.4610 N   0  0  0  0  0  0  0  0  0  0  0  0
   37.9280   26.5600   35.1410 H   0  0  0  0  0  0  0  0  0  0  0  0
   39.0920   26.4870   32.9650 H   0  0  0  0  0  0  0  0  0  0  0  0
   38.1900   27.8840   31.0670 H   0  0  0  0  0  0  0  0  0  0  0  0
   34.7050   30.4240   34.8500 C   0  0  0  0  0  0  0  0  0  0  0  0
   33.4820   30.5160   35.5280 C   0  0  0  0  0  0  0  0  0  0  0  0
   32.6500   29.8920   35.2230 H   0  0  0  0  0  0  0  0  0  0  0  0
   33.2920   31.3950   36.6040 C   0  0  0  0  0  3  0  0  0  0  0  0
   34.3620   32.2070   37.0100 C   0  0  0  0  0  0  0  0  0  0  0  0
   34.1730   32.8700   37.8440 H   0  0  0  0  0  0  0  0  0  0  0  0
   35.5620   32.1020   36.3290 C   0  0  0  0  0  0  0  0  0  0  0  0
   36.3830   32.7500   36.6690 H   0  0  0  0  0  0  0  0  0  0  0  0
   35.7330   31.2350   35.2750 C   0  0  0  0  0  3  0  0  0  0  0  0
  1 12  1  0  0  0  0
  2  1  2  0  0  0  0
  3  8  1  0  0  0  0
  3  9  1  0  0  0  0
  4  3  2  0  0  0  0
  5  6  2  0  0  0  0
  5  4  1  0  0  0  0
  6  7  1  0  0  0  0
  7  1  1  0  0  0  0
  7  8  2  0  0  0  0
 10  4  1  0  0  0  0
 11  5  1  0  0  0  0
 12 20  2  0  0  0  0
 12 13  1  0  0  0  0
 13 15  2  0  0  0  0
 14 13  1  0  0  0  0
 15 16  1  0  0  0  0
 16 17  1  0  0  0  0
 18 19  1  0  0  0  0
 18 16  2  0  0  0  0
 20 18  1  0  0  0  0
M  END
>  <minimizedAffinity>
-4.13653612

$$$$
