
     RDKit          3D

 42 45  0  0  0  0  0  0  0  0999 V2000
   38.4421   31.1095   48.1665 C   0  0  2  0  0  0  0  0  0  0  0  0
   38.7103   32.5740   48.0932 C   0  0  0  0  0  0  0  0  0  0  0  0
   38.0842   31.7429   46.9391 C   0  0  1  0  0  0  0  0  0  0  0  0
   35.0990   30.2687   49.5087 C   0  0  0  0  0  0  0  0  0  0  0  0
   35.4085   29.5650   50.6997 C   0  0  0  0  0  0  0  0  0  0  0  0
   36.7932   29.4012   51.0182 C   0  0  0  0  0  0  0  0  0  0  0  0
   37.7658   29.9153   50.1864 N   0  0  0  0  0  0  0  0  0  0  0  0
   37.3627   30.5793   49.0634 C   0  0  0  0  0  0  0  0  0  0  0  0
   36.0531   30.7688   48.7042 N   0  0  0  0  0  0  0  0  0  0  0  0
   38.3434   31.9081   44.4869 C   0  0  0  0  0  0  0  0  0  0  0  0
   37.2438   32.4455   44.3823 O   0  0  0  0  0  0  0  0  0  0  0  0
   38.9372   31.6391   45.7827 N   0  0  0  0  0  0  0  0  0  0  0  0
   39.1237   31.5044   43.2850 C   0  0  0  0  0  0  0  0  0  0  0  0
   40.1579   30.6027   43.4410 C   0  0  0  0  0  0  0  0  0  0  0  0
   40.8824   30.2545   42.3151 C   0  0  0  0  0  0  0  0  0  0  0  0
   40.5231   30.8292   41.1143 C   0  0  0  0  0  0  0  0  0  0  0  0
   39.4876   31.7292   40.9547 C   0  0  0  0  0  0  0  0  0  0  0  0
   38.8280   32.0237   42.0866 N   0  0  0  0  0  0  0  0  0  0  0  0
   39.1254   32.3047   39.6597 C   0  0  0  0  0  0  0  0  0  0  0  0
   38.8806   33.5693   39.6474 O   0  0  0  0  0  0  0  0  0  0  0  0
   39.4035   30.5221   48.2422 H   0  0  0  0  0  0  0  0  0  0  0  0
   39.7314   32.9443   47.9692 H   0  0  0  0  0  0  0  0  0  0  0  0
   38.0099   33.1781   48.7150 H   0  0  0  0  0  0  0  0  0  0  0  0
   37.0085   31.9964   46.7588 H   0  0  0  0  0  0  0  0  0  0  0  0
   34.0797   30.4414   49.1832 H   0  0  0  0  0  0  0  0  0  0  0  0
   34.6255   29.1931   51.3088 H   0  0  0  0  0  0  0  0  0  0  0  0
   37.0409   28.8609   51.9367 H   0  0  0  0  0  0  0  0  0  0  0  0
   39.9132   31.3837   45.9433 H   0  0  0  0  0  0  0  0  0  0  0  0
   40.3995   30.1706   44.4101 H   0  0  0  0  0  0  0  0  0  0  0  0
   41.6712   29.5515   42.4693 H   0  0  0  0  0  0  0  0  0  0  0  0
   41.1791   30.4927   40.3387 H   0  0  0  0  0  0  0  0  0  0  0  0
   38.9676   31.7562   38.3249 C   0  0  0  0  0  0  0  0  0  0  0  0
   37.7884   31.5362   37.6465 C   0  0  0  0  0  0  0  0  0  0  0  0
   36.8299   31.7351   38.0800 H   0  0  0  0  0  0  0  0  0  0  0  0
   37.6957   31.0454   36.3665 C   0  0  0  0  0  0  0  0  0  0  0  0
   38.8539   30.7476   35.6924 C   0  0  0  0  0  0  0  0  0  0  0  0
   38.7958   30.3554   34.6635 H   0  0  0  0  0  0  0  0  0  0  0  0
   40.0748   30.9348   36.2908 C   0  0  0  0  0  0  0  0  0  0  0  0
   41.0191   30.7160   35.7751 H   0  0  0  0  0  0  0  0  0  0  0  0
   40.1183   31.4282   37.5785 C   0  0  0  0  0  0  0  0  0  0  0  0
   36.7259   30.8867   35.8716 H   0  0  0  0  0  0  0  0  0  0  0  0
   41.1220   31.5567   38.0064 H   0  0  0  0  0  0  0  0  0  0  0  0
  1  8  1  0
  2  1  1  0
  3  2  1  0
  3  1  1  0
  4  5  2  0
  5  6  1  0
  7  6  2  0
  8  7  1  0
  9  8  2  0
  9  4  1  0
 10 12  1  0
 11 10  2  0
 12  3  1  0
 13 14  2  0
 13 10  1  0
 15 14  1  0
 16 15  2  0
 17 16  1  0
 17 18  2  0
 18 13  1  0
 19 17  1  0
 20 19  2  0
  1 21  1  6
  2 22  1  0
  2 23  1  0
  3 24  1  6
  4 25  1  0
  5 26  1  0
  6 27  1  0
 12 28  1  0
 14 29  1  0
 15 30  1  0
 16 31  1  0
 32 33  2  0
 33 34  1  0
 33 35  1  0
 35 36  2  0
 36 37  1  0
 36 38  1  0
 38 39  1  0
 38 40  2  0
 40 32  1  0
 35 41  1  0
 40 42  1  0
 19 32  1  0
M  ISO  8  21  13  22  13  23  13  24  13  25  14  26  14  27  14  29  14
M  ISO  5  30  14  31  14  34  16  37  16  39  16
M  END
>  <DihAtoms>  (1) 
16,18,31,32

>  <DihDeg>  (1) 
-28.253454162888794

$$$$
