
 OpenBabel03272508573D

 40 43  0  0  1  0  0  0  0  0999 V2000
   38.3560   31.8830   44.5110 C   0  0  0  0  0  0  0  0  0  0  0  0
   37.2740   32.4520   44.4020 O   0  0  0  0  0  0  0  0  0  0  0  0
   38.9280   31.5810   45.8100 N   0  0  0  0  0  0  0  0  0  0  0  0
   39.8950   31.2960   45.9770 H   0  0  0  0  0  0  0  0  0  0  0  0
   39.1380   31.4720   43.3120 C   0  0  0  0  0  0  0  0  0  0  0  0
   40.1270   30.5200   43.4620 C   0  0  0  0  0  0  0  0  0  0  0  0
   40.8530   30.1660   42.3400 C   0  0  0  0  0  0  0  0  0  0  0  0
   40.5430   30.7860   41.1480 C   0  0  0  0  0  0  0  0  0  0  0  0
   39.5540   31.7380   40.9950 C   0  0  0  0  0  0  0  0  0  0  0  0
   38.8880   32.0350   42.1230 N   0  0  0  0  0  0  0  0  0  0  0  0
   40.3310   30.0530   44.4240 H   0  0  0  0  0  0  0  0  0  0  0  0
   41.6060   29.4240   42.4890 H   0  0  0  0  0  0  0  0  0  0  0  0
   41.1960   30.4390   40.3760 H   0  0  0  0  0  0  0  0  0  0  0  0
   39.2410   32.3620   39.7100 C   0  0  2  0  0  3  0  0  0  0  0  0
   38.5710   33.4600   39.7580 O   0  0  0  0  0  1  0  0  0  0  0  0
   39.5230   32.0130   38.3290 C   0  0  0  0  0  0  0  0  0  0  0  0
   40.4750   32.5740   37.5050 C   0  0  0  0  0  0  0  0  0  0  0  0
   41.1070   33.3790   37.8190 H   0  0  0  0  0  0  0  0  0  0  0  0
   40.7260   32.1830   36.2110 C   0  0  0  0  0  3  0  0  0  0  0  0
   39.9850   31.1560   35.6810 C   0  0  0  0  0  0  0  0  0  0  0  0
   40.1770   30.8280   34.6450 H   0  0  0  0  0  0  0  0  0  0  0  0
   39.0140   30.5390   36.4290 C   0  0  0  0  0  0  0  0  0  0  0  0
   38.4120   29.7090   36.0380 H   0  0  0  0  0  0  0  0  0  0  0  0
   38.7970   30.9670   37.7230 C   0  0  0  0  0  3  0  0  0  0  0  0
   38.4220   31.0840   48.1980 C   0  0  2  0  0  0  0  0  0  0  0  0
   38.6740   32.5500   48.1030 C   0  0  0  0  0  0  0  0  0  0  0  0
   38.0660   31.6940   46.9580 C   0  0  1  0  0  0  0  0  0  0  0  0
   39.3900   30.5080   48.2900 H   0  0  0  0  0  0  0  0  0  0  0  0
   39.6920   32.9290   47.9800 H   0  0  0  0  0  0  0  0  0  0  0  0
   37.9630   33.1560   48.7100 H   0  0  0  0  0  0  0  0  0  0  0  0
   36.9880   31.9320   46.7660 H   0  0  0  0  0  0  0  0  0  0  0  0
   35.0790   30.2280   49.5310 C   0  0  0  0  0  0  0  0  0  0  0  0
   35.3870   29.5470   50.7350 C   0  0  0  0  0  0  0  0  0  0  0  0
   36.7710   29.4030   51.0650 C   0  0  0  0  0  0  0  0  0  0  0  0
   37.7440   29.9140   50.2320 N   0  0  0  0  0  0  0  0  0  0  0  0
   37.3420   30.5560   49.0950 C   0  0  0  0  0  0  0  0  0  0  0  0
   36.0330   30.7260   48.7240 N   0  0  0  0  0  0  0  0  0  0  0  0
   34.0600   30.3840   49.1950 H   0  0  0  0  0  0  0  0  0  0  0  0
   34.6050   29.1760   51.3440 H   0  0  0  0  0  0  0  0  0  0  0  0
   37.0180   28.8810   51.9940 H   0  0  0  0  0  0  0  0  0  0  0  0
  1  3  1  0  0  0  0
  2  1  2  0  0  0  0
  3  4  1  0  0  0  0
  3 27  1  0  0  0  0
  5  6  1  0  0  0  0
  5  1  1  0  0  0  0
  6 11  1  0  0  0  0
  7 12  1  0  0  0  0
  7  6  2  0  0  0  0
  8  7  1  0  0  0  0
  9  8  2  0  0  0  0
  9 10  1  0  0  0  0
 10  5  2  0  0  0  0
 13  8  1  0  0  0  0
 14 15  1  6  0  0  0
 14  9  1  0  0  0  0
 16 14  1  0  0  0  0
 17 18  1  0  0  0  0
 17 16  2  0  0  0  0
 19 17  1  0  0  0  0
 20 19  2  0  0  0  0
 20 22  1  0  0  0  0
 21 20  1  0  0  0  0
 22 24  2  0  0  0  0
 23 22  1  0  0  0  0
 24 16  1  0  0  0  0
 25 28  1  6  0  0  0
 25 36  1  0  0  0  0
 26 25  1  0  0  0  0
 26 30  1  0  0  0  0
 27 31  1  6  0  0  0
 27 26  1  0  0  0  0
 27 25  1  0  0  0  0
 29 26  1  0  0  0  0
 32 33  1  0  0  0  0
 33 34  2  0  0  0  0
 33 39  1  0  0  0  0
 34 40  1  0  0  0  0
 35 34  1  0  0  0  0
 36 35  2  0  0  0  0
 37 36  1  0  0  0  0
 37 32  2  0  0  0  0
 38 32  1  0  0  0  0
M  END
>  <minimizedAffinity>
-4.92330313

>  <minimizedRMSD>
0.747099221

$$$$
