REMARK  Name = 
REMARK  4 active torsions:
REMARK  status: ('A' for Active; 'I' for Inactive)
REMARK    1  A    between atoms: C_1  and  C_3
REMARK    2  A    between atoms: C_1  and  C_9
REMARK    3  A    between atoms: C_12  and  C_14
REMARK    4  A    between atoms: C_14  and  C_21
REMARK                            x       y       z     vdW  Elec       q    Type
REMARK                         _______ _______ _______ _____ _____    ______ ____
ROOT
ATOM      1  C   UNL     1      35.912  29.582  49.917  0.00  0.00    +0.000 A 
ATOM      2  C   UNL     1      34.683  29.895  50.395  0.00  0.00    +0.000 A 
ATOM      3  C   UNL     1      33.759  29.038  49.779  0.00  0.00    +0.000 A 
ATOM      4  C   UNL     1      34.520  28.228  48.932  0.00  0.00    +0.000 A 
ATOM      5  O   UNL     1      35.741  28.614  49.080  0.00  0.00    +0.000 OA
ATOM      6  H   UNL     1      34.297  30.620  51.105  0.00  0.00    +0.000 HD
ATOM      7  H   UNL     1      32.700  28.971  49.890  0.00  0.00    +0.000 HD
ENDROOT
BRANCH   1   8
ATOM      8  C   UNL     1      37.118  30.266  50.334  0.00  0.00    +0.000 C 
ATOM      9  O   UNL     1      37.515  30.136  51.495  0.00  0.00    +0.000 OA
BRANCH   8  10
ATOM     10  C   UNL     1      37.796  31.079  49.332  0.00  0.00    +0.000 A 
ATOM     11  C   UNL     1      38.118  32.383  49.696  0.00  0.00    +0.000 A 
ATOM     12  C   UNL     1      38.762  33.193  48.776  0.00  0.00    +0.000 A 
ATOM     13  N   UNL     1      39.052  32.672  47.549  0.00  0.00    +0.000 NA
ATOM     14  C   UNL     1      38.731  31.412  47.222  0.00  0.00    +0.000 A 
ATOM     15  N   UNL     1      38.109  30.626  48.108  0.00  0.00    +0.000 NA
ATOM     16  H   UNL     1      37.900  32.824  50.666  0.00  0.00    +0.000 HD
ATOM     17  H   UNL     1      39.045  34.217  48.983  0.00  0.00    +0.000 HD
ATOM     18  H   UNL     1      38.932  30.942  46.268  0.00  0.00    +0.000 HD
ENDBRANCH   8  10
ENDBRANCH   1   8
BRANCH   4  19
ATOM     19  C   UNL     1      33.986  27.163  48.066  0.00  0.00    +0.000 C 
ATOM     20  O   UNL     1      32.753  26.906  48.115  0.00  0.00    +0.000 OA
BRANCH  19  21
ATOM     21  C   UNL     1      34.856  26.433  47.185  0.00  0.00    +0.000 A 
ATOM     22  C   UNL     1      35.165  26.891  45.916  0.00  0.00    +0.000 A 
ATOM     23  H   UNL     1      34.758  27.818  45.544  0.00  0.00    +0.000 HD
ATOM     24  C   UNL     1      36.002  26.171  45.097  0.00  0.00    +0.000 A 
ATOM     25  C   UNL     1      36.577  24.976  45.471  0.00  0.00    +0.000 A 
ATOM     26  H   UNL     1      37.239  24.391  44.842  0.00  0.00    +0.000 HD
ATOM     27  C   UNL     1      36.287  24.492  46.734  0.00  0.00    +0.000 A 
ATOM     28  H   UNL     1      36.728  23.562  47.037  0.00  0.00    +0.000 HD
ATOM     29  C   UNL     1      35.448  25.223  47.542  0.00  0.00    +0.000 A 
ENDBRANCH  19  21
ENDBRANCH   4  19
TORSDOF 4
