
 OpenBabel03262522003D

 20 21  0  0  0  0  0  0  0  0999 V2000
   37.4620   30.2970   49.3890 C   0  0  0  0  0  0  0  0  0  0  0  0
   38.0800   29.6610   50.3020 O   0  0  0  0  0  0  0  0  0  0  0  0
   36.1540   29.8910   48.9220 C   0  0  0  0  0  0  0  0  0  0  0  0
   35.6380   28.7370   49.5280 C   0  0  0  0  0  0  0  0  0  0  0  0
   34.3670   28.2480   49.1500 C   0  0  0  0  0  0  0  0  0  0  0  0
   33.7020   28.9610   48.1790 N   0  0  0  0  0  0  0  0  0  0  0  0
   34.2310   30.0630   47.6220 C   0  0  0  0  0  0  0  0  0  0  0  0
   35.4470   30.5230   47.9900 N   0  0  0  0  0  0  0  0  0  0  0  0
   36.1920   28.1990   50.2930 H   0  0  0  0  0  0  0  0  0  0  0  0
   34.0030   27.3660   49.6320 H   0  0  0  0  0  0  0  0  0  0  0  0
   33.6420   30.5650   46.8660 H   0  0  0  0  0  0  0  0  0  0  0  0
   38.1730   31.4600   48.8550 C   0  0  0  0  0  0  0  0  0  0  0  0
   38.3660   32.5990   49.6120 C   0  0  0  0  0  0  0  0  0  0  0  0
   37.9820   32.6490   50.6400 H   0  0  0  0  0  0  0  0  0  0  0  0
   39.0360   33.6950   49.1040 C   0  0  0  0  0  0  0  0  0  0  0  0
   39.5060   33.5920   47.7940 C   0  0  0  0  0  0  0  0  0  0  0  0
   40.0300   34.4790   47.4320 H   0  0  0  0  0  0  0  0  0  0  0  0
   39.3290   32.4700   47.0170 C   0  0  0  0  0  0  0  0  0  0  0  0
   39.7140   32.4350   45.9980 H   0  0  0  0  0  0  0  0  0  0  0  0
   38.6530   31.3950   47.5600 C   0  0  0  0  0  0  0  0  0  0  0  0
  1  2  2  0  0  0  0
  3  1  1  0  0  0  0
  3  4  1  0  0  0  0
  4  9  1  0  0  0  0
  5  4  2  0  0  0  0
  5 10  1  0  0  0  0
  6  5  1  0  0  0  0
  7  8  1  0  0  0  0
  7  6  2  0  0  0  0
  8  3  2  0  0  0  0
 11  7  1  0  0  0  0
 12  1  1  0  0  0  0
 12 13  1  0  0  0  0
 13 14  1  0  0  0  0
 15 13  2  0  0  0  0
 16 15  1  0  0  0  0
 17 16  1  0  0  0  0
 18 20  1  0  0  0  0
 18 16  2  0  0  0  0
 19 18  1  0  0  0  0
 20 12  2  0  0  0  0
M  END
>  <minimizedAffinity>
-5.19438457

>  <minimizedRMSD>
5.23673153

$$$$
