
     RDKit          3D

 31 33  0  0  0  0  0  0  0  0999 V2000
   37.1180   30.2657   50.3340 C   0  0  0  0  0  0  0  0  0  0  0  0
   37.5151   30.1362   51.4950 O   0  0  0  0  0  0  0  0  0  0  0  0
   37.7959   31.0786   49.3319 C   0  0  0  0  0  0  0  0  0  0  0  0
   38.1183   32.3833   49.6960 C   0  0  0  0  0  0  0  0  0  0  0  0
   38.7620   33.1932   48.7757 C   0  0  0  0  0  0  0  0  0  0  0  0
   39.0518   32.6718   47.5489 N   0  0  0  0  0  0  0  0  0  0  0  0
   38.7309   31.4122   47.2218 C   0  0  0  0  0  0  0  0  0  0  0  0
   38.1086   30.6258   48.1083 N   0  0  0  0  0  0  0  0  0  0  0  0
   35.9121   29.5817   49.9173 C   0  0  0  0  0  0  0  0  0  0  0  0
   34.6826   29.8947   50.3953 C   0  0  0  0  0  0  0  0  0  0  0  0
   33.7587   29.0385   49.7790 C   0  0  0  0  0  0  0  0  0  0  0  0
   34.5198   28.2280   48.9321 C   0  0  0  0  0  0  0  0  0  0  0  0
   35.7414   28.6137   49.0799 O   0  0  0  0  0  0  0  0  0  0  0  0
   33.9864   27.1629   48.0661 C   0  0  0  0  0  0  0  0  0  0  0  0
   32.7534   26.9058   48.1147 O   0  0  0  0  0  0  0  0  0  0  0  0
   37.8999   32.8235   50.6658 H   0  0  0  0  0  0  0  0  0  0  0  0
   39.0455   34.2170   48.9835 H   0  0  0  0  0  0  0  0  0  0  0  0
   38.9323   30.9423   46.2684 H   0  0  0  0  0  0  0  0  0  0  0  0
   34.2973   30.6203   51.1054 H   0  0  0  0  0  0  0  0  0  0  0  0
   32.7000   28.9714   49.8897 H   0  0  0  0  0  0  0  0  0  0  0  0
   34.8563   26.4327   47.1847 C   0  0  0  0  0  0  0  0  0  0  0  0
   35.1889   25.1094   47.4160 C   0  0  0  0  0  0  0  0  0  0  0  0
   34.8044   24.5796   48.2725 H   0  0  0  0  0  0  0  0  0  0  0  0
   36.0221   24.4370   46.5528 C   0  0  0  0  0  0  0  0  0  0  0  0
   36.5689   25.0169   45.4287 C   0  0  0  0  0  0  0  0  0  0  0  0
   37.2278   24.5070   44.7351 H   0  0  0  0  0  0  0  0  0  0  0  0
   36.2541   26.3397   45.1714 C   0  0  0  0  0  0  0  0  0  0  0  0
   36.6742   26.8019   44.2990 H   0  0  0  0  0  0  0  0  0  0  0  0
   35.4201   26.9984   46.0435 C   0  0  0  0  0  0  0  0  0  0  0  0
   36.3148   23.3898   46.6908 H   0  0  0  0  0  0  0  0  0  0  0  0
   35.2228   28.0208   45.7743 H   0  0  0  0  0  0  0  0  0  0  0  0
  1  2  2  0
  3  4  2  0
  3  1  1  0
  5  4  1  0
  6  5  2  0
  7  6  1  0
  7  8  2  0
  8  3  1  0
  9  1  1  0
  9 10  2  0
 11 10  1  0
 12 13  1  0
 12 11  2  0
 13  9  1  0
 14 15  2  0
 14 12  1  0
  4 16  1  0
  5 17  1  0
  7 18  1  0
 10 19  1  0
 11 20  1  0
 21 22  2  0
 22 23  1  0
 22 24  1  0
 24 25  2  0
 25 26  1  0
 25 27  1  0
 27 28  1  0
 27 29  2  0
 29 21  1  0
 24 30  1  0
 29 31  1  0
 14 21  1  0
M  ISO  8  16  14  17  14  18  14  19  14  20  14  23  16  26  16  28  16
M  END
>  <DihAtoms>  (1) 
14,13,20,21

>  <DihDeg>  (1) 
-26.031600008059016

$$$$
