
 OpenBabel03272507313D

 29 31  0  0  0  0  0  0  0  0999 V2000
   37.8610   27.2080   34.2200 C   0  0  0  0  0  0  0  0  0  0  0  0
   37.9510   27.3350   32.8740 C   0  0  0  0  0  0  0  0  0  0  0  0
   36.8730   28.1280   32.4510 C   0  0  0  0  0  0  0  0  0  0  0  0
   36.1700   28.4420   33.6170 C   0  0  0  0  0  0  0  0  0  0  0  0
   36.8120   27.8710   34.5790 O   0  0  0  0  0  0  0  0  0  0  0  0
   38.6360   26.9760   32.1130 H   0  0  0  0  0  0  0  0  0  0  0  0
   36.5970   28.4520   31.4730 H   0  0  0  0  0  0  0  0  0  0  0  0
   38.8120   26.4520   35.0060 C   0  0  0  0  0  0  0  0  0  0  0  0
   39.8970   26.9620   35.2960 O   0  0  0  0  0  0  0  0  0  0  0  0
   38.4150   25.1090   35.4100 C   0  0  0  0  0  0  0  0  0  0  0  0
   38.0430   24.9390   36.7400 C   0  0  0  0  0  0  0  0  0  0  0  0
   37.6590   23.6800   37.1710 C   0  0  0  0  0  0  0  0  0  0  0  0
   37.6640   22.6590   36.2650 N   0  0  0  0  0  0  0  0  0  0  0  0
   38.0270   22.8480   34.9890 C   0  0  0  0  0  0  0  0  0  0  0  0
   38.3980   24.0630   34.5690 N   0  0  0  0  0  0  0  0  0  0  0  0
   38.0290   25.7330   37.4830 H   0  0  0  0  0  0  0  0  0  0  0  0
   37.3560   23.4670   38.1880 H   0  0  0  0  0  0  0  0  0  0  0  0
   38.0530   22.0820   34.2250 H   0  0  0  0  0  0  0  0  0  0  0  0
   34.9490   29.2620   33.6810 C   0  0  0  0  0  0  0  0  0  0  0  0
   34.0780   29.1200   32.7810 O   0  0  0  0  0  0  0  0  0  0  0  0
   34.7580   30.2060   34.7480 C   0  0  0  0  0  0  0  0  0  0  0  0
   33.5300   30.3770   35.3630 C   0  0  0  0  0  0  0  0  0  0  0  0
   32.6690   29.8040   35.0570 H   0  0  0  0  0  0  0  0  0  0  0  0
   33.3790   31.2860   36.3840 C   0  0  0  0  0  3  0  0  0  0  0  0
   34.4110   32.0700   36.8530 C   0  0  0  0  0  0  0  0  0  0  0  0
   34.3160   32.7930   37.6550 H   0  0  0  0  0  0  0  0  0  0  0  0
   35.6510   31.9220   36.2570 C   0  0  0  0  0  0  0  0  0  0  0  0
   36.4630   32.5260   36.6140 H   0  0  0  0  0  0  0  0  0  0  0  0
   35.7870   31.0080   35.2380 C   0  0  0  0  0  3  0  0  0  0  0  0
  1  5  1  0  0  0  0
  1  8  1  0  0  0  0
  2  1  2  0  0  0  0
  3  2  1  0  0  0  0
  3  4  2  0  0  0  0
  4 19  1  0  0  0  0
  4  5  1  0  0  0  0
  6  2  1  0  0  0  0
  7  3  1  0  0  0  0
  8  9  2  0  0  0  0
  8 10  1  0  0  0  0
 10 11  1  0  0  0  0
 11 12  2  0  0  0  0
 11 16  1  0  0  0  0
 12 17  1  0  0  0  0
 13 12  1  0  0  0  0
 14 13  2  0  0  0  0
 15 14  1  0  0  0  0
 15 10  2  0  0  0  0
 18 14  1  0  0  0  0
 19 21  1  0  0  0  0
 20 19  2  0  0  0  0
 21 29  2  0  0  0  0
 21 22  1  0  0  0  0
 22 24  2  0  0  0  0
 23 22  1  0  0  0  0
 24 25  1  0  0  0  0
 25 26  1  0  0  0  0
 27 28  1  0  0  0  0
 27 25  2  0  0  0  0
 29 27  1  0  0  0  0
M  END
>  <minimizedAffinity>
-5.63819551

$$$$

 OpenBabel03272507313D

 29 31  0  0  0  0  0  0  0  0999 V2000
   37.7490   25.8530   34.7570 C   0  0  0  0  0  0  0  0  0  0  0  0
   38.3160   26.6980   35.6530 C   0  0  0  0  0  0  0  0  0  0  0  0
   37.7620   27.9700   35.4430 C   0  0  0  0  0  0  0  0  0  0  0  0
   36.8590   27.8060   34.3900 C   0  0  0  0  0  0  0  0  0  0  0  0
   36.9210   26.5600   34.0640 O   0  0  0  0  0  0  0  0  0  0  0  0
   39.0560   26.5980   36.4410 H   0  0  0  0  0  0  0  0  0  0  0  0
   37.9490   28.8940   35.9420 H   0  0  0  0  0  0  0  0  0  0  0  0
   38.0820   24.4460   34.6810 C   0  0  0  0  0  0  0  0  0  0  0  0
   37.7930   23.8120   33.6620 O   0  0  0  0  0  0  0  0  0  0  0  0
   38.7490   23.8610   35.8370 C   0  0  0  0  0  0  0  0  0  0  0  0
   38.0050   23.7690   37.0100 C   0  0  0  0  0  0  0  0  0  0  0  0
   38.5980   23.2220   38.1350 C   0  0  0  0  0  0  0  0  0  0  0  0
   39.8910   22.7960   38.0410 N   0  0  0  0  0  0  0  0  0  0  0  0
   40.5870   22.8960   36.8990 C   0  0  0  0  0  0  0  0  0  0  0  0
   40.0180   23.4240   35.8100 N   0  0  0  0  0  0  0  0  0  0  0  0
   36.9740   24.0990   37.1140 H   0  0  0  0  0  0  0  0  0  0  0  0
   38.0870   23.1160   39.0830 H   0  0  0  0  0  0  0  0  0  0  0  0
   41.6120   22.5790   36.7610 H   0  0  0  0  0  0  0  0  0  0  0  0
   36.0280   28.8730   33.8070 C   0  0  0  0  0  0  0  0  0  0  0  0
   35.9460   28.9580   32.5520 O   0  0  0  0  0  0  0  0  0  0  0  0
   35.3270   29.7980   34.6540 C   0  0  0  0  0  0  0  0  0  0  0  0
   33.9500   29.7690   34.7890 C   0  0  0  0  0  0  0  0  0  0  0  0
   33.3540   29.0450   34.2560 H   0  0  0  0  0  0  0  0  0  0  0  0
   33.3080   30.6660   35.6110 C   0  0  0  0  0  3  0  0  0  0  0  0
   33.9720   31.6310   36.3360 C   0  0  0  0  0  0  0  0  0  0  0  0
   33.4880   32.3490   36.9880 H   0  0  0  0  0  0  0  0  0  0  0  0
   35.3500   31.6850   36.2210 C   0  0  0  0  0  0  0  0  0  0  0  0
   35.8780   32.4320   36.7830 H   0  0  0  0  0  0  0  0  0  0  0  0
   35.9770   30.7810   35.3970 C   0  0  0  0  0  3  0  0  0  0  0  0
  1  2  2  0  0  0  0
  2  6  1  0  0  0  0
  3  2  1  0  0  0  0
  3  7  1  0  0  0  0
  4  3  2  0  0  0  0
  5  4  1  0  0  0  0
  5  1  1  0  0  0  0
  8  1  1  0  0  0  0
  8 10  1  0  0  0  0
  9  8  2  0  0  0  0
 10 11  1  0  0  0  0
 11 16  1  0  0  0  0
 11 12  2  0  0  0  0
 12 17  1  0  0  0  0
 13 12  1  0  0  0  0
 14 13  2  0  0  0  0
 15 10  2  0  0  0  0
 15 14  1  0  0  0  0
 18 14  1  0  0  0  0
 19  4  1  0  0  0  0
 19 21  1  0  0  0  0
 20 19  2  0  0  0  0
 21 22  2  0  0  0  0
 21 29  1  0  0  0  0
 22 24  1  0  0  0  0
 23 22  1  0  0  0  0
 24 25  2  0  0  0  0
 25 26  1  0  0  0  0
 27 25  1  0  0  0  0
 27 28  1  0  0  0  0
 29 27  2  0  0  0  0
M  END
>  <minimizedAffinity>
-5.63168859

$$$$

 OpenBabel03272507313D

 29 31  0  0  0  0  0  0  0  0999 V2000
   36.4570   25.7740   32.2180 C   0  0  0  0  0  0  0  0  0  0  0  0
   36.4970   27.1240   32.0990 C   0  0  0  0  0  0  0  0  0  0  0  0
   37.1480   27.6290   33.2340 C   0  0  0  0  0  0  0  0  0  0  0  0
   37.4720   26.5050   34.0000 C   0  0  0  0  0  0  0  0  0  0  0  0
   37.0360   25.4900   33.3360 O   0  0  0  0  0  0  0  0  0  0  0  0
   36.1550   27.8400   31.3580 H   0  0  0  0  0  0  0  0  0  0  0  0
   37.3740   28.6340   33.5100 H   0  0  0  0  0  0  0  0  0  0  0  0
   35.8550   24.9130   31.2220 C   0  0  0  0  0  0  0  0  0  0  0  0
   34.8730   25.3130   30.5900 O   0  0  0  0  0  0  0  0  0  0  0  0
   36.4630   23.6020   31.0280 C   0  0  0  0  0  0  0  0  0  0  0  0
   35.6580   22.4950   31.2780 C   0  0  0  0  0  0  0  0  0  0  0  0
   36.1930   21.2290   31.1080 C   0  0  0  0  0  0  0  0  0  0  0  0
   37.4910   21.1260   30.7030 N   0  0  0  0  0  0  0  0  0  0  0  0
   38.2470   22.2090   30.4690 C   0  0  0  0  0  0  0  0  0  0  0  0
   37.7330   23.4330   30.6310 N   0  0  0  0  0  0  0  0  0  0  0  0
   34.6210   22.5470   31.6010 H   0  0  0  0  0  0  0  0  0  0  0  0
   35.6320   20.3200   31.2830 H   0  0  0  0  0  0  0  0  0  0  0  0
   39.2800   22.1940   30.1470 H   0  0  0  0  0  0  0  0  0  0  0  0
   38.1700   26.5310   35.2960 C   0  0  0  0  0  0  0  0  0  0  0  0
   38.3610   27.6430   35.8580 O   0  0  0  0  0  0  0  0  0  0  0  0
   38.6250   25.3110   35.9050 C   0  0  0  0  0  0  0  0  0  0  0  0
   39.7160   24.6120   35.4190 C   0  0  0  0  0  0  0  0  0  0  0  0
   40.2630   24.9630   34.5580 H   0  0  0  0  0  0  0  0  0  0  0  0
   40.1280   23.4480   36.0260 C   0  0  0  0  0  3  0  0  0  0  0  0
   39.5010   22.9120   37.1290 C   0  0  0  0  0  0  0  0  0  0  0  0
   39.8080   21.9960   37.6230 H   0  0  0  0  0  0  0  0  0  0  0  0
   38.4070   23.5880   37.6380 C   0  0  0  0  0  0  0  0  0  0  0  0
   37.9120   23.1800   38.4980 H   0  0  0  0  0  0  0  0  0  0  0  0
   38.0070   24.7500   37.0210 C   0  0  0  0  0  3  0  0  0  0  0  0
  1  5  1  0  0  0  0
  2  1  2  0  0  0  0
  2  3  1  0  0  0  0
  3  7  1  0  0  0  0
  3  4  2  0  0  0  0
  4 19  1  0  0  0  0
  5  4  1  0  0  0  0
  6  2  1  0  0  0  0
  8  1  1  0  0  0  0
  9  8  2  0  0  0  0
 10  8  1  0  0  0  0
 10 11  1  0  0  0  0
 11 16  1  0  0  0  0
 12 11  2  0  0  0  0
 12 17  1  0  0  0  0
 13 12  1  0  0  0  0
 14 15  1  0  0  0  0
 14 13  2  0  0  0  0
 15 10  2  0  0  0  0
 18 14  1  0  0  0  0
 19 20  2  0  0  0  0
 19 21  1  0  0  0  0
 21 29  1  0  0  0  0
 22 21  2  0  0  0  0
 22 24  1  0  0  0  0
 23 22  1  0  0  0  0
 24 25  2  0  0  0  0
 25 26  1  0  0  0  0
 25 27  1  0  0  0  0
 27 28  1  0  0  0  0
 29 27  2  0  0  0  0
M  END
>  <minimizedAffinity>
-5.48094082

$$$$

 OpenBabel03272507313D

 29 31  0  0  0  0  0  0  0  0999 V2000
   37.6500   26.4090   34.0580 C   0  0  0  0  0  0  0  0  0  0  0  0
   37.3060   27.5210   33.3650 C   0  0  0  0  0  0  0  0  0  0  0  0
   36.6020   27.1080   32.2240 C   0  0  0  0  0  0  0  0  0  0  0  0
   36.5650   25.7130   32.3030 C   0  0  0  0  0  0  0  0  0  0  0  0
   37.1900   25.4060   33.3880 O   0  0  0  0  0  0  0  0  0  0  0  0
   37.4530   28.5880   33.5030 H   0  0  0  0  0  0  0  0  0  0  0  0
   36.1680   27.6810   31.4360 H   0  0  0  0  0  0  0  0  0  0  0  0
   38.3910   26.4520   35.3010 C   0  0  0  0  0  0  0  0  0  0  0  0
   38.6680   27.5450   35.8020 O   0  0  0  0  0  0  0  0  0  0  0  0
   38.7680   25.1730   35.8900 C   0  0  0  0  0  0  0  0  0  0  0  0
   37.9740   24.7040   36.9320 C   0  0  0  0  0  0  0  0  0  0  0  0
   38.2940   23.4930   37.5230 C   0  0  0  0  0  0  0  0  0  0  0  0
   39.3790   22.8130   37.0530 N   0  0  0  0  0  0  0  0  0  0  0  0
   40.1300   23.2860   36.0480 C   0  0  0  0  0  0  0  0  0  0  0  0
   39.8230   24.4550   35.4740 N   0  0  0  0  0  0  0  0  0  0  0  0
   37.1030   25.2230   37.3250 H   0  0  0  0  0  0  0  0  0  0  0  0
   37.7260   23.0620   38.3370 H   0  0  0  0  0  0  0  0  0  0  0  0
   41.0010   22.7970   35.6320 H   0  0  0  0  0  0  0  0  0  0  0  0
   35.9270   24.8220   31.3200 C   0  0  0  0  0  0  0  0  0  0  0  0
   34.9410   25.2530   30.6630 O   0  0  0  0  0  0  0  0  0  0  0  0
   36.4190   23.4870   31.1170 C   0  0  0  0  0  0  0  0  0  0  0  0
   35.6100   22.3750   31.2790 C   0  0  0  0  0  0  0  0  0  0  0  0
   34.5760   22.4760   31.5660 H   0  0  0  0  0  0  0  0  0  0  0  0
   36.1110   21.1100   31.0740 C   0  0  0  0  0  3  0  0  0  0  0  0
   37.4160   20.8680   30.7050 C   0  0  0  0  0  0  0  0  0  0  0  0
   37.8320   19.8800   30.5390 H   0  0  0  0  0  0  0  0  0  0  0  0
   38.2490   21.9590   30.5360 C   0  0  0  0  0  0  0  0  0  0  0  0
   39.2670   21.7820   30.2480 H   0  0  0  0  0  0  0  0  0  0  0  0
   37.7340   23.2170   30.7430 C   0  0  0  0  0  3  0  0  0  0  0  0
  1  8  1  0  0  0  0
  2  6  1  0  0  0  0
  2  1  2  0  0  0  0
  3  4  2  0  0  0  0
  3  2  1  0  0  0  0
  4  5  1  0  0  0  0
  5  1  1  0  0  0  0
  7  3  1  0  0  0  0
  8  9  2  0  0  0  0
  8 10  1  0  0  0  0
 10 11  1  0  0  0  0
 11 16  1  0  0  0  0
 11 12  2  0  0  0  0
 12 17  1  0  0  0  0
 13 12  1  0  0  0  0
 14 13  2  0  0  0  0
 15 10  2  0  0  0  0
 15 14  1  0  0  0  0
 18 14  1  0  0  0  0
 19  4  1  0  0  0  0
 20 19  2  0  0  0  0
 21 22  1  0  0  0  0
 21 19  1  0  0  0  0
 22 23  1  0  0  0  0
 24 22  2  0  0  0  0
 25 24  1  0  0  0  0
 26 25  1  0  0  0  0
 27 25  2  0  0  0  0
 27 29  1  0  0  0  0
 28 27  1  0  0  0  0
 29 21  2  0  0  0  0
M  END
>  <minimizedAffinity>
-5.44175482

$$$$

 OpenBabel03272507313D

 29 31  0  0  0  0  0  0  0  0999 V2000
   36.8440   24.3830   32.2340 C   0  0  0  0  0  0  0  0  0  0  0  0
   36.9860   25.7300   32.2330 C   0  0  0  0  0  0  0  0  0  0  0  0
   38.0320   26.0460   33.1130 C   0  0  0  0  0  0  0  0  0  0  0  0
   38.4750   24.8180   33.6100 C   0  0  0  0  0  0  0  0  0  0  0  0
   37.7350   23.9240   33.0490 O   0  0  0  0  0  0  0  0  0  0  0  0
   36.4900   26.5540   31.7280 H   0  0  0  0  0  0  0  0  0  0  0  0
   38.4430   26.9930   33.3830 H   0  0  0  0  0  0  0  0  0  0  0  0
   35.8530   23.6930   31.4350 C   0  0  0  0  0  0  0  0  0  0  0  0
   35.1000   24.3480   30.7090 O   0  0  0  0  0  0  0  0  0  0  0  0
   35.8100   22.2400   31.5450 C   0  0  0  0  0  0  0  0  0  0  0  0
   36.7020   21.5250   30.7520 C   0  0  0  0  0  0  0  0  0  0  0  0
   36.6970   20.1420   30.8220 C   0  0  0  0  0  0  0  0  0  0  0  0
   35.8130   19.5420   31.6710 N   0  0  0  0  0  0  0  0  0  0  0  0
   34.9630   20.2540   32.4250 C   0  0  0  0  0  0  0  0  0  0  0  0
   34.9650   21.5900   32.3600 N   0  0  0  0  0  0  0  0  0  0  0  0
   37.4170   21.9760   30.0680 H   0  0  0  0  0  0  0  0  0  0  0  0
   37.3580   19.5160   30.2370 H   0  0  0  0  0  0  0  0  0  0  0  0
   34.2400   19.8390   33.1150 H   0  0  0  0  0  0  0  0  0  0  0  0
   39.5700   24.6360   34.5780 C   0  0  0  0  0  0  0  0  0  0  0  0
   40.7500   24.8780   34.2070 O   0  0  0  0  0  0  0  0  0  0  0  0
   39.2950   24.1910   35.9170 C   0  0  0  0  0  0  0  0  0  0  0  0
   40.0670   23.2260   36.5410 C   0  0  0  0  0  0  0  0  0  0  0  0
   40.9050   22.7730   36.0370 H   0  0  0  0  0  0  0  0  0  0  0  0
   39.7790   22.8230   37.8240 C   0  0  0  0  0  3  0  0  0  0  0  0
   38.7320   23.3370   38.5580 C   0  0  0  0  0  0  0  0  0  0  0  0
   38.4870   23.0340   39.5700 H   0  0  0  0  0  0  0  0  0  0  0  0
   37.9430   24.3030   37.9600 C   0  0  0  0  0  0  0  0  0  0  0  0
   37.1250   24.7110   38.5230 H   0  0  0  0  0  0  0  0  0  0  0  0
   38.2420   24.6960   36.6780 C   0  0  0  0  0  3  0  0  0  0  0  0
  1  5  1  0  0  0  0
  2  1  2  0  0  0  0
  2  3  1  0  0  0  0
  3  7  1  0  0  0  0
  3  4  2  0  0  0  0
  4 19  1  0  0  0  0
  5  4  1  0  0  0  0
  6  2  1  0  0  0  0
  8 10  1  0  0  0  0
  8  1  1  0  0  0  0
  9  8  2  0  0  0  0
 10 15  1  0  0  0  0
 11 12  1  0  0  0  0
 11 10  2  0  0  0  0
 12 13  2  0  0  0  0
 13 14  1  0  0  0  0
 14 18  1  0  0  0  0
 15 14  2  0  0  0  0
 16 11  1  0  0  0  0
 17 12  1  0  0  0  0
 19 21  1  0  0  0  0
 20 19  2  0  0  0  0
 21 22  2  0  0  0  0
 21 29  1  0  0  0  0
 22 24  1  0  0  0  0
 23 22  1  0  0  0  0
 24 25  2  0  0  0  0
 25 26  1  0  0  0  0
 27 28  1  0  0  0  0
 27 25  1  0  0  0  0
 29 27  2  0  0  0  0
M  END
>  <minimizedAffinity>
-5.33440351

$$$$

 OpenBabel03272507313D

 29 31  0  0  0  0  0  0  0  0999 V2000
   37.2240   27.2640   34.6350 C   0  0  0  0  0  0  0  0  0  0  0  0
   38.0670   27.8090   35.5460 C   0  0  0  0  0  0  0  0  0  0  0  0
   38.5420   26.7690   36.3580 C   0  0  0  0  0  0  0  0  0  0  0  0
   37.9300   25.6130   35.8660 C   0  0  0  0  0  0  0  0  0  0  0  0
   37.1940   25.9970   34.8800 O   0  0  0  0  0  0  0  0  0  0  0  0
   38.4230   28.8130   35.7580 H   0  0  0  0  0  0  0  0  0  0  0  0
   39.2200   26.7920   37.1820 H   0  0  0  0  0  0  0  0  0  0  0  0
   36.5410   28.0450   33.6260 C   0  0  0  0  0  0  0  0  0  0  0  0
   35.5310   28.6820   33.9360 O   0  0  0  0  0  0  0  0  0  0  0  0
   37.1060   28.0260   32.2820 C   0  0  0  0  0  0  0  0  0  0  0  0
   36.4610   28.7980   31.3200 C   0  0  0  0  0  0  0  0  0  0  0  0
   36.9620   28.8100   30.0290 C   0  0  0  0  0  0  0  0  0  0  0  0
   38.0690   28.0610   29.7590 N   0  0  0  0  0  0  0  0  0  0  0  0
   38.6730   27.3250   30.7040 C   0  0  0  0  0  0  0  0  0  0  0  0
   38.1920   27.3110   31.9520 N   0  0  0  0  0  0  0  0  0  0  0  0
   35.5790   29.4050   31.5070 H   0  0  0  0  0  0  0  0  0  0  0  0
   36.5170   29.3840   29.2260 H   0  0  0  0  0  0  0  0  0  0  0  0
   39.5500   26.7100   30.5530 H   0  0  0  0  0  0  0  0  0  0  0  0
   38.1220   24.2540   36.4030 C   0  0  0  0  0  0  0  0  0  0  0  0
   37.1240   23.6450   36.8740 O   0  0  0  0  0  0  0  0  0  0  0  0
   39.4210   23.6390   36.3880 C   0  0  0  0  0  0  0  0  0  0  0  0
   40.3370   23.8890   35.3810 C   0  0  0  0  0  0  0  0  0  0  0  0
   40.1030   24.5580   34.5680 H   0  0  0  0  0  0  0  0  0  0  0  0
   41.5740   23.2870   35.3960 C   0  0  0  0  0  3  0  0  0  0  0  0
   41.9760   22.4170   36.3860 C   0  0  0  0  0  0  0  0  0  0  0  0
   42.9440   21.9300   36.4180 H   0  0  0  0  0  0  0  0  0  0  0  0
   41.0800   22.1470   37.4060 C   0  0  0  0  0  0  0  0  0  0  0  0
   41.3830   21.4720   38.1830 H   0  0  0  0  0  0  0  0  0  0  0  0
   39.8480   22.7570   37.3780 C   0  0  0  0  0  3  0  0  0  0  0  0
  1  5  1  0  0  0  0
  1  2  2  0  0  0  0
  2  6  1  0  0  0  0
  2  3  1  0  0  0  0
  3  7  1  0  0  0  0
  4  3  2  0  0  0  0
  4 19  1  0  0  0  0
  5  4  1  0  0  0  0
  8  9  2  0  0  0  0
  8  1  1  0  0  0  0
 10  8  1  0  0  0  0
 11 16  1  0  0  0  0
 11 10  2  0  0  0  0
 12 11  1  0  0  0  0
 13 12  2  0  0  0  0
 13 14  1  0  0  0  0
 14 15  2  0  0  0  0
 15 10  1  0  0  0  0
 17 12  1  0  0  0  0
 18 14  1  0  0  0  0
 19 20  2  0  0  0  0
 21 19  1  0  0  0  0
 21 29  1  0  0  0  0
 22 24  1  0  0  0  0
 22 21  2  0  0  0  0
 23 22  1  0  0  0  0
 24 25  2  0  0  0  0
 25 26  1  0  0  0  0
 25 27  1  0  0  0  0
 27 28  1  0  0  0  0
 29 27  2  0  0  0  0
M  END
>  <minimizedAffinity>
-5.33309221

$$$$

 OpenBabel03272507313D

 29 31  0  0  0  0  0  0  0  0999 V2000
   38.1430   24.9640   33.9370 C   0  0  0  0  0  0  0  0  0  0  0  0
   39.1630   25.8550   33.8850 C   0  0  0  0  0  0  0  0  0  0  0  0
   38.6840   27.0100   33.2500 C   0  0  0  0  0  0  0  0  0  0  0  0
   37.3490   26.7310   32.9450 C   0  0  0  0  0  0  0  0  0  0  0  0
   37.1310   25.5370   33.3780 O   0  0  0  0  0  0  0  0  0  0  0  0
   40.1990   25.8570   34.2110 H   0  0  0  0  0  0  0  0  0  0  0  0
   39.1780   27.9270   33.0210 H   0  0  0  0  0  0  0  0  0  0  0  0
   38.2740   23.6500   34.5310 C   0  0  0  0  0  0  0  0  0  0  0  0
   38.2170   22.6520   33.8070 O   0  0  0  0  0  0  0  0  0  0  0  0
   38.4690   23.5930   35.9740 C   0  0  0  0  0  0  0  0  0  0  0  0
   39.5830   22.8950   36.4290 C   0  0  0  0  0  0  0  0  0  0  0  0
   39.8090   22.8140   37.7930 C   0  0  0  0  0  0  0  0  0  0  0  0
   38.9230   23.4250   38.6310 N   0  0  0  0  0  0  0  0  0  0  0  0
   37.8560   24.0920   38.1680 C   0  0  0  0  0  0  0  0  0  0  0  0
   37.6350   24.1730   36.8510 N   0  0  0  0  0  0  0  0  0  0  0  0
   40.3060   22.3990   35.7850 H   0  0  0  0  0  0  0  0  0  0  0  0
   40.6510   22.2890   38.2250 H   0  0  0  0  0  0  0  0  0  0  0  0
   37.1180   24.5960   38.7790 H   0  0  0  0  0  0  0  0  0  0  0  0
   36.4210   27.6510   32.2650 C   0  0  0  0  0  0  0  0  0  0  0  0
   35.9020   27.2900   31.1750 O   0  0  0  0  0  0  0  0  0  0  0  0
   36.1160   28.9350   32.8360 C   0  0  0  0  0  0  0  0  0  0  0  0
   36.0850   30.0880   32.0710 C   0  0  0  0  0  0  0  0  0  0  0  0
   36.2930   30.0600   31.0140 H   0  0  0  0  0  0  0  0  0  0  0  0
   35.7870   31.3010   32.6470 C   0  0  0  0  0  3  0  0  0  0  0  0
   35.5070   31.4500   33.9870 C   0  0  0  0  0  0  0  0  0  0  0  0
   35.2700   32.3960   34.4630 H   0  0  0  0  0  0  0  0  0  0  0  0
   35.5300   30.3150   34.7780 C   0  0  0  0  0  0  0  0  0  0  0  0
   35.3120   30.4190   35.8240 H   0  0  0  0  0  0  0  0  0  0  0  0
   35.8280   29.1090   34.1890 C   0  0  0  0  0  3  0  0  0  0  0  0
  1  8  1  0  0  0  0
  2  1  2  0  0  0  0
  2  6  1  0  0  0  0
  3  2  1  0  0  0  0
  4  3  2  0  0  0  0
  4  5  1  0  0  0  0
  5  1  1  0  0  0  0
  7  3  1  0  0  0  0
  8 10  1  0  0  0  0
  9  8  2  0  0  0  0
 10 11  2  0  0  0  0
 10 15  1  0  0  0  0
 11 12  1  0  0  0  0
 12 17  1  0  0  0  0
 12 13  2  0  0  0  0
 14 13  1  0  0  0  0
 14 18  1  0  0  0  0
 15 14  2  0  0  0  0
 16 11  1  0  0  0  0
 19 21  1  0  0  0  0
 19  4  1  0  0  0  0
 20 19  2  0  0  0  0
 21 29  1  0  0  0  0
 22 24  1  0  0  0  0
 22 21  2  0  0  0  0
 23 22  1  0  0  0  0
 24 25  2  0  0  0  0
 25 26  1  0  0  0  0
 25 27  1  0  0  0  0
 27 28  1  0  0  0  0
 29 27  2  0  0  0  0
M  END
>  <minimizedAffinity>
-5.30640459

$$$$

 OpenBabel03272507313D

 29 31  0  0  0  0  0  0  0  0999 V2000
   37.2510   26.7490   32.8380 C   0  0  0  0  0  0  0  0  0  0  0  0
   38.5300   27.1380   33.0650 C   0  0  0  0  0  0  0  0  0  0  0  0
   39.1790   26.0880   33.7300 C   0  0  0  0  0  0  0  0  0  0  0  0
   38.2110   25.0890   33.8700 C   0  0  0  0  0  0  0  0  0  0  0  0
   37.1400   25.5600   33.3280 O   0  0  0  0  0  0  0  0  0  0  0  0
   39.1100   28.0300   32.8520 H   0  0  0  0  0  0  0  0  0  0  0  0
   40.1850   26.0090   34.0790 H   0  0  0  0  0  0  0  0  0  0  0  0
   36.2800   27.5870   32.1660 C   0  0  0  0  0  0  0  0  0  0  0  0
   35.7350   27.1730   31.1390 O   0  0  0  0  0  0  0  0  0  0  0  0
   36.0070   28.8890   32.7610 C   0  0  0  0  0  0  0  0  0  0  0  0
   36.1280   29.9970   31.9270 C   0  0  0  0  0  0  0  0  0  0  0  0
   35.8790   31.2550   32.4490 C   0  0  0  0  0  0  0  0  0  0  0  0
   35.5250   31.3500   33.7620 N   0  0  0  0  0  0  0  0  0  0  0  0
   35.4140   30.2670   34.5450 C   0  0  0  0  0  0  0  0  0  0  0  0
   35.6540   29.0500   34.0450 N   0  0  0  0  0  0  0  0  0  0  0  0
   36.4080   29.9500   30.8770 H   0  0  0  0  0  0  0  0  0  0  0  0
   35.9530   32.1640   31.8660 H   0  0  0  0  0  0  0  0  0  0  0  0
   35.1390   30.2770   35.5920 H   0  0  0  0  0  0  0  0  0  0  0  0
   38.4240   23.7820   34.5130 C   0  0  0  0  0  0  0  0  0  0  0  0
   38.4560   22.7500   33.7900 O   0  0  0  0  0  0  0  0  0  0  0  0
   38.5880   23.6870   35.9380 C   0  0  0  0  0  0  0  0  0  0  0  0
   37.7510   24.3500   36.8180 C   0  0  0  0  0  0  0  0  0  0  0  0
   36.9410   24.9660   36.4590 H   0  0  0  0  0  0  0  0  0  0  0  0
   37.9330   24.2370   38.1770 C   0  0  0  0  0  3  0  0  0  0  0  0
   38.9340   23.4780   38.7410 C   0  0  0  0  0  0  0  0  0  0  0  0
   39.0970   23.3750   39.8090 H   0  0  0  0  0  0  0  0  0  0  0  0
   39.7880   22.8040   37.8870 C   0  0  0  0  0  0  0  0  0  0  0  0
   40.5710   22.2090   38.3160 H   0  0  0  0  0  0  0  0  0  0  0  0
   39.5930   22.9250   36.5310 C   0  0  0  0  0  3  0  0  0  0  0  0
  1  2  2  0  0  0  0
  1  5  1  0  0  0  0
  2  3  1  0  0  0  0
  3  4  2  0  0  0  0
  3  7  1  0  0  0  0
  4 19  1  0  0  0  0
  5  4  1  0  0  0  0
  6  2  1  0  0  0  0
  8 10  1  0  0  0  0
  8  1  1  0  0  0  0
  9  8  2  0  0  0  0
 10 15  1  0  0  0  0
 11 12  1  0  0  0  0
 11 10  2  0  0  0  0
 12 13  2  0  0  0  0
 13 14  1  0  0  0  0
 14 18  1  0  0  0  0
 15 14  2  0  0  0  0
 16 11  1  0  0  0  0
 17 12  1  0  0  0  0
 19 21  1  0  0  0  0
 20 19  2  0  0  0  0
 21 29  2  0  0  0  0
 21 22  1  0  0  0  0
 22 24  2  0  0  0  0
 23 22  1  0  0  0  0
 24 25  1  0  0  0  0
 25 26  1  0  0  0  0
 27 28  1  0  0  0  0
 27 25  2  0  0  0  0
 29 27  1  0  0  0  0
M  END
>  <minimizedAffinity>
-5.25684977

$$$$

 OpenBabel03272507313D

 29 31  0  0  0  0  0  0  0  0999 V2000
   36.1340   26.1180   31.0680 C   0  0  0  0  0  0  0  0  0  0  0  0
   34.9490   25.4720   30.9450 C   0  0  0  0  0  0  0  0  0  0  0  0
   35.2050   24.0970   31.0390 C   0  0  0  0  0  0  0  0  0  0  0  0
   36.5870   23.9940   31.2200 C   0  0  0  0  0  0  0  0  0  0  0  0
   37.0320   25.2040   31.2230 O   0  0  0  0  0  0  0  0  0  0  0  0
   33.9180   25.7810   30.8000 H   0  0  0  0  0  0  0  0  0  0  0  0
   34.5380   23.2660   30.9910 H   0  0  0  0  0  0  0  0  0  0  0  0
   36.2550   27.5600   31.0200 C   0  0  0  0  0  0  0  0  0  0  0  0
   36.6910   28.0960   29.9980 O   0  0  0  0  0  0  0  0  0  0  0  0
   35.8440   28.2970   32.2090 C   0  0  0  0  0  0  0  0  0  0  0  0
   36.5480   28.0380   33.3810 C   0  0  0  0  0  0  0  0  0  0  0  0
   36.1930   28.7140   34.5370 C   0  0  0  0  0  0  0  0  0  0  0  0
   35.1630   29.6060   34.4710 N   0  0  0  0  0  0  0  0  0  0  0  0
   34.5000   29.8380   33.3290 C   0  0  0  0  0  0  0  0  0  0  0  0
   34.8410   29.1880   32.2110 N   0  0  0  0  0  0  0  0  0  0  0  0
   37.3720   27.3330   33.4630 H   0  0  0  0  0  0  0  0  0  0  0  0
   36.6910   28.5670   35.4860 H   0  0  0  0  0  0  0  0  0  0  0  0
   33.6770   30.5310   33.2130 H   0  0  0  0  0  0  0  0  0  0  0  0
   37.3350   22.7340   31.3700 C   0  0  0  0  0  0  0  0  0  0  0  0
   38.5700   22.7310   31.1220 O   0  0  0  0  0  0  0  0  0  0  0  0
   36.6650   21.5330   31.7900 C   0  0  0  0  0  0  0  0  0  0  0  0
   36.2940   21.3240   33.1070 C   0  0  0  0  0  0  0  0  0  0  0  0
   36.4990   22.0620   33.8670 H   0  0  0  0  0  0  0  0  0  0  0  0
   35.6520   20.1650   33.4770 C   0  0  0  0  0  3  0  0  0  0  0  0
   35.3430   19.1590   32.5890 C   0  0  0  0  0  0  0  0  0  0  0  0
   34.8390   18.2370   32.8580 H   0  0  0  0  0  0  0  0  0  0  0  0
   35.7020   19.3390   31.2650 C   0  0  0  0  0  0  0  0  0  0  0  0
   35.4660   18.5620   30.5630 H   0  0  0  0  0  0  0  0  0  0  0  0
   36.3420   20.5030   30.9090 C   0  0  0  0  0  3  0  0  0  0  0  0
  1  5  1  0  0  0  0
  2  3  1  0  0  0  0
  2  1  2  0  0  0  0
  3  4  2  0  0  0  0
  4  5  1  0  0  0  0
  4 19  1  0  0  0  0
  6  2  1  0  0  0  0
  7  3  1  0  0  0  0
  8  1  1  0  0  0  0
  8 10  1  0  0  0  0
  9  8  2  0  0  0  0
 10 15  2  0  0  0  0
 10 11  1  0  0  0  0
 11 16  1  0  0  0  0
 11 12  2  0  0  0  0
 12 17  1  0  0  0  0
 13 12  1  0  0  0  0
 14 13  2  0  0  0  0
 15 14  1  0  0  0  0
 18 14  1  0  0  0  0
 19 21  1  0  0  0  0
 20 19  2  0  0  0  0
 21 22  1  0  0  0  0
 22 24  2  0  0  0  0
 22 23  1  0  0  0  0
 25 26  1  0  0  0  0
 25 24  1  0  0  0  0
 27 25  2  0  0  0  0
 28 27  1  0  0  0  0
 29 27  1  0  0  0  0
 29 21  2  0  0  0  0
M  END
>  <minimizedAffinity>
-5.21083593

$$$$
