
 OpenBabel03272507423D

 41 44  0  0  0  0  0  0  0  0999 V2000
   36.7710   31.2030   50.0990 C   0  0  0  0  0  0  0  0  0  0  0  0
   35.7320   30.3060   49.8570 C   0  0  0  0  0  0  0  0  0  0  0  0
   35.5580   29.1770   50.6390 C   0  0  0  0  0  0  0  0  0  0  0  0
   36.4430   28.9810   51.6540 N   0  0  0  0  0  0  0  0  0  0  0  0
   37.4550   29.8660   51.8800 C   0  0  0  0  0  0  0  0  0  0  0  0
   37.5960   30.9390   51.1140 N   0  0  0  0  0  0  0  0  0  0  0  0
   34.7790   28.4390   50.5130 H   0  0  0  0  0  0  0  0  0  0  0  0
   38.1760   29.7330   52.6850 H   0  0  0  0  0  0  0  0  0  0  0  0
   34.3240   29.2670   48.1270 C   0  0  0  0  0  0  0  0  0  0  0  0
   34.7260   28.0410   48.1360 O   0  0  0  0  0  0  0  0  0  0  0  0
   34.7770   30.4000   48.8400 N   0  0  0  0  0  0  0  0  0  0  0  0
   34.4890   31.3860   48.7180 H   0  0  0  0  0  0  0  0  0  0  0  0
   33.2070   29.4620   47.2030 C   0  0  0  0  0  0  0  0  0  0  0  0
   32.1700   28.5660   47.0430 C   0  0  0  0  0  0  0  0  0  0  0  0
   32.1400   27.6510   47.6140 H   0  0  0  0  0  0  0  0  0  0  0  0
   31.1090   28.7280   46.1820 C   0  0  0  0  0  3  0  0  0  0  0  0
   31.0520   29.8580   45.4080 C   0  0  0  0  0  0  0  0  0  0  0  0
   30.2440   30.0350   44.7170 H   0  0  0  0  0  0  0  0  0  0  0  0
   32.0480   30.8030   45.5070 C   0  0  0  0  0  0  0  0  0  0  0  0
   32.0100   31.6990   44.8990 H   0  0  0  0  0  0  0  0  0  0  0  0
   33.0580   30.5630   46.3840 C   0  0  0  0  0  3  0  0  0  0  0  0
   36.7770   32.2380   49.2360 O   0  0  0  0  0  0  0  0  0  0  0  0
   38.2440   32.2320   47.2470 C   0  0  0  0  0  0  0  0  0  0  0  0
   37.8770   32.6600   48.5180 C   0  0  0  0  0  0  0  0  0  0  0  0
   38.6450   33.5990   49.1780 C   0  0  0  0  0  0  0  0  0  0  0  0
   39.7820   34.1150   48.5780 C   0  0  0  0  0  0  0  0  0  0  0  0
   40.1440   33.6820   47.3090 C   0  0  0  0  0  0  0  0  0  0  0  0
   39.3590   32.7500   46.6810 C   0  0  0  0  0  0  0  0  0  0  0  0
   38.4180   33.9760   50.1660 H   0  0  0  0  0  0  0  0  0  0  0  0
   40.4040   34.8540   49.0750 H   0  0  0  0  0  0  0  0  0  0  0  0
   41.0280   34.0730   46.8220 H   0  0  0  0  0  0  0  0  0  0  0  0
   39.7560   32.2960   45.3250 C   0  0  0  0  0  0  0  0  0  0  0  0
   40.5900   31.2620   44.9560 C   0  0  0  0  0  0  0  0  0  0  0  0
   40.6370   31.2480   43.5650 C   0  0  0  0  0  0  0  0  0  0  0  0
   39.8170   32.2880   43.1670 C   0  0  0  0  0  0  0  0  0  0  0  0
   39.3090   32.8920   44.2280 O   0  0  0  0  0  0  0  0  0  0  0  0
   41.0670   30.6400   45.6950 H   0  0  0  0  0  0  0  0  0  0  0  0
   41.2240   30.5290   43.0280 H   0  0  0  0  0  0  0  0  0  0  0  0
   39.6480   32.5360   42.1160 H   0  0  0  0  0  0  0  0  0  0  0  0
   36.7340   30.4810   46.1120 N   0  0  0  0  0  0  0  0  0  0  0  0
   37.4030   31.2620   46.6290 C   0  0  0  0  0  0  0  0  0  0  0  0
  1  6  1  0  0  0  0
  2  1  2  0  0  0  0
  2  3  1  0  0  0  0
  3  4  2  0  0  0  0
  4  5  1  0  0  0  0
  5  8  1  0  0  0  0
  6  5  2  0  0  0  0
  7  3  1  0  0  0  0
  9 10  2  0  0  0  0
  9 11  1  0  0  0  0
 11  2  1  0  0  0  0
 12 11  1  0  0  0  0
 13  9  1  0  0  0  0
 14 13  1  0  0  0  0
 14 15  1  0  0  0  0
 16 14  2  0  0  0  0
 17 19  2  0  0  0  0
 17 16  1  0  0  0  0
 18 17  1  0  0  0  0
 19 21  1  0  0  0  0
 20 19  1  0  0  0  0
 21 13  2  0  0  0  0
 22  1  1  0  0  0  0
 23 24  1  0  0  0  0
 24 25  2  0  0  0  0
 24 22  1  0  0  0  0
 25 29  1  0  0  0  0
 26 30  1  0  0  0  0
 26 25  1  0  0  0  0
 27 26  2  0  0  0  0
 28 23  2  0  0  0  0
 28 27  1  0  0  0  0
 31 27  1  0  0  0  0
 32 28  1  0  0  0  0
 33 32  2  0  0  0  0
 33 37  1  0  0  0  0
 34 33  1  0  0  0  0
 35 34  2  0  0  0  0
 35 36  1  0  0  0  0
 36 32  1  0  0  0  0
 38 34  1  0  0  0  0
 39 35  1  0  0  0  0
 40 41  3  0  0  0  0
 41 23  1  0  0  0  0
M  END
>  <minimizedAffinity>
-6.13558149

>  <minimizedRMSD>
0.453717798

$$$$
