
 OpenBabel03272501303D

 20 21  0  0  0  0  0  0  0  0999 V2000
   38.1270   32.4660   48.7180 C   0  0  0  0  0  0  0  0  0  0  0  0
   38.1660   33.6730   49.0930 O   0  0  0  0  0  0  0  0  0  0  0  0
   37.3200   29.8150   51.2190 C   0  0  0  0  0  0  0  0  0  0  0  0
   38.0530   30.7800   50.5240 C   0  0  0  0  0  0  0  0  0  0  0  0
   37.4440   31.4380   49.4740 C   0  0  0  0  0  0  0  0  0  0  0  0
   36.1460   31.0890   49.1880 N   0  0  0  0  0  0  0  0  0  0  0  0
   35.4680   30.1740   49.8570 C   0  0  0  0  0  0  0  0  0  0  0  0
   36.0320   29.5220   50.8750 N   0  0  0  0  0  0  0  0  0  0  0  0
   37.7320   29.2550   52.0470 H   0  0  0  0  0  0  0  0  0  0  0  0
   39.0810   30.9860   50.8070 H   0  0  0  0  0  0  0  0  0  0  0  0
   34.4720   30.0670   49.4610 H   0  0  0  0  0  0  0  0  0  0  0  0
   38.7810   32.0090   47.4660 C   0  0  0  0  0  0  0  0  0  0  0  0
   38.6810   30.8360   46.7690 C   0  0  0  0  0  0  0  0  0  0  0  0
   38.0060   30.1400   47.2740 H   0  0  0  0  0  0  0  0  0  0  0  0
   39.3630   30.6200   45.5910 C   0  0  0  0  0  0  0  0  0  0  0  0
   40.1790   31.6270   45.0950 C   0  0  0  0  0  0  0  0  0  0  0  0
   40.6790   31.3730   44.1460 H   0  0  0  0  0  0  0  0  0  0  0  0
   40.3370   32.8400   45.7360 C   0  0  0  0  0  0  0  0  0  0  0  0
   40.9880   33.5980   45.2870 H   0  0  0  0  0  0  0  0  0  0  0  0
   39.6280   32.9980   46.9130 C   0  0  0  0  0  0  0  0  0  0  0  0
  1  2  2  0  0  0  0
  1  5  1  0  0  0  0
  3  9  1  0  0  0  0
  4 10  1  0  0  0  0
  4  3  2  0  0  0  0
  5  4  1  0  0  0  0
  6  5  2  0  0  0  0
  6  7  1  0  0  0  0
  7  8  2  0  0  0  0
  8  3  1  0  0  0  0
 11  7  1  0  0  0  0
 12  1  1  0  0  0  0
 13 14  1  0  0  0  0
 13 12  2  0  0  0  0
 15 13  1  0  0  0  0
 16 15  2  0  0  0  0
 16 18  1  0  0  0  0
 17 16  1  0  0  0  0
 18 20  2  0  0  0  0
 19 18  1  0  0  0  0
 20 12  1  0  0  0  0
M  END
>  <minimizedAffinity>
-5.49440432

>  <minimizedRMSD>
2.29929852

$$$$
