
 OpenBabel03272507303D

 29 31  0  0  0  0  0  0  0  0999 V2000
   33.4860   28.9300   47.7470 C   0  0  0  0  0  0  0  0  0  0  0  0
   33.8100   27.7250   48.2770 C   0  0  0  0  0  0  0  0  0  0  0  0
   34.8650   27.9300   49.1780 C   0  0  0  0  0  0  0  0  0  0  0  0
   35.1230   29.3020   49.1320 C   0  0  0  0  0  0  0  0  0  0  0  0
   34.2830   29.7900   48.2850 O   0  0  0  0  0  0  0  0  0  0  0  0
   33.4460   26.7100   48.1550 H   0  0  0  0  0  0  0  0  0  0  0  0
   35.3950   27.2340   49.7890 H   0  0  0  0  0  0  0  0  0  0  0  0
   32.4300   29.1030   46.7710 C   0  0  0  0  0  0  0  0  0  0  0  0
   31.3750   28.4780   46.9050 O   0  0  0  0  0  0  0  0  0  0  0  0
   32.6910   30.0260   45.6730 C   0  0  0  0  0  0  0  0  0  0  0  0
   33.8050   29.7610   44.8830 C   0  0  0  0  0  0  0  0  0  0  0  0
   34.0930   30.6120   43.8290 C   0  0  0  0  0  0  0  0  0  0  0  0
   33.2670   31.6760   43.6140 N   0  0  0  0  0  0  0  0  0  0  0  0
   32.2000   31.9100   44.3900 C   0  0  0  0  0  0  0  0  0  0  0  0
   31.9180   31.0910   45.4090 N   0  0  0  0  0  0  0  0  0  0  0  0
   34.4800   28.9210   45.0300 H   0  0  0  0  0  0  0  0  0  0  0  0
   34.9410   30.4730   43.1690 H   0  0  0  0  0  0  0  0  0  0  0  0
   31.5090   32.7350   44.2720 H   0  0  0  0  0  0  0  0  0  0  0  0
   36.1580   30.0010   49.9150 C   0  0  0  0  0  0  0  0  0  0  0  0
   36.2230   29.7880   51.1550 O   0  0  0  0  0  0  0  0  0  0  0  0
   37.0720   30.9060   49.2730 C   0  0  0  0  0  0  0  0  0  0  0  0
   37.2950   32.1840   49.7550 C   0  0  0  0  0  0  0  0  0  0  0  0
   36.7850   32.5450   50.6330 H   0  0  0  0  0  0  0  0  0  0  0  0
   38.1790   33.0260   49.1200 C   0  0  0  0  0  0  0  0  0  0  0  0
   38.8830   32.6670   47.9920 C   0  0  0  0  0  0  0  0  0  0  0  0
   39.5830   33.3130   47.4750 H   0  0  0  0  0  0  0  0  0  0  0  0
   38.6800   31.3950   47.4870 C   0  0  0  0  0  0  0  0  0  0  0  0
   39.2240   31.1040   46.6090 H   0  0  0  0  0  0  0  0  0  0  0  0
   37.7950   30.5640   48.1320 C   0  0  0  0  0  0  0  0  0  0  0  0
  1  2  2  0  0  0  0
  1  5  1  0  0  0  0
  2  3  1  0  0  0  0
  3  7  1  0  0  0  0
  4  3  2  0  0  0  0
  4 19  1  0  0  0  0
  5  4  1  0  0  0  0
  6  2  1  0  0  0  0
  8  9  2  0  0  0  0
  8  1  1  0  0  0  0
 10  8  1  0  0  0  0
 11 16  1  0  0  0  0
 11 10  2  0  0  0  0
 12 11  1  0  0  0  0
 13 12  2  0  0  0  0
 13 14  1  0  0  0  0
 14 15  2  0  0  0  0
 15 10  1  0  0  0  0
 17 12  1  0  0  0  0
 18 14  1  0  0  0  0
 19 20  2  0  0  0  0
 21 22  1  0  0  0  0
 21 19  1  0  0  0  0
 22 23  1  0  0  0  0
 24 22  2  0  0  0  0
 25 24  1  0  0  0  0
 26 25  1  0  0  0  0
 27 25  2  0  0  0  0
 27 29  1  0  0  0  0
 28 27  1  0  0  0  0
 29 21  2  0  0  0  0
M  END
>  <minimizedAffinity>
-5.63502073

>  <minimizedRMSD>
6.03206301

$$$$
