REMARK  Name = 
REMARK  6 active torsions:
REMARK  status: ('A' for Active; 'I' for Inactive)
REMARK    1  A    between atoms: C_1  and  C_13
REMARK    2  A    between atoms: C_2  and  O_14
REMARK    3  A    between atoms: C_6  and  C_7
REMARK    4  A    between atoms: O_14  and  C_15
REMARK    5  A    between atoms: C_16  and  N_23
REMARK    6  A    between atoms: C_21  and  C_33
REMARK                            x       y       z     vdW  Elec       q    Type
REMARK                         _______ _______ _______ _____ _____    ______ ____
ROOT
ATOM      1  C   UNL     1      36.788  31.206  50.166  0.00  0.00    +0.000 A 
ATOM      2  C   UNL     1      35.651  30.429  49.947  0.00  0.00    +0.000 A 
ATOM      3  C   UNL     1      35.437  29.252  50.643  0.00  0.00    +0.000 A 
ATOM      4  N   UNL     1      36.383  28.886  51.551  0.00  0.00    +0.000 NA
ATOM      5  C   UNL     1      37.491  29.654  51.755  0.00  0.00    +0.000 A 
ATOM      6  N   UNL     1      37.668  30.777  51.073  0.00  0.00    +0.000 NA
ATOM      7  H   UNL     1      34.584  28.600  50.529  0.00  0.00    +0.000 HD
ATOM      8  H   UNL     1      38.262  29.384  52.474  0.00  0.00    +0.000 HD
ENDROOT
BRANCH   2  11
ATOM      9  C   UNL     1      34.135  29.722  48.142  0.00  0.00    +0.000 C 
ATOM     10  O   UNL     1      34.549  28.529  47.879  0.00  0.00    +0.000 OA
ATOM     11  N   UNL     1      34.625  30.701  49.036  0.00  0.00    +0.000 N 
ATOM     12  H   UNL     1      34.319  31.684  49.134  0.00  0.00    +0.000 HD
BRANCH   9  13
ATOM     13  C   UNL     1      32.953  30.070  47.353  0.00  0.00    +0.000 A 
ATOM     14  C   UNL     1      32.187  29.154  46.662  0.00  0.00    +0.000 A 
ATOM     15  H   UNL     1      32.439  28.104  46.676  0.00  0.00    +0.000 HD
ATOM     16  C   UNL     1      31.073  29.457  45.915  0.00  0.00    +0.000 A 
ATOM     17  C   UNL     1      30.668  30.764  45.832  0.00  0.00    +0.000 A 
ATOM     18  H   UNL     1      29.802  31.058  45.260  0.00  0.00    +0.000 HD
ATOM     19  C   UNL     1      31.377  31.742  46.492  0.00  0.00    +0.000 A 
ATOM     20  H   UNL     1      31.064  32.777  46.432  0.00  0.00    +0.000 HD
ATOM     21  C   UNL     1      32.466  31.353  47.208  0.00  0.00    +0.000 A 
ENDBRANCH   9  13
ENDBRANCH   2  11
BRANCH   1  22
ATOM     22  O   UNL     1      36.818  32.312  49.397  0.00  0.00    +0.000 OA
BRANCH  22  24
ATOM     23  C   UNL     1      38.267  32.291  47.395  0.00  0.00    +0.000 A 
ATOM     24  C   UNL     1      37.908  32.733  48.664  0.00  0.00    +0.000 A 
ATOM     25  C   UNL     1      38.675  33.686  49.304  0.00  0.00    +0.000 A 
ATOM     26  C   UNL     1      39.803  34.203  48.687  0.00  0.00    +0.000 A 
ATOM     27  C   UNL     1      40.156  33.756  47.420  0.00  0.00    +0.000 A 
ATOM     28  C   UNL     1      39.373  32.810  46.812  0.00  0.00    +0.000 A 
ATOM     29  H   UNL     1      38.454  34.074  50.289  0.00  0.00    +0.000 HD
ATOM     30  H   UNL     1      40.424  34.953  49.168  0.00  0.00    +0.000 HD
ATOM     31  H   UNL     1      41.033  34.147  46.920  0.00  0.00    +0.000 HD
BRANCH  28  32
ATOM     32  C   UNL     1      39.761  32.341  45.458  0.00  0.00    +0.000 A 
ATOM     33  C   UNL     1      40.620  31.326  45.095  0.00  0.00    +0.000 A 
ATOM     34  C   UNL     1      40.644  31.285  43.704  0.00  0.00    +0.000 A 
ATOM     35  C   UNL     1      39.786  32.292  43.300  0.00  0.00    +0.000 A 
ATOM     36  O   UNL     1      39.277  32.901  44.358  0.00  0.00    +0.000 OA
ATOM     37  H   UNL     1      41.128  30.733  45.838  0.00  0.00    +0.000 HD
ATOM     38  H   UNL     1      41.243  30.574  43.171  0.00  0.00    +0.000 HD
ATOM     39  H   UNL     1      39.592  32.513  42.248  0.00  0.00    +0.000 HD
ENDBRANCH  28  32
BRANCH  23  41
ATOM     40  N   UNL     1      36.760  30.514  46.297  0.00  0.00    +0.000 NA
ATOM     41  C   UNL     1      37.428  31.307  46.797  0.00  0.00    +0.000 C 
ENDBRANCH  23  41
ENDBRANCH  22  24
ENDBRANCH   1  22
TORSDOF 6
