
 OpenBabel03272507433D

 41 44  0  0  0  0  0  0  0  0999 V2000
   38.0120   25.6700   31.3530 C   0  0  0  0  0  0  0  0  0  0  0  0
   38.2650   24.4480   30.7290 C   0  0  0  0  0  0  0  0  0  0  0  0
   39.0640   24.3660   29.6030 C   0  0  0  0  0  0  0  0  0  0  0  0
   39.5950   25.5270   29.1310 N   0  0  0  0  0  0  0  0  0  0  0  0
   39.3390   26.7150   29.7490 C   0  0  0  0  0  0  0  0  0  0  0  0
   38.5690   26.7620   30.8270 N   0  0  0  0  0  0  0  0  0  0  0  0
   39.3050   23.4600   29.0670 H   0  0  0  0  0  0  0  0  0  0  0  0
   39.7500   27.6580   29.3920 H   0  0  0  0  0  0  0  0  0  0  0  0
   36.3950   22.8720   31.0100 C   0  0  0  0  0  0  0  0  0  0  0  0
   35.3720   23.5920   30.6960 O   0  0  0  0  0  0  0  0  0  0  0  0
   37.7660   23.2010   31.1190 N   0  0  0  0  0  0  0  0  0  0  0  0
   38.5360   22.6110   31.4770 H   0  0  0  0  0  0  0  0  0  0  0  0
   36.0160   21.4870   31.2910 C   0  0  0  0  0  0  0  0  0  0  0  0
   35.0600   21.1190   32.2150 C   0  0  0  0  0  0  0  0  0  0  0  0
   34.5340   21.8670   32.7890 H   0  0  0  0  0  0  0  0  0  0  0  0
   34.6880   19.8260   32.4960 C   0  0  0  0  0  3  0  0  0  0  0  0
   35.2970   18.8000   31.8190 C   0  0  0  0  0  0  0  0  0  0  0  0
   35.0430   17.7680   32.0000 H   0  0  0  0  0  0  0  0  0  0  0  0
   36.2640   19.0810   30.8790 C   0  0  0  0  0  0  0  0  0  0  0  0
   36.7500   18.2770   30.3420 H   0  0  0  0  0  0  0  0  0  0  0  0
   36.5710   20.3880   30.6660 C   0  0  0  0  0  3  0  0  0  0  0  0
   37.2150   25.5470   32.4320 O   0  0  0  0  0  0  0  0  0  0  0  0
   37.9370   24.9570   34.7210 C   0  0  0  0  0  0  0  0  0  0  0  0
   37.5830   25.8600   33.7240 C   0  0  0  0  0  0  0  0  0  0  0  0
   37.5840   27.2150   33.9900 C   0  0  0  0  0  0  0  0  0  0  0  0
   37.9340   27.6780   35.2490 C   0  0  0  0  0  0  0  0  0  0  0  0
   38.2850   26.7700   36.2390 C   0  0  0  0  0  0  0  0  0  0  0  0
   38.2750   25.4320   35.9420 C   0  0  0  0  0  0  0  0  0  0  0  0
   37.3210   27.9710   33.2640 H   0  0  0  0  0  0  0  0  0  0  0  0
   37.9430   28.7380   35.4850 H   0  0  0  0  0  0  0  0  0  0  0  0
   38.5620   27.1100   37.2290 H   0  0  0  0  0  0  0  0  0  0  0  0
   38.6520   24.4720   37.0100 C   0  0  0  0  0  0  0  0  0  0  0  0
   38.0810   24.2690   38.2470 C   0  0  0  0  0  0  0  0  0  0  0  0
   38.8020   23.2550   38.8720 C   0  0  0  0  0  0  0  0  0  0  0  0
   39.7820   22.8990   37.9640 C   0  0  0  0  0  0  0  0  0  0  0  0
   39.6700   23.6340   36.8700 O   0  0  0  0  0  0  0  0  0  0  0  0
   37.2300   24.8470   38.5710 H   0  0  0  0  0  0  0  0  0  0  0  0
   38.5520   22.9090   39.8550 H   0  0  0  0  0  0  0  0  0  0  0  0
   40.5180   22.1180   38.1680 H   0  0  0  0  0  0  0  0  0  0  0  0
   37.9100   22.4570   34.1020 N   0  0  0  0  0  0  0  0  0  0  0  0
   37.9130   23.5750   34.3730 C   0  0  0  0  0  0  0  0  0  0  0  0
  1 22  1  0  0  0  0
  2 11  1  0  0  0  0
  2  1  2  0  0  0  0
  3  2  1  0  0  0  0
  4  3  2  0  0  0  0
  4  5  1  0  0  0  0
  5  6  2  0  0  0  0
  6  1  1  0  0  0  0
  7  3  1  0  0  0  0
  8  5  1  0  0  0  0
  9 11  1  0  0  0  0
  9 13  1  0  0  0  0
 10  9  2  0  0  0  0
 11 12  1  0  0  0  0
 13 14  1  0  0  0  0
 14 16  2  0  0  0  0
 14 15  1  0  0  0  0
 17 18  1  0  0  0  0
 17 16  1  0  0  0  0
 19 17  2  0  0  0  0
 20 19  1  0  0  0  0
 21 19  1  0  0  0  0
 21 13  2  0  0  0  0
 22 24  1  0  0  0  0
 23 28  1  0  0  0  0
 24 25  1  0  0  0  0
 24 23  2  0  0  0  0
 25 26  2  0  0  0  0
 26 30  1  0  0  0  0
 26 27  1  0  0  0  0
 27 31  1  0  0  0  0
 28 27  2  0  0  0  0
 28 32  1  0  0  0  0
 29 25  1  0  0  0  0
 32 33  2  0  0  0  0
 33 37  1  0  0  0  0
 33 34  1  0  0  0  0
 34 38  1  0  0  0  0
 35 39  1  0  0  0  0
 35 34  2  0  0  0  0
 36 32  1  0  0  0  0
 36 35  1  0  0  0  0
 40 41  3  0  0  0  0
 41 23  1  0  0  0  0
M  END
>  <minimizedAffinity>
-6.3354063

$$$$

 OpenBabel03272507433D

 41 44  0  0  0  0  0  0  0  0999 V2000
   37.0130   25.8800   33.0480 C   0  0  0  0  0  0  0  0  0  0  0  0
   36.4840   27.0330   32.4690 C   0  0  0  0  0  0  0  0  0  0  0  0
   35.7750   26.9830   31.2810 C   0  0  0  0  0  0  0  0  0  0  0  0
   35.6160   25.7600   30.7030 N   0  0  0  0  0  0  0  0  0  0  0  0
   36.1390   24.6410   31.2800 C   0  0  0  0  0  0  0  0  0  0  0  0
   36.8130   24.7210   32.4180 N   0  0  0  0  0  0  0  0  0  0  0  0
   35.3370   27.8290   30.7740 H   0  0  0  0  0  0  0  0  0  0  0  0
   36.0260   23.6520   30.8390 H   0  0  0  0  0  0  0  0  0  0  0  0
   35.4630   29.1440   33.2160 C   0  0  0  0  0  0  0  0  0  0  0  0
   34.2140   28.9600   32.9530 O   0  0  0  0  0  0  0  0  0  0  0  0
   36.5960   28.3360   32.9650 N   0  0  0  0  0  0  0  0  0  0  0  0
   37.5920   28.5760   33.1020 H   0  0  0  0  0  0  0  0  0  0  0  0
   35.6920   30.4230   33.8880 C   0  0  0  0  0  0  0  0  0  0  0  0
   35.8500   31.6260   33.2300 C   0  0  0  0  0  0  0  0  0  0  0  0
   35.8120   31.6720   32.1520 H   0  0  0  0  0  0  0  0  0  0  0  0
   36.0660   32.8390   33.8400 C   0  0  0  0  0  3  0  0  0  0  0  0
   36.1320   32.8890   35.2090 C   0  0  0  0  0  0  0  0  0  0  0  0
   36.2980   33.8130   35.7380 H   0  0  0  0  0  0  0  0  0  0  0  0
   35.9830   31.7320   35.9430 C   0  0  0  0  0  0  0  0  0  0  0  0
   36.0350   31.7640   37.0230 H   0  0  0  0  0  0  0  0  0  0  0  0
   35.7740   30.5770   35.2580 C   0  0  0  0  0  3  0  0  0  0  0  0
   37.6680   26.1300   34.1990 O   0  0  0  0  0  0  0  0  0  0  0  0
   39.5340   24.6750   34.9110 C   0  0  0  0  0  0  0  0  0  0  0  0
   39.0030   25.8630   34.4210 C   0  0  0  0  0  0  0  0  0  0  0  0
   39.8400   26.9140   34.1050 C   0  0  0  0  0  0  0  0  0  0  0  0
   41.2100   26.7900   34.2760 C   0  0  0  0  0  0  0  0  0  0  0  0
   41.7340   25.6000   34.7670 C   0  0  0  0  0  0  0  0  0  0  0  0
   40.8750   24.5770   35.0700 C   0  0  0  0  0  0  0  0  0  0  0  0
   39.4950   27.8640   33.7190 H   0  0  0  0  0  0  0  0  0  0  0  0
   41.8920   27.6000   34.0350 H   0  0  0  0  0  0  0  0  0  0  0  0
   42.8010   25.4820   34.9070 H   0  0  0  0  0  0  0  0  0  0  0  0
   41.4470   23.3110   35.5940 C   0  0  0  0  0  0  0  0  0  0  0  0
   41.5970   22.8910   36.8980 C   0  0  0  0  0  0  0  0  0  0  0  0
   42.1860   21.6300   36.8590 C   0  0  0  0  0  0  0  0  0  0  0  0
   42.3620   21.3570   35.5140 C   0  0  0  0  0  0  0  0  0  0  0  0
   41.9160   22.3680   34.7880 O   0  0  0  0  0  0  0  0  0  0  0  0
   41.2790   23.5070   37.7230 H   0  0  0  0  0  0  0  0  0  0  0  0
   42.4090   21.0840   37.7530 H   0  0  0  0  0  0  0  0  0  0  0  0
   42.8100   20.4280   35.1560 H   0  0  0  0  0  0  0  0  0  0  0  0
   37.8650   22.7970   35.4800 N   0  0  0  0  0  0  0  0  0  0  0  0
   38.6090   23.6350   35.2150 C   0  0  0  0  0  0  0  0  0  0  0  0
  1 22  1  0  0  0  0
  2 11  1  0  0  0  0
  2  1  1  0  0  0  0
  3  2  2  0  0  0  0
  4  5  2  0  0  0  0
  4  3  1  0  0  0  0
  5  6  1  0  0  0  0
  6  1  2  0  0  0  0
  7  3  1  0  0  0  0
  8  5  1  0  0  0  0
  9 13  1  0  0  0  0
 10  9  2  0  0  0  0
 11 12  1  0  0  0  0
 11  9  1  0  0  0  0
 13 21  1  0  0  0  0
 14 16  1  0  0  0  0
 14 13  2  0  0  0  0
 15 14  1  0  0  0  0
 16 17  2  0  0  0  0
 17 18  1  0  0  0  0
 17 19  1  0  0  0  0
 19 20  1  0  0  0  0
 21 19  2  0  0  0  0
 22 24  1  0  0  0  0
 23 28  1  0  0  0  0
 23 41  1  0  0  0  0
 24 23  2  0  0  0  0
 25 26  2  0  0  0  0
 25 24  1  0  0  0  0
 26 27  1  0  0  0  0
 27 31  1  0  0  0  0
 27 28  2  0  0  0  0
 28 32  1  0  0  0  0
 29 25  1  0  0  0  0
 30 26  1  0  0  0  0
 32 33  2  0  0  0  0
 33 37  1  0  0  0  0
 34 33  1  0  0  0  0
 34 38  1  0  0  0  0
 35 34  2  0  0  0  0
 36 35  1  0  0  0  0
 36 32  1  0  0  0  0
 39 35  1  0  0  0  0
 41 40  3  0  0  0  0
M  END
>  <minimizedAffinity>
-6.10779142

$$$$

 OpenBabel03272507433D

 41 44  0  0  0  0  0  0  0  0999 V2000
   36.7930   28.1250   31.8800 C   0  0  0  0  0  0  0  0  0  0  0  0
   36.2670   29.4130   31.9830 C   0  0  0  0  0  0  0  0  0  0  0  0
   36.2840   30.2870   30.9100 C   0  0  0  0  0  0  0  0  0  0  0  0
   36.8340   29.8350   29.7490 N   0  0  0  0  0  0  0  0  0  0  0  0
   37.3450   28.5740   29.6610 C   0  0  0  0  0  0  0  0  0  0  0  0
   37.3140   27.7600   30.7070 N   0  0  0  0  0  0  0  0  0  0  0  0
   35.8970   31.2950   30.9140 H   0  0  0  0  0  0  0  0  0  0  0  0
   37.7900   28.1890   28.7460 H   0  0  0  0  0  0  0  0  0  0  0  0
   34.3330   29.7840   33.4580 C   0  0  0  0  0  0  0  0  0  0  0  0
   33.3730   29.2170   32.8100 O   0  0  0  0  0  0  0  0  0  0  0  0
   35.6910   29.9830   33.1230 N   0  0  0  0  0  0  0  0  0  0  0  0
   36.3990   30.5380   33.6340 H   0  0  0  0  0  0  0  0  0  0  0  0
   33.8840   30.2900   34.7550 C   0  0  0  0  0  0  0  0  0  0  0  0
   32.7180   29.8950   35.3790 C   0  0  0  0  0  0  0  0  0  0  0  0
   32.0660   29.1700   34.9160 H   0  0  0  0  0  0  0  0  0  0  0  0
   32.2760   30.3560   36.5960 C   0  0  0  0  0  3  0  0  0  0  0  0
   33.0330   31.2820   37.2680 C   0  0  0  0  0  0  0  0  0  0  0  0
   32.7340   31.6770   38.2250 H   0  0  0  0  0  0  0  0  0  0  0  0
   34.2120   31.7300   36.7150 C   0  0  0  0  0  0  0  0  0  0  0  0
   34.8150   32.4610   37.2380 H   0  0  0  0  0  0  0  0  0  0  0  0
   34.5730   31.2210   35.5070 C   0  0  0  0  0  3  0  0  0  0  0  0
   36.6840   27.4260   33.0260 O   0  0  0  0  0  0  0  0  0  0  0  0
   37.8840   25.6170   34.2080 C   0  0  0  0  0  0  0  0  0  0  0  0
   37.0780   26.1140   33.1890 C   0  0  0  0  0  0  0  0  0  0  0  0
   36.5910   25.2610   32.2180 C   0  0  0  0  0  0  0  0  0  0  0  0
   36.9040   23.9120   32.2540 C   0  0  0  0  0  0  0  0  0  0  0  0
   37.7100   23.4230   33.2740 C   0  0  0  0  0  0  0  0  0  0  0  0
   38.1770   24.2950   34.2220 C   0  0  0  0  0  0  0  0  0  0  0  0
   35.9600   25.5800   31.4000 H   0  0  0  0  0  0  0  0  0  0  0  0
   36.5350   23.2200   31.5030 H   0  0  0  0  0  0  0  0  0  0  0  0
   37.9670   22.3720   33.3210 H   0  0  0  0  0  0  0  0  0  0  0  0
   39.0370   23.7600   35.3070 C   0  0  0  0  0  0  0  0  0  0  0  0
   38.6880   23.3180   36.5650 C   0  0  0  0  0  0  0  0  0  0  0  0
   39.8600   22.9160   37.2000 C   0  0  0  0  0  0  0  0  0  0  0  0
   40.8640   23.1410   36.2760 C   0  0  0  0  0  0  0  0  0  0  0  0
   40.3500   23.6400   35.1640 O   0  0  0  0  0  0  0  0  0  0  0  0
   37.6620   23.3260   36.8940 H   0  0  0  0  0  0  0  0  0  0  0  0
   39.8560   22.5280   38.1990 H   0  0  0  0  0  0  0  0  0  0  0  0
   41.9140   22.9220   36.4830 H   0  0  0  0  0  0  0  0  0  0  0  0
   38.7270   27.3260   35.9400 N   0  0  0  0  0  0  0  0  0  0  0  0
   38.3490   26.5550   35.1740 C   0  0  0  0  0  0  0  0  0  0  0  0
  1  2  1  0  0  0  0
  1 22  1  0  0  0  0
  2 11  1  0  0  0  0
  3  7  1  0  0  0  0
  3  2  2  0  0  0  0
  4  3  1  0  0  0  0
  5  4  2  0  0  0  0
  5  6  1  0  0  0  0
  6  1  2  0  0  0  0
  8  5  1  0  0  0  0
  9 13  1  0  0  0  0
 10  9  2  0  0  0  0
 11  9  1  0  0  0  0
 11 12  1  0  0  0  0
 13 14  2  0  0  0  0
 13 21  1  0  0  0  0
 14 16  1  0  0  0  0
 15 14  1  0  0  0  0
 16 17  2  0  0  0  0
 17 18  1  0  0  0  0
 19 20  1  0  0  0  0
 19 17  1  0  0  0  0
 21 19  2  0  0  0  0
 22 24  1  0  0  0  0
 23 28  1  0  0  0  0
 23 41  1  0  0  0  0
 24 23  2  0  0  0  0
 25 26  2  0  0  0  0
 25 24  1  0  0  0  0
 26 27  1  0  0  0  0
 27 31  1  0  0  0  0
 27 28  2  0  0  0  0
 28 32  1  0  0  0  0
 29 25  1  0  0  0  0
 30 26  1  0  0  0  0
 32 33  2  0  0  0  0
 33 37  1  0  0  0  0
 33 34  1  0  0  0  0
 34 38  1  0  0  0  0
 35 39  1  0  0  0  0
 35 34  2  0  0  0  0
 36 32  1  0  0  0  0
 36 35  1  0  0  0  0
 41 40  3  0  0  0  0
M  END
>  <minimizedAffinity>
-6.06716585

$$$$

 OpenBabel03272507433D

 41 44  0  0  0  0  0  0  0  0999 V2000
   38.9710   25.2420   31.3770 C   0  0  0  0  0  0  0  0  0  0  0  0
   38.9820   24.1460   32.2380 C   0  0  0  0  0  0  0  0  0  0  0  0
   38.9330   22.8490   31.7550 C   0  0  0  0  0  0  0  0  0  0  0  0
   38.8760   22.6910   30.4040 N   0  0  0  0  0  0  0  0  0  0  0  0
   38.8650   23.7720   29.5730 C   0  0  0  0  0  0  0  0  0  0  0  0
   38.9130   25.0020   30.0650 N   0  0  0  0  0  0  0  0  0  0  0  0
   38.9380   21.9530   32.3570 H   0  0  0  0  0  0  0  0  0  0  0  0
   38.8190   23.6730   28.4900 H   0  0  0  0  0  0  0  0  0  0  0  0
   38.2940   23.2880   34.4400 C   0  0  0  0  0  0  0  0  0  0  0  0
   37.4080   22.4030   34.1320 O   0  0  0  0  0  0  0  0  0  0  0  0
   39.0270   24.1900   33.6350 N   0  0  0  0  0  0  0  0  0  0  0  0
   39.6520   24.9550   33.9420 H   0  0  0  0  0  0  0  0  0  0  0  0
   38.5470   23.3220   35.8810 C   0  0  0  0  0  0  0  0  0  0  0  0
   39.6760   22.8020   36.4810 C   0  0  0  0  0  0  0  0  0  0  0  0
   40.4450   22.3300   35.8880 H   0  0  0  0  0  0  0  0  0  0  0  0
   39.9350   22.8210   37.8310 C   0  0  0  0  0  3  0  0  0  0  0  0
   39.0170   23.3980   38.6720 C   0  0  0  0  0  0  0  0  0  0  0  0
   39.1700   23.4410   39.7380 H   0  0  0  0  0  0  0  0  0  0  0  0
   37.8630   23.9420   38.1540 C   0  0  0  0  0  0  0  0  0  0  0  0
   37.1350   24.3980   38.8120 H   0  0  0  0  0  0  0  0  0  0  0  0
   37.6880   23.8780   36.8070 C   0  0  0  0  0  3  0  0  0  0  0  0
   39.0250   26.4180   32.0320 O   0  0  0  0  0  0  0  0  0  0  0  0
   37.1800   27.9160   32.7130 C   0  0  0  0  0  0  0  0  0  0  0  0
   38.1600   27.4740   31.8300 C   0  0  0  0  0  0  0  0  0  0  0  0
   38.3350   28.1130   30.6190 C   0  0  0  0  0  0  0  0  0  0  0  0
   37.5370   29.1930   30.2790 C   0  0  0  0  0  0  0  0  0  0  0  0
   36.5590   29.6280   31.1650 C   0  0  0  0  0  0  0  0  0  0  0  0
   36.4120   28.9720   32.3590 C   0  0  0  0  0  0  0  0  0  0  0  0
   39.0770   27.8230   29.8870 H   0  0  0  0  0  0  0  0  0  0  0  0
   37.6530   29.7140   29.3330 H   0  0  0  0  0  0  0  0  0  0  0  0
   35.9250   30.4700   30.9190 H   0  0  0  0  0  0  0  0  0  0  0  0
   35.3640   29.4470   33.2970 C   0  0  0  0  0  0  0  0  0  0  0  0
   35.4730   30.3060   34.3700 C   0  0  0  0  0  0  0  0  0  0  0  0
   34.2030   30.4320   34.9260 C   0  0  0  0  0  0  0  0  0  0  0  0
   33.3880   29.6300   34.1470 C   0  0  0  0  0  0  0  0  0  0  0  0
   34.1010   29.0590   33.1900 O   0  0  0  0  0  0  0  0  0  0  0  0
   36.4200   30.7450   34.6390 H   0  0  0  0  0  0  0  0  0  0  0  0
   34.0210   31.0520   35.7810 H   0  0  0  0  0  0  0  0  0  0  0  0
   32.3190   29.5170   34.3370 H   0  0  0  0  0  0  0  0  0  0  0  0
   36.9780   26.6280   34.9340 N   0  0  0  0  0  0  0  0  0  0  0  0
   37.0580   27.2070   33.9430 C   0  0  0  0  0  0  0  0  0  0  0  0
  1 22  1  0  0  0  0
  1  2  1  0  0  0  0
  2 11  1  0  0  0  0
  3  2  2  0  0  0  0
  3  7  1  0  0  0  0
  4  3  1  0  0  0  0
  5  6  1  0  0  0  0
  5  4  2  0  0  0  0
  6  1  2  0  0  0  0
  8  5  1  0  0  0  0
  9 13  1  0  0  0  0
 10  9  2  0  0  0  0
 11 12  1  0  0  0  0
 11  9  1  0  0  0  0
 13 14  2  0  0  0  0
 13 21  1  0  0  0  0
 14 16  1  0  0  0  0
 15 14  1  0  0  0  0
 16 17  2  0  0  0  0
 17 18  1  0  0  0  0
 19 17  1  0  0  0  0
 19 20  1  0  0  0  0
 21 19  2  0  0  0  0
 23 41  1  0  0  0  0
 24 22  1  0  0  0  0
 24 23  2  0  0  0  0
 25 24  1  0  0  0  0
 26 25  2  0  0  0  0
 26 27  1  0  0  0  0
 27 28  2  0  0  0  0
 28 23  1  0  0  0  0
 28 32  1  0  0  0  0
 29 25  1  0  0  0  0
 30 26  1  0  0  0  0
 31 27  1  0  0  0  0
 32 33  2  0  0  0  0
 33 37  1  0  0  0  0
 33 34  1  0  0  0  0
 34 38  1  0  0  0  0
 35 39  1  0  0  0  0
 35 34  2  0  0  0  0
 36 32  1  0  0  0  0
 36 35  1  0  0  0  0
 41 40  3  0  0  0  0
M  END
>  <minimizedAffinity>
-6.04167986

$$$$

 OpenBabel03272507433D

 41 44  0  0  0  0  0  0  0  0999 V2000
   37.1550   26.5850   32.8750 C   0  0  0  0  0  0  0  0  0  0  0  0
   36.3960   25.9290   31.9070 C   0  0  0  0  0  0  0  0  0  0  0  0
   35.9130   26.5970   30.7950 C   0  0  0  0  0  0  0  0  0  0  0  0
   36.2110   27.9210   30.6870 N   0  0  0  0  0  0  0  0  0  0  0  0
   36.9530   28.5510   31.6420 C   0  0  0  0  0  0  0  0  0  0  0  0
   37.4030   27.8840   32.6960 N   0  0  0  0  0  0  0  0  0  0  0  0
   35.3210   26.1590   30.0060 H   0  0  0  0  0  0  0  0  0  0  0  0
   37.2050   29.6080   31.5800 H   0  0  0  0  0  0  0  0  0  0  0  0
   36.7600   23.5900   31.2360 C   0  0  0  0  0  0  0  0  0  0  0  0
   37.7550   23.6830   30.4200 O   0  0  0  0  0  0  0  0  0  0  0  0
   36.0220   24.5820   31.9200 N   0  0  0  0  0  0  0  0  0  0  0  0
   35.1630   24.4610   32.4840 H   0  0  0  0  0  0  0  0  0  0  0  0
   36.3710   22.1970   31.4560 C   0  0  0  0  0  0  0  0  0  0  0  0
   37.1380   21.1110   31.0860 C   0  0  0  0  0  0  0  0  0  0  0  0
   38.0920   21.2520   30.5990 H   0  0  0  0  0  0  0  0  0  0  0  0
   36.7940   19.7950   31.2820 C   0  0  0  0  0  3  0  0  0  0  0  0
   35.6000   19.5070   31.8930 C   0  0  0  0  0  0  0  0  0  0  0  0
   35.2810   18.4930   32.0720 H   0  0  0  0  0  0  0  0  0  0  0  0
   34.7740   20.5340   32.2950 C   0  0  0  0  0  0  0  0  0  0  0  0
   33.8300   20.3140   32.7770 H   0  0  0  0  0  0  0  0  0  0  0  0
   35.1930   21.8060   32.0600 C   0  0  0  0  0  3  0  0  0  0  0  0
   37.5350   25.7700   33.8790 O   0  0  0  0  0  0  0  0  0  0  0  0
   39.3790   24.3600   34.7260 C   0  0  0  0  0  0  0  0  0  0  0  0
   38.8400   25.5590   34.2720 C   0  0  0  0  0  0  0  0  0  0  0  0
   39.6360   26.6830   34.1830 C   0  0  0  0  0  0  0  0  0  0  0  0
   40.9730   26.6220   34.5450 C   0  0  0  0  0  0  0  0  0  0  0  0
   41.5050   25.4210   34.9980 C   0  0  0  0  0  0  0  0  0  0  0  0
   40.6870   24.3240   35.0740 C   0  0  0  0  0  0  0  0  0  0  0  0
   39.2830   27.6460   33.8390 H   0  0  0  0  0  0  0  0  0  0  0  0
   41.6210   27.4910   34.4850 H   0  0  0  0  0  0  0  0  0  0  0  0
   42.5460   25.3510   35.2860 H   0  0  0  0  0  0  0  0  0  0  0  0
   41.2680   23.0470   35.5590 C   0  0  0  0  0  0  0  0  0  0  0  0
   41.3370   22.5470   36.8420 C   0  0  0  0  0  0  0  0  0  0  0  0
   41.9760   21.3130   36.7690 C   0  0  0  0  0  0  0  0  0  0  0  0
   42.2620   21.1350   35.4270 C   0  0  0  0  0  0  0  0  0  0  0  0
   41.8320   22.1760   34.7340 O   0  0  0  0  0  0  0  0  0  0  0  0
   40.9340   23.0960   37.6770 H   0  0  0  0  0  0  0  0  0  0  0  0
   42.1530   20.7170   37.6420 H   0  0  0  0  0  0  0  0  0  0  0  0
   42.7720   20.2470   35.0470 H   0  0  0  0  0  0  0  0  0  0  0  0
   37.7730   22.3510   34.8560 N   0  0  0  0  0  0  0  0  0  0  0  0
   38.4970   23.2430   34.7910 C   0  0  0  0  0  0  0  0  0  0  0  0
  1 22  1  0  0  0  0
  2 11  1  0  0  0  0
  2  1  2  0  0  0  0
  3  2  1  0  0  0  0
  4  3  2  0  0  0  0
  4  5  1  0  0  0  0
  5  6  2  0  0  0  0
  6  1  1  0  0  0  0
  7  3  1  0  0  0  0
  8  5  1  0  0  0  0
  9 13  1  0  0  0  0
  9 11  1  0  0  0  0
 10  9  2  0  0  0  0
 11 12  1  0  0  0  0
 13 21  1  0  0  0  0
 14 16  1  0  0  0  0
 14 13  2  0  0  0  0
 15 14  1  0  0  0  0
 16 17  2  0  0  0  0
 17 18  1  0  0  0  0
 17 19  1  0  0  0  0
 19 20  1  0  0  0  0
 21 19  2  0  0  0  0
 22 24  1  0  0  0  0
 23 41  1  0  0  0  0
 23 28  1  0  0  0  0
 24 23  2  0  0  0  0
 25 24  1  0  0  0  0
 25 26  2  0  0  0  0
 26 27  1  0  0  0  0
 27 28  2  0  0  0  0
 27 31  1  0  0  0  0
 28 32  1  0  0  0  0
 29 25  1  0  0  0  0
 30 26  1  0  0  0  0
 32 33  2  0  0  0  0
 33 37  1  0  0  0  0
 34 33  1  0  0  0  0
 34 38  1  0  0  0  0
 35 34  2  0  0  0  0
 36 35  1  0  0  0  0
 36 32  1  0  0  0  0
 39 35  1  0  0  0  0
 41 40  3  0  0  0  0
M  END
>  <minimizedAffinity>
-5.9751153

$$$$

 OpenBabel03272507433D

 41 44  0  0  0  0  0  0  0  0999 V2000
   36.3270   26.1210   31.6670 C   0  0  0  0  0  0  0  0  0  0  0  0
   36.8170   26.5550   32.8980 C   0  0  0  0  0  0  0  0  0  0  0  0
   37.0760   27.8920   33.1400 C   0  0  0  0  0  0  0  0  0  0  0  0
   36.8320   28.7660   32.1250 N   0  0  0  0  0  0  0  0  0  0  0  0
   36.3540   28.3290   30.9260 C   0  0  0  0  0  0  0  0  0  0  0  0
   36.1140   27.0410   30.7240 N   0  0  0  0  0  0  0  0  0  0  0  0
   37.4540   28.3030   34.0640 H   0  0  0  0  0  0  0  0  0  0  0  0
   36.1500   29.0070   30.0980 H   0  0  0  0  0  0  0  0  0  0  0  0
   38.4250   25.2930   34.2690 C   0  0  0  0  0  0  0  0  0  0  0  0
   39.5110   25.3800   33.5780 O   0  0  0  0  0  0  0  0  0  0  0  0
   37.1140   25.7480   34.0020 N   0  0  0  0  0  0  0  0  0  0  0  0
   36.2520   25.5610   34.5420 H   0  0  0  0  0  0  0  0  0  0  0  0
   38.6450   24.5970   35.5370 C   0  0  0  0  0  0  0  0  0  0  0  0
   39.6060   23.6250   35.7300 C   0  0  0  0  0  0  0  0  0  0  0  0
   40.2570   23.3290   34.9210 H   0  0  0  0  0  0  0  0  0  0  0  0
   39.8300   22.9580   36.9100 C   0  0  0  0  0  3  0  0  0  0  0  0
   39.0550   23.2620   38.0000 C   0  0  0  0  0  0  0  0  0  0  0  0
   39.1880   22.7690   38.9500 H   0  0  0  0  0  0  0  0  0  0  0  0
   38.0720   24.2210   37.8930 C   0  0  0  0  0  0  0  0  0  0  0  0
   37.4560   24.4650   38.7480 H   0  0  0  0  0  0  0  0  0  0  0  0
   37.9180   24.8300   36.6870 C   0  0  0  0  0  3  0  0  0  0  0  0
   36.1370   24.7880   31.6230 O   0  0  0  0  0  0  0  0  0  0  0  0
   36.9720   22.4950   31.2270 C   0  0  0  0  0  0  0  0  0  0  0  0
   37.0380   23.8790   31.1070 C   0  0  0  0  0  0  0  0  0  0  0  0
   38.0800   24.4620   30.4140 C   0  0  0  0  0  0  0  0  0  0  0  0
   39.0630   23.6720   29.8380 C   0  0  0  0  0  0  0  0  0  0  0  0
   38.9910   22.2900   29.9630 C   0  0  0  0  0  0  0  0  0  0  0  0
   37.9430   21.7440   30.6570 C   0  0  0  0  0  0  0  0  0  0  0  0
   38.1930   25.5290   30.2810 H   0  0  0  0  0  0  0  0  0  0  0  0
   39.8930   24.1040   29.2880 H   0  0  0  0  0  0  0  0  0  0  0  0
   39.7470   21.6550   29.5210 H   0  0  0  0  0  0  0  0  0  0  0  0
   37.8780   20.2660   30.7830 C   0  0  0  0  0  0  0  0  0  0  0  0
   38.4540   19.4410   31.7240 C   0  0  0  0  0  0  0  0  0  0  0  0
   38.0920   18.1360   31.4040 C   0  0  0  0  0  0  0  0  0  0  0  0
   37.3060   18.2480   30.2710 C   0  0  0  0  0  0  0  0  0  0  0  0
   37.1950   19.5200   29.9250 O   0  0  0  0  0  0  0  0  0  0  0  0
   39.0570   19.8410   32.5230 H   0  0  0  0  0  0  0  0  0  0  0  0
   38.4180   17.3000   31.9910 H   0  0  0  0  0  0  0  0  0  0  0  0
   36.8660   17.3820   29.7720 H   0  0  0  0  0  0  0  0  0  0  0  0
   34.9770   21.5220   32.5340 N   0  0  0  0  0  0  0  0  0  0  0  0
   35.8680   21.9660   31.9560 C   0  0  0  0  0  0  0  0  0  0  0  0
  1  2  1  0  0  0  0
  2  3  2  0  0  0  0
  2 11  1  0  0  0  0
  3  7  1  0  0  0  0
  4  3  1  0  0  0  0
  5  4  2  0  0  0  0
  6  5  1  0  0  0  0
  6  1  2  0  0  0  0
  8  5  1  0  0  0  0
  9 13  1  0  0  0  0
 10  9  2  0  0  0  0
 11  9  1  0  0  0  0
 11 12  1  0  0  0  0
 13 14  2  0  0  0  0
 13 21  1  0  0  0  0
 14 16  1  0  0  0  0
 15 14  1  0  0  0  0
 16 17  2  0  0  0  0
 17 18  1  0  0  0  0
 19 17  1  0  0  0  0
 19 20  1  0  0  0  0
 21 19  2  0  0  0  0
 22  1  1  0  0  0  0
 23 41  1  0  0  0  0
 24 23  1  0  0  0  0
 24 22  1  0  0  0  0
 25 24  2  0  0  0  0
 26 27  2  0  0  0  0
 26 25  1  0  0  0  0
 27 28  1  0  0  0  0
 28 32  1  0  0  0  0
 28 23  2  0  0  0  0
 29 25  1  0  0  0  0
 30 26  1  0  0  0  0
 31 27  1  0  0  0  0
 32 33  2  0  0  0  0
 33 37  1  0  0  0  0
 34 33  1  0  0  0  0
 34 38  1  0  0  0  0
 35 34  2  0  0  0  0
 36 35  1  0  0  0  0
 36 32  1  0  0  0  0
 39 35  1  0  0  0  0
 41 40  3  0  0  0  0
M  END
>  <minimizedAffinity>
-5.77688122

$$$$

 OpenBabel03272507433D

 41 44  0  0  0  0  0  0  0  0999 V2000
   36.3440   28.5010   31.7880 C   0  0  0  0  0  0  0  0  0  0  0  0
   36.1130   29.8590   32.0060 C   0  0  0  0  0  0  0  0  0  0  0  0
   36.3690   30.8000   31.0240 C   0  0  0  0  0  0  0  0  0  0  0  0
   36.8550   30.3440   29.8370 N   0  0  0  0  0  0  0  0  0  0  0  0
   37.0770   29.0140   29.6370 C   0  0  0  0  0  0  0  0  0  0  0  0
   36.8210   28.1360   30.5970 N   0  0  0  0  0  0  0  0  0  0  0  0
   36.2160   31.8650   31.1180 H   0  0  0  0  0  0  0  0  0  0  0  0
   37.4650   28.6230   28.6990 H   0  0  0  0  0  0  0  0  0  0  0  0
   34.2680   30.3590   33.5560 C   0  0  0  0  0  0  0  0  0  0  0  0
   33.2380   29.9130   32.9200 O   0  0  0  0  0  0  0  0  0  0  0  0
   35.6290   30.4380   33.1840 N   0  0  0  0  0  0  0  0  0  0  0  0
   36.4020   30.9030   33.6900 H   0  0  0  0  0  0  0  0  0  0  0  0
   33.9090   30.8570   34.8840 C   0  0  0  0  0  0  0  0  0  0  0  0
   32.7050   30.6000   35.5070 C   0  0  0  0  0  0  0  0  0  0  0  0
   31.9510   30.0000   35.0200 H   0  0  0  0  0  0  0  0  0  0  0  0
   32.3450   31.0560   36.7530 C   0  0  0  0  0  3  0  0  0  0  0  0
   33.2340   31.8280   37.4570 C   0  0  0  0  0  0  0  0  0  0  0  0
   33.0030   32.2120   38.4380 H   0  0  0  0  0  0  0  0  0  0  0  0
   34.4590   32.1310   36.9070 C   0  0  0  0  0  0  0  0  0  0  0  0
   35.1650   32.7410   37.4560 H   0  0  0  0  0  0  0  0  0  0  0  0
   34.7320   31.6400   35.6690 C   0  0  0  0  0  3  0  0  0  0  0  0
   36.0340   27.7430   32.8580 O   0  0  0  0  0  0  0  0  0  0  0  0
   37.4570   25.8250   33.4940 C   0  0  0  0  0  0  0  0  0  0  0  0
   36.9530   27.1100   33.6690 C   0  0  0  0  0  0  0  0  0  0  0  0
   37.3760   27.8770   34.7360 C   0  0  0  0  0  0  0  0  0  0  0  0
   38.3010   27.3710   35.6350 C   0  0  0  0  0  0  0  0  0  0  0  0
   38.7990   26.0870   35.4560 C   0  0  0  0  0  0  0  0  0  0  0  0
   38.3590   25.3520   34.3860 C   0  0  0  0  0  0  0  0  0  0  0  0
   37.0260   28.8820   34.9310 H   0  0  0  0  0  0  0  0  0  0  0  0
   38.6500   27.9530   36.4830 H   0  0  0  0  0  0  0  0  0  0  0  0
   39.5220   25.6720   36.1460 H   0  0  0  0  0  0  0  0  0  0  0  0
   38.9000   23.9810   34.2050 C   0  0  0  0  0  0  0  0  0  0  0  0
   40.0910   23.5760   33.6420 C   0  0  0  0  0  0  0  0  0  0  0  0
   40.1270   22.1870   33.7120 C   0  0  0  0  0  0  0  0  0  0  0  0
   38.9390   21.8260   34.3200 C   0  0  0  0  0  0  0  0  0  0  0  0
   38.2310   22.9070   34.6020 O   0  0  0  0  0  0  0  0  0  0  0  0
   40.7950   24.2930   33.2510 H   0  0  0  0  0  0  0  0  0  0  0  0
   40.9600   21.6250   33.3370 H   0  0  0  0  0  0  0  0  0  0  0  0
   38.6700   20.7860   34.5170 H   0  0  0  0  0  0  0  0  0  0  0  0
   36.5870   24.4860   31.4740 N   0  0  0  0  0  0  0  0  0  0  0  0
   36.9750   25.0940   32.3710 C   0  0  0  0  0  0  0  0  0  0  0  0
  1  2  1  0  0  0  0
  1 22  1  0  0  0  0
  2 11  1  0  0  0  0
  3  7  1  0  0  0  0
  3  2  2  0  0  0  0
  4  3  1  0  0  0  0
  5  4  2  0  0  0  0
  5  6  1  0  0  0  0
  6  1  2  0  0  0  0
  8  5  1  0  0  0  0
  9 13  1  0  0  0  0
 10  9  2  0  0  0  0
 11  9  1  0  0  0  0
 11 12  1  0  0  0  0
 13 14  2  0  0  0  0
 13 21  1  0  0  0  0
 14 16  1  0  0  0  0
 15 14  1  0  0  0  0
 16 17  2  0  0  0  0
 17 18  1  0  0  0  0
 19 20  1  0  0  0  0
 19 17  1  0  0  0  0
 21 19  2  0  0  0  0
 22 24  1  0  0  0  0
 23 24  2  0  0  0  0
 23 28  1  0  0  0  0
 24 25  1  0  0  0  0
 25 29  1  0  0  0  0
 25 26  2  0  0  0  0
 26 30  1  0  0  0  0
 27 26  1  0  0  0  0
 27 31  1  0  0  0  0
 28 27  2  0  0  0  0
 32 28  1  0  0  0  0
 32 36  1  0  0  0  0
 33 34  1  0  0  0  0
 33 32  2  0  0  0  0
 34 35  2  0  0  0  0
 35 39  1  0  0  0  0
 35 36  1  0  0  0  0
 37 33  1  0  0  0  0
 38 34  1  0  0  0  0
 40 41  3  0  0  0  0
 41 23  1  0  0  0  0
M  END
>  <minimizedAffinity>
-5.77216911

$$$$

 OpenBabel03272507433D

 41 44  0  0  0  0  0  0  0  0999 V2000
   38.0380   25.9610   33.7320 C   0  0  0  0  0  0  0  0  0  0  0  0
   38.5920   25.7220   34.9890 C   0  0  0  0  0  0  0  0  0  0  0  0
   38.4660   26.6390   36.0190 C   0  0  0  0  0  0  0  0  0  0  0  0
   37.7780   27.7820   35.7530 N   0  0  0  0  0  0  0  0  0  0  0  0
   37.2410   28.0050   34.5190 C   0  0  0  0  0  0  0  0  0  0  0  0
   37.3780   27.1070   33.5520 N   0  0  0  0  0  0  0  0  0  0  0  0
   38.8660   26.5240   37.0150 H   0  0  0  0  0  0  0  0  0  0  0  0
   36.6870   28.9100   34.2800 H   0  0  0  0  0  0  0  0  0  0  0  0
   40.7370   24.5570   35.3020 C   0  0  0  0  0  0  0  0  0  0  0  0
   41.5860   25.3930   34.8070 O   0  0  0  0  0  0  0  0  0  0  0  0
   39.3260   24.5940   35.3700 N   0  0  0  0  0  0  0  0  0  0  0  0
   38.6840   23.8470   35.6850 H   0  0  0  0  0  0  0  0  0  0  0  0
   41.4030   23.3890   35.8800 C   0  0  0  0  0  0  0  0  0  0  0  0
   42.6670   22.9650   35.5250 C   0  0  0  0  0  0  0  0  0  0  0  0
   43.2360   23.4980   34.7780 H   0  0  0  0  0  0  0  0  0  0  0  0
   43.3130   21.8720   36.0540 C   0  0  0  0  0  3  0  0  0  0  0  0
   42.6750   21.1260   37.0120 C   0  0  0  0  0  0  0  0  0  0  0  0
   43.1350   20.2600   37.4600 H   0  0  0  0  0  0  0  0  0  0  0  0
   41.4090   21.4820   37.4230 C   0  0  0  0  0  0  0  0  0  0  0  0
   40.9000   20.8980   38.1780 H   0  0  0  0  0  0  0  0  0  0  0  0
   40.8460   22.5770   36.8470 C   0  0  0  0  0  3  0  0  0  0  0  0
   38.2650   24.9560   32.8650 O   0  0  0  0  0  0  0  0  0  0  0  0
   37.1830   22.7640   32.4980 C   0  0  0  0  0  0  0  0  0  0  0  0
   37.2880   24.1410   32.3310 C   0  0  0  0  0  0  0  0  0  0  0  0
   36.3550   24.8150   31.5700 C   0  0  0  0  0  0  0  0  0  0  0  0
   35.3130   24.1250   30.9700 C   0  0  0  0  0  0  0  0  0  0  0  0
   35.2160   22.7500   31.1410 C   0  0  0  0  0  0  0  0  0  0  0  0
   36.1580   22.1100   31.9030 C   0  0  0  0  0  0  0  0  0  0  0  0
   36.3760   25.8830   31.3980 H   0  0  0  0  0  0  0  0  0  0  0  0
   34.5660   24.6300   30.3660 H   0  0  0  0  0  0  0  0  0  0  0  0
   34.4100   22.1910   30.6820 H   0  0  0  0  0  0  0  0  0  0  0  0
   36.0420   20.6410   32.0780 C   0  0  0  0  0  0  0  0  0  0  0  0
   35.3160   19.9230   33.0040 C   0  0  0  0  0  0  0  0  0  0  0  0
   35.5410   18.5740   32.7480 C   0  0  0  0  0  0  0  0  0  0  0  0
   36.4030   18.5530   31.6660 C   0  0  0  0  0  0  0  0  0  0  0  0
   36.6830   19.7890   31.2900 O   0  0  0  0  0  0  0  0  0  0  0  0
   34.7140   20.4210   33.7480 H   0  0  0  0  0  0  0  0  0  0  0  0
   35.0840   17.8040   33.3360 H   0  0  0  0  0  0  0  0  0  0  0  0
   36.7710   17.6240   31.2250 H   0  0  0  0  0  0  0  0  0  0  0  0
   38.9760   21.6200   33.9520 N   0  0  0  0  0  0  0  0  0  0  0  0
   38.1830   22.1370   33.2970 C   0  0  0  0  0  0  0  0  0  0  0  0
  1  2  1  0  0  0  0
  2 11  1  0  0  0  0
  2  3  2  0  0  0  0
  3  7  1  0  0  0  0
  4  3  1  0  0  0  0
  5  4  2  0  0  0  0
  6  1  2  0  0  0  0
  6  5  1  0  0  0  0
  8  5  1  0  0  0  0
  9 11  1  0  0  0  0
  9 13  1  0  0  0  0
 10  9  2  0  0  0  0
 11 12  1  0  0  0  0
 13 21  1  0  0  0  0
 14 13  2  0  0  0  0
 14 16  1  0  0  0  0
 15 14  1  0  0  0  0
 16 17  2  0  0  0  0
 17 19  1  0  0  0  0
 17 18  1  0  0  0  0
 19 20  1  0  0  0  0
 21 19  2  0  0  0  0
 22  1  1  0  0  0  0
 23 41  1  0  0  0  0
 24 23  1  0  0  0  0
 24 22  1  0  0  0  0
 25 24  2  0  0  0  0
 26 27  2  0  0  0  0
 26 25  1  0  0  0  0
 27 28  1  0  0  0  0
 28 32  1  0  0  0  0
 28 23  2  0  0  0  0
 29 25  1  0  0  0  0
 30 26  1  0  0  0  0
 31 27  1  0  0  0  0
 32 33  2  0  0  0  0
 33 37  1  0  0  0  0
 34 33  1  0  0  0  0
 34 38  1  0  0  0  0
 35 34  2  0  0  0  0
 36 35  1  0  0  0  0
 36 32  1  0  0  0  0
 39 35  1  0  0  0  0
 41 40  3  0  0  0  0
M  END
>  <minimizedAffinity>
-5.76535749

$$$$

 OpenBabel03272507433D

 41 44  0  0  0  0  0  0  0  0999 V2000
   40.1720   27.0670   32.1750 C   0  0  0  0  0  0  0  0  0  0  0  0
   40.7970   26.7280   33.3740 C   0  0  0  0  0  0  0  0  0  0  0  0
   42.1440   26.9720   33.5780 C   0  0  0  0  0  0  0  0  0  0  0  0
   42.8320   27.5570   32.5600 N   0  0  0  0  0  0  0  0  0  0  0  0
   42.2090   27.8830   31.3920 C   0  0  0  0  0  0  0  0  0  0  0  0
   40.9160   27.6380   31.2250 N   0  0  0  0  0  0  0  0  0  0  0  0
   42.6960   26.7390   34.4770 H   0  0  0  0  0  0  0  0  0  0  0  0
   42.7350   28.3510   30.5620 H   0  0  0  0  0  0  0  0  0  0  0  0
   40.1420   24.7110   34.6220 C   0  0  0  0  0  0  0  0  0  0  0  0
   40.4690   23.7610   33.8120 O   0  0  0  0  0  0  0  0  0  0  0  0
   40.1950   26.1160   34.4780 N   0  0  0  0  0  0  0  0  0  0  0  0
   39.8210   26.8360   35.1190 H   0  0  0  0  0  0  0  0  0  0  0  0
   39.6370   24.1880   35.8910 C   0  0  0  0  0  0  0  0  0  0  0  0
   40.2790   23.2250   36.6420 C   0  0  0  0  0  0  0  0  0  0  0  0
   41.2150   22.8020   36.3090 H   0  0  0  0  0  0  0  0  0  0  0  0
   39.8240   22.7180   37.8370 C   0  0  0  0  0  3  0  0  0  0  0  0
   38.6420   23.1900   38.3480 C   0  0  0  0  0  0  0  0  0  0  0  0
   38.2400   22.8280   39.2800 H   0  0  0  0  0  0  0  0  0  0  0  0
   37.9380   24.1530   37.6610 C   0  0  0  0  0  0  0  0  0  0  0  0
   37.0040   24.5300   38.0580 H   0  0  0  0  0  0  0  0  0  0  0  0
   38.4600   24.5970   36.4870 C   0  0  0  0  0  3  0  0  0  0  0  0
   38.8610   26.7540   32.1650 O   0  0  0  0  0  0  0  0  0  0  0  0
   37.0270   28.2250   32.9260 C   0  0  0  0  0  0  0  0  0  0  0  0
   37.8370   27.6530   31.9510 C   0  0  0  0  0  0  0  0  0  0  0  0
   37.6500   27.9780   30.6220 C   0  0  0  0  0  0  0  0  0  0  0  0
   36.6560   28.8710   30.2560 C   0  0  0  0  0  0  0  0  0  0  0  0
   35.8500   29.4380   31.2360 C   0  0  0  0  0  0  0  0  0  0  0  0
   36.0630   29.0950   32.5450 C   0  0  0  0  0  0  0  0  0  0  0  0
   38.2430   27.5720   29.8140 H   0  0  0  0  0  0  0  0  0  0  0  0
   36.4870   29.1440   29.2190 H   0  0  0  0  0  0  0  0  0  0  0  0
   35.0680   30.1390   30.9710 H   0  0  0  0  0  0  0  0  0  0  0  0
   35.1950   29.7080   33.5820 C   0  0  0  0  0  0  0  0  0  0  0  0
   35.4240   30.8100   34.3780 C   0  0  0  0  0  0  0  0  0  0  0  0
   34.3030   30.9740   35.1860 C   0  0  0  0  0  0  0  0  0  0  0  0
   33.4480   29.9480   34.8280 C   0  0  0  0  0  0  0  0  0  0  0  0
   34.0000   29.2140   33.8760 O   0  0  0  0  0  0  0  0  0  0  0  0
   36.3420   31.3700   34.3030 H   0  0  0  0  0  0  0  0  0  0  0  0
   34.2350   31.7710   35.9000 H   0  0  0  0  0  0  0  0  0  0  0  0
   32.4700   29.8070   35.2940 H   0  0  0  0  0  0  0  0  0  0  0  0
   37.4690   27.5460   35.3710 N   0  0  0  0  0  0  0  0  0  0  0  0
   37.2790   27.8430   34.2750 C   0  0  0  0  0  0  0  0  0  0  0  0
  1  2  1  0  0  0  0
  2  3  2  0  0  0  0
  2 11  1  0  0  0  0
  3  7  1  0  0  0  0
  4  3  1  0  0  0  0
  5  4  2  0  0  0  0
  6  5  1  0  0  0  0
  6  1  2  0  0  0  0
  8  5  1  0  0  0  0
  9 13  1  0  0  0  0
 10  9  2  0  0  0  0
 11  9  1  0  0  0  0
 11 12  1  0  0  0  0
 13 21  2  0  0  0  0
 13 14  1  0  0  0  0
 14 16  2  0  0  0  0
 15 14  1  0  0  0  0
 16 17  1  0  0  0  0
 17 18  1  0  0  0  0
 19 20  1  0  0  0  0
 19 17  2  0  0  0  0
 21 19  1  0  0  0  0
 22  1  1  0  0  0  0
 23 41  1  0  0  0  0
 24 22  1  0  0  0  0
 24 23  2  0  0  0  0
 25 24  1  0  0  0  0
 26 25  2  0  0  0  0
 26 27  1  0  0  0  0
 27 28  2  0  0  0  0
 28 23  1  0  0  0  0
 28 32  1  0  0  0  0
 29 25  1  0  0  0  0
 30 26  1  0  0  0  0
 31 27  1  0  0  0  0
 32 36  1  0  0  0  0
 32 33  2  0  0  0  0
 33 34  1  0  0  0  0
 34 38  1  0  0  0  0
 35 34  2  0  0  0  0
 35 39  1  0  0  0  0
 36 35  1  0  0  0  0
 37 33  1  0  0  0  0
 41 40  3  0  0  0  0
M  END
>  <minimizedAffinity>
-5.74354744

$$$$
