
 OpenBabel03262521533D

 23 24  0  0  0  0  0  0  0  0999 V2000
   35.7510   29.4980   50.9590 C   0  0  0  0  0  0  0  0  0  0  0  0
   35.6420   30.0510   51.9090 H   0  0  0  0  0  0  0  0  0  0  0  0
   35.3120   28.4860   51.1010 H   0  0  0  0  0  0  0  0  0  0  0  0
   37.4590   29.2480   50.4510 S   0  0  0  0  0  0  0  0  0  0  0  0
   37.8990   30.5190   49.2810 C   0  0  0  0  0  0  0  0  0  0  0  0
   38.2510   31.7380   49.8750 C   0  0  0  0  0  0  0  0  0  0  0  0
   38.6070   32.7770   49.0130 C   0  0  0  0  0  0  0  0  0  0  0  0
   38.6000   32.5790   47.6620 N   0  0  0  0  0  0  0  0  0  0  0  0
   38.2470   31.3710   47.1580 C   0  0  0  0  0  0  0  0  0  0  0  0
   37.9050   30.3670   47.9560 N   0  0  0  0  0  0  0  0  0  0  0  0
   38.2610   31.9090   50.9460 H   0  0  0  0  0  0  0  0  0  0  0  0
   38.8820   33.7250   49.4580 H   0  0  0  0  0  0  0  0  0  0  0  0
   38.2220   31.1500   46.1000 H   0  0  0  0  0  0  0  0  0  0  0  0
   34.7510   30.2940   49.6580 S   0  0  0  0  0  0  0  0  0  0  0  0
   34.3900   29.1530   48.3380 C   0  0  0  0  0  0  0  0  0  0  0  0
   34.4030   29.6050   47.0360 C   0  0  0  0  0  0  0  0  0  0  0  0
   34.6280   30.6360   46.8280 H   0  0  0  0  0  0  0  0  0  0  0  0
   34.1140   28.6580   46.0870 C   0  0  0  0  0  3  0  0  0  0  0  0
   33.8230   27.3440   46.2950 C   0  0  0  0  0  0  0  0  0  0  0  0
   33.6030   26.6300   45.5270 H   0  0  0  0  0  0  0  0  0  0  0  0
   33.8400   26.9980   47.6440 C   0  0  0  0  0  0  0  0  0  0  0  0
   33.6170   25.9550   47.9220 H   0  0  0  0  0  0  0  0  0  0  0  0
   34.1100   27.8380   48.7040 C   0  0  0  0  0  3  0  0  0  0  0  0
  1  3  1  0  0  0  0
  1  2  1  0  0  0  0
  4  1  1  0  0  0  0
  5  6  1  0  0  0  0
  5  4  1  0  0  0  0
  6 11  1  0  0  0  0
  7 12  1  0  0  0  0
  7  6  2  0  0  0  0
  8  7  1  0  0  0  0
  9  8  2  0  0  0  0
  9 10  1  0  0  0  0
 10  5  2  0  0  0  0
 13  9  1  0  0  0  0
 14  1  1  0  0  0  0
 15 23  1  0  0  0  0
 15 14  1  0  0  0  0
 16 15  2  0  0  0  0
 17 16  1  0  0  0  0
 18 19  2  0  0  0  0
 18 16  1  0  0  0  0
 19 21  1  0  0  0  0
 20 19  1  0  0  0  0
 21 22  1  0  0  0  0
 21 23  2  0  0  0  0
M  END
>  <minimizedAffinity>
-4.47627687

>  <minimizedRMSD>
2.69207454

$$$$
