
 OpenBabel03272510103D

 28 30  0  0  0  0  0  0  0  0999 V2000
   36.7730   30.6550   47.9190 C   0  0  0  0  0  0  0  0  0  0  0  0
   37.9130   31.4150   47.8830 C   0  0  0  0  0  0  0  0  0  0  0  0
   38.5120   31.8660   46.7320 C   0  0  0  0  0  0  0  0  0  0  0  0
   37.9630   31.5580   45.5060 C   0  0  0  0  0  0  0  0  0  0  0  0
   36.8010   30.7850   45.5540 C   0  0  0  0  0  0  0  0  0  0  0  0
   36.2460   30.3630   46.7090 N   0  0  0  0  0  0  0  0  0  0  0  0
   38.3690   31.6730   48.8350 H   0  0  0  0  0  0  0  0  0  0  0  0
   39.4110   32.4630   46.7080 H   0  0  0  0  0  0  0  0  0  0  0  0
   36.2850   30.4840   44.6450 H   0  0  0  0  0  0  0  0  0  0  0  0
   36.8580   29.9480   50.3320 C   0  0  0  0  0  0  0  0  0  0  0  0
   36.1500   30.1860   49.1320 C   0  0  0  0  0  0  0  0  0  0  0  0
   34.7740   29.9530   49.1260 C   0  0  0  0  0  0  0  0  0  0  0  0
   34.2010   29.5050   50.2940 N   0  0  0  0  0  0  0  0  0  0  0  0
   34.9110   29.2920   51.4080 C   0  0  0  0  0  0  0  0  0  0  0  0
   36.2420   29.5090   51.4420 N   0  0  0  0  0  0  0  0  0  0  0  0
   37.9290   30.1360   50.3160 H   0  0  0  0  0  0  0  0  0  0  0  0
   34.2060   30.1190   48.2450 H   0  0  0  0  0  0  0  0  0  0  0  0
   34.3070   28.9380   52.2440 H   0  0  0  0  0  0  0  0  0  0  0  0
   38.4370   31.9300   44.2620 O   0  0  0  0  0  0  0  0  0  0  0  0
   39.1820   31.0570   43.4860 C   0  0  0  0  0  0  0  0  0  0  0  0
   40.5500   30.8660   43.4880 C   0  0  0  0  0  0  0  0  0  0  0  0
   41.0550   31.4880   44.1860 H   0  0  0  0  0  0  0  0  0  0  0  0
   41.1200   29.9400   42.6340 C   0  0  0  0  0  3  0  0  0  0  0  0
   40.3680   29.1840   41.7650 C   0  0  0  0  0  0  0  0  0  0  0  0
   40.8650   28.4740   41.1180 H   0  0  0  0  0  0  0  0  0  0  0  0
   38.9960   29.3840   41.7720 C   0  0  0  0  0  0  0  0  0  0  0  0
   38.4240   28.7760   41.0780 H   0  0  0  0  0  0  0  0  0  0  0  0
   38.3880   30.3040   42.6140 C   0  0  0  0  0  3  0  0  0  0  0  0
  1 11  1  0  0  0  0
  2  1  1  0  0  0  0
  2  7  1  0  0  0  0
  3  2  2  0  0  0  0
  4  5  2  0  0  0  0
  4  3  1  0  0  0  0
  5  6  1  0  0  0  0
  6  1  2  0  0  0  0
  8  3  1  0  0  0  0
  9  5  1  0  0  0  0
 10 15  1  0  0  0  0
 11 10  2  0  0  0  0
 12 11  1  0  0  0  0
 12 13  2  0  0  0  0
 13 14  1  0  0  0  0
 14 15  2  0  0  0  0
 14 18  1  0  0  0  0
 16 10  1  0  0  0  0
 17 12  1  0  0  0  0
 19  4  1  0  0  0  0
 20 21  1  0  0  0  0
 20 19  1  0  0  0  0
 21 22  1  0  0  0  0
 23 21  2  0  0  0  0
 24 26  2  0  0  0  0
 24 23  1  0  0  0  0
 25 24  1  0  0  0  0
 26 28  1  0  0  0  0
 27 26  1  0  0  0  0
 28 20  2  0  0  0  0
M  END
>  <minimizedAffinity>
-4.58526182

>  <minimizedRMSD>
5.03445673

$$$$
