
 OpenBabel03272503303D

 34 36  0  0  1  0  0  0  0  0999 V2000
   34.3450   29.1520   48.1200 C   0  0  0  0  0  0  0  0  0  0  0  0
   34.1190   29.9790   46.9980 C   0  0  0  0  0  0  0  0  0  0  0  0
   32.9050   29.8260   46.3280 C   0  0  0  0  0  0  0  0  0  0  0  0
   32.0550   28.8890   46.8250 N   0  0  0  0  0  0  0  0  0  0  0  0
   32.2780   28.1150   47.8820 C   0  0  0  0  0  0  0  0  0  0  0  0
   33.4540   28.2600   48.5360 N   0  0  0  0  0  0  0  0  0  0  0  0
   34.8270   30.7160   46.6340 H   0  0  0  0  0  0  0  0  0  0  0  0
   32.6620   30.4230   45.4620 H   0  0  0  0  0  0  0  0  0  0  0  0
   35.6120   29.3370   48.7860 N   0  0  0  0  0  0  0  0  0  0  0  0
   36.7750   30.0160   48.3060 C   0  0  0  0  0  0  0  0  0  0  0  0
   37.4190   30.5200   49.5930 C   0  0  2  0  0  0  0  0  0  0  0  0
   36.4640   30.1450   50.7130 C   0  0  0  0  0  0  0  0  0  0  0  0
   35.9400   28.8490   50.1050 C   0  0  0  0  0  0  0  0  0  0  0  0
   36.5260   30.8520   47.6190 H   0  0  0  0  0  0  0  0  0  0  0  0
   37.4360   29.3240   47.7510 H   0  0  0  0  0  0  0  0  0  0  0  0
   38.3540   29.9300   49.7420 H   0  0  0  0  0  0  0  0  0  0  0  0
   35.6400   30.8600   50.8390 H   0  0  0  0  0  0  0  0  0  0  0  0
   37.0400   29.9340   51.6390 H   0  0  0  0  0  0  0  0  0  0  0  0
   35.0340   28.5510   50.6500 H   0  0  0  0  0  0  0  0  0  0  0  0
   36.7210   28.0800   50.1180 H   0  0  0  0  0  0  0  0  0  0  0  0
   37.7260   31.9810   49.5450 C   0  0  0  0  0  0  0  0  0  0  0  0
   36.6630   32.6170   50.1600 F   0  0  0  0  0  0  0  0  0  0  0  0
   37.7030   32.3700   48.2260 F   0  0  0  0  0  0  0  0  0  0  0  0
   38.9150   32.3150   50.1130 F   0  0  0  0  0  0  0  0  0  0  0  0
   31.1230   26.9090   48.4460 S   0  0  0  0  0  0  0  0  0  0  0  0
   29.7000   27.6330   49.1850 C   0  0  0  0  0  0  0  0  0  0  0  0
   28.8950   28.7040   48.8820 C   0  0  0  0  0  0  0  0  0  0  0  0
   29.2350   29.1900   47.9870 H   0  0  0  0  0  0  0  0  0  0  0  0
   27.8150   29.0560   49.6570 C   0  0  0  0  0  0  0  0  0  0  0  0
   27.4770   28.3480   50.7920 C   0  0  0  0  0  0  0  0  0  0  0  0
   26.6080   28.7230   51.3160 H   0  0  0  0  0  0  0  0  0  0  0  0
   28.2550   27.2630   51.1380 C   0  0  0  0  0  0  0  0  0  0  0  0
   27.9330   26.7650   52.0280 H   0  0  0  0  0  0  0  0  0  0  0  0
   29.3530   26.9140   50.3400 C   0  0  0  0  0  0  0  0  0  0  0  0
  1  6  1  0  0  0  0
  1  9  1  0  0  0  0
  2  1  2  0  0  0  0
  3  4  2  0  0  0  0
  3  2  1  0  0  0  0
  4  5  1  0  0  0  0
  5 25  1  0  0  0  0
  5  6  2  0  0  0  0
  7  2  1  0  0  0  0
  8  3  1  0  0  0  0
  9 13  1  0  0  0  0
 10  9  1  0  0  0  0
 10 11  1  0  0  0  0
 11 16  1  1  0  0  0
 11 12  1  0  0  0  0
 12 17  1  0  0  0  0
 12 18  1  0  0  0  0
 13 20  1  0  0  0  0
 13 19  1  0  0  0  0
 13 12  1  0  0  0  0
 14 10  1  0  0  0  0
 15 10  1  0  0  0  0
 21 11  1  0  0  0  0
 21 24  1  0  0  0  0
 21 22  1  0  0  0  0
 23 21  1  0  0  0  0
 25 26  1  0  0  0  0
 26 34  1  0  0  0  0
 27 26  2  0  0  0  0
 27 29  1  0  0  0  0
 28 27  1  0  0  0  0
 29 30  2  0  0  0  0
 30 32  1  0  0  0  0
 30 31  1  0  0  0  0
 32 33  1  0  0  0  0
 34 32  2  0  0  0  0
M  END
>  <minimizedAffinity>
-6.64796209

>  <minimizedRMSD>
2.48405457

$$$$
