
     RDKit          3D

 40 42  0  0  0  0  0  0  0  0999 V2000
   36.0762   30.6899   49.0670 C   0  0  2  0  0  0  0  0  0  0  0  0
   37.0158   31.6439   49.7416 C   0  0  0  0  0  0  0  0  0  0  0  0
   38.0439   30.9464   50.6048 C   0  0  0  0  0  0  0  0  0  0  0  0
   37.3630   30.0640   51.6482 C   0  0  0  0  0  0  0  0  0  0  0  0
   36.1203   29.3771   51.1487 C   0  0  0  0  0  0  0  0  0  0  0  0
   36.1922   29.3051   49.6127 C   0  0  1  0  0  0  0  0  0  0  0  0
   36.3174   30.6481   47.6005 C   0  0  0  0  0  0  0  0  0  0  0  0
   37.5758   31.1132   47.1788 C   0  0  0  0  0  0  0  0  0  0  0  0
   37.8305   31.0807   45.8028 C   0  0  0  0  0  0  0  0  0  0  0  0
   36.8508   30.6026   44.9604 N   0  0  0  0  0  0  0  0  0  0  0  0
   35.6420   30.1607   45.4235 C   0  0  0  0  0  0  0  0  0  0  0  0
   35.3942   30.1917   46.7478 N   0  0  0  0  0  0  0  0  0  0  0  0
   33.9429   28.1796   49.2396 C   0  0  0  0  0  0  0  0  0  0  0  0
   33.1153   28.8787   49.9361 O   0  0  0  0  0  0  0  0  0  0  0  0
   35.3275   28.3551   49.0155 N   0  0  0  0  0  0  0  0  0  0  0  0
   34.9895   30.9622   49.1778 H   0  0  0  0  0  0  0  0  0  0  0  0
   37.4552   32.4176   49.1440 H   0  0  0  0  0  0  0  0  0  0  0  0
   36.3600   32.1926   50.4993 H   0  0  0  0  0  0  0  0  0  0  0  0
   38.6012   31.7200   51.1335 H   0  0  0  0  0  0  0  0  0  0  0  0
   38.7305   30.3074   50.0413 H   0  0  0  0  0  0  0  0  0  0  0  0
   38.0815   29.2779   51.9642 H   0  0  0  0  0  0  0  0  0  0  0  0
   37.1302   30.6578   52.5618 H   0  0  0  0  0  0  0  0  0  0  0  0
   35.9889   28.3671   51.5645 H   0  0  0  0  0  0  0  0  0  0  0  0
   35.2450   29.9823   51.4133 H   0  0  0  0  0  0  0  0  0  0  0  0
   37.1782   28.9259   49.4886 H   0  0  0  0  0  0  0  0  0  0  0  0
   38.4187   31.4963   47.7192 H   0  0  0  0  0  0  0  0  0  0  0  0
   38.7409   31.4019   45.3336 H   0  0  0  0  0  0  0  0  0  0  0  0
   34.9194   29.7972   44.6962 H   0  0  0  0  0  0  0  0  0  0  0  0
   35.7201   27.6736   48.3021 H   0  0  0  0  0  0  0  0  0  0  0  0
   33.1939   27.0599   48.6442 C   0  0  0  0  0  0  0  0  0  0  0  0
   32.2773   26.3150   49.3438 C   0  0  0  0  0  0  0  0  0  0  0  0
   32.0525   26.5143   50.3802 H   0  0  0  0  0  0  0  0  0  0  0  0
   31.5568   25.2551   48.8184 C   0  0  0  0  0  0  0  0  0  0  0  0
   31.7438   24.8970   47.5203 C   0  0  0  0  0  0  0  0  0  0  0  0
   31.1855   24.0717   47.1042 H   0  0  0  0  0  0  0  0  0  0  0  0
   32.6498   25.6079   46.7715 C   0  0  0  0  0  0  0  0  0  0  0  0
   32.7700   25.2924   45.7435 H   0  0  0  0  0  0  0  0  0  0  0  0
   33.3392   26.6510   47.3398 C   0  0  0  0  0  0  0  0  0  0  0  0
   30.8417   24.6910   49.4030 H   0  0  0  0  0  0  0  0  0  0  0  0
   34.0084   27.1193   46.6628 H   0  0  0  0  0  0  0  0  0  0  0  0
  1  6  1  0
  1  2  1  0
  2  3  1  0
  3  4  1  0
  5  4  1  0
  6  5  1  0
  7  1  1  0
  8  7  2  0
  9  8  1  0
 10 11  1  0
 10  9  2  0
 11 12  2  0
 12  7  1  0
 13 14  2  0
 15 13  1  0
 15  6  1  0
  1 16  1  6
  2 17  1  0
  2 18  1  0
  3 19  1  0
  3 20  1  0
  4 21  1  0
  4 22  1  0
  5 23  1  0
  5 24  1  0
  6 25  1  1
  8 26  1  0
  9 27  1  0
 11 28  1  0
 15 29  1  0
 30 31  2  0
 31 32  1  0
 31 33  1  0
 33 34  2  0
 34 35  1  0
 34 36  1  0
 36 37  1  0
 36 38  2  0
 38 30  1  0
 33 39  1  0
 38 40  1  0
 13 30  1  0
M  ISO  8  16  13  17  13  18  13  19  13  20  13  21  13  22  13  23  13
M  ISO  8  24  13  25  13  26  14  27  14  28  14  32  16  35  16  37  16
M  END
>  <DihAtoms>  (1) 
13,12,29,30

>  <DihDeg>  (1) 
1.2469060442503463

$$$$
