
 OpenBabel03272503063D

 32 34  0  0  0  0  0  0  0  0999 V2000
   40.1740   23.8970   34.7400 F   0  0  0  0  0  0  0  0  0  0  0  0
   39.6150   23.7800   35.9650 C   0  0  0  0  0  0  0  0  0  0  0  0
   40.2780   23.1150   36.9750 C   0  0  0  0  0  0  0  0  0  0  0  0
   39.6520   23.0370   38.1870 C   0  0  0  0  0  0  0  0  0  0  0  0
   38.4160   23.5830   38.4320 C   0  0  0  0  0  0  0  0  0  0  0  0
   37.7630   24.2470   37.4100 C   0  0  0  0  0  0  0  0  0  0  0  0
   38.3750   24.3440   36.1630 C   0  0  0  0  0  0  0  0  0  0  0  0
   40.1840   22.5080   38.9810 H   0  0  0  0  0  0  0  0  0  0  0  0
   37.9410   23.5080   39.3980 H   0  0  0  0  0  0  0  0  0  0  0  0
   36.7890   24.7090   37.5060 H   0  0  0  0  0  0  0  0  0  0  0  0
   43.9600   22.7710   36.1790 C   0  0  0  0  0  0  0  0  0  0  0  0
   42.7150   23.3470   36.4740 C   0  0  0  0  0  0  0  0  0  0  0  0
   41.5880   22.5520   36.6660 C   0  0  0  0  0  0  0  0  0  0  0  0
   41.7590   21.2090   36.5530 N   0  0  0  0  0  0  0  0  0  0  0  0
   42.9600   20.6650   36.2680 C   0  0  0  0  0  0  0  0  0  0  0  0
   44.0390   21.4350   36.0840 N   0  0  0  0  0  0  0  0  0  0  0  0
   44.7370   23.5210   36.0580 H   0  0  0  0  0  0  0  0  0  0  0  0
   42.5270   24.4110   36.5750 H   0  0  0  0  0  0  0  0  0  0  0  0
   43.1100   19.5980   36.1750 H   0  0  0  0  0  0  0  0  0  0  0  0
   37.9040   26.4410   35.0930 C   0  0  0  0  0  0  0  0  0  0  0  0
   38.6160   26.8780   36.0440 O   0  0  0  0  0  0  0  0  0  0  0  0
   37.7220   25.0230   35.0940 N   0  0  0  0  0  0  0  0  0  0  0  0
   37.1400   24.6290   34.3230 H   0  0  0  0  0  0  0  0  0  0  0  0
   37.3540   27.3720   34.1200 C   0  0  0  0  0  0  0  0  0  0  0  0
   37.8900   27.2850   32.8520 C   0  0  0  0  0  0  0  0  0  0  0  0
   38.6640   26.5920   32.5610 H   0  0  0  0  0  0  0  0  0  0  0  0
   37.3980   28.1570   31.8740 C   0  0  0  0  0  3  0  0  0  0  0  0
   36.3990   29.0660   32.2170 C   0  0  0  0  0  0  0  0  0  0  0  0
   36.0070   29.7480   31.4680 H   0  0  0  0  0  0  0  0  0  0  0  0
   35.8810   29.1200   33.5170 C   0  0  0  0  0  0  0  0  0  0  0  0
   35.1080   29.8150   33.7990 H   0  0  0  0  0  0  0  0  0  0  0  0
   36.3660   28.2610   34.4810 C   0  0  0  0  0  3  0  0  0  0  0  0
  1  2  1  0  0  0  0
  2  7  2  0  0  0  0
  2  3  1  0  0  0  0
  3  4  2  0  0  0  0
  4  5  1  0  0  0  0
  4  8  1  0  0  0  0
  5  9  1  0  0  0  0
  6 10  1  0  0  0  0
  6  5  2  0  0  0  0
  7  6  1  0  0  0  0
 11 12  1  0  0  0  0
 12 18  1  0  0  0  0
 12 13  2  0  0  0  0
 13  3  1  0  0  0  0
 14 13  1  0  0  0  0
 15 14  2  0  0  0  0
 16 11  2  0  0  0  0
 16 15  1  0  0  0  0
 17 11  1  0  0  0  0
 19 15  1  0  0  0  0
 20 22  1  0  0  0  0
 20 21  2  0  0  0  0
 22  7  1  0  0  0  0
 23 22  1  0  0  0  0
 24 32  1  0  0  0  0
 24 20  1  0  0  0  0
 25 24  2  0  0  0  0
 26 25  1  0  0  0  0
 27 28  2  0  0  0  0
 27 25  1  0  0  0  0
 28 30  1  0  0  0  0
 29 28  1  0  0  0  0
 30 31  1  0  0  0  0
 30 32  2  0  0  0  0
M  END
>  <minimizedAffinity>
-5.8875761

$$$$

 OpenBabel03272503063D

 32 34  0  0  0  0  0  0  0  0999 V2000
   35.9780   28.0750   34.6250 F   0  0  0  0  0  0  0  0  0  0  0  0
   36.1220   28.8150   33.5030 C   0  0  0  0  0  0  0  0  0  0  0  0
   35.6630   30.1160   33.4610 C   0  0  0  0  0  0  0  0  0  0  0  0
   35.8440   30.8030   32.2940 C   0  0  0  0  0  0  0  0  0  0  0  0
   36.4500   30.2600   31.1870 C   0  0  0  0  0  0  0  0  0  0  0  0
   36.9050   28.9550   31.2450 C   0  0  0  0  0  0  0  0  0  0  0  0
   36.7350   28.2290   32.4200 C   0  0  0  0  0  0  0  0  0  0  0  0
   35.4780   31.8310   32.2680 H   0  0  0  0  0  0  0  0  0  0  0  0
   36.5820   30.8230   30.2760 H   0  0  0  0  0  0  0  0  0  0  0  0
   37.3940   28.4420   30.4270 H   0  0  0  0  0  0  0  0  0  0  0  0
   35.0720   31.9090   36.7380 C   0  0  0  0  0  0  0  0  0  0  0  0
   35.7180   31.4140   35.5950 C   0  0  0  0  0  0  0  0  0  0  0  0
   35.0270   30.6470   34.6610 C   0  0  0  0  0  0  0  0  0  0  0  0
   33.7130   30.4080   34.9150 N   0  0  0  0  0  0  0  0  0  0  0  0
   33.1020   30.8880   36.0180 C   0  0  0  0  0  0  0  0  0  0  0  0
   33.7720   31.6250   36.9110 N   0  0  0  0  0  0  0  0  0  0  0  0
   35.7440   32.4870   37.3670 H   0  0  0  0  0  0  0  0  0  0  0  0
   36.7610   31.5770   35.3470 H   0  0  0  0  0  0  0  0  0  0  0  0
   32.0580   30.7050   36.2320 H   0  0  0  0  0  0  0  0  0  0  0  0
   36.3110   25.9160   31.9330 C   0  0  0  0  0  0  0  0  0  0  0  0
   35.2520   26.4030   31.4410 O   0  0  0  0  0  0  0  0  0  0  0  0
   37.1950   26.8820   32.5050 N   0  0  0  0  0  0  0  0  0  0  0  0
   38.0790   26.5150   32.9210 H   0  0  0  0  0  0  0  0  0  0  0  0
   36.5340   24.4800   31.8800 C   0  0  0  0  0  0  0  0  0  0  0  0
   35.5340   23.7490   31.2720 C   0  0  0  0  0  0  0  0  0  0  0  0
   34.6340   24.1720   30.8550 H   0  0  0  0  0  0  0  0  0  0  0  0
   35.6970   22.3610   31.1920 C   0  0  0  0  0  3  0  0  0  0  0  0
   36.8470   21.7820   31.7220 C   0  0  0  0  0  0  0  0  0  0  0  0
   36.9870   20.7050   31.6660 H   0  0  0  0  0  0  0  0  0  0  0  0
   37.8400   22.5610   32.3290 C   0  0  0  0  0  0  0  0  0  0  0  0
   38.7360   22.1300   32.7430 H   0  0  0  0  0  0  0  0  0  0  0  0
   37.6800   23.9280   32.4090 C   0  0  0  0  0  3  0  0  0  0  0  0
  2  1  1  0  0  0  0
  3  2  1  0  0  0  0
  3 13  1  0  0  0  0
  4  3  2  0  0  0  0
  5  6  2  0  0  0  0
  5  4  1  0  0  0  0
  6  7  1  0  0  0  0
  7 22  1  0  0  0  0
  7  2  2  0  0  0  0
  8  4  1  0  0  0  0
  9  5  1  0  0  0  0
 10  6  1  0  0  0  0
 11 16  1  0  0  0  0
 11 17  1  0  0  0  0
 12 11  2  0  0  0  0
 13 14  2  0  0  0  0
 13 12  1  0  0  0  0
 14 15  1  0  0  0  0
 15 19  1  0  0  0  0
 15 16  2  0  0  0  0
 18 12  1  0  0  0  0
 20 22  1  0  0  0  0
 21 20  2  0  0  0  0
 22 23  1  0  0  0  0
 24 20  1  0  0  0  0
 24 32  1  0  0  0  0
 25 24  2  0  0  0  0
 26 25  1  0  0  0  0
 27 25  1  0  0  0  0
 27 28  2  0  0  0  0
 28 30  1  0  0  0  0
 29 28  1  0  0  0  0
 30 32  2  0  0  0  0
 30 31  1  0  0  0  0
M  END
>  <minimizedAffinity>
-5.61017418

$$$$

 OpenBabel03272503063D

 32 34  0  0  0  0  0  0  0  0999 V2000
   36.6450   28.0720   34.9330 F   0  0  0  0  0  0  0  0  0  0  0  0
   37.1450   27.9450   33.6830 C   0  0  0  0  0  0  0  0  0  0  0  0
   36.5220   28.5600   32.6160 C   0  0  0  0  0  0  0  0  0  0  0  0
   37.0840   28.3890   31.3830 C   0  0  0  0  0  0  0  0  0  0  0  0
   38.2190   27.6440   31.1700 C   0  0  0  0  0  0  0  0  0  0  0  0
   38.8320   27.0350   32.2490 C   0  0  0  0  0  0  0  0  0  0  0  0
   38.2840   27.1910   33.5190 C   0  0  0  0  0  0  0  0  0  0  0  0
   36.5850   28.8770   30.5440 H   0  0  0  0  0  0  0  0  0  0  0  0
   38.6450   27.5230   30.1860 H   0  0  0  0  0  0  0  0  0  0  0  0
   39.7270   26.4310   32.1810 H   0  0  0  0  0  0  0  0  0  0  0  0
   34.1940   31.3530   33.6590 C   0  0  0  0  0  0  0  0  0  0  0  0
   35.3710   30.6330   33.4050 C   0  0  0  0  0  0  0  0  0  0  0  0
   35.3200   29.3390   32.8930 C   0  0  0  0  0  0  0  0  0  0  0  0
   34.0860   28.8210   32.6570 N   0  0  0  0  0  0  0  0  0  0  0  0
   32.9600   29.5210   32.9050 C   0  0  0  0  0  0  0  0  0  0  0  0
   33.0160   30.7640   33.3970 N   0  0  0  0  0  0  0  0  0  0  0  0
   34.4000   32.3430   34.0550 H   0  0  0  0  0  0  0  0  0  0  0  0
   36.3770   31.0010   33.5760 H   0  0  0  0  0  0  0  0  0  0  0  0
   31.9730   29.1210   32.7220 H   0  0  0  0  0  0  0  0  0  0  0  0
   38.5140   25.2120   34.8600 C   0  0  0  0  0  0  0  0  0  0  0  0
   37.6860   24.7630   34.0140 O   0  0  0  0  0  0  0  0  0  0  0  0
   38.8970   26.5720   34.6470 N   0  0  0  0  0  0  0  0  0  0  0  0
   39.5790   26.9750   35.3260 H   0  0  0  0  0  0  0  0  0  0  0  0
   38.9890   24.3480   35.9290 C   0  0  0  0  0  0  0  0  0  0  0  0
   40.1820   23.7000   35.6780 C   0  0  0  0  0  0  0  0  0  0  0  0
   40.7520   23.7980   34.7680 H   0  0  0  0  0  0  0  0  0  0  0  0
   40.6870   22.8550   36.6730 C   0  0  0  0  0  3  0  0  0  0  0  0
   39.9750   22.7060   37.8610 C   0  0  0  0  0  0  0  0  0  0  0  0
   40.3560   22.0540   38.6430 H   0  0  0  0  0  0  0  0  0  0  0  0
   38.7690   23.3830   38.0760 C   0  0  0  0  0  0  0  0  0  0  0  0
   38.2060   23.2810   38.9880 H   0  0  0  0  0  0  0  0  0  0  0  0
   38.2700   24.2160   37.0950 C   0  0  0  0  0  3  0  0  0  0  0  0
  2  1  1  0  0  0  0
  3 13  1  0  0  0  0
  3  2  2  0  0  0  0
  4  3  1  0  0  0  0
  5  4  2  0  0  0  0
  5  6  1  0  0  0  0
  6  7  2  0  0  0  0
  7  2  1  0  0  0  0
  7 22  1  0  0  0  0
  8  4  1  0  0  0  0
  9  5  1  0  0  0  0
 10  6  1  0  0  0  0
 11 17  1  0  0  0  0
 12 18  1  0  0  0  0
 12 11  1  0  0  0  0
 13 12  2  0  0  0  0
 14 13  1  0  0  0  0
 14 15  2  0  0  0  0
 15 16  1  0  0  0  0
 16 11  2  0  0  0  0
 19 15  1  0  0  0  0
 20 24  1  0  0  0  0
 21 20  2  0  0  0  0
 22 20  1  0  0  0  0
 22 23  1  0  0  0  0
 24 32  1  0  0  0  0
 25 24  2  0  0  0  0
 25 27  1  0  0  0  0
 26 25  1  0  0  0  0
 27 28  2  0  0  0  0
 28 30  1  0  0  0  0
 28 29  1  0  0  0  0
 30 31  1  0  0  0  0
 32 30  2  0  0  0  0
M  END
>  <minimizedAffinity>
-5.40765715

$$$$

 OpenBabel03272503063D

 32 34  0  0  0  0  0  0  0  0999 V2000
   36.3440   27.1290   35.1290 F   0  0  0  0  0  0  0  0  0  0  0  0
   36.7430   27.4740   33.8830 C   0  0  0  0  0  0  0  0  0  0  0  0
   36.2960   28.6440   33.3060 C   0  0  0  0  0  0  0  0  0  0  0  0
   36.7420   28.9280   32.0460 C   0  0  0  0  0  0  0  0  0  0  0  0
   37.5970   28.1100   31.3490 C   0  0  0  0  0  0  0  0  0  0  0  0
   38.0370   26.9400   31.9400 C   0  0  0  0  0  0  0  0  0  0  0  0
   37.6010   26.6240   33.2240 C   0  0  0  0  0  0  0  0  0  0  0  0
   36.3830   29.8560   31.5960 H   0  0  0  0  0  0  0  0  0  0  0  0
   37.9360   28.3560   30.3540 H   0  0  0  0  0  0  0  0  0  0  0  0
   38.7100   26.2350   31.4720 H   0  0  0  0  0  0  0  0  0  0  0  0
   34.9420   31.2710   35.6680 C   0  0  0  0  0  0  0  0  0  0  0  0
   35.8440   30.4870   34.9330 C   0  0  0  0  0  0  0  0  0  0  0  0
   35.3890   29.4790   34.0870 C   0  0  0  0  0  0  0  0  0  0  0  0
   34.0440   29.2990   34.0150 N   0  0  0  0  0  0  0  0  0  0  0  0
   33.1850   30.0580   34.7270 C   0  0  0  0  0  0  0  0  0  0  0  0
   33.6290   31.0250   35.5370 N   0  0  0  0  0  0  0  0  0  0  0  0
   35.4500   32.0120   36.2780 H   0  0  0  0  0  0  0  0  0  0  0  0
   36.9240   30.5910   34.9540 H   0  0  0  0  0  0  0  0  0  0  0  0
   32.1130   29.9250   34.6790 H   0  0  0  0  0  0  0  0  0  0  0  0
   39.1470   25.5910   34.7450 C   0  0  0  0  0  0  0  0  0  0  0  0
   39.5690   26.7810   34.8350 O   0  0  0  0  0  0  0  0  0  0  0  0
   38.0400   25.4240   33.8550 N   0  0  0  0  0  0  0  0  0  0  0  0
   37.6660   24.4550   33.7560 H   0  0  0  0  0  0  0  0  0  0  0  0
   39.7880   24.5390   35.5170 C   0  0  0  0  0  0  0  0  0  0  0  0
   39.0020   23.9590   36.4920 C   0  0  0  0  0  0  0  0  0  0  0  0
   37.9800   24.2380   36.7000 H   0  0  0  0  0  0  0  0  0  0  0  0
   39.5680   22.9400   37.2660 C   0  0  0  0  0  3  0  0  0  0  0  0
   40.8850   22.5570   37.0240 C   0  0  0  0  0  0  0  0  0  0  0  0
   41.3370   21.7670   37.6170 H   0  0  0  0  0  0  0  0  0  0  0  0
   41.6480   23.1710   36.0240 C   0  0  0  0  0  0  0  0  0  0  0  0
   42.6670   22.8870   35.8220 H   0  0  0  0  0  0  0  0  0  0  0  0
   41.0910   24.1750   35.2600 C   0  0  0  0  0  3  0  0  0  0  0  0
  2  1  1  0  0  0  0
  3  2  1  0  0  0  0
  3 13  1  0  0  0  0
  4  3  2  0  0  0  0
  5  6  2  0  0  0  0
  5  4  1  0  0  0  0
  6  7  1  0  0  0  0
  7 22  1  0  0  0  0
  7  2  2  0  0  0  0
  8  4  1  0  0  0  0
  9  5  1  0  0  0  0
 10  6  1  0  0  0  0
 11 17  1  0  0  0  0
 12 18  1  0  0  0  0
 12 11  2  0  0  0  0
 13 12  1  0  0  0  0
 14 13  2  0  0  0  0
 14 15  1  0  0  0  0
 15 16  2  0  0  0  0
 16 11  1  0  0  0  0
 19 15  1  0  0  0  0
 20 21  2  0  0  0  0
 20 24  1  0  0  0  0
 22 20  1  0  0  0  0
 23 22  1  0  0  0  0
 24 25  1  0  0  0  0
 25 26  1  0  0  0  0
 25 27  2  0  0  0  0
 28 27  1  0  0  0  0
 28 29  1  0  0  0  0
 30 28  2  0  0  0  0
 31 30  1  0  0  0  0
 32 24  2  0  0  0  0
 32 30  1  0  0  0  0
M  END
>  <minimizedAffinity>
-5.36256599

$$$$

 OpenBabel03272503063D

 32 34  0  0  0  0  0  0  0  0999 V2000
   36.2590   27.1610   33.5010 F   0  0  0  0  0  0  0  0  0  0  0  0
   36.4050   27.8810   32.3660 C   0  0  0  0  0  0  0  0  0  0  0  0
   36.6880   27.2510   31.1710 C   0  0  0  0  0  0  0  0  0  0  0  0
   36.8220   28.0430   30.0660 C   0  0  0  0  0  0  0  0  0  0  0  0
   36.6900   29.4100   30.0990 C   0  0  0  0  0  0  0  0  0  0  0  0
   36.4060   30.0260   31.3030 C   0  0  0  0  0  0  0  0  0  0  0  0
   36.2630   29.2470   32.4480 C   0  0  0  0  0  0  0  0  0  0  0  0
   37.0460   27.5380   29.1240 H   0  0  0  0  0  0  0  0  0  0  0  0
   36.8000   30.0140   29.2120 H   0  0  0  0  0  0  0  0  0  0  0  0
   36.2830   31.0940   31.4290 H   0  0  0  0  0  0  0  0  0  0  0  0
   35.8840   23.5550   31.1230 C   0  0  0  0  0  0  0  0  0  0  0  0
   35.7200   24.9490   31.1060 C   0  0  0  0  0  0  0  0  0  0  0  0
   36.8200   25.7990   31.1880 C   0  0  0  0  0  0  0  0  0  0  0  0
   38.0420   25.2120   31.2860 N   0  0  0  0  0  0  0  0  0  0  0  0
   38.1890   23.8710   31.3030 C   0  0  0  0  0  0  0  0  0  0  0  0
   37.1270   23.0600   31.2230 N   0  0  0  0  0  0  0  0  0  0  0  0
   34.9350   23.0320   31.0520 H   0  0  0  0  0  0  0  0  0  0  0  0
   34.7680   25.4640   31.0290 H   0  0  0  0  0  0  0  0  0  0  0  0
   39.1550   23.3920   31.3800 H   0  0  0  0  0  0  0  0  0  0  0  0
   34.5760   29.9820   33.9910 C   0  0  0  0  0  0  0  0  0  0  0  0
   33.8130   29.5300   33.0880 O   0  0  0  0  0  0  0  0  0  0  0  0
   35.9710   29.8590   33.7010 N   0  0  0  0  0  0  0  0  0  0  0  0
   36.6290   30.2220   34.4240 H   0  0  0  0  0  0  0  0  0  0  0  0
   34.0020   30.5620   35.1950 C   0  0  0  0  0  0  0  0  0  0  0  0
   34.8010   31.4760   35.8490 C   0  0  0  0  0  0  0  0  0  0  0  0
   35.7890   31.7680   35.5260 H   0  0  0  0  0  0  0  0  0  0  0  0
   34.2990   32.0670   37.0140 C   0  0  0  0  0  3  0  0  0  0  0  0
   33.0280   31.7120   37.4590 C   0  0  0  0  0  0  0  0  0  0  0  0
   32.6240   32.1640   38.3620 H   0  0  0  0  0  0  0  0  0  0  0  0
   32.2480   30.7800   36.7640 C   0  0  0  0  0  0  0  0  0  0  0  0
   31.2630   30.4950   37.0930 H   0  0  0  0  0  0  0  0  0  0  0  0
   32.7430   30.1970   35.6160 C   0  0  0  0  0  3  0  0  0  0  0  0
  2  7  1  0  0  0  0
  2  1  1  0  0  0  0
  3 13  1  0  0  0  0
  3  2  2  0  0  0  0
  4  5  2  0  0  0  0
  4  3  1  0  0  0  0
  5  6  1  0  0  0  0
  6 10  1  0  0  0  0
  6  7  2  0  0  0  0
  7 22  1  0  0  0  0
  8  4  1  0  0  0  0
  9  5  1  0  0  0  0
 11 16  1  0  0  0  0
 12 11  2  0  0  0  0
 12 13  1  0  0  0  0
 13 14  2  0  0  0  0
 14 15  1  0  0  0  0
 15 19  1  0  0  0  0
 16 15  2  0  0  0  0
 17 11  1  0  0  0  0
 18 12  1  0  0  0  0
 20 24  1  0  0  0  0
 21 20  2  0  0  0  0
 22 20  1  0  0  0  0
 22 23  1  0  0  0  0
 24 32  2  0  0  0  0
 24 25  1  0  0  0  0
 25 27  2  0  0  0  0
 26 25  1  0  0  0  0
 27 28  1  0  0  0  0
 28 29  1  0  0  0  0
 30 31  1  0  0  0  0
 30 28  2  0  0  0  0
 32 30  1  0  0  0  0
M  END
>  <minimizedAffinity>
-5.26261139

$$$$

 OpenBabel03272503063D

 32 34  0  0  0  0  0  0  0  0999 V2000
   35.5020   23.9240   31.8160 F   0  0  0  0  0  0  0  0  0  0  0  0
   36.7360   23.7510   31.2910 C   0  0  0  0  0  0  0  0  0  0  0  0
   37.3250   22.5040   31.2860 C   0  0  0  0  0  0  0  0  0  0  0  0
   38.5730   22.4050   30.7380 C   0  0  0  0  0  0  0  0  0  0  0  0
   39.2470   23.4770   30.2060 C   0  0  0  0  0  0  0  0  0  0  0  0
   38.6440   24.7210   30.2180 C   0  0  0  0  0  0  0  0  0  0  0  0
   37.3720   24.8540   30.7690 C   0  0  0  0  0  0  0  0  0  0  0  0
   39.0330   21.4150   30.7390 H   0  0  0  0  0  0  0  0  0  0  0  0
   40.2330   23.3740   29.7790 H   0  0  0  0  0  0  0  0  0  0  0  0
   39.0940   25.6220   29.8220 H   0  0  0  0  0  0  0  0  0  0  0  0
   35.5790   20.2250   33.7500 C   0  0  0  0  0  0  0  0  0  0  0  0
   36.3110   21.3030   33.2290 C   0  0  0  0  0  0  0  0  0  0  0  0
   36.5690   21.3980   31.8640 C   0  0  0  0  0  0  0  0  0  0  0  0
   36.0800   20.4040   31.0770 N   0  0  0  0  0  0  0  0  0  0  0  0
   35.3780   19.3710   31.5870 C   0  0  0  0  0  0  0  0  0  0  0  0
   35.1340   19.2860   32.9000 N   0  0  0  0  0  0  0  0  0  0  0  0
   35.4630   20.2940   34.8270 H   0  0  0  0  0  0  0  0  0  0  0  0
   36.7210   22.1200   33.8130 H   0  0  0  0  0  0  0  0  0  0  0  0
   34.9840   18.5740   30.9720 H   0  0  0  0  0  0  0  0  0  0  0  0
   36.9790   26.8950   31.9710 C   0  0  0  0  0  0  0  0  0  0  0  0
   37.7320   26.3290   32.8150 O   0  0  0  0  0  0  0  0  0  0  0  0
   36.7290   26.1260   30.7920 N   0  0  0  0  0  0  0  0  0  0  0  0
   36.1120   26.5620   30.0740 H   0  0  0  0  0  0  0  0  0  0  0  0
   36.4540   28.2220   32.2510 C   0  0  0  0  0  0  0  0  0  0  0  0
   36.3520   29.0600   31.1600 C   0  0  0  0  0  0  0  0  0  0  0  0
   36.6330   28.7910   30.1540 H   0  0  0  0  0  0  0  0  0  0  0  0
   35.8520   30.3500   31.3720 C   0  0  0  0  0  3  0  0  0  0  0  0
   35.4810   30.7300   32.6600 C   0  0  0  0  0  0  0  0  0  0  0  0
   35.0900   31.7280   32.8380 H   0  0  0  0  0  0  0  0  0  0  0  0
   35.5980   29.8470   33.7400 C   0  0  0  0  0  0  0  0  0  0  0  0
   35.3150   30.1230   34.7420 H   0  0  0  0  0  0  0  0  0  0  0  0
   36.0920   28.5760   33.5320 C   0  0  0  0  0  3  0  0  0  0  0  0
  2  1  1  0  0  0  0
  3  2  1  0  0  0  0
  3 13  1  0  0  0  0
  4  8  1  0  0  0  0
  4  3  2  0  0  0  0
  5  6  2  0  0  0  0
  5  4  1  0  0  0  0
  6  7  1  0  0  0  0
  7 22  1  0  0  0  0
  7  2  2  0  0  0  0
  9  5  1  0  0  0  0
 10  6  1  0  0  0  0
 11 17  1  0  0  0  0
 12 11  1  0  0  0  0
 12 18  1  0  0  0  0
 13 12  2  0  0  0  0
 14 15  2  0  0  0  0
 14 13  1  0  0  0  0
 15 16  1  0  0  0  0
 16 11  2  0  0  0  0
 19 15  1  0  0  0  0
 20 24  1  0  0  0  0
 20 21  2  0  0  0  0
 22 20  1  0  0  0  0
 23 22  1  0  0  0  0
 24 32  1  0  0  0  0
 25 27  1  0  0  0  0
 25 24  2  0  0  0  0
 26 25  1  0  0  0  0
 27 28  2  0  0  0  0
 28 29  1  0  0  0  0
 28 30  1  0  0  0  0
 30 31  1  0  0  0  0
 32 30  2  0  0  0  0
M  END
>  <minimizedAffinity>
-5.16747189

$$$$

 OpenBabel03272503063D

 32 34  0  0  0  0  0  0  0  0999 V2000
   38.9160   25.3850   34.3340 F   0  0  0  0  0  0  0  0  0  0  0  0
   38.3860   24.2920   33.7400 C   0  0  0  0  0  0  0  0  0  0  0  0
   38.1360   23.1510   34.4740 C   0  0  0  0  0  0  0  0  0  0  0  0
   37.5990   22.0860   33.8070 C   0  0  0  0  0  0  0  0  0  0  0  0
   37.3070   22.1080   32.4650 C   0  0  0  0  0  0  0  0  0  0  0  0
   37.5630   23.2600   31.7430 C   0  0  0  0  0  0  0  0  0  0  0  0
   38.1100   24.3620   32.3950 C   0  0  0  0  0  0  0  0  0  0  0  0
   37.4050   21.1860   34.3950 H   0  0  0  0  0  0  0  0  0  0  0  0
   36.8830   21.2540   31.9600 H   0  0  0  0  0  0  0  0  0  0  0  0
   37.3670   23.3730   30.6850 H   0  0  0  0  0  0  0  0  0  0  0  0
   39.9530   22.7330   37.7650 C   0  0  0  0  0  0  0  0  0  0  0  0
   39.6710   22.6910   36.3920 C   0  0  0  0  0  0  0  0  0  0  0  0
   38.4640   23.1760   35.8950 C   0  0  0  0  0  0  0  0  0  0  0  0
   37.5880   23.6840   36.8020 N   0  0  0  0  0  0  0  0  0  0  0  0
   37.8690   23.7190   38.1210 C   0  0  0  0  0  0  0  0  0  0  0  0
   39.0310   23.2510   38.5910 N   0  0  0  0  0  0  0  0  0  0  0  0
   40.9310   22.3180   37.9930 H   0  0  0  0  0  0  0  0  0  0  0  0
   40.3350   22.2970   35.6300 H   0  0  0  0  0  0  0  0  0  0  0  0
   37.1810   24.1200   38.8530 H   0  0  0  0  0  0  0  0  0  0  0  0
   37.2980   26.4900   31.6330 C   0  0  0  0  0  0  0  0  0  0  0  0
   36.2590   26.1070   32.2460 O   0  0  0  0  0  0  0  0  0  0  0  0
   38.3830   25.5600   31.6720 N   0  0  0  0  0  0  0  0  0  0  0  0
   39.2560   25.8430   31.1760 H   0  0  0  0  0  0  0  0  0  0  0  0
   37.3070   27.7850   30.9720 C   0  0  0  0  0  0  0  0  0  0  0  0
   36.2500   28.6150   31.2850 C   0  0  0  0  0  0  0  0  0  0  0  0
   35.4520   28.3600   31.9650 H   0  0  0  0  0  0  0  0  0  0  0  0
   36.2080   29.8750   30.6770 C   0  0  0  0  0  3  0  0  0  0  0  0
   37.2220   30.2360   29.7930 C   0  0  0  0  0  0  0  0  0  0  0  0
   37.2020   31.2120   29.3150 H   0  0  0  0  0  0  0  0  0  0  0  0
   38.2780   29.3640   29.5050 C   0  0  0  0  0  0  0  0  0  0  0  0
   39.0710   29.6270   28.8250 H   0  0  0  0  0  0  0  0  0  0  0  0
   38.3210   28.1220   30.1030 C   0  0  0  0  0  3  0  0  0  0  0  0
  2  1  1  0  0  0  0
  2  3  1  0  0  0  0
  3 13  1  0  0  0  0
  4  8  1  0  0  0  0
  4  3  2  0  0  0  0
  5  4  1  0  0  0  0
  6  7  1  0  0  0  0
  6  5  2  0  0  0  0
  7  2  2  0  0  0  0
  9  5  1  0  0  0  0
 10  6  1  0  0  0  0
 11 17  1  0  0  0  0
 11 16  1  0  0  0  0
 12 11  2  0  0  0  0
 13 12  1  0  0  0  0
 13 14  2  0  0  0  0
 14 15  1  0  0  0  0
 15 16  2  0  0  0  0
 15 19  1  0  0  0  0
 18 12  1  0  0  0  0
 20 22  1  0  0  0  0
 20 21  2  0  0  0  0
 22  7  1  0  0  0  0
 23 22  1  0  0  0  0
 24 25  1  0  0  0  0
 24 20  1  0  0  0  0
 25 26  1  0  0  0  0
 27 25  2  0  0  0  0
 28 27  1  0  0  0  0
 29 28  1  0  0  0  0
 30 28  2  0  0  0  0
 30 32  1  0  0  0  0
 31 30  1  0  0  0  0
 32 24  2  0  0  0  0
M  END
>  <minimizedAffinity>
-5.14411116

$$$$

 OpenBabel03272503063D

 32 34  0  0  0  0  0  0  0  0999 V2000
   40.1650   26.5890   32.4930 F   0  0  0  0  0  0  0  0  0  0  0  0
   38.9480   27.1650   32.3740 C   0  0  0  0  0  0  0  0  0  0  0  0
   38.5340   27.6790   31.1620 C   0  0  0  0  0  0  0  0  0  0  0  0
   37.2910   28.2460   31.1170 C   0  0  0  0  0  0  0  0  0  0  0  0
   36.4590   28.3230   32.2070 C   0  0  0  0  0  0  0  0  0  0  0  0
   36.8880   27.8030   33.4150 C   0  0  0  0  0  0  0  0  0  0  0  0
   38.1490   27.2180   33.4920 C   0  0  0  0  0  0  0  0  0  0  0  0
   36.9710   28.6510   30.1550 H   0  0  0  0  0  0  0  0  0  0  0  0
   35.4820   28.7750   32.1470 H   0  0  0  0  0  0  0  0  0  0  0  0
   36.3050   27.8160   34.3260 H   0  0  0  0  0  0  0  0  0  0  0  0
   41.1970   28.4660   28.5930 C   0  0  0  0  0  0  0  0  0  0  0  0
   40.3250   28.6020   29.6840 C   0  0  0  0  0  0  0  0  0  0  0  0
   39.4530   27.5740   30.0340 C   0  0  0  0  0  0  0  0  0  0  0  0
   39.4930   26.4500   29.2720 N   0  0  0  0  0  0  0  0  0  0  0  0
   40.3350   26.3290   28.2240 C   0  0  0  0  0  0  0  0  0  0  0  0
   41.1700   27.3210   27.8940 N   0  0  0  0  0  0  0  0  0  0  0  0
   41.8110   29.3510   28.4490 H   0  0  0  0  0  0  0  0  0  0  0  0
   40.2550   29.4770   30.3220 H   0  0  0  0  0  0  0  0  0  0  0  0
   40.3770   25.4400   27.6100 H   0  0  0  0  0  0  0  0  0  0  0  0
   38.3510   25.2810   34.8970 C   0  0  0  0  0  0  0  0  0  0  0  0
   37.7430   24.7400   33.9270 O   0  0  0  0  0  0  0  0  0  0  0  0
   38.6130   26.6760   34.7260 N   0  0  0  0  0  0  0  0  0  0  0  0
   39.1130   27.1540   35.5070 H   0  0  0  0  0  0  0  0  0  0  0  0
   38.7170   24.4790   36.0530 C   0  0  0  0  0  0  0  0  0  0  0  0
   37.9310   24.6610   37.1720 C   0  0  0  0  0  0  0  0  0  0  0  0
   37.0950   25.3420   37.2290 H   0  0  0  0  0  0  0  0  0  0  0  0
   38.2380   23.9140   38.3150 C   0  0  0  0  0  3  0  0  0  0  0  0
   39.3100   23.0270   38.2770 C   0  0  0  0  0  0  0  0  0  0  0  0
   39.5590   22.4390   39.1560 H   0  0  0  0  0  0  0  0  0  0  0  0
   40.0830   22.8700   37.1200 C   0  0  0  0  0  0  0  0  0  0  0  0
   40.9150   22.1880   37.0710 H   0  0  0  0  0  0  0  0  0  0  0  0
   39.7810   23.6060   35.9930 C   0  0  0  0  0  3  0  0  0  0  0  0
  2  1  1  0  0  0  0
  2  7  1  0  0  0  0
  3  2  2  0  0  0  0
  4  3  1  0  0  0  0
  4  5  2  0  0  0  0
  5  6  1  0  0  0  0
  6  7  2  0  0  0  0
  6 10  1  0  0  0  0
  7 22  1  0  0  0  0
  8  4  1  0  0  0  0
  9  5  1  0  0  0  0
 11 12  1  0  0  0  0
 12 13  2  0  0  0  0
 12 18  1  0  0  0  0
 13  3  1  0  0  0  0
 14 13  1  0  0  0  0
 15 14  2  0  0  0  0
 16 15  1  0  0  0  0
 16 11  2  0  0  0  0
 17 11  1  0  0  0  0
 19 15  1  0  0  0  0
 20 24  1  0  0  0  0
 21 20  2  0  0  0  0
 22 20  1  0  0  0  0
 22 23  1  0  0  0  0
 24 25  1  0  0  0  0
 25 26  1  0  0  0  0
 25 27  2  0  0  0  0
 28 27  1  0  0  0  0
 28 29  1  0  0  0  0
 30 28  2  0  0  0  0
 31 30  1  0  0  0  0
 32 24  2  0  0  0  0
 32 30  1  0  0  0  0
M  END
>  <minimizedAffinity>
-5.07183695

$$$$

 OpenBabel03272503063D

 32 34  0  0  0  0  0  0  0  0999 V2000
   37.0720   27.6770   35.2980 F   0  0  0  0  0  0  0  0  0  0  0  0
   36.9510   27.8760   33.9660 C   0  0  0  0  0  0  0  0  0  0  0  0
   37.8680   27.3300   33.0920 C   0  0  0  0  0  0  0  0  0  0  0  0
   37.6810   27.5730   31.7600 C   0  0  0  0  0  0  0  0  0  0  0  0
   36.6400   28.3230   31.2710 C   0  0  0  0  0  0  0  0  0  0  0  0
   35.7280   28.8630   32.1600 C   0  0  0  0  0  0  0  0  0  0  0  0
   35.8910   28.6340   33.5230 C   0  0  0  0  0  0  0  0  0  0  0  0
   38.4120   27.1380   31.0750 H   0  0  0  0  0  0  0  0  0  0  0  0
   36.5130   28.5010   30.2150 H   0  0  0  0  0  0  0  0  0  0  0  0
   34.8770   29.4660   31.8710 H   0  0  0  0  0  0  0  0  0  0  0  0
   39.9230   24.4420   34.4120 C   0  0  0  0  0  0  0  0  0  0  0  0
   38.8550   25.1690   33.8640 C   0  0  0  0  0  0  0  0  0  0  0  0
   38.9560   26.5420   33.6610 C   0  0  0  0  0  0  0  0  0  0  0  0
   40.1280   27.1310   34.0180 N   0  0  0  0  0  0  0  0  0  0  0  0
   41.1490   26.4230   34.5450 C   0  0  0  0  0  0  0  0  0  0  0  0
   41.0450   25.1030   34.7380 N   0  0  0  0  0  0  0  0  0  0  0  0
   39.6910   23.3860   34.5080 H   0  0  0  0  0  0  0  0  0  0  0  0
   37.9020   24.7470   33.5630 H   0  0  0  0  0  0  0  0  0  0  0  0
   42.0860   26.8790   34.8330 H   0  0  0  0  0  0  0  0  0  0  0  0
   35.2440   30.5250   34.8550 C   0  0  0  0  0  0  0  0  0  0  0  0
   36.2740   31.0260   34.3150 O   0  0  0  0  0  0  0  0  0  0  0  0
   34.9650   29.1800   34.4580 N   0  0  0  0  0  0  0  0  0  0  0  0
   34.1230   28.7350   34.8850 H   0  0  0  0  0  0  0  0  0  0  0  0
   34.4630   31.3200   35.7890 C   0  0  0  0  0  0  0  0  0  0  0  0
   35.0970   32.4400   36.2850 C   0  0  0  0  0  0  0  0  0  0  0  0
   36.1010   32.7390   36.0270 H   0  0  0  0  0  0  0  0  0  0  0  0
   34.3920   33.2430   37.1890 C   0  0  0  0  0  3  0  0  0  0  0  0
   33.0940   32.8840   37.5450 C   0  0  0  0  0  0  0  0  0  0  0  0
   32.5340   33.4990   38.2440 H   0  0  0  0  0  0  0  0  0  0  0  0
   32.4860   31.7390   37.0160 C   0  0  0  0  0  0  0  0  0  0  0  0
   31.4830   31.4470   37.2790 H   0  0  0  0  0  0  0  0  0  0  0  0
   33.1810   30.9470   36.1260 C   0  0  0  0  0  3  0  0  0  0  0  0
  2  1  1  0  0  0  0
  3 13  1  0  0  0  0
  3  2  2  0  0  0  0
  4  3  1  0  0  0  0
  5  4  2  0  0  0  0
  5  6  1  0  0  0  0
  6  7  2  0  0  0  0
  7  2  1  0  0  0  0
  7 22  1  0  0  0  0
  8  4  1  0  0  0  0
  9  5  1  0  0  0  0
 10  6  1  0  0  0  0
 11 17  1  0  0  0  0
 11 16  1  0  0  0  0
 12 11  2  0  0  0  0
 13 12  1  0  0  0  0
 13 14  2  0  0  0  0
 14 15  1  0  0  0  0
 15 16  2  0  0  0  0
 15 19  1  0  0  0  0
 18 12  1  0  0  0  0
 20 24  1  0  0  0  0
 21 20  2  0  0  0  0
 22 20  1  0  0  0  0
 22 23  1  0  0  0  0
 24 32  2  0  0  0  0
 24 25  1  0  0  0  0
 25 27  2  0  0  0  0
 26 25  1  0  0  0  0
 27 28  1  0  0  0  0
 28 29  1  0  0  0  0
 30 31  1  0  0  0  0
 30 28  2  0  0  0  0
 32 30  1  0  0  0  0
M  END
>  <minimizedAffinity>
-5.05774879

$$$$
