REMARK  Name = 
REMARK  3 active torsions:
REMARK  status: ('A' for Active; 'I' for Inactive)
REMARK    1  A    between atoms: C_1  and  C_7
REMARK    2  A    between atoms: C_6  and  N_15
REMARK    3  A    between atoms: C_13  and  C_30
REMARK                            x       y       z     vdW  Elec       q    Type
REMARK                         _______ _______ _______ _____ _____    ______ ____
ROOT
ATOM      1  C   UNL     1      36.076  30.690  49.067  0.00  0.00    +0.000 C 
ATOM      2  C   UNL     1      37.016  31.644  49.742  0.00  0.00    +0.000 C 
ATOM      3  C   UNL     1      38.044  30.946  50.605  0.00  0.00    +0.000 C 
ATOM      4  C   UNL     1      37.363  30.064  51.648  0.00  0.00    +0.000 C 
ATOM      5  C   UNL     1      36.120  29.377  51.149  0.00  0.00    +0.000 C 
ATOM      6  C   UNL     1      36.192  29.305  49.613  0.00  0.00    +0.000 C 
ATOM      7  H   UNL     1      34.989  30.962  49.178  0.00  0.00    +0.000 HD
ATOM      8  H   UNL     1      37.455  32.418  49.144  0.00  0.00    +0.000 HD
ATOM      9  H   UNL     1      36.360  32.193  50.499  0.00  0.00    +0.000 HD
ATOM     10  H   UNL     1      38.601  31.720  51.133  0.00  0.00    +0.000 HD
ATOM     11  H   UNL     1      38.730  30.307  50.041  0.00  0.00    +0.000 HD
ATOM     12  H   UNL     1      38.081  29.278  51.964  0.00  0.00    +0.000 HD
ATOM     13  H   UNL     1      37.130  30.658  52.562  0.00  0.00    +0.000 HD
ATOM     14  H   UNL     1      35.989  28.367  51.565  0.00  0.00    +0.000 HD
ATOM     15  H   UNL     1      35.245  29.982  51.413  0.00  0.00    +0.000 HD
ATOM     16  H   UNL     1      37.178  28.926  49.489  0.00  0.00    +0.000 HD
ENDROOT
BRANCH   1  17
ATOM     17  C   UNL     1      36.317  30.648  47.600  0.00  0.00    +0.000 A 
ATOM     18  C   UNL     1      37.576  31.113  47.179  0.00  0.00    +0.000 A 
ATOM     19  C   UNL     1      37.831  31.081  45.803  0.00  0.00    +0.000 A 
ATOM     20  N   UNL     1      36.851  30.603  44.960  0.00  0.00    +0.000 NA
ATOM     21  C   UNL     1      35.642  30.161  45.423  0.00  0.00    +0.000 A 
ATOM     22  N   UNL     1      35.394  30.192  46.748  0.00  0.00    +0.000 NA
ATOM     23  H   UNL     1      38.419  31.496  47.719  0.00  0.00    +0.000 HD
ATOM     24  H   UNL     1      38.741  31.402  45.334  0.00  0.00    +0.000 HD
ATOM     25  H   UNL     1      34.919  29.797  44.696  0.00  0.00    +0.000 HD
ENDBRANCH   1  17
BRANCH   6  28
ATOM     26  C   UNL     1      33.943  28.180  49.240  0.00  0.00    +0.000 C 
ATOM     27  O   UNL     1      33.115  28.879  49.936  0.00  0.00    +0.000 OA
ATOM     28  N   UNL     1      35.328  28.355  49.016  0.00  0.00    +0.000 N 
ATOM     29  H   UNL     1      35.720  27.674  48.302  0.00  0.00    +0.000 HD
BRANCH  26  30
ATOM     30  C   UNL     1      33.194  27.060  48.644  0.00  0.00    +0.000 A 
ATOM     31  C   UNL     1      32.277  26.315  49.344  0.00  0.00    +0.000 A 
ATOM     32  H   UNL     1      32.053  26.514  50.380  0.00  0.00    +0.000 HD
ATOM     33  C   UNL     1      31.557  25.255  48.818  0.00  0.00    +0.000 A 
ATOM     34  C   UNL     1      31.744  24.897  47.520  0.00  0.00    +0.000 A 
ATOM     35  H   UNL     1      31.186  24.072  47.104  0.00  0.00    +0.000 HD
ATOM     36  C   UNL     1      32.650  25.608  46.772  0.00  0.00    +0.000 A 
ATOM     37  H   UNL     1      32.770  25.292  45.743  0.00  0.00    +0.000 HD
ATOM     38  C   UNL     1      33.339  26.651  47.340  0.00  0.00    +0.000 A 
ENDBRANCH  26  30
ENDBRANCH   6  28
TORSDOF 3
