
 OpenBabel03262523413D

 38 40  0  0  1  0  0  0  0  0999 V2000
   36.9630   29.1920   50.6980 C   0  0  0  0  0  0  0  0  0  0  0  0
   36.5450   29.0830   49.3760 C   0  0  0  0  0  0  0  0  0  0  0  0
   35.2230   29.1730   48.9980 C   0  0  0  0  0  0  0  0  0  0  0  0
   34.3630   29.3760   50.0190 N   0  0  0  0  0  0  0  0  0  0  0  0
   34.7270   29.4870   51.3080 C   0  0  0  0  0  0  0  0  0  0  0  0
   36.0320   29.3940   51.6390 N   0  0  0  0  0  0  0  0  0  0  0  0
   34.8070   29.0620   47.6650 N   0  0  0  0  0  0  0  0  0  0  0  0
   34.1540   27.8410   47.2900 C   0  0  0  0  0  0  0  0  0  0  0  0
   33.7470   27.7480   45.8650 C   0  0  0  0  0  0  0  0  0  0  0  0
   33.7430   28.9260   45.1150 N   0  0  0  0  0  0  0  0  0  0  0  0
   34.7630   29.8700   45.3460 C   0  0  0  0  0  0  0  0  0  0  0  0
   35.0610   30.1730   46.7790 C   0  0  2  0  0  0  0  0  0  0  0  0
   37.9930   29.1230   50.9930 H   0  0  0  0  0  0  0  0  0  0  0  0
   37.3530   28.9190   48.6860 H   0  0  0  0  0  0  0  0  0  0  0  0
   33.9370   29.6490   52.0330 H   0  0  0  0  0  0  0  0  0  0  0  0
   33.2640   27.7480   47.9670 H   0  0  0  0  0  0  0  0  0  0  0  0
   34.8170   27.0060   47.6040 H   0  0  0  0  0  0  0  0  0  0  0  0
   34.4360   27.0260   45.3650 H   0  0  0  0  0  0  0  0  0  0  0  0
   32.7430   27.2700   45.8090 H   0  0  0  0  0  0  0  0  0  0  0  0
   32.7820   29.3220   45.0110 H   0  0  0  0  0  0  0  0  0  0  0  0
   34.4970   30.7880   44.8190 H   0  0  0  0  0  0  0  0  0  0  0  0
   35.6830   29.4500   44.8480 H   0  0  0  0  0  0  0  0  0  0  0  0
   34.4570   31.0240   47.1560 H   0  0  0  0  0  0  0  0  0  0  0  0
   36.5030   30.6360   46.8040 C   0  0  0  0  0  0  0  0  0  0  0  0
   36.6330   31.5590   47.3470 H   0  0  0  0  0  0  0  0  0  0  0  0
   37.0740   29.7570   47.2220 H   0  0  0  0  0  0  0  0  0  0  0  0
   36.9530   30.7000   45.3510 C   0  0  0  0  0  0  0  0  0  0  0  0
   37.0700   29.7260   44.8650 H   0  0  0  0  0  0  0  0  0  0  0  0
   36.3450   31.3570   44.7310 H   0  0  0  0  0  0  0  0  0  0  0  0
   38.3470   31.2900   45.2880 C   0  0  0  0  0  0  0  0  0  0  0  0
   39.4850   30.6190   45.6640 C   0  0  0  0  0  0  0  0  0  0  0  0
   39.3850   29.6190   46.0250 H   0  0  0  0  0  0  0  0  0  0  0  0
   40.7090   31.2470   45.5670 C   0  0  0  0  0  0  0  0  0  0  0  0
   40.8300   32.5550   45.0940 C   0  0  0  0  0  0  0  0  0  0  0  0
   41.7970   33.0390   45.0230 H   0  0  0  0  0  0  0  0  0  0  0  0
   39.7090   33.2520   44.7110 C   0  0  0  0  0  0  0  0  0  0  0  0
   39.7130   34.2720   44.3320 H   0  0  0  0  0  0  0  0  0  0  0  0
   38.5140   32.5790   44.8270 C   0  0  0  0  0  0  0  0  0  0  0  0
  1 13  1  0  0  0  0
  1  6  1  0  0  0  0
  2  1  2  0  0  0  0
  3  2  1  0  0  0  0
  3  4  2  0  0  0  0
  4  5  1  0  0  0  0
  5  6  2  0  0  0  0
  5 15  1  0  0  0  0
  7  3  1  0  0  0  0
  8 17  1  0  0  0  0
  8  7  1  0  0  0  0
  8 16  1  0  0  0  0
  9  8  1  0  0  0  0
 10 11  1  0  0  0  0
 10  9  1  0  0  0  0
 11 12  1  0  0  0  0
 12 24  1  0  0  0  0
 12 23  1  1  0  0  0
 12  7  1  0  0  0  0
 14  2  1  0  0  0  0
 18  9  1  0  0  0  0
 19  9  1  0  0  0  0
 20 10  1  0  0  0  0
 21 11  1  0  0  0  0
 22 11  1  0  0  0  0
 24 26  1  0  0  0  0
 24 25  1  0  0  0  0
 27 24  1  0  0  0  0
 28 27  1  0  0  0  0
 29 27  1  0  0  0  0
 30 27  1  0  0  0  0
 30 31  1  0  0  0  0
 31 32  1  0  0  0  0
 33 31  2  0  0  0  0
 34 33  1  0  0  0  0
 35 34  1  0  0  0  0
 36 38  1  0  0  0  0
 36 34  2  0  0  0  0
 37 36  1  0  0  0  0
 38 30  2  0  0  0  0
M  END
>  <minimizedAffinity>
-5.15696526

>  <minimizedRMSD>
5.48203945

$$$$
