
 OpenBabel03272506413D

 19 20  0  0  0  0  0  0  0  0999 V2000
   38.7450   23.4620   34.0770 S   0  0  0  0  0  0  0  0  0  0  0  0
   35.8540   20.8050   33.6490 C   0  0  0  0  0  0  0  0  0  0  0  0
   35.2430   21.1340   32.4310 C   0  0  0  0  0  0  0  0  0  0  0  0
   35.7380   22.2220   31.7020 C   0  0  0  0  0  0  0  0  0  0  0  0
   36.7970   22.9110   32.2190 N   0  0  0  0  0  0  0  0  0  0  0  0
   37.3590   22.5710   33.3870 C   0  0  0  0  0  0  0  0  0  0  0  0
   36.9030   21.5340   34.1000 N   0  0  0  0  0  0  0  0  0  0  0  0
   35.5200   19.9770   34.2580 H   0  0  0  0  0  0  0  0  0  0  0  0
   34.4060   20.5270   32.1010 H   0  0  0  0  0  0  0  0  0  0  0  0
   35.2750   22.4800   30.7680 H   0  0  0  0  0  0  0  0  0  0  0  0
   38.6730   23.5570   35.8570 C   0  0  0  0  0  0  0  0  0  0  0  0
   37.7670   24.2310   36.6400 C   0  0  0  0  0  0  0  0  0  0  0  0
   37.0140   24.7630   36.0630 H   0  0  0  0  0  0  0  0  0  0  0  0
   37.8810   24.1810   38.0150 C   0  0  0  0  0  3  0  0  0  0  0  0
   38.8970   23.4610   38.6070 C   0  0  0  0  0  0  0  0  0  0  0  0
   38.9860   23.4210   39.6750 H   0  0  0  0  0  0  0  0  0  0  0  0
   39.8140   22.7780   37.8430 C   0  0  0  0  0  0  0  0  0  0  0  0
   40.6080   22.2160   38.3460 H   0  0  0  0  0  0  0  0  0  0  0  0
   39.7000   22.8290   36.4560 C   0  0  0  0  0  3  0  0  0  0  0  0
  1 11  1  0  0  0  0
  2  7  1  0  0  0  0
  2  8  1  0  0  0  0
  3  2  2  0  0  0  0
  4  5  2  0  0  0  0
  4  3  1  0  0  0  0
  5  6  1  0  0  0  0
  6  1  1  0  0  0  0
  6  7  2  0  0  0  0
  9  3  1  0  0  0  0
 10  4  1  0  0  0  0
 11 19  2  0  0  0  0
 11 12  1  0  0  0  0
 12 14  2  0  0  0  0
 13 12  1  0  0  0  0
 14 15  1  0  0  0  0
 15 16  1  0  0  0  0
 17 18  1  0  0  0  0
 17 15  2  0  0  0  0
 19 17  1  0  0  0  0
M  END
>  <minimizedAffinity>
-4.21019983

$$$$

 OpenBabel03272506413D

 19 20  0  0  0  0  0  0  0  0999 V2000
   38.7240   23.5170   34.0370 S   0  0  0  0  0  0  0  0  0  0  0  0
   35.7890   22.2350   31.7250 C   0  0  0  0  0  0  0  0  0  0  0  0
   35.2530   21.1330   32.4050 C   0  0  0  0  0  0  0  0  0  0  0  0
   35.8140   20.7620   33.6330 C   0  0  0  0  0  0  0  0  0  0  0  0
   36.8640   21.4970   34.1060 N   0  0  0  0  0  0  0  0  0  0  0  0
   37.3530   22.5460   33.4300 C   0  0  0  0  0  0  0  0  0  0  0  0
   36.8310   22.9190   32.2560 N   0  0  0  0  0  0  0  0  0  0  0  0
   35.4010   22.5730   30.7740 H   0  0  0  0  0  0  0  0  0  0  0  0
   34.4180   20.6100   31.9490 H   0  0  0  0  0  0  0  0  0  0  0  0
   35.4090   19.9190   34.1590 H   0  0  0  0  0  0  0  0  0  0  0  0
   38.9010   23.4080   35.8080 C   0  0  0  0  0  0  0  0  0  0  0  0
   39.8540   22.7310   36.5320 C   0  0  0  0  0  0  0  0  0  0  0  0
   40.5730   22.2070   35.9070 H   0  0  0  0  0  0  0  0  0  0  0  0
   39.8210   22.7690   37.9110 C   0  0  0  0  0  3  0  0  0  0  0  0
   38.8390   23.4810   38.5680 C   0  0  0  0  0  0  0  0  0  0  0  0
   38.8140   23.5120   39.6390 H   0  0  0  0  0  0  0  0  0  0  0  0
   37.8770   24.1670   37.8650 C   0  0  0  0  0  0  0  0  0  0  0  0
   37.1130   24.7230   38.4190 H   0  0  0  0  0  0  0  0  0  0  0  0
   37.9090   24.1280   36.4730 C   0  0  0  0  0  3  0  0  0  0  0  0
  1 11  1  0  0  0  0
  2  7  2  0  0  0  0
  2  3  1  0  0  0  0
  3  4  2  0  0  0  0
  4  5  1  0  0  0  0
  4 10  1  0  0  0  0
  6  1  1  0  0  0  0
  6  5  2  0  0  0  0
  7  6  1  0  0  0  0
  8  2  1  0  0  0  0
  9  3  1  0  0  0  0
 11 19  2  0  0  0  0
 11 12  1  0  0  0  0
 12 14  2  0  0  0  0
 13 12  1  0  0  0  0
 14 15  1  0  0  0  0
 15 16  1  0  0  0  0
 17 18  1  0  0  0  0
 17 15  2  0  0  0  0
 19 17  1  0  0  0  0
M  END
>  <minimizedAffinity>
-4.16751766

$$$$

 OpenBabel03272506413D

 19 20  0  0  0  0  0  0  0  0999 V2000
   38.9420   24.8360   34.1190 S   0  0  0  0  0  0  0  0  0  0  0  0
   35.9390   24.5270   31.5710 C   0  0  0  0  0  0  0  0  0  0  0  0
   35.6720   23.1530   31.4980 C   0  0  0  0  0  0  0  0  0  0  0  0
   36.4470   22.2750   32.2640 C   0  0  0  0  0  0  0  0  0  0  0  0
   37.4300   22.8070   33.0490 N   0  0  0  0  0  0  0  0  0  0  0  0
   37.6600   24.1260   33.0970 C   0  0  0  0  0  0  0  0  0  0  0  0
   36.9310   24.9840   32.3740 N   0  0  0  0  0  0  0  0  0  0  0  0
   35.3760   25.2560   31.0060 H   0  0  0  0  0  0  0  0  0  0  0  0
   34.8690   22.8250   30.8450 H   0  0  0  0  0  0  0  0  0  0  0  0
   36.2490   21.2210   32.2120 H   0  0  0  0  0  0  0  0  0  0  0  0
   38.8080   24.3290   35.8240 C   0  0  0  0  0  0  0  0  0  0  0  0
   37.9190   24.7650   36.7780 C   0  0  0  0  0  0  0  0  0  0  0  0
   37.2260   25.5150   36.4060 H   0  0  0  0  0  0  0  0  0  0  0  0
   37.9780   24.2450   38.0550 C   0  0  0  0  0  3  0  0  0  0  0  0
   38.9200   23.2930   38.3810 C   0  0  0  0  0  0  0  0  0  0  0  0
   38.9660   22.8890   39.3730 H   0  0  0  0  0  0  0  0  0  0  0  0
   39.8190   22.8420   37.4430 C   0  0  0  0  0  0  0  0  0  0  0  0
   40.5540   22.0850   37.7360 H   0  0  0  0  0  0  0  0  0  0  0  0
   39.7610   23.3670   36.1540 C   0  0  0  0  0  3  0  0  0  0  0  0
  1 11  1  0  0  0  0
  2  7  1  0  0  0  0
  3  2  2  0  0  0  0
  3  4  1  0  0  0  0
  4  5  2  0  0  0  0
  5  6  1  0  0  0  0
  6  1  1  0  0  0  0
  7  6  2  0  0  0  0
  8  2  1  0  0  0  0
  9  3  1  0  0  0  0
 10  4  1  0  0  0  0
 11 19  2  0  0  0  0
 11 12  1  0  0  0  0
 12 14  2  0  0  0  0
 13 12  1  0  0  0  0
 14 15  1  0  0  0  0
 15 16  1  0  0  0  0
 17 18  1  0  0  0  0
 17 15  2  0  0  0  0
 19 17  1  0  0  0  0
M  END
>  <minimizedAffinity>
-4.15807581

$$$$

 OpenBabel03272506413D

 19 20  0  0  0  0  0  0  0  0999 V2000
   38.3970   23.3030   33.8700 S   0  0  0  0  0  0  0  0  0  0  0  0
   37.9290   23.9050   37.7460 C   0  0  0  0  0  0  0  0  0  0  0  0
   39.0370   23.2850   38.3400 C   0  0  0  0  0  0  0  0  0  0  0  0
   39.9750   22.6510   37.5180 C   0  0  0  0  0  0  0  0  0  0  0  0
   39.7600   22.6690   36.1690 N   0  0  0  0  0  0  0  0  0  0  0  0
   38.6910   23.2710   35.6320 C   0  0  0  0  0  0  0  0  0  0  0  0
   37.7820   23.8840   36.3990 N   0  0  0  0  0  0  0  0  0  0  0  0
   37.1700   24.4120   38.3250 H   0  0  0  0  0  0  0  0  0  0  0  0
   39.1220   23.3230   39.4220 H   0  0  0  0  0  0  0  0  0  0  0  0
   40.8250   22.1730   37.9660 H   0  0  0  0  0  0  0  0  0  0  0  0
   37.0820   22.2000   33.3810 C   0  0  0  0  0  0  0  0  0  0  0  0
   36.5400   21.1520   34.0870 C   0  0  0  0  0  0  0  0  0  0  0  0
   36.9980   21.0100   35.0620 H   0  0  0  0  0  0  0  0  0  0  0  0
   35.5180   20.4100   33.5310 C   0  0  0  0  0  3  0  0  0  0  0  0
   35.0370   20.7120   32.2740 C   0  0  0  0  0  0  0  0  0  0  0  0
   34.2430   20.1360   31.8420 H   0  0  0  0  0  0  0  0  0  0  0  0
   35.5640   21.7560   31.5500 C   0  0  0  0  0  0  0  0  0  0  0  0
   35.1580   21.9680   30.5550 H   0  0  0  0  0  0  0  0  0  0  0  0
   36.5960   22.5050   32.1110 C   0  0  0  0  0  3  0  0  0  0  0  0
  1  6  1  0  0  0  0
  2  8  1  0  0  0  0
  2  3  1  0  0  0  0
  3  9  1  0  0  0  0
  4 10  1  0  0  0  0
  4  3  2  0  0  0  0
  5  4  1  0  0  0  0
  6  5  2  0  0  0  0
  6  7  1  0  0  0  0
  7  2  2  0  0  0  0
 11  1  1  0  0  0  0
 11 12  1  0  0  0  0
 12 13  1  0  0  0  0
 14 12  2  0  0  0  0
 15 14  1  0  0  0  0
 16 15  1  0  0  0  0
 17 19  1  0  0  0  0
 17 15  2  0  0  0  0
 18 17  1  0  0  0  0
 19 11  2  0  0  0  0
M  END
>  <minimizedAffinity>
-4.13393354

$$$$

 OpenBabel03272506413D

 19 20  0  0  0  0  0  0  0  0999 V2000
   38.2100   23.3730   34.2470 S   0  0  0  0  0  0  0  0  0  0  0  0
   38.7140   27.1440   33.1820 C   0  0  0  0  0  0  0  0  0  0  0  0
   37.6470   27.4170   32.3160 C   0  0  0  0  0  0  0  0  0  0  0  0
   36.7260   26.3990   32.0410 C   0  0  0  0  0  0  0  0  0  0  0  0
   36.9170   25.1850   32.6360 N   0  0  0  0  0  0  0  0  0  0  0  0
   37.9480   24.9560   33.4610 C   0  0  0  0  0  0  0  0  0  0  0  0
   38.8400   25.9140   33.7380 N   0  0  0  0  0  0  0  0  0  0  0  0
   39.4580   27.8860   33.4350 H   0  0  0  0  0  0  0  0  0  0  0  0
   37.5790   28.4130   31.8900 H   0  0  0  0  0  0  0  0  0  0  0  0
   35.9060   26.6010   31.3780 H   0  0  0  0  0  0  0  0  0  0  0  0
   38.3990   23.5170   36.0150 C   0  0  0  0  0  0  0  0  0  0  0  0
   37.6390   24.2450   36.8990 C   0  0  0  0  0  0  0  0  0  0  0  0
   36.8280   24.7890   36.4190 H   0  0  0  0  0  0  0  0  0  0  0  0
   37.9490   24.2270   38.2430 C   0  0  0  0  0  3  0  0  0  0  0  0
   39.0150   23.4860   38.7060 C   0  0  0  0  0  0  0  0  0  0  0  0
   39.2560   23.4710   39.7500 H   0  0  0  0  0  0  0  0  0  0  0  0
   39.7900   22.7500   37.8400 C   0  0  0  0  0  0  0  0  0  0  0  0
   40.6290   22.1720   38.2420 H   0  0  0  0  0  0  0  0  0  0  0  0
   39.4780   22.7680   36.4830 C   0  0  0  0  0  3  0  0  0  0  0  0
  1 11  1  0  0  0  0
  2  8  1  0  0  0  0
  2  7  1  0  0  0  0
  3  2  2  0  0  0  0
  4  3  1  0  0  0  0
  4  5  2  0  0  0  0
  5  6  1  0  0  0  0
  6  7  2  0  0  0  0
  6  1  1  0  0  0  0
  9  3  1  0  0  0  0
 10  4  1  0  0  0  0
 11 19  2  0  0  0  0
 11 12  1  0  0  0  0
 12 14  2  0  0  0  0
 13 12  1  0  0  0  0
 14 15  1  0  0  0  0
 15 16  1  0  0  0  0
 17 18  1  0  0  0  0
 17 15  2  0  0  0  0
 19 17  1  0  0  0  0
M  END
>  <minimizedAffinity>
-3.98871517

$$$$

 OpenBabel03272506413D

 19 20  0  0  0  0  0  0  0  0999 V2000
   38.8900   24.8890   34.1240 S   0  0  0  0  0  0  0  0  0  0  0  0
   37.9210   24.2440   37.8980 C   0  0  0  0  0  0  0  0  0  0  0  0
   38.8500   23.2970   38.3490 C   0  0  0  0  0  0  0  0  0  0  0  0
   39.8230   22.8310   37.4580 C   0  0  0  0  0  0  0  0  0  0  0  0
   39.8150   23.3260   36.1850 N   0  0  0  0  0  0  0  0  0  0  0  0
   38.9120   24.2310   35.7840 C   0  0  0  0  0  0  0  0  0  0  0  0
   37.9740   24.6920   36.6200 N   0  0  0  0  0  0  0  0  0  0  0  0
   37.1460   24.6440   38.5370 H   0  0  0  0  0  0  0  0  0  0  0  0
   38.7760   22.9630   39.3800 H   0  0  0  0  0  0  0  0  0  0  0  0
   40.5380   22.1050   37.7960 H   0  0  0  0  0  0  0  0  0  0  0  0
   37.6670   24.0940   33.0960 C   0  0  0  0  0  0  0  0  0  0  0  0
   37.4040   22.7510   32.9640 C   0  0  0  0  0  0  0  0  0  0  0  0
   38.0460   22.1270   33.5810 H   0  0  0  0  0  0  0  0  0  0  0  0
   36.4060   22.3310   32.1090 C   0  0  0  0  0  3  0  0  0  0  0  0
   35.6710   23.2470   31.3860 C   0  0  0  0  0  0  0  0  0  0  0  0
   34.8960   22.9200   30.7220 H   0  0  0  0  0  0  0  0  0  0  0  0
   35.9160   24.5940   31.5030 C   0  0  0  0  0  0  0  0  0  0  0  0
   35.3130   25.2950   30.9150 H   0  0  0  0  0  0  0  0  0  0  0  0
   36.9240   25.0200   32.3660 C   0  0  0  0  0  3  0  0  0  0  0  0
  1  6  1  0  0  0  0
  2  3  1  0  0  0  0
  2  8  1  0  0  0  0
  3  9  1  0  0  0  0
  4 10  1  0  0  0  0
  4  3  2  0  0  0  0
  5  4  1  0  0  0  0
  6  5  2  0  0  0  0
  6  7  1  0  0  0  0
  7  2  2  0  0  0  0
 11  1  1  0  0  0  0
 12 11  1  0  0  0  0
 12 13  1  0  0  0  0
 14 12  2  0  0  0  0
 15 17  2  0  0  0  0
 15 14  1  0  0  0  0
 16 15  1  0  0  0  0
 17 19  1  0  0  0  0
 18 17  1  0  0  0  0
 19 11  2  0  0  0  0
M  END
>  <minimizedAffinity>
-3.94744253

$$$$

 OpenBabel03272506413D

 19 20  0  0  0  0  0  0  0  0999 V2000
   38.7510   22.6460   35.4040 S   0  0  0  0  0  0  0  0  0  0  0  0
   36.5880   22.4040   32.1080 C   0  0  0  0  0  0  0  0  0  0  0  0
   35.6210   21.4290   32.3860 C   0  0  0  0  0  0  0  0  0  0  0  0
   35.6270   20.8140   33.6430 C   0  0  0  0  0  0  0  0  0  0  0  0
   36.5840   21.1970   34.5390 N   0  0  0  0  0  0  0  0  0  0  0  0
   37.4950   22.1330   34.2420 C   0  0  0  0  0  0  0  0  0  0  0  0
   37.5070   22.7360   33.0470 N   0  0  0  0  0  0  0  0  0  0  0  0
   36.6360   22.9170   31.1570 H   0  0  0  0  0  0  0  0  0  0  0  0
   34.9010   21.1900   31.6090 H   0  0  0  0  0  0  0  0  0  0  0  0
   34.8900   20.0650   33.8630 H   0  0  0  0  0  0  0  0  0  0  0  0
   39.0490   24.4050   35.3480 C   0  0  0  0  0  0  0  0  0  0  0  0
   40.0820   25.0770   34.7400 C   0  0  0  0  0  0  0  0  0  0  0  0
   40.7860   24.4170   34.2390 H   0  0  0  0  0  0  0  0  0  0  0  0
   40.1360   26.4550   34.8100 C   0  0  0  0  0  3  0  0  0  0  0  0
   39.1640   27.1600   35.4870 C   0  0  0  0  0  0  0  0  0  0  0  0
   39.2060   28.2300   35.5420 H   0  0  0  0  0  0  0  0  0  0  0  0
   38.1220   26.5080   36.1030 C   0  0  0  0  0  0  0  0  0  0  0  0
   37.3660   27.1000   36.6310 H   0  0  0  0  0  0  0  0  0  0  0  0
   38.0660   25.1180   36.0330 C   0  0  0  0  0  3  0  0  0  0  0  0
  2  3  2  0  0  0  0
  2  7  1  0  0  0  0
  3  4  1  0  0  0  0
  4 10  1  0  0  0  0
  4  5  2  0  0  0  0
  6  5  1  0  0  0  0
  6  1  1  0  0  0  0
  7  6  2  0  0  0  0
  8  2  1  0  0  0  0
  9  3  1  0  0  0  0
 11  1  1  0  0  0  0
 11 19  1  0  0  0  0
 12 14  1  0  0  0  0
 12 11  2  0  0  0  0
 13 12  1  0  0  0  0
 14 15  2  0  0  0  0
 15 16  1  0  0  0  0
 15 17  1  0  0  0  0
 17 18  1  0  0  0  0
 19 17  2  0  0  0  0
M  END
>  <minimizedAffinity>
-3.90278196

$$$$

 OpenBabel03272506413D

 19 20  0  0  0  0  0  0  0  0999 V2000
   33.7310   29.4740   33.3740 S   0  0  0  0  0  0  0  0  0  0  0  0
   36.3000   30.0590   30.4310 C   0  0  0  0  0  0  0  0  0  0  0  0
   36.8870   28.8060   30.2150 C   0  0  0  0  0  0  0  0  0  0  0  0
   36.4790   27.7260   31.0060 C   0  0  0  0  0  0  0  0  0  0  0  0
   35.5240   27.9520   31.9550 N   0  0  0  0  0  0  0  0  0  0  0  0
   34.9820   29.1630   32.1370 C   0  0  0  0  0  0  0  0  0  0  0  0
   35.3560   30.2100   31.3920 N   0  0  0  0  0  0  0  0  0  0  0  0
   36.5700   30.9320   29.8540 H   0  0  0  0  0  0  0  0  0  0  0  0
   37.6400   28.7240   29.4360 H   0  0  0  0  0  0  0  0  0  0  0  0
   36.9250   26.7620   30.8460 H   0  0  0  0  0  0  0  0  0  0  0  0
   34.3350   30.4930   34.7080 C   0  0  0  0  0  0  0  0  0  0  0  0
   35.6160   30.9400   34.9290 C   0  0  0  0  0  0  0  0  0  0  0  0
   36.3220   30.6090   34.1710 H   0  0  0  0  0  0  0  0  0  0  0  0
   35.8850   31.7270   36.0300 C   0  0  0  0  0  3  0  0  0  0  0  0
   34.8800   32.0670   36.9110 C   0  0  0  0  0  0  0  0  0  0  0  0
   35.0890   32.6790   37.7660 H   0  0  0  0  0  0  0  0  0  0  0  0
   33.5910   31.6320   36.7100 C   0  0  0  0  0  0  0  0  0  0  0  0
   32.8170   31.9210   37.4280 H   0  0  0  0  0  0  0  0  0  0  0  0
   33.3190   30.8370   35.5980 C   0  0  0  0  0  3  0  0  0  0  0  0
  1 11  1  0  0  0  0
  2  7  1  0  0  0  0
  3  2  2  0  0  0  0
  3  4  1  0  0  0  0
  4  5  2  0  0  0  0
  5  6  1  0  0  0  0
  6  1  1  0  0  0  0
  7  6  2  0  0  0  0
  8  2  1  0  0  0  0
  9  3  1  0  0  0  0
 10  4  1  0  0  0  0
 11 12  2  0  0  0  0
 11 19  1  0  0  0  0
 12 14  1  0  0  0  0
 13 12  1  0  0  0  0
 14 15  2  0  0  0  0
 15 16  1  0  0  0  0
 17 15  1  0  0  0  0
 17 18  1  0  0  0  0
 19 17  2  0  0  0  0
M  END
>  <minimizedAffinity>
-3.84999633

$$$$

 OpenBabel03272506413D

 19 20  0  0  0  0  0  0  0  0999 V2000
   38.7720   23.4950   33.5740 S   0  0  0  0  0  0  0  0  0  0  0  0
   38.8820   26.7770   35.7680 C   0  0  0  0  0  0  0  0  0  0  0  0
   37.8130   27.5550   35.3030 C   0  0  0  0  0  0  0  0  0  0  0  0
   37.0170   27.0530   34.2670 C   0  0  0  0  0  0  0  0  0  0  0  0
   37.3260   25.8240   33.7590 N   0  0  0  0  0  0  0  0  0  0  0  0
   38.3560   25.1050   34.2270 C   0  0  0  0  0  0  0  0  0  0  0  0
   39.1300   25.5640   35.2170 N   0  0  0  0  0  0  0  0  0  0  0  0
   39.5330   27.1080   36.5650 H   0  0  0  0  0  0  0  0  0  0  0  0
   37.6460   28.5210   35.7690 H   0  0  0  0  0  0  0  0  0  0  0  0
   36.1970   27.6430   33.9050 H   0  0  0  0  0  0  0  0  0  0  0  0
   37.3350   22.5990   33.0120 C   0  0  0  0  0  0  0  0  0  0  0  0
   36.6050   22.7890   31.8630 C   0  0  0  0  0  0  0  0  0  0  0  0
   36.9830   23.6000   31.2450 H   0  0  0  0  0  0  0  0  0  0  0  0
   35.5140   21.9840   31.6050 C   0  0  0  0  0  3  0  0  0  0  0  0
   35.1520   20.9910   32.4900 C   0  0  0  0  0  0  0  0  0  0  0  0
   34.3060   20.3650   32.2890 H   0  0  0  0  0  0  0  0  0  0  0  0
   35.8680   20.7820   33.6450 C   0  0  0  0  0  0  0  0  0  0  0  0
   35.5530   19.9830   34.3250 H   0  0  0  0  0  0  0  0  0  0  0  0
   36.9690   21.5940   33.9070 C   0  0  0  0  0  3  0  0  0  0  0  0
  1  6  1  0  0  0  0
  2  8  1  0  0  0  0
  3  2  1  0  0  0  0
  3  9  1  0  0  0  0
  4  3  2  0  0  0  0
  5  6  2  0  0  0  0
  5  4  1  0  0  0  0
  6  7  1  0  0  0  0
  7  2  2  0  0  0  0
 10  4  1  0  0  0  0
 11  1  1  0  0  0  0
 11 19  1  0  0  0  0
 12 11  2  0  0  0  0
 13 12  1  0  0  0  0
 14 12  1  0  0  0  0
 14 15  2  0  0  0  0
 15 17  1  0  0  0  0
 16 15  1  0  0  0  0
 17 19  2  0  0  0  0
 17 18  1  0  0  0  0
M  END
>  <minimizedAffinity>
-3.82059765

$$$$
