REMARK  Name = 
REMARK  6 active torsions:
REMARK  status: ('A' for Active; 'I' for Inactive)
REMARK    1  A    between atoms: C_1  and  C_8
REMARK    2  A    between atoms: C_4  and  O_13
REMARK    3  A    between atoms: O_13  and  C_14
REMARK    4  A    between atoms: N_17  and  C_19
REMARK    5  A    between atoms: C_19  and  C_20
REMARK    6  A    between atoms: C_20  and  C_33
REMARK                            x       y       z     vdW  Elec       q    Type
REMARK                         _______ _______ _______ _____ _____    ______ ____
ROOT
ATOM      1  C   UNL     1      38.354  31.277  48.644  0.00  0.00    +0.000 A 
ATOM      2  C   UNL     1      38.447  32.517  49.227  0.00  0.00    +0.000 A 
ATOM      3  C   UNL     1      39.058  33.363  48.304  0.00  0.00    +0.000 A 
ATOM      4  N   UNL     1      39.315  32.642  47.217  0.00  0.00    +0.000 N 
ATOM      5  N   UNL     1      38.899  31.443  47.437  0.00  0.00    +0.000 NA
ATOM      6  H   UNL     1      38.170  32.952  50.178  0.00  0.00    +0.000 HD
ATOM      7  H   UNL     1      39.319  34.425  48.366  0.00  0.00    +0.000 HD
ENDROOT
BRANCH   4   8
ATOM      8  C   UNL     1      39.953  33.071  46.001  0.00  0.00    +0.000 C 
ATOM      9  H   UNL     1      40.583  33.956  46.181  0.00  0.00    +0.000 HD
ATOM     10  H   UNL     1      39.146  33.430  45.303  0.00  0.00    +0.000 HD
BRANCH   8  11
ATOM     11  C   UNL     1      40.696  31.928  45.392  0.00  0.00    +0.000 C 
ATOM     12  H   UNL     1      41.224  32.368  44.486  0.00  0.00    +0.000 HD
ATOM     13  H   UNL     1      41.589  31.635  46.037  0.00  0.00    +0.000 HD
BRANCH  11  14
ATOM     14  C   UNL     1      39.918  30.742  45.023  0.00  0.00    +0.000 A 
ATOM     15  C   UNL     1      39.717  29.513  45.609  0.00  0.00    +0.000 A 
ATOM     16  H   UNL     1      40.291  29.370  46.514  0.00  0.00    +0.000 HD
ATOM     17  C   UNL     1      38.884  28.567  45.058  0.00  0.00    +0.000 A 
ATOM     18  C   UNL     1      38.198  28.787  43.885  0.00  0.00    +0.000 A 
ATOM     19  H   UNL     1      37.583  27.953  43.576  0.00  0.00    +0.000 HD
ATOM     20  C   UNL     1      38.377  30.008  43.270  0.00  0.00    +0.000 A 
ATOM     21  H   UNL     1      37.825  30.144  42.353  0.00  0.00    +0.000 HD
ATOM     22  C   UNL     1      39.218  30.958  43.831  0.00  0.00    +0.000 A 
ENDBRANCH  11  14
ENDBRANCH   8  11
ENDBRANCH   4   8
BRANCH   1  23
ATOM     23  O   UNL     1      37.768  30.303  49.428  0.00  0.00    +0.000 OA
BRANCH  23  27
ATOM     24  C   UNL     1      34.004  28.811  48.290  0.00  0.00    +0.000 A 
ATOM     25  C   UNL     1      34.644  28.343  49.402  0.00  0.00    +0.000 A 
ATOM     26  C   UNL     1      35.875  28.783  49.835  0.00  0.00    +0.000 A 
ATOM     27  C   UNL     1      36.538  29.746  49.145  0.00  0.00    +0.000 A 
ATOM     28  C   UNL     1      35.895  30.233  48.007  0.00  0.00    +0.000 A 
ATOM     29  N   UNL     1      34.685  29.782  47.605  0.00  0.00    +0.000 NA
ATOM     30  H   UNL     1      34.172  27.573  50.000  0.00  0.00    +0.000 HD
ATOM     31  H   UNL     1      36.370  28.401  50.719  0.00  0.00    +0.000 HD
ATOM     32  H   UNL     1      36.285  31.002  47.345  0.00  0.00    +0.000 HD
BRANCH  24  34
ATOM     33  C   UNL     1      31.907  27.493  48.557  0.00  0.00    +0.000 A 
ATOM     34  C   UNL     1      32.727  28.365  47.824  0.00  0.00    +0.000 A 
ATOM     35  C   UNL     1      32.252  28.788  46.609  0.00  0.00    +0.000 A 
ATOM     36  N   UNL     1      31.031  28.359  46.164  0.00  0.00    +0.000 NA
ATOM     37  C   UNL     1      30.276  27.508  46.923  0.00  0.00    +0.000 A 
ATOM     38  N   UNL     1      30.705  27.066  48.127  0.00  0.00    +0.000 NA
ATOM     39  H   UNL     1      32.238  27.132  49.519  0.00  0.00    +0.000 HD
ATOM     40  H   UNL     1      32.820  29.467  45.968  0.00  0.00    +0.000 HD
ATOM     41  H   UNL     1      29.315  27.169  46.576  0.00  0.00    +0.000 HD
ENDBRANCH  24  34
ENDBRANCH  23  27
ENDBRANCH   1  23
TORSDOF 6
