REMARK  Name = 
REMARK  2 active torsions:
REMARK  status: ('A' for Active; 'I' for Inactive)
REMARK    1  A    between atoms: C_5  and  S_7
REMARK    2  A    between atoms: S_7  and  C_11
REMARK                            x       y       z     vdW  Elec       q    Type
REMARK                         _______ _______ _______ _____ _____    ______ ____
ROOT
ATOM      1  S   UNL     1      34.545  28.249  49.302  0.00  0.00    +0.000 S 
ENDROOT
BRANCH   1   6
ATOM      2  C   UNL     1      37.263  30.177  51.423  0.00  0.00    +0.000 A 
ATOM      3  C   UNL     1      38.114  30.756  50.472  0.00  0.00    +0.000 A 
ATOM      4  C   UNL     1      37.846  30.549  49.114  0.00  0.00    +0.000 A 
ATOM      5  N   UNL     1      36.762  29.787  48.784  0.00  0.00    +0.000 NA
ATOM      6  C   UNL     1      35.967  29.247  49.718  0.00  0.00    +0.000 A 
ATOM      7  N   UNL     1      36.204  29.433  51.022  0.00  0.00    +0.000 NA
ATOM      8  H   UNL     1      37.415  30.300  52.486  0.00  0.00    +0.000 HD
ATOM      9  H   UNL     1      38.952  31.346  50.831  0.00  0.00    +0.000 HD
ATOM     10  H   UNL     1      38.494  30.989  48.380  0.00  0.00    +0.000 HD
ENDBRANCH   1   6
BRANCH   1  11
ATOM     11  C   UNL     1      34.951  26.518  49.155  0.00  0.00    +0.000 A 
ATOM     12  C   UNL     1      34.565  25.631  48.177  0.00  0.00    +0.000 A 
ATOM     13  H   UNL     1      33.933  26.081  47.415  0.00  0.00    +0.000 HD
ATOM     14  C   UNL     1      34.987  24.319  48.240  0.00  0.00    +0.000 A 
ATOM     15  C   UNL     1      35.792  23.891  49.275  0.00  0.00    +0.000 A 
ATOM     16  H   UNL     1      36.120  22.871  49.323  0.00  0.00    +0.000 HD
ATOM     17  C   UNL     1      36.190  24.760  50.263  0.00  0.00    +0.000 A 
ATOM     18  H   UNL     1      36.828  24.387  51.070  0.00  0.00    +0.000 HD
ATOM     19  C   UNL     1      35.764  26.085  50.201  0.00  0.00    +0.000 A 
ENDBRANCH   1  11
TORSDOF 2
