
     RDKit          3D

 42 46  0  0  0  0  0  0  0  0999 V2000
   37.1409   30.7344   44.9098 C   0  0  0  0  0  0  0  0  0  0  0  0
   36.8357   29.7515   43.8453 C   0  0  0  0  0  0  0  0  0  0  0  0
   36.2595   31.1342   43.7791 C   0  0  0  0  0  0  0  0  0  0  0  0
   39.7603   33.3295   44.9682 C   0  0  0  0  0  0  0  0  0  0  0  0
   40.9231   32.5944   45.2200 C   0  0  0  0  0  0  0  0  0  0  0  0
   40.8064   31.2024   45.3701 C   0  0  0  0  0  0  0  0  0  0  0  0
   39.5785   30.6596   45.2621 N   0  0  0  0  0  0  0  0  0  0  0  0
   38.4626   31.3872   45.0179 C   0  0  0  0  0  0  0  0  0  0  0  0
   38.5539   32.7298   44.8701 N   0  0  0  0  0  0  0  0  0  0  0  0
   36.5062   30.5335   46.2703 C   0  0  0  0  0  0  0  0  0  0  0  0
   37.1355   30.9358   47.3990 C   0  0  0  0  0  0  0  0  0  0  0  0
   36.5417   30.7451   48.6389 C   0  0  0  0  0  0  0  0  0  0  0  0
   35.2970   30.1357   48.6793 C   0  0  0  0  0  0  0  0  0  0  0  0
   34.6484   29.7212   47.5173 C   0  0  0  0  0  0  0  0  0  0  0  0
   35.2904   29.9405   46.3375 N   0  0  0  0  0  0  0  0  0  0  0  0
   33.3444   29.0783   47.5048 C   0  0  0  0  0  0  0  0  0  0  0  0
   32.3622   29.0712   46.5632 N   0  0  0  0  0  0  0  0  0  0  0  0
   31.3332   28.3149   47.0398 C   0  0  0  0  0  0  0  0  0  0  0  0
   31.6703   27.8553   48.2652 N   0  0  0  0  0  0  0  0  0  0  0  0
   32.8827   28.3194   48.5379 N   0  0  0  0  0  0  0  0  0  0  0  0
   37.6977   29.5416   43.1492 H   0  0  0  0  0  0  0  0  0  0  0  0
   36.2107   28.8687   43.9931 H   0  0  0  0  0  0  0  0  0  0  0  0
   36.6513   31.8533   43.0250 H   0  0  0  0  0  0  0  0  0  0  0  0
   35.1664   31.1910   44.0010 H   0  0  0  0  0  0  0  0  0  0  0  0
   39.8927   34.3992   44.8589 H   0  0  0  0  0  0  0  0  0  0  0  0
   41.9097   32.9844   45.3123 H   0  0  0  0  0  0  0  0  0  0  0  0
   41.6100   30.5218   45.5648 H   0  0  0  0  0  0  0  0  0  0  0  0
   38.1039   31.4107   47.3776 H   0  0  0  0  0  0  0  0  0  0  0  0
   37.0134   31.0532   49.5651 H   0  0  0  0  0  0  0  0  0  0  0  0
   34.7516   29.9424   49.5972 H   0  0  0  0  0  0  0  0  0  0  0  0
   30.3783   28.0659   46.5974 H   0  0  0  0  0  0  0  0  0  0  0  0
   31.0225   27.0426   49.2225 C   0  0  0  0  0  0  0  0  0  0  0  0
   31.6058   26.6693   50.4227 C   0  0  0  0  0  0  0  0  0  0  0  0
   32.6069   27.0082   50.6548 H   0  0  0  0  0  0  0  0  0  0  0  0
   30.9556   25.8747   51.3442 C   0  0  0  0  0  0  0  0  0  0  0  0
   29.6606   25.4298   51.0563 C   0  0  0  0  0  0  0  0  0  0  0  0
   29.1194   24.8054   51.7542 H   0  0  0  0  0  0  0  0  0  0  0  0
   29.1127   25.8216   49.8521 C   0  0  0  0  0  0  0  0  0  0  0  0
   28.0928   25.4476   49.6696 H   0  0  0  0  0  0  0  0  0  0  0  0
   29.7302   26.6141   48.9065 C   0  0  0  0  0  0  0  0  0  0  0  0
   31.3806   25.5650   52.2889 H   0  0  0  0  0  0  0  0  0  0  0  0
   29.1813   26.8438   48.0040 H   0  0  0  0  0  0  0  0  0  0  0  0
  1  8  1  0
  1 10  1  0
  2  1  1  0
  3  2  1  0
  3  1  1  0
  4  5  2  0
  5  6  1  0
  7  6  2  0
  8  7  1  0
  9  4  1  0
  9  8  2  0
 10 15  1  0
 10 11  2  0
 11 12  1  0
 12 13  2  0
 14 13  1  0
 15 14  2  0
 16 14  1  0
 16 20  2  0
 17 18  2  0
 17 16  1  0
 18 19  1  0
 19 20  1  0
  2 21  1  0
  2 22  1  0
  3 23  1  0
  3 24  1  0
  4 25  1  0
  5 26  1  0
  6 27  1  0
 11 28  1  0
 12 29  1  0
 13 30  1  0
 18 31  1  0
 32 33  2  0
 33 34  1  0
 33 35  1  0
 35 36  2  0
 36 37  1  0
 36 38  1  0
 38 39  1  0
 38 40  2  0
 40 32  1  0
 35 41  1  0
 40 42  1  0
 19 32  1  0
M  ISO  8  21  13  22  13  23  13  24  13  25  14  26  14  27  14  28  14
M  ISO  6  29  14  30  14  31  14  34  16  37  16  39  16
M  END
>  <DihAtoms>  (1) 
17,18,31,32

>  <DihDeg>  (1) 
-61.98023380722698

$$$$
