REMARK  Name = 
REMARK  4 active torsions:
REMARK  status: ('A' for Active; 'I' for Inactive)
REMARK    1  A    between atoms: C_1  and  C_8
REMARK    2  A    between atoms: C_1  and  C_10
REMARK    3  A    between atoms: C_14  and  C_16
REMARK    4  A    between atoms: N_19  and  C_32
REMARK                            x       y       z     vdW  Elec       q    Type
REMARK                         _______ _______ _______ _____ _____    ______ ____
ROOT
ATOM      1  C   UNL     1      36.506  30.534  46.270  0.00  0.00    +0.000 A 
ATOM      2  C   UNL     1      37.136  30.936  47.399  0.00  0.00    +0.000 A 
ATOM      3  C   UNL     1      36.542  30.745  48.639  0.00  0.00    +0.000 A 
ATOM      4  C   UNL     1      35.297  30.136  48.679  0.00  0.00    +0.000 A 
ATOM      5  C   UNL     1      34.648  29.721  47.517  0.00  0.00    +0.000 A 
ATOM      6  N   UNL     1      35.290  29.941  46.337  0.00  0.00    +0.000 NA
ATOM      7  H   UNL     1      38.104  31.411  47.378  0.00  0.00    +0.000 HD
ATOM      8  H   UNL     1      37.013  31.053  49.565  0.00  0.00    +0.000 HD
ATOM      9  H   UNL     1      34.752  29.942  49.597  0.00  0.00    +0.000 HD
ENDROOT
BRANCH   1  10
ATOM     10  C   UNL     1      37.141  30.734  44.910  0.00  0.00    +0.000 C 
ATOM     11  C   UNL     1      36.836  29.752  43.845  0.00  0.00    +0.000 C 
ATOM     12  C   UNL     1      36.260  31.134  43.779  0.00  0.00    +0.000 C 
ATOM     13  H   UNL     1      37.698  29.542  43.149  0.00  0.00    +0.000 HD
ATOM     14  H   UNL     1      36.211  28.869  43.993  0.00  0.00    +0.000 HD
ATOM     15  H   UNL     1      36.651  31.853  43.025  0.00  0.00    +0.000 HD
ATOM     16  H   UNL     1      35.166  31.191  44.001  0.00  0.00    +0.000 HD
BRANCH  10  21
ATOM     17  C   UNL     1      39.760  33.330  44.968  0.00  0.00    +0.000 A 
ATOM     18  C   UNL     1      40.923  32.594  45.220  0.00  0.00    +0.000 A 
ATOM     19  C   UNL     1      40.806  31.202  45.370  0.00  0.00    +0.000 A 
ATOM     20  N   UNL     1      39.578  30.660  45.262  0.00  0.00    +0.000 NA
ATOM     21  C   UNL     1      38.463  31.387  45.018  0.00  0.00    +0.000 A 
ATOM     22  N   UNL     1      38.554  32.730  44.870  0.00  0.00    +0.000 NA
ATOM     23  H   UNL     1      39.893  34.399  44.859  0.00  0.00    +0.000 HD
ATOM     24  H   UNL     1      41.910  32.984  45.312  0.00  0.00    +0.000 HD
ATOM     25  H   UNL     1      41.610  30.522  45.565  0.00  0.00    +0.000 HD
ENDBRANCH  10  21
ENDBRANCH   1  10
BRANCH   5  26
ATOM     26  C   UNL     1      33.344  29.078  47.505  0.00  0.00    +0.000 A 
ATOM     27  N   UNL     1      32.362  29.071  46.563  0.00  0.00    +0.000 NA
ATOM     28  C   UNL     1      31.333  28.315  47.040  0.00  0.00    +0.000 A 
ATOM     29  N   UNL     1      31.670  27.855  48.265  0.00  0.00    +0.000 N 
ATOM     30  N   UNL     1      32.883  28.319  48.538  0.00  0.00    +0.000 NA
ATOM     31  H   UNL     1      30.378  28.066  46.597  0.00  0.00    +0.000 HD
BRANCH  29  32
ATOM     32  C   UNL     1      31.023  27.043  49.222  0.00  0.00    +0.000 A 
ATOM     33  C   UNL     1      31.606  26.669  50.423  0.00  0.00    +0.000 A 
ATOM     34  H   UNL     1      32.607  27.008  50.655  0.00  0.00    +0.000 HD
ATOM     35  C   UNL     1      30.956  25.875  51.344  0.00  0.00    +0.000 A 
ATOM     36  C   UNL     1      29.661  25.430  51.056  0.00  0.00    +0.000 A 
ATOM     37  H   UNL     1      29.119  24.805  51.754  0.00  0.00    +0.000 HD
ATOM     38  C   UNL     1      29.113  25.822  49.852  0.00  0.00    +0.000 A 
ATOM     39  H   UNL     1      28.093  25.448  49.670  0.00  0.00    +0.000 HD
ATOM     40  C   UNL     1      29.730  26.614  48.907  0.00  0.00    +0.000 A 
ENDBRANCH  29  32
ENDBRANCH   5  26
TORSDOF 4
