
 OpenBabel03272501033D

 37 39  0  0  0  0  0  0  0  0999 V2000
   36.5970   29.8180   45.2690 F   0  0  0  0  0  0  0  0  0  0  0  0
   35.2690   30.0200   45.4570 C   0  0  0  0  0  0  0  0  0  0  0  0
   34.4200   30.5040   44.4780 C   0  0  0  0  0  0  0  0  0  0  0  0
   33.0920   30.6770   44.7580 C   0  0  0  0  0  0  0  0  0  0  0  0
   32.5330   30.3870   45.9990 C   0  0  0  0  0  0  0  0  0  0  0  0
   33.4020   29.8980   46.9800 C   0  0  0  0  0  0  0  0  0  0  0  0
   34.7560   29.7140   46.7180 C   0  0  0  0  0  0  0  0  0  0  0  0
   32.4440   31.0550   43.9830 H   0  0  0  0  0  0  0  0  0  0  0  0
   31.4910   30.5240   46.2100 H   0  0  0  0  0  0  0  0  0  0  0  0
   32.9420   29.6800   47.9340 H   0  0  0  0  0  0  0  0  0  0  0  0
   36.0640   32.3810   41.8040 C   0  0  0  0  0  0  0  0  0  0  0  0
   36.0760   31.5140   40.7270 C   0  0  0  0  0  0  0  0  0  0  0  0
   35.5070   30.2620   40.9280 C   0  0  0  0  0  0  0  0  0  0  0  0
   34.9740   29.9360   42.1350 N   0  0  0  0  0  0  0  0  0  0  0  0
   34.9810   30.8150   43.1700 C   0  0  0  0  0  0  0  0  0  0  0  0
   35.5310   32.0440   42.9980 N   0  0  0  0  0  0  0  0  0  0  0  0
   36.4860   33.3780   41.7370 H   0  0  0  0  0  0  0  0  0  0  0  0
   36.5230   31.8640   39.8070 H   0  0  0  0  0  0  0  0  0  0  0  0
   35.5170   29.5900   40.0930 H   0  0  0  0  0  0  0  0  0  0  0  0
   35.5710   29.2400   47.6870 O   0  0  0  0  0  0  0  0  0  0  0  0
   34.5850   29.5300   50.0670 O   0  0  0  0  0  0  0  0  0  0  0  0
   35.8310   29.8390   49.2410 P   0  0  2  0  0  0  0  0  0  0  0  0
   36.0820   31.4960   49.3330 O   0  0  0  0  0  0  0  0  0  0  0  0
   37.2400   32.0720   48.8510 C   0  0  0  0  0  0  0  0  0  0  0  0
   37.8310   31.5560   47.6910 C   0  0  0  0  0  0  0  0  0  0  0  0
   37.4190   30.7170   47.1480 H   0  0  0  0  0  0  0  0  0  0  0  0
   39.0020   32.1230   47.1830 C   0  0  0  0  0  0  0  0  0  0  0  0
   39.5600   33.2030   47.8570 C   0  0  0  0  0  0  0  0  0  0  0  0
   40.4730   33.6380   47.4540 H   0  0  0  0  0  0  0  0  0  0  0  0
   39.0170   33.7520   49.0060 C   0  0  0  0  0  0  0  0  0  0  0  0
   39.4500   34.5850   49.5240 H   0  0  0  0  0  0  0  0  0  0  0  0
   37.8630   33.1450   49.4510 C   0  0  0  0  0  0  0  0  0  0  0  0
   37.1220   29.0220   49.9910 O   0  0  0  0  0  0  0  0  0  0  0  0
   37.3020   29.4020   51.3040 C   0  0  0  0  0  0  0  0  0  0  0  0
   36.1190   29.6080   51.9590 F   0  0  0  0  0  0  0  0  0  0  0  0
   37.9730   28.3770   51.9260 F   0  0  0  0  0  0  0  0  0  0  0  0
   38.0800   30.5550   51.3740 F   0  0  0  0  0  0  0  0  0  0  0  0
  1  2  1  0  0  0  0
  2  7  1  0  0  0  0
  3  4  1  0  0  0  0
  3  2  2  0  0  0  0
  4  5  2  0  0  0  0
  5  9  1  0  0  0  0
  5  6  1  0  0  0  0
  6 10  1  0  0  0  0
  7  6  2  0  0  0  0
  7 20  1  0  0  0  0
  8  4  1  0  0  0  0
 11 16  1  0  0  0  0
 12 13  1  0  0  0  0
 12 11  2  0  0  0  0
 13 14  2  0  0  0  0
 14 15  1  0  0  0  0
 15  3  1  0  0  0  0
 16 15  2  0  0  0  0
 17 11  1  0  0  0  0
 18 12  1  0  0  0  0
 19 13  1  0  0  0  0
 20 22  1  0  0  0  0
 22 23  1  0  0  0  0
 22 33  1  0  0  0  0
 22 21  2  1  0  0  0
 24 23  1  0  0  0  0
 24 32  1  0  0  0  0
 25 24  2  0  0  0  0
 26 25  1  0  0  0  0
 27 25  1  0  0  0  0
 27 28  2  0  0  0  0
 28 30  1  0  0  0  0
 29 28  1  0  0  0  0
 30 32  2  0  0  0  0
 30 31  1  0  0  0  0
 33 34  1  0  0  0  0
 34 37  1  0  0  0  0
 34 36  1  0  0  0  0
 34 35  1  0  0  0  0
M  END
>  <minimizedAffinity>
-5.47034979

>  <minimizedRMSD>
3.79302716

$$$$
