
 OpenBabel03272510143D

 41 44  0  0  0  0  0  0  0  0999 V2000
   38.4130   31.4230   48.8080 C   0  0  0  0  0  0  0  0  0  0  0  0
   38.4520   32.6360   49.4510 C   0  0  0  0  0  0  0  0  0  0  0  0
   39.0390   33.5480   48.5770 C   0  0  0  0  0  0  0  0  0  0  0  0
   39.3340   32.8910   47.4600 N   0  0  0  0  0  0  0  0  0  0  0  0
   38.9620   31.6670   47.6170 N   0  0  0  0  0  0  0  0  0  0  0  0
   38.1500   33.0130   50.4190 H   0  0  0  0  0  0  0  0  0  0  0  0
   39.2580   34.6150   48.6930 H   0  0  0  0  0  0  0  0  0  0  0  0
   39.9670   33.4020   46.2730 C   0  0  0  0  0  0  0  0  0  0  0  0
   40.5720   34.2920   46.5050 H   0  0  0  0  0  0  0  0  0  0  0  0
   39.1540   33.7770   45.5900 H   0  0  0  0  0  0  0  0  0  0  0  0
   40.7430   32.3140   45.6080 C   0  0  0  0  0  0  0  0  0  0  0  0
   41.8290   32.6430   45.6730 H   0  0  0  0  0  0  0  0  0  0  0  0
   40.7650   31.3760   46.2560 H   0  0  0  0  0  0  0  0  0  0  0  0
   40.3780   31.9760   44.2290 C   0  0  0  0  0  0  0  0  0  0  0  0
   40.5700   30.8680   43.4360 C   0  0  0  0  0  0  0  0  0  0  0  0
   41.1570   30.0950   43.9130 H   0  0  0  0  0  0  0  0  0  0  0  0
   40.0780   30.7910   42.1530 C   0  0  0  0  0  3  0  0  0  0  0  0
   39.3630   31.8180   41.5790 C   0  0  0  0  0  0  0  0  0  0  0  0
   39.0420   31.6130   40.5670 H   0  0  0  0  0  0  0  0  0  0  0  0
   39.1520   32.9440   42.3460 C   0  0  0  0  0  0  0  0  0  0  0  0
   38.5880   33.7270   41.8630 H   0  0  0  0  0  0  0  0  0  0  0  0
   39.6500   33.0140   43.6390 C   0  0  0  0  0  3  0  0  0  0  0  0
   37.8570   30.3900   49.5380 O   0  0  0  0  0  0  0  0  0  0  0  0
   34.1310   28.8600   48.3280 C   0  0  0  0  0  0  0  0  0  0  0  0
   34.7470   28.4090   49.4610 C   0  0  0  0  0  0  0  0  0  0  0  0
   35.9650   28.8620   49.9180 C   0  0  0  0  0  0  0  0  0  0  0  0
   36.6380   29.8220   49.2320 C   0  0  0  0  0  0  0  0  0  0  0  0
   36.0190   30.2910   48.0740 C   0  0  0  0  0  0  0  0  0  0  0  0
   34.8220   29.8270   47.6480 N   0  0  0  0  0  0  0  0  0  0  0  0
   34.2660   27.6430   50.0560 H   0  0  0  0  0  0  0  0  0  0  0  0
   36.4410   28.4940   50.8180 H   0  0  0  0  0  0  0  0  0  0  0  0
   36.4200   31.0550   47.4120 H   0  0  0  0  0  0  0  0  0  0  0  0
   32.0110   27.5770   48.5840 C   0  0  0  0  0  0  0  0  0  0  0  0
   32.8680   28.4000   47.8370 C   0  0  0  0  0  0  0  0  0  0  0  0
   32.4460   28.7590   46.5830 C   0  0  0  0  0  0  0  0  0  0  0  0
   31.2380   28.3170   46.1150 N   0  0  0  0  0  0  0  0  0  0  0  0
   30.4450   27.5160   46.8890 C   0  0  0  0  0  0  0  0  0  0  0  0
   30.8220   27.1370   48.1310 N   0  0  0  0  0  0  0  0  0  0  0  0
   32.3000   27.2660   49.5770 H   0  0  0  0  0  0  0  0  0  0  0  0
   33.0450   29.3970   45.9290 H   0  0  0  0  0  0  0  0  0  0  0  0
   29.4950   27.1660   46.5230 H   0  0  0  0  0  0  0  0  0  0  0  0
  1  2  1  0  0  0  0
  1 23  1  0  0  0  0
  2  6  1  0  0  0  0
  3  7  1  0  0  0  0
  3  2  2  0  0  0  0
  4  5  1  0  0  0  0
  4  3  1  0  0  0  0
  5  1  2  0  0  0  0
  8  9  1  0  0  0  0
  8  4  1  0  0  0  0
 10  8  1  0  0  0  0
 11 12  1  0  0  0  0
 11 13  1  0  0  0  0
 11  8  1  0  0  0  0
 14 11  1  0  0  0  0
 15 16  1  0  0  0  0
 15 14  2  0  0  0  0
 17 15  1  0  0  0  0
 18 17  2  0  0  0  0
 18 20  1  0  0  0  0
 19 18  1  0  0  0  0
 20 22  2  0  0  0  0
 21 20  1  0  0  0  0
 22 14  1  0  0  0  0
 24 25  1  0  0  0  0
 25 26  2  0  0  0  0
 25 30  1  0  0  0  0
 26 31  1  0  0  0  0
 27 23  1  0  0  0  0
 27 26  1  0  0  0  0
 28 27  2  0  0  0  0
 29 28  1  0  0  0  0
 29 24  2  0  0  0  0
 32 28  1  0  0  0  0
 33 39  1  0  0  0  0
 34 24  1  0  0  0  0
 34 33  2  0  0  0  0
 35 34  1  0  0  0  0
 36 35  2  0  0  0  0
 36 37  1  0  0  0  0
 37 38  2  0  0  0  0
 38 33  1  0  0  0  0
 40 35  1  0  0  0  0
 41 37  1  0  0  0  0
M  END
>  <minimizedAffinity>
-6.44683075

>  <minimizedRMSD>
1.46296668

$$$$
