
 OpenBabel03272500223D

 37 39  0  0  0  0  0  0  0  0999 V2000
   35.5520   29.1030   50.4600 C   0  0  0  0  0  0  0  0  0  0  0  0
   36.3650   30.0910   49.8440 C   0  0  0  0  0  0  0  0  0  0  0  0
   36.2270   30.3190   48.4770 C   0  0  0  0  0  0  0  0  0  0  0  0
   35.3060   29.5710   47.7940 N   0  0  0  0  0  0  0  0  0  0  0  0
   34.5530   28.6520   48.3800 C   0  0  0  0  0  0  0  0  0  0  0  0
   34.6760   28.4210   49.6970 N   0  0  0  0  0  0  0  0  0  0  0  0
   35.6550   28.9220   51.5170 H   0  0  0  0  0  0  0  0  0  0  0  0
   32.7630   30.2840   46.5790 Cl  0  0  0  0  0  0  0  0  0  0  0  0
   32.7050   28.5390   46.7130 C   0  0  0  0  0  0  0  0  0  0  0  0
   33.5830   27.8850   47.5810 C   0  0  0  0  0  0  0  0  0  0  0  0
   33.5920   26.4920   47.7380 C   0  0  0  0  0  0  0  0  0  0  0  0
   32.6550   25.7970   46.9610 C   0  0  0  0  0  0  0  0  0  0  0  0
   31.7880   26.4140   46.1070 C   0  0  0  0  0  0  0  0  0  0  0  0
   30.6700   25.4230   45.1980 Cl  0  0  0  0  0  0  0  0  0  0  0  0
   31.8170   27.7980   45.9860 C   0  0  0  0  0  0  0  0  0  0  0  0
   34.2680   26.0010   48.4050 H   0  0  0  0  0  0  0  0  0  0  0  0
   32.6770   24.7120   47.0980 H   0  0  0  0  0  0  0  0  0  0  0  0
   30.8870   28.4810   45.0670 C   0  0  0  0  0  0  0  0  0  0  0  0
   29.9390   27.5770   44.5700 F   0  0  0  0  0  0  0  0  0  0  0  0
   31.5360   29.0850   44.0240 F   0  0  0  0  0  0  0  0  0  0  0  0
   30.1870   29.4480   45.7350 F   0  0  0  0  0  0  0  0  0  0  0  0
   37.3410   30.8520   50.6830 C   0  0  0  0  0  0  0  0  0  0  0  0
   38.6240   30.7790   50.1650 F   0  0  0  0  0  0  0  0  0  0  0  0
   36.9630   32.1850   50.6770 F   0  0  0  0  0  0  0  0  0  0  0  0
   37.3390   30.4390   51.9970 F   0  0  0  0  0  0  0  0  0  0  0  0
   37.0570   31.3360   47.8200 C   0  0  0  0  0  0  0  0  0  0  0  0
   36.5390   32.3020   47.8010 H   0  0  0  0  0  0  0  0  0  0  0  0
   38.0090   31.5140   48.3860 H   0  0  0  0  0  0  0  0  0  0  0  0
   37.4920   30.8590   46.4780 C   0  0  0  0  0  0  0  0  0  0  0  0
   38.8730   30.6950   46.3150 C   0  0  0  0  0  0  0  0  0  0  0  0
   39.5650   30.9040   47.1220 H   0  0  0  0  0  0  0  0  0  0  0  0
   39.3890   30.2560   45.1120 C   0  0  0  0  0  0  0  0  0  0  0  0
   38.5670   29.9720   44.0520 C   0  0  0  0  0  0  0  0  0  0  0  0
   38.9830   29.6280   43.1100 H   0  0  0  0  0  0  0  0  0  0  0  0
   37.2160   30.1420   44.2380 C   0  0  0  0  0  0  0  0  0  0  0  0
   36.5550   29.9220   43.4090 H   0  0  0  0  0  0  0  0  0  0  0  0
   36.6600   30.5810   45.4330 C   0  0  0  0  0  0  0  0  0  0  0  0
  1  7  1  0  0  0  0
  2  1  1  0  0  0  0
  2 22  1  0  0  0  0
  3  2  2  0  0  0  0
  4  5  2  0  0  0  0
  4  3  1  0  0  0  0
  5  6  1  0  0  0  0
  6  1  2  0  0  0  0
  8  9  1  0  0  0  0
  9 10  1  0  0  0  0
 10 11  2  0  0  0  0
 10  5  1  0  0  0  0
 11 16  1  0  0  0  0
 12 17  1  0  0  0  0
 12 11  1  0  0  0  0
 13 12  2  0  0  0  0
 14 13  1  0  0  0  0
 15 13  1  0  0  0  0
 15  9  2  0  0  0  0
 18 21  1  0  0  0  0
 18 15  1  0  0  0  0
 19 18  1  0  0  0  0
 20 18  1  0  0  0  0
 22 25  1  0  0  0  0
 23 22  1  0  0  0  0
 24 22  1  0  0  0  0
 26 28  1  0  0  0  0
 26  3  1  0  0  0  0
 27 26  1  0  0  0  0
 29 26  1  0  0  0  0
 30 29  1  0  0  0  0
 30 31  1  0  0  0  0
 32 30  2  0  0  0  0
 33 35  2  0  0  0  0
 33 32  1  0  0  0  0
 34 33  1  0  0  0  0
 35 37  1  0  0  0  0
 36 35  1  0  0  0  0
 37 29  2  0  0  0  0
M  END
>  <minimizedAffinity>
-6.52051544

>  <minimizedRMSD>
0.706693947

$$$$
