
 OpenBabel03262521103D

 24 25  0  0  0  0  0  0  0  0999 V2000
   35.5500   30.1300   46.5500 O   0  0  0  0  0  0  0  0  0  0  0  0
   34.2920   29.9180   47.3800 P   0  0  1  0  0  0  0  0  0  0  0  0
   33.9530   28.2570   47.5680 O   0  0  0  0  0  0  0  0  0  0  0  0
   34.7500   27.7690   47.8840 H   0  0  0  0  0  0  0  0  0  0  0  0
   34.4560   30.5470   48.9740 O   0  0  0  0  0  0  0  0  0  0  0  0
   35.6450   30.4510   49.6930 C   0  0  0  0  0  0  0  0  0  0  0  0
   35.9510   29.4810   50.6460 C   0  0  0  0  0  0  0  0  0  0  0  0
   37.1860   29.5310   51.2710 C   0  0  0  0  0  0  0  0  0  0  0  0
   38.0430   30.5230   50.9240 N   0  0  0  0  0  0  0  0  0  0  0  0
   37.7370   31.4620   49.9940 C   0  0  0  0  0  0  0  0  0  0  0  0
   36.5330   31.4140   49.3850 N   0  0  0  0  0  0  0  0  0  0  0  0
   35.1630   28.7360   50.8290 H   0  0  0  0  0  0  0  0  0  0  0  0
   37.3880   28.7800   51.9910 H   0  0  0  0  0  0  0  0  0  0  0  0
   38.4520   32.2380   49.7470 H   0  0  0  0  0  0  0  0  0  0  0  0
   33.0300   30.6990   46.5980 O   0  0  0  0  0  0  0  0  0  0  0  0
   32.0750   30.0840   45.8080 C   0  0  0  0  0  0  0  0  0  0  0  0
   30.8850   29.4790   46.1510 C   0  0  0  0  0  0  0  0  0  0  0  0
   30.6990   29.5100   47.2110 H   0  0  0  0  0  0  0  0  0  0  0  0
   30.0920   28.9270   45.1660 C   0  0  0  0  0  0  0  0  0  0  0  0
   30.4520   28.9580   43.8350 C   0  0  0  0  0  0  0  0  0  0  0  0
   29.7960   28.5100   43.0950 H   0  0  0  0  0  0  0  0  0  0  0  0
   31.6390   29.5570   43.4750 C   0  0  0  0  0  0  0  0  0  0  0  0
   31.8840   29.5600   42.4270 H   0  0  0  0  0  0  0  0  0  0  0  0
   32.4530   30.1210   44.4630 C   0  0  0  0  0  0  0  0  0  0  0  0
  2  1  2  6  0  0  0
  2  3  1  0  0  0  0
  2  5  1  0  0  0  0
  3  4  1  0  0  0  0
  5  6  1  0  0  0  0
  6  7  1  0  0  0  0
  7 12  1  0  0  0  0
  7  8  2  0  0  0  0
  8 13  1  0  0  0  0
  9  8  1  0  0  0  0
 10  9  2  0  0  0  0
 11  6  2  0  0  0  0
 11 10  1  0  0  0  0
 14 10  1  0  0  0  0
 15  2  1  0  0  0  0
 16 17  1  0  0  0  0
 16 15  1  0  0  0  0
 17 18  1  0  0  0  0
 19 17  2  0  0  0  0
 20 19  1  0  0  0  0
 21 20  1  0  0  0  0
 22 20  2  0  0  0  0
 22 24  1  0  0  0  0
 23 22  1  0  0  0  0
 24 16  2  0  0  0  0
M  END
>  <minimizedAffinity>
-3.81465292

>  <minimizedRMSD>
0.781113923

$$$$
