REMARK  Name = 
REMARK  7 active torsions:
REMARK  status: ('A' for Active; 'I' for Inactive)
REMARK    1  A    between atoms: C_3  and  C_9
REMARK    2  A    between atoms: C_5  and  O_14
REMARK    3  A    between atoms: O_14  and  C_15
REMARK    4  A    between atoms: C_15  and  C_16
REMARK    5  A    between atoms: C_16  and  C_17
REMARK    6  A    between atoms: C_21  and  C_23
REMARK    7  A    between atoms: C_23  and  C_38
REMARK                            x       y       z     vdW  Elec       q    Type
REMARK                         _______ _______ _______ _____ _____    ______ ____
ROOT
ATOM      1  C   UNL     1      34.448  28.645  48.181  0.00  0.00    +0.000 C 
ATOM      2  H   UNL     1      35.307  28.806  47.477  0.00  0.00    +0.000 HD
ATOM      3  H   UNL     1      33.936  29.636  48.206  0.00  0.00    +0.000 HD
ENDROOT
BRANCH   1   4
ATOM      4  C   UNL     1      33.556  27.528  47.721  0.00  0.00    +0.000 C 
ATOM      5  H   UNL     1      33.793  27.332  46.641  0.00  0.00    +0.000 HD
ATOM      6  H   UNL     1      33.710  26.570  48.236  0.00  0.00    +0.000 HD
BRANCH   4   7
ATOM      7  C   UNL     1      32.111  27.892  47.752  0.00  0.00    +0.000 A 
ATOM      8  C   UNL     1      31.372  27.487  48.850  0.00  0.00    +0.000 A 
ATOM      9  C   UNL     1      30.034  27.776  48.966  0.00  0.00    +0.000 A 
ATOM     10  N   UNL     1      29.431  28.466  47.993  0.00  0.00    +0.000 NA
ATOM     11  C   UNL     1      30.176  28.855  46.919  0.00  0.00    +0.000 A 
ATOM     12  N   UNL     1      31.480  28.584  46.787  0.00  0.00    +0.000 NA
ATOM     13  H   UNL     1      31.862  26.925  49.642  0.00  0.00    +0.000 HD
ATOM     14  H   UNL     1      29.484  27.435  49.856  0.00  0.00    +0.000 HD
BRANCH  11  15
ATOM     15  C   UNL     1      29.452  29.623  45.862  0.00  0.00    +0.000 C 
ATOM     16  H   UNL     1      28.428  29.202  45.783  0.00  0.00    +0.000 HD
ATOM     17  H   UNL     1      29.947  29.320  44.896  0.00  0.00    +0.000 HD
BRANCH  15  18
ATOM     18  C   UNL     1      29.466  31.076  46.067  0.00  0.00    +0.000 A 
ATOM     19  C   UNL     1      28.280  31.659  46.525  0.00  0.00    +0.000 A 
ATOM     20  H   UNL     1      27.382  31.076  46.724  0.00  0.00    +0.000 HD
ATOM     21  C   UNL     1      28.166  33.014  46.757  0.00  0.00    +0.000 A 
ATOM     22  C   UNL     1      29.257  33.824  46.530  0.00  0.00    +0.000 A 
ATOM     23  H   UNL     1      29.219  34.904  46.698  0.00  0.00    +0.000 HD
ATOM     24  C   UNL     1      30.422  33.259  46.081  0.00  0.00    +0.000 A 
ATOM     25  H   UNL     1      31.288  33.845  45.893  0.00  0.00    +0.000 HD
ATOM     26  C   UNL     1      30.558  31.889  45.841  0.00  0.00    +0.000 A 
ENDBRANCH  15  18
ENDBRANCH  11  15
ENDBRANCH   4   7
ENDBRANCH   1   4
BRANCH   1  27
ATOM     27  O   UNL     1      34.999  28.352  49.456  0.00  0.00    +0.000 OA
BRANCH  27  32
ATOM     28  C   UNL     1      37.337  30.169  51.520  0.00  0.00    +0.000 A 
ATOM     29  C   UNL     1      38.067  30.860  50.525  0.00  0.00    +0.000 A 
ATOM     30  C   UNL     1      37.703  30.654  49.194  0.00  0.00    +0.000 A 
ATOM     31  N   UNL     1      36.666  29.794  48.989  0.00  0.00    +0.000 NA
ATOM     32  C   UNL     1      35.983  29.146  49.933  0.00  0.00    +0.000 A 
ATOM     33  N   UNL     1      36.336  29.347  51.222  0.00  0.00    +0.000 NA
ATOM     34  H   UNL     1      37.650  30.356  52.535  0.00  0.00    +0.000 HD
ATOM     35  H   UNL     1      38.878  31.532  50.694  0.00  0.00    +0.000 HD
BRANCH  30  38
ATOM     36  F   UNL     1      38.939  33.261  49.023  0.00  0.00    +0.000 F 
ATOM     37  C   UNL     1      38.909  32.474  47.944  0.00  0.00    +0.000 A 
ATOM     38  C   UNL     1      38.331  31.270  48.049  0.00  0.00    +0.000 A 
ATOM     39  C   UNL     1      38.354  30.527  46.866  0.00  0.00    +0.000 A 
ATOM     40  C   UNL     1      38.916  30.989  45.707  0.00  0.00    +0.000 A 
ATOM     41  C   UNL     1      39.498  32.234  45.653  0.00  0.00    +0.000 A 
ATOM     42  C   UNL     1      39.488  32.981  46.798  0.00  0.00    +0.000 A 
ATOM     43  H   UNL     1      37.923  29.529  46.795  0.00  0.00    +0.000 HD
ATOM     44  H   UNL     1      38.928  30.405  44.796  0.00  0.00    +0.000 HD
ATOM     45  H   UNL     1      39.949  32.618  44.743  0.00  0.00    +0.000 HD
ATOM     46  H   UNL     1      39.941  33.965  46.776  0.00  0.00    +0.000 HD
ENDBRANCH  30  38
ENDBRANCH  27  32
ENDBRANCH   1  27
TORSDOF 7
