
 OpenBabel03272510123D

 35 38  0  0  0  0  0  0  0  0999 V2000
   33.5580   28.3830   48.9470 C   0  0  0  0  0  0  0  0  0  0  0  0
   33.5110   29.0290   50.1310 C   0  0  0  0  0  0  0  0  0  0  0  0
   34.5340   29.7840   50.6650 C   0  0  0  0  0  0  0  0  0  0  0  0
   35.7040   29.9150   49.9750 C   0  0  0  0  0  0  0  0  0  0  0  0
   35.7680   29.2520   48.7460 C   0  0  0  0  0  0  0  0  0  0  0  0
   34.7350   28.5270   48.2750 N   0  0  0  0  0  0  0  0  0  0  0  0
   32.6230   28.9840   50.7520 H   0  0  0  0  0  0  0  0  0  0  0  0
   34.4850   30.3010   51.6210 H   0  0  0  0  0  0  0  0  0  0  0  0
   36.6680   29.3110   48.1410 H   0  0  0  0  0  0  0  0  0  0  0  0
   31.1650   27.6520   48.8630 C   0  0  0  0  0  0  0  0  0  0  0  0
   32.4890   27.6020   48.4030 C   0  0  0  0  0  0  0  0  0  0  0  0
   32.7460   26.7300   47.3550 C   0  0  0  0  0  0  0  0  0  0  0  0
   31.7150   25.9850   46.8400 N   0  0  0  0  0  0  0  0  0  0  0  0
   30.4660   26.0820   47.3290 C   0  0  0  0  0  0  0  0  0  0  0  0
   30.1800   26.9090   48.3360 N   0  0  0  0  0  0  0  0  0  0  0  0
   30.9300   28.3210   49.6800 H   0  0  0  0  0  0  0  0  0  0  0  0
   33.7550   26.6640   46.9730 H   0  0  0  0  0  0  0  0  0  0  0  0
   29.7450   25.4430   46.8370 H   0  0  0  0  0  0  0  0  0  0  0  0
   36.8260   30.6370   50.3710 O   0  0  0  0  0  0  0  0  0  0  0  0
   37.5910   31.3450   49.4450 C   0  0  0  0  0  0  0  0  0  0  0  0
   37.9550   32.6340   49.8570 C   0  0  0  0  0  0  0  0  0  0  0  0
   38.7030   33.2100   48.8460 C   0  0  0  0  0  0  0  0  0  0  0  0
   38.7720   32.2830   47.8810 N   0  0  0  0  0  0  0  0  0  0  0  0
   38.1280   31.1940   48.2210 N   0  0  0  0  0  0  0  0  0  0  0  0
   37.7740   33.2310   50.7570 H   0  0  0  0  0  0  0  0  0  0  0  0
   39.2010   34.1390   48.6630 H   0  0  0  0  0  0  0  0  0  0  0  0
   39.3700   32.1770   46.5710 C   0  0  0  0  0  0  0  0  0  0  0  0
   39.5720   30.9280   45.9680 C   0  0  0  0  0  0  0  0  0  0  0  0
   39.2860   30.0290   46.4760 H   0  0  0  0  0  0  0  0  0  0  0  0
   40.1510   30.9180   44.7110 C   0  0  0  0  0  3  0  0  0  0  0  0
   40.5360   32.0520   44.0240 C   0  0  0  0  0  0  0  0  0  0  0  0
   40.9860   32.0130   43.0410 H   0  0  0  0  0  0  0  0  0  0  0  0
   40.3310   33.2960   44.6260 C   0  0  0  0  0  0  0  0  0  0  0  0
   40.6200   34.2060   44.1170 H   0  0  0  0  0  0  0  0  0  0  0  0
   39.7550   33.3230   45.8830 C   0  0  0  0  0  3  0  0  0  0  0  0
  1  2  1  0  0  0  0
  2  3  2  0  0  0  0
  2  7  1  0  0  0  0
  3  8  1  0  0  0  0
  4 19  1  0  0  0  0
  4  3  1  0  0  0  0
  5  4  2  0  0  0  0
  6  5  1  0  0  0  0
  6  1  2  0  0  0  0
  9  5  1  0  0  0  0
 10 16  1  0  0  0  0
 11 10  1  0  0  0  0
 11  1  1  0  0  0  0
 12 11  2  0  0  0  0
 13 14  2  0  0  0  0
 13 12  1  0  0  0  0
 14 15  1  0  0  0  0
 15 10  2  0  0  0  0
 17 12  1  0  0  0  0
 18 14  1  0  0  0  0
 20 21  1  0  0  0  0
 20 19  1  0  0  0  0
 21 25  1  0  0  0  0
 22 21  2  0  0  0  0
 23 24  1  0  0  0  0
 23 22  1  0  0  0  0
 24 20  2  0  0  0  0
 26 22  1  0  0  0  0
 27 23  1  0  0  0  0
 28 29  1  0  0  0  0
 28 27  1  0  0  0  0
 30 28  2  0  0  0  0
 31 33  2  0  0  0  0
 31 30  1  0  0  0  0
 32 31  1  0  0  0  0
 33 35  1  0  0  0  0
 34 33  1  0  0  0  0
 35 27  2  0  0  0  0
M  END
>  <minimizedAffinity>
-6.21264219

>  <minimizedRMSD>
1.74425077

$$$$
