
 OpenBabel03272510123D

 35 38  0  0  0  0  0  0  0  0999 V2000
   33.8940   28.5540   48.8860 C   0  0  0  0  0  0  0  0  0  0  0  0
   34.6170   28.4300   50.0200 C   0  0  0  0  0  0  0  0  0  0  0  0
   35.5230   29.3570   50.4900 C   0  0  0  0  0  0  0  0  0  0  0  0
   35.7370   30.5060   49.7850 C   0  0  0  0  0  0  0  0  0  0  0  0
   34.9950   30.6490   48.6080 C   0  0  0  0  0  0  0  0  0  0  0  0
   34.1230   29.7080   48.1990 N   0  0  0  0  0  0  0  0  0  0  0  0
   34.5160   27.5510   50.6470 H   0  0  0  0  0  0  0  0  0  0  0  0
   36.1000   29.2460   51.4060 H   0  0  0  0  0  0  0  0  0  0  0  0
   35.1140   31.5390   47.9950 H   0  0  0  0  0  0  0  0  0  0  0  0
   31.5840   27.6080   48.6980 C   0  0  0  0  0  0  0  0  0  0  0  0
   32.9570   27.5850   48.4080 C   0  0  0  0  0  0  0  0  0  0  0  0
   33.4000   26.5440   47.6050 C   0  0  0  0  0  0  0  0  0  0  0  0
   32.4940   25.6190   47.1510 N   0  0  0  0  0  0  0  0  0  0  0  0
   31.1890   25.7000   47.4680 C   0  0  0  0  0  0  0  0  0  0  0  0
   30.7240   26.6860   48.2380 N   0  0  0  0  0  0  0  0  0  0  0  0
   31.2050   28.4050   49.3220 H   0  0  0  0  0  0  0  0  0  0  0  0
   34.4520   26.4930   47.3590 H   0  0  0  0  0  0  0  0  0  0  0  0
   30.5800   24.9110   47.0480 H   0  0  0  0  0  0  0  0  0  0  0  0
   36.6110   31.5360   50.1190 O   0  0  0  0  0  0  0  0  0  0  0  0
   37.5420   32.0180   49.2010 C   0  0  0  0  0  0  0  0  0  0  0  0
   38.2610   33.1400   49.6360 C   0  0  0  0  0  0  0  0  0  0  0  0
   39.1370   33.5020   48.6300 C   0  0  0  0  0  0  0  0  0  0  0  0
   38.9330   32.6170   47.6440 N   0  0  0  0  0  0  0  0  0  0  0  0
   38.0070   31.7500   47.9670 N   0  0  0  0  0  0  0  0  0  0  0  0
   38.2620   33.7410   50.5510 H   0  0  0  0  0  0  0  0  0  0  0  0
   39.8790   34.2540   48.4610 H   0  0  0  0  0  0  0  0  0  0  0  0
   39.4700   32.3770   46.3250 C   0  0  0  0  0  0  0  0  0  0  0  0
   39.7480   31.0760   45.8840 C   0  0  0  0  0  0  0  0  0  0  0  0
   39.5650   30.2370   46.5250 H   0  0  0  0  0  0  0  0  0  0  0  0
   40.2590   30.9370   44.6060 C   0  0  0  0  0  0  0  0  0  0  0  0
   40.5090   31.9900   43.7500 C   0  0  0  0  0  0  0  0  0  0  0  0
   40.9100   31.8500   42.7550 H   0  0  0  0  0  0  0  0  0  0  0  0
   40.2310   33.2870   44.1910 C   0  0  0  0  0  0  0  0  0  0  0  0
   40.4140   34.1360   43.5470 H   0  0  0  0  0  0  0  0  0  0  0  0
   39.7190   33.4420   45.4660 C   0  0  0  0  0  0  0  0  0  0  0  0
  1  2  1  0  0  0  0
  2  3  2  0  0  0  0
  2  7  1  0  0  0  0
  3  8  1  0  0  0  0
  4 19  1  0  0  0  0
  4  3  1  0  0  0  0
  5  4  2  0  0  0  0
  6  5  1  0  0  0  0
  6  1  2  0  0  0  0
  9  5  1  0  0  0  0
 10 16  1  0  0  0  0
 11 10  1  0  0  0  0
 11  1  1  0  0  0  0
 12 11  2  0  0  0  0
 13 14  2  0  0  0  0
 13 12  1  0  0  0  0
 14 15  1  0  0  0  0
 15 10  2  0  0  0  0
 17 12  1  0  0  0  0
 18 14  1  0  0  0  0
 20 21  1  0  0  0  0
 20 19  1  0  0  0  0
 21 25  1  0  0  0  0
 22 21  2  0  0  0  0
 23 24  1  0  0  0  0
 23 22  1  0  0  0  0
 24 20  2  0  0  0  0
 26 22  1  0  0  0  0
 27 23  1  0  0  0  0
 28 27  1  0  0  0  0
 28 29  1  0  0  0  0
 30 28  2  0  0  0  0
 31 33  2  0  0  0  0
 31 30  1  0  0  0  0
 32 31  1  0  0  0  0
 33 35  1  0  0  0  0
 34 33  1  0  0  0  0
 35 27  2  0  0  0  0
M  END
>  <minimizedAffinity>
-6.49344921

>  <minimizedRMSD>
1.84623754

$$$$
