
 OpenBabel03272509253D

 24 25  0  0  0  0  0  0  0  0999 V2000
   38.0080   30.5920   47.7730 C   0  0  0  0  0  0  0  0  0  0  0  0
   37.2040   30.7010   47.0190 H   0  0  0  0  0  0  0  0  0  0  0  0
   38.7220   29.7870   47.5300 H   0  0  0  0  0  0  0  0  0  0  0  0
   37.2750   30.1570   51.4690 C   0  0  0  0  0  0  0  0  0  0  0  0
   37.9460   30.5790   50.3000 C   0  0  0  0  0  0  0  0  0  0  0  0
   37.4050   30.2170   49.0770 C   0  0  0  0  0  0  0  0  0  0  0  0
   36.2530   29.4700   49.0560 N   0  0  0  0  0  0  0  0  0  0  0  0
   35.6440   29.0880   50.1990 C   0  0  0  0  0  0  0  0  0  0  0  0
   36.1500   29.4280   51.4060 N   0  0  0  0  0  0  0  0  0  0  0  0
   37.7170   30.4540   52.4190 H   0  0  0  0  0  0  0  0  0  0  0  0
   38.8520   31.1670   50.3220 H   0  0  0  0  0  0  0  0  0  0  0  0
   34.7510   28.5090   50.1560 H   0  0  0  0  0  0  0  0  0  0  0  0
   38.7190   31.9330   47.8940 C   0  0  0  0  0  0  0  0  0  0  0  0
   39.7000   31.8580   48.3590 H   0  0  0  0  0  0  0  0  0  0  0  0
   38.0400   32.6410   48.4060 H   0  0  0  0  0  0  0  0  0  0  0  0
   38.9440   32.3760   46.4770 C   0  0  0  0  0  0  0  0  0  0  0  0
   37.9630   32.1100   45.5180 C   0  0  0  0  0  0  0  0  0  0  0  0
   37.0730   31.5910   45.8450 H   0  0  0  0  0  0  0  0  0  0  0  0
   38.0600   32.4670   44.1970 C   0  0  0  0  0  0  0  0  0  0  0  0
   39.2050   33.1280   43.8030 C   0  0  0  0  0  0  0  0  0  0  0  0
   39.2660   33.4010   42.7640 H   0  0  0  0  0  0  0  0  0  0  0  0
   40.2110   33.4160   44.7190 C   0  0  0  0  0  0  0  0  0  0  0  0
   41.0680   33.9270   44.3540 H   0  0  0  0  0  0  0  0  0  0  0  0
   40.0620   33.0350   46.0340 C   0  0  0  0  0  0  0  0  0  0  0  0
  1 13  1  0  0  0  0
  1  6  1  0  0  0  0
  2  1  1  0  0  0  0
  3  1  1  0  0  0  0
  4 10  1  0  0  0  0
  5 11  1  0  0  0  0
  5  4  2  0  0  0  0
  6  5  1  0  0  0  0
  7  6  2  0  0  0  0
  7  8  1  0  0  0  0
  8  9  2  0  0  0  0
  9  4  1  0  0  0  0
 12  8  1  0  0  0  0
 13 14  1  0  0  0  0
 13 15  1  0  0  0  0
 16 13  1  0  0  0  0
 17 18  1  0  0  0  0
 17 16  2  0  0  0  0
 19 17  1  0  0  0  0
 20 19  2  0  0  0  0
 20 22  1  0  0  0  0
 21 20  1  0  0  0  0
 22 24  2  0  0  0  0
 23 22  1  0  0  0  0
 24 16  1  0  0  0  0
M  END
>  <minimizedAffinity>
-5.31941605

>  <minimizedRMSD>
1.1464349

$$$$
