
 OpenBabel03272501193D

 30 32  0  0  0  0  0  0  0  0999 V2000
   38.7100   31.7400   47.9290 C   0  0  0  0  0  0  0  0  0  0  0  0
   38.1050   31.9970   49.1420 C   0  0  0  0  0  0  0  0  0  0  0  0
   38.3990   33.2570   49.6710 C   0  0  0  0  0  0  0  0  0  0  0  0
   39.2340   34.1600   49.0130 C   0  0  0  0  0  0  0  0  0  0  0  0
   39.7950   33.7960   47.7850 C   0  0  0  0  0  0  0  0  0  0  0  0
   39.5270   32.5580   47.2320 C   0  0  0  0  0  0  0  0  0  0  0  0
   37.9440   33.5030   50.6270 H   0  0  0  0  0  0  0  0  0  0  0  0
   39.3930   35.0960   49.5040 H   0  0  0  0  0  0  0  0  0  0  0  0
   40.4290   34.5280   47.3250 H   0  0  0  0  0  0  0  0  0  0  0  0
   35.9280   30.8760   49.3480 C   0  0  0  0  0  0  0  0  0  0  0  0
   37.2420   31.0750   49.8320 C   0  0  0  0  0  0  0  0  0  0  0  0
   37.6550   30.3730   50.9560 C   0  0  0  0  0  0  0  0  0  0  0  0
   36.7550   29.5210   51.5370 N   0  0  0  0  0  0  0  0  0  0  0  0
   35.4980   29.3460   51.0540 C   0  0  0  0  0  0  0  0  0  0  0  0
   35.0860   30.0290   49.9540 N   0  0  0  0  0  0  0  0  0  0  0  0
   35.6230   31.4300   48.4710 H   0  0  0  0  0  0  0  0  0  0  0  0
   38.6430   30.5180   51.3280 H   0  0  0  0  0  0  0  0  0  0  0  0
   34.8860   28.6540   51.5930 H   0  0  0  0  0  0  0  0  0  0  0  0
   38.4680   30.4950   47.3250 O   0  0  0  0  0  0  0  0  0  0  0  0
   38.1570   30.4200   46.3650 H   0  0  0  0  0  0  0  0  0  0  0  0
   40.1080   32.2630   46.0280 O   0  0  0  0  0  0  0  0  0  0  0  0
   39.5420   32.2130   44.7910 C   0  0  0  0  0  0  0  0  0  0  0  0
   38.3250   32.6600   44.3140 C   0  0  0  0  0  0  0  0  0  0  0  0
   37.7380   33.1310   45.0890 H   0  0  0  0  0  0  0  0  0  0  0  0
   37.9710   32.4890   42.9910 C   0  0  0  0  0  0  0  0  0  0  0  0
   38.8010   31.8700   42.0820 C   0  0  0  0  0  0  0  0  0  0  0  0
   38.4470   31.7770   41.0640 H   0  0  0  0  0  0  0  0  0  0  0  0
   40.0220   31.4130   42.5350 C   0  0  0  0  0  0  0  0  0  0  0  0
   40.6630   30.9300   41.8130 H   0  0  0  0  0  0  0  0  0  0  0  0
   40.3940   31.5800   43.8740 C   0  0  0  0  0  0  0  0  0  0  0  0
  1  2  1  0  0  0  0
  2  3  2  0  0  0  0
  2 11  1  0  0  0  0
  3  7  1  0  0  0  0
  4  8  1  0  0  0  0
  4  3  1  0  0  0  0
  5  4  2  0  0  0  0
  6  5  1  0  0  0  0
  6  1  2  0  0  0  0
  9  5  1  0  0  0  0
 10 11  2  0  0  0  0
 10 15  1  0  0  0  0
 11 12  1  0  0  0  0
 12 17  1  0  0  0  0
 12 13  2  0  0  0  0
 14 13  1  0  0  0  0
 14 18  1  0  0  0  0
 15 14  2  0  0  0  0
 16 10  1  0  0  0  0
 19  1  1  0  0  0  0
 20 19  1  0  0  0  0
 21  6  1  0  0  0  0
 22 21  1  0  0  0  0
 23 22  1  0  0  0  0
 23 24  1  0  0  0  0
 25 23  2  0  0  0  0
 26 28  2  0  0  0  0
 26 25  1  0  0  0  0
 27 26  1  0  0  0  0
 28 30  1  0  0  0  0
 29 28  1  0  0  0  0
 30 22  2  0  0  0  0
M  END
>  <minimizedAffinity>
-6.27686405

>  <minimizedRMSD>
2.25082016

$$$$
