
 OpenBabel03272507293D

 41 43  0  0  1  0  0  0  0  0999 V2000
   34.3400   29.6100   46.8350 C   0  0  0  0  0  0  0  0  0  0  0  0
   35.2890   30.2770   46.0370 C   0  0  0  0  0  0  0  0  0  0  0  0
   35.5850   29.7280   44.7960 C   0  0  0  0  0  0  0  0  0  0  0  0
   34.9620   28.6000   44.4200 N   0  0  0  0  0  0  0  0  0  0  0  0
   34.0580   27.9820   45.2020 C   0  0  0  0  0  0  0  0  0  0  0  0
   33.7560   28.4860   46.3950 N   0  0  0  0  0  0  0  0  0  0  0  0
   36.5190   30.3300   43.9570 N   0  0  0  0  0  0  0  0  0  0  0  0
   36.7840   31.7870   43.8620 C   0  0  0  0  0  0  0  0  0  0  0  0
   37.6590   32.0270   42.6980 C   0  0  0  0  0  0  0  0  0  0  0  0
   37.5020   30.8070   41.9110 C   0  0  0  0  0  0  0  0  0  0  0  0
   37.4100   29.7900   42.9820 C   0  0  2  0  0  0  0  0  0  0  0  0
   34.1900   30.1330   47.7820 H   0  0  0  0  0  0  0  0  0  0  0  0
   35.8130   31.1840   46.2980 H   0  0  0  0  0  0  0  0  0  0  0  0
   33.5240   27.0780   44.9600 H   0  0  0  0  0  0  0  0  0  0  0  0
   36.9300   32.3080   44.7780 H   0  0  0  0  0  0  0  0  0  0  0  0
   35.7100   32.1260   43.5780 H   0  0  0  0  0  0  0  0  0  0  0  0
   38.5490   32.5940   42.7450 H   0  0  0  0  0  0  0  0  0  0  0  0
   37.0230   32.8000   42.0520 H   0  0  0  0  0  0  0  0  0  0  0  0
   38.4480   30.6090   41.3440 H   0  0  0  0  0  0  0  0  0  0  0  0
   36.6640   30.7650   41.2030 H   0  0  0  0  0  0  0  0  0  0  0  0
   36.9650   28.4470   42.3950 C   0  0  0  0  0  0  0  0  0  0  0  0
   35.6090   28.5110   42.1580 F   0  0  0  0  0  0  0  0  0  0  0  0
   37.1670   27.3630   43.1980 F   0  0  0  0  0  0  0  0  0  0  0  0
   37.5780   28.3330   41.1690 F   0  0  0  0  0  0  0  0  0  0  0  0
   38.6660   29.5410   43.6300 C   0  0  2  0  0  0  0  0  0  0  0  0
   38.6240   28.7420   44.3390 H   0  0  0  0  0  0  0  0  0  0  0  0
   39.2240   30.6080   44.6420 C   0  0  0  0  0  0  0  0  0  0  0  0
   40.0870   31.6360   44.2080 C   0  0  0  0  0  0  0  0  0  0  0  0
   40.3950   31.5670   43.1620 H   0  0  0  0  0  0  0  0  0  0  0  0
   40.5560   32.6760   44.9480 C   0  0  0  0  0  0  0  0  0  0  0  0
   40.1220   32.6940   46.2470 C   0  0  0  0  0  0  0  0  0  0  0  0
   40.4360   33.4790   46.9190 H   0  0  0  0  0  0  0  0  0  0  0  0
   39.2790   31.7530   46.7920 C   0  0  0  0  0  0  0  0  0  0  0  0
   38.9020   31.7080   47.7920 H   0  0  0  0  0  0  0  0  0  0  0  0
   38.8560   30.7390   45.9710 C   0  0  0  0  0  0  0  0  0  0  0  0
   39.5710   29.5740   42.7530 O   0  0  0  0  0  0  0  0  0  0  0  0
   40.6610   28.8860   42.3780 C   0  0  0  0  0  0  0  0  0  0  0  0
   40.3990   27.7080   42.1300 O   0  0  0  0  0  0  0  0  0  0  0  0
   42.0540   28.8670   42.1090 N   0  0  0  0  0  0  0  0  0  0  0  0
   42.7440   28.5610   42.8370 H   0  0  0  0  0  0  0  0  0  0  0  0
   42.2730   29.1850   41.1330 H   0  0  0  0  0  0  0  0  0  0  0  0
  1 12  1  0  0  0  0
  2 13  1  0  0  0  0
  2  1  2  0  0  0  0
  3  2  1  0  0  0  0
  4  3  2  0  0  0  0
  4  5  1  0  0  0  0
  5  6  2  0  0  0  0
  6  1  1  0  0  0  0
  7  3  1  0  0  0  0
  8  7  1  0  0  0  0
  8 15  1  0  0  0  0
  9 17  1  0  0  0  0
  9  8  1  0  0  0  0
 10  9  1  0  0  0  0
 10 11  1  0  0  0  0
 11 21  1  6  0  0  0
 11 25  1  0  0  0  0
 11  7  1  0  0  0  0
 14  5  1  0  0  0  0
 16  8  1  0  0  0  0
 18  9  1  0  0  0  0
 19 10  1  0  0  0  0
 20 10  1  0  0  0  0
 21 23  1  0  0  0  0
 22 21  1  0  0  0  0
 24 21  1  0  0  0  0
 25 26  1  1  0  0  0
 25 27  1  0  0  0  0
 27 35  1  0  0  0  0
 28 27  2  0  0  0  0
 28 30  1  0  0  0  0
 29 28  1  0  0  0  0
 30 31  2  0  0  0  0
 31 33  1  0  0  0  0
 31 32  1  0  0  0  0
 33 34  1  0  0  0  0
 35 33  2  0  0  0  0
 36 25  1  0  0  0  0
 37 36  1  0  0  0  0
 38 37  2  0  0  0  0
 39 37  1  0  0  0  0
 39 40  1  0  0  0  0
 41 39  1  0  0  0  0
M  END
>  <minimizedAffinity>
-5.01595926

>  <minimizedRMSD>
2.99903202

$$$$
