
     RDKit          3D

 37 40  0  0  0  0  0  0  0  0999 V2000
   33.8374   28.7851   48.2734 C   0  0  0  0  0  0  0  0  0  0  0  0
   34.4392   28.4201   49.4249 C   0  0  0  0  0  0  0  0  0  0  0  0
   35.7121   28.7880   49.8069 C   0  0  0  0  0  0  0  0  0  0  0  0
   36.4573   29.5832   48.9862 C   0  0  0  0  0  0  0  0  0  0  0  0
   35.8469   29.9699   47.7886 C   0  0  0  0  0  0  0  0  0  0  0  0
   34.5992   29.5788   47.4689 N   0  0  0  0  0  0  0  0  0  0  0  0
   31.6435   27.6572   48.6995 C   0  0  0  0  0  0  0  0  0  0  0  0
   32.5146   28.3969   47.8869 C   0  0  0  0  0  0  0  0  0  0  0  0
   32.0350   28.7595   46.6368 C   0  0  0  0  0  0  0  0  0  0  0  0
   30.7664   28.3834   46.2745 N   0  0  0  0  0  0  0  0  0  0  0  0
   29.9814   27.6725   47.1045 C   0  0  0  0  0  0  0  0  0  0  0  0
   30.4075   27.3052   48.3146 N   0  0  0  0  0  0  0  0  0  0  0  0
   37.7500   30.0412   49.2223 O   0  0  0  0  0  0  0  0  0  0  0  0
   38.1602   31.2988   48.7844 C   0  0  0  0  0  0  0  0  0  0  0  0
   37.8767   32.3453   49.6735 C   0  0  0  0  0  0  0  0  0  0  0  0
   38.3373   33.5207   49.1093 C   0  0  0  0  0  0  0  0  0  0  0  0
   38.8704   33.1673   47.9316 N   0  0  0  0  0  0  0  0  0  0  0  0
   38.7717   31.8759   47.7342 N   0  0  0  0  0  0  0  0  0  0  0  0
   33.9256   27.7879   50.1420 H   0  0  0  0  0  0  0  0  0  0  0  0
   36.1869   28.4869   50.7391 H   0  0  0  0  0  0  0  0  0  0  0  0
   36.3807   30.6031   47.0861 H   0  0  0  0  0  0  0  0  0  0  0  0
   31.9856   27.3577   49.6810 H   0  0  0  0  0  0  0  0  0  0  0  0
   32.6780   29.3305   45.9819 H   0  0  0  0  0  0  0  0  0  0  0  0
   29.0039   27.4386   46.7019 H   0  0  0  0  0  0  0  0  0  0  0  0
   37.3968   32.4069   50.6553 H   0  0  0  0  0  0  0  0  0  0  0  0
   38.3688   34.5602   49.3644 H   0  0  0  0  0  0  0  0  0  0  0  0
   39.5213   33.8398   46.8316 C   0  0  0  0  0  0  0  0  0  0  0  0
   39.5065   35.2368   46.7289 C   0  0  0  0  0  0  0  0  0  0  0  0
   39.0087   35.8288   47.4700 H   0  0  0  0  0  0  0  0  0  0  0  0
   40.1551   35.7981   45.6427 C   0  0  0  0  0  0  0  0  0  0  0  0
   40.8074   35.0723   44.6670 C   0  0  0  0  0  0  0  0  0  0  0  0
   41.3062   35.5392   43.8285 H   0  0  0  0  0  0  0  0  0  0  0  0
   40.8209   33.6786   44.7715 C   0  0  0  0  0  0  0  0  0  0  0  0
   41.3224   33.0777   44.0255 H   0  0  0  0  0  0  0  0  0  0  0  0
   40.1774   33.1026   45.8509 C   0  0  0  0  0  0  0  0  0  0  0  0
   40.1528   36.8840   45.5480 H   0  0  0  0  0  0  0  0  0  0  0  0
   40.1841   32.0231   45.9380 H   0  0  0  0  0  0  0  0  0  0  0  0
  1  2  2  0
  2  3  1  0
  4 13  1  0
  4  3  2  0
  5  4  1  0
  6  5  2  0
  6  1  1  0
  8  1  1  0
  8  7  2  0
  9  8  1  0
 10  9  2  0
 10 11  1  0
 11 12  2  0
 12  7  1  0
 14 13  1  0
 14 15  1  0
 16 15  2  0
 17 16  1  0
 18 17  1  0
 18 14  2  0
  2 19  1  0
  3 20  1  0
  5 21  1  0
  7 22  1  0
  9 23  1  0
 11 24  1  0
 15 25  1  0
 16 26  1  0
 27 28  2  0
 28 29  1  0
 28 30  1  0
 30 31  2  0
 31 32  1  0
 31 33  1  0
 33 34  1  0
 33 35  2  0
 35 27  1  0
 30 36  1  0
 35 37  1  0
 17 27  1  0
M  ISO  8  19  14  20  14  21  14  22  14  23  14  24  14  25  14  26  14
M  ISO  3  29  16  32  16  34  16
M  END
>  <DihAtoms>  (1) 
15,16,26,27

>  <DihDeg>  (1) 
108.09900839405213

$$$$
