
 OpenBabel03272504243D

 39 41  0  0  1  0  0  0  0  0999 V2000
   35.5370   28.8830   32.9050 C   0  0  2  0  0  0  0  0  0  0  0  0
   36.2790   27.5600   32.8420 C   0  0  1  0  0  0  0  0  0  0  0  0
   35.9890   27.2230   31.3790 C   0  0  0  0  0  0  0  0  0  0  0  0
   36.3780   28.4020   30.7530 O   0  0  0  0  0  0  0  0  0  0  0  0
   35.9160   29.4420   31.5400 C   0  0  0  0  0  0  0  0  0  0  0  0
   34.4600   28.6620   32.9980 H   0  0  0  0  0  0  0  0  0  0  0  0
   35.8880   26.7980   33.5390 H   0  0  0  0  0  0  0  0  0  0  0  0
   36.6300   26.4090   30.9990 H   0  0  0  0  0  0  0  0  0  0  0  0
   34.9120   27.0030   31.2630 H   0  0  0  0  0  0  0  0  0  0  0  0
   36.6240   30.2600   31.6940 H   0  0  0  0  0  0  0  0  0  0  0  0
   34.9500   29.7720   31.0770 H   0  0  0  0  0  0  0  0  0  0  0  0
   37.6200   27.8340   33.0020 O   0  0  0  0  0  0  0  0  0  0  0  0
   39.7620   26.9010   34.1710 O   0  0  0  0  0  0  0  0  0  0  0  0
   38.2820   27.0380   34.3340 P   0  0  1  0  0  0  0  0  0  0  0  0
   37.9830   27.9540   35.7580 O   0  0  0  0  0  0  0  0  0  0  0  0
   37.1270   28.4590   35.6180 H   0  0  0  0  0  0  0  0  0  0  0  0
   37.5500   25.5100   34.5000 O   0  0  0  0  0  0  0  0  0  0  0  0
   38.5680   24.5900   34.6970 C   0  0  0  0  0  0  0  0  0  0  0  0
   38.5100   23.7430   33.9630 H   0  0  0  0  0  0  0  0  0  0  0  0
   39.5210   25.1110   34.4560 H   0  0  0  0  0  0  0  0  0  0  0  0
   38.6750   24.1260   36.0970 C   0  0  0  0  0  0  0  0  0  0  0  0
   39.7420   23.3110   36.3990 C   0  0  0  0  0  0  0  0  0  0  0  0
   39.9020   22.8370   37.7040 C   0  0  0  0  0  0  0  0  0  0  0  0
   38.9670   23.2210   38.6190 N   0  0  0  0  0  0  0  0  0  0  0  0
   37.9300   24.0200   38.3020 C   0  0  0  0  0  0  0  0  0  0  0  0
   37.7770   24.4800   37.0320 N   0  0  0  0  0  0  0  0  0  0  0  0
   40.5260   22.9540   35.7520 H   0  0  0  0  0  0  0  0  0  0  0  0
   40.6930   22.1980   38.0550 H   0  0  0  0  0  0  0  0  0  0  0  0
   37.2600   24.2570   39.0960 H   0  0  0  0  0  0  0  0  0  0  0  0
   36.0520   29.6160   33.9480 O   0  0  0  0  0  0  0  0  0  0  0  0
   35.4090   30.3810   34.8780 C   0  0  0  0  0  0  0  0  0  0  0  0
   35.9760   31.2700   35.7400 C   0  0  0  0  0  0  0  0  0  0  0  0
   37.0500   31.3760   35.6770 H   0  0  0  0  0  0  0  0  0  0  0  0
   35.1740   31.9690   36.6280 C   0  0  0  0  0  3  0  0  0  0  0  0
   33.8110   31.7550   36.6230 C   0  0  0  0  0  0  0  0  0  0  0  0
   33.2520   32.3470   37.3540 H   0  0  0  0  0  0  0  0  0  0  0  0
   33.2020   30.8600   35.7620 C   0  0  0  0  0  0  0  0  0  0  0  0
   32.1480   30.7160   35.7820 H   0  0  0  0  0  0  0  0  0  0  0  0
   34.0240   30.1740   34.8860 C   0  0  0  0  0  3  0  0  0  0  0  0
  1  6  1  1  0  0  0
  1 30  1  0  0  0  0
  2  1  1  0  0  0  0
  2 12  1  0  0  0  0
  2  7  1  1  0  0  0
  3  2  1  0  0  0  0
  4  3  1  0  0  0  0
  4  5  1  0  0  0  0
  5 10  1  0  0  0  0
  5  1  1  0  0  0  0
  8  3  1  0  0  0  0
  9  3  1  0  0  0  0
 11  5  1  0  0  0  0
 12 14  1  0  0  0  0
 14 13  2  6  0  0  0
 14 17  1  0  0  0  0
 14 15  1  0  0  0  0
 16 15  1  0  0  0  0
 17 18  1  0  0  0  0
 18 21  1  0  0  0  0
 19 18  1  0  0  0  0
 20 18  1  0  0  0  0
 21 22  2  0  0  0  0
 21 26  1  0  0  0  0
 22 23  1  0  0  0  0
 23 28  1  0  0  0  0
 23 24  2  0  0  0  0
 25 24  1  0  0  0  0
 25 29  1  0  0  0  0
 26 25  2  0  0  0  0
 27 22  1  0  0  0  0
 30 31  1  0  0  0  0
 31 39  2  0  0  0  0
 31 32  1  0  0  0  0
 32 34  2  0  0  0  0
 33 32  1  0  0  0  0
 35 34  1  0  0  0  0
 35 36  1  0  0  0  0
 37 38  1  0  0  0  0
 37 35  2  0  0  0  0
 39 37  1  0  0  0  0
M  END
>  <minimizedAffinity>
-5.53584099

$$$$

 OpenBabel03272504243D

 39 41  0  0  1  0  0  0  0  0999 V2000
   36.3510   24.4600   31.0140 C   0  0  2  0  0  0  0  0  0  0  0  0
   37.1370   25.6300   31.5740 C   0  0  1  0  0  0  0  0  0  0  0  0
   36.3960   26.7520   30.8460 C   0  0  0  0  0  0  0  0  0  0  0  0
   35.0760   26.4410   31.1520 O   0  0  0  0  0  0  0  0  0  0  0  0
   34.9550   25.0670   31.0390 C   0  0  0  0  0  0  0  0  0  0  0  0
   36.7190   24.2630   29.9930 H   0  0  0  0  0  0  0  0  0  0  0  0
   38.2130   25.6020   31.3270 H   0  0  0  0  0  0  0  0  0  0  0  0
   36.6170   27.7480   31.2690 H   0  0  0  0  0  0  0  0  0  0  0  0
   36.6180   26.6920   29.7640 H   0  0  0  0  0  0  0  0  0  0  0  0
   34.3890   24.5820   31.8380 H   0  0  0  0  0  0  0  0  0  0  0  0
   34.5320   24.8790   30.0180 H   0  0  0  0  0  0  0  0  0  0  0  0
   36.8720   25.6950   32.9250 O   0  0  0  0  0  0  0  0  0  0  0  0
   38.9140   27.3200   33.0340 O   0  0  0  0  0  0  0  0  0  0  0  0
   38.1890   26.2680   33.8100 P   0  0  1  0  0  0  0  0  0  0  0  0
   37.6320   26.9730   35.2770 O   0  0  0  0  0  0  0  0  0  0  0  0
   36.7860   26.5000   35.5360 H   0  0  0  0  0  0  0  0  0  0  0  0
   39.2270   24.9710   34.1830 O   0  0  0  0  0  0  0  0  0  0  0  0
   38.4380   23.9510   34.6900 C   0  0  0  0  0  0  0  0  0  0  0  0
   37.3680   24.0540   34.3690 H   0  0  0  0  0  0  0  0  0  0  0  0
   38.7880   23.0080   34.2140 H   0  0  0  0  0  0  0  0  0  0  0  0
   38.5810   23.7710   36.1510 C   0  0  0  0  0  0  0  0  0  0  0  0
   39.6520   23.0220   36.5810 C   0  0  0  0  0  0  0  0  0  0  0  0
   39.8450   22.8130   37.9500 C   0  0  0  0  0  0  0  0  0  0  0  0
   38.9370   23.3790   38.7940 N   0  0  0  0  0  0  0  0  0  0  0  0
   37.8950   24.1080   38.3520 C   0  0  0  0  0  0  0  0  0  0  0  0
   37.7090   24.3100   37.0200 N   0  0  0  0  0  0  0  0  0  0  0  0
   40.4180   22.5380   35.9980 H   0  0  0  0  0  0  0  0  0  0  0  0
   40.6430   22.2500   38.3990 H   0  0  0  0  0  0  0  0  0  0  0  0
   37.2460   24.5040   39.1000 H   0  0  0  0  0  0  0  0  0  0  0  0
   36.4900   23.3970   31.8750 O   0  0  0  0  0  0  0  0  0  0  0  0
   36.2960   22.0630   31.6540 C   0  0  0  0  0  0  0  0  0  0  0  0
   37.0690   21.2390   30.8950 C   0  0  0  0  0  0  0  0  0  0  0  0
   37.9260   21.6950   30.4190 H   0  0  0  0  0  0  0  0  0  0  0  0
   36.7300   19.9010   30.7740 C   0  0  0  0  0  3  0  0  0  0  0  0
   35.6120   19.4250   31.4260 C   0  0  0  0  0  0  0  0  0  0  0  0
   35.4150   18.3580   31.2790 H   0  0  0  0  0  0  0  0  0  0  0  0
   34.8040   20.2330   32.2050 C   0  0  0  0  0  0  0  0  0  0  0  0
   33.9480   19.8360   32.6960 H   0  0  0  0  0  0  0  0  0  0  0  0
   35.1650   21.5640   32.3100 C   0  0  0  0  0  3  0  0  0  0  0  0
  1  6  1  6  0  0  0
  1  5  1  0  0  0  0
  1  2  1  0  0  0  0
  1 30  1  0  0  0  0
  2  7  1  6  0  0  0
  2 12  1  0  0  0  0
  3  4  1  0  0  0  0
  3  8  1  0  0  0  0
  3  2  1  0  0  0  0
  5  4  1  0  0  0  0
  5 10  1  0  0  0  0
  9  3  1  0  0  0  0
 11  5  1  0  0  0  0
 12 14  1  0  0  0  0
 14 13  2  6  0  0  0
 14 17  1  0  0  0  0
 14 15  1  0  0  0  0
 15 16  1  0  0  0  0
 17 18  1  0  0  0  0
 18 21  1  0  0  0  0
 19 18  1  0  0  0  0
 20 18  1  0  0  0  0
 21 22  2  0  0  0  0
 21 26  1  0  0  0  0
 22 23  1  0  0  0  0
 23 28  1  0  0  0  0
 23 24  2  0  0  0  0
 25 24  1  0  0  0  0
 25 29  1  0  0  0  0
 26 25  2  0  0  0  0
 27 22  1  0  0  0  0
 31 30  1  0  0  0  0
 31 39  1  0  0  0  0
 32 31  2  0  0  0  0
 33 32  1  0  0  0  0
 34 32  1  0  0  0  0
 34 35  2  0  0  0  0
 35 37  1  0  0  0  0
 36 35  1  0  0  0  0
 37 39  2  0  0  0  0
 37 38  1  0  0  0  0
M  END
>  <minimizedAffinity>
-5.41795301

$$$$

 OpenBabel03272504243D

 39 41  0  0  1  0  0  0  0  0999 V2000
   38.0470   22.6990   35.7310 C   0  0  2  0  0  0  0  0  0  0  0  0
   38.0000   24.1280   36.2400 C   0  0  1  0  0  0  0  0  0  0  0  0
   38.5410   23.8710   37.6470 C   0  0  0  0  0  0  0  0  0  0  0  0
   39.6940   23.1500   37.3600 O   0  0  0  0  0  0  0  0  0  0  0  0
   39.3670   22.2610   36.3500 C   0  0  0  0  0  0  0  0  0  0  0  0
   37.1750   22.1640   36.1460 H   0  0  0  0  0  0  0  0  0  0  0  0
   36.9860   24.5640   36.2490 H   0  0  0  0  0  0  0  0  0  0  0  0
   38.8410   24.8010   38.1600 H   0  0  0  0  0  0  0  0  0  0  0  0
   37.7960   23.2910   38.2220 H   0  0  0  0  0  0  0  0  0  0  0  0
   40.1050   22.1750   35.5490 H   0  0  0  0  0  0  0  0  0  0  0  0
   39.1470   21.2860   36.8580 H   0  0  0  0  0  0  0  0  0  0  0  0
   38.9180   24.8540   35.5120 O   0  0  0  0  0  0  0  0  0  0  0  0
   36.8540   26.4090   35.1300 O   0  0  0  0  0  0  0  0  0  0  0  0
   38.3490   26.3910   35.1150 P   0  0  1  0  0  0  0  0  0  0  0  0
   38.9100   27.5290   36.2760 O   0  0  0  0  0  0  0  0  0  0  0  0
   39.7880   27.1930   36.6280 H   0  0  0  0  0  0  0  0  0  0  0  0
   38.9410   26.8350   33.5810 O   0  0  0  0  0  0  0  0  0  0  0  0
   38.0240   26.3840   32.6450 C   0  0  0  0  0  0  0  0  0  0  0  0
   38.4310   25.5310   32.0420 H   0  0  0  0  0  0  0  0  0  0  0  0
   37.1730   25.9490   33.2140 H   0  0  0  0  0  0  0  0  0  0  0  0
   37.4680   27.4650   31.8020 C   0  0  0  0  0  0  0  0  0  0  0  0
   37.9850   27.5890   30.5340 C   0  0  0  0  0  0  0  0  0  0  0  0
   37.5040   28.5910   29.6860 C   0  0  0  0  0  0  0  0  0  0  0  0
   36.5270   29.4020   30.1820 N   0  0  0  0  0  0  0  0  0  0  0  0
   36.0340   29.2630   31.4270 C   0  0  0  0  0  0  0  0  0  0  0  0
   36.5040   28.2880   32.2500 N   0  0  0  0  0  0  0  0  0  0  0  0
   38.7520   27.0040   30.0540 H   0  0  0  0  0  0  0  0  0  0  0  0
   37.8300   28.7810   28.6790 H   0  0  0  0  0  0  0  0  0  0  0  0
   35.2720   29.9530   31.7110 H   0  0  0  0  0  0  0  0  0  0  0  0
   38.0830   22.7330   34.3570 O   0  0  0  0  0  0  0  0  0  0  0  0
   37.1660   22.2860   33.4490 C   0  0  0  0  0  0  0  0  0  0  0  0
   36.9230   22.8010   32.2120 C   0  0  0  0  0  0  0  0  0  0  0  0
   37.5220   23.6540   31.9240 H   0  0  0  0  0  0  0  0  0  0  0  0
   35.9500   22.2250   31.4100 C   0  0  0  0  0  3  0  0  0  0  0  0
   35.2430   21.1370   31.8790 C   0  0  0  0  0  0  0  0  0  0  0  0
   34.4950   20.7430   31.1840 H   0  0  0  0  0  0  0  0  0  0  0  0
   35.4640   20.5890   33.1290 C   0  0  0  0  0  0  0  0  0  0  0  0
   34.9020   19.7500   33.4630 H   0  0  0  0  0  0  0  0  0  0  0  0
   36.4400   21.1820   33.9100 C   0  0  0  0  0  3  0  0  0  0  0  0
  1  6  1  1  0  0  0
  1  2  1  0  0  0  0
  1  5  1  0  0  0  0
  2  7  1  6  0  0  0
  2  3  1  0  0  0  0
  3  8  1  0  0  0  0
  3  9  1  0  0  0  0
  4  3  1  0  0  0  0
  5 11  1  0  0  0  0
  5  4  1  0  0  0  0
 10  5  1  0  0  0  0
 12  2  1  0  0  0  0
 14 13  2  6  0  0  0
 14 12  1  0  0  0  0
 14 15  1  0  0  0  0
 15 16  1  0  0  0  0
 17 14  1  0  0  0  0
 18 20  1  0  0  0  0
 18 17  1  0  0  0  0
 19 18  1  0  0  0  0
 21 26  1  0  0  0  0
 21 18  1  0  0  0  0
 22 21  2  0  0  0  0
 23 24  2  0  0  0  0
 23 22  1  0  0  0  0
 24 25  1  0  0  0  0
 25 29  1  0  0  0  0
 25 26  2  0  0  0  0
 27 22  1  0  0  0  0
 28 23  1  0  0  0  0
 30  1  1  0  0  0  0
 31 39  1  0  0  0  0
 31 30  1  0  0  0  0
 32 31  2  0  0  0  0
 33 32  1  0  0  0  0
 34 35  2  0  0  0  0
 34 32  1  0  0  0  0
 35 37  1  0  0  0  0
 36 35  1  0  0  0  0
 37 38  1  0  0  0  0
 37 39  2  0  0  0  0
M  END
>  <minimizedAffinity>
-5.22657061

$$$$

 OpenBabel03272504243D

 39 41  0  0  1  0  0  0  0  0999 V2000
   37.7170   26.0040   34.7710 C   0  0  2  0  0  0  0  0  0  0  0  0
   37.1160   26.1290   33.3830 C   0  0  1  0  0  0  0  0  0  0  0  0
   37.6320   27.5290   33.0530 C   0  0  0  0  0  0  0  0  0  0  0  0
   38.9850   27.3880   33.3400 O   0  0  0  0  0  0  0  0  0  0  0  0
   39.0690   26.6570   34.5120 C   0  0  0  0  0  0  0  0  0  0  0  0
   37.0850   26.5810   35.4670 H   0  0  0  0  0  0  0  0  0  0  0  0
   36.0130   26.0700   33.3700 H   0  0  0  0  0  0  0  0  0  0  0  0
   37.5370   27.7720   31.9790 H   0  0  0  0  0  0  0  0  0  0  0  0
   37.1240   28.2670   33.7010 H   0  0  0  0  0  0  0  0  0  0  0  0
   39.8300   25.8730   34.5190 H   0  0  0  0  0  0  0  0  0  0  0  0
   39.1970   27.4080   35.3340 H   0  0  0  0  0  0  0  0  0  0  0  0
   37.7390   25.1980   32.5800 O   0  0  0  0  0  0  0  0  0  0  0  0
   35.7980   25.7400   30.9160 O   0  0  0  0  0  0  0  0  0  0  0  0
   36.7390   24.6550   31.3350 P   0  0  1  0  0  0  0  0  0  0  0  0
   37.6980   24.2240   29.9740 O   0  0  0  0  0  0  0  0  0  0  0  0
   38.5900   23.9190   30.3190 H   0  0  0  0  0  0  0  0  0  0  0  0
   35.8790   23.2820   31.8590 O   0  0  0  0  0  0  0  0  0  0  0  0
   36.7930   22.4370   32.4680 C   0  0  0  0  0  0  0  0  0  0  0  0
   37.8500   22.7150   32.2140 H   0  0  0  0  0  0  0  0  0  0  0  0
   36.7090   22.6100   33.5640 H   0  0  0  0  0  0  0  0  0  0  0  0
   36.5100   21.0030   32.2380 C   0  0  0  0  0  0  0  0  0  0  0  0
   35.1940   20.6120   32.3190 C   0  0  0  0  0  0  0  0  0  0  0  0
   34.8580   19.2710   32.1120 C   0  0  0  0  0  0  0  0  0  0  0  0
   35.8810   18.4140   31.8380 N   0  0  0  0  0  0  0  0  0  0  0  0
   37.1630   18.8180   31.7640 C   0  0  0  0  0  0  0  0  0  0  0  0
   37.4880   20.1230   31.9650 N   0  0  0  0  0  0  0  0  0  0  0  0
   34.3210   21.2080   32.5280 H   0  0  0  0  0  0  0  0  0  0  0  0
   33.8680   18.8520   32.1490 H   0  0  0  0  0  0  0  0  0  0  0  0
   37.8830   18.0620   31.5430 H   0  0  0  0  0  0  0  0  0  0  0  0
   37.8170   24.6680   35.0780 O   0  0  0  0  0  0  0  0  0  0  0  0
   38.4540   24.0570   36.1200 C   0  0  0  0  0  0  0  0  0  0  0  0
   38.1220   24.1290   37.4380 C   0  0  0  0  0  0  0  0  0  0  0  0
   37.2610   24.7370   37.6800 H   0  0  0  0  0  0  0  0  0  0  0  0
   38.8800   23.4430   38.3740 C   0  0  0  0  0  3  0  0  0  0  0  0
   39.9600   22.6960   37.9540 C   0  0  0  0  0  0  0  0  0  0  0  0
   40.5040   22.1870   38.7550 H   0  0  0  0  0  0  0  0  0  0  0  0
   40.3260   22.6010   36.6240 C   0  0  0  0  0  0  0  0  0  0  0  0
   41.1660   22.0160   36.3300 H   0  0  0  0  0  0  0  0  0  0  0  0
   39.5540   23.2940   35.7090 C   0  0  0  0  0  3  0  0  0  0  0  0
  1 30  1  0  0  0  0
  1  6  1  1  0  0  0
  2  7  1  6  0  0  0
  2  1  1  0  0  0  0
  3  4  1  0  0  0  0
  3  2  1  0  0  0  0
  3  9  1  0  0  0  0
  4  5  1  0  0  0  0
  5 10  1  0  0  0  0
  5  1  1  0  0  0  0
  5 11  1  0  0  0  0
  8  3  1  0  0  0  0
 12  2  1  0  0  0  0
 14 13  2  6  0  0  0
 14 17  1  0  0  0  0
 14 12  1  0  0  0  0
 15 16  1  0  0  0  0
 15 14  1  0  0  0  0
 17 18  1  0  0  0  0
 18 20  1  0  0  0  0
 19 18  1  0  0  0  0
 21 22  1  0  0  0  0
 21 18  1  0  0  0  0
 22 27  1  0  0  0  0
 23 28  1  0  0  0  0
 23 22  2  0  0  0  0
 24 23  1  0  0  0  0
 25 24  2  0  0  0  0
 25 26  1  0  0  0  0
 26 21  2  0  0  0  0
 29 25  1  0  0  0  0
 30 31  1  0  0  0  0
 31 32  1  0  0  0  0
 32 33  1  0  0  0  0
 32 34  2  0  0  0  0
 35 34  1  0  0  0  0
 35 36  1  0  0  0  0
 37 35  2  0  0  0  0
 38 37  1  0  0  0  0
 39 31  2  0  0  0  0
 39 37  1  0  0  0  0
M  END
>  <minimizedAffinity>
-5.18542624

$$$$

 OpenBabel03272504243D

 39 41  0  0  1  0  0  0  0  0999 V2000
   38.2470   22.6390   33.6130 C   0  0  2  0  0  0  0  0  0  0  0  0
   37.8420   23.3270   32.3220 C   0  0  1  0  0  0  0  0  0  0  0  0
   37.3310   22.0940   31.5750 C   0  0  0  0  0  0  0  0  0  0  0  0
   36.4590   21.5570   32.5150 O   0  0  0  0  0  0  0  0  0  0  0  0
   37.0850   21.6630   33.7450 C   0  0  0  0  0  0  0  0  0  0  0  0
   39.2150   22.1390   33.4400 H   0  0  0  0  0  0  0  0  0  0  0  0
   38.6800   23.8210   31.8000 H   0  0  0  0  0  0  0  0  0  0  0  0
   36.7430   22.3580   30.6780 H   0  0  0  0  0  0  0  0  0  0  0  0
   38.1840   21.4300   31.3430 H   0  0  0  0  0  0  0  0  0  0  0  0
   36.4480   22.0040   34.5640 H   0  0  0  0  0  0  0  0  0  0  0  0
   37.5580   20.6650   33.9360 H   0  0  0  0  0  0  0  0  0  0  0  0
   36.7890   24.1660   32.6160 O   0  0  0  0  0  0  0  0  0  0  0  0
   37.7480   25.4390   30.5460 O   0  0  0  0  0  0  0  0  0  0  0  0
   36.5360   25.3210   31.4130 P   0  0  1  0  0  0  0  0  0  0  0  0
   35.2150   24.8400   30.4230 O   0  0  0  0  0  0  0  0  0  0  0  0
   34.5920   24.2980   30.9940 H   0  0  0  0  0  0  0  0  0  0  0  0
   36.1650   26.8170   32.1360 O   0  0  0  0  0  0  0  0  0  0  0  0
   37.3400   27.5510   32.1790 C   0  0  0  0  0  0  0  0  0  0  0  0
   37.9510   27.4100   31.2490 H   0  0  0  0  0  0  0  0  0  0  0  0
   37.0470   28.6250   32.1670 H   0  0  0  0  0  0  0  0  0  0  0  0
   38.1220   27.3350   33.4150 C   0  0  0  0  0  0  0  0  0  0  0  0
   37.4610   27.5230   34.6060 C   0  0  0  0  0  0  0  0  0  0  0  0
   38.1430   27.3350   35.8120 C   0  0  0  0  0  0  0  0  0  0  0  0
   39.4530   26.9670   35.7300 N   0  0  0  0  0  0  0  0  0  0  0  0
   40.0810   26.7890   34.5520 C   0  0  0  0  0  0  0  0  0  0  0  0
   39.4150   26.9720   33.3810 N   0  0  0  0  0  0  0  0  0  0  0  0
   36.4370   27.8110   34.7750 H   0  0  0  0  0  0  0  0  0  0  0  0
   37.7310   27.4510   36.7990 H   0  0  0  0  0  0  0  0  0  0  0  0
   41.1060   26.5010   34.6050 H   0  0  0  0  0  0  0  0  0  0  0  0
   38.2720   23.5820   34.6130 O   0  0  0  0  0  0  0  0  0  0  0  0
   38.6140   23.4500   35.9280 C   0  0  0  0  0  0  0  0  0  0  0  0
   39.7440   22.8760   36.4260 C   0  0  0  0  0  0  0  0  0  0  0  0
   40.4410   22.4850   35.6970 H   0  0  0  0  0  0  0  0  0  0  0  0
   39.9390   22.8230   37.7970 C   0  0  0  0  0  3  0  0  0  0  0  0
   38.9820   23.3540   38.6370 C   0  0  0  0  0  0  0  0  0  0  0  0
   39.2120   23.2720   39.7040 H   0  0  0  0  0  0  0  0  0  0  0  0
   37.8230   23.9440   38.1660 C   0  0  0  0  0  0  0  0  0  0  0  0
   37.1030   24.3450   38.8400 H   0  0  0  0  0  0  0  0  0  0  0  0
   37.6530   23.9840   36.7940 C   0  0  0  0  0  3  0  0  0  0  0  0
  1  6  1  6  0  0  0
  1  5  1  0  0  0  0
  1 30  1  0  0  0  0
  2  7  1  6  0  0  0
  2 12  1  0  0  0  0
  2  1  1  0  0  0  0
  3  2  1  0  0  0  0
  3  4  1  0  0  0  0
  4  5  1  0  0  0  0
  5 11  1  0  0  0  0
  5 10  1  0  0  0  0
  8  3  1  0  0  0  0
  9  3  1  0  0  0  0
 14 13  2  6  0  0  0
 14 17  1  0  0  0  0
 14 12  1  0  0  0  0
 15 16  1  0  0  0  0
 15 14  1  0  0  0  0
 17 18  1  0  0  0  0
 18 21  1  0  0  0  0
 19 18  1  0  0  0  0
 20 18  1  0  0  0  0
 21 22  1  0  0  0  0
 22 27  1  0  0  0  0
 22 23  2  0  0  0  0
 23 28  1  0  0  0  0
 24 23  1  0  0  0  0
 25 29  1  0  0  0  0
 25 24  2  0  0  0  0
 26 21  2  0  0  0  0
 26 25  1  0  0  0  0
 30 31  1  0  0  0  0
 31 32  2  0  0  0  0
 31 39  1  0  0  0  0
 32 34  1  0  0  0  0
 33 32  1  0  0  0  0
 34 35  2  0  0  0  0
 35 36  1  0  0  0  0
 37 35  1  0  0  0  0
 37 38  1  0  0  0  0
 39 37  2  0  0  0  0
M  END
>  <minimizedAffinity>
-5.17041159

$$$$

 OpenBabel03272504243D

 39 41  0  0  1  0  0  0  0  0999 V2000
   37.8230   25.6070   34.3260 C   0  0  2  0  0  0  0  0  0  0  0  0
   37.3640   25.3350   32.9060 C   0  0  1  0  0  0  0  0  0  0  0  0
   37.1230   26.7840   32.4800 C   0  0  0  0  0  0  0  0  0  0  0  0
   38.3290   27.3720   32.8440 O   0  0  0  0  0  0  0  0  0  0  0  0
   38.6710   26.8470   34.0780 C   0  0  0  0  0  0  0  0  0  0  0  0
   36.9270   25.8100   34.9380 H   0  0  0  0  0  0  0  0  0  0  0  0
   36.4510   24.7180   32.8440 H   0  0  0  0  0  0  0  0  0  0  0  0
   37.0110   26.8890   31.3860 H   0  0  0  0  0  0  0  0  0  0  0  0
   36.2560   27.1870   33.0350 H   0  0  0  0  0  0  0  0  0  0  0  0
   39.7210   26.5670   34.1900 H   0  0  0  0  0  0  0  0  0  0  0  0
   38.3270   27.5970   34.8370 H   0  0  0  0  0  0  0  0  0  0  0  0
   38.4410   24.8190   32.2180 O   0  0  0  0  0  0  0  0  0  0  0  0
   36.4790   23.8510   30.7900 O   0  0  0  0  0  0  0  0  0  0  0  0
   37.9700   23.9400   30.8570 P   0  0  1  0  0  0  0  0  0  0  0  0
   38.5220   24.7390   29.4380 O   0  0  0  0  0  0  0  0  0  0  0  0
   39.3630   25.2330   29.6780 H   0  0  0  0  0  0  0  0  0  0  0  0
   38.6650   22.3870   30.9190 O   0  0  0  0  0  0  0  0  0  0  0  0
   38.6830   22.0020   32.2500 C   0  0  0  0  0  0  0  0  0  0  0  0
   39.6720   21.5600   32.5410 H   0  0  0  0  0  0  0  0  0  0  0  0
   38.5990   22.9320   32.8540 H   0  0  0  0  0  0  0  0  0  0  0  0
   37.5410   21.1410   32.6270 C   0  0  0  0  0  0  0  0  0  0  0  0
   36.8660   21.4770   33.7780 C   0  0  0  0  0  0  0  0  0  0  0  0
   35.7770   20.7050   34.1910 C   0  0  0  0  0  0  0  0  0  0  0  0
   35.4430   19.6400   33.4080 N   0  0  0  0  0  0  0  0  0  0  0  0
   36.1170   19.3290   32.2850 C   0  0  0  0  0  0  0  0  0  0  0  0
   37.1760   20.0820   31.8850 N   0  0  0  0  0  0  0  0  0  0  0  0
   37.0520   22.2910   34.4590 H   0  0  0  0  0  0  0  0  0  0  0  0
   35.1770   20.8710   35.0680 H   0  0  0  0  0  0  0  0  0  0  0  0
   35.7690   18.4750   31.7490 H   0  0  0  0  0  0  0  0  0  0  0  0
   38.5610   24.5290   34.7540 O   0  0  0  0  0  0  0  0  0  0  0  0
   38.7730   24.0620   36.0200 C   0  0  0  0  0  0  0  0  0  0  0  0
   39.7360   23.1860   36.4190 C   0  0  0  0  0  0  0  0  0  0  0  0
   40.4000   22.8240   35.6460 H   0  0  0  0  0  0  0  0  0  0  0  0
   39.8130   22.8130   37.7510 C   0  0  0  0  0  3  0  0  0  0  0  0
   38.9120   23.3380   38.6540 C   0  0  0  0  0  0  0  0  0  0  0  0
   39.0420   22.9920   39.6840 H   0  0  0  0  0  0  0  0  0  0  0  0
   37.9220   24.2300   38.2840 C   0  0  0  0  0  0  0  0  0  0  0  0
   37.2410   24.6170   39.0040 H   0  0  0  0  0  0  0  0  0  0  0  0
   37.8660   24.5860   36.9480 C   0  0  0  0  0  3  0  0  0  0  0  0
  1 30  1  0  0  0  0
  1  6  1  1  0  0  0
  2  7  1  6  0  0  0
  2  1  1  0  0  0  0
  3  4  1  0  0  0  0
  3  2  1  0  0  0  0
  3  9  1  0  0  0  0
  4  5  1  0  0  0  0
  5 10  1  0  0  0  0
  5  1  1  0  0  0  0
  5 11  1  0  0  0  0
  8  3  1  0  0  0  0
 12  2  1  0  0  0  0
 14 13  2  6  0  0  0
 14 17  1  0  0  0  0
 14 12  1  0  0  0  0
 15 16  1  0  0  0  0
 15 14  1  0  0  0  0
 17 18  1  0  0  0  0
 18 19  1  0  0  0  0
 18 21  1  0  0  0  0
 18 20  1  0  0  0  0
 21 22  1  0  0  0  0
 22 23  2  0  0  0  0
 22 27  1  0  0  0  0
 23 28  1  0  0  0  0
 24 23  1  0  0  0  0
 25 24  2  0  0  0  0
 26 25  1  0  0  0  0
 26 21  2  0  0  0  0
 29 25  1  0  0  0  0
 30 31  1  0  0  0  0
 31 32  2  0  0  0  0
 31 39  1  0  0  0  0
 32 34  1  0  0  0  0
 33 32  1  0  0  0  0
 34 35  2  0  0  0  0
 35 36  1  0  0  0  0
 37 35  1  0  0  0  0
 37 38  1  0  0  0  0
 39 37  2  0  0  0  0
M  END
>  <minimizedAffinity>
-5.12288809

$$$$

 OpenBabel03272504243D

 39 41  0  0  1  0  0  0  0  0999 V2000
   36.5090   24.4900   31.1140 C   0  0  2  0  0  0  0  0  0  0  0  0
   37.1730   25.6940   31.7570 C   0  0  1  0  0  0  0  0  0  0  0  0
   36.4430   26.7830   30.9710 C   0  0  0  0  0  0  0  0  0  0  0  0
   35.1190   26.3970   31.1480 O   0  0  0  0  0  0  0  0  0  0  0  0
   35.0850   25.0200   31.0110 C   0  0  0  0  0  0  0  0  0  0  0  0
   36.9830   24.3280   30.1310 H   0  0  0  0  0  0  0  0  0  0  0  0
   38.2670   25.7280   31.6130 H   0  0  0  0  0  0  0  0  0  0  0  0
   36.5670   27.7840   31.4220 H   0  0  0  0  0  0  0  0  0  0  0  0
   36.7690   26.7510   29.9150 H   0  0  0  0  0  0  0  0  0  0  0  0
   34.4740   24.4930   31.7480 H   0  0  0  0  0  0  0  0  0  0  0  0
   34.7720   24.8240   29.9530 H   0  0  0  0  0  0  0  0  0  0  0  0
   36.7780   25.7250   33.0770 O   0  0  0  0  0  0  0  0  0  0  0  0
   38.9740   27.1320   33.2200 O   0  0  0  0  0  0  0  0  0  0  0  0
   37.8440   26.6040   34.0440 P   0  0  1  0  0  0  0  0  0  0  0  0
   37.0180   27.9430   34.7390 O   0  0  0  0  0  0  0  0  0  0  0  0
   36.0550   27.6810   34.8440 H   0  0  0  0  0  0  0  0  0  0  0  0
   38.4250   25.6060   35.2950 O   0  0  0  0  0  0  0  0  0  0  0  0
   39.4060   24.7950   34.7470 C   0  0  0  0  0  0  0  0  0  0  0  0
   39.0620   24.3130   33.7950 H   0  0  0  0  0  0  0  0  0  0  0  0
   40.2410   25.4650   34.4410 H   0  0  0  0  0  0  0  0  0  0  0  0
   39.9680   23.8230   35.7100 C   0  0  0  0  0  0  0  0  0  0  0  0
   39.2550   23.6160   36.8670 C   0  0  0  0  0  0  0  0  0  0  0  0
   39.7310   22.7090   37.8190 C   0  0  0  0  0  0  0  0  0  0  0  0
   40.9020   22.0720   37.5330 N   0  0  0  0  0  0  0  0  0  0  0  0
   41.5840   22.2890   36.3930 C   0  0  0  0  0  0  0  0  0  0  0  0
   41.1180   23.1720   35.4680 N   0  0  0  0  0  0  0  0  0  0  0  0
   38.3300   24.0670   37.1830 H   0  0  0  0  0  0  0  0  0  0  0  0
   39.2610   22.4670   38.7560 H   0  0  0  0  0  0  0  0  0  0  0  0
   42.4880   21.7360   36.2720 H   0  0  0  0  0  0  0  0  0  0  0  0
   36.6250   23.4240   31.9750 O   0  0  0  0  0  0  0  0  0  0  0  0
   36.2280   22.1270   31.8160 C   0  0  0  0  0  0  0  0  0  0  0  0
   35.1450   21.5270   32.3830 C   0  0  0  0  0  0  0  0  0  0  0  0
   34.5380   22.1500   33.0260 H   0  0  0  0  0  0  0  0  0  0  0  0
   34.8830   20.1930   32.1160 C   0  0  0  0  0  3  0  0  0  0  0  0
   35.7260   19.4930   31.2790 C   0  0  0  0  0  0  0  0  0  0  0  0
   35.4490   18.4460   31.1210 H   0  0  0  0  0  0  0  0  0  0  0  0
   36.8350   20.0690   30.6870 C   0  0  0  0  0  0  0  0  0  0  0  0
   37.4670   19.5030   30.0450 H   0  0  0  0  0  0  0  0  0  0  0  0
   37.0740   21.4020   30.9690 C   0  0  0  0  0  3  0  0  0  0  0  0
  1  6  1  6  0  0  0
  1  2  1  0  0  0  0
  1 30  1  0  0  0  0
  2  7  1  6  0  0  0
  2 12  1  0  0  0  0
  3  4  1  0  0  0  0
  3  8  1  0  0  0  0
  3  2  1  0  0  0  0
  5  1  1  0  0  0  0
  5  4  1  0  0  0  0
  5 10  1  0  0  0  0
  9  3  1  0  0  0  0
 11  5  1  0  0  0  0
 12 14  1  0  0  0  0
 14 13  2  6  0  0  0
 14 15  1  0  0  0  0
 14 17  1  0  0  0  0
 15 16  1  0  0  0  0
 18 17  1  0  0  0  0
 18 21  1  0  0  0  0
 19 18  1  0  0  0  0
 20 18  1  0  0  0  0
 21 22  1  0  0  0  0
 22 27  1  0  0  0  0
 22 23  2  0  0  0  0
 23 28  1  0  0  0  0
 24 23  1  0  0  0  0
 25 24  2  0  0  0  0
 26 21  2  0  0  0  0
 26 25  1  0  0  0  0
 29 25  1  0  0  0  0
 31 30  1  0  0  0  0
 31 32  1  0  0  0  0
 32 33  1  0  0  0  0
 34 32  2  0  0  0  0
 35 34  1  0  0  0  0
 36 35  1  0  0  0  0
 37 39  1  0  0  0  0
 37 35  2  0  0  0  0
 38 37  1  0  0  0  0
 39 31  2  0  0  0  0
M  END
>  <minimizedAffinity>
-5.07657528

$$$$

 OpenBabel03272504243D

 39 41  0  0  1  0  0  0  0  0999 V2000
   38.5760   23.2000   33.5260 C   0  0  2  0  0  0  0  0  0  0  0  0
   38.1060   23.9210   32.2760 C   0  0  1  0  0  0  0  0  0  0  0  0
   37.5500   22.7090   31.5280 C   0  0  0  0  0  0  0  0  0  0  0  0
   36.7270   22.1520   32.4990 O   0  0  0  0  0  0  0  0  0  0  0  0
   37.4190   22.2240   33.6960 C   0  0  0  0  0  0  0  0  0  0  0  0
   39.5310   22.7010   33.2890 H   0  0  0  0  0  0  0  0  0  0  0  0
   38.9170   24.4260   31.7230 H   0  0  0  0  0  0  0  0  0  0  0  0
   36.9160   22.9980   30.6700 H   0  0  0  0  0  0  0  0  0  0  0  0
   38.3860   22.0490   31.2330 H   0  0  0  0  0  0  0  0  0  0  0  0
   36.8280   22.5470   34.5570 H   0  0  0  0  0  0  0  0  0  0  0  0
   37.8970   21.2200   33.8360 H   0  0  0  0  0  0  0  0  0  0  0  0
   37.0740   24.7560   32.6470 O   0  0  0  0  0  0  0  0  0  0  0  0
   38.1900   26.2610   30.8270 O   0  0  0  0  0  0  0  0  0  0  0  0
   36.9440   26.1020   31.6390 P   0  0  1  0  0  0  0  0  0  0  0  0
   35.6250   25.8850   30.5570 O   0  0  0  0  0  0  0  0  0  0  0  0
   34.9470   25.3080   31.0210 H   0  0  0  0  0  0  0  0  0  0  0  0
   36.6590   27.4900   32.5830 O   0  0  0  0  0  0  0  0  0  0  0  0
   35.6480   28.2050   31.9600 C   0  0  0  0  0  0  0  0  0  0  0  0
   36.0330   28.7920   31.0860 H   0  0  0  0  0  0  0  0  0  0  0  0
   34.9530   27.4570   31.5180 H   0  0  0  0  0  0  0  0  0  0  0  0
   34.8520   29.0290   32.8950 C   0  0  0  0  0  0  0  0  0  0  0  0
   35.5480   29.7090   33.8670 C   0  0  0  0  0  0  0  0  0  0  0  0
   34.8550   30.5070   34.7830 C   0  0  0  0  0  0  0  0  0  0  0  0
   33.5000   30.5610   34.6520 N   0  0  0  0  0  0  0  0  0  0  0  0
   32.8380   29.8860   33.6930 C   0  0  0  0  0  0  0  0  0  0  0  0
   33.5140   29.1110   32.8030 N   0  0  0  0  0  0  0  0  0  0  0  0
   36.6090   29.7310   34.0520 H   0  0  0  0  0  0  0  0  0  0  0  0
   35.2910   31.0820   35.5800 H   0  0  0  0  0  0  0  0  0  0  0  0
   31.7770   30.0010   33.6830 H   0  0  0  0  0  0  0  0  0  0  0  0
   38.6590   24.1170   34.5470 O   0  0  0  0  0  0  0  0  0  0  0  0
   38.6520   23.9220   35.8980 C   0  0  0  0  0  0  0  0  0  0  0  0
   37.7410   24.4010   36.7900 C   0  0  0  0  0  0  0  0  0  0  0  0
   36.9410   25.0000   36.3770 H   0  0  0  0  0  0  0  0  0  0  0  0
   37.8820   24.1080   38.1370 C   0  0  0  0  0  3  0  0  0  0  0  0
   38.9440   23.3330   38.5540 C   0  0  0  0  0  0  0  0  0  0  0  0
   38.9810   23.1490   39.6320 H   0  0  0  0  0  0  0  0  0  0  0  0
   39.8870   22.8300   37.6760 C   0  0  0  0  0  0  0  0  0  0  0  0
   40.6960   22.2350   38.0280 H   0  0  0  0  0  0  0  0  0  0  0  0
   39.7250   23.1370   36.3370 C   0  0  0  0  0  3  0  0  0  0  0  0
  1  6  1  6  0  0  0
  1  5  1  0  0  0  0
  1 30  1  0  0  0  0
  2  7  1  6  0  0  0
  2 12  1  0  0  0  0
  2  1  1  0  0  0  0
  3  2  1  0  0  0  0
  3  4  1  0  0  0  0
  4  5  1  0  0  0  0
  5 11  1  0  0  0  0
  5 10  1  0  0  0  0
  8  3  1  0  0  0  0
  9  3  1  0  0  0  0
 14 13  2  6  0  0  0
 14 17  1  0  0  0  0
 14 12  1  0  0  0  0
 15 16  1  0  0  0  0
 15 14  1  0  0  0  0
 18 17  1  0  0  0  0
 18 21  1  0  0  0  0
 19 18  1  0  0  0  0
 20 18  1  0  0  0  0
 21 22  1  0  0  0  0
 22 27  1  0  0  0  0
 22 23  2  0  0  0  0
 23 28  1  0  0  0  0
 24 23  1  0  0  0  0
 25 24  2  0  0  0  0
 26 21  2  0  0  0  0
 26 25  1  0  0  0  0
 29 25  1  0  0  0  0
 30 31  1  0  0  0  0
 31 39  2  0  0  0  0
 31 32  1  0  0  0  0
 32 34  2  0  0  0  0
 33 32  1  0  0  0  0
 34 35  1  0  0  0  0
 35 36  1  0  0  0  0
 37 38  1  0  0  0  0
 37 35  2  0  0  0  0
 39 37  1  0  0  0  0
M  END
>  <minimizedAffinity>
-5.07565069

$$$$

 OpenBabel03272504243D

 39 41  0  0  1  0  0  0  0  0999 V2000
   38.8290   24.2120   33.5790 C   0  0  2  0  0  0  0  0  0  0  0  0
   38.2350   25.1930   32.5840 C   0  0  1  0  0  0  0  0  0  0  0  0
   37.8300   24.1850   31.5080 C   0  0  0  0  0  0  0  0  0  0  0  0
   37.1140   23.2640   32.2640 O   0  0  0  0  0  0  0  0  0  0  0  0
   37.8190   23.0810   33.4410 C   0  0  0  0  0  0  0  0  0  0  0  0
   39.8370   23.9390   33.2230 H   0  0  0  0  0  0  0  0  0  0  0  0
   38.9570   25.9420   32.2140 H   0  0  0  0  0  0  0  0  0  0  0  0
   37.1420   24.6190   30.7610 H   0  0  0  0  0  0  0  0  0  0  0  0
   38.7400   23.7580   31.0480 H   0  0  0  0  0  0  0  0  0  0  0  0
   37.2110   23.0580   34.3490 H   0  0  0  0  0  0  0  0  0  0  0  0
   38.4310   22.1540   33.2920 H   0  0  0  0  0  0  0  0  0  0  0  0
   37.1090   25.7360   33.1640 O   0  0  0  0  0  0  0  0  0  0  0  0
   38.0240   27.9240   32.0680 O   0  0  0  0  0  0  0  0  0  0  0  0
   36.7750   27.2860   32.5880 P   0  0  1  0  0  0  0  0  0  0  0  0
   35.6470   27.1870   31.2940 O   0  0  0  0  0  0  0  0  0  0  0  0
   35.0750   26.3780   31.4540 H   0  0  0  0  0  0  0  0  0  0  0  0
   36.0970   28.2200   33.8390 O   0  0  0  0  0  0  0  0  0  0  0  0
   35.3980   29.2560   33.2410 C   0  0  0  0  0  0  0  0  0  0  0  0
   35.5450   29.2680   32.1290 H   0  0  0  0  0  0  0  0  0  0  0  0
   34.3170   29.0370   33.3840 H   0  0  0  0  0  0  0  0  0  0  0  0
   35.6550   30.5730   33.8640 C   0  0  0  0  0  0  0  0  0  0  0  0
   35.7670   30.5970   35.2350 C   0  0  0  0  0  0  0  0  0  0  0  0
   36.0090   31.8100   35.8870 C   0  0  0  0  0  0  0  0  0  0  0  0
   36.1210   32.9200   35.1040 N   0  0  0  0  0  0  0  0  0  0  0  0
   36.0070   32.8740   33.7630 C   0  0  0  0  0  0  0  0  0  0  0  0
   35.7720   31.6930   33.1310 N   0  0  0  0  0  0  0  0  0  0  0  0
   35.6940   29.7820   35.9360 H   0  0  0  0  0  0  0  0  0  0  0  0
   36.1160   31.9500   36.9480 H   0  0  0  0  0  0  0  0  0  0  0  0
   36.1120   33.8020   33.2490 H   0  0  0  0  0  0  0  0  0  0  0  0
   38.8120   24.7980   34.8230 O   0  0  0  0  0  0  0  0  0  0  0  0
   38.9470   24.2300   36.0570 C   0  0  0  0  0  0  0  0  0  0  0  0
   39.8730   23.3060   36.4350 C   0  0  0  0  0  0  0  0  0  0  0  0
   40.5730   22.9930   35.6730 H   0  0  0  0  0  0  0  0  0  0  0  0
   39.8710   22.8280   37.7360 C   0  0  0  0  0  3  0  0  0  0  0  0
   38.9300   23.2970   38.6280 C   0  0  0  0  0  0  0  0  0  0  0  0
   38.9980   22.8690   39.6330 H   0  0  0  0  0  0  0  0  0  0  0  0
   37.9760   24.2350   38.2780 C   0  0  0  0  0  0  0  0  0  0  0  0
   37.2620   24.5780   38.9890 H   0  0  0  0  0  0  0  0  0  0  0  0
   37.9990   24.6960   36.9740 C   0  0  0  0  0  3  0  0  0  0  0  0
  1  6  1  6  0  0  0
  1 30  1  0  0  0  0
  2  7  1  6  0  0  0
  2 12  1  0  0  0  0
  2  1  1  0  0  0  0
  3  4  1  0  0  0  0
  3  2  1  0  0  0  0
  4  5  1  0  0  0  0
  5  1  1  0  0  0  0
  5 10  1  0  0  0  0
  8  3  1  0  0  0  0
  9  3  1  0  0  0  0
 11  5  1  0  0  0  0
 14 13  2  6  0  0  0
 14 12  1  0  0  0  0
 14 17  1  0  0  0  0
 15 16  1  0  0  0  0
 15 14  1  0  0  0  0
 18 20  1  0  0  0  0
 18 17  1  0  0  0  0
 18 21  1  0  0  0  0
 19 18  1  0  0  0  0
 21 22  1  0  0  0  0
 22 23  2  0  0  0  0
 22 27  1  0  0  0  0
 23 28  1  0  0  0  0
 24 23  1  0  0  0  0
 25 24  2  0  0  0  0
 26 25  1  0  0  0  0
 26 21  2  0  0  0  0
 29 25  1  0  0  0  0
 30 31  1  0  0  0  0
 31 32  2  0  0  0  0
 31 39  1  0  0  0  0
 32 34  1  0  0  0  0
 33 32  1  0  0  0  0
 34 35  2  0  0  0  0
 35 36  1  0  0  0  0
 37 35  1  0  0  0  0
 37 38  1  0  0  0  0
 39 37  2  0  0  0  0
M  END
>  <minimizedAffinity>
-5.03621292

$$$$
