
     RDKit          3D

 48 51  0  0  0  0  0  0  0  0999 V2000
   37.3373   30.1694   51.5199 C   0  0  0  0  0  0  0  0  0  0  0  0
   38.0673   30.8604   50.5250 C   0  0  0  0  0  0  0  0  0  0  0  0
   37.7034   30.6539   49.1938 C   0  0  0  0  0  0  0  0  0  0  0  0
   36.6660   29.7940   48.9889 N   0  0  0  0  0  0  0  0  0  0  0  0
   35.9830   29.1464   49.9333 C   0  0  0  0  0  0  0  0  0  0  0  0
   36.3361   29.3471   51.2221 N   0  0  0  0  0  0  0  0  0  0  0  0
   38.9386   33.2611   49.0227 F   0  0  0  0  0  0  0  0  0  0  0  0
   38.9093   32.4737   47.9442 C   0  0  0  0  0  0  0  0  0  0  0  0
   38.3313   31.2701   48.0489 C   0  0  0  0  0  0  0  0  0  0  0  0
   38.3539   30.5266   46.8657 C   0  0  0  0  0  0  0  0  0  0  0  0
   38.9165   30.9895   45.7069 C   0  0  0  0  0  0  0  0  0  0  0  0
   39.4975   32.2340   45.6534 C   0  0  0  0  0  0  0  0  0  0  0  0
   39.4882   32.9810   46.7981 C   0  0  0  0  0  0  0  0  0  0  0  0
   34.9995   28.3525   49.4564 O   0  0  0  0  0  0  0  0  0  0  0  0
   34.4479   28.6448   48.1814 C   0  0  0  0  0  0  0  0  0  0  0  0
   33.5558   27.5276   47.7212 C   0  0  0  0  0  0  0  0  0  0  0  0
   32.1106   27.8916   47.7515 C   0  0  0  0  0  0  0  0  0  0  0  0
   31.3718   27.4868   48.8499 C   0  0  0  0  0  0  0  0  0  0  0  0
   30.0344   27.7756   48.9660 C   0  0  0  0  0  0  0  0  0  0  0  0
   29.4306   28.4656   47.9929 N   0  0  0  0  0  0  0  0  0  0  0  0
   30.1761   28.8555   46.9185 C   0  0  0  0  0  0  0  0  0  0  0  0
   31.4800   28.5837   46.7874 N   0  0  0  0  0  0  0  0  0  0  0  0
   29.4520   29.6229   45.8617 C   0  0  0  0  0  0  0  0  0  0  0  0
   37.6496   30.3563   52.5350 H   0  0  0  0  0  0  0  0  0  0  0  0
   38.8781   31.5318   50.6935 H   0  0  0  0  0  0  0  0  0  0  0  0
   37.9227   29.5288   46.7946 H   0  0  0  0  0  0  0  0  0  0  0  0
   38.9283   30.4050   44.7959 H   0  0  0  0  0  0  0  0  0  0  0  0
   39.9489   32.6185   44.7431 H   0  0  0  0  0  0  0  0  0  0  0  0
   39.9414   33.9648   46.7761 H   0  0  0  0  0  0  0  0  0  0  0  0
   35.3070   28.8059   47.4768 H   0  0  0  0  0  0  0  0  0  0  0  0
   33.9364   29.6360   48.2058 H   0  0  0  0  0  0  0  0  0  0  0  0
   33.7928   27.3321   46.6405 H   0  0  0  0  0  0  0  0  0  0  0  0
   33.7104   26.5704   48.2363 H   0  0  0  0  0  0  0  0  0  0  0  0
   31.8623   26.9253   49.6424 H   0  0  0  0  0  0  0  0  0  0  0  0
   29.4842   27.4350   49.8558 H   0  0  0  0  0  0  0  0  0  0  0  0
   28.4278   29.2024   45.7829 H   0  0  0  0  0  0  0  0  0  0  0  0
   29.9465   29.3200   44.8958 H   0  0  0  0  0  0  0  0  0  0  0  0
   29.4660   31.0755   46.0672 C   0  0  0  0  0  0  0  0  0  0  0  0
   30.6897   31.6499   46.4252 C   0  0  0  0  0  0  0  0  0  0  0  0
   31.5972   31.0603   46.5492 H   0  0  0  0  0  0  0  0  0  0  0  0
   30.8330   33.0038   46.6464 C   0  0  0  0  0  0  0  0  0  0  0  0
   29.7336   33.8224   46.5107 C   0  0  0  0  0  0  0  0  0  0  0  0
   29.7932   34.9014   46.6744 H   0  0  0  0  0  0  0  0  0  0  0  0
   28.5307   33.2661   46.1598 C   0  0  0  0  0  0  0  0  0  0  0  0
   27.6567   33.8590   46.0439 H   0  0  0  0  0  0  0  0  0  0  0  0
   28.3650   31.8975   45.9316 C   0  0  0  0  0  0  0  0  0  0  0  0
   31.7731   33.4594   46.9233 H   0  0  0  0  0  0  0  0  0  0  0  0
   27.4201   31.4485   45.6544 H   0  0  0  0  0  0  0  0  0  0  0  0
  2  1  2  0
  3  2  1  0
  4  3  2  0
  4  5  1  0
  5  6  2  0
  6  1  1  0
  8  9  2  0
  8  7  1  0
  9  3  1  0
 10  9  1  0
 11 10  2  0
 12 11  1  0
 12 13  2  0
 13  8  1  0
 14  5  1  0
 15 14  1  0
 16 17  1  0
 16 15  1  0
 17 18  2  0
 18 19  1  0
 20 19  2  0
 21 20  1  0
 22 21  2  0
 22 17  1  0
 23 21  1  0
  1 24  1  0
  2 25  1  0
 10 26  1  0
 11 27  1  0
 12 28  1  0
 13 29  1  0
 15 30  1  0
 15 31  1  0
 16 32  1  0
 16 33  1  0
 18 34  1  0
 19 35  1  0
 23 36  1  0
 23 37  1  0
 38 39  2  0
 39 40  1  0
 39 41  1  0
 41 42  2  0
 42 43  1  0
 42 44  1  0
 44 45  1  0
 44 46  2  0
 46 38  1  0
 41 47  1  0
 46 48  1  0
 23 38  1  0
M  ISO  8  24  14  25  14  26  14  27  14  28  14  29  14  30   8  31   8
M  ISO  8  32   8  33   8  34  14  35  14  36   8  37   8  40  16  43  16
M  ISO  1  45  16
M  END
>  <DihAtoms>  (1) 
20,22,37,38

>  <DihDeg>  (1) 
-89.9995692358145

$$$$
