
 OpenBabel03272508193D

 31 33  0  0  0  0  0  0  0  0999 V2000
   37.1720   26.5150   33.7180 C   0  0  0  0  0  0  0  0  0  0  0  0
   36.5160   27.4240   32.8780 C   0  0  0  0  0  0  0  0  0  0  0  0
   36.2350   26.9270   31.6410 C   0  0  0  0  0  0  0  0  0  0  0  0
   36.5630   25.6620   31.2620 N   0  0  0  0  0  0  0  0  0  0  0  0
   37.1930   24.8140   32.0930 C   0  0  0  0  0  0  0  0  0  0  0  0
   37.5010   25.2370   33.3280 N   0  0  0  0  0  0  0  0  0  0  0  0
   35.7680   27.4320   30.8250 H   0  0  0  0  0  0  0  0  0  0  0  0
   37.4840   23.8000   31.8630 H   0  0  0  0  0  0  0  0  0  0  0  0
   37.4580   26.9880   35.1340 C   0  0  0  0  0  0  0  0  0  0  0  0
   38.2080   26.2030   36.0450 C   0  0  0  0  0  0  0  0  0  0  0  0
   39.0000   27.2380   35.2710 C   0  0  0  0  0  0  0  0  0  0  0  0
   36.9860   27.9750   35.3670 H   0  0  0  0  0  0  0  0  0  0  0  0
   38.5090   25.1570   35.8060 H   0  0  0  0  0  0  0  0  0  0  0  0
   38.1200   26.4120   37.1330 H   0  0  0  0  0  0  0  0  0  0  0  0
   39.6520   26.9120   34.4690 H   0  0  0  0  0  0  0  0  0  0  0  0
   39.3300   28.1180   35.8120 H   0  0  0  0  0  0  0  0  0  0  0  0
   36.2030   28.7830   33.2480 C   0  0  0  0  0  0  0  0  0  0  0  0
   36.6920   29.4840   32.5460 H   0  0  0  0  0  0  0  0  0  0  0  0
   36.7380   29.0070   34.2380 H   0  0  0  0  0  0  0  0  0  0  0  0
   34.8160   29.1850   33.4910 C   0  0  0  0  0  0  0  0  0  0  0  0
   34.4360   29.6590   32.5400 H   0  0  0  0  0  0  0  0  0  0  0  0
   34.1540   28.2700   33.6240 H   0  0  0  0  0  0  0  0  0  0  0  0
   34.5510   30.1130   34.6010 C   0  0  0  0  0  0  0  0  0  0  0  0
   33.4930   30.5180   35.3750 C   0  0  0  0  0  0  0  0  0  0  0  0
   32.5720   30.0650   35.0670 H   0  0  0  0  0  0  0  0  0  0  0  0
   33.5480   31.4050   36.4070 C   0  0  0  0  0  3  0  0  0  0  0  0
   34.7290   31.9880   36.7630 C   0  0  0  0  0  0  0  0  0  0  0  0
   34.6520   32.6730   37.5930 H   0  0  0  0  0  0  0  0  0  0  0  0
   35.8520   31.6520   36.0500 C   0  0  0  0  0  0  0  0  0  0  0  0
   36.7580   32.1290   36.3580 H   0  0  0  0  0  0  0  0  0  0  0  0
   35.7310   30.7360   35.0040 C   0  0  0  0  0  3  0  0  0  0  0  0
  1  9  1  0  0  0  0
  2 17  1  0  0  0  0
  2  1  2  0  0  0  0
  3  2  1  0  0  0  0
  4  3  2  0  0  0  0
  4  5  1  0  0  0  0
  5  6  2  0  0  0  0
  6  1  1  0  0  0  0
  7  3  1  0  0  0  0
  8  5  1  0  0  0  0
  9 11  1  0  0  0  0
  9 12  1  0  0  0  0
  9 10  1  0  0  0  0
 10 14  1  0  0  0  0
 11 16  1  0  0  0  0
 11 10  1  0  0  0  0
 13 10  1  0  0  0  0
 15 11  1  0  0  0  0
 17 20  1  0  0  0  0
 17 19  1  0  0  0  0
 18 17  1  0  0  0  0
 20 22  1  0  0  0  0
 20 23  1  0  0  0  0
 21 20  1  0  0  0  0
 23 31  2  0  0  0  0
 23 24  1  0  0  0  0
 24 26  2  0  0  0  0
 25 24  1  0  0  0  0
 26 27  1  0  0  0  0
 27 28  1  0  0  0  0
 29 30  1  0  0  0  0
 29 27  2  0  0  0  0
 31 29  1  0  0  0  0
M  END
>  <minimizedAffinity>
-4.93433571

$$$$

 OpenBabel03272508193D

 31 33  0  0  0  0  0  0  0  0999 V2000
   36.6080   26.6260   32.2760 C   0  0  0  0  0  0  0  0  0  0  0  0
   37.2490   25.5930   32.9710 C   0  0  0  0  0  0  0  0  0  0  0  0
   36.8890   24.3450   32.5570 C   0  0  0  0  0  0  0  0  0  0  0  0
   35.9900   24.1300   31.5600 N   0  0  0  0  0  0  0  0  0  0  0  0
   35.3920   25.1450   30.9120 C   0  0  0  0  0  0  0  0  0  0  0  0
   35.6990   26.4010   31.2690 N   0  0  0  0  0  0  0  0  0  0  0  0
   37.2190   23.4080   32.9480 H   0  0  0  0  0  0  0  0  0  0  0  0
   34.6710   25.0510   30.1140 H   0  0  0  0  0  0  0  0  0  0  0  0
   37.0140   28.0430   32.6490 C   0  0  0  0  0  0  0  0  0  0  0  0
   36.2890   29.1710   32.1880 C   0  0  0  0  0  0  0  0  0  0  0  0
   35.8920   28.6570   33.5570 C   0  0  0  0  0  0  0  0  0  0  0  0
   37.9400   28.0820   33.2730 H   0  0  0  0  0  0  0  0  0  0  0  0
   35.4740   29.0750   31.4340 H   0  0  0  0  0  0  0  0  0  0  0  0
   36.7830   30.1660   32.1970 H   0  0  0  0  0  0  0  0  0  0  0  0
   34.9590   28.1150   33.6680 H   0  0  0  0  0  0  0  0  0  0  0  0
   36.1940   29.2450   34.4160 H   0  0  0  0  0  0  0  0  0  0  0  0
   38.1690   25.8030   34.0630 C   0  0  0  0  0  0  0  0  0  0  0  0
   38.8050   26.6820   33.8530 H   0  0  0  0  0  0  0  0  0  0  0  0
   38.9250   24.9400   34.0530 H   0  0  0  0  0  0  0  0  0  0  0  0
   37.6840   25.8390   35.4440 C   0  0  0  0  0  0  0  0  0  0  0  0
   37.8810   26.8770   35.8380 H   0  0  0  0  0  0  0  0  0  0  0  0
   36.5500   25.7470   35.4700 H   0  0  0  0  0  0  0  0  0  0  0  0
   38.2490   24.8730   36.3990 C   0  0  0  0  0  0  0  0  0  0  0  0
   38.0140   24.4280   37.6760 C   0  0  0  0  0  0  0  0  0  0  0  0
   37.2110   24.9590   38.1460 H   0  0  0  0  0  0  0  0  0  0  0  0
   38.7050   23.4490   38.3230 C   0  0  0  0  0  3  0  0  0  0  0  0
   39.7410   22.8060   37.7110 C   0  0  0  0  0  0  0  0  0  0  0  0
   40.2130   22.0500   38.3200 H   0  0  0  0  0  0  0  0  0  0  0  0
   40.0600   23.1760   36.4300 C   0  0  0  0  0  0  0  0  0  0  0  0
   40.8770   22.6490   35.9840 H   0  0  0  0  0  0  0  0  0  0  0  0
   39.3140   24.1850   35.8200 C   0  0  0  0  0  3  0  0  0  0  0  0
  1  9  1  0  0  0  0
  1  2  1  0  0  0  0
  2 17  1  0  0  0  0
  3  7  1  0  0  0  0
  3  2  2  0  0  0  0
  4  3  1  0  0  0  0
  5  6  1  0  0  0  0
  5  4  2  0  0  0  0
  6  1  2  0  0  0  0
  8  5  1  0  0  0  0
  9 12  1  0  0  0  0
  9 11  1  0  0  0  0
 10 14  1  0  0  0  0
 10  9  1  0  0  0  0
 10 11  1  0  0  0  0
 11 15  1  0  0  0  0
 11 16  1  0  0  0  0
 13 10  1  0  0  0  0
 17 20  1  0  0  0  0
 18 17  1  0  0  0  0
 19 17  1  0  0  0  0
 20 22  1  0  0  0  0
 20 21  1  0  0  0  0
 20 23  1  0  0  0  0
 23 24  1  0  0  0  0
 24 25  1  0  0  0  0
 24 26  2  0  0  0  0
 27 28  1  0  0  0  0
 27 26  1  0  0  0  0
 29 27  2  0  0  0  0
 30 29  1  0  0  0  0
 31 23  2  0  0  0  0
 31 29  1  0  0  0  0
M  END
>  <minimizedAffinity>
-4.92045832

$$$$

 OpenBabel03272508193D

 31 33  0  0  0  0  0  0  0  0999 V2000
   36.5050   26.6230   32.1340 C   0  0  0  0  0  0  0  0  0  0  0  0
   37.1780   25.5400   32.7160 C   0  0  0  0  0  0  0  0  0  0  0  0
   36.7200   24.3230   32.3050 C   0  0  0  0  0  0  0  0  0  0  0  0
   35.7040   24.1800   31.4120 N   0  0  0  0  0  0  0  0  0  0  0  0
   35.0800   25.2410   30.8720 C   0  0  0  0  0  0  0  0  0  0  0  0
   35.4780   26.4700   31.2320 N   0  0  0  0  0  0  0  0  0  0  0  0
   37.0520   23.3610   32.6240 H   0  0  0  0  0  0  0  0  0  0  0  0
   34.2690   25.2040   30.1600 H   0  0  0  0  0  0  0  0  0  0  0  0
   37.0100   28.0080   32.5030 C   0  0  0  0  0  0  0  0  0  0  0  0
   36.3000   29.1810   32.1410 C   0  0  0  0  0  0  0  0  0  0  0  0
   36.0070   28.6440   33.5270 C   0  0  0  0  0  0  0  0  0  0  0  0
   37.9910   27.9870   33.0390 H   0  0  0  0  0  0  0  0  0  0  0  0
   35.4150   29.1440   31.4640 H   0  0  0  0  0  0  0  0  0  0  0  0
   36.8390   30.1520   32.1290 H   0  0  0  0  0  0  0  0  0  0  0  0
   35.0630   28.1420   33.7110 H   0  0  0  0  0  0  0  0  0  0  0  0
   36.4140   29.1930   34.3690 H   0  0  0  0  0  0  0  0  0  0  0  0
   38.2240   25.6740   33.7000 C   0  0  0  0  0  0  0  0  0  0  0  0
   38.8470   26.5570   33.4660 H   0  0  0  0  0  0  0  0  0  0  0  0
   38.9570   24.8040   33.5500 H   0  0  0  0  0  0  0  0  0  0  0  0
   37.9080   25.6340   35.1290 C   0  0  0  0  0  0  0  0  0  0  0  0
   38.1400   26.6540   35.5490 H   0  0  0  0  0  0  0  0  0  0  0  0
   36.7860   25.5240   35.2850 H   0  0  0  0  0  0  0  0  0  0  0  0
   38.5910   24.6310   35.9590 C   0  0  0  0  0  0  0  0  0  0  0  0
   39.6450   23.7570   35.8620 C   0  0  0  0  0  0  0  0  0  0  0  0
   40.0880   23.7680   34.8870 H   0  0  0  0  0  0  0  0  0  0  0  0
   40.0990   22.9360   36.8490 C   0  0  0  0  0  3  0  0  0  0  0  0
   39.5000   22.9230   38.0750 C   0  0  0  0  0  0  0  0  0  0  0  0
   39.9450   22.2340   38.7770 H   0  0  0  0  0  0  0  0  0  0  0  0
   38.4330   23.7600   38.2780 C   0  0  0  0  0  0  0  0  0  0  0  0
   37.9910   23.7220   39.2510 H   0  0  0  0  0  0  0  0  0  0  0  0
   38.0150   24.5780   37.2280 C   0  0  0  0  0  3  0  0  0  0  0  0
  1  9  1  0  0  0  0
  1  2  1  0  0  0  0
  2 17  1  0  0  0  0
  3  7  1  0  0  0  0
  3  2  2  0  0  0  0
  4  3  1  0  0  0  0
  5  6  1  0  0  0  0
  5  4  2  0  0  0  0
  6  1  2  0  0  0  0
  8  5  1  0  0  0  0
  9 12  1  0  0  0  0
  9 11  1  0  0  0  0
 10  9  1  0  0  0  0
 10 11  1  0  0  0  0
 11 15  1  0  0  0  0
 11 16  1  0  0  0  0
 13 10  1  0  0  0  0
 14 10  1  0  0  0  0
 17 20  1  0  0  0  0
 18 17  1  0  0  0  0
 19 17  1  0  0  0  0
 20 22  1  0  0  0  0
 20 21  1  0  0  0  0
 20 23  1  0  0  0  0
 23 31  1  0  0  0  0
 24 23  2  0  0  0  0
 24 26  1  0  0  0  0
 25 24  1  0  0  0  0
 26 27  2  0  0  0  0
 27 29  1  0  0  0  0
 27 28  1  0  0  0  0
 29 30  1  0  0  0  0
 31 29  2  0  0  0  0
M  END
>  <minimizedAffinity>
-4.88857222

$$$$

 OpenBabel03272508193D

 31 33  0  0  0  0  0  0  0  0999 V2000
   38.1350   24.8780   35.3190 C   0  0  0  0  0  0  0  0  0  0  0  0
   38.1170   23.8640   34.3520 C   0  0  0  0  0  0  0  0  0  0  0  0
   38.1560   22.6050   34.8740 C   0  0  0  0  0  0  0  0  0  0  0  0
   38.2060   22.3620   36.2110 N   0  0  0  0  0  0  0  0  0  0  0  0
   38.2220   23.3590   37.1130 C   0  0  0  0  0  0  0  0  0  0  0  0
   38.1870   24.6250   36.6700 N   0  0  0  0  0  0  0  0  0  0  0  0
   38.1780   21.6800   34.3430 H   0  0  0  0  0  0  0  0  0  0  0  0
   38.2610   23.2430   38.1850 H   0  0  0  0  0  0  0  0  0  0  0  0
   38.0310   26.3040   34.8030 C   0  0  0  0  0  0  0  0  0  0  0  0
   38.2070   27.4210   35.6590 C   0  0  0  0  0  0  0  0  0  0  0  0
   39.4460   26.9740   34.9080 C   0  0  0  0  0  0  0  0  0  0  0  0
   37.7690   26.3580   33.7170 H   0  0  0  0  0  0  0  0  0  0  0  0
   38.3020   27.3020   36.7620 H   0  0  0  0  0  0  0  0  0  0  0  0
   37.8100   28.4080   35.3410 H   0  0  0  0  0  0  0  0  0  0  0  0
   40.2290   26.4510   35.4450 H   0  0  0  0  0  0  0  0  0  0  0  0
   39.7800   27.5950   34.0850 H   0  0  0  0  0  0  0  0  0  0  0  0
   38.1130   24.1050   32.9290 C   0  0  0  0  0  0  0  0  0  0  0  0
   38.9420   23.5510   32.4530 H   0  0  0  0  0  0  0  0  0  0  0  0
   38.4140   25.1990   32.7600 H   0  0  0  0  0  0  0  0  0  0  0  0
   36.8800   23.9490   32.1550 C   0  0  0  0  0  0  0  0  0  0  0  0
   36.0750   24.5310   32.6900 H   0  0  0  0  0  0  0  0  0  0  0  0
   36.9730   24.4730   31.1490 H   0  0  0  0  0  0  0  0  0  0  0  0
   36.3790   22.5860   31.9210 C   0  0  0  0  0  0  0  0  0  0  0  0
   35.2880   21.8190   32.2450 C   0  0  0  0  0  0  0  0  0  0  0  0
   34.6090   22.3370   32.8910 H   0  0  0  0  0  0  0  0  0  0  0  0
   35.0590   20.5390   31.8390 C   0  0  0  0  0  3  0  0  0  0  0  0
   35.9530   19.8920   31.0370 C   0  0  0  0  0  0  0  0  0  0  0  0
   35.6670   18.8830   30.7800 H   0  0  0  0  0  0  0  0  0  0  0  0
   37.0830   20.5700   30.6550 C   0  0  0  0  0  0  0  0  0  0  0  0
   37.7580   20.0300   30.0270 H   0  0  0  0  0  0  0  0  0  0  0  0
   37.2600   21.8800   31.1030 C   0  0  0  0  0  3  0  0  0  0  0  0
  1  6  1  0  0  0  0
  2  3  1  0  0  0  0
  2  1  2  0  0  0  0
  3  4  2  0  0  0  0
  4  5  1  0  0  0  0
  5  8  1  0  0  0  0
  6  5  2  0  0  0  0
  7  3  1  0  0  0  0
  9 11  1  0  0  0  0
  9  1  1  0  0  0  0
  9 10  1  0  0  0  0
 10 13  1  0  0  0  0
 11 15  1  0  0  0  0
 11 10  1  0  0  0  0
 12  9  1  0  0  0  0
 14 10  1  0  0  0  0
 16 11  1  0  0  0  0
 17  2  1  0  0  0  0
 18 17  1  0  0  0  0
 19 17  1  0  0  0  0
 20 21  1  0  0  0  0
 20 17  1  0  0  0  0
 22 20  1  0  0  0  0
 23 20  1  0  0  0  0
 23 24  1  0  0  0  0
 24 25  1  0  0  0  0
 26 24  2  0  0  0  0
 27 26  1  0  0  0  0
 28 27  1  0  0  0  0
 29 27  2  0  0  0  0
 29 31  1  0  0  0  0
 30 29  1  0  0  0  0
 31 23  2  0  0  0  0
M  END
>  <minimizedAffinity>
-4.70943022

$$$$

 OpenBabel03272508193D

 31 33  0  0  0  0  0  0  0  0999 V2000
   38.6460   23.4470   35.8050 C   0  0  0  0  0  0  0  0  0  0  0  0
   39.6160   23.9080   34.9050 C   0  0  0  0  0  0  0  0  0  0  0  0
   39.5770   23.2900   33.6900 C   0  0  0  0  0  0  0  0  0  0  0  0
   38.6770   22.3170   33.3850 N   0  0  0  0  0  0  0  0  0  0  0  0
   37.7580   21.8980   34.2720 C   0  0  0  0  0  0  0  0  0  0  0  0
   37.7390   22.4620   35.4900 N   0  0  0  0  0  0  0  0  0  0  0  0
   40.2250   23.4490   32.8570 H   0  0  0  0  0  0  0  0  0  0  0  0
   37.0150   21.1340   34.1020 H   0  0  0  0  0  0  0  0  0  0  0  0
   38.5960   24.1400   37.1570 C   0  0  0  0  0  0  0  0  0  0  0  0
   37.8040   23.6400   38.2210 C   0  0  0  0  0  0  0  0  0  0  0  0
   39.2520   23.1940   38.2230 C   0  0  0  0  0  0  0  0  0  0  0  0
   39.2060   25.0750   37.1900 H   0  0  0  0  0  0  0  0  0  0  0  0
   37.0900   22.7970   38.0730 H   0  0  0  0  0  0  0  0  0  0  0  0
   37.5330   24.3230   39.0550 H   0  0  0  0  0  0  0  0  0  0  0  0
   39.4920   22.1760   37.9360 H   0  0  0  0  0  0  0  0  0  0  0  0
   39.9080   23.6360   38.9640 H   0  0  0  0  0  0  0  0  0  0  0  0
   40.6080   24.9040   35.2280 C   0  0  0  0  0  0  0  0  0  0  0  0
   41.6200   24.4930   35.0600 H   0  0  0  0  0  0  0  0  0  0  0  0
   40.5880   25.0610   36.3650 H   0  0  0  0  0  0  0  0  0  0  0  0
   40.5060   26.2570   34.6780 C   0  0  0  0  0  0  0  0  0  0  0  0
   41.1310   26.9300   35.3330 H   0  0  0  0  0  0  0  0  0  0  0  0
   41.0180   26.3130   33.6630 H   0  0  0  0  0  0  0  0  0  0  0  0
   39.1680   26.8540   34.5540 C   0  0  0  0  0  0  0  0  0  0  0  0
   38.1840   27.3560   35.3690 C   0  0  0  0  0  0  0  0  0  0  0  0
   38.4310   27.2560   36.4060 H   0  0  0  0  0  0  0  0  0  0  0  0
   37.0070   27.9060   34.9590 C   0  0  0  0  0  3  0  0  0  0  0  0
   36.7060   27.9980   33.6310 C   0  0  0  0  0  0  0  0  0  0  0  0
   35.7480   28.4500   33.4260 H   0  0  0  0  0  0  0  0  0  0  0  0
   37.6230   27.5220   32.7290 C   0  0  0  0  0  0  0  0  0  0  0  0
   37.3520   27.6120   31.6990 H   0  0  0  0  0  0  0  0  0  0  0  0
   38.8110   26.9710   33.2120 C   0  0  0  0  0  3  0  0  0  0  0  0
  1  9  1  0  0  0  0
  2 17  1  0  0  0  0
  2  1  2  0  0  0  0
  3  2  1  0  0  0  0
  4  3  2  0  0  0  0
  4  5  1  0  0  0  0
  5  6  2  0  0  0  0
  6  1  1  0  0  0  0
  7  3  1  0  0  0  0
  8  5  1  0  0  0  0
  9 12  1  0  0  0  0
  9 10  1  0  0  0  0
  9 11  1  0  0  0  0
 10 11  1  0  0  0  0
 10 14  1  0  0  0  0
 11 16  1  0  0  0  0
 13 10  1  0  0  0  0
 15 11  1  0  0  0  0
 17 19  1  0  0  0  0
 18 17  1  0  0  0  0
 20 17  1  0  0  0  0
 20 21  1  0  0  0  0
 22 20  1  0  0  0  0
 23 20  1  0  0  0  0
 23 24  1  0  0  0  0
 24 25  1  0  0  0  0
 26 24  2  0  0  0  0
 27 26  1  0  0  0  0
 28 27  1  0  0  0  0
 29 31  1  0  0  0  0
 29 27  2  0  0  0  0
 30 29  1  0  0  0  0
 31 23  2  0  0  0  0
M  END
>  <minimizedAffinity>
-4.67631865

$$$$

 OpenBabel03272508193D

 31 33  0  0  0  0  0  0  0  0999 V2000
   38.0390   25.4650   33.4480 C   0  0  0  0  0  0  0  0  0  0  0  0
   37.8220   24.1420   33.0410 C   0  0  0  0  0  0  0  0  0  0  0  0
   36.8290   24.0070   32.1170 C   0  0  0  0  0  0  0  0  0  0  0  0
   36.1180   25.0630   31.6380 N   0  0  0  0  0  0  0  0  0  0  0  0
   36.3520   26.3210   32.0500 C   0  0  0  0  0  0  0  0  0  0  0  0
   37.3150   26.5280   32.9600 N   0  0  0  0  0  0  0  0  0  0  0  0
   36.4650   23.1050   31.6780 H   0  0  0  0  0  0  0  0  0  0  0  0
   35.8300   27.2050   31.7160 H   0  0  0  0  0  0  0  0  0  0  0  0
   39.1760   25.6910   34.4320 C   0  0  0  0  0  0  0  0  0  0  0  0
   39.5680   26.9930   34.8320 C   0  0  0  0  0  0  0  0  0  0  0  0
   38.5790   26.3010   35.7480 C   0  0  0  0  0  0  0  0  0  0  0  0
   39.6680   24.7400   34.7550 H   0  0  0  0  0  0  0  0  0  0  0  0
   39.1480   27.9050   34.3480 H   0  0  0  0  0  0  0  0  0  0  0  0
   40.5780   27.1380   35.2720 H   0  0  0  0  0  0  0  0  0  0  0  0
   37.5440   26.6240   35.7480 H   0  0  0  0  0  0  0  0  0  0  0  0
   38.9530   25.9350   36.6970 H   0  0  0  0  0  0  0  0  0  0  0  0
   38.5340   23.0070   33.5740 C   0  0  0  0  0  0  0  0  0  0  0  0
   39.5670   23.3010   33.8360 H   0  0  0  0  0  0  0  0  0  0  0  0
   38.6970   22.2630   32.7150 H   0  0  0  0  0  0  0  0  0  0  0  0
   37.9450   22.1960   34.6420 C   0  0  0  0  0  0  0  0  0  0  0  0
   36.8380   22.1310   34.4370 H   0  0  0  0  0  0  0  0  0  0  0  0
   38.3010   21.1180   34.5650 H   0  0  0  0  0  0  0  0  0  0  0  0
   38.1280   22.6460   36.0300 C   0  0  0  0  0  0  0  0  0  0  0  0
   37.3670   23.1230   37.0680 C   0  0  0  0  0  0  0  0  0  0  0  0
   36.3400   23.2490   36.7890 H   0  0  0  0  0  0  0  0  0  0  0  0
   37.8180   23.4360   38.3140 C   0  0  0  0  0  3  0  0  0  0  0  0
   39.1360   23.2910   38.6360 C   0  0  0  0  0  0  0  0  0  0  0  0
   39.3760   23.5710   39.6500 H   0  0  0  0  0  0  0  0  0  0  0  0
   39.9860   22.8210   37.6670 C   0  0  0  0  0  0  0  0  0  0  0  0
   41.0100   22.7210   37.9570 H   0  0  0  0  0  0  0  0  0  0  0  0
   39.4630   22.5160   36.4100 C   0  0  0  0  0  3  0  0  0  0  0  0
  1  9  1  0  0  0  0
  2  1  1  0  0  0  0
  2 17  1  0  0  0  0
  3  2  2  0  0  0  0
  4  5  2  0  0  0  0
  4  3  1  0  0  0  0
  5  6  1  0  0  0  0
  6  1  2  0  0  0  0
  7  3  1  0  0  0  0
  8  5  1  0  0  0  0
  9 12  1  0  0  0  0
  9 10  1  0  0  0  0
  9 11  1  0  0  0  0
 10 14  1  0  0  0  0
 10 11  1  0  0  0  0
 11 16  1  0  0  0  0
 13 10  1  0  0  0  0
 15 11  1  0  0  0  0
 17 18  1  0  0  0  0
 17 20  1  0  0  0  0
 19 17  1  0  0  0  0
 20 23  1  0  0  0  0
 21 20  1  0  0  0  0
 22 20  1  0  0  0  0
 23 31  2  0  0  0  0
 23 24  1  0  0  0  0
 24 26  2  0  0  0  0
 25 24  1  0  0  0  0
 26 27  1  0  0  0  0
 27 28  1  0  0  0  0
 29 30  1  0  0  0  0
 29 27  2  0  0  0  0
 31 29  1  0  0  0  0
M  END
>  <minimizedAffinity>
-4.59382963

$$$$

 OpenBabel03272508193D

 31 33  0  0  0  0  0  0  0  0999 V2000
   38.8250   24.1410   36.3880 C   0  0  0  0  0  0  0  0  0  0  0  0
   38.6400   25.1470   35.4310 C   0  0  0  0  0  0  0  0  0  0  0  0
   39.6790   25.2730   34.5570 C   0  0  0  0  0  0  0  0  0  0  0  0
   40.7900   24.4890   34.6140 N   0  0  0  0  0  0  0  0  0  0  0  0
   40.9350   23.5310   35.5460 C   0  0  0  0  0  0  0  0  0  0  0  0
   39.9500   23.3530   36.4400 N   0  0  0  0  0  0  0  0  0  0  0  0
   39.7820   25.9790   33.7630 H   0  0  0  0  0  0  0  0  0  0  0  0
   41.7840   22.8740   35.6530 H   0  0  0  0  0  0  0  0  0  0  0  0
   37.6730   23.9090   37.3530 C   0  0  0  0  0  0  0  0  0  0  0  0
   37.8360   23.1480   38.5390 C   0  0  0  0  0  0  0  0  0  0  0  0
   37.9990   24.6470   38.6990 C   0  0  0  0  0  0  0  0  0  0  0  0
   36.7130   24.3620   37.0040 H   0  0  0  0  0  0  0  0  0  0  0  0
   38.7750   22.5850   38.7470 H   0  0  0  0  0  0  0  0  0  0  0  0
   36.9350   22.7290   39.0350 H   0  0  0  0  0  0  0  0  0  0  0  0
   38.9920   25.0580   38.8380 H   0  0  0  0  0  0  0  0  0  0  0  0
   37.1980   25.1830   39.1950 H   0  0  0  0  0  0  0  0  0  0  0  0
   37.4910   26.0180   35.3860 C   0  0  0  0  0  0  0  0  0  0  0  0
   36.8710   25.8680   36.2890 H   0  0  0  0  0  0  0  0  0  0  0  0
   36.8030   25.6450   34.5460 H   0  0  0  0  0  0  0  0  0  0  0  0
   37.6530   27.4470   35.1070 C   0  0  0  0  0  0  0  0  0  0  0  0
   37.2510   28.0070   35.9990 H   0  0  0  0  0  0  0  0  0  0  0  0
   38.7570   27.7250   35.0850 H   0  0  0  0  0  0  0  0  0  0  0  0
   37.0150   27.9910   33.8990 C   0  0  0  0  0  0  0  0  0  0  0  0
   37.1370   27.8940   32.5360 C   0  0  0  0  0  0  0  0  0  0  0  0
   37.9610   27.2720   32.2490 H   0  0  0  0  0  0  0  0  0  0  0  0
   36.3460   28.5110   31.6140 C   0  0  0  0  0  3  0  0  0  0  0  0
   35.3190   29.3180   32.0060 C   0  0  0  0  0  0  0  0  0  0  0  0
   34.7620   29.7520   31.1900 H   0  0  0  0  0  0  0  0  0  0  0  0
   35.1100   29.4860   33.3510 C   0  0  0  0  0  0  0  0  0  0  0  0
   34.2960   30.1250   33.6190 H   0  0  0  0  0  0  0  0  0  0  0  0
   35.9540   28.8260   34.2460 C   0  0  0  0  0  3  0  0  0  0  0  0
  1  6  1  0  0  0  0
  1  9  1  0  0  0  0
  2  1  2  0  0  0  0
  3  4  2  0  0  0  0
  3  2  1  0  0  0  0
  4  5  1  0  0  0  0
  5  8  1  0  0  0  0
  5  6  2  0  0  0  0
  7  3  1  0  0  0  0
  9 10  1  0  0  0  0
  9 11  1  0  0  0  0
 10 11  1  0  0  0  0
 10 13  1  0  0  0  0
 10 14  1  0  0  0  0
 11 15  1  0  0  0  0
 11 16  1  0  0  0  0
 12  9  1  0  0  0  0
 17  2  1  0  0  0  0
 17 18  1  0  0  0  0
 19 17  1  0  0  0  0
 20 17  1  0  0  0  0
 20 21  1  0  0  0  0
 22 20  1  0  0  0  0
 23 31  1  0  0  0  0
 23 20  1  0  0  0  0
 24 23  2  0  0  0  0
 25 24  1  0  0  0  0
 26 27  2  0  0  0  0
 26 24  1  0  0  0  0
 27 29  1  0  0  0  0
 28 27  1  0  0  0  0
 29 30  1  0  0  0  0
 29 31  2  0  0  0  0
M  END
>  <minimizedAffinity>
-4.59218121

$$$$

 OpenBabel03272508193D

 31 33  0  0  0  0  0  0  0  0999 V2000
   37.3760   26.3920   33.7040 C   0  0  0  0  0  0  0  0  0  0  0  0
   36.8440   27.1260   32.6370 C   0  0  0  0  0  0  0  0  0  0  0  0
   36.4950   26.3620   31.5630 C   0  0  0  0  0  0  0  0  0  0  0  0
   36.6490   25.0110   31.5380 N   0  0  0  0  0  0  0  0  0  0  0  0
   37.1630   24.3360   32.5810 C   0  0  0  0  0  0  0  0  0  0  0  0
   37.5310   25.0250   33.6710 N   0  0  0  0  0  0  0  0  0  0  0  0
   36.0960   26.6920   30.6300 H   0  0  0  0  0  0  0  0  0  0  0  0
   37.3150   23.2690   32.6320 H   0  0  0  0  0  0  0  0  0  0  0  0
   37.7290   27.1790   34.9560 C   0  0  0  0  0  0  0  0  0  0  0  0
   38.3020   26.5550   36.0930 C   0  0  0  0  0  0  0  0  0  0  0  0
   39.2880   27.1740   35.1220 C   0  0  0  0  0  0  0  0  0  0  0  0
   37.4520   28.2600   34.8840 H   0  0  0  0  0  0  0  0  0  0  0  0
   38.4000   25.4470   36.1640 H   0  0  0  0  0  0  0  0  0  0  0  0
   38.2410   27.0700   37.0750 H   0  0  0  0  0  0  0  0  0  0  0  0
   39.8770   26.5260   34.4820 H   0  0  0  0  0  0  0  0  0  0  0  0
   39.7730   28.0950   35.4260 H   0  0  0  0  0  0  0  0  0  0  0  0
   36.7180   28.5630   32.6290 C   0  0  0  0  0  0  0  0  0  0  0  0
   37.0000   28.9590   31.6360 H   0  0  0  0  0  0  0  0  0  0  0  0
   37.5380   28.9900   33.3090 H   0  0  0  0  0  0  0  0  0  0  0  0
   35.4890   29.2020   33.1060 C   0  0  0  0  0  0  0  0  0  0  0  0
   34.7890   29.2730   32.2250 H   0  0  0  0  0  0  0  0  0  0  0  0
   34.9440   28.5200   33.8350 H   0  0  0  0  0  0  0  0  0  0  0  0
   35.5970   30.5370   33.7140 C   0  0  0  0  0  0  0  0  0  0  0  0
   35.5380   31.8530   33.3290 C   0  0  0  0  0  0  0  0  0  0  0  0
   35.4180   31.9570   32.2690 H   0  0  0  0  0  0  0  0  0  0  0  0
   35.6380   32.9340   34.1520 C   0  0  0  0  0  3  0  0  0  0  0  0
   35.8160   32.7730   35.4950 C   0  0  0  0  0  0  0  0  0  0  0  0
   35.8810   33.7000   36.0450 H   0  0  0  0  0  0  0  0  0  0  0  0
   35.8900   31.4950   35.9850 C   0  0  0  0  0  0  0  0  0  0  0  0
   36.0300   31.4100   37.0420 H   0  0  0  0  0  0  0  0  0  0  0  0
   35.7800   30.4290   35.0920 C   0  0  0  0  0  3  0  0  0  0  0  0
  1  9  1  0  0  0  0
  2  1  2  0  0  0  0
  3  2  1  0  0  0  0
  4  3  2  0  0  0  0
  4  5  1  0  0  0  0
  5  8  1  0  0  0  0
  5  6  2  0  0  0  0
  6  1  1  0  0  0  0
  7  3  1  0  0  0  0
  9 11  1  0  0  0  0
  9 10  1  0  0  0  0
 10 13  1  0  0  0  0
 10 14  1  0  0  0  0
 11 16  1  0  0  0  0
 11 10  1  0  0  0  0
 12  9  1  0  0  0  0
 15 11  1  0  0  0  0
 17  2  1  0  0  0  0
 17 20  1  0  0  0  0
 17 19  1  0  0  0  0
 18 17  1  0  0  0  0
 20 23  1  0  0  0  0
 20 22  1  0  0  0  0
 21 20  1  0  0  0  0
 23 31  1  0  0  0  0
 24 23  2  0  0  0  0
 24 26  1  0  0  0  0
 25 24  1  0  0  0  0
 26 27  2  0  0  0  0
 27 29  1  0  0  0  0
 27 28  1  0  0  0  0
 29 30  1  0  0  0  0
 31 29  2  0  0  0  0
M  END
>  <minimizedAffinity>
-4.57737064

$$$$

 OpenBabel03272508193D

 31 33  0  0  0  0  0  0  0  0999 V2000
   37.0980   27.4340   33.5580 C   0  0  0  0  0  0  0  0  0  0  0  0
   36.2540   28.5130   33.2660 C   0  0  0  0  0  0  0  0  0  0  0  0
   36.2470   28.8660   31.9490 C   0  0  0  0  0  0  0  0  0  0  0  0
   36.9930   28.2250   31.0100 N   0  0  0  0  0  0  0  0  0  0  0  0
   37.7930   27.1910   31.3240 C   0  0  0  0  0  0  0  0  0  0  0  0
   37.8500   26.7900   32.6030 N   0  0  0  0  0  0  0  0  0  0  0  0
   35.7100   29.6660   31.4910 H   0  0  0  0  0  0  0  0  0  0  0  0
   38.4120   26.6360   30.6350 H   0  0  0  0  0  0  0  0  0  0  0  0
   37.1020   26.9520   35.0000 C   0  0  0  0  0  0  0  0  0  0  0  0
   38.0210   25.9720   35.4550 C   0  0  0  0  0  0  0  0  0  0  0  0
   38.4430   27.4110   35.6720 C   0  0  0  0  0  0  0  0  0  0  0  0
   36.2970   27.4190   35.6190 H   0  0  0  0  0  0  0  0  0  0  0  0
   38.6890   25.4250   34.7510 H   0  0  0  0  0  0  0  0  0  0  0  0
   37.7920   25.4150   36.3890 H   0  0  0  0  0  0  0  0  0  0  0  0
   39.2200   27.8350   35.0450 H   0  0  0  0  0  0  0  0  0  0  0  0
   38.4020   27.7940   36.6860 H   0  0  0  0  0  0  0  0  0  0  0  0
   35.4930   29.2350   34.2570 C   0  0  0  0  0  0  0  0  0  0  0  0
   36.0560   29.2710   35.2080 H   0  0  0  0  0  0  0  0  0  0  0  0
   34.5820   28.5940   34.5320 H   0  0  0  0  0  0  0  0  0  0  0  0
   34.9270   30.5490   33.9460 C   0  0  0  0  0  0  0  0  0  0  0  0
   34.7120   30.5640   32.8390 H   0  0  0  0  0  0  0  0  0  0  0  0
   33.9010   30.6630   34.4250 H   0  0  0  0  0  0  0  0  0  0  0  0
   35.7250   31.7400   34.2730 C   0  0  0  0  0  0  0  0  0  0  0  0
   36.2130   32.3800   35.3850 C   0  0  0  0  0  0  0  0  0  0  0  0
   35.8940   31.9100   36.2930 H   0  0  0  0  0  0  0  0  0  0  0  0
   36.9930   33.4970   35.3890 C   0  0  0  0  0  3  0  0  0  0  0  0
   37.3640   34.0920   34.2180 C   0  0  0  0  0  0  0  0  0  0  0  0
   37.9810   34.9680   34.3450 H   0  0  0  0  0  0  0  0  0  0  0  0
   36.9280   33.5310   33.0450 C   0  0  0  0  0  0  0  0  0  0  0  0
   37.2390   34.0250   32.1500 H   0  0  0  0  0  0  0  0  0  0  0  0
   36.1320   32.3860   33.1070 C   0  0  0  0  0  3  0  0  0  0  0  0
  1  9  1  0  0  0  0
  2  1  1  0  0  0  0
  2 17  1  0  0  0  0
  3  2  2  0  0  0  0
  4  5  2  0  0  0  0
  4  3  1  0  0  0  0
  5  6  1  0  0  0  0
  6  1  2  0  0  0  0
  7  3  1  0  0  0  0
  8  5  1  0  0  0  0
  9 10  1  0  0  0  0
  9 12  1  0  0  0  0
  9 11  1  0  0  0  0
 10 11  1  0  0  0  0
 10 14  1  0  0  0  0
 11 16  1  0  0  0  0
 13 10  1  0  0  0  0
 15 11  1  0  0  0  0
 17 19  1  0  0  0  0
 17 18  1  0  0  0  0
 20 17  1  0  0  0  0
 20 23  1  0  0  0  0
 20 22  1  0  0  0  0
 21 20  1  0  0  0  0
 23 24  1  0  0  0  0
 24 26  2  0  0  0  0
 24 25  1  0  0  0  0
 27 28  1  0  0  0  0
 27 26  1  0  0  0  0
 29 31  1  0  0  0  0
 29 27  2  0  0  0  0
 30 29  1  0  0  0  0
 31 23  2  0  0  0  0
M  END
>  <minimizedAffinity>
-4.55625105

$$$$
