
 OpenBabel03272505443D

 24 25  0  0  0  0  0  0  0  0999 V2000
   32.5110   28.0890   49.1190 O   0  0  0  0  0  0  0  0  0  0  0  0
   33.8680   28.3330   48.4930 P   0  0  2  0  0  0  0  0  0  0  0  0
   34.0120   27.2110   47.2280 O   0  0  0  0  0  0  0  0  0  0  0  0
   34.1000   26.3000   47.6040 H   0  0  0  0  0  0  0  0  0  0  0  0
   35.0560   28.0850   49.6820 O   0  0  0  0  0  0  0  0  0  0  0  0
   37.3400   30.3510   51.4220 C   0  0  0  0  0  0  0  0  0  0  0  0
   38.0670   30.8510   50.3020 C   0  0  0  0  0  0  0  0  0  0  0  0
   37.7190   30.3730   49.0290 C   0  0  0  0  0  0  0  0  0  0  0  0
   36.7200   29.4700   48.9320 N   0  0  0  0  0  0  0  0  0  0  0  0
   36.0390   29.0050   50.0070 C   0  0  0  0  0  0  0  0  0  0  0  0
   36.3610   29.4550   51.2440 N   0  0  0  0  0  0  0  0  0  0  0  0
   37.5760   30.6940   52.4220 H   0  0  0  0  0  0  0  0  0  0  0  0
   38.8500   31.5680   50.4400 H   0  0  0  0  0  0  0  0  0  0  0  0
   38.2480   30.7290   48.1530 H   0  0  0  0  0  0  0  0  0  0  0  0
   33.8650   29.8730   47.8550 O   0  0  0  0  0  0  0  0  0  0  0  0
   33.8320   30.1330   46.5010 C   0  0  0  0  0  0  0  0  0  0  0  0
   32.6430   30.5440   45.9460 C   0  0  0  0  0  0  0  0  0  0  0  0
   31.7650   30.6510   46.5880 H   0  0  0  0  0  0  0  0  0  0  0  0
   32.6180   30.8010   44.5950 C   0  0  0  0  0  0  0  0  0  0  0  0
   33.7160   30.6650   43.7900 C   0  0  0  0  0  0  0  0  0  0  0  0
   33.7380   30.8550   42.7370 H   0  0  0  0  0  0  0  0  0  0  0  0
   34.8740   30.2500   44.4140 C   0  0  0  0  0  0  0  0  0  0  0  0
   35.7650   30.1310   43.8100 H   0  0  0  0  0  0  0  0  0  0  0  0
   35.0070   29.9640   45.7720 C   0  0  0  0  0  0  0  0  0  0  0  0
  2  1  2  1  0  0  0
  2  5  1  0  0  0  0
  3  4  1  0  0  0  0
  3  2  1  0  0  0  0
  5 10  1  0  0  0  0
  6 12  1  0  0  0  0
  7 13  1  0  0  0  0
  7  6  2  0  0  0  0
  8  7  1  0  0  0  0
  9  8  2  0  0  0  0
  9 10  1  0  0  0  0
 10 11  2  0  0  0  0
 11  6  1  0  0  0  0
 14  8  1  0  0  0  0
 15  2  1  0  0  0  0
 16 15  1  0  0  0  0
 17 16  1  0  0  0  0
 17 18  1  0  0  0  0
 19 17  2  0  0  0  0
 20 22  2  0  0  0  0
 20 19  1  0  0  0  0
 21 20  1  0  0  0  0
 22 24  1  0  0  0  0
 23 22  1  0  0  0  0
 24 16  2  0  0  0  0
M  END
>  <minimizedAffinity>
-4.39222956

>  <minimizedRMSD>
0.785624743

$$$$
