REMARK  Name = 
REMARK  4 active torsions:
REMARK  status: ('A' for Active; 'I' for Inactive)
REMARK    1  A    between atoms: C_1  and  C_8
REMARK    2  A    between atoms: C_4  and  O_13
REMARK    3  A    between atoms: O_13  and  C_14
REMARK    4  A    between atoms: N_17  and  C_27
REMARK                            x       y       z     vdW  Elec       q    Type
REMARK                         _______ _______ _______ _____ _____    ______ ____
ROOT
ATOM      1  C   UNL     1      33.837  28.785  48.273  0.00  0.00    +0.000 A 
ATOM      2  C   UNL     1      34.439  28.420  49.425  0.00  0.00    +0.000 A 
ATOM      3  C   UNL     1      35.712  28.788  49.807  0.00  0.00    +0.000 A 
ATOM      4  C   UNL     1      36.457  29.583  48.986  0.00  0.00    +0.000 A 
ATOM      5  C   UNL     1      35.847  29.970  47.789  0.00  0.00    +0.000 A 
ATOM      6  N   UNL     1      34.599  29.579  47.469  0.00  0.00    +0.000 NA
ATOM      7  H   UNL     1      33.926  27.788  50.142  0.00  0.00    +0.000 HD
ATOM      8  H   UNL     1      36.187  28.487  50.739  0.00  0.00    +0.000 HD
ATOM      9  H   UNL     1      36.381  30.603  47.086  0.00  0.00    +0.000 HD
ENDROOT
BRANCH   1  11
ATOM     10  C   UNL     1      31.643  27.657  48.700  0.00  0.00    +0.000 A 
ATOM     11  C   UNL     1      32.515  28.397  47.887  0.00  0.00    +0.000 A 
ATOM     12  C   UNL     1      32.035  28.759  46.637  0.00  0.00    +0.000 A 
ATOM     13  N   UNL     1      30.766  28.383  46.275  0.00  0.00    +0.000 NA
ATOM     14  C   UNL     1      29.981  27.672  47.105  0.00  0.00    +0.000 A 
ATOM     15  N   UNL     1      30.407  27.305  48.315  0.00  0.00    +0.000 NA
ATOM     16  H   UNL     1      31.986  27.358  49.681  0.00  0.00    +0.000 HD
ATOM     17  H   UNL     1      32.678  29.331  45.982  0.00  0.00    +0.000 HD
ATOM     18  H   UNL     1      29.004  27.439  46.702  0.00  0.00    +0.000 HD
ENDBRANCH   1  11
BRANCH   4  19
ATOM     19  O   UNL     1      37.750  30.041  49.222  0.00  0.00    +0.000 OA
BRANCH  19  20
ATOM     20  C   UNL     1      38.160  31.299  48.784  0.00  0.00    +0.000 A 
ATOM     21  C   UNL     1      37.877  32.345  49.673  0.00  0.00    +0.000 A 
ATOM     22  C   UNL     1      38.337  33.521  49.109  0.00  0.00    +0.000 A 
ATOM     23  N   UNL     1      38.870  33.167  47.932  0.00  0.00    +0.000 N 
ATOM     24  N   UNL     1      38.772  31.876  47.734  0.00  0.00    +0.000 NA
ATOM     25  H   UNL     1      37.397  32.407  50.655  0.00  0.00    +0.000 HD
ATOM     26  H   UNL     1      38.369  34.560  49.364  0.00  0.00    +0.000 HD
BRANCH  23  27
ATOM     27  C   UNL     1      39.521  33.840  46.832  0.00  0.00    +0.000 A 
ATOM     28  C   UNL     1      40.187  33.115  45.834  0.00  0.00    +0.000 A 
ATOM     29  H   UNL     1      40.222  32.045  45.875  0.00  0.00    +0.000 HD
ATOM     30  C   UNL     1      40.783  33.840  44.817  0.00  0.00    +0.000 A 
ATOM     31  C   UNL     1      40.761  35.217  44.728  0.00  0.00    +0.000 A 
ATOM     32  H   UNL     1      41.236  35.756  43.920  0.00  0.00    +0.000 HD
ATOM     33  C   UNL     1      40.096  35.938  45.724  0.00  0.00    +0.000 A 
ATOM     34  H   UNL     1      40.058  37.018  45.686  0.00  0.00    +0.000 HD
ATOM     35  C   UNL     1      39.495  35.228  46.747  0.00  0.00    +0.000 A 
ENDBRANCH  23  27
ENDBRANCH  19  20
ENDBRANCH   4  19
TORSDOF 4
