
 OpenBabel03272509473D

 25 26  0  0  0  0  0  0  0  0999 V2000
   33.8280   28.6790   49.0840 C   0  0  0  0  0  0  0  0  0  0  0  0
   33.0640   29.2430   49.6460 H   0  0  0  0  0  0  0  0  0  0  0  0
   34.2350   29.3770   48.3120 H   0  0  0  0  0  0  0  0  0  0  0  0
   33.2370   27.5230   48.3120 C   0  0  0  0  0  0  0  0  0  0  0  0
   33.4280   26.5840   48.8490 H   0  0  0  0  0  0  0  0  0  0  0  0
   32.1230   27.6930   48.3210 H   0  0  0  0  0  0  0  0  0  0  0  0
   33.6590   27.4680   46.9090 C   0  0  0  0  0  0  0  0  0  0  0  0
   34.0220   28.7060   46.3930 C   0  0  0  0  0  0  0  0  0  0  0  0
   34.0040   29.6350   46.9520 H   0  0  0  0  0  0  0  0  0  0  0  0
   34.4530   28.8620   45.0720 C   0  0  0  0  0  3  0  0  0  0  0  0
   34.5230   27.7490   44.2450 C   0  0  0  0  0  0  0  0  0  0  0  0
   34.8570   27.8940   43.2340 H   0  0  0  0  0  0  0  0  0  0  0  0
   34.1570   26.5380   44.7830 C   0  0  0  0  0  0  0  0  0  0  0  0
   34.2100   25.6630   44.1390 H   0  0  0  0  0  0  0  0  0  0  0  0
   33.7300   26.3670   46.0820 C   0  0  0  0  0  3  0  0  0  0  0  0
   34.8600   28.2310   49.9400 O   0  0  0  0  0  0  0  0  0  0  0  0
   37.4560   30.3350   51.3400 C   0  0  0  0  0  0  0  0  0  0  0  0
   38.0940   30.7670   50.1830 C   0  0  0  0  0  0  0  0  0  0  0  0
   37.5960   30.3100   48.9700 C   0  0  0  0  0  0  0  0  0  0  0  0
   36.5170   29.4710   49.0090 N   0  0  0  0  0  0  0  0  0  0  0  0
   35.9260   29.0750   50.1590 C   0  0  0  0  0  0  0  0  0  0  0  0
   36.4190   29.5250   51.3240 N   0  0  0  0  0  0  0  0  0  0  0  0
   37.8860   30.7210   52.2540 H   0  0  0  0  0  0  0  0  0  0  0  0
   38.9450   31.4250   50.0770 H   0  0  0  0  0  0  0  0  0  0  0  0
   38.0180   30.5840   47.9930 H   0  0  0  0  0  0  0  0  0  0  0  0
  1  2  1  0  0  0  0
  1 16  1  0  0  0  0
  3  1  1  0  0  0  0
  4  6  1  0  0  0  0
  4  5  1  0  0  0  0
  4  1  1  0  0  0  0
  7  4  1  0  0  0  0
  8  7  1  0  0  0  0
  8  9  1  0  0  0  0
 10  8  2  0  0  0  0
 11 13  2  0  0  0  0
 11 10  1  0  0  0  0
 12 11  1  0  0  0  0
 13 15  1  0  0  0  0
 14 13  1  0  0  0  0
 15  7  2  0  0  0  0
 16 21  1  0  0  0  0
 17 23  1  0  0  0  0
 18 17  2  0  0  0  0
 19 20  2  0  0  0  0
 19 18  1  0  0  0  0
 20 21  1  0  0  0  0
 21 22  2  0  0  0  0
 22 17  1  0  0  0  0
 24 18  1  0  0  0  0
 25 19  1  0  0  0  0
M  END
>  <minimizedAffinity>
-4.04426098

>  <minimizedRMSD>
1.08149755

$$$$
