
 OpenBabel03272510043D

 37 39  0  0  0  0  0  0  0  0999 V2000
   34.7960   29.4160   45.4100 C   0  0  0  0  0  0  0  0  0  0  0  0
   34.7210   29.3380   46.7650 C   0  0  0  0  0  0  0  0  0  0  0  0
   33.6340   28.7000   47.3560 C   0  0  0  0  0  0  0  0  0  0  0  0
   32.6110   28.1360   46.6240 C   0  0  0  0  0  0  0  0  0  0  0  0
   32.6540   28.2000   45.2520 C   0  0  0  0  0  0  0  0  0  0  0  0
   33.7410   28.8350   44.6980 C   0  0  0  0  0  0  0  0  0  0  0  0
   33.6030   28.6510   48.4560 H   0  0  0  0  0  0  0  0  0  0  0  0
   31.8320   27.6730   47.1730 H   0  0  0  0  0  0  0  0  0  0  0  0
   31.8440   27.7540   44.7360 H   0  0  0  0  0  0  0  0  0  0  0  0
   33.6580   28.8240   43.6040 H   0  0  0  0  0  0  0  0  0  0  0  0
   37.3580   31.6110   47.9410 C   0  0  0  0  0  0  0  0  0  0  0  0
   36.3780   31.0210   47.1590 C   0  0  0  0  0  0  0  0  0  0  0  0
   35.7100   29.9240   47.6030 C   0  0  0  0  0  0  0  0  0  0  0  0
   36.0450   29.4500   48.8360 N   0  0  0  0  0  0  0  0  0  0  0  0
   36.9860   30.0180   49.5970 C   0  0  0  0  0  0  0  0  0  0  0  0
   37.6390   31.0930   49.1440 N   0  0  0  0  0  0  0  0  0  0  0  0
   37.9740   32.4650   47.7450 H   0  0  0  0  0  0  0  0  0  0  0  0
   36.3290   31.6370   46.2940 H   0  0  0  0  0  0  0  0  0  0  0  0
   37.2040   29.4340   50.9480 C   0  0  0  0  0  0  0  0  0  0  0  0
   37.6740   30.3710   51.8490 F   0  0  0  0  0  0  0  0  0  0  0  0
   35.9160   29.0840   51.5070 F   0  0  0  0  0  0  0  0  0  0  0  0
   37.8860   28.3130   51.0180 F   0  0  0  0  0  0  0  0  0  0  0  0
   36.0970   30.1330   44.5640 S   0  0  0  0  0  0  0  0  0  0  0  0
   35.7530   31.4890   44.0750 O   0  0  0  0  0  0  0  0  0  0  0  0
   35.9300   29.4310   43.2300 O   0  0  0  0  0  0  0  0  0  0  0  0
   37.7220   29.6430   44.4970 C   0  0  0  0  0  0  0  0  0  0  0  0
   37.8850   29.0970   45.5090 H   0  0  0  0  0  0  0  0  0  0  0  0
   37.9140   28.7900   43.8220 H   0  0  0  0  0  0  0  0  0  0  0  0
   38.7400   30.6700   44.5600 C   0  0  0  0  0  0  0  0  0  0  0  0
   39.6450   30.5280   45.5710 C   0  0  0  0  0  0  0  0  0  0  0  0
   39.6280   29.7040   46.3020 H   0  0  0  0  0  0  0  0  0  0  0  0
   40.7060   31.4000   45.8170 C   0  0  0  0  0  3  0  0  0  0  0  0
   40.8380   32.4880   44.9600 C   0  0  0  0  0  0  0  0  0  0  0  0
   41.6550   33.1730   45.1380 H   0  0  0  0  0  0  0  0  0  0  0  0
   39.9280   32.6390   43.9360 C   0  0  0  0  0  0  0  0  0  0  0  0
   40.0350   33.4910   43.2690 H   0  0  0  0  0  0  0  0  0  0  0  0
   38.8930   31.7500   43.7320 C   0  0  0  0  0  3  0  0  0  0  0  0
  1  2  1  0  0  0  0
  2  3  2  0  0  0  0
  2 13  1  0  0  0  0
  3  7  1  0  0  0  0
  4  8  1  0  0  0  0
  4  3  1  0  0  0  0
  5  4  2  0  0  0  0
  6  5  1  0  0  0  0
  6  1  2  0  0  0  0
  9  5  1  0  0  0  0
 10  6  1  0  0  0  0
 11 16  1  0  0  0  0
 12 13  1  0  0  0  0
 12 11  2  0  0  0  0
 13 14  2  0  0  0  0
 14 15  1  0  0  0  0
 15 19  1  0  0  0  0
 16 15  2  0  0  0  0
 17 11  1  0  0  0  0
 18 12  1  0  0  0  0
 19 22  1  0  0  0  0
 19 21  1  0  0  0  0
 19 20  1  0  0  0  0
 23  1  1  0  0  0  0
 24 23  2  0  0  0  0
 25 23  2  0  0  0  0
 26 29  1  0  0  0  0
 26 23  1  0  0  0  0
 26 27  1  0  0  0  0
 28 26  1  0  0  0  0
 29 30  1  0  0  0  0
 30 32  2  0  0  0  0
 30 31  1  0  0  0  0
 33 34  1  0  0  0  0
 33 32  1  0  0  0  0
 35 33  2  0  0  0  0
 36 35  1  0  0  0  0
 37 35  1  0  0  0  0
 37 29  2  0  0  0  0
M  END
>  <minimizedAffinity>
-5.40997648

>  <minimizedRMSD>
3.38541961

$$$$
