
 OpenBabel03272509473D

 25 26  0  0  0  0  0  0  0  0999 V2000
   34.1850   28.4070   48.5300 C   0  0  0  0  0  0  0  0  0  0  0  0
   33.3170   29.0880   48.5040 H   0  0  0  0  0  0  0  0  0  0  0  0
   34.9380   28.8250   47.8170 H   0  0  0  0  0  0  0  0  0  0  0  0
   33.8520   27.0300   48.0040 C   0  0  0  0  0  0  0  0  0  0  0  0
   34.7760   26.4520   47.8750 H   0  0  0  0  0  0  0  0  0  0  0  0
   33.2570   26.5320   48.8220 H   0  0  0  0  0  0  0  0  0  0  0  0
   33.0160   27.0400   46.8000 C   0  0  0  0  0  0  0  0  0  0  0  0
   33.7110   27.3920   45.6490 C   0  0  0  0  0  0  0  0  0  0  0  0
   34.7660   27.6390   45.6190 H   0  0  0  0  0  0  0  0  0  0  0  0
   33.0900   27.4580   44.3980 C   0  0  0  0  0  3  0  0  0  0  0  0
   31.7380   27.1640   44.2960 C   0  0  0  0  0  0  0  0  0  0  0  0
   31.2830   27.2220   43.3240 H   0  0  0  0  0  0  0  0  0  0  0  0
   31.0780   26.8190   45.4510 C   0  0  0  0  0  0  0  0  0  0  0  0
   30.0160   26.5870   45.3750 H   0  0  0  0  0  0  0  0  0  0  0  0
   31.6730   26.7480   46.6910 C   0  0  0  0  0  3  0  0  0  0  0  0
   34.7280   28.3260   49.8320 O   0  0  0  0  0  0  0  0  0  0  0  0
   37.3690   30.2440   51.4030 C   0  0  0  0  0  0  0  0  0  0  0  0
   38.0790   30.6740   50.2870 C   0  0  0  0  0  0  0  0  0  0  0  0
   37.6110   30.2790   49.0410 C   0  0  0  0  0  0  0  0  0  0  0  0
   36.4880   29.5000   49.0090 N   0  0  0  0  0  0  0  0  0  0  0  0
   35.8270   29.1040   50.1210 C   0  0  0  0  0  0  0  0  0  0  0  0
   36.2920   29.4940   51.3180 N   0  0  0  0  0  0  0  0  0  0  0  0
   37.7790   30.5810   52.3450 H   0  0  0  0  0  0  0  0  0  0  0  0
   38.9680   31.2870   50.2370 H   0  0  0  0  0  0  0  0  0  0  0  0
   38.0880   30.5570   48.0910 H   0  0  0  0  0  0  0  0  0  0  0  0
  1 16  1  0  0  0  0
  2  1  1  0  0  0  0
  3  1  1  0  0  0  0
  4  1  1  0  0  0  0
  4  6  1  0  0  0  0
  5  4  1  0  0  0  0
  7  4  1  0  0  0  0
  8  7  2  0  0  0  0
  9  8  1  0  0  0  0
 10  8  1  0  0  0  0
 11 10  2  0  0  0  0
 11 13  1  0  0  0  0
 12 11  1  0  0  0  0
 13 15  2  0  0  0  0
 14 13  1  0  0  0  0
 15  7  1  0  0  0  0
 16 21  1  0  0  0  0
 17 23  1  0  0  0  0
 18 17  2  0  0  0  0
 19 18  1  0  0  0  0
 20 19  2  0  0  0  0
 20 21  1  0  0  0  0
 21 22  2  0  0  0  0
 22 17  1  0  0  0  0
 24 18  1  0  0  0  0
 25 19  1  0  0  0  0
M  END
>  <minimizedAffinity>
-3.73321247

>  <minimizedRMSD>
0.451521367

$$$$
