
     RDKit          3D

 39 41  0  0  0  0  0  0  0  0999 V2000
   38.1623   31.2427   44.9281 C   0  0  0  0  0  0  0  0  0  0  0  0
   37.3432   30.9464   45.9709 C   0  0  0  0  0  0  0  0  0  0  0  0
   36.1082   30.3534   45.7274 C   0  0  0  0  0  0  0  0  0  0  0  0
   35.6644   30.0483   44.4582 C   0  0  0  0  0  0  0  0  0  0  0  0
   36.4664   30.3382   43.3803 C   0  0  0  0  0  0  0  0  0  0  0  0
   37.6797   30.9219   43.6542 C   0  0  0  0  0  0  0  0  0  0  0  0
   38.6842   32.7799   48.8600 C   0  0  0  0  0  0  0  0  0  0  0  0
   38.3092   32.4457   47.5676 C   0  0  0  0  0  0  0  0  0  0  0  0
   37.6988   31.2588   47.3135 C   0  0  0  0  0  0  0  0  0  0  0  0
   37.4748   30.4352   48.3741 N   0  0  0  0  0  0  0  0  0  0  0  0
   37.8302   30.7525   49.6245 C   0  0  0  0  0  0  0  0  0  0  0  0
   38.4347   31.9223   49.8576 N   0  0  0  0  0  0  0  0  0  0  0  0
   37.4663   29.7874   50.6949 C   0  0  0  0  0  0  0  0  0  0  0  0
   37.7201   30.2922   51.9572 F   0  0  0  0  0  0  0  0  0  0  0  0
   36.0272   29.6365   50.7038 F   0  0  0  0  0  0  0  0  0  0  0  0
   37.9051   28.5550   50.5707 F   0  0  0  0  0  0  0  0  0  0  0  0
   39.7171   31.9310   45.0977 S   0  0  0  0  0  0  0  0  0  0  0  0
   39.6953   33.3982   44.8875 O   0  0  0  0  0  0  0  0  0  0  0  0
   40.2841   31.5796   43.7364 O   0  0  0  0  0  0  0  0  0  0  0  0
   41.1246   31.2329   45.7444 C   0  0  0  0  0  0  0  0  0  0  0  0
   35.4682   30.1235   46.5936 H   0  0  0  0  0  0  0  0  0  0  0  0
   34.7091   29.5965   44.3831 H   0  0  0  0  0  0  0  0  0  0  0  0
   36.0790   30.0858   42.4274 H   0  0  0  0  0  0  0  0  0  0  0  0
   38.2222   31.1062   42.7175 H   0  0  0  0  0  0  0  0  0  0  0  0
   39.1700   33.6593   49.2306 H   0  0  0  0  0  0  0  0  0  0  0  0
   38.5815   33.2960   46.9902 H   0  0  0  0  0  0  0  0  0  0  0  0
   40.8980   31.1616   46.8808 H   0  0  0  0  0  0  0  0  0  0  0  0
   41.2366   30.1537   45.5350 H   0  0  0  0  0  0  0  0  0  0  0  0
   42.3340   32.0290   45.7452 C   0  0  0  0  0  0  0  0  0  0  0  0
   43.3345   31.5630   46.5468 C   0  0  0  0  0  0  0  0  0  0  0  0
   43.2586   30.6522   47.1599 H   0  0  0  0  0  0  0  0  0  0  0  0
   44.5802   32.1714   46.6984 C   0  0  0  0  0  0  0  0  0  0  0  0
   44.8040   33.3373   45.9731 C   0  0  0  0  0  0  0  0  0  0  0  0
   45.7648   33.8213   46.0793 H   0  0  0  0  0  0  0  0  0  0  0  0
   43.7987   33.8149   45.1608 C   0  0  0  0  0  0  0  0  0  0  0  0
   43.9779   34.7270   44.5954 H   0  0  0  0  0  0  0  0  0  0  0  0
   42.5806   33.1790   45.0418 C   0  0  0  0  0  0  0  0  0  0  0  0
   45.3633   31.7937   47.3350 H   0  0  0  0  0  0  0  0  0  0  0  0
   41.7704   33.5408   44.4039 H   0  0  0  0  0  0  0  0  0  0  0  0
  1 17  1  0
  1  2  1  0
  2  9  1  0
  3  2  2  0
  4  3  1  0
  5  6  1  0
  5  4  2  0
  6  1  2  0
  7 12  2  0
  8  7  1  0
  9  8  2  0
  9 10  1  0
 10 11  2  0
 11 12  1  0
 11 13  1  0
 13 15  1  0
 13 14  1  0
 16 13  1  0
 17 20  1  0
 18 17  2  0
 19 17  2  0
  3 21  1  0
  4 22  1  0
  5 23  1  0
  6 24  1  0
  7 25  1  0
  8 26  1  0
 20 27  1  0
 20 28  1  0
 29 30  2  0
 30 31  1  0
 30 32  1  0
 32 33  2  0
 33 34  1  0
 33 35  1  0
 35 36  1  0
 35 37  2  0
 37 29  1  0
 32 38  1  0
 37 39  1  0
 20 29  1  0
M  ISO  8  21  14  22  14  23  14  24  14  25  14  26  14  27   8  28   8
M  ISO  3  31  16  34  16  36  16
M  END
>  <DihAtoms>  (1) 
16,19,28,29

>  <DihDeg>  (1) 
-89.99848797541551

$$$$
