
 OpenBabel03272509473D

 25 26  0  0  0  0  0  0  0  0999 V2000
   34.2010   28.4060   48.4830 C   0  0  0  0  0  0  0  0  0  0  0  0
   33.3440   29.1010   48.4600 H   0  0  0  0  0  0  0  0  0  0  0  0
   34.9630   28.8180   47.7760 H   0  0  0  0  0  0  0  0  0  0  0  0
   33.8480   27.0390   47.9440 C   0  0  0  0  0  0  0  0  0  0  0  0
   34.7250   26.3820   48.0030 H   0  0  0  0  0  0  0  0  0  0  0  0
   33.0740   26.6280   48.6520 H   0  0  0  0  0  0  0  0  0  0  0  0
   33.2480   27.0640   46.6070 C   0  0  0  0  0  0  0  0  0  0  0  0
   31.8720   26.8660   46.6170 C   0  0  0  0  0  0  0  0  0  0  0  0
   31.2790   26.7070   47.5120 H   0  0  0  0  0  0  0  0  0  0  0  0
   31.1150   26.8540   45.4420 C   0  0  0  0  0  3  0  0  0  0  0  0
   31.7510   27.0460   44.2230 C   0  0  0  0  0  0  0  0  0  0  0  0
   31.1490   27.0340   43.3340 H   0  0  0  0  0  0  0  0  0  0  0  0
   33.1130   27.2400   44.2450 C   0  0  0  0  0  0  0  0  0  0  0  0
   33.6160   27.3910   43.2910 H   0  0  0  0  0  0  0  0  0  0  0  0
   33.8740   27.2540   45.3940 C   0  0  0  0  0  3  0  0  0  0  0  0
   34.7370   28.3050   49.7860 O   0  0  0  0  0  0  0  0  0  0  0  0
   37.3420   30.2300   51.4100 C   0  0  0  0  0  0  0  0  0  0  0  0
   38.0660   30.6700   50.3070 C   0  0  0  0  0  0  0  0  0  0  0  0
   37.6200   30.2800   49.0520 C   0  0  0  0  0  0  0  0  0  0  0  0
   36.5020   29.4940   48.9980 N   0  0  0  0  0  0  0  0  0  0  0  0
   35.8270   29.0880   50.0970 C   0  0  0  0  0  0  0  0  0  0  0  0
   36.2710   29.4740   51.3040 N   0  0  0  0  0  0  0  0  0  0  0  0
   37.7350   30.5640   52.3600 H   0  0  0  0  0  0  0  0  0  0  0  0
   38.9520   31.2890   50.2750 H   0  0  0  0  0  0  0  0  0  0  0  0
   38.1110   30.5660   48.1110 H   0  0  0  0  0  0  0  0  0  0  0  0
  1 16  1  0  0  0  0
  2  1  1  0  0  0  0
  3  1  1  0  0  0  0
  4  5  1  0  0  0  0
  4  1  1  0  0  0  0
  4  6  1  0  0  0  0
  7  8  1  0  0  0  0
  7  4  1  0  0  0  0
  8  9  1  0  0  0  0
 10  8  2  0  0  0  0
 11 13  2  0  0  0  0
 11 10  1  0  0  0  0
 12 11  1  0  0  0  0
 13 15  1  0  0  0  0
 14 13  1  0  0  0  0
 15  7  2  0  0  0  0
 16 21  1  0  0  0  0
 17 23  1  0  0  0  0
 18 17  2  0  0  0  0
 19 18  1  0  0  0  0
 20 19  2  0  0  0  0
 20 21  1  0  0  0  0
 21 22  2  0  0  0  0
 22 17  1  0  0  0  0
 24 18  1  0  0  0  0
 25 19  1  0  0  0  0
M  END
>  <minimizedAffinity>
-3.7421608

>  <minimizedRMSD>
0.0644159615

$$$$
