REMARK  Name = 
REMARK  5 active torsions:
REMARK  status: ('A' for Active; 'I' for Inactive)
REMARK    1  A    between atoms: C_1  and  S_17
REMARK    2  A    between atoms: C_2  and  C_9
REMARK    3  A    between atoms: C_11  and  C_13
REMARK    4  A    between atoms: S_17  and  C_20
REMARK    5  A    between atoms: C_20  and  C_29
REMARK                            x       y       z     vdW  Elec       q    Type
REMARK                         _______ _______ _______ _____ _____    ______ ____
ROOT
ATOM      1  C   UNL     1      38.162  31.243  44.928  0.00  0.00    +0.000 A 
ATOM      2  C   UNL     1      37.343  30.946  45.971  0.00  0.00    +0.000 A 
ATOM      3  C   UNL     1      36.108  30.353  45.727  0.00  0.00    +0.000 A 
ATOM      4  C   UNL     1      35.664  30.048  44.458  0.00  0.00    +0.000 A 
ATOM      5  C   UNL     1      36.466  30.338  43.380  0.00  0.00    +0.000 A 
ATOM      6  C   UNL     1      37.680  30.922  43.654  0.00  0.00    +0.000 A 
ATOM      7  H   UNL     1      35.468  30.123  46.594  0.00  0.00    +0.000 HD
ATOM      8  H   UNL     1      34.709  29.596  44.383  0.00  0.00    +0.000 HD
ATOM      9  H   UNL     1      36.079  30.086  42.427  0.00  0.00    +0.000 HD
ATOM     10  H   UNL     1      38.222  31.106  42.718  0.00  0.00    +0.000 HD
ENDROOT
BRANCH   2  13
ATOM     11  C   UNL     1      38.684  32.780  48.860  0.00  0.00    +0.000 A 
ATOM     12  C   UNL     1      38.309  32.446  47.568  0.00  0.00    +0.000 A 
ATOM     13  C   UNL     1      37.699  31.259  47.313  0.00  0.00    +0.000 A 
ATOM     14  N   UNL     1      37.475  30.435  48.374  0.00  0.00    +0.000 NA
ATOM     15  C   UNL     1      37.830  30.753  49.624  0.00  0.00    +0.000 A 
ATOM     16  N   UNL     1      38.435  31.922  49.858  0.00  0.00    +0.000 NA
ATOM     17  H   UNL     1      39.170  33.659  49.231  0.00  0.00    +0.000 HD
ATOM     18  H   UNL     1      38.581  33.296  46.990  0.00  0.00    +0.000 HD
BRANCH  15  19
ATOM     19  C   UNL     1      37.466  29.787  50.695  0.00  0.00    +0.000 C 
ATOM     20  F   UNL     1      37.720  30.292  51.957  0.00  0.00    +0.000 F 
ATOM     21  F   UNL     1      36.027  29.637  50.704  0.00  0.00    +0.000 F 
ATOM     22  F   UNL     1      37.905  28.555  50.571  0.00  0.00    +0.000 F 
ENDBRANCH  15  19
ENDBRANCH   2  13
BRANCH   1  23
ATOM     23  S   UNL     1      39.717  31.931  45.098  0.00  0.00    +0.000 S 
ATOM     24  O   UNL     1      39.695  33.398  44.888  0.00  0.00    +0.000 OA
ATOM     25  O   UNL     1      40.284  31.580  43.736  0.00  0.00    +0.000 OA
BRANCH  23  26
ATOM     26  C   UNL     1      41.125  31.233  45.744  0.00  0.00    +0.000 C 
ATOM     27  H   UNL     1      40.898  31.162  46.881  0.00  0.00    +0.000 HD
ATOM     28  H   UNL     1      41.237  30.154  45.535  0.00  0.00    +0.000 HD
BRANCH  26  29
ATOM     29  C   UNL     1      42.334  32.029  45.745  0.00  0.00    +0.000 A 
ATOM     30  C   UNL     1      42.259  33.197  46.446  0.00  0.00    +0.000 A 
ATOM     31  H   UNL     1      41.360  33.537  46.981  0.00  0.00    +0.000 HD
ATOM     32  C   UNL     1      43.302  34.113  46.578  0.00  0.00    +0.000 A 
ATOM     33  C   UNL     1      44.500  33.799  45.944  0.00  0.00    +0.000 A 
ATOM     34  H   UNL     1      45.319  34.498  46.037  0.00  0.00    +0.000 HD
ATOM     35  C   UNL     1      44.585  32.621  45.235  0.00  0.00    +0.000 A 
ATOM     36  H   UNL     1      45.523  32.379  44.741  0.00  0.00    +0.000 HD
ATOM     37  C   UNL     1      43.525  31.744  45.131  0.00  0.00    +0.000 A 
ENDBRANCH  26  29
ENDBRANCH  23  26
ENDBRANCH   1  23
TORSDOF 5
