
 OpenBabel03272501593D

 31 33  0  0  0  0  0  0  0  0999 V2000
   37.3970   24.3150   32.6120 C   0  0  0  0  0  0  0  0  0  0  0  0
   37.4440   25.6570   32.8780 C   0  0  0  0  0  0  0  0  0  0  0  0
   37.8610   25.8860   34.1810 C   0  0  0  0  0  0  0  0  0  0  0  0
   38.0570   24.6380   34.6730 N   0  0  0  0  0  0  0  0  0  0  0  0
   37.7890   23.7190   33.7630 N   0  0  0  0  0  0  0  0  0  0  0  0
   37.2060   26.5010   32.2200 H   0  0  0  0  0  0  0  0  0  0  0  0
   38.0320   26.7450   34.7860 H   0  0  0  0  0  0  0  0  0  0  0  0
   38.4790   24.1330   35.9280 C   0  0  0  0  0  0  0  0  0  0  0  0
   37.7470   24.4610   37.0710 C   0  0  0  0  0  0  0  0  0  0  0  0
   36.8630   25.1000   36.9770 H   0  0  0  0  0  0  0  0  0  0  0  0
   38.1620   23.9660   38.2940 C   0  0  0  0  0  3  0  0  0  0  0  0
   39.2920   23.1630   38.3220 C   0  0  0  0  0  0  0  0  0  0  0  0
   39.6660   22.7470   39.2440 H   0  0  0  0  0  0  0  0  0  0  0  0
   40.0060   22.8500   37.1680 C   0  0  0  0  0  0  0  0  0  0  0  0
   40.8930   22.2210   37.1830 H   0  0  0  0  0  0  0  0  0  0  0  0
   39.6030   23.3380   35.9380 C   0  0  0  0  0  3  0  0  0  0  0  0
   36.9910   23.6880   31.3020 C   0  0  0  0  0  0  0  0  0  0  0  0
   36.9840   24.4740   30.5460 H   0  0  0  0  0  0  0  0  0  0  0  0
   37.7070   22.8700   31.1070 H   0  0  0  0  0  0  0  0  0  0  0  0
   35.6170   23.1430   31.5120 C   0  0  0  0  0  0  0  0  0  0  0  0
   34.9150   23.3780   30.6840 H   0  0  0  0  0  0  0  0  0  0  0  0
   35.1520   23.5770   32.4240 H   0  0  0  0  0  0  0  0  0  0  0  0
   35.4330   19.8530   33.2050 C   0  0  0  0  0  0  0  0  0  0  0  0
   35.8320   18.9790   32.1610 C   0  0  0  0  0  0  0  0  0  0  0  0
   36.1590   19.5230   30.8940 C   0  0  0  0  0  0  0  0  0  0  0  0
   36.0710   20.8640   30.7450 N   0  0  0  0  0  0  0  0  0  0  0  0
   35.6870   21.6630   31.7640 C   0  0  0  0  0  0  0  0  0  0  0  0
   35.3790   21.1690   32.9510 N   0  0  0  0  0  0  0  0  0  0  0  0
   35.1960   19.3830   34.1500 H   0  0  0  0  0  0  0  0  0  0  0  0
   35.9140   17.9220   32.2340 H   0  0  0  0  0  0  0  0  0  0  0  0
   36.4650   18.8710   30.0870 H   0  0  0  0  0  0  0  0  0  0  0  0
  1  2  1  0  0  0  0
  1  5  2  0  0  0  0
  2  3  2  0  0  0  0
  3  4  1  0  0  0  0
  3  7  1  0  0  0  0
  4  8  1  0  0  0  0
  5  4  1  0  0  0  0
  6  2  1  0  0  0  0
  8 16  2  0  0  0  0
  8  9  1  0  0  0  0
  9 11  2  0  0  0  0
 10  9  1  0  0  0  0
 11 12  1  0  0  0  0
 12 13  1  0  0  0  0
 14 15  1  0  0  0  0
 14 12  2  0  0  0  0
 16 14  1  0  0  0  0
 17 20  1  0  0  0  0
 17  1  1  0  0  0  0
 18 17  1  0  0  0  0
 19 17  1  0  0  0  0
 20 27  1  0  0  0  0
 20 22  1  0  0  0  0
 21 20  1  0  0  0  0
 23 29  1  0  0  0  0
 24 30  1  0  0  0  0
 24 23  2  0  0  0  0
 25 24  1  0  0  0  0
 26 25  2  0  0  0  0
 26 27  1  0  0  0  0
 27 28  2  0  0  0  0
 28 23  1  0  0  0  0
 31 25  1  0  0  0  0
M  END
>  <minimizedAffinity>
-5.13148832

$$$$

 OpenBabel03272501593D

 31 33  0  0  0  0  0  0  0  0999 V2000
   37.4810   24.5040   32.8990 C   0  0  0  0  0  0  0  0  0  0  0  0
   36.5240   24.9400   32.0230 C   0  0  0  0  0  0  0  0  0  0  0  0
   35.8030   23.8720   31.5110 C   0  0  0  0  0  0  0  0  0  0  0  0
   36.3660   22.7940   32.1120 N   0  0  0  0  0  0  0  0  0  0  0  0
   37.3440   23.1570   32.9230 N   0  0  0  0  0  0  0  0  0  0  0  0
   36.2880   25.9640   31.7100 H   0  0  0  0  0  0  0  0  0  0  0  0
   34.9980   23.7550   30.8240 H   0  0  0  0  0  0  0  0  0  0  0  0
   36.1260   21.3990   32.0510 C   0  0  0  0  0  0  0  0  0  0  0  0
   36.3770   20.7210   30.8560 C   0  0  0  0  0  0  0  0  0  0  0  0
   36.7540   21.2760   29.9930 H   0  0  0  0  0  0  0  0  0  0  0  0
   36.1410   19.3580   30.8010 C   0  0  0  0  0  3  0  0  0  0  0  0
   35.6640   18.7330   31.9430 C   0  0  0  0  0  0  0  0  0  0  0  0
   35.4600   17.6740   31.9630 H   0  0  0  0  0  0  0  0  0  0  0  0
   35.4210   19.4320   33.1230 C   0  0  0  0  0  0  0  0  0  0  0  0
   35.0470   18.9470   34.0210 H   0  0  0  0  0  0  0  0  0  0  0  0
   35.6520   20.7940   33.1930 C   0  0  0  0  0  3  0  0  0  0  0  0
   38.4540   25.3780   33.6510 C   0  0  0  0  0  0  0  0  0  0  0  0
   39.3970   24.8350   33.7260 H   0  0  0  0  0  0  0  0  0  0  0  0
   38.5170   26.3310   33.0970 H   0  0  0  0  0  0  0  0  0  0  0  0
   37.8580   25.5950   35.0020 C   0  0  0  0  0  0  0  0  0  0  0  0
   36.7500   25.5300   35.0150 H   0  0  0  0  0  0  0  0  0  0  0  0
   38.0970   26.6130   35.3830 H   0  0  0  0  0  0  0  0  0  0  0  0
   40.1730   23.1640   36.5700 C   0  0  0  0  0  0  0  0  0  0  0  0
   39.5360   22.9360   37.8160 C   0  0  0  0  0  0  0  0  0  0  0  0
   38.3250   23.6130   38.1050 C   0  0  0  0  0  0  0  0  0  0  0  0
   37.8360   24.4530   37.1660 N   0  0  0  0  0  0  0  0  0  0  0  0
   38.4730   24.6440   35.9910 C   0  0  0  0  0  0  0  0  0  0  0  0
   39.6030   24.0190   35.7070 N   0  0  0  0  0  0  0  0  0  0  0  0
   41.0940   22.6210   36.4030 H   0  0  0  0  0  0  0  0  0  0  0  0
   39.8840   22.2870   38.5820 H   0  0  0  0  0  0  0  0  0  0  0  0
   37.8260   23.4500   39.0510 H   0  0  0  0  0  0  0  0  0  0  0  0
  1  5  2  0  0  0  0
  1 17  1  0  0  0  0
  2  1  1  0  0  0  0
  3  2  2  0  0  0  0
  3  4  1  0  0  0  0
  4  5  1  0  0  0  0
  6  2  1  0  0  0  0
  7  3  1  0  0  0  0
  8  4  1  0  0  0  0
  8 16  1  0  0  0  0
  9  8  2  0  0  0  0
 10  9  1  0  0  0  0
 11  9  1  0  0  0  0
 11 12  2  0  0  0  0
 12 13  1  0  0  0  0
 12 14  1  0  0  0  0
 14 16  2  0  0  0  0
 14 15  1  0  0  0  0
 17 18  1  0  0  0  0
 17 20  1  0  0  0  0
 19 17  1  0  0  0  0
 20 21  1  0  0  0  0
 20 22  1  0  0  0  0
 20 27  1  0  0  0  0
 23 24  1  0  0  0  0
 24 25  2  0  0  0  0
 24 30  1  0  0  0  0
 25 31  1  0  0  0  0
 26 25  1  0  0  0  0
 27 26  2  0  0  0  0
 28 27  1  0  0  0  0
 28 23  2  0  0  0  0
 29 23  1  0  0  0  0
M  END
>  <minimizedAffinity>
-5.03966284

$$$$

 OpenBabel03272501593D

 31 33  0  0  0  0  0  0  0  0999 V2000
   36.6510   27.9460   33.4990 C   0  0  0  0  0  0  0  0  0  0  0  0
   35.9260   28.3680   32.4180 C   0  0  0  0  0  0  0  0  0  0  0  0
   35.0670   29.3980   32.7730 C   0  0  0  0  0  0  0  0  0  0  0  0
   35.3080   29.5670   34.0970 N   0  0  0  0  0  0  0  0  0  0  0  0
   36.2310   28.7240   34.5250 N   0  0  0  0  0  0  0  0  0  0  0  0
   35.9530   28.0060   31.3830 H   0  0  0  0  0  0  0  0  0  0  0  0
   34.3480   29.9990   32.2680 H   0  0  0  0  0  0  0  0  0  0  0  0
   34.7890   30.4390   35.0860 C   0  0  0  0  0  0  0  0  0  0  0  0
   33.4180   30.4160   35.3560 C   0  0  0  0  0  0  0  0  0  0  0  0
   32.7730   29.7280   34.8010 H   0  0  0  0  0  0  0  0  0  0  0  0
   32.9150   31.2690   36.3220 C   0  0  0  0  0  3  0  0  0  0  0  0
   33.8040   32.1070   36.9780 C   0  0  0  0  0  0  0  0  0  0  0  0
   33.4730   32.7950   37.7400 H   0  0  0  0  0  0  0  0  0  0  0  0
   35.1670   32.1110   36.6910 C   0  0  0  0  0  0  0  0  0  0  0  0
   35.8680   32.7670   37.2010 H   0  0  0  0  0  0  0  0  0  0  0  0
   35.6840   31.2640   35.7270 C   0  0  0  0  0  3  0  0  0  0  0  0
   37.6830   26.8460   33.4950 C   0  0  0  0  0  0  0  0  0  0  0  0
   37.1650   25.9060   33.3010 H   0  0  0  0  0  0  0  0  0  0  0  0
   38.4350   27.1210   32.7350 H   0  0  0  0  0  0  0  0  0  0  0  0
   38.2920   26.8430   34.8590 C   0  0  0  0  0  0  0  0  0  0  0  0
   37.8640   27.6110   35.5370 H   0  0  0  0  0  0  0  0  0  0  0  0
   39.3800   27.0680   34.8090 H   0  0  0  0  0  0  0  0  0  0  0  0
   38.0080   24.1000   37.3330 C   0  0  0  0  0  0  0  0  0  0  0  0
   38.0220   22.9600   36.4880 C   0  0  0  0  0  0  0  0  0  0  0  0
   38.1300   23.1420   35.0870 C   0  0  0  0  0  0  0  0  0  0  0  0
   38.2120   24.4090   34.6230 N   0  0  0  0  0  0  0  0  0  0  0  0
   38.1950   25.4690   35.4590 C   0  0  0  0  0  0  0  0  0  0  0  0
   38.0950   25.3140   36.7690 N   0  0  0  0  0  0  0  0  0  0  0  0
   37.9240   23.9020   38.3930 H   0  0  0  0  0  0  0  0  0  0  0  0
   37.9600   21.9490   36.8090 H   0  0  0  0  0  0  0  0  0  0  0  0
   38.1430   22.2830   34.4290 H   0  0  0  0  0  0  0  0  0  0  0  0
  1  5  2  0  0  0  0
  2  3  2  0  0  0  0
  2  1  1  0  0  0  0
  3  4  1  0  0  0  0
  4  5  1  0  0  0  0
  4  8  1  0  0  0  0
  6  2  1  0  0  0  0
  7  3  1  0  0  0  0
  8  9  2  0  0  0  0
  8 16  1  0  0  0  0
  9 11  1  0  0  0  0
 10  9  1  0  0  0  0
 11 12  2  0  0  0  0
 12 13  1  0  0  0  0
 14 12  1  0  0  0  0
 14 15  1  0  0  0  0
 16 14  2  0  0  0  0
 17  1  1  0  0  0  0
 17 20  1  0  0  0  0
 18 17  1  0  0  0  0
 19 17  1  0  0  0  0
 20 27  1  0  0  0  0
 20 21  1  0  0  0  0
 22 20  1  0  0  0  0
 23 29  1  0  0  0  0
 24 30  1  0  0  0  0
 24 23  2  0  0  0  0
 25 24  1  0  0  0  0
 26 25  2  0  0  0  0
 26 27  1  0  0  0  0
 27 28  2  0  0  0  0
 28 23  1  0  0  0  0
 31 25  1  0  0  0  0
M  END
>  <minimizedAffinity>
-4.99594021

$$$$

 OpenBabel03272501593D

 31 33  0  0  0  0  0  0  0  0999 V2000
   37.2930   25.9350   33.1450 C   0  0  0  0  0  0  0  0  0  0  0  0
   37.0000   26.9820   33.9760 C   0  0  0  0  0  0  0  0  0  0  0  0
   37.4000   26.7060   35.2760 C   0  0  0  0  0  0  0  0  0  0  0  0
   37.9370   25.4640   35.1830 N   0  0  0  0  0  0  0  0  0  0  0  0
   37.8780   25.0100   33.9440 N   0  0  0  0  0  0  0  0  0  0  0  0
   36.5210   27.9400   33.7400 H   0  0  0  0  0  0  0  0  0  0  0  0
   37.3680   27.2190   36.2080 H   0  0  0  0  0  0  0  0  0  0  0  0
   38.5320   24.5800   36.1170 C   0  0  0  0  0  0  0  0  0  0  0  0
   37.9470   24.4330   37.3770 C   0  0  0  0  0  0  0  0  0  0  0  0
   37.0440   25.0000   37.6190 H   0  0  0  0  0  0  0  0  0  0  0  0
   38.5320   23.5680   38.2860 C   0  0  0  0  0  3  0  0  0  0  0  0
   39.6750   22.8880   37.8950 C   0  0  0  0  0  0  0  0  0  0  0  0
   40.1760   22.2000   38.5580 H   0  0  0  0  0  0  0  0  0  0  0  0
   40.2390   23.0510   36.6320 C   0  0  0  0  0  0  0  0  0  0  0  0
   41.1350   22.5210   36.3210 H   0  0  0  0  0  0  0  0  0  0  0  0
   39.6660   23.9120   35.7130 C   0  0  0  0  0  3  0  0  0  0  0  0
   37.0060   25.8740   31.6660 C   0  0  0  0  0  0  0  0  0  0  0  0
   36.7460   26.8810   31.3370 H   0  0  0  0  0  0  0  0  0  0  0  0
   37.9070   25.4540   31.1850 H   0  0  0  0  0  0  0  0  0  0  0  0
   35.8470   24.9480   31.5050 C   0  0  0  0  0  0  0  0  0  0  0  0
   35.1280   25.2670   30.7230 H   0  0  0  0  0  0  0  0  0  0  0  0
   35.2520   24.8880   32.4440 H   0  0  0  0  0  0  0  0  0  0  0  0
   38.0200   22.1070   30.5350 C   0  0  0  0  0  0  0  0  0  0  0  0
   37.1780   21.0020   30.8210 C   0  0  0  0  0  0  0  0  0  0  0  0
   35.8810   21.2400   31.3400 C   0  0  0  0  0  0  0  0  0  0  0  0
   35.5090   22.5240   31.5390 N   0  0  0  0  0  0  0  0  0  0  0  0
   36.3400   23.5500   31.2550 C   0  0  0  0  0  0  0  0  0  0  0  0
   37.5530   23.3430   30.7700 N   0  0  0  0  0  0  0  0  0  0  0  0
   38.9980   21.8670   30.1410 H   0  0  0  0  0  0  0  0  0  0  0  0
   37.4280   19.9790   30.6810 H   0  0  0  0  0  0  0  0  0  0  0  0
   35.2260   20.4080   31.5630 H   0  0  0  0  0  0  0  0  0  0  0  0
  1  5  2  0  0  0  0
  1  2  1  0  0  0  0
  2  3  2  0  0  0  0
  3  7  1  0  0  0  0
  4  3  1  0  0  0  0
  4  8  1  0  0  0  0
  5  4  1  0  0  0  0
  6  2  1  0  0  0  0
  8  9  1  0  0  0  0
  9 10  1  0  0  0  0
  9 11  2  0  0  0  0
 12 11  1  0  0  0  0
 12 13  1  0  0  0  0
 14 12  2  0  0  0  0
 15 14  1  0  0  0  0
 16  8  2  0  0  0  0
 16 14  1  0  0  0  0
 17  1  1  0  0  0  0
 18 17  1  0  0  0  0
 19 17  1  0  0  0  0
 20 17  1  0  0  0  0
 20 22  1  0  0  0  0
 21 20  1  0  0  0  0
 23 28  2  0  0  0  0
 23 24  1  0  0  0  0
 24 25  2  0  0  0  0
 25 26  1  0  0  0  0
 25 31  1  0  0  0  0
 27 20  1  0  0  0  0
 27 26  2  0  0  0  0
 28 27  1  0  0  0  0
 29 23  1  0  0  0  0
 30 24  1  0  0  0  0
M  END
>  <minimizedAffinity>
-4.97829819

$$$$

 OpenBabel03272501593D

 31 33  0  0  0  0  0  0  0  0999 V2000
   38.2110   25.0010   35.9320 C   0  0  0  0  0  0  0  0  0  0  0  0
   37.6710   24.3470   37.0060 C   0  0  0  0  0  0  0  0  0  0  0  0
   38.5520   23.3930   37.4960 C   0  0  0  0  0  0  0  0  0  0  0  0
   39.6270   23.5070   36.6760 N   0  0  0  0  0  0  0  0  0  0  0  0
   39.4340   24.4430   35.7630 N   0  0  0  0  0  0  0  0  0  0  0  0
   36.6930   24.4880   37.4810 H   0  0  0  0  0  0  0  0  0  0  0  0
   38.5430   22.6830   38.2880 H   0  0  0  0  0  0  0  0  0  0  0  0
   40.8780   22.8460   36.6010 C   0  0  0  0  0  0  0  0  0  0  0  0
   41.8920   23.4050   35.8200 C   0  0  0  0  0  0  0  0  0  0  0  0
   41.7040   24.3400   35.2840 H   0  0  0  0  0  0  0  0  0  0  0  0
   43.1130   22.7570   35.7490 C   0  0  0  0  0  3  0  0  0  0  0  0
   43.2660   21.5770   36.4620 C   0  0  0  0  0  0  0  0  0  0  0  0
   44.1930   21.0260   36.4470 H   0  0  0  0  0  0  0  0  0  0  0  0
   42.2380   21.0400   37.2340 C   0  0  0  0  0  0  0  0  0  0  0  0
   42.3530   20.1150   37.7940 H   0  0  0  0  0  0  0  0  0  0  0  0
   41.0130   21.6770   37.3140 C   0  0  0  0  0  3  0  0  0  0  0  0
   37.5470   26.1010   35.1420 C   0  0  0  0  0  0  0  0  0  0  0  0
   36.4820   25.8720   35.0860 H   0  0  0  0  0  0  0  0  0  0  0  0
   37.7850   27.0480   35.6560 H   0  0  0  0  0  0  0  0  0  0  0  0
   38.1680   26.0700   33.7850 C   0  0  0  0  0  0  0  0  0  0  0  0
   39.0700   25.4260   33.7240 H   0  0  0  0  0  0  0  0  0  0  0  0
   38.5100   27.0850   33.4810 H   0  0  0  0  0  0  0  0  0  0  0  0
   35.4840   26.2620   31.2370 C   0  0  0  0  0  0  0  0  0  0  0  0
   35.3010   24.8910   30.9220 C   0  0  0  0  0  0  0  0  0  0  0  0
   36.0950   23.9200   31.5820 C   0  0  0  0  0  0  0  0  0  0  0  0
   36.9970   24.3570   32.4890 N   0  0  0  0  0  0  0  0  0  0  0  0
   37.1410   25.6710   32.7620 C   0  0  0  0  0  0  0  0  0  0  0  0
   36.4090   26.5880   32.1540 N   0  0  0  0  0  0  0  0  0  0  0  0
   34.8520   26.9590   30.7030 H   0  0  0  0  0  0  0  0  0  0  0  0
   34.6070   24.5040   30.2170 H   0  0  0  0  0  0  0  0  0  0  0  0
   35.9670   22.8700   31.3530 H   0  0  0  0  0  0  0  0  0  0  0  0
  1  2  1  0  0  0  0
  2  6  1  0  0  0  0
  2  3  2  0  0  0  0
  3  7  1  0  0  0  0
  4  3  1  0  0  0  0
  5  1  2  0  0  0  0
  5  4  1  0  0  0  0
  8  4  1  0  0  0  0
  8 16  1  0  0  0  0
  9  8  2  0  0  0  0
 10  9  1  0  0  0  0
 11  9  1  0  0  0  0
 11 12  2  0  0  0  0
 12 14  1  0  0  0  0
 13 12  1  0  0  0  0
 14 16  2  0  0  0  0
 14 15  1  0  0  0  0
 17 19  1  0  0  0  0
 17  1  1  0  0  0  0
 18 17  1  0  0  0  0
 20 17  1  0  0  0  0
 21 20  1  0  0  0  0
 22 20  1  0  0  0  0
 23 28  1  0  0  0  0
 24 23  2  0  0  0  0
 24 25  1  0  0  0  0
 25 26  2  0  0  0  0
 26 27  1  0  0  0  0
 27 20  1  0  0  0  0
 28 27  2  0  0  0  0
 29 23  1  0  0  0  0
 30 24  1  0  0  0  0
 31 25  1  0  0  0  0
M  END
>  <minimizedAffinity>
-4.9759016

$$$$

 OpenBabel03272501593D

 31 33  0  0  0  0  0  0  0  0999 V2000
   36.8850   21.8710   32.8750 C   0  0  0  0  0  0  0  0  0  0  0  0
   36.0410   21.0040   33.5150 C   0  0  0  0  0  0  0  0  0  0  0  0
   36.2880   20.9950   34.8800 C   0  0  0  0  0  0  0  0  0  0  0  0
   37.3030   21.8830   35.0230 N   0  0  0  0  0  0  0  0  0  0  0  0
   37.6540   22.3970   33.8580 N   0  0  0  0  0  0  0  0  0  0  0  0
   35.2540   20.3680   33.0940 H   0  0  0  0  0  0  0  0  0  0  0  0
   35.8840   20.4880   35.7240 H   0  0  0  0  0  0  0  0  0  0  0  0
   38.0420   22.3590   36.1340 C   0  0  0  0  0  0  0  0  0  0  0  0
   39.4200   22.1370   36.1760 C   0  0  0  0  0  0  0  0  0  0  0  0
   39.9030   21.6010   35.3530 H   0  0  0  0  0  0  0  0  0  0  0  0
   40.1380   22.6030   37.2630 C   0  0  0  0  0  3  0  0  0  0  0  0
   39.4470   23.2720   38.2620 C   0  0  0  0  0  0  0  0  0  0  0  0
   39.9500   23.6590   39.1340 H   0  0  0  0  0  0  0  0  0  0  0  0
   38.0710   23.4820   38.1970 C   0  0  0  0  0  0  0  0  0  0  0  0
   37.5240   24.0050   38.9770 H   0  0  0  0  0  0  0  0  0  0  0  0
   37.3410   23.0210   37.1170 C   0  0  0  0  0  3  0  0  0  0  0  0
   36.9100   22.1460   31.3920 C   0  0  0  0  0  0  0  0  0  0  0  0
   37.8700   22.6060   31.1570 H   0  0  0  0  0  0  0  0  0  0  0  0
   36.7290   21.1800   30.8880 H   0  0  0  0  0  0  0  0  0  0  0  0
   35.7890   23.0940   31.1260 C   0  0  0  0  0  0  0  0  0  0  0  0
   34.9560   23.0130   31.8560 H   0  0  0  0  0  0  0  0  0  0  0  0
   35.3290   22.8980   30.1320 H   0  0  0  0  0  0  0  0  0  0  0  0
   35.9450   26.7960   31.1730 C   0  0  0  0  0  0  0  0  0  0  0  0
   37.3210   27.0200   30.9110 C   0  0  0  0  0  0  0  0  0  0  0  0
   38.1770   25.9070   30.7220 C   0  0  0  0  0  0  0  0  0  0  0  0
   37.6300   24.6730   30.8030 N   0  0  0  0  0  0  0  0  0  0  0  0
   36.3150   24.5010   31.0540 C   0  0  0  0  0  0  0  0  0  0  0  0
   35.5040   25.5300   31.2330 N   0  0  0  0  0  0  0  0  0  0  0  0
   35.3390   27.6820   31.3090 H   0  0  0  0  0  0  0  0  0  0  0  0
   37.7930   27.9690   30.8400 H   0  0  0  0  0  0  0  0  0  0  0  0
   39.2290   26.0600   30.5210 H   0  0  0  0  0  0  0  0  0  0  0  0
  1  2  1  0  0  0  0
  1  5  2  0  0  0  0
  2  3  2  0  0  0  0
  3  4  1  0  0  0  0
  3  7  1  0  0  0  0
  4  8  1  0  0  0  0
  5  4  1  0  0  0  0
  6  2  1  0  0  0  0
  8  9  2  0  0  0  0
  8 16  1  0  0  0  0
  9 11  1  0  0  0  0
 10  9  1  0  0  0  0
 11 12  2  0  0  0  0
 12 13  1  0  0  0  0
 14 12  1  0  0  0  0
 14 15  1  0  0  0  0
 16 14  2  0  0  0  0
 17  1  1  0  0  0  0
 18 17  1  0  0  0  0
 19 17  1  0  0  0  0
 20 17  1  0  0  0  0
 20 21  1  0  0  0  0
 22 20  1  0  0  0  0
 23 28  1  0  0  0  0
 23 29  1  0  0  0  0
 24 23  2  0  0  0  0
 25 26  2  0  0  0  0
 25 24  1  0  0  0  0
 26 27  1  0  0  0  0
 27 20  1  0  0  0  0
 27 28  2  0  0  0  0
 30 24  1  0  0  0  0
 31 25  1  0  0  0  0
M  END
>  <minimizedAffinity>
-4.88108587

$$$$

 OpenBabel03272501593D

 31 33  0  0  0  0  0  0  0  0999 V2000
   36.6400   24.8820   31.3190 C   0  0  0  0  0  0  0  0  0  0  0  0
   37.7380   24.4810   30.6060 C   0  0  0  0  0  0  0  0  0  0  0  0
   37.8660   23.1000   30.6350 C   0  0  0  0  0  0  0  0  0  0  0  0
   36.8100   22.7010   31.3870 N   0  0  0  0  0  0  0  0  0  0  0  0
   36.0920   23.7350   31.7880 N   0  0  0  0  0  0  0  0  0  0  0  0
   38.4660   25.0900   30.0590 H   0  0  0  0  0  0  0  0  0  0  0  0
   38.5480   22.3900   30.2310 H   0  0  0  0  0  0  0  0  0  0  0  0
   36.3330   21.4380   31.8180 C   0  0  0  0  0  0  0  0  0  0  0  0
   36.2320   20.4000   30.8890 C   0  0  0  0  0  0  0  0  0  0  0  0
   36.5220   20.5790   29.8500 H   0  0  0  0  0  0  0  0  0  0  0  0
   35.7660   19.1690   31.3140 C   0  0  0  0  0  3  0  0  0  0  0  0
   35.4210   19.0280   32.6490 C   0  0  0  0  0  0  0  0  0  0  0  0
   35.0510   18.0940   33.0410 H   0  0  0  0  0  0  0  0  0  0  0  0
   35.5310   20.0790   33.5570 C   0  0  0  0  0  0  0  0  0  0  0  0
   35.2610   19.9750   34.6050 H   0  0  0  0  0  0  0  0  0  0  0  0
   35.9950   21.3160   33.1460 C   0  0  0  0  0  3  0  0  0  0  0  0
   36.1820   26.3060   31.5100 C   0  0  0  0  0  0  0  0  0  0  0  0
   35.5850   26.5820   30.6410 H   0  0  0  0  0  0  0  0  0  0  0  0
   35.6360   26.3370   32.4690 H   0  0  0  0  0  0  0  0  0  0  0  0
   37.4220   27.1340   31.5860 C   0  0  0  0  0  0  0  0  0  0  0  0
   37.3020   28.1530   31.1620 H   0  0  0  0  0  0  0  0  0  0  0  0
   38.2480   26.6680   31.0020 H   0  0  0  0  0  0  0  0  0  0  0  0
   37.5020   27.5440   35.2670 C   0  0  0  0  0  0  0  0  0  0  0  0
   38.8650   27.2690   35.5490 C   0  0  0  0  0  0  0  0  0  0  0  0
   39.7380   26.9480   34.4800 C   0  0  0  0  0  0  0  0  0  0  0  0
   39.2200   26.9190   33.2320 N   0  0  0  0  0  0  0  0  0  0  0  0
   37.9160   27.1870   33.0040 C   0  0  0  0  0  0  0  0  0  0  0  0
   37.0900   27.4880   33.9920 N   0  0  0  0  0  0  0  0  0  0  0  0
   36.8820   27.7830   36.1210 H   0  0  0  0  0  0  0  0  0  0  0  0
   39.3140   27.2790   36.5110 H   0  0  0  0  0  0  0  0  0  0  0  0
   40.7810   26.7360   34.6780 H   0  0  0  0  0  0  0  0  0  0  0  0
  1 17  1  0  0  0  0
  1  5  2  0  0  0  0
  2  3  2  0  0  0  0
  2  1  1  0  0  0  0
  3  4  1  0  0  0  0
  4  5  1  0  0  0  0
  4  8  1  0  0  0  0
  6  2  1  0  0  0  0
  7  3  1  0  0  0  0
  8 16  1  0  0  0  0
  9 11  1  0  0  0  0
  9  8  2  0  0  0  0
 10  9  1  0  0  0  0
 11 12  2  0  0  0  0
 12 13  1  0  0  0  0
 12 14  1  0  0  0  0
 14 15  1  0  0  0  0
 16 14  2  0  0  0  0
 17 20  1  0  0  0  0
 17 19  1  0  0  0  0
 18 17  1  0  0  0  0
 20 27  1  0  0  0  0
 21 20  1  0  0  0  0
 22 20  1  0  0  0  0
 23 24  1  0  0  0  0
 23 29  1  0  0  0  0
 24 30  1  0  0  0  0
 25 31  1  0  0  0  0
 25 24  2  0  0  0  0
 26 25  1  0  0  0  0
 27 26  2  0  0  0  0
 27 28  1  0  0  0  0
 28 23  2  0  0  0  0
M  END
>  <minimizedAffinity>
-4.85360718

$$$$

 OpenBabel03272501593D

 31 33  0  0  0  0  0  0  0  0999 V2000
   37.3690   25.2320   32.9290 C   0  0  0  0  0  0  0  0  0  0  0  0
   37.1120   25.3330   31.5880 C   0  0  0  0  0  0  0  0  0  0  0  0
   36.6240   26.5930   31.2750 C   0  0  0  0  0  0  0  0  0  0  0  0
   36.6020   27.2300   32.4730 N   0  0  0  0  0  0  0  0  0  0  0  0
   37.0360   26.4410   33.4400 N   0  0  0  0  0  0  0  0  0  0  0  0
   37.2420   24.5820   30.8010 H   0  0  0  0  0  0  0  0  0  0  0  0
   36.3050   27.0880   30.3880 H   0  0  0  0  0  0  0  0  0  0  0  0
   36.2210   28.5300   32.8870 C   0  0  0  0  0  0  0  0  0  0  0  0
   36.0920   29.5350   31.9260 C   0  0  0  0  0  0  0  0  0  0  0  0
   36.2860   29.3020   30.8750 H   0  0  0  0  0  0  0  0  0  0  0  0
   35.7190   30.8040   32.3340 C   0  0  0  0  0  3  0  0  0  0  0  0
   35.4910   31.0120   33.6860 C   0  0  0  0  0  0  0  0  0  0  0  0
   35.1980   31.9780   34.0660 H   0  0  0  0  0  0  0  0  0  0  0  0
   35.6260   29.9930   34.6250 C   0  0  0  0  0  0  0  0  0  0  0  0
   35.4490   30.1500   35.6860 H   0  0  0  0  0  0  0  0  0  0  0  0
   35.9980   28.7200   34.2320 C   0  0  0  0  0  3  0  0  0  0  0  0
   37.9080   24.0130   33.6350 C   0  0  0  0  0  0  0  0  0  0  0  0
   37.1380   23.6600   34.3220 H   0  0  0  0  0  0  0  0  0  0  0  0
   38.1870   23.2890   32.8490 H   0  0  0  0  0  0  0  0  0  0  0  0
   39.1170   24.4670   34.3830 C   0  0  0  0  0  0  0  0  0  0  0  0
   39.3100   25.5570   34.2960 H   0  0  0  0  0  0  0  0  0  0  0  0
   40.0350   23.9730   33.9940 H   0  0  0  0  0  0  0  0  0  0  0  0
   39.8440   22.8270   37.6250 C   0  0  0  0  0  0  0  0  0  0  0  0
   38.7840   23.3170   38.4300 C   0  0  0  0  0  0  0  0  0  0  0  0
   37.8350   24.1990   37.8560 C   0  0  0  0  0  0  0  0  0  0  0  0
   37.9930   24.5320   36.5560 N   0  0  0  0  0  0  0  0  0  0  0  0
   39.0170   24.0450   35.8230 C   0  0  0  0  0  0  0  0  0  0  0  0
   39.9100   23.2210   36.3450 N   0  0  0  0  0  0  0  0  0  0  0  0
   40.5390   22.1570   38.1150 H   0  0  0  0  0  0  0  0  0  0  0  0
   38.6220   23.0820   39.4530 H   0  0  0  0  0  0  0  0  0  0  0  0
   37.0190   24.5810   38.4560 H   0  0  0  0  0  0  0  0  0  0  0  0
  1  5  2  0  0  0  0
  1 17  1  0  0  0  0
  2  1  1  0  0  0  0
  3  2  2  0  0  0  0
  3  4  1  0  0  0  0
  4  8  1  0  0  0  0
  4  5  1  0  0  0  0
  6  2  1  0  0  0  0
  7  3  1  0  0  0  0
  8 16  1  0  0  0  0
  9 11  1  0  0  0  0
  9  8  2  0  0  0  0
 10  9  1  0  0  0  0
 11 12  2  0  0  0  0
 12 13  1  0  0  0  0
 12 14  1  0  0  0  0
 14 15  1  0  0  0  0
 16 14  2  0  0  0  0
 17 18  1  0  0  0  0
 17 20  1  0  0  0  0
 19 17  1  0  0  0  0
 20 27  1  0  0  0  0
 21 20  1  0  0  0  0
 22 20  1  0  0  0  0
 23 29  1  0  0  0  0
 23 24  1  0  0  0  0
 24 30  1  0  0  0  0
 25 24  2  0  0  0  0
 25 31  1  0  0  0  0
 26 25  1  0  0  0  0
 27 28  1  0  0  0  0
 27 26  2  0  0  0  0
 28 23  2  0  0  0  0
M  END
>  <minimizedAffinity>
-4.84277582

$$$$

 OpenBabel03272501593D

 31 33  0  0  0  0  0  0  0  0999 V2000
   37.6270   23.5810   32.8590 C   0  0  0  0  0  0  0  0  0  0  0  0
   36.6500   23.2400   31.9630 C   0  0  0  0  0  0  0  0  0  0  0  0
   36.0000   24.3720   31.4910 C   0  0  0  0  0  0  0  0  0  0  0  0
   36.6250   25.3870   32.1370 N   0  0  0  0  0  0  0  0  0  0  0  0
   37.5750   24.9320   32.9350 N   0  0  0  0  0  0  0  0  0  0  0  0
   36.3520   22.2470   31.6080 H   0  0  0  0  0  0  0  0  0  0  0  0
   35.2080   24.5660   30.8070 H   0  0  0  0  0  0  0  0  0  0  0  0
   36.4730   26.7960   32.1310 C   0  0  0  0  0  0  0  0  0  0  0  0
   36.4850   27.4830   33.3470 C   0  0  0  0  0  0  0  0  0  0  0  0
   36.6120   26.9240   34.2790 H   0  0  0  0  0  0  0  0  0  0  0  0
   36.3360   28.8580   33.3370 C   0  0  0  0  0  3  0  0  0  0  0  0
   36.1810   29.4880   32.1110 C   0  0  0  0  0  0  0  0  0  0  0  0
   36.0600   30.5570   32.0370 H   0  0  0  0  0  0  0  0  0  0  0  0
   36.1730   28.7800   30.9110 C   0  0  0  0  0  0  0  0  0  0  0  0
   36.0510   29.2680   29.9480 H   0  0  0  0  0  0  0  0  0  0  0  0
   36.3210   27.4050   30.9060 C   0  0  0  0  0  3  0  0  0  0  0  0
   38.5390   22.6190   33.5780 C   0  0  0  0  0  0  0  0  0  0  0  0
   38.8610   21.8660   32.8580 H   0  0  0  0  0  0  0  0  0  0  0  0
   39.3590   23.2210   34.0080 H   0  0  0  0  0  0  0  0  0  0  0  0
   37.7190   22.0000   34.6610 C   0  0  0  0  0  0  0  0  0  0  0  0
   37.6770   20.8920   34.6080 H   0  0  0  0  0  0  0  0  0  0  0  0
   36.6610   22.3370   34.6010 H   0  0  0  0  0  0  0  0  0  0  0  0
   37.7940   23.4630   38.0640 C   0  0  0  0  0  0  0  0  0  0  0  0
   39.1570   23.2820   38.4150 C   0  0  0  0  0  0  0  0  0  0  0  0
   40.0310   22.6650   37.4870 C   0  0  0  0  0  0  0  0  0  0  0  0
   39.5140   22.2740   36.3010 N   0  0  0  0  0  0  0  0  0  0  0  0
   38.2110   22.4630   36.0040 C   0  0  0  0  0  0  0  0  0  0  0  0
   37.3830   23.0380   36.8600 N   0  0  0  0  0  0  0  0  0  0  0  0
   37.1730   23.9390   38.8110 H   0  0  0  0  0  0  0  0  0  0  0  0
   39.6050   23.5720   39.3340 H   0  0  0  0  0  0  0  0  0  0  0  0
   41.0740   22.5200   37.7390 H   0  0  0  0  0  0  0  0  0  0  0  0
  1  5  2  0  0  0  0
  1 17  1  0  0  0  0
  2  1  1  0  0  0  0
  3  2  2  0  0  0  0
  3  4  1  0  0  0  0
  4  5  1  0  0  0  0
  6  2  1  0  0  0  0
  7  3  1  0  0  0  0
  8  4  1  0  0  0  0
  8  9  1  0  0  0  0
  9 10  1  0  0  0  0
 11  9  2  0  0  0  0
 12 11  1  0  0  0  0
 13 12  1  0  0  0  0
 14 12  2  0  0  0  0
 15 14  1  0  0  0  0
 16 14  1  0  0  0  0
 16  8  2  0  0  0  0
 17 19  1  0  0  0  0
 17 20  1  0  0  0  0
 18 17  1  0  0  0  0
 20 27  1  0  0  0  0
 21 20  1  0  0  0  0
 22 20  1  0  0  0  0
 23 24  1  0  0  0  0
 23 29  1  0  0  0  0
 24 30  1  0  0  0  0
 25 31  1  0  0  0  0
 25 24  2  0  0  0  0
 26 25  1  0  0  0  0
 27 26  2  0  0  0  0
 27 28  1  0  0  0  0
 28 23  2  0  0  0  0
M  END
>  <minimizedAffinity>
-4.81968641

$$$$
