
 OpenBabel03272510043D

 37 39  0  0  0  0  0  0  0  0999 V2000
   38.1060   29.9360   44.0840 C   0  0  0  0  0  0  0  0  0  0  0  0
   37.0270   29.2480   43.6260 C   0  0  0  0  0  0  0  0  0  0  0  0
   37.1730   28.3820   42.5470 C   0  0  0  0  0  0  0  0  0  0  0  0
   38.3770   28.1860   41.9040 C   0  0  0  0  0  0  0  0  0  0  0  0
   39.4870   28.8690   42.3400 C   0  0  0  0  0  0  0  0  0  0  0  0
   39.3110   29.7150   43.4090 C   0  0  0  0  0  0  0  0  0  0  0  0
   36.2800   27.8370   42.2010 H   0  0  0  0  0  0  0  0  0  0  0  0
   38.3790   27.5030   41.0940 H   0  0  0  0  0  0  0  0  0  0  0  0
   40.3870   28.6840   41.8120 H   0  0  0  0  0  0  0  0  0  0  0  0
   40.2630   30.2000   43.6570 H   0  0  0  0  0  0  0  0  0  0  0  0
   33.7130   30.6660   44.3430 C   0  0  0  0  0  0  0  0  0  0  0  0
   34.9700   30.4620   43.7960 C   0  0  0  0  0  0  0  0  0  0  0  0
   35.7360   29.4150   44.2010 C   0  0  0  0  0  0  0  0  0  0  0  0
   35.2100   28.5910   45.1490 N   0  0  0  0  0  0  0  0  0  0  0  0
   33.9960   28.7790   45.6780 C   0  0  0  0  0  0  0  0  0  0  0  0
   33.2570   29.8170   45.2730 N   0  0  0  0  0  0  0  0  0  0  0  0
   32.9910   31.4310   44.1430 H   0  0  0  0  0  0  0  0  0  0  0  0
   35.0690   31.2360   43.0730 H   0  0  0  0  0  0  0  0  0  0  0  0
   33.5210   27.7640   46.6570 C   0  0  0  0  0  0  0  0  0  0  0  0
   32.2570   28.0560   47.1350 F   0  0  0  0  0  0  0  0  0  0  0  0
   33.3080   26.5180   45.9540 F   0  0  0  0  0  0  0  0  0  0  0  0
   34.3410   27.4350   47.6290 F   0  0  0  0  0  0  0  0  0  0  0  0
   38.0670   30.9940   45.4260 S   0  0  0  0  0  0  0  0  0  0  0  0
   37.3760   32.2650   45.1040 O   0  0  0  0  0  0  0  0  0  0  0  0
   39.4760   31.5470   45.3350 O   0  0  0  0  0  0  0  0  0  0  0  0
   38.4190   30.6610   47.0540 C   0  0  0  0  0  0  0  0  0  0  0  0
   38.8810   29.5960   47.0220 H   0  0  0  0  0  0  0  0  0  0  0  0
   39.2950   31.2040   47.4520 H   0  0  0  0  0  0  0  0  0  0  0  0
   37.3070   30.4610   47.9580 C   0  0  0  0  0  0  0  0  0  0  0  0
   37.6400   29.9820   49.1910 C   0  0  0  0  0  0  0  0  0  0  0  0
   38.6700   29.7550   49.5060 H   0  0  0  0  0  0  0  0  0  0  0  0
   36.7300   29.7170   50.2140 C   0  0  0  0  0  3  0  0  0  0  0  0
   35.3880   29.9630   49.9420 C   0  0  0  0  0  0  0  0  0  0  0  0
   34.6690   29.7630   50.7250 H   0  0  0  0  0  0  0  0  0  0  0  0
   35.0420   30.4460   48.6990 C   0  0  0  0  0  0  0  0  0  0  0  0
   33.9920   30.6380   48.4900 H   0  0  0  0  0  0  0  0  0  0  0  0
   35.9780   30.6940   47.7170 C   0  0  0  0  0  3  0  0  0  0  0  0
  1 23  1  0  0  0  0
  2  1  1  0  0  0  0
  2 13  1  0  0  0  0
  3  2  2  0  0  0  0
  4  5  2  0  0  0  0
  4  3  1  0  0  0  0
  5  6  1  0  0  0  0
  6 10  1  0  0  0  0
  6  1  2  0  0  0  0
  7  3  1  0  0  0  0
  8  4  1  0  0  0  0
  9  5  1  0  0  0  0
 11 16  1  0  0  0  0
 12 13  1  0  0  0  0
 12 11  2  0  0  0  0
 13 14  2  0  0  0  0
 14 15  1  0  0  0  0
 15 19  1  0  0  0  0
 16 15  2  0  0  0  0
 17 11  1  0  0  0  0
 18 12  1  0  0  0  0
 19 20  1  0  0  0  0
 19 22  1  0  0  0  0
 21 19  1  0  0  0  0
 23 26  1  0  0  0  0
 24 23  2  0  0  0  0
 25 23  2  0  0  0  0
 26 28  1  0  0  0  0
 26 29  1  0  0  0  0
 27 26  1  0  0  0  0
 29 30  1  0  0  0  0
 30 31  1  0  0  0  0
 30 32  2  0  0  0  0
 33 32  1  0  0  0  0
 33 34  1  0  0  0  0
 35 33  2  0  0  0  0
 36 35  1  0  0  0  0
 37 29  2  0  0  0  0
 37 35  1  0  0  0  0
M  END
>  <minimizedAffinity>
-4.71343803

>  <minimizedRMSD>
5.77900743

$$$$
