REMARK  Name = 
REMARK  4 active torsions:
REMARK  status: ('A' for Active; 'I' for Inactive)
REMARK    1  A    between atoms: C_5  and  O_7
REMARK    2  A    between atoms: O_7  and  C_8
REMARK    3  A    between atoms: C_8  and  C_9
REMARK    4  A    between atoms: C_9  and  C_17
REMARK                            x       y       z     vdW  Elec       q    Type
REMARK                         _______ _______ _______ _____ _____    ______ ____
ROOT
ATOM      1  C   UNL     1      34.205  28.401  48.450  0.00  0.00    +0.000 C 
ATOM      2  H   UNL     1      33.359  29.109  48.429  0.00  0.00    +0.000 HD
ATOM      3  H   UNL     1      34.973  28.802  47.744  0.00  0.00    +0.000 HD
ENDROOT
BRANCH   1   4
ATOM      4  C   UNL     1      33.830  27.041  47.909  0.00  0.00    +0.000 C 
ATOM      5  H   UNL     1      34.688  26.361  47.994  0.00  0.00    +0.000 HD
ATOM      6  H   UNL     1      33.027  26.654  48.598  0.00  0.00    +0.000 HD
BRANCH   4   7
ATOM      7  C   UNL     1      33.266  27.074  46.556  0.00  0.00    +0.000 A 
ATOM      8  C   UNL     1      32.104  27.831  46.462  0.00  0.00    +0.000 A 
ATOM      9  H   UNL     1      31.642  28.354  47.291  0.00  0.00    +0.000 HD
ATOM     10  C   UNL     1      31.414  27.985  45.255  0.00  0.00    +0.000 A 
ATOM     11  C   UNL     1      31.900  27.365  44.113  0.00  0.00    +0.000 A 
ATOM     12  H   UNL     1      31.353  27.499  43.197  0.00  0.00    +0.000 HD
ATOM     13  C   UNL     1      33.051  26.624  44.237  0.00  0.00    +0.000 A 
ATOM     14  H   UNL     1      33.436  26.136  43.343  0.00  0.00    +0.000 HD
ATOM     15  C   UNL     1      33.743  26.461  45.417  0.00  0.00    +0.000 A 
ENDBRANCH   4   7
ENDBRANCH   1   4
BRANCH   1  16
ATOM     16  O   UNL     1      34.740  28.289  49.753  0.00  0.00    +0.000 OA
BRANCH  16  21
ATOM     17  C   UNL     1      37.325  30.220  51.401  0.00  0.00    +0.000 A 
ATOM     18  C   UNL     1      38.053  30.670  50.305  0.00  0.00    +0.000 A 
ATOM     19  C   UNL     1      37.616  30.284  49.045  0.00  0.00    +0.000 A 
ATOM     20  N   UNL     1      36.503  29.492  48.981  0.00  0.00    +0.000 NA
ATOM     21  C   UNL     1      35.824  29.076  50.074  0.00  0.00    +0.000 A 
ATOM     22  N   UNL     1      36.259  29.458  51.285  0.00  0.00    +0.000 NA
ATOM     23  H   UNL     1      37.711  30.551  52.355  0.00  0.00    +0.000 HD
ATOM     24  H   UNL     1      38.935  31.294  50.281  0.00  0.00    +0.000 HD
ATOM     25  H   UNL     1      38.110  30.578  48.109  0.00  0.00    +0.000 HD
ENDBRANCH  16  21
ENDBRANCH   1  16
TORSDOF 4
