
 OpenBabel03272509473D

 25 26  0  0  0  0  0  0  0  0999 V2000
   33.8330   28.6760   49.0910 C   0  0  0  0  0  0  0  0  0  0  0  0
   33.0800   29.2270   49.6800 H   0  0  0  0  0  0  0  0  0  0  0  0
   34.2200   29.3890   48.3230 H   0  0  0  0  0  0  0  0  0  0  0  0
   33.2290   27.5310   48.3120 C   0  0  0  0  0  0  0  0  0  0  0  0
   33.4060   26.5880   48.8460 H   0  0  0  0  0  0  0  0  0  0  0  0
   32.1180   27.7160   48.3190 H   0  0  0  0  0  0  0  0  0  0  0  0
   33.6540   27.4760   46.9100 C   0  0  0  0  0  0  0  0  0  0  0  0
   34.0210   28.7130   46.3960 C   0  0  0  0  0  0  0  0  0  0  0  0
   34.0050   29.6420   46.9560 H   0  0  0  0  0  0  0  0  0  0  0  0
   34.4570   28.8690   45.0770 C   0  0  0  0  0  3  0  0  0  0  0  0
   34.5260   27.7580   44.2490 C   0  0  0  0  0  0  0  0  0  0  0  0
   34.8630   27.9030   43.2390 H   0  0  0  0  0  0  0  0  0  0  0  0
   34.1560   26.5470   44.7860 C   0  0  0  0  0  0  0  0  0  0  0  0
   34.2080   25.6720   44.1390 H   0  0  0  0  0  0  0  0  0  0  0  0
   33.7250   26.3750   46.0820 C   0  0  0  0  0  3  0  0  0  0  0  0
   34.8850   28.2170   49.9160 O   0  0  0  0  0  0  0  0  0  0  0  0
   37.4550   30.3390   51.3380 C   0  0  0  0  0  0  0  0  0  0  0  0
   38.0960   30.7800   50.1850 C   0  0  0  0  0  0  0  0  0  0  0  0
   37.6100   30.3220   48.9680 C   0  0  0  0  0  0  0  0  0  0  0  0
   36.5370   29.4740   48.9980 N   0  0  0  0  0  0  0  0  0  0  0  0
   35.9430   29.0690   50.1440 C   0  0  0  0  0  0  0  0  0  0  0  0
   36.4250   29.5210   51.3120 N   0  0  0  0  0  0  0  0  0  0  0  0
   37.8760   30.7270   52.2550 H   0  0  0  0  0  0  0  0  0  0  0  0
   38.9420   31.4460   50.0870 H   0  0  0  0  0  0  0  0  0  0  0  0
   38.0350   30.6020   47.9950 H   0  0  0  0  0  0  0  0  0  0  0  0
  1  2  1  0  0  0  0
  1 16  1  0  0  0  0
  3  1  1  0  0  0  0
  4  6  1  0  0  0  0
  4  5  1  0  0  0  0
  4  1  1  0  0  0  0
  7  4  1  0  0  0  0
  8  7  1  0  0  0  0
  8  9  1  0  0  0  0
 10  8  2  0  0  0  0
 11 13  2  0  0  0  0
 11 10  1  0  0  0  0
 12 11  1  0  0  0  0
 13 15  1  0  0  0  0
 14 13  1  0  0  0  0
 15  7  2  0  0  0  0
 16 21  1  0  0  0  0
 17 23  1  0  0  0  0
 18 17  2  0  0  0  0
 19 20  2  0  0  0  0
 19 18  1  0  0  0  0
 20 21  1  0  0  0  0
 21 22  2  0  0  0  0
 22 17  1  0  0  0  0
 24 18  1  0  0  0  0
 25 19  1  0  0  0  0
M  END
>  <minimizedAffinity>
-4.04447079

>  <minimizedRMSD>
1.02624869

$$$$
