
 OpenBabel03272509473D

 25 26  0  0  0  0  0  0  0  0999 V2000
   34.2120   28.3930   48.4700 C   0  0  0  0  0  0  0  0  0  0  0  0
   33.3570   29.0890   48.4210 H   0  0  0  0  0  0  0  0  0  0  0  0
   34.9860   28.7890   47.7680 H   0  0  0  0  0  0  0  0  0  0  0  0
   33.8630   27.0170   47.9510 C   0  0  0  0  0  0  0  0  0  0  0  0
   34.7500   26.3720   47.9920 H   0  0  0  0  0  0  0  0  0  0  0  0
   33.1120   26.6020   48.6810 H   0  0  0  0  0  0  0  0  0  0  0  0
   33.2290   27.0240   46.6280 C   0  0  0  0  0  0  0  0  0  0  0  0
   33.8780   26.2140   45.7020 C   0  0  0  0  0  0  0  0  0  0  0  0
   34.7640   25.6270   45.9120 H   0  0  0  0  0  0  0  0  0  0  0  0
   33.4260   26.0860   44.3850 C   0  0  0  0  0  3  0  0  0  0  0  0
   32.2970   26.7850   43.9840 C   0  0  0  0  0  0  0  0  0  0  0  0
   31.9690   26.6700   42.9670 H   0  0  0  0  0  0  0  0  0  0  0  0
   31.6770   27.5770   44.9210 C   0  0  0  0  0  0  0  0  0  0  0  0
   30.7900   28.1280   44.6110 H   0  0  0  0  0  0  0  0  0  0  0  0
   32.1080   27.7150   46.2230 C   0  0  0  0  0  3  0  0  0  0  0  0
   34.7270   28.3140   49.7830 O   0  0  0  0  0  0  0  0  0  0  0  0
   37.3410   30.2270   51.4060 C   0  0  0  0  0  0  0  0  0  0  0  0
   38.0660   30.6660   50.3040 C   0  0  0  0  0  0  0  0  0  0  0  0
   37.6170   30.2790   49.0480 C   0  0  0  0  0  0  0  0  0  0  0  0
   36.4960   29.4970   48.9950 N   0  0  0  0  0  0  0  0  0  0  0  0
   35.8200   29.0920   50.0940 C   0  0  0  0  0  0  0  0  0  0  0  0
   36.2670   29.4750   51.3000 N   0  0  0  0  0  0  0  0  0  0  0  0
   37.7360   30.5580   52.3560 H   0  0  0  0  0  0  0  0  0  0  0  0
   38.9530   31.2810   50.2710 H   0  0  0  0  0  0  0  0  0  0  0  0
   38.1070   30.5640   48.1080 H   0  0  0  0  0  0  0  0  0  0  0  0
  1 16  1  0  0  0  0
  2  1  1  0  0  0  0
  3  1  1  0  0  0  0
  4  5  1  0  0  0  0
  4  1  1  0  0  0  0
  4  6  1  0  0  0  0
  7  4  1  0  0  0  0
  8  9  1  0  0  0  0
  8  7  2  0  0  0  0
 10  8  1  0  0  0  0
 11 10  2  0  0  0  0
 11 13  1  0  0  0  0
 12 11  1  0  0  0  0
 13 15  2  0  0  0  0
 14 13  1  0  0  0  0
 15  7  1  0  0  0  0
 16 21  1  0  0  0  0
 17 23  1  0  0  0  0
 18 17  2  0  0  0  0
 19 18  1  0  0  0  0
 20 19  2  0  0  0  0
 20 21  1  0  0  0  0
 21 22  2  0  0  0  0
 22 17  1  0  0  0  0
 24 18  1  0  0  0  0
 25 19  1  0  0  0  0
M  END
>  <minimizedAffinity>
-3.74507618

>  <minimizedRMSD>
0.125659496

$$$$
