
 OpenBabel03272509483D

 25 26  0  0  0  0  0  0  0  0999 V2000
   35.7750   29.2560   32.9560 C   0  0  0  0  0  0  0  0  0  0  0  0
   35.6940   29.7810   31.9890 H   0  0  0  0  0  0  0  0  0  0  0  0
   36.6000   29.7560   33.5210 H   0  0  0  0  0  0  0  0  0  0  0  0
   36.2100   27.8180   32.7950 C   0  0  0  0  0  0  0  0  0  0  0  0
   35.3820   27.1500   33.0650 H   0  0  0  0  0  0  0  0  0  0  0  0
   36.4020   27.6840   31.6930 H   0  0  0  0  0  0  0  0  0  0  0  0
   37.4550   27.4900   33.4980 C   0  0  0  0  0  0  0  0  0  0  0  0
   37.3370   27.5450   34.8820 C   0  0  0  0  0  0  0  0  0  0  0  0
   36.4260   27.8010   35.4120 H   0  0  0  0  0  0  0  0  0  0  0  0
   38.4130   27.2660   35.7290 C   0  0  0  0  0  3  0  0  0  0  0  0
   39.6390   26.9230   35.1790 C   0  0  0  0  0  0  0  0  0  0  0  0
   40.4510   26.7140   35.8510 H   0  0  0  0  0  0  0  0  0  0  0  0
   39.7260   26.8790   33.8080 C   0  0  0  0  0  0  0  0  0  0  0  0
   40.6860   26.6100   33.3700 H   0  0  0  0  0  0  0  0  0  0  0  0
   38.6760   27.1500   32.9570 C   0  0  0  0  0  3  0  0  0  0  0  0
   34.5630   29.3320   33.6780 O   0  0  0  0  0  0  0  0  0  0  0  0
   33.5710   31.3980   36.4840 C   0  0  0  0  0  0  0  0  0  0  0  0
   34.7780   32.0140   36.7940 C   0  0  0  0  0  0  0  0  0  0  0  0
   35.8810   31.6860   36.0170 C   0  0  0  0  0  0  0  0  0  0  0  0
   35.6930   30.7830   35.0080 N   0  0  0  0  0  0  0  0  0  0  0  0
   34.5000   30.2060   34.7410 C   0  0  0  0  0  0  0  0  0  0  0  0
   33.4430   30.5340   35.5000 N   0  0  0  0  0  0  0  0  0  0  0  0
   32.7480   31.6910   37.1210 H   0  0  0  0  0  0  0  0  0  0  0  0
   34.9980   32.7330   37.5700 H   0  0  0  0  0  0  0  0  0  0  0  0
   36.8840   32.1090   36.1680 H   0  0  0  0  0  0  0  0  0  0  0  0
  1  3  1  0  0  0  0
  1 16  1  0  0  0  0
  2  1  1  0  0  0  0
  4  1  1  0  0  0  0
  4  5  1  0  0  0  0
  4  7  1  0  0  0  0
  6  4  1  0  0  0  0
  7  8  1  0  0  0  0
  8  9  1  0  0  0  0
  8 10  2  0  0  0  0
 11 10  1  0  0  0  0
 11 12  1  0  0  0  0
 13 11  2  0  0  0  0
 14 13  1  0  0  0  0
 15  7  2  0  0  0  0
 15 13  1  0  0  0  0
 16 21  1  0  0  0  0
 17 18  1  0  0  0  0
 17 23  1  0  0  0  0
 18 24  1  0  0  0  0
 19 25  1  0  0  0  0
 19 18  2  0  0  0  0
 20 19  1  0  0  0  0
 21 20  2  0  0  0  0
 21 22  1  0  0  0  0
 22 17  2  0  0  0  0
M  END
>  <minimizedAffinity>
-4.37245274

$$$$

 OpenBabel03272509483D

 25 26  0  0  0  0  0  0  0  0999 V2000
   39.0670   24.1760   33.5880 C   0  0  0  0  0  0  0  0  0  0  0  0
   38.7590   23.1180   33.5270 H   0  0  0  0  0  0  0  0  0  0  0  0
   40.1650   24.1760   33.7970 H   0  0  0  0  0  0  0  0  0  0  0  0
   38.4330   24.8920   34.7580 C   0  0  0  0  0  0  0  0  0  0  0  0
   38.7050   25.9550   34.7310 H   0  0  0  0  0  0  0  0  0  0  0  0
   37.3210   24.8270   34.5840 H   0  0  0  0  0  0  0  0  0  0  0  0
   38.7090   24.2700   36.0570 C   0  0  0  0  0  0  0  0  0  0  0  0
   37.8720   24.7190   37.0720 C   0  0  0  0  0  0  0  0  0  0  0  0
   37.0860   25.4540   36.9410 H   0  0  0  0  0  0  0  0  0  0  0  0
   37.9770   24.2450   38.3830 C   0  0  0  0  0  3  0  0  0  0  0  0
   38.9440   23.2980   38.6880 C   0  0  0  0  0  0  0  0  0  0  0  0
   39.0050   22.9500   39.7020 H   0  0  0  0  0  0  0  0  0  0  0  0
   39.7570   22.8740   37.6630 C   0  0  0  0  0  0  0  0  0  0  0  0
   40.5180   22.1310   37.8970 H   0  0  0  0  0  0  0  0  0  0  0  0
   39.6680   23.3290   36.3660 C   0  0  0  0  0  3  0  0  0  0  0  0
   38.7910   24.8540   32.3800 O   0  0  0  0  0  0  0  0  0  0  0  0
   35.4630   23.9430   31.2750 C   0  0  0  0  0  0  0  0  0  0  0  0
   34.9560   25.1890   30.9220 C   0  0  0  0  0  0  0  0  0  0  0  0
   35.7890   26.2880   31.0820 C   0  0  0  0  0  0  0  0  0  0  0  0
   37.0440   26.0580   31.5750 N   0  0  0  0  0  0  0  0  0  0  0  0
   37.4980   24.8280   31.9070 C   0  0  0  0  0  0  0  0  0  0  0  0
   36.6800   23.7760   31.7460 N   0  0  0  0  0  0  0  0  0  0  0  0
   34.7710   23.1260   31.1300 H   0  0  0  0  0  0  0  0  0  0  0  0
   33.9820   25.4430   30.5290 H   0  0  0  0  0  0  0  0  0  0  0  0
   35.4980   27.3180   30.8370 H   0  0  0  0  0  0  0  0  0  0  0  0
  1  3  1  0  0  0  0
  1  4  1  0  0  0  0
  2  1  1  0  0  0  0
  4  7  1  0  0  0  0
  5  4  1  0  0  0  0
  6  4  1  0  0  0  0
  7 15  2  0  0  0  0
  7  8  1  0  0  0  0
  8 10  2  0  0  0  0
  9  8  1  0  0  0  0
 10 11  1  0  0  0  0
 11 12  1  0  0  0  0
 13 14  1  0  0  0  0
 13 11  2  0  0  0  0
 15 13  1  0  0  0  0
 16  1  1  0  0  0  0
 17 22  1  0  0  0  0
 18 19  1  0  0  0  0
 18 17  2  0  0  0  0
 19 20  2  0  0  0  0
 20 21  1  0  0  0  0
 21 16  1  0  0  0  0
 22 21  2  0  0  0  0
 23 17  1  0  0  0  0
 24 18  1  0  0  0  0
 25 19  1  0  0  0  0
M  END
>  <minimizedAffinity>
-4.33292484

$$$$

 OpenBabel03272509483D

 25 26  0  0  0  0  0  0  0  0999 V2000
   40.1980   25.0510   34.2930 C   0  0  0  0  0  0  0  0  0  0  0  0
   41.1460   24.6610   34.7010 H   0  0  0  0  0  0  0  0  0  0  0  0
   40.3190   25.0840   33.1830 H   0  0  0  0  0  0  0  0  0  0  0  0
   39.9350   26.4780   34.7140 C   0  0  0  0  0  0  0  0  0  0  0  0
   39.8980   26.5390   35.8100 H   0  0  0  0  0  0  0  0  0  0  0  0
   40.8370   27.0620   34.3770 H   0  0  0  0  0  0  0  0  0  0  0  0
   38.7610   27.0800   34.0740 C   0  0  0  0  0  0  0  0  0  0  0  0
   37.8020   27.5160   34.9810 C   0  0  0  0  0  0  0  0  0  0  0  0
   37.8910   27.4320   36.0580 H   0  0  0  0  0  0  0  0  0  0  0  0
   36.6100   28.1180   34.5670 C   0  0  0  0  0  3  0  0  0  0  0  0
   36.3700   28.2880   33.2110 C   0  0  0  0  0  0  0  0  0  0  0  0
   35.4470   28.7520   32.9190 H   0  0  0  0  0  0  0  0  0  0  0  0
   37.3360   27.8460   32.3390 C   0  0  0  0  0  0  0  0  0  0  0  0
   37.1530   27.9770   31.2730 H   0  0  0  0  0  0  0  0  0  0  0  0
   38.5160   27.2510   32.7280 C   0  0  0  0  0  3  0  0  0  0  0  0
   39.1130   24.2180   34.6480 O   0  0  0  0  0  0  0  0  0  0  0  0
   37.8400   24.0350   38.0360 C   0  0  0  0  0  0  0  0  0  0  0  0
   38.8340   23.2790   38.6470 C   0  0  0  0  0  0  0  0  0  0  0  0
   39.9000   22.8670   37.8590 C   0  0  0  0  0  0  0  0  0  0  0  0
   39.8890   23.2380   36.5430 N   0  0  0  0  0  0  0  0  0  0  0  0
   38.9000   23.9740   35.9870 C   0  0  0  0  0  0  0  0  0  0  0  0
   37.8760   24.3650   36.7630 N   0  0  0  0  0  0  0  0  0  0  0  0
   37.0360   24.3260   38.6970 H   0  0  0  0  0  0  0  0  0  0  0  0
   38.9090   22.9520   39.6750 H   0  0  0  0  0  0  0  0  0  0  0  0
   40.7420   22.2680   38.2320 H   0  0  0  0  0  0  0  0  0  0  0  0
  1 16  1  0  0  0  0
  1  2  1  0  0  0  0
  1  4  1  0  0  0  0
  3  1  1  0  0  0  0
  4  5  1  0  0  0  0
  6  4  1  0  0  0  0
  7  4  1  0  0  0  0
  7  8  1  0  0  0  0
  8  9  1  0  0  0  0
 10  8  2  0  0  0  0
 11 10  1  0  0  0  0
 12 11  1  0  0  0  0
 13 15  1  0  0  0  0
 13 11  2  0  0  0  0
 14 13  1  0  0  0  0
 15  7  2  0  0  0  0
 16 21  1  0  0  0  0
 17 18  1  0  0  0  0
 17 23  1  0  0  0  0
 18 24  1  0  0  0  0
 19 25  1  0  0  0  0
 19 18  2  0  0  0  0
 20 19  1  0  0  0  0
 21 20  2  0  0  0  0
 21 22  1  0  0  0  0
 22 17  2  0  0  0  0
M  END
>  <minimizedAffinity>
-4.32769251

$$$$

 OpenBabel03272509483D

 25 26  0  0  0  0  0  0  0  0999 V2000
   39.6370   24.9100   34.0050 C   0  0  0  0  0  0  0  0  0  0  0  0
   40.6040   24.4020   34.1590 H   0  0  0  0  0  0  0  0  0  0  0  0
   39.4550   24.9210   32.9020 H   0  0  0  0  0  0  0  0  0  0  0  0
   39.6770   26.3610   34.4230 C   0  0  0  0  0  0  0  0  0  0  0  0
   39.9590   26.4320   35.4820 H   0  0  0  0  0  0  0  0  0  0  0  0
   40.5100   26.8250   33.8230 H   0  0  0  0  0  0  0  0  0  0  0  0
   38.4500   27.1030   34.1130 C   0  0  0  0  0  0  0  0  0  0  0  0
   38.2670   27.3220   32.7530 C   0  0  0  0  0  0  0  0  0  0  0  0
   38.9490   26.9870   31.9780 H   0  0  0  0  0  0  0  0  0  0  0  0
   37.1570   28.0120   32.2560 C   0  0  0  0  0  3  0  0  0  0  0  0
   36.2060   28.4960   33.1420 C   0  0  0  0  0  0  0  0  0  0  0  0
   35.3630   29.0230   32.7350 H   0  0  0  0  0  0  0  0  0  0  0  0
   36.4150   28.2650   34.4800 C   0  0  0  0  0  0  0  0  0  0  0  0
   35.6710   28.6420   35.1810 H   0  0  0  0  0  0  0  0  0  0  0  0
   37.5010   27.5870   34.9880 C   0  0  0  0  0  3  0  0  0  0  0  0
   38.5940   24.2270   34.6710 O   0  0  0  0  0  0  0  0  0  0  0  0
   39.8110   22.8390   37.7890 C   0  0  0  0  0  0  0  0  0  0  0  0
   38.8740   23.3460   38.6830 C   0  0  0  0  0  0  0  0  0  0  0  0
   37.8640   24.1450   38.1660 C   0  0  0  0  0  0  0  0  0  0  0  0
   37.8690   24.3710   36.8170 N   0  0  0  0  0  0  0  0  0  0  0  0
   38.8010   23.8590   35.9820 C   0  0  0  0  0  0  0  0  0  0  0  0
   39.7710   23.0870   36.4980 N   0  0  0  0  0  0  0  0  0  0  0  0
   40.5730   22.2240   38.2470 H   0  0  0  0  0  0  0  0  0  0  0  0
   38.8080   23.2090   39.7530 H   0  0  0  0  0  0  0  0  0  0  0  0
   37.0700   24.5990   38.7750 H   0  0  0  0  0  0  0  0  0  0  0  0
  1  2  1  0  0  0  0
  1  4  1  0  0  0  0
  1 16  1  0  0  0  0
  3  1  1  0  0  0  0
  4  5  1  0  0  0  0
  6  4  1  0  0  0  0
  7  4  1  0  0  0  0
  7 15  1  0  0  0  0
  8  7  2  0  0  0  0
  9  8  1  0  0  0  0
 10  8  1  0  0  0  0
 10 11  2  0  0  0  0
 11 13  1  0  0  0  0
 12 11  1  0  0  0  0
 13 15  2  0  0  0  0
 13 14  1  0  0  0  0
 16 21  1  0  0  0  0
 17 23  1  0  0  0  0
 17 18  1  0  0  0  0
 18 24  1  0  0  0  0
 19 18  2  0  0  0  0
 19 25  1  0  0  0  0
 20 19  1  0  0  0  0
 21 22  1  0  0  0  0
 21 20  2  0  0  0  0
 22 17  2  0  0  0  0
M  END
>  <minimizedAffinity>
-4.31709528

$$$$

 OpenBabel03272509483D

 25 26  0  0  0  0  0  0  0  0999 V2000
   36.3060   26.9750   31.1100 C   0  0  0  0  0  0  0  0  0  0  0  0
   37.3300   26.6590   30.8470 H   0  0  0  0  0  0  0  0  0  0  0  0
   35.9860   27.7030   30.3240 H   0  0  0  0  0  0  0  0  0  0  0  0
   36.2560   27.7400   32.4120 C   0  0  0  0  0  0  0  0  0  0  0  0
   36.1190   28.8100   32.2070 H   0  0  0  0  0  0  0  0  0  0  0  0
   35.3280   27.3780   32.9380 H   0  0  0  0  0  0  0  0  0  0  0  0
   37.3930   27.4760   33.3000 C   0  0  0  0  0  0  0  0  0  0  0  0
   37.0870   27.6290   34.6470 C   0  0  0  0  0  0  0  0  0  0  0  0
   36.1120   27.9140   35.0280 H   0  0  0  0  0  0  0  0  0  0  0  0
   38.0370   27.4220   35.6520 C   0  0  0  0  0  3  0  0  0  0  0  0
   39.3270   27.0520   35.3000 C   0  0  0  0  0  0  0  0  0  0  0  0
   40.0390   26.9000   36.0900 H   0  0  0  0  0  0  0  0  0  0  0  0
   39.6000   26.9090   33.9610 C   0  0  0  0  0  0  0  0  0  0  0  0
   40.6110   26.6190   33.6790 H   0  0  0  0  0  0  0  0  0  0  0  0
   38.6770   27.1090   32.9580 C   0  0  0  0  0  3  0  0  0  0  0  0
   35.4280   25.8690   31.1480 O   0  0  0  0  0  0  0  0  0  0  0  0
   36.1120   22.3260   31.4710 C   0  0  0  0  0  0  0  0  0  0  0  0
   37.4280   22.2730   31.0270 C   0  0  0  0  0  0  0  0  0  0  0  0
   38.0200   23.4660   30.6360 C   0  0  0  0  0  0  0  0  0  0  0  0
   37.2600   24.6010   30.7180 N   0  0  0  0  0  0  0  0  0  0  0  0
   35.9810   24.6070   31.1560 C   0  0  0  0  0  0  0  0  0  0  0  0
   35.4240   23.4450   31.5310 N   0  0  0  0  0  0  0  0  0  0  0  0
   35.7040   21.3680   31.7620 H   0  0  0  0  0  0  0  0  0  0  0  0
   38.0850   21.4190   30.9370 H   0  0  0  0  0  0  0  0  0  0  0  0
   39.0520   23.5470   30.2690 H   0  0  0  0  0  0  0  0  0  0  0  0
  1 16  1  0  0  0  0
  1  4  1  0  0  0  0
  2  1  1  0  0  0  0
  3  1  1  0  0  0  0
  4  6  1  0  0  0  0
  4  7  1  0  0  0  0
  5  4  1  0  0  0  0
  7  8  1  0  0  0  0
  8  9  1  0  0  0  0
  8 10  2  0  0  0  0
 11 10  1  0  0  0  0
 11 12  1  0  0  0  0
 13 11  2  0  0  0  0
 14 13  1  0  0  0  0
 15  7  2  0  0  0  0
 15 13  1  0  0  0  0
 16 21  1  0  0  0  0
 17 22  1  0  0  0  0
 17 23  1  0  0  0  0
 18 17  2  0  0  0  0
 19 20  2  0  0  0  0
 19 18  1  0  0  0  0
 20 21  1  0  0  0  0
 21 22  2  0  0  0  0
 24 18  1  0  0  0  0
 25 19  1  0  0  0  0
M  END
>  <minimizedAffinity>
-4.30904388

$$$$

 OpenBabel03272509483D

 25 26  0  0  0  0  0  0  0  0999 V2000
   37.9840   24.1280   33.6230 C   0  0  0  0  0  0  0  0  0  0  0  0
   37.7150   24.9790   32.9750 H   0  0  0  0  0  0  0  0  0  0  0  0
   37.1270   23.9790   34.3250 H   0  0  0  0  0  0  0  0  0  0  0  0
   39.1780   24.4270   34.4990 C   0  0  0  0  0  0  0  0  0  0  0  0
   40.0630   23.9120   34.1040 H   0  0  0  0  0  0  0  0  0  0  0  0
   39.3590   25.5330   34.3940 H   0  0  0  0  0  0  0  0  0  0  0  0
   38.9530   24.1550   35.9230 C   0  0  0  0  0  0  0  0  0  0  0  0
   39.8380   23.2220   36.4520 C   0  0  0  0  0  0  0  0  0  0  0  0
   40.6250   22.7320   35.8890 H   0  0  0  0  0  0  0  0  0  0  0  0
   39.7860   22.8290   37.7920 C   0  0  0  0  0  3  0  0  0  0  0  0
   38.8250   23.3820   38.6260 C   0  0  0  0  0  0  0  0  0  0  0  0
   38.8050   23.0630   39.6510 H   0  0  0  0  0  0  0  0  0  0  0  0
   37.9640   24.3000   38.0740 C   0  0  0  0  0  0  0  0  0  0  0  0
   37.2060   24.7370   38.7230 H   0  0  0  0  0  0  0  0  0  0  0  0
   38.0000   24.7000   36.7560 C   0  0  0  0  0  3  0  0  0  0  0  0
   38.2060   22.9600   32.8590 O   0  0  0  0  0  0  0  0  0  0  0  0
   35.4460   21.1920   31.3150 C   0  0  0  0  0  0  0  0  0  0  0  0
   34.9700   20.4570   32.3950 C   0  0  0  0  0  0  0  0  0  0  0  0
   35.6270   20.6070   33.6090 C   0  0  0  0  0  0  0  0  0  0  0  0
   36.6900   21.4660   33.6470 N   0  0  0  0  0  0  0  0  0  0  0  0
   37.1210   22.1620   32.5710 C   0  0  0  0  0  0  0  0  0  0  0  0
   36.4750   22.0070   31.4040 N   0  0  0  0  0  0  0  0  0  0  0  0
   34.8970   21.0360   30.3970 H   0  0  0  0  0  0  0  0  0  0  0  0
   34.1410   19.7650   32.4380 H   0  0  0  0  0  0  0  0  0  0  0  0
   35.3410   20.0790   34.5290 H   0  0  0  0  0  0  0  0  0  0  0  0
  1  3  1  0  0  0  0
  1  4  1  0  0  0  0
  2  1  1  0  0  0  0
  4  7  1  0  0  0  0
  5  4  1  0  0  0  0
  6  4  1  0  0  0  0
  7  8  2  0  0  0  0
  7 15  1  0  0  0  0
  8 10  1  0  0  0  0
  9  8  1  0  0  0  0
 10 11  2  0  0  0  0
 11 12  1  0  0  0  0
 13 11  1  0  0  0  0
 13 14  1  0  0  0  0
 15 13  2  0  0  0  0
 16  1  1  0  0  0  0
 17 22  2  0  0  0  0
 17 18  1  0  0  0  0
 18 24  1  0  0  0  0
 18 19  2  0  0  0  0
 19 20  1  0  0  0  0
 19 25  1  0  0  0  0
 21 16  1  0  0  0  0
 21 20  2  0  0  0  0
 22 21  1  0  0  0  0
 23 17  1  0  0  0  0
M  END
>  <minimizedAffinity>
-4.29353046

$$$$

 OpenBabel03272509483D

 25 26  0  0  0  0  0  0  0  0999 V2000
   35.5040   29.2870   32.8770 C   0  0  0  0  0  0  0  0  0  0  0  0
   36.2900   29.9830   33.2130 H   0  0  0  0  0  0  0  0  0  0  0  0
   35.2290   29.5950   31.8380 H   0  0  0  0  0  0  0  0  0  0  0  0
   34.2350   29.4190   33.6860 C   0  0  0  0  0  0  0  0  0  0  0  0
   33.3960   29.6610   33.0200 H   0  0  0  0  0  0  0  0  0  0  0  0
   34.0400   28.3930   34.1100 H   0  0  0  0  0  0  0  0  0  0  0  0
   34.3450   30.3450   34.8180 C   0  0  0  0  0  0  0  0  0  0  0  0
   35.6090   30.9070   34.9490 C   0  0  0  0  0  0  0  0  0  0  0  0
   36.4460   30.6980   34.2930 H   0  0  0  0  0  0  0  0  0  0  0  0
   35.9140   31.8150   35.9670 C   0  0  0  0  0  3  0  0  0  0  0  0
   34.9300   32.1700   36.8780 C   0  0  0  0  0  0  0  0  0  0  0  0
   35.1900   32.8690   37.6520 H   0  0  0  0  0  0  0  0  0  0  0  0
   33.6900   31.5970   36.7230 C   0  0  0  0  0  0  0  0  0  0  0  0
   32.9140   31.8720   37.4360 H   0  0  0  0  0  0  0  0  0  0  0  0
   33.3710   30.7010   35.7270 C   0  0  0  0  0  3  0  0  0  0  0  0
   35.9680   27.9520   32.8920 O   0  0  0  0  0  0  0  0  0  0  0  0
   38.3420   27.4090   35.5740 C   0  0  0  0  0  0  0  0  0  0  0  0
   39.4580   26.9940   34.8550 C   0  0  0  0  0  0  0  0  0  0  0  0
   39.3370   26.9210   33.4730 C   0  0  0  0  0  0  0  0  0  0  0  0
   38.1300   27.2640   32.9290 N   0  0  0  0  0  0  0  0  0  0  0  0
   37.0690   27.6620   33.6660 C   0  0  0  0  0  0  0  0  0  0  0  0
   37.2020   27.7270   35.0010 N   0  0  0  0  0  0  0  0  0  0  0  0
   38.4940   27.4460   36.6440 H   0  0  0  0  0  0  0  0  0  0  0  0
   40.4360   26.7110   35.2160 H   0  0  0  0  0  0  0  0  0  0  0  0
   40.1490   26.6080   32.8040 H   0  0  0  0  0  0  0  0  0  0  0  0
  1 16  1  0  0  0  0
  1  2  1  0  0  0  0
  1  4  1  0  0  0  0
  3  1  1  0  0  0  0
  4  6  1  0  0  0  0
  4  7  1  0  0  0  0
  5  4  1  0  0  0  0
  7  8  2  0  0  0  0
  7 15  1  0  0  0  0
  8 10  1  0  0  0  0
  9  8  1  0  0  0  0
 10 11  2  0  0  0  0
 11 12  1  0  0  0  0
 13 11  1  0  0  0  0
 13 14  1  0  0  0  0
 15 13  2  0  0  0  0
 16 21  1  0  0  0  0
 17 23  1  0  0  0  0
 18 24  1  0  0  0  0
 18 17  2  0  0  0  0
 19 18  1  0  0  0  0
 20 19  2  0  0  0  0
 20 21  1  0  0  0  0
 21 22  2  0  0  0  0
 22 17  1  0  0  0  0
 25 19  1  0  0  0  0
M  END
>  <minimizedAffinity>
-4.25616026

$$$$

 OpenBabel03272509483D

 25 26  0  0  0  0  0  0  0  0999 V2000
   37.1010   23.7600   32.3040 C   0  0  0  0  0  0  0  0  0  0  0  0
   38.0280   23.6830   31.7120 H   0  0  0  0  0  0  0  0  0  0  0  0
   37.2630   23.1540   33.2290 H   0  0  0  0  0  0  0  0  0  0  0  0
   35.9200   23.1240   31.6080 C   0  0  0  0  0  0  0  0  0  0  0  0
   34.9950   23.6300   31.9150 H   0  0  0  0  0  0  0  0  0  0  0  0
   36.0680   23.3350   30.5110 H   0  0  0  0  0  0  0  0  0  0  0  0
   35.8480   21.6690   31.7670 C   0  0  0  0  0  0  0  0  0  0  0  0
   35.5620   21.2690   33.0670 C   0  0  0  0  0  0  0  0  0  0  0  0
   35.4010   21.9480   33.8980 H   0  0  0  0  0  0  0  0  0  0  0  0
   35.4510   19.9220   33.4210 C   0  0  0  0  0  3  0  0  0  0  0  0
   35.6330   18.9470   32.4510 C   0  0  0  0  0  0  0  0  0  0  0  0
   35.5440   17.9190   32.7480 H   0  0  0  0  0  0  0  0  0  0  0  0
   35.9170   19.3720   31.1750 C   0  0  0  0  0  0  0  0  0  0  0  0
   36.0610   18.6120   30.4090 H   0  0  0  0  0  0  0  0  0  0  0  0
   36.0290   20.6950   30.8070 C   0  0  0  0  0  3  0  0  0  0  0  0
   36.8200   25.1040   32.6350 O   0  0  0  0  0  0  0  0  0  0  0  0
   39.2080   25.9260   35.2340 C   0  0  0  0  0  0  0  0  0  0  0  0
   38.6780   27.1220   35.7060 C   0  0  0  0  0  0  0  0  0  0  0  0
   37.5180   27.5890   35.1030 C   0  0  0  0  0  0  0  0  0  0  0  0
   36.9870   26.8370   34.0920 N   0  0  0  0  0  0  0  0  0  0  0  0
   37.5360   25.6780   33.6630 C   0  0  0  0  0  0  0  0  0  0  0  0
   38.6570   25.2390   34.2560 N   0  0  0  0  0  0  0  0  0  0  0  0
   40.1100   25.6110   35.7400 H   0  0  0  0  0  0  0  0  0  0  0  0
   39.0400   27.7640   36.4960 H   0  0  0  0  0  0  0  0  0  0  0  0
   37.0100   28.5200   35.3920 H   0  0  0  0  0  0  0  0  0  0  0  0
  1 16  1  0  0  0  0
  1  3  1  0  0  0  0
  2  1  1  0  0  0  0
  4  7  1  0  0  0  0
  4  5  1  0  0  0  0
  4  1  1  0  0  0  0
  6  4  1  0  0  0  0
  7  8  1  0  0  0  0
  8 10  2  0  0  0  0
  8  9  1  0  0  0  0
 11 12  1  0  0  0  0
 11 10  1  0  0  0  0
 13 11  2  0  0  0  0
 14 13  1  0  0  0  0
 15 13  1  0  0  0  0
 15  7  2  0  0  0  0
 16 21  1  0  0  0  0
 17 18  1  0  0  0  0
 17 23  1  0  0  0  0
 18 24  1  0  0  0  0
 19 25  1  0  0  0  0
 19 18  2  0  0  0  0
 20 19  1  0  0  0  0
 21 20  2  0  0  0  0
 21 22  1  0  0  0  0
 22 17  2  0  0  0  0
M  END
>  <minimizedAffinity>
-4.24806118

$$$$

 OpenBabel03272509483D

 25 26  0  0  0  0  0  0  0  0999 V2000
   35.7940   28.7040   33.1400 C   0  0  0  0  0  0  0  0  0  0  0  0
   36.1020   27.9670   33.9010 H   0  0  0  0  0  0  0  0  0  0  0  0
   36.5250   29.5480   33.2010 H   0  0  0  0  0  0  0  0  0  0  0  0
   34.4460   29.3160   33.4440 C   0  0  0  0  0  0  0  0  0  0  0  0
   34.0490   29.7990   32.5410 H   0  0  0  0  0  0  0  0  0  0  0  0
   33.7690   28.4480   33.6840 H   0  0  0  0  0  0  0  0  0  0  0  0
   34.4460   30.2060   34.6090 C   0  0  0  0  0  0  0  0  0  0  0  0
   35.7000   30.7270   34.9050 C   0  0  0  0  0  0  0  0  0  0  0  0
   36.6030   30.5120   34.3450 H   0  0  0  0  0  0  0  0  0  0  0  0
   35.9060   31.5970   35.9800 C   0  0  0  0  0  3  0  0  0  0  0  0
   34.8310   31.9550   36.7800 C   0  0  0  0  0  0  0  0  0  0  0  0
   35.0150   32.6240   37.6000 H   0  0  0  0  0  0  0  0  0  0  0  0
   33.6040   31.4230   36.4630 C   0  0  0  0  0  0  0  0  0  0  0  0
   32.7560   31.7000   37.0880 H   0  0  0  0  0  0  0  0  0  0  0  0
   33.3820   30.5650   35.4080 C   0  0  0  0  0  3  0  0  0  0  0  0
   35.8030   28.1330   31.8480 O   0  0  0  0  0  0  0  0  0  0  0  0
   35.3460   24.6230   31.0730 C   0  0  0  0  0  0  0  0  0  0  0  0
   36.3770   24.0560   31.8150 C   0  0  0  0  0  0  0  0  0  0  0  0
   37.1830   24.9150   32.5500 C   0  0  0  0  0  0  0  0  0  0  0  0
   36.9000   26.2520   32.4860 N   0  0  0  0  0  0  0  0  0  0  0  0
   35.8860   26.7620   31.7500 C   0  0  0  0  0  0  0  0  0  0  0  0
   35.1160   25.9180   31.0460 N   0  0  0  0  0  0  0  0  0  0  0  0
   34.7520   23.9080   30.5220 H   0  0  0  0  0  0  0  0  0  0  0  0
   36.6560   23.0170   31.9120 H   0  0  0  0  0  0  0  0  0  0  0  0
   38.0250   24.5820   33.1710 H   0  0  0  0  0  0  0  0  0  0  0  0
  1  3  1  0  0  0  0
  1  4  1  0  0  0  0
  1  2  1  0  0  0  0
  4  6  1  0  0  0  0
  4  7  1  0  0  0  0
  5  4  1  0  0  0  0
  7  8  2  0  0  0  0
  7 15  1  0  0  0  0
  8 10  1  0  0  0  0
  9  8  1  0  0  0  0
 10 11  2  0  0  0  0
 11 12  1  0  0  0  0
 13 11  1  0  0  0  0
 13 14  1  0  0  0  0
 15 13  2  0  0  0  0
 16  1  1  0  0  0  0
 17 18  1  0  0  0  0
 18 24  1  0  0  0  0
 18 19  2  0  0  0  0
 19 25  1  0  0  0  0
 20 19  1  0  0  0  0
 21 16  1  0  0  0  0
 21 20  2  0  0  0  0
 22 17  2  0  0  0  0
 22 21  1  0  0  0  0
 23 17  1  0  0  0  0
M  END
>  <minimizedAffinity>
-4.19144583

$$$$
