
 OpenBabel03272510303D

 28 30  0  0  0  0  0  0  0  0999 V2000
   37.5320   31.4650   49.3640 C   0  0  0  0  0  0  0  0  0  0  0  0
   37.9870   32.7450   49.6810 C   0  0  0  0  0  0  0  0  0  0  0  0
   38.8120   33.3350   48.7550 C   0  0  0  0  0  0  0  0  0  0  0  0
   39.1380   32.6800   47.6130 N   0  0  0  0  0  0  0  0  0  0  0  0
   38.6730   31.4280   47.3380 C   0  0  0  0  0  0  0  0  0  0  0  0
   37.8460   30.7930   48.2310 N   0  0  0  0  0  0  0  0  0  0  0  0
   37.6660   33.1750   50.6140 H   0  0  0  0  0  0  0  0  0  0  0  0
   39.1860   34.3280   48.9670 H   0  0  0  0  0  0  0  0  0  0  0  0
   36.6000   30.7830   50.3330 C   0  0  0  0  0  0  0  0  0  0  0  0
   36.5060   29.3510   50.4590 C   0  0  0  0  0  0  0  0  0  0  0  0
   37.3540   30.0890   51.4790 C   0  0  0  0  0  0  0  0  0  0  0  0
   35.7720   31.4480   50.6650 H   0  0  0  0  0  0  0  0  0  0  0  0
   35.5320   28.9460   50.8550 H   0  0  0  0  0  0  0  0  0  0  0  0
   37.0940   28.6300   49.8560 H   0  0  0  0  0  0  0  0  0  0  0  0
   36.9130   30.2350   52.4850 H   0  0  0  0  0  0  0  0  0  0  0  0
   38.4550   30.0100   51.4190 H   0  0  0  0  0  0  0  0  0  0  0  0
   39.0030   30.7240   46.1050 C   0  0  0  0  0  0  0  0  0  0  0  0
   40.0060   31.0500   45.7570 H   0  0  0  0  0  0  0  0  0  0  0  0
   38.9500   29.6220   46.2230 H   0  0  0  0  0  0  0  0  0  0  0  0
   38.0350   31.1490   45.0550 C   0  0  0  0  0  0  0  0  0  0  0  0
   36.8730   30.4010   44.8500 C   0  0  0  0  0  0  0  0  0  0  0  0
   36.7480   29.5260   45.4950 H   0  0  0  0  0  0  0  0  0  0  0  0
   35.8880   30.6630   43.9270 C   0  0  0  0  0  3  0  0  0  0  0  0
   36.0800   31.7890   43.1200 C   0  0  0  0  0  0  0  0  0  0  0  0
   35.3110   31.9980   42.3950 H   0  0  0  0  0  0  0  0  0  0  0  0
   37.2270   32.5460   43.3060 C   0  0  0  0  0  0  0  0  0  0  0  0
   37.3620   33.4260   42.6660 H   0  0  0  0  0  0  0  0  0  0  0  0
   38.1930   32.2660   44.2320 C   0  0  0  0  0  3  0  0  0  0  0  0
  1  2  1  0  0  0  0
  1  9  1  0  0  0  0
  2  7  1  0  0  0  0
  3  8  1  0  0  0  0
  3  2  2  0  0  0  0
  4  3  1  0  0  0  0
  5  4  2  0  0  0  0
  5  6  1  0  0  0  0
  6  1  2  0  0  0  0
  9 10  1  0  0  0  0
  9 12  1  0  0  0  0
  9 11  1  0  0  0  0
 10 13  1  0  0  0  0
 10 11  1  0  0  0  0
 11 15  1  0  0  0  0
 14 10  1  0  0  0  0
 16 11  1  0  0  0  0
 17 19  1  0  0  0  0
 17  5  1  0  0  0  0
 18 17  1  0  0  0  0
 20 17  1  0  0  0  0
 21 20  1  0  0  0  0
 21 22  1  0  0  0  0
 23 21  2  0  0  0  0
 24 26  2  0  0  0  0
 24 23  1  0  0  0  0
 25 24  1  0  0  0  0
 26 28  1  0  0  0  0
 27 26  1  0  0  0  0
 28 20  2  0  0  0  0
M  END
>  <minimizedAffinity>
-5.22642136

>  <minimizedRMSD>
0.317215294

$$$$
