
 OpenBabel03272510303D

 28 30  0  0  0  0  0  0  0  0999 V2000
   37.3600   31.3870   49.2120 C   0  0  0  0  0  0  0  0  0  0  0  0
   37.6230   32.7050   49.5870 C   0  0  0  0  0  0  0  0  0  0  0  0
   38.5230   33.3840   48.8030 C   0  0  0  0  0  0  0  0  0  0  0  0
   39.0980   32.7740   47.7370 N   0  0  0  0  0  0  0  0  0  0  0  0
   38.8150   31.4830   47.4010 C   0  0  0  0  0  0  0  0  0  0  0  0
   37.9230   30.7600   48.1530 N   0  0  0  0  0  0  0  0  0  0  0  0
   37.1100   33.0930   50.4500 H   0  0  0  0  0  0  0  0  0  0  0  0
   38.7530   34.4090   49.0630 H   0  0  0  0  0  0  0  0  0  0  0  0
   36.3560   30.6060   50.0210 C   0  0  0  0  0  0  0  0  0  0  0  0
   36.2810   29.1680   50.0040 C   0  0  0  0  0  0  0  0  0  0  0  0
   37.0160   29.8140   51.1630 C   0  0  0  0  0  0  0  0  0  0  0  0
   35.4890   31.2270   50.3350 H   0  0  0  0  0  0  0  0  0  0  0  0
   35.2820   28.7150   50.2670 H   0  0  0  0  0  0  0  0  0  0  0  0
   36.9360   28.5140   49.3940 H   0  0  0  0  0  0  0  0  0  0  0  0
   36.4810   29.8590   52.1330 H   0  0  0  0  0  0  0  0  0  0  0  0
   38.1190   29.7540   51.1990 H   0  0  0  0  0  0  0  0  0  0  0  0
   39.4140   30.8250   46.2460 C   0  0  0  0  0  0  0  0  0  0  0  0
   40.5200   30.9020   46.3160 H   0  0  0  0  0  0  0  0  0  0  0  0
   39.0840   29.7710   46.1440 H   0  0  0  0  0  0  0  0  0  0  0  0
   39.0160   31.5810   45.0250 C   0  0  0  0  0  0  0  0  0  0  0  0
   37.6680   31.6420   44.6650 C   0  0  0  0  0  0  0  0  0  0  0  0
   36.9730   31.1150   45.3240 H   0  0  0  0  0  0  0  0  0  0  0  0
   37.1460   32.2960   43.5740 C   0  0  0  0  0  3  0  0  0  0  0  0
   38.0620   32.9600   42.7530 C   0  0  0  0  0  0  0  0  0  0  0  0
   37.6570   33.4730   41.8970 H   0  0  0  0  0  0  0  0  0  0  0  0
   39.4060   32.9130   43.0900 C   0  0  0  0  0  0  0  0  0  0  0  0
   40.1120   33.4380   42.4370 H   0  0  0  0  0  0  0  0  0  0  0  0
   39.9020   32.2560   44.1820 C   0  0  0  0  0  3  0  0  0  0  0  0
  1  2  1  0  0  0  0
  1  9  1  0  0  0  0
  2  7  1  0  0  0  0
  3  8  1  0  0  0  0
  3  2  2  0  0  0  0
  4  3  1  0  0  0  0
  5  4  2  0  0  0  0
  5  6  1  0  0  0  0
  6  1  2  0  0  0  0
  9 12  1  0  0  0  0
  9 11  1  0  0  0  0
 10  9  1  0  0  0  0
 10 13  1  0  0  0  0
 10 11  1  0  0  0  0
 11 16  1  0  0  0  0
 11 15  1  0  0  0  0
 14 10  1  0  0  0  0
 17 18  1  0  0  0  0
 17  5  1  0  0  0  0
 19 17  1  0  0  0  0
 20 17  1  0  0  0  0
 21 20  1  0  0  0  0
 21 22  1  0  0  0  0
 23 21  2  0  0  0  0
 24 26  2  0  0  0  0
 24 23  1  0  0  0  0
 25 24  1  0  0  0  0
 26 28  1  0  0  0  0
 27 26  1  0  0  0  0
 28 20  2  0  0  0  0
M  END
>  <minimizedAffinity>
-5.37023783

>  <minimizedRMSD>
1.03266633

$$$$
