
     RDKit          3D

 30 32  0  0  0  0  0  0  0  0999 V2000
   37.3620   31.3691   49.2048 C   0  0  0  0  0  0  0  0  0  0  0  0
   37.7101   32.6620   49.5969 C   0  0  0  0  0  0  0  0  0  0  0  0
   38.5898   33.3223   48.7747 C   0  0  0  0  0  0  0  0  0  0  0  0
   39.0673   32.7184   47.6581 N   0  0  0  0  0  0  0  0  0  0  0  0
   38.7025   31.4518   47.3075 C   0  0  0  0  0  0  0  0  0  0  0  0
   37.8265   30.7476   48.0956 N   0  0  0  0  0  0  0  0  0  0  0  0
   36.3756   30.6109   50.0573 C   0  0  0  0  0  0  0  0  0  0  0  0
   36.2737   29.1737   50.0518 C   0  0  0  0  0  0  0  0  0  0  0  0
   37.0638   29.8138   51.1783 C   0  0  0  0  0  0  0  0  0  0  0  0
   39.1958   30.8024   46.0991 C   0  0  0  0  0  0  0  0  0  0  0  0
   37.2724   33.0472   50.5022 H   0  0  0  0  0  0  0  0  0  0  0  0
   38.8837   34.3272   49.0467 H   0  0  0  0  0  0  0  0  0  0  0  0
   35.5315   31.2491   50.3986 H   0  0  0  0  0  0  0  0  0  0  0  0
   35.2780   28.7407   50.3549 H   0  0  0  0  0  0  0  0  0  0  0  0
   36.8935   28.5049   49.4221 H   0  0  0  0  0  0  0  0  0  0  0  0
   36.5670   29.8738   52.1667 H   0  0  0  0  0  0  0  0  0  0  0  0
   38.1662   29.7338   51.1734 H   0  0  0  0  0  0  0  0  0  0  0  0
   40.1720   31.2499   45.8167 H   0  0  0  0  0  0  0  0  0  0  0  0
   39.2698   29.7006   46.2142 H   0  0  0  0  0  0  0  0  0  0  0  0
   38.2530   31.1141   44.9883 C   0  0  0  0  0  0  0  0  0  0  0  0
   37.6013   30.0697   44.3290 C   0  0  0  0  0  0  0  0  0  0  0  0
   37.8331   29.0611   44.6826 H   0  0  0  0  0  0  0  0  0  0  0  0
   36.7074   30.1943   43.2907 C   0  0  0  0  0  0  0  0  0  0  0  0
   36.4336   31.4975   42.8636 C   0  0  0  0  0  0  0  0  0  0  0  0
   35.7336   31.5995   42.0501 H   0  0  0  0  0  0  0  0  0  0  0  0
   37.0691   32.5494   43.5036 C   0  0  0  0  0  0  0  0  0  0  0  0
   36.8438   33.5648   43.1570 H   0  0  0  0  0  0  0  0  0  0  0  0
   37.9550   32.4005   44.5349 C   0  0  0  0  0  0  0  0  0  0  0  0
   36.2701   29.2952   42.8655 H   0  0  0  0  0  0  0  0  0  0  0  0
   38.4491   33.2022   45.0338 H   0  0  0  0  0  0  0  0  0  0  0  0
  1  2  2  0
  1  7  1  0
  3  2  1  0
  4  3  2  0
  5  4  1  0
  5  6  2  0
  6  1  1  0
  7  9  1  0
  8  7  1  0
  8  9  1  0
 10  5  1  0
  2 11  1  0
  3 12  1  0
  7 13  1  0
  8 14  1  0
  8 15  1  0
  9 16  1  0
  9 17  1  0
 10 18  1  0
 10 19  1  0
 20 21  2  0
 21 22  1  0
 21 23  1  0
 23 24  2  0
 24 25  1  0
 24 26  1  0
 26 27  1  0
 26 28  2  0
 28 20  1  0
 23 29  1  0
 28 30  1  0
 10 20  1  0
M  ISO  8  11  14  12  14  13  13  14  13  15  13  16  13  17  13  18   8
M  ISO  4  19   8  22  16  25  16  27  16
M  END
>  <DihAtoms>  (1) 
4,9,19,20

>  <DihDeg>  (1) 
89.99901057620791

$$$$
