
 OpenBabel03272501133D

 28 30  0  0  1  0  0  0  0  0999 V2000
   36.8840   31.2980   50.1170 C   0  0  1  0  0  0  0  0  0  0  0  0
   36.6830   29.8690   50.0510 C   0  0  1  0  0  0  0  0  0  0  0  0
   37.5880   30.4040   51.1360 C   0  0  0  0  0  0  0  0  0  0  0  0
   36.1550   32.0100   50.5670 H   0  0  0  0  0  0  0  0  0  0  0  0
   37.2750   29.3250   49.2560 H   0  0  0  0  0  0  0  0  0  0  0  0
   38.6760   30.2770   51.0650 H   0  0  0  0  0  0  0  0  0  0  0  0
   37.1270   30.3870   52.1350 H   0  0  0  0  0  0  0  0  0  0  0  0
   37.8680   31.9940   49.1990 C   0  0  0  0  0  0  0  0  0  0  0  0
   38.3520   33.2270   49.6410 C   0  0  0  0  0  0  0  0  0  0  0  0
   39.2420   33.8540   48.7700 C   0  0  0  0  0  0  0  0  0  0  0  0
   39.5830   33.2730   47.5910 N   0  0  0  0  0  0  0  0  0  0  0  0
   39.0850   32.0650   47.1980 C   0  0  0  0  0  0  0  0  0  0  0  0
   38.2110   31.4250   48.0310 N   0  0  0  0  0  0  0  0  0  0  0  0
   38.0290   33.6190   50.5920 H   0  0  0  0  0  0  0  0  0  0  0  0
   39.6440   34.8130   49.0690 H   0  0  0  0  0  0  0  0  0  0  0  0
   39.3610   31.6090   46.2580 H   0  0  0  0  0  0  0  0  0  0  0  0
   35.3180   29.3290   50.3850 C   0  0  0  0  0  0  0  0  0  0  0  0
   34.6830   30.1220   50.8540 H   0  0  0  0  0  0  0  0  0  0  0  0
   35.3620   28.4030   50.9690 H   0  0  0  0  0  0  0  0  0  0  0  0
   34.6380   28.9750   49.0950 C   0  0  0  0  0  0  0  0  0  0  0  0
   34.2620   27.6700   48.8370 C   0  0  0  0  0  0  0  0  0  0  0  0
   34.4590   26.8880   49.5730 H   0  0  0  0  0  0  0  0  0  0  0  0
   33.6300   27.3030   47.6540 C   0  0  0  0  0  0  0  0  0  0  0  0
   33.4030   28.3200   46.7570 C   0  0  0  0  0  0  0  0  0  0  0  0
   32.9190   28.0720   45.8340 H   0  0  0  0  0  0  0  0  0  0  0  0
   33.7680   29.6310   46.9870 C   0  0  0  0  0  0  0  0  0  0  0  0
   33.5770   30.4130   46.2630 H   0  0  0  0  0  0  0  0  0  0  0  0
   34.3880   29.9630   48.1600 C   0  0  0  0  0  0  0  0  0  0  0  0
  1  4  1  1  0  0  0
  1  3  1  0  0  0  0
  2  5  1  6  0  0  0
  2  1  1  0  0  0  0
  2 17  1  0  0  0  0
  2  3  1  0  0  0  0
  3  7  1  0  0  0  0
  6  3  1  0  0  0  0
  8  9  1  0  0  0  0
  8  1  1  0  0  0  0
  9 14  1  0  0  0  0
 10 15  1  0  0  0  0
 10  9  2  0  0  0  0
 11 10  1  0  0  0  0
 12 11  2  0  0  0  0
 12 13  1  0  0  0  0
 13  8  2  0  0  0  0
 16 12  1  0  0  0  0
 17 18  1  0  0  0  0
 17 19  1  0  0  0  0
 20 17  1  0  0  0  0
 21 20  1  0  0  0  0
 21 22  1  0  0  0  0
 23 21  2  0  0  0  0
 24 26  2  0  0  0  0
 24 23  1  0  0  0  0
 25 24  1  0  0  0  0
 26 28  1  0  0  0  0
 27 26  1  0  0  0  0
 28 20  2  0  0  0  0
M  END
>  <minimizedAffinity>
-5.75566101

>  <minimizedRMSD>
2.52744532

$$$$
