
 OpenBabel03272510303D

 28 30  0  0  0  0  0  0  0  0999 V2000
   37.2100   31.3530   49.1710 C   0  0  0  0  0  0  0  0  0  0  0  0
   37.3460   32.6100   49.7620 C   0  0  0  0  0  0  0  0  0  0  0  0
   38.3010   33.4300   49.2140 C   0  0  0  0  0  0  0  0  0  0  0  0
   39.0450   33.0070   48.1620 N   0  0  0  0  0  0  0  0  0  0  0  0
   38.8820   31.7710   47.6100 C   0  0  0  0  0  0  0  0  0  0  0  0
   37.9420   30.9110   48.1210 N   0  0  0  0  0  0  0  0  0  0  0  0
   36.7030   32.8450   50.5930 H   0  0  0  0  0  0  0  0  0  0  0  0
   38.4360   34.4130   49.6470 H   0  0  0  0  0  0  0  0  0  0  0  0
   36.1550   30.4240   49.7150 C   0  0  0  0  0  0  0  0  0  0  0  0
   36.2030   28.9940   49.5440 C   0  0  0  0  0  0  0  0  0  0  0  0
   36.6810   29.5560   50.8700 C   0  0  0  0  0  0  0  0  0  0  0  0
   35.1990   30.9480   49.9330 H   0  0  0  0  0  0  0  0  0  0  0  0
   35.2150   28.4510   49.5860 H   0  0  0  0  0  0  0  0  0  0  0  0
   37.0010   28.4560   48.9960 H   0  0  0  0  0  0  0  0  0  0  0  0
   35.9920   29.4580   51.7330 H   0  0  0  0  0  0  0  0  0  0  0  0
   37.7640   29.5640   51.0900 H   0  0  0  0  0  0  0  0  0  0  0  0
   39.6640   31.3150   46.4670 C   0  0  0  0  0  0  0  0  0  0  0  0
   40.4070   32.0950   46.2000 H   0  0  0  0  0  0  0  0  0  0  0  0
   40.1490   30.3350   46.6540 H   0  0  0  0  0  0  0  0  0  0  0  0
   38.7460   31.1900   45.2990 C   0  0  0  0  0  0  0  0  0  0  0  0
   38.0810   32.3230   44.8270 C   0  0  0  0  0  0  0  0  0  0  0  0
   38.2830   33.2560   45.3600 H   0  0  0  0  0  0  0  0  0  0  0  0
   37.2080   32.3700   43.7640 C   0  0  0  0  0  3  0  0  0  0  0  0
   36.9710   31.1600   43.1050 C   0  0  0  0  0  0  0  0  0  0  0  0
   36.2870   31.1920   42.2720 H   0  0  0  0  0  0  0  0  0  0  0  0
   37.6210   30.0230   43.5570 C   0  0  0  0  0  0  0  0  0  0  0  0
   37.4250   29.0820   43.0290 H   0  0  0  0  0  0  0  0  0  0  0  0
   38.4860   30.0010   44.6160 C   0  0  0  0  0  3  0  0  0  0  0  0
  1  9  1  0  0  0  0
  1  2  1  0  0  0  0
  2  7  1  0  0  0  0
  3  8  1  0  0  0  0
  3  2  2  0  0  0  0
  4  3  1  0  0  0  0
  5  6  1  0  0  0  0
  5  4  2  0  0  0  0
  6  1  2  0  0  0  0
  9 12  1  0  0  0  0
  9 11  1  0  0  0  0
 10 13  1  0  0  0  0
 10  9  1  0  0  0  0
 10 11  1  0  0  0  0
 11 16  1  0  0  0  0
 11 15  1  0  0  0  0
 14 10  1  0  0  0  0
 17 19  1  0  0  0  0
 17  5  1  0  0  0  0
 18 17  1  0  0  0  0
 20 17  1  0  0  0  0
 21 20  1  0  0  0  0
 21 22  1  0  0  0  0
 23 21  2  0  0  0  0
 24 26  2  0  0  0  0
 24 23  1  0  0  0  0
 25 24  1  0  0  0  0
 26 28  1  0  0  0  0
 27 26  1  0  0  0  0
 28 20  2  0  0  0  0
M  END
>  <minimizedAffinity>
-5.30465269

>  <minimizedRMSD>
0.626681924

$$$$
