
 OpenBabel03272510253D

 32 35  0  0  0  0  0  0  0  0999 V2000
   38.1950   24.6800   33.7220 C   0  0  0  0  0  0  0  0  0  0  0  0
   38.4070   25.0220   35.0620 C   0  0  0  0  0  0  0  0  0  0  0  0
   37.9270   26.2160   35.5500 C   0  0  0  0  0  0  0  0  0  0  0  0
   37.2390   27.0500   34.6800 C   0  0  0  0  0  0  0  0  0  0  0  0
   36.6800   28.2650   34.9320 N   0  0  0  0  0  0  0  0  0  0  0  0
   36.1330   28.6790   33.7930 C   0  0  0  0  0  0  0  0  0  0  0  0
   36.3190   27.7750   32.8160 N   0  0  0  0  0  0  0  0  0  0  0  0
   37.0090   26.7500   33.3530 C   0  0  0  0  0  0  0  0  0  0  0  0
   37.5040   25.5300   32.8700 C   0  0  0  0  0  0  0  0  0  0  0  0
   38.5650   23.7460   33.3180 H   0  0  0  0  0  0  0  0  0  0  0  0
   38.0890   26.4890   36.5960 H   0  0  0  0  0  0  0  0  0  0  0  0
   36.6880   28.7720   35.8670 H   0  0  0  0  0  0  0  0  0  0  0  0
   37.3280   25.2890   31.8320 H   0  0  0  0  0  0  0  0  0  0  0  0
   40.8640   22.4830   36.3270 C   0  0  0  0  0  0  0  0  0  0  0  0
   40.2500   23.3590   35.4450 C   0  0  0  0  0  0  0  0  0  0  0  0
   39.1400   24.0750   35.8830 C   0  0  0  0  0  0  0  0  0  0  0  0
   38.7010   23.8820   37.1680 N   0  0  0  0  0  0  0  0  0  0  0  0
   39.3290   23.0120   38.0040 C   0  0  0  0  0  0  0  0  0  0  0  0
   40.3890   22.3310   37.5850 N   0  0  0  0  0  0  0  0  0  0  0  0
   41.7140   21.9690   35.9100 H   0  0  0  0  0  0  0  0  0  0  0  0
   40.5710   23.5240   34.4480 H   0  0  0  0  0  0  0  0  0  0  0  0
   38.9660   22.8760   39.0130 H   0  0  0  0  0  0  0  0  0  0  0  0
   35.4640   29.9070   33.7000 O   0  0  0  0  0  0  0  0  0  0  0  0
   34.9480   30.5670   34.8040 C   0  0  0  0  0  0  0  0  0  0  0  0
   35.6950   31.4690   35.5670 C   0  0  0  0  0  0  0  0  0  0  0  0
   36.7230   31.6690   35.2890 H   0  0  0  0  0  0  0  0  0  0  0  0
   35.1530   32.1110   36.6610 C   0  0  0  0  0  3  0  0  0  0  0  0
   33.8390   31.8180   36.9690 C   0  0  0  0  0  0  0  0  0  0  0  0
   33.3220   32.2660   37.8040 H   0  0  0  0  0  0  0  0  0  0  0  0
   33.0600   30.9250   36.2350 C   0  0  0  0  0  0  0  0  0  0  0  0
   32.0340   30.7150   36.4980 H   0  0  0  0  0  0  0  0  0  0  0  0
   33.6360   30.2940   35.1350 C   0  0  0  0  0  3  0  0  0  0  0  0
  1  2  1  0  0  0  0
  2  3  2  0  0  0  0
  2 16  1  0  0  0  0
  3 11  1  0  0  0  0
  4  5  1  0  0  0  0
  4  3  1  0  0  0  0
  5 12  1  0  0  0  0
  6  5  1  0  0  0  0
  7  8  1  0  0  0  0
  7  6  2  0  0  0  0
  8  4  2  0  0  0  0
  9  8  1  0  0  0  0
  9  1  2  0  0  0  0
 10  1  1  0  0  0  0
 13  9  1  0  0  0  0
 14 19  1  0  0  0  0
 15 16  1  0  0  0  0
 15 14  2  0  0  0  0
 16 17  2  0  0  0  0
 17 18  1  0  0  0  0
 18 22  1  0  0  0  0
 19 18  2  0  0  0  0
 20 14  1  0  0  0  0
 21 15  1  0  0  0  0
 23  6  1  0  0  0  0
 23 24  1  0  0  0  0
 24 32  2  0  0  0  0
 24 25  1  0  0  0  0
 25 27  2  0  0  0  0
 26 25  1  0  0  0  0
 27 28  1  0  0  0  0
 28 29  1  0  0  0  0
 30 31  1  0  0  0  0
 30 28  2  0  0  0  0
 32 30  1  0  0  0  0
M  END
>  <minimizedAffinity>
-5.89344406

$$$$

 OpenBabel03272510253D

 32 35  0  0  0  0  0  0  0  0999 V2000
   35.6540   29.1370   32.8140 C   0  0  0  0  0  0  0  0  0  0  0  0
   35.9070   29.5290   34.1330 C   0  0  0  0  0  0  0  0  0  0  0  0
   36.5700   28.6770   34.9880 C   0  0  0  0  0  0  0  0  0  0  0  0
   36.9690   27.4410   34.5010 C   0  0  0  0  0  0  0  0  0  0  0  0
   37.6300   26.4450   35.1520 N   0  0  0  0  0  0  0  0  0  0  0  0
   37.7910   25.4560   34.2770 C   0  0  0  0  0  0  0  0  0  0  0  0
   37.2570   25.7790   33.0860 N   0  0  0  0  0  0  0  0  0  0  0  0
   36.7390   27.0160   33.2080 C   0  0  0  0  0  0  0  0  0  0  0  0
   36.0630   27.8950   32.3490 C   0  0  0  0  0  0  0  0  0  0  0  0
   35.1340   29.7900   32.1260 H   0  0  0  0  0  0  0  0  0  0  0  0
   36.7710   28.9780   36.0190 H   0  0  0  0  0  0  0  0  0  0  0  0
   37.9500   26.4690   36.1650 H   0  0  0  0  0  0  0  0  0  0  0  0
   35.8790   27.5680   31.3360 H   0  0  0  0  0  0  0  0  0  0  0  0
   34.2990   32.9180   34.2330 C   0  0  0  0  0  0  0  0  0  0  0  0
   34.6780   31.6820   33.7320 C   0  0  0  0  0  0  0  0  0  0  0  0
   35.4450   30.8450   34.5360 C   0  0  0  0  0  0  0  0  0  0  0  0
   35.7910   31.2780   35.7900 N   0  0  0  0  0  0  0  0  0  0  0  0
   35.3990   32.4980   36.2470 C   0  0  0  0  0  0  0  0  0  0  0  0
   34.6680   33.2960   35.4790 N   0  0  0  0  0  0  0  0  0  0  0  0
   33.7090   33.5040   33.5480 H   0  0  0  0  0  0  0  0  0  0  0  0
   34.4230   31.3270   32.7660 H   0  0  0  0  0  0  0  0  0  0  0  0
   35.6830   32.8190   37.2400 H   0  0  0  0  0  0  0  0  0  0  0  0
   38.4420   24.2650   34.6230 O   0  0  0  0  0  0  0  0  0  0  0  0
   38.6430   23.8730   35.9370 C   0  0  0  0  0  0  0  0  0  0  0  0
   37.6750   24.0330   36.9330 C   0  0  0  0  0  0  0  0  0  0  0  0
   36.7230   24.4810   36.6750 H   0  0  0  0  0  0  0  0  0  0  0  0
   37.9050   23.6330   38.2330 C   0  0  0  0  0  3  0  0  0  0  0  0
   39.1350   23.0690   38.5050 C   0  0  0  0  0  0  0  0  0  0  0  0
   39.4140   22.7240   39.4890 H   0  0  0  0  0  0  0  0  0  0  0  0
   40.1270   22.8920   37.5420 C   0  0  0  0  0  0  0  0  0  0  0  0
   41.0810   22.4470   37.7820 H   0  0  0  0  0  0  0  0  0  0  0  0
   39.8650   23.3050   36.2380 C   0  0  0  0  0  3  0  0  0  0  0  0
  1  2  1  0  0  0  0
  2 16  1  0  0  0  0
  2  3  2  0  0  0  0
  3 11  1  0  0  0  0
  4  3  1  0  0  0  0
  4  5  1  0  0  0  0
  5 12  1  0  0  0  0
  6 23  1  0  0  0  0
  6  5  1  0  0  0  0
  7  8  1  0  0  0  0
  7  6  2  0  0  0  0
  8  4  2  0  0  0  0
  9  1  2  0  0  0  0
  9  8  1  0  0  0  0
 10  1  1  0  0  0  0
 13  9  1  0  0  0  0
 14 19  1  0  0  0  0
 15 14  2  0  0  0  0
 15 16  1  0  0  0  0
 16 17  2  0  0  0  0
 17 18  1  0  0  0  0
 18 22  1  0  0  0  0
 19 18  2  0  0  0  0
 20 14  1  0  0  0  0
 21 15  1  0  0  0  0
 23 24  1  0  0  0  0
 24 32  2  0  0  0  0
 24 25  1  0  0  0  0
 25 27  2  0  0  0  0
 26 25  1  0  0  0  0
 27 28  1  0  0  0  0
 28 29  1  0  0  0  0
 30 31  1  0  0  0  0
 30 28  2  0  0  0  0
 32 30  1  0  0  0  0
M  END
>  <minimizedAffinity>
-5.67459631

$$$$

 OpenBabel03272510253D

 32 35  0  0  0  0  0  0  0  0999 V2000
   35.1950   30.3820   32.5440 C   0  0  0  0  0  0  0  0  0  0  0  0
   35.4220   29.8310   33.8090 C   0  0  0  0  0  0  0  0  0  0  0  0
   36.0710   28.6230   33.9260 C   0  0  0  0  0  0  0  0  0  0  0  0
   36.4840   27.9860   32.7650 C   0  0  0  0  0  0  0  0  0  0  0  0
   37.1360   26.7990   32.6330 N   0  0  0  0  0  0  0  0  0  0  0  0
   37.3160   26.6030   31.3300 C   0  0  0  0  0  0  0  0  0  0  0  0
   36.8050   27.6220   30.6170 N   0  0  0  0  0  0  0  0  0  0  0  0
   36.2800   28.4950   31.4990 C   0  0  0  0  0  0  0  0  0  0  0  0
   35.6170   29.7270   31.3950 C   0  0  0  0  0  0  0  0  0  0  0  0
   34.6860   31.3310   32.4290 H   0  0  0  0  0  0  0  0  0  0  0  0
   36.2510   28.1870   34.9130 H   0  0  0  0  0  0  0  0  0  0  0  0
   37.4360   26.1620   33.4290 H   0  0  0  0  0  0  0  0  0  0  0  0
   35.4540   30.1310   30.4070 H   0  0  0  0  0  0  0  0  0  0  0  0
   35.1660   32.1140   36.7770 C   0  0  0  0  0  0  0  0  0  0  0  0
   35.7380   31.4530   35.7010 C   0  0  0  0  0  0  0  0  0  0  0  0
   34.9470   30.5830   34.9570 C   0  0  0  0  0  0  0  0  0  0  0  0
   33.6350   30.4180   35.3200 N   0  0  0  0  0  0  0  0  0  0  0  0
   33.1090   31.0840   36.3830 C   0  0  0  0  0  0  0  0  0  0  0  0
   33.8660   31.9140   37.0920 N   0  0  0  0  0  0  0  0  0  0  0  0
   35.8460   32.7660   37.2990 H   0  0  0  0  0  0  0  0  0  0  0  0
   36.7490   31.5650   35.4020 H   0  0  0  0  0  0  0  0  0  0  0  0
   32.0720   30.9390   36.6520 H   0  0  0  0  0  0  0  0  0  0  0  0
   37.9650   25.4620   30.8390 O   0  0  0  0  0  0  0  0  0  0  0  0
   37.4250   24.1900   30.9400 C   0  0  0  0  0  0  0  0  0  0  0  0
   36.0850   23.9580   31.2630 C   0  0  0  0  0  0  0  0  0  0  0  0
   35.4320   24.8030   31.4430 H   0  0  0  0  0  0  0  0  0  0  0  0
   35.5770   22.6790   31.3560 C   0  0  0  0  0  3  0  0  0  0  0  0
   36.4530   21.6390   31.1170 C   0  0  0  0  0  0  0  0  0  0  0  0
   36.1560   20.6020   31.1640 H   0  0  0  0  0  0  0  0  0  0  0  0
   37.7960   21.8270   30.7920 C   0  0  0  0  0  0  0  0  0  0  0  0
   38.4600   20.9960   30.6090 H   0  0  0  0  0  0  0  0  0  0  0  0
   38.2790   23.1310   30.7050 C   0  0  0  0  0  3  0  0  0  0  0  0
  1  2  1  0  0  0  0
  2  3  2  0  0  0  0
  2 16  1  0  0  0  0
  3 11  1  0  0  0  0
  4  3  1  0  0  0  0
  5  4  1  0  0  0  0
  5 12  1  0  0  0  0
  6  5  1  0  0  0  0
  7  6  2  0  0  0  0
  7  8  1  0  0  0  0
  8  4  2  0  0  0  0
  9  8  1  0  0  0  0
  9  1  2  0  0  0  0
 10  1  1  0  0  0  0
 13  9  1  0  0  0  0
 14 19  1  0  0  0  0
 14 20  1  0  0  0  0
 15 14  2  0  0  0  0
 16 17  2  0  0  0  0
 16 15  1  0  0  0  0
 17 18  1  0  0  0  0
 18 22  1  0  0  0  0
 18 19  2  0  0  0  0
 21 15  1  0  0  0  0
 23 24  1  0  0  0  0
 23  6  1  0  0  0  0
 24 25  1  0  0  0  0
 25 27  2  0  0  0  0
 25 26  1  0  0  0  0
 28 29  1  0  0  0  0
 28 27  1  0  0  0  0
 30 28  2  0  0  0  0
 31 30  1  0  0  0  0
 32 30  1  0  0  0  0
 32 24  2  0  0  0  0
M  END
>  <minimizedAffinity>
-5.58010006

$$$$

 OpenBabel03272510253D

 32 35  0  0  0  0  0  0  0  0999 V2000
   38.1660   24.8520   33.7680 C   0  0  0  0  0  0  0  0  0  0  0  0
   38.0540   25.2790   35.0960 C   0  0  0  0  0  0  0  0  0  0  0  0
   37.4110   26.4610   35.3860 C   0  0  0  0  0  0  0  0  0  0  0  0
   36.8880   27.1970   34.3330 C   0  0  0  0  0  0  0  0  0  0  0  0
   36.2180   28.3810   34.3750 N   0  0  0  0  0  0  0  0  0  0  0  0
   35.9150   28.6950   33.1190 C   0  0  0  0  0  0  0  0  0  0  0  0
   36.3650   27.7560   32.2690 N   0  0  0  0  0  0  0  0  0  0  0  0
   36.9760   26.8120   33.0110 C   0  0  0  0  0  0  0  0  0  0  0  0
   37.6340   25.6060   32.7310 C   0  0  0  0  0  0  0  0  0  0  0  0
   38.6680   23.9270   33.5180 H   0  0  0  0  0  0  0  0  0  0  0  0
   37.3210   26.8000   36.4220 H   0  0  0  0  0  0  0  0  0  0  0  0
   35.9890   28.9360   35.2520 H   0  0  0  0  0  0  0  0  0  0  0  0
   37.7070   25.2980   31.6980 H   0  0  0  0  0  0  0  0  0  0  0  0
   38.7610   23.4250   38.2820 C   0  0  0  0  0  0  0  0  0  0  0  0
   38.1070   24.2660   37.3930 C   0  0  0  0  0  0  0  0  0  0  0  0
   38.6390   24.4300   36.1180 C   0  0  0  0  0  0  0  0  0  0  0  0
   39.7880   23.7530   35.7960 N   0  0  0  0  0  0  0  0  0  0  0  0
   40.4010   22.9380   36.6950 C   0  0  0  0  0  0  0  0  0  0  0  0
   39.8910   22.7810   37.9110 N   0  0  0  0  0  0  0  0  0  0  0  0
   38.2850   23.3540   39.2450 H   0  0  0  0  0  0  0  0  0  0  0  0
   37.2190   24.7990   37.6210 H   0  0  0  0  0  0  0  0  0  0  0  0
   41.3050   22.4130   36.4190 H   0  0  0  0  0  0  0  0  0  0  0  0
   35.2160   29.8670   32.7990 O   0  0  0  0  0  0  0  0  0  0  0  0
   35.8350   31.1010   32.6770 C   0  0  0  0  0  0  0  0  0  0  0  0
   36.4850   31.5110   31.5090 C   0  0  0  0  0  0  0  0  0  0  0  0
   36.5090   30.8430   30.6570 H   0  0  0  0  0  0  0  0  0  0  0  0
   37.0920   32.7470   31.4180 C   0  0  0  0  0  3  0  0  0  0  0  0
   37.0300   33.5570   32.5340 C   0  0  0  0  0  0  0  0  0  0  0  0
   37.4730   34.5410   32.5660 H   0  0  0  0  0  0  0  0  0  0  0  0
   36.3930   33.1850   33.7170 C   0  0  0  0  0  0  0  0  0  0  0  0
   36.3590   33.8400   34.5760 H   0  0  0  0  0  0  0  0  0  0  0  0
   35.7880   31.9320   33.7780 C   0  0  0  0  0  3  0  0  0  0  0  0
  1  2  1  0  0  0  0
  2  3  2  0  0  0  0
  2 16  1  0  0  0  0
  3 11  1  0  0  0  0
  4  5  1  0  0  0  0
  4  3  1  0  0  0  0
  5 12  1  0  0  0  0
  6  5  1  0  0  0  0
  7  8  1  0  0  0  0
  7  6  2  0  0  0  0
  8  4  2  0  0  0  0
  9  8  1  0  0  0  0
  9  1  2  0  0  0  0
 10  1  1  0  0  0  0
 13  9  1  0  0  0  0
 14 20  1  0  0  0  0
 15 21  1  0  0  0  0
 15 14  2  0  0  0  0
 16 15  1  0  0  0  0
 17 16  2  0  0  0  0
 17 18  1  0  0  0  0
 18 19  2  0  0  0  0
 19 14  1  0  0  0  0
 22 18  1  0  0  0  0
 23  6  1  0  0  0  0
 24 23  1  0  0  0  0
 24 32  1  0  0  0  0
 25 24  2  0  0  0  0
 26 25  1  0  0  0  0
 27 25  1  0  0  0  0
 27 28  2  0  0  0  0
 28 29  1  0  0  0  0
 28 30  1  0  0  0  0
 30 32  2  0  0  0  0
 30 31  1  0  0  0  0
M  END
>  <minimizedAffinity>
-5.49726391

$$$$

 OpenBabel03272510253D

 32 35  0  0  0  0  0  0  0  0999 V2000
   36.7360   27.8780   33.7050 C   0  0  0  0  0  0  0  0  0  0  0  0
   36.0190   28.2440   32.5610 C   0  0  0  0  0  0  0  0  0  0  0  0
   35.8500   27.3400   31.5370 C   0  0  0  0  0  0  0  0  0  0  0  0
   36.4060   26.0770   31.6810 C   0  0  0  0  0  0  0  0  0  0  0  0
   36.3700   25.0290   30.8130 N   0  0  0  0  0  0  0  0  0  0  0  0
   37.0410   24.0340   31.3860 C   0  0  0  0  0  0  0  0  0  0  0  0
   37.5080   24.4020   32.5920 N   0  0  0  0  0  0  0  0  0  0  0  0
   37.1200   25.6760   32.7920 C   0  0  0  0  0  0  0  0  0  0  0  0
   37.2840   26.6090   33.8270 C   0  0  0  0  0  0  0  0  0  0  0  0
   36.8810   28.5740   34.5210 H   0  0  0  0  0  0  0  0  0  0  0  0
   35.2900   27.6190   30.6410 H   0  0  0  0  0  0  0  0  0  0  0  0
   35.8930   25.0240   29.8630 H   0  0  0  0  0  0  0  0  0  0  0  0
   37.8420   26.3020   34.6990 H   0  0  0  0  0  0  0  0  0  0  0  0
   34.6580   31.6220   33.4680 C   0  0  0  0  0  0  0  0  0  0  0  0
   35.1670   30.3440   33.6440 C   0  0  0  0  0  0  0  0  0  0  0  0
   35.4800   29.5920   32.5170 C   0  0  0  0  0  0  0  0  0  0  0  0
   35.2720   30.1470   31.2800 N   0  0  0  0  0  0  0  0  0  0  0  0
   34.7700   31.4040   31.1480 C   0  0  0  0  0  0  0  0  0  0  0  0
   34.4720   32.1210   32.2250 N   0  0  0  0  0  0  0  0  0  0  0  0
   34.4410   32.1360   34.3900 H   0  0  0  0  0  0  0  0  0  0  0  0
   35.3360   29.8950   34.5890 H   0  0  0  0  0  0  0  0  0  0  0  0
   34.6140   31.8220   30.1630 H   0  0  0  0  0  0  0  0  0  0  0  0
   37.1980   22.7920   30.7560 O   0  0  0  0  0  0  0  0  0  0  0  0
   36.4880   21.6630   31.1340 C   0  0  0  0  0  0  0  0  0  0  0  0
   35.3910   21.7120   31.9990 C   0  0  0  0  0  0  0  0  0  0  0  0
   35.0740   22.6690   32.3940 H   0  0  0  0  0  0  0  0  0  0  0  0
   34.7040   20.5700   32.3560 C   0  0  0  0  0  3  0  0  0  0  0  0
   35.1520   19.3780   31.8220 C   0  0  0  0  0  0  0  0  0  0  0  0
   34.6840   18.4300   32.0390 H   0  0  0  0  0  0  0  0  0  0  0  0
   36.2410   19.2870   30.9570 C   0  0  0  0  0  0  0  0  0  0  0  0
   36.5700   18.3410   30.5530 H   0  0  0  0  0  0  0  0  0  0  0  0
   36.9140   20.4570   30.6140 C   0  0  0  0  0  3  0  0  0  0  0  0
  1  9  1  0  0  0  0
  1 10  1  0  0  0  0
  2  1  2  0  0  0  0
  3  4  2  0  0  0  0
  3  2  1  0  0  0  0
  4  8  1  0  0  0  0
  5  6  1  0  0  0  0
  5  4  1  0  0  0  0
  6  7  2  0  0  0  0
  7  8  1  0  0  0  0
  8  9  2  0  0  0  0
  9 13  1  0  0  0  0
 11  3  1  0  0  0  0
 12  5  1  0  0  0  0
 14 15  1  0  0  0  0
 14 20  1  0  0  0  0
 15 21  1  0  0  0  0
 16  2  1  0  0  0  0
 16 15  2  0  0  0  0
 17 16  1  0  0  0  0
 18 17  2  0  0  0  0
 18 19  1  0  0  0  0
 19 14  2  0  0  0  0
 22 18  1  0  0  0  0
 23 24  1  0  0  0  0
 23  6  1  0  0  0  0
 24 25  1  0  0  0  0
 25 27  2  0  0  0  0
 25 26  1  0  0  0  0
 28 29  1  0  0  0  0
 28 27  1  0  0  0  0
 30 28  2  0  0  0  0
 31 30  1  0  0  0  0
 32 30  1  0  0  0  0
 32 24  2  0  0  0  0
M  END
>  <minimizedAffinity>
-5.4567709

$$$$

 OpenBabel03272510253D

 32 35  0  0  0  0  0  0  0  0999 V2000
   36.8730   26.3710   32.6530 C   0  0  0  0  0  0  0  0  0  0  0  0
   36.8050   27.3530   33.6460 C   0  0  0  0  0  0  0  0  0  0  0  0
   37.3250   27.1040   34.8960 C   0  0  0  0  0  0  0  0  0  0  0  0
   37.9080   25.8670   35.1280 C   0  0  0  0  0  0  0  0  0  0  0  0
   38.4820   25.3990   36.2700 N   0  0  0  0  0  0  0  0  0  0  0  0
   38.9000   24.1630   36.0110 C   0  0  0  0  0  0  0  0  0  0  0  0
   38.6170   23.8180   34.7430 N   0  0  0  0  0  0  0  0  0  0  0  0
   37.9960   24.8710   34.1760 C   0  0  0  0  0  0  0  0  0  0  0  0
   37.4620   25.1400   32.9080 C   0  0  0  0  0  0  0  0  0  0  0  0
   36.4700   26.5450   31.6640 H   0  0  0  0  0  0  0  0  0  0  0  0
   37.2740   27.8680   35.6770 H   0  0  0  0  0  0  0  0  0  0  0  0
   38.5700   25.9320   37.1850 H   0  0  0  0  0  0  0  0  0  0  0  0
   37.5280   24.3650   32.1580 H   0  0  0  0  0  0  0  0  0  0  0  0
   35.0430   30.6650   33.7550 C   0  0  0  0  0  0  0  0  0  0  0  0
   35.6200   29.4920   34.2190 C   0  0  0  0  0  0  0  0  0  0  0  0
   36.1720   28.6110   33.2940 C   0  0  0  0  0  0  0  0  0  0  0  0
   36.1220   28.9420   31.9640 N   0  0  0  0  0  0  0  0  0  0  0  0
   35.5470   30.1020   31.5470 C   0  0  0  0  0  0  0  0  0  0  0  0
   35.0200   30.9420   32.4310 N   0  0  0  0  0  0  0  0  0  0  0  0
   34.6390   31.2890   34.5340 H   0  0  0  0  0  0  0  0  0  0  0  0
   35.6700   29.2160   35.2410 H   0  0  0  0  0  0  0  0  0  0  0  0
   35.5180   30.3430   30.4940 H   0  0  0  0  0  0  0  0  0  0  0  0
   39.5440   23.3840   36.9810 O   0  0  0  0  0  0  0  0  0  0  0  0
   40.8050   22.8400   36.7910 C   0  0  0  0  0  0  0  0  0  0  0  0
   41.8050   23.4830   36.0550 C   0  0  0  0  0  0  0  0  0  0  0  0
   41.5950   24.4480   35.6110 H   0  0  0  0  0  0  0  0  0  0  0  0
   43.0510   22.9150   35.8830 C   0  0  0  0  0  3  0  0  0  0  0  0
   43.2630   21.6840   36.4710 C   0  0  0  0  0  0  0  0  0  0  0  0
   44.2020   21.1560   36.3960 H   0  0  0  0  0  0  0  0  0  0  0  0
   42.2930   21.0110   37.2110 C   0  0  0  0  0  0  0  0  0  0  0  0
   42.4860   20.0480   37.6610 H   0  0  0  0  0  0  0  0  0  0  0  0
   41.0450   21.6090   37.3680 C   0  0  0  0  0  3  0  0  0  0  0  0
  1  9  2  0  0  0  0
  1  2  1  0  0  0  0
  2  3  2  0  0  0  0
  3  4  1  0  0  0  0
  3 11  1  0  0  0  0
  4  5  1  0  0  0  0
  5 12  1  0  0  0  0
  6  5  1  0  0  0  0
  6 23  1  0  0  0  0
  7  6  2  0  0  0  0
  8  7  1  0  0  0  0
  8  4  2  0  0  0  0
  9  8  1  0  0  0  0
 10  1  1  0  0  0  0
 13  9  1  0  0  0  0
 14 15  1  0  0  0  0
 14 20  1  0  0  0  0
 15 21  1  0  0  0  0
 16  2  1  0  0  0  0
 16 15  2  0  0  0  0
 17 16  1  0  0  0  0
 18 17  2  0  0  0  0
 18 19  1  0  0  0  0
 19 14  2  0  0  0  0
 22 18  1  0  0  0  0
 24 23  1  0  0  0  0
 24 32  1  0  0  0  0
 25 24  2  0  0  0  0
 26 25  1  0  0  0  0
 27 25  1  0  0  0  0
 27 28  2  0  0  0  0
 28 30  1  0  0  0  0
 29 28  1  0  0  0  0
 30 32  2  0  0  0  0
 30 31  1  0  0  0  0
M  END
>  <minimizedAffinity>
-5.44173956

$$$$

 OpenBabel03272510253D

 32 35  0  0  0  0  0  0  0  0999 V2000
   37.5850   23.5870   32.7820 C   0  0  0  0  0  0  0  0  0  0  0  0
   36.5180   23.1550   31.9870 C   0  0  0  0  0  0  0  0  0  0  0  0
   35.8680   24.0480   31.1660 C   0  0  0  0  0  0  0  0  0  0  0  0
   36.3020   25.3660   31.1570 C   0  0  0  0  0  0  0  0  0  0  0  0
   35.8200   26.4150   30.4360 N   0  0  0  0  0  0  0  0  0  0  0  0
   36.5550   27.4740   30.7620 C   0  0  0  0  0  0  0  0  0  0  0  0
   37.4930   27.1460   31.6670 N   0  0  0  0  0  0  0  0  0  0  0  0
   37.3500   25.8320   31.9250 C   0  0  0  0  0  0  0  0  0  0  0  0
   38.0020   24.9100   32.7570 C   0  0  0  0  0  0  0  0  0  0  0  0
   38.1090   22.9010   33.4350 H   0  0  0  0  0  0  0  0  0  0  0  0
   35.0330   23.7170   30.5410 H   0  0  0  0  0  0  0  0  0  0  0  0
   35.0110   26.3770   29.7480 H   0  0  0  0  0  0  0  0  0  0  0  0
   38.8230   25.2680   33.3610 H   0  0  0  0  0  0  0  0  0  0  0  0
   35.7290   19.5720   31.2000 C   0  0  0  0  0  0  0  0  0  0  0  0
   36.0990   20.8900   30.9850 C   0  0  0  0  0  0  0  0  0  0  0  0
   36.1470   21.7540   32.0750 C   0  0  0  0  0  0  0  0  0  0  0  0
   35.8260   21.2640   33.3140 N   0  0  0  0  0  0  0  0  0  0  0  0
   35.4670   19.9630   33.4860 C   0  0  0  0  0  0  0  0  0  0  0  0
   35.4220   19.1390   32.4450 N   0  0  0  0  0  0  0  0  0  0  0  0
   35.7160   18.9710   30.3060 H   0  0  0  0  0  0  0  0  0  0  0  0
   36.3510   21.2920   30.0370 H   0  0  0  0  0  0  0  0  0  0  0  0
   35.2180   19.5970   34.4730 H   0  0  0  0  0  0  0  0  0  0  0  0
   36.3240   28.7350   30.1950 O   0  0  0  0  0  0  0  0  0  0  0  0
   36.2810   29.8990   30.9450 C   0  0  0  0  0  0  0  0  0  0  0  0
   35.6160   29.9870   32.1720 C   0  0  0  0  0  0  0  0  0  0  0  0
   35.1100   29.1120   32.5610 H   0  0  0  0  0  0  0  0  0  0  0  0
   35.5910   31.1610   32.8950 C   0  0  0  0  0  3  0  0  0  0  0  0
   36.2520   32.2450   32.3520 C   0  0  0  0  0  0  0  0  0  0  0  0
   36.2920   33.2080   32.8380 H   0  0  0  0  0  0  0  0  0  0  0  0
   36.9260   32.1990   31.1320 C   0  0  0  0  0  0  0  0  0  0  0  0
   37.4360   33.0620   30.7300 H   0  0  0  0  0  0  0  0  0  0  0  0
   36.9340   30.9990   30.4250 C   0  0  0  0  0  3  0  0  0  0  0  0
  1 10  1  0  0  0  0
  2 16  1  0  0  0  0
  2  1  2  0  0  0  0
  3  2  1  0  0  0  0
  4  3  2  0  0  0  0
  4  8  1  0  0  0  0
  5  6  1  0  0  0  0
  5  4  1  0  0  0  0
  6  7  2  0  0  0  0
  7  8  1  0  0  0  0
  8  9  2  0  0  0  0
  9  1  1  0  0  0  0
  9 13  1  0  0  0  0
 11  3  1  0  0  0  0
 12  5  1  0  0  0  0
 14 19  1  0  0  0  0
 15 14  2  0  0  0  0
 15 16  1  0  0  0  0
 16 17  2  0  0  0  0
 17 18  1  0  0  0  0
 18 22  1  0  0  0  0
 19 18  2  0  0  0  0
 20 14  1  0  0  0  0
 21 15  1  0  0  0  0
 23  6  1  0  0  0  0
 23 24  1  0  0  0  0
 24 25  1  0  0  0  0
 25 26  1  0  0  0  0
 25 27  2  0  0  0  0
 28 29  1  0  0  0  0
 28 27  1  0  0  0  0
 30 28  2  0  0  0  0
 31 30  1  0  0  0  0
 32 24  2  0  0  0  0
 32 30  1  0  0  0  0
M  END
>  <minimizedAffinity>
-5.41385508

$$$$

 OpenBabel03272510253D

 32 35  0  0  0  0  0  0  0  0999 V2000
   37.9980   24.5180   33.7000 C   0  0  0  0  0  0  0  0  0  0  0  0
   37.9690   25.1090   34.9670 C   0  0  0  0  0  0  0  0  0  0  0  0
   37.4290   26.3660   35.1260 C   0  0  0  0  0  0  0  0  0  0  0  0
   36.9250   27.0090   34.0050 C   0  0  0  0  0  0  0  0  0  0  0  0
   36.3500   28.2390   33.9180 N   0  0  0  0  0  0  0  0  0  0  0  0
   36.0260   28.4220   32.6410 C   0  0  0  0  0  0  0  0  0  0  0  0
   36.3710   27.3540   31.9020 N   0  0  0  0  0  0  0  0  0  0  0  0
   36.9350   26.4610   32.7390 C   0  0  0  0  0  0  0  0  0  0  0  0
   37.4880   25.1800   32.5920 C   0  0  0  0  0  0  0  0  0  0  0  0
   38.4190   23.5320   33.5520 H   0  0  0  0  0  0  0  0  0  0  0  0
   37.4020   26.8330   36.1140 H   0  0  0  0  0  0  0  0  0  0  0  0
   36.1970   28.9130   34.7260 H   0  0  0  0  0  0  0  0  0  0  0  0
   37.4990   24.7460   31.6030 H   0  0  0  0  0  0  0  0  0  0  0  0
   40.0970   22.8780   37.1060 C   0  0  0  0  0  0  0  0  0  0  0  0
   39.6670   23.5590   35.9770 C   0  0  0  0  0  0  0  0  0  0  0  0
   38.5240   24.3460   36.0700 C   0  0  0  0  0  0  0  0  0  0  0  0
   37.8720   24.4140   37.2750 N   0  0  0  0  0  0  0  0  0  0  0  0
   38.3240   23.7300   38.3610 C   0  0  0  0  0  0  0  0  0  0  0  0
   39.4150   22.9800   38.2700 N   0  0  0  0  0  0  0  0  0  0  0  0
   40.9870   22.2920   36.9480 H   0  0  0  0  0  0  0  0  0  0  0  0
   40.1540   23.5210   35.0360 H   0  0  0  0  0  0  0  0  0  0  0  0
   37.7940   23.7990   39.3000 H   0  0  0  0  0  0  0  0  0  0  0  0
   35.4070   29.5990   32.1990 O   0  0  0  0  0  0  0  0  0  0  0  0
   36.1150   30.6630   31.6620 C   0  0  0  0  0  0  0  0  0  0  0  0
   36.8300   30.5720   30.4640 C   0  0  0  0  0  0  0  0  0  0  0  0
   36.8350   29.6340   29.9240 H   0  0  0  0  0  0  0  0  0  0  0  0
   37.5250   31.6500   29.9560 C   0  0  0  0  0  3  0  0  0  0  0  0
   37.4830   32.8210   30.6860 C   0  0  0  0  0  0  0  0  0  0  0  0
   37.9930   33.7210   30.3750 H   0  0  0  0  0  0  0  0  0  0  0  0
   36.7840   32.9530   31.8840 C   0  0  0  0  0  0  0  0  0  0  0  0
   36.7670   33.8820   32.4350 H   0  0  0  0  0  0  0  0  0  0  0  0
   36.0910   31.8480   32.3710 C   0  0  0  0  0  3  0  0  0  0  0  0
  1  2  1  0  0  0  0
  2  3  2  0  0  0  0
  2 16  1  0  0  0  0
  3 11  1  0  0  0  0
  4  3  1  0  0  0  0
  5  4  1  0  0  0  0
  5 12  1  0  0  0  0
  6  5  1  0  0  0  0
  7  6  2  0  0  0  0
  7  8  1  0  0  0  0
  8  4  2  0  0  0  0
  9  8  1  0  0  0  0
  9  1  2  0  0  0  0
 10  1  1  0  0  0  0
 13  9  1  0  0  0  0
 14 19  1  0  0  0  0
 15 16  1  0  0  0  0
 15 14  2  0  0  0  0
 16 17  2  0  0  0  0
 17 18  1  0  0  0  0
 18 22  1  0  0  0  0
 19 18  2  0  0  0  0
 20 14  1  0  0  0  0
 21 15  1  0  0  0  0
 23  6  1  0  0  0  0
 24 23  1  0  0  0  0
 24 32  1  0  0  0  0
 25 24  2  0  0  0  0
 26 25  1  0  0  0  0
 27 25  1  0  0  0  0
 27 28  2  0  0  0  0
 28 30  1  0  0  0  0
 29 28  1  0  0  0  0
 30 32  2  0  0  0  0
 30 31  1  0  0  0  0
M  END
>  <minimizedAffinity>
-5.40376091

$$$$

 OpenBabel03272510253D

 32 35  0  0  0  0  0  0  0  0999 V2000
   38.1730   24.7220   33.8070 C   0  0  0  0  0  0  0  0  0  0  0  0
   38.1380   25.1630   35.1340 C   0  0  0  0  0  0  0  0  0  0  0  0
   37.5300   26.3590   35.4450 C   0  0  0  0  0  0  0  0  0  0  0  0
   36.9640   27.0940   34.4130 C   0  0  0  0  0  0  0  0  0  0  0  0
   36.3180   28.2890   34.4760 N   0  0  0  0  0  0  0  0  0  0  0  0
   35.9550   28.5960   33.2340 C   0  0  0  0  0  0  0  0  0  0  0  0
   36.3440   27.6410   32.3720 N   0  0  0  0  0  0  0  0  0  0  0  0
   36.9770   26.6940   33.0920 C   0  0  0  0  0  0  0  0  0  0  0  0
   37.6000   25.4740   32.7910 C   0  0  0  0  0  0  0  0  0  0  0  0
   38.6460   23.7860   33.5410 H   0  0  0  0  0  0  0  0  0  0  0  0
   37.5000   26.7090   36.4800 H   0  0  0  0  0  0  0  0  0  0  0  0
   36.1440   28.8560   35.3580 H   0  0  0  0  0  0  0  0  0  0  0  0
   37.6130   25.1550   31.7590 H   0  0  0  0  0  0  0  0  0  0  0  0
   38.9420   23.2760   38.2760 C   0  0  0  0  0  0  0  0  0  0  0  0
   38.2510   24.1120   37.4120 C   0  0  0  0  0  0  0  0  0  0  0  0
   38.7610   24.3150   36.1330 C   0  0  0  0  0  0  0  0  0  0  0  0
   39.9260   23.6800   35.7840 N   0  0  0  0  0  0  0  0  0  0  0  0
   40.5750   22.8670   36.6610 C   0  0  0  0  0  0  0  0  0  0  0  0
   40.0860   22.6740   37.8800 N   0  0  0  0  0  0  0  0  0  0  0  0
   38.4810   23.1740   39.2440 H   0  0  0  0  0  0  0  0  0  0  0  0
   37.3510   24.6140   37.6600 H   0  0  0  0  0  0  0  0  0  0  0  0
   41.4910   22.3760   36.3640 H   0  0  0  0  0  0  0  0  0  0  0  0
   35.2590   29.7760   32.9390 O   0  0  0  0  0  0  0  0  0  0  0  0
   33.9780   30.0280   33.4040 C   0  0  0  0  0  0  0  0  0  0  0  0
   33.7010   30.9890   34.3820 C   0  0  0  0  0  0  0  0  0  0  0  0
   34.5170   31.5670   34.7980 H   0  0  0  0  0  0  0  0  0  0  0  0
   32.4150   31.2170   34.8250 C   0  0  0  0  0  3  0  0  0  0  0  0
   31.4140   30.4520   34.2590 C   0  0  0  0  0  0  0  0  0  0  0  0
   30.3760   30.5520   34.5360 H   0  0  0  0  0  0  0  0  0  0  0  0
   31.6480   29.4840   33.2840 C   0  0  0  0  0  0  0  0  0  0  0  0
   30.8460   28.8990   32.8570 H   0  0  0  0  0  0  0  0  0  0  0  0
   32.9570   29.2770   32.8560 C   0  0  0  0  0  3  0  0  0  0  0  0
  1  2  1  0  0  0  0
  2  3  2  0  0  0  0
  2 16  1  0  0  0  0
  3 11  1  0  0  0  0
  4  5  1  0  0  0  0
  4  3  1  0  0  0  0
  5 12  1  0  0  0  0
  6  5  1  0  0  0  0
  7  8  1  0  0  0  0
  7  6  2  0  0  0  0
  8  4  2  0  0  0  0
  9  8  1  0  0  0  0
  9  1  2  0  0  0  0
 10  1  1  0  0  0  0
 13  9  1  0  0  0  0
 14 20  1  0  0  0  0
 15 21  1  0  0  0  0
 15 14  2  0  0  0  0
 16 15  1  0  0  0  0
 17 16  2  0  0  0  0
 17 18  1  0  0  0  0
 18 19  2  0  0  0  0
 19 14  1  0  0  0  0
 22 18  1  0  0  0  0
 23  6  1  0  0  0  0
 23 24  1  0  0  0  0
 24 25  1  0  0  0  0
 25 26  1  0  0  0  0
 25 27  2  0  0  0  0
 28 29  1  0  0  0  0
 28 27  1  0  0  0  0
 30 28  2  0  0  0  0
 31 30  1  0  0  0  0
 32 30  1  0  0  0  0
 32 24  2  0  0  0  0
M  END
>  <minimizedAffinity>
-5.33227587

$$$$
