
 OpenBabel03272506023D

 46 49  0  0  1  0  0  0  0  0999 V2000
   35.2710   30.0300   49.4220 C   0  0  2  0  0  0  0  0  0  0  0  0
   36.1780   31.1200   49.0700 C   0  0  0  0  0  0  0  0  0  0  0  0
   37.6790   30.7100   49.1920 C   0  0  2  0  0  0  0  0  0  0  0  0
   38.0460   30.2610   50.5120 C   0  0  0  0  0  0  0  0  0  0  0  0
   36.9820   29.3930   51.1860 C   0  0  0  0  0  0  0  0  0  0  0  0
   35.9760   28.9020   50.1890 C   0  0  0  0  0  0  0  0  0  0  0  0
   34.5050   30.3920   50.1700 H   0  0  0  0  0  0  0  0  0  0  0  0
   36.1610   31.6080   48.1180 H   0  0  0  0  0  0  0  0  0  0  0  0
   36.1100   31.9650   49.8340 H   0  0  0  0  0  0  0  0  0  0  0  0
   37.8790   29.9670   48.3990 H   0  0  0  0  0  0  0  0  0  0  0  0
   39.0250   29.7400   50.4690 H   0  0  0  0  0  0  0  0  0  0  0  0
   38.2030   31.1040   51.2110 H   0  0  0  0  0  0  0  0  0  0  0  0
   37.5040   28.5000   51.5700 H   0  0  0  0  0  0  0  0  0  0  0  0
   36.4990   29.8780   52.0370 H   0  0  0  0  0  0  0  0  0  0  0  0
   36.4860   28.2280   49.4650 H   0  0  0  0  0  0  0  0  0  0  0  0
   35.2150   28.3260   50.7280 H   0  0  0  0  0  0  0  0  0  0  0  0
   38.5410   30.9220   46.3760 Cl  0  0  0  0  0  0  0  0  0  0  0  0
   38.8890   32.1620   47.5600 C   0  0  0  0  0  0  0  0  0  0  0  0
   38.3970   31.9730   48.8270 C   0  0  0  0  0  0  0  0  0  0  0  0
   38.6880   33.0110   49.6870 C   0  0  0  0  0  0  0  0  0  0  0  0
   39.4040   34.1330   49.3160 C   0  0  0  0  0  0  0  0  0  0  0  0
   39.8690   34.2460   48.0070 C   0  0  0  0  0  0  0  0  0  0  0  0
   39.6020   33.2300   47.1070 C   0  0  0  0  0  0  0  0  0  0  0  0
   38.3320   32.9460   50.7060 H   0  0  0  0  0  0  0  0  0  0  0  0
   39.5850   34.8980   50.0580 H   0  0  0  0  0  0  0  0  0  0  0  0
   40.4320   35.1200   47.7040 H   0  0  0  0  0  0  0  0  0  0  0  0
   40.0640   33.3330   45.7630 N   0  0  0  0  0  0  0  0  0  0  0  0
   39.7110   32.6600   45.0440 H   0  0  0  0  0  0  0  0  0  0  0  0
   40.7480   34.0800   45.5120 H   0  0  0  0  0  0  0  0  0  0  0  0
   34.5610   29.4010   48.3130 C   0  0  0  0  0  0  0  0  0  0  0  0
   34.1230   30.2870   47.3390 C   0  0  0  0  0  0  0  0  0  0  0  0
   33.4610   29.7830   46.2250 C   0  0  0  0  0  0  0  0  0  0  0  0
   33.2670   28.4100   46.1390 N   0  0  0  0  0  0  0  0  0  0  0  0
   33.7020   27.5720   47.1020 C   0  0  0  0  0  0  0  0  0  0  0  0
   34.3340   28.1090   48.1520 N   0  0  0  0  0  0  0  0  0  0  0  0
   34.1210   31.3500   47.1400 H   0  0  0  0  0  0  0  0  0  0  0  0
   33.0340   30.2370   45.3560 H   0  0  0  0  0  0  0  0  0  0  0  0
   33.4910   26.1310   46.9970 C   0  0  0  0  0  0  0  0  0  0  0  0
   32.4500   25.5620   47.7020 C   0  0  0  0  0  0  0  0  0  0  0  0
   31.7870   26.1150   48.3220 H   0  0  0  0  0  0  0  0  0  0  0  0
   32.2680   24.1940   47.5870 C   0  0  0  0  0  3  0  0  0  0  0  0
   33.1140   23.4450   46.7880 C   0  0  0  0  0  0  0  0  0  0  0  0
   33.0140   22.3640   46.6630 H   0  0  0  0  0  0  0  0  0  0  0  0
   34.1450   24.0710   46.1020 C   0  0  0  0  0  0  0  0  0  0  0  0
   34.8380   23.5200   45.4580 H   0  0  0  0  0  0  0  0  0  0  0  0
   34.3770   25.4470   46.1790 C   0  0  0  0  0  3  0  0  0  0  0  0
  1  7  1  1  0  0  0
  1  6  1  0  0  0  0
  2  3  1  0  0  0  0
  2  1  1  0  0  0  0
  2  9  1  0  0  0  0
  3 10  1  6  0  0  0
  3  4  1  0  0  0  0
  4  5  1  0  0  0  0
  4 12  1  0  0  0  0
  5 13  1  0  0  0  0
  5 14  1  0  0  0  0
  6 16  1  0  0  0  0
  6  5  1  0  0  0  0
  8  2  1  0  0  0  0
 11  4  1  0  0  0  0
 15  6  1  0  0  0  0
 17 18  1  0  0  0  0
 18 19  1  0  0  0  0
 19  3  1  0  0  0  0
 19 20  2  0  0  0  0
 20 24  1  0  0  0  0
 21 20  1  0  0  0  0
 21 25  1  0  0  0  0
 22 21  2  0  0  0  0
 23 18  2  0  0  0  0
 23 22  1  0  0  0  0
 26 22  1  0  0  0  0
 27 23  1  0  0  0  0
 28 27  1  0  0  0  0
 29 27  1  0  0  0  0
 30  1  1  0  0  0  0
 31 30  2  0  0  0  0
 32 31  1  0  0  0  0
 33 32  2  0  0  0  0
 33 34  1  0  0  0  0
 34 35  2  0  0  0  0
 35 30  1  0  0  0  0
 36 31  1  0  0  0  0
 37 32  1  0  0  0  0
 38 34  1  0  0  0  0
 38 39  1  0  0  0  0
 39 40  1  0  0  0  0
 41 39  2  0  0  0  0
 42 41  1  0  0  0  0
 43 42  1  0  0  0  0
 44 46  1  0  0  0  0
 44 42  2  0  0  0  0
 45 44  1  0  0  0  0
 46 38  2  0  0  0  0
M  END
>  <minimizedAffinity>
-7.67939377

>  <minimizedRMSD>
1.51790977

$$$$
