
     RDKit          3D

 48 51  0  0  0  0  0  0  0  0999 V2000
   35.3375   30.3878   49.9721 C   0  0  2  0  0  0  0  0  0  0  0  0
   36.2544   31.3758   49.4106 C   0  0  0  0  0  0  0  0  0  0  0  0
   37.7398   30.9006   49.4510 C   0  0  2  0  0  0  0  0  0  0  0  0
   38.2095   30.5909   50.7779 C   0  0  0  0  0  0  0  0  0  0  0  0
   37.1753   29.8696   51.6451 C   0  0  0  0  0  0  0  0  0  0  0  0
   36.0593   29.3210   50.8083 C   0  0  0  0  0  0  0  0  0  0  0  0
   38.5731   30.6175   46.6323 Cl  0  0  0  0  0  0  0  0  0  0  0  0
   38.9572   32.0320   47.5866 C   0  0  0  0  0  0  0  0  0  0  0  0
   38.4765   32.0685   48.8718 C   0  0  0  0  0  0  0  0  0  0  0  0
   38.7957   33.2323   49.5408 C   0  0  0  0  0  0  0  0  0  0  0  0
   39.5277   34.2610   48.9800 C   0  0  0  0  0  0  0  0  0  0  0  0
   39.9798   34.1418   47.6668 C   0  0  0  0  0  0  0  0  0  0  0  0
   39.6836   32.9939   46.9539 C   0  0  0  0  0  0  0  0  0  0  0  0
   40.1321   32.8601   45.6083 N   0  0  0  0  0  0  0  0  0  0  0  0
   34.4985   29.6720   49.0158 C   0  0  0  0  0  0  0  0  0  0  0  0
   34.5076   30.2075   47.7364 C   0  0  0  0  0  0  0  0  0  0  0  0
   33.7637   29.5804   46.7424 C   0  0  0  0  0  0  0  0  0  0  0  0
   33.0421   28.4425   47.0795 N   0  0  0  0  0  0  0  0  0  0  0  0
   33.0503   27.9439   48.3336 C   0  0  0  0  0  0  0  0  0  0  0  0
   33.7834   28.5859   49.2509 N   0  0  0  0  0  0  0  0  0  0  0  0
   34.6615   30.8775   50.7353 H   0  0  0  0  0  0  0  0  0  0  0  0
   36.1699   31.7476   48.4121 H   0  0  0  0  0  0  0  0  0  0  0  0
   36.2957   32.3084   50.0682 H   0  0  0  0  0  0  0  0  0  0  0  0
   37.8324   30.0590   48.7396 H   0  0  0  0  0  0  0  0  0  0  0  0
   39.1554   30.0146   50.7137 H   0  0  0  0  0  0  0  0  0  0  0  0
   38.4684   31.5006   51.3524 H   0  0  0  0  0  0  0  0  0  0  0  0
   37.6907   29.0007   52.0878 H   0  0  0  0  0  0  0  0  0  0  0  0
   36.7959   30.4784   52.4686 H   0  0  0  0  0  0  0  0  0  0  0  0
   36.4687   28.5389   50.1301 H   0  0  0  0  0  0  0  0  0  0  0  0
   35.3273   28.8559   51.4783 H   0  0  0  0  0  0  0  0  0  0  0  0
   38.4514   33.3475   50.5603 H   0  0  0  0  0  0  0  0  0  0  0  0
   39.7306   35.1362   49.5809 H   0  0  0  0  0  0  0  0  0  0  0  0
   40.5547   34.9407   47.2164 H   0  0  0  0  0  0  0  0  0  0  0  0
   39.7594   32.0820   45.0161 H   0  0  0  0  0  0  0  0  0  0  0  0
   40.8271   33.5400   45.2293 H   0  0  0  0  0  0  0  0  0  0  0  0
   34.9428   31.0388   47.1990 H   0  0  0  0  0  0  0  0  0  0  0  0
   33.6047   29.7817   45.7049 H   0  0  0  0  0  0  0  0  0  0  0  0
   32.2858   26.7472   48.6728 C   0  0  0  0  0  0  0  0  0  0  0  0
   31.1183   26.8902   49.3930 C   0  0  0  0  0  0  0  0  0  0  0  0
   30.7375   27.8270   49.7192 H   0  0  0  0  0  0  0  0  0  0  0  0
   30.4100   25.7397   49.7029 C   0  0  0  0  0  0  0  0  0  0  0  0
   30.8768   24.5044   49.2941 C   0  0  0  0  0  0  0  0  0  0  0  0
   30.3573   23.5677   49.5119 H   0  0  0  0  0  0  0  0  0  0  0  0
   32.0593   24.4208   48.5709 C   0  0  0  0  0  0  0  0  0  0  0  0
   32.4674   23.4654   48.2263 H   0  0  0  0  0  0  0  0  0  0  0  0
   32.8160   25.5454   48.2291 C   0  0  0  0  0  0  0  0  0  0  0  0
   29.4875   25.7101   50.2574 H   0  0  0  0  0  0  0  0  0  0  0  0
   33.7306   25.4933   47.6711 H   0  0  0  0  0  0  0  0  0  0  0  0
  1  6  1  0
  2  3  1  0
  2  1  1  0
  3  4  1  0
  4  5  1  0
  6  5  1  0
  7  8  1  0
  8  9  2  0
  9  3  1  0
  9 10  1  0
 11 10  2  0
 12 11  1  0
 13  8  1  0
 13 12  2  0
 14 13  1  0
 15 20  1  0
 15  1  1  0
 16 15  2  0
 17 18  2  0
 17 16  1  0
 18 19  1  0
 19 20  2  0
  1 21  1  1
  2 22  1  0
  2 23  1  0
  3 24  1  6
  4 25  1  0
  4 26  1  0
  5 27  1  0
  5 28  1  0
  6 29  1  0
  6 30  1  0
 10 31  1  0
 11 32  1  0
 12 33  1  0
 14 34  1  0
 14 35  1  0
 16 36  1  0
 17 37  1  0
 38 39  2  0
 39 40  1  0
 39 41  1  0
 41 42  2  0
 42 43  1  0
 42 44  1  0
 44 45  1  0
 44 46  2  0
 46 38  1  0
 41 47  1  0
 46 48  1  0
 19 38  1  0
M  ISO  8  21  13  22  13  23  13  24  13  25  13  26  13  27  13  28  13
M  ISO  8  29  13  30  13  31  14  32  14  33  14  36  14  37  14  40  16
M  ISO  2  43  16  45  16
M  END
>  <DihAtoms>  (1) 
17,18,37,38

>  <DihDeg>  (1) 
-179.9967539338532

$$$$
