REMARK  Name = 
REMARK  2 active torsions:
REMARK  status: ('A' for Active; 'I' for Inactive)
REMARK    1  A    between atoms: C_2  and  C_8
REMARK    2  A    between atoms: C_3  and  C_15
REMARK                            x       y       z     vdW  Elec       q    Type
REMARK                         _______ _______ _______ _____ _____    ______ ____
ROOT
ATOM      1  C   UNL     1      35.645  28.996  50.175  0.00  0.00    +0.000 A 
ATOM      2  C   UNL     1      36.307  30.139  49.645  0.00  0.00    +0.000 A 
ATOM      3  C   UNL     1      36.051  30.511  48.334  0.00  0.00    +0.000 A 
ATOM      4  N   UNL     1      35.160  29.743  47.620  0.00  0.00    +0.000 NA
ATOM      5  C   UNL     1      34.544  28.668  48.140  0.00  0.00    +0.000 A 
ATOM      6  N   UNL     1      34.780  28.298  49.395  0.00  0.00    +0.000 NA
ATOM      7  N   UNL     1      33.664  28.035  47.238  0.00  0.00    +0.000 N 
ATOM      8  H   UNL     1      35.854  28.714  51.201  0.00  0.00    +0.000 HD
ATOM      9  H   UNL     1      33.790  26.987  47.143  0.00  0.00    +0.000 HD
ATOM     10  H   UNL     1      32.905  28.442  46.648  0.00  0.00    +0.000 HD
ENDROOT
BRANCH   3  11
ATOM     11  C   UNL     1      36.597  31.668  47.659  0.00  0.00    +0.000 A 
ATOM     12  C   UNL     1      36.149  32.630  46.796  0.00  0.00    +0.000 A 
ATOM     13  H   UNL     1      35.099  32.550  46.590  0.00  0.00    +0.000 HD
ATOM     14  C   UNL     1      36.945  33.616  46.271  0.00  0.00    +0.000 A 
ATOM     15  C   UNL     1      38.283  33.711  46.582  0.00  0.00    +0.000 A 
ATOM     16  H   UNL     1      38.764  34.540  46.086  0.00  0.00    +0.000 HD
ATOM     17  C   UNL     1      38.788  32.766  47.448  0.00  0.00    +0.000 A 
ATOM     18  H   UNL     1      39.839  32.885  47.659  0.00  0.00    +0.000 HD
ATOM     19  C   UNL     1      37.966  31.785  47.962  0.00  0.00    +0.000 A 
ENDBRANCH   3  11
BRANCH   2  20
ATOM     20  C   UNL     1      37.228  30.901  50.527  0.00  0.00    +0.000 C 
ATOM     21  F   UNL     1      38.532  30.795  50.126  0.00  0.00    +0.000 F 
ATOM     22  F   UNL     1      36.845  32.227  50.497  0.00  0.00    +0.000 F 
ATOM     23  F   UNL     1      37.158  30.481  51.847  0.00  0.00    +0.000 F 
ENDBRANCH   2  20
TORSDOF 2
