REMARK  Name = 
REMARK  4 active torsions:
REMARK  status: ('A' for Active; 'I' for Inactive)
REMARK    1  A    between atoms: C_1  and  C_15
REMARK    2  A    between atoms: C_3  and  C_9
REMARK    3  A    between atoms: C_13  and  N_14
REMARK    4  A    between atoms: C_19  and  C_38
REMARK                            x       y       z     vdW  Elec       q    Type
REMARK                         _______ _______ _______ _____ _____    ______ ____
ROOT
ATOM      1  C   UNL     1      35.337  30.388  49.972  0.00  0.00    +0.000 C 
ATOM      2  C   UNL     1      36.254  31.376  49.411  0.00  0.00    +0.000 C 
ATOM      3  C   UNL     1      37.740  30.901  49.451  0.00  0.00    +0.000 C 
ATOM      4  C   UNL     1      38.209  30.591  50.778  0.00  0.00    +0.000 C 
ATOM      5  C   UNL     1      37.175  29.870  51.645  0.00  0.00    +0.000 C 
ATOM      6  C   UNL     1      36.059  29.321  50.808  0.00  0.00    +0.000 C 
ATOM      7  H   UNL     1      34.661  30.878  50.735  0.00  0.00    +0.000 HD
ATOM      8  H   UNL     1      36.170  31.748  48.412  0.00  0.00    +0.000 HD
ATOM      9  H   UNL     1      36.296  32.308  50.068  0.00  0.00    +0.000 HD
ATOM     10  H   UNL     1      37.832  30.059  48.740  0.00  0.00    +0.000 HD
ATOM     11  H   UNL     1      39.155  30.015  50.714  0.00  0.00    +0.000 HD
ATOM     12  H   UNL     1      38.468  31.501  51.352  0.00  0.00    +0.000 HD
ATOM     13  H   UNL     1      37.691  29.001  52.088  0.00  0.00    +0.000 HD
ATOM     14  H   UNL     1      36.796  30.478  52.469  0.00  0.00    +0.000 HD
ATOM     15  H   UNL     1      36.469  28.539  50.130  0.00  0.00    +0.000 HD
ATOM     16  H   UNL     1      35.327  28.856  51.478  0.00  0.00    +0.000 HD
ENDROOT
BRANCH   3  19
ATOM     17 CL   UNL     1      38.573  30.617  46.632  0.00  0.00    +0.000 Cl
ATOM     18  C   UNL     1      38.957  32.032  47.587  0.00  0.00    +0.000 A 
ATOM     19  C   UNL     1      38.477  32.069  48.872  0.00  0.00    +0.000 A 
ATOM     20  C   UNL     1      38.796  33.232  49.541  0.00  0.00    +0.000 A 
ATOM     21  C   UNL     1      39.528  34.261  48.980  0.00  0.00    +0.000 A 
ATOM     22  C   UNL     1      39.980  34.142  47.667  0.00  0.00    +0.000 A 
ATOM     23  C   UNL     1      39.684  32.994  46.954  0.00  0.00    +0.000 A 
ATOM     24  H   UNL     1      38.451  33.347  50.560  0.00  0.00    +0.000 HD
ATOM     25  H   UNL     1      39.731  35.136  49.581  0.00  0.00    +0.000 HD
ATOM     26  H   UNL     1      40.555  34.941  47.216  0.00  0.00    +0.000 HD
BRANCH  23  27
ATOM     27  N   UNL     1      40.132  32.860  45.608  0.00  0.00    +0.000 N 
ATOM     28  H   UNL     1      39.759  32.082  45.016  0.00  0.00    +0.000 HD
ATOM     29  H   UNL     1      40.827  33.540  45.229  0.00  0.00    +0.000 HD
ENDBRANCH  23  27
ENDBRANCH   3  19
BRANCH   1  30
ATOM     30  C   UNL     1      34.498  29.672  49.016  0.00  0.00    +0.000 A 
ATOM     31  C   UNL     1      34.508  30.207  47.736  0.00  0.00    +0.000 A 
ATOM     32  C   UNL     1      33.764  29.580  46.742  0.00  0.00    +0.000 A 
ATOM     33  N   UNL     1      33.042  28.442  47.080  0.00  0.00    +0.000 NA
ATOM     34  C   UNL     1      33.050  27.944  48.334  0.00  0.00    +0.000 A 
ATOM     35  N   UNL     1      33.783  28.586  49.251  0.00  0.00    +0.000 NA
ATOM     36  H   UNL     1      34.943  31.039  47.199  0.00  0.00    +0.000 HD
ATOM     37  H   UNL     1      33.605  29.782  45.705  0.00  0.00    +0.000 HD
BRANCH  34  38
ATOM     38  C   UNL     1      32.286  26.747  48.673  0.00  0.00    +0.000 A 
ATOM     39  C   UNL     1      32.069  26.456  50.003  0.00  0.00    +0.000 A 
ATOM     40  H   UNL     1      32.428  27.055  50.804  0.00  0.00    +0.000 HD
ATOM     41  C   UNL     1      31.340  25.315  50.300  0.00  0.00    +0.000 A 
ATOM     42  C   UNL     1      30.859  24.513  49.283  0.00  0.00    +0.000 A 
ATOM     43  H   UNL     1      30.280  23.603  49.462  0.00  0.00    +0.000 HD
ATOM     44  C   UNL     1      31.108  24.855  47.960  0.00  0.00    +0.000 A 
ATOM     45  H   UNL     1      30.747  24.251  47.122  0.00  0.00    +0.000 HD
ATOM     46  C   UNL     1      31.836  25.993  47.600  0.00  0.00    +0.000 A 
ENDBRANCH  34  38
ENDBRANCH   1  30
TORSDOF 4
