
     RDKit          3D

 30 32  0  0  0  0  0  0  0  0999 V2000
   38.2650   33.4532   49.5497 Cl  0  0  0  0  0  0  0  0  0  0  0  0
   38.6597   32.5346   48.1222 C   0  0  0  0  0  0  0  0  0  0  0  0
   38.0801   31.2936   48.0812 C   0  0  0  0  0  0  0  0  0  0  0  0
   38.3380   30.4762   46.9692 C   0  0  0  0  0  0  0  0  0  0  0  0
   39.1388   30.8867   45.9495 C   0  0  0  0  0  0  0  0  0  0  0  0
   39.7131   32.1397   46.0094 C   0  0  0  0  0  0  0  0  0  0  0  0
   40.7458   32.6995   44.7196 Cl  0  0  0  0  0  0  0  0  0  0  0  0
   39.4716   32.9388   47.0785 C   0  0  0  0  0  0  0  0  0  0  0  0
   37.7781   29.9715   50.1438 C   0  0  0  0  0  0  0  0  0  0  0  0
   37.1920   30.6502   49.0568 C   0  0  0  0  0  0  0  0  0  0  0  0
   35.7867   30.6724   48.9681 C   0  0  0  0  0  0  0  0  0  0  0  0
   35.0731   30.0397   49.9332 N   0  0  0  0  0  0  0  0  0  0  0  0
   35.6800   29.3946   50.9684 C   0  0  0  0  0  0  0  0  0  0  0  0
   37.0260   29.3643   51.0674 N   0  0  0  0  0  0  0  0  0  0  0  0
   37.9280   29.4832   46.8451 H   0  0  0  0  0  0  0  0  0  0  0  0
   39.3540   30.2661   45.0724 H   0  0  0  0  0  0  0  0  0  0  0  0
   38.8330   29.9186   50.2672 H   0  0  0  0  0  0  0  0  0  0  0  0
   35.3888   31.1947   48.1336 H   0  0  0  0  0  0  0  0  0  0  0  0
   34.9114   28.9740   51.5987 H   0  0  0  0  0  0  0  0  0  0  0  0
   40.0328   34.2775   47.2314 C   0  0  0  0  0  0  0  0  0  0  0  0
   41.2615   34.6621   46.7026 C   0  0  0  0  0  0  0  0  0  0  0  0
   41.8163   33.9165   46.1518 H   0  0  0  0  0  0  0  0  0  0  0  0
   41.6714   35.9605   46.9231 C   0  0  0  0  0  0  0  0  0  0  0  0
   40.9361   36.8796   47.6296 C   0  0  0  0  0  0  0  0  0  0  0  0
   41.2813   37.8912   47.7875 H   0  0  0  0  0  0  0  0  0  0  0  0
   39.7178   36.5176   48.1605 C   0  0  0  0  0  0  0  0  0  0  0  0
   39.0877   37.1846   48.7249 H   0  0  0  0  0  0  0  0  0  0  0  0
   39.3091   35.2316   47.9435 C   0  0  0  0  0  0  0  0  0  0  0  0
   42.6360   36.2113   46.4906 H   0  0  0  0  0  0  0  0  0  0  0  0
   38.3453   34.9195   48.3548 H   0  0  0  0  0  0  0  0  0  0  0  0
  2  1  1  0
  3  2  2  0
  3 10  1  0
  4  3  1  0
  5  6  1  0
  5  4  2  0
  6  8  2  0
  7  6  1  0
  8  2  1  0
  9 14  2  0
 10  9  1  0
 11 10  2  0
 11 12  1  0
 12 13  2  0
 13 14  1  0
  4 15  1  0
  5 16  1  0
  9 17  1  0
 11 18  1  0
 13 19  1  0
 20 21  2  0
 21 22  1  0
 21 23  1  0
 23 24  2  0
 24 25  1  0
 24 26  1  0
 26 27  1  0
 26 28  2  0
 28 20  1  0
 23 29  1  0
 28 30  1  0
  8 20  1  0
M  ISO  8  15  14  16  14  17  14  18  14  19  14  22  16  25  16  27  16
M  END
>  <DihAtoms>  (1) 
5,7,19,20

>  <DihDeg>  (1) 
-89.99938426822449

$$$$
