
 OpenBabel03272507553D

 23 24  0  0  0  0  0  0  0  0999 V2000
   35.5600   30.5130   48.6860 C   0  0  0  0  0  0  0  0  0  0  0  0
   36.7560   31.1230   48.2150 C   0  0  0  0  0  0  0  0  0  0  0  0
   37.0720   31.0230   46.8690 C   0  0  0  0  0  0  0  0  0  0  0  0
   36.1960   30.3330   46.0630 N   0  0  0  0  0  0  0  0  0  0  0  0
   35.0700   29.7650   46.5270 C   0  0  0  0  0  0  0  0  0  0  0  0
   34.7550   29.8510   47.8160 N   0  0  0  0  0  0  0  0  0  0  0  0
   34.3150   29.1180   45.5280 N   0  0  0  0  0  0  0  0  0  0  0  0
   35.3240   30.5970   49.7410 H   0  0  0  0  0  0  0  0  0  0  0  0
   34.0210   28.1250   45.7540 H   0  0  0  0  0  0  0  0  0  0  0  0
   33.9990   29.4690   44.5960 H   0  0  0  0  0  0  0  0  0  0  0  0
   38.2160   31.6240   46.2190 C   0  0  0  0  0  0  0  0  0  0  0  0
   38.4990   32.7900   45.5640 C   0  0  0  0  0  0  0  0  0  0  0  0
   37.6760   33.4790   45.5630 H   0  0  0  0  0  0  0  0  0  0  0  0
   39.7150   33.0700   44.9940 C   0  0  0  0  0  3  0  0  0  0  0  0
   40.7620   32.1770   45.0420 C   0  0  0  0  0  0  0  0  0  0  0  0
   41.6450   32.5500   44.5460 H   0  0  0  0  0  0  0  0  0  0  0  0
   40.5320   30.9840   45.6910 C   0  0  0  0  0  0  0  0  0  0  0  0
   41.3830   30.3220   45.7000 H   0  0  0  0  0  0  0  0  0  0  0  0
   39.3010   30.7270   46.2550 C   0  0  0  0  0  3  0  0  0  0  0  0
   37.6060   31.8640   49.1830 C   0  0  0  0  0  0  0  0  0  0  0  0
   38.8030   31.2390   49.4020 F   0  0  0  0  0  0  0  0  0  0  0  0
   37.8340   33.1250   48.6690 F   0  0  0  0  0  0  0  0  0  0  0  0
   36.9840   32.0260   50.4120 F   0  0  0  0  0  0  0  0  0  0  0  0
  1  8  1  0  0  0  0
  2  1  1  0  0  0  0
  2 20  1  0  0  0  0
  3  2  2  0  0  0  0
  4  5  2  0  0  0  0
  4  3  1  0  0  0  0
  5  6  1  0  0  0  0
  6  1  2  0  0  0  0
  7  9  1  0  0  0  0
  7  5  1  0  0  0  0
 10  7  1  0  0  0  0
 11 19  1  0  0  0  0
 11  3  1  0  0  0  0
 12 11  2  0  0  0  0
 13 12  1  0  0  0  0
 14 15  2  0  0  0  0
 14 12  1  0  0  0  0
 15 17  1  0  0  0  0
 16 15  1  0  0  0  0
 17 18  1  0  0  0  0
 17 19  2  0  0  0  0
 20 21  1  0  0  0  0
 20 23  1  0  0  0  0
 22 20  1  0  0  0  0
M  END
>  <minimizedAffinity>
-5.47644043

>  <minimizedRMSD>
2.34096384

$$$$
