
 OpenBabel03272501403D

 45 49  0  0  1  0  0  0  0  0999 V2000
   37.8410   30.9570   50.6030 C   0  0  0  0  0  0  0  0  0  0  0  0
   38.5470   31.6040   49.6150 C   0  0  0  0  0  0  0  0  0  0  0  0
   38.1790   31.5460   48.2630 C   0  0  0  0  0  0  0  0  0  0  0  0
   37.1190   30.8450   47.9650 N   0  0  0  0  0  0  0  0  0  0  0  0
   36.4230   30.2040   48.9590 C   0  0  0  0  0  0  0  0  0  0  0  0
   36.7730   30.2570   50.2370 N   0  0  0  0  0  0  0  0  0  0  0  0
   38.1290   31.0040   51.6390 H   0  0  0  0  0  0  0  0  0  0  0  0
   39.4230   32.1740   49.9590 H   0  0  0  0  0  0  0  0  0  0  0  0
   35.2240   29.4320   48.6480 C   0  0  0  0  0  0  0  0  0  0  0  0
   34.7390   28.2550   49.1520 C   0  0  0  0  0  0  0  0  0  0  0  0
   33.5840   27.7300   48.7150 C   0  0  0  0  0  0  0  0  0  0  0  0
   32.9270   28.4700   47.7210 C   0  0  0  0  0  0  0  0  0  0  0  0
   34.0210   29.9250   47.4470 S   0  0  0  0  0  0  0  0  0  0  0  0
   35.3520   27.7800   49.9230 H   0  0  0  0  0  0  0  0  0  0  0  0
   33.1270   26.8230   49.0440 H   0  0  0  0  0  0  0  0  0  0  0  0
   31.6950   28.2670   46.9970 C   0  0  0  0  0  0  0  0  0  0  0  0
   31.2440   29.2600   46.1640 C   0  0  0  0  0  0  0  0  0  0  0  0
   31.7910   30.1850   46.0420 H   0  0  0  0  0  0  0  0  0  0  0  0
   30.0440   28.9820   45.5010 C   0  0  0  0  0  0  0  0  0  0  0  0
   29.3850   27.7640   45.7040 C   0  0  0  0  0  0  0  0  0  0  0  0
   28.4660   27.6580   45.1400 H   0  0  0  0  0  0  0  0  0  0  0  0
   29.9030   26.7960   46.5690 C   0  0  0  0  0  0  0  0  0  0  0  0
   29.3340   25.8840   46.6700 H   0  0  0  0  0  0  0  0  0  0  0  0
   31.1040   27.0510   47.2450 C   0  0  0  0  0  0  0  0  0  0  0  0
   39.0850   32.1940   47.3550 C   0  0  1  0  0  0  0  0  0  0  0  0
   40.0830   31.8960   47.8760 H   0  0  0  0  0  0  0  0  0  0  0  0
   39.1690   31.6110   45.9600 C   0  0  2  0  0  0  0  0  0  0  0  0
   40.6360   31.2500   45.7220 C   0  0  0  0  0  0  0  0  0  0  0  0
   39.9150   32.2870   44.9290 C   0  0  1  0  0  0  0  0  0  0  0  0
   38.4140   30.8720   45.6960 H   0  0  0  0  0  0  0  0  0  0  0  0
   41.4610   31.6340   46.3140 H   0  0  0  0  0  0  0  0  0  0  0  0
   40.7820   30.2450   45.2900 H   0  0  0  0  0  0  0  0  0  0  0  0
   40.0440   33.3740   45.1090 H   0  0  0  0  0  0  0  0  0  0  0  0
   39.8520   31.9850   43.4920 C   0  0  0  0  0  0  0  0  0  0  0  0
   39.1610   32.8500   42.6850 C   0  0  0  0  0  0  0  0  0  0  0  0
   39.1410   32.5560   41.3440 C   0  0  0  0  0  0  0  0  0  0  0  0
   39.7710   31.4570   40.7920 C   0  0  0  0  0  0  0  0  0  0  0  0
   40.4580   30.6090   41.6420 C   0  0  0  0  0  0  0  0  0  0  0  0
   40.4870   30.8840   42.9560 N   0  0  0  0  0  0  0  0  0  0  0  0
   38.6620   33.7110   43.0870 H   0  0  0  0  0  0  0  0  0  0  0  0
   38.6070   33.2070   40.6520 H   0  0  0  0  0  0  0  0  0  0  0  0
   39.7830   31.1890   39.7620 H   0  0  0  0  0  0  0  0  0  0  0  0
   41.0030   29.7130   41.3890 H   0  0  0  0  0  0  0  0  0  0  0  0
   39.3150   33.4760   47.4000 O   0  0  0  0  0  0  0  0  0  0  0  0
   38.7460   34.1330   46.9430 H   0  0  0  0  0  0  0  0  0  0  0  0
  1  7  1  0  0  0  0
  2  8  1  0  0  0  0
  2  1  2  0  0  0  0
  3  2  1  0  0  0  0
  4  3  2  0  0  0  0
  4  5  1  0  0  0  0
  5  6  2  0  0  0  0
  6  1  1  0  0  0  0
  9  5  1  0  0  0  0
  9 10  2  0  0  0  0
 10 14  1  0  0  0  0
 11 15  1  0  0  0  0
 11 10  1  0  0  0  0
 12 11  2  0  0  0  0
 13 12  1  0  0  0  0
 13  9  1  0  0  0  0
 16 24  1  0  0  0  0
 16 12  1  0  0  0  0
 17 16  2  0  0  0  0
 18 17  1  0  0  0  0
 19 20  2  0  0  0  0
 19 17  1  0  0  0  0
 20 22  1  0  0  0  0
 21 20  1  0  0  0  0
 22 23  1  0  0  0  0
 22 24  2  0  0  0  0
 25 44  1  0  0  0  0
 25 26  1  1  0  0  0
 25  3  1  0  0  0  0
 27 30  1  6  0  0  0
 27 25  1  0  0  0  0
 28 27  1  0  0  0  0
 28 31  1  0  0  0  0
 29 33  1  1  0  0  0
 29 28  1  0  0  0  0
 29 27  1  0  0  0  0
 32 28  1  0  0  0  0
 34 29  1  0  0  0  0
 35 40  1  0  0  0  0
 35 34  2  0  0  0  0
 36 35  1  0  0  0  0
 37 36  2  0  0  0  0
 37 38  1  0  0  0  0
 38 39  2  0  0  0  0
 39 34  1  0  0  0  0
 41 36  1  0  0  0  0
 42 37  1  0  0  0  0
 43 38  1  0  0  0  0
 45 44  1  0  0  0  0
M  END
>  <minimizedAffinity>
-6.70401239

>  <minimizedRMSD>
0.406869322

$$$$
