
 OpenBabel03262522533D

 33 36  0  0  0  0  0  0  0  0999 V2000
   36.6100   27.9340   33.3610 C   0  0  0  0  0  0  0  0  0  0  0  0
   36.5500   28.2820   32.0640 C   0  0  0  0  0  0  0  0  0  0  0  0
   35.8960   29.4630   31.7800 C   0  0  0  0  0  0  0  0  0  0  0  0
   35.3410   30.2490   32.7220 N   0  0  0  0  0  0  0  0  0  0  0  0
   35.4570   29.8080   34.0070 C   0  0  0  0  0  0  0  0  0  0  0  0
   36.0780   28.6650   34.3760 N   0  0  0  0  0  0  0  0  0  0  0  0
   36.9740   27.6980   31.2580 H   0  0  0  0  0  0  0  0  0  0  0  0
   35.8140   29.8020   30.7430 H   0  0  0  0  0  0  0  0  0  0  0  0
   34.8740   30.6180   35.0710 C   0  0  0  0  0  0  0  0  0  0  0  0
   33.5110   30.5680   35.3430 C   0  0  0  0  0  0  0  0  0  0  0  0
   32.8800   29.9170   34.7560 H   0  0  0  0  0  0  0  0  0  0  0  0
   32.9020   31.3080   36.3340 C   0  0  0  0  0  3  0  0  0  0  0  0
   33.6730   32.1490   37.1070 C   0  0  0  0  0  0  0  0  0  0  0  0
   33.3350   32.7830   37.9100 H   0  0  0  0  0  0  0  0  0  0  0  0
   35.0290   32.2190   36.8590 C   0  0  0  0  0  0  0  0  0  0  0  0
   35.7540   32.8320   37.3830 H   0  0  0  0  0  0  0  0  0  0  0  0
   35.6430   31.4770   35.8640 C   0  0  0  0  0  3  0  0  0  0  0  0
   38.6100   24.7420   34.9260 C   0  0  0  0  0  0  0  0  0  0  0  0
   38.0930   24.5140   33.7210 C   0  0  0  0  0  0  0  0  0  0  0  0
   37.3930   25.5180   33.0870 C   0  0  0  0  0  0  0  0  0  0  0  0
   37.2820   26.6970   33.7600 C   0  0  0  0  0  0  0  0  0  0  0  0
   38.1870   26.3610   35.3100 S   0  0  0  0  0  0  0  0  0  0  0  0
   38.2270   23.5270   33.2410 H   0  0  0  0  0  0  0  0  0  0  0  0
   36.9320   25.4350   32.1050 H   0  0  0  0  0  0  0  0  0  0  0  0
   39.6670   22.8170   37.8390 C   0  0  0  0  0  0  0  0  0  0  0  0
   40.8090   22.1500   37.3980 C   0  0  0  0  0  0  0  0  0  0  0  0
   41.2200   22.3680   36.0790 C   0  0  0  0  0  0  0  0  0  0  0  0
   40.4890   23.2170   35.2920 N   0  0  0  0  0  0  0  0  0  0  0  0
   39.3900   23.8330   35.7840 C   0  0  0  0  0  0  0  0  0  0  0  0
   38.9680   23.6530   37.0260 N   0  0  0  0  0  0  0  0  0  0  0  0
   39.2560   22.7230   38.8430 H   0  0  0  0  0  0  0  0  0  0  0  0
   41.3250   21.4980   38.0900 H   0  0  0  0  0  0  0  0  0  0  0  0
   42.0900   21.8670   35.7270 H   0  0  0  0  0  0  0  0  0  0  0  0
  1 21  1  0  0  0  0
  1  6  1  0  0  0  0
  2  1  2  0  0  0  0
  3  2  1  0  0  0  0
  3  4  2  0  0  0  0
  4  5  1  0  0  0  0
  5  6  2  0  0  0  0
  5  9  1  0  0  0  0
  7  2  1  0  0  0  0
  8  3  1  0  0  0  0
  9 10  2  0  0  0  0
  9 17  1  0  0  0  0
 10 12  1  0  0  0  0
 11 10  1  0  0  0  0
 12 13  2  0  0  0  0
 13 14  1  0  0  0  0
 15 13  1  0  0  0  0
 15 16  1  0  0  0  0
 17 15  2  0  0  0  0
 18 22  1  0  0  0  0
 18 29  1  0  0  0  0
 19 18  2  0  0  0  0
 20 19  1  0  0  0  0
 20 21  2  0  0  0  0
 21 22  1  0  0  0  0
 23 19  1  0  0  0  0
 24 20  1  0  0  0  0
 25 31  1  0  0  0  0
 26 25  1  0  0  0  0
 26 32  1  0  0  0  0
 27 26  2  0  0  0  0
 28 29  2  0  0  0  0
 28 27  1  0  0  0  0
 29 30  1  0  0  0  0
 30 25  2  0  0  0  0
 33 27  1  0  0  0  0
M  END
>  <minimizedAffinity>
-6.17599869

$$$$

 OpenBabel03262522533D

 33 36  0  0  0  0  0  0  0  0999 V2000
   36.6890   28.0540   33.4170 C   0  0  0  0  0  0  0  0  0  0  0  0
   36.6990   28.4500   32.1340 C   0  0  0  0  0  0  0  0  0  0  0  0
   36.0330   29.6260   31.8540 C   0  0  0  0  0  0  0  0  0  0  0  0
   35.3990   30.3600   32.7870 N   0  0  0  0  0  0  0  0  0  0  0  0
   35.4470   29.8720   34.0600 C   0  0  0  0  0  0  0  0  0  0  0  0
   36.0750   28.7300   34.4240 N   0  0  0  0  0  0  0  0  0  0  0  0
   37.1880   27.9090   31.3340 H   0  0  0  0  0  0  0  0  0  0  0  0
   36.0060   30.0020   30.8260 H   0  0  0  0  0  0  0  0  0  0  0  0
   34.7780   30.6240   35.1150 C   0  0  0  0  0  0  0  0  0  0  0  0
   35.4900   31.4860   35.9420 C   0  0  0  0  0  0  0  0  0  0  0  0
   36.5550   31.5960   35.7960 H   0  0  0  0  0  0  0  0  0  0  0  0
   34.9150   32.2240   36.9540 C   0  0  0  0  0  3  0  0  0  0  0  0
   33.5580   32.1120   37.1720 C   0  0  0  0  0  0  0  0  0  0  0  0
   32.9780   32.6240   37.9230 H   0  0  0  0  0  0  0  0  0  0  0  0
   32.8260   31.2640   36.3670 C   0  0  0  0  0  0  0  0  0  0  0  0
   31.7600   31.0770   36.4210 H   0  0  0  0  0  0  0  0  0  0  0  0
   33.4020   30.5220   35.3490 C   0  0  0  0  0  3  0  0  0  0  0  0
   38.7810   24.8930   34.9250 C   0  0  0  0  0  0  0  0  0  0  0  0
   38.0910   24.6050   33.8230 C   0  0  0  0  0  0  0  0  0  0  0  0
   37.3430   25.5930   33.2190 C   0  0  0  0  0  0  0  0  0  0  0  0
   37.3680   26.8190   33.8110 C   0  0  0  0  0  0  0  0  0  0  0  0
   38.4710   26.5520   35.2420 S   0  0  0  0  0  0  0  0  0  0  0  0
   38.1220   23.5820   33.4050 H   0  0  0  0  0  0  0  0  0  0  0  0
   36.7450   25.4620   32.3190 H   0  0  0  0  0  0  0  0  0  0  0  0
   41.6890   22.9830   36.0210 C   0  0  0  0  0  0  0  0  0  0  0  0
   41.2660   22.3900   37.2100 C   0  0  0  0  0  0  0  0  0  0  0  0
   39.9600   22.6520   37.6390 C   0  0  0  0  0  0  0  0  0  0  0  0
   39.1690   23.4700   36.8770 N   0  0  0  0  0  0  0  0  0  0  0  0
   39.6430   24.0130   35.7330 C   0  0  0  0  0  0  0  0  0  0  0  0
   40.8710   23.7900   35.2940 N   0  0  0  0  0  0  0  0  0  0  0  0
   42.6820   22.8500   35.5940 H   0  0  0  0  0  0  0  0  0  0  0  0
   41.9600   21.7570   37.7460 H   0  0  0  0  0  0  0  0  0  0  0  0
   39.6220   22.2080   38.5440 H   0  0  0  0  0  0  0  0  0  0  0  0
  1 21  1  0  0  0  0
  1  6  1  0  0  0  0
  2  1  2  0  0  0  0
  3  2  1  0  0  0  0
  3  4  2  0  0  0  0
  4  5  1  0  0  0  0
  5  6  2  0  0  0  0
  5  9  1  0  0  0  0
  7  2  1  0  0  0  0
  8  3  1  0  0  0  0
  9 17  2  0  0  0  0
  9 10  1  0  0  0  0
 10 12  2  0  0  0  0
 11 10  1  0  0  0  0
 12 13  1  0  0  0  0
 13 14  1  0  0  0  0
 15 16  1  0  0  0  0
 15 13  2  0  0  0  0
 17 15  1  0  0  0  0
 18 22  1  0  0  0  0
 18 29  1  0  0  0  0
 19 18  2  0  0  0  0
 20 21  2  0  0  0  0
 20 19  1  0  0  0  0
 21 22  1  0  0  0  0
 23 19  1  0  0  0  0
 24 20  1  0  0  0  0
 25 26  1  0  0  0  0
 26 27  2  0  0  0  0
 26 32  1  0  0  0  0
 27 33  1  0  0  0  0
 28 27  1  0  0  0  0
 29 28  2  0  0  0  0
 30 29  1  0  0  0  0
 30 25  2  0  0  0  0
 31 25  1  0  0  0  0
M  END
>  <minimizedAffinity>
-6.09337425

$$$$

 OpenBabel03262522533D

 33 36  0  0  0  0  0  0  0  0999 V2000
   36.3530   28.4400   32.5130 C   0  0  0  0  0  0  0  0  0  0  0  0
   36.6440   29.1890   31.4370 C   0  0  0  0  0  0  0  0  0  0  0  0
   36.3420   30.5330   31.5300 C   0  0  0  0  0  0  0  0  0  0  0  0
   35.7890   31.0940   32.6220 N   0  0  0  0  0  0  0  0  0  0  0  0
   35.5320   30.2480   33.6600 C   0  0  0  0  0  0  0  0  0  0  0  0
   35.7940   28.9210   33.6540 N   0  0  0  0  0  0  0  0  0  0  0  0
   37.0880   28.8040   30.5280 H   0  0  0  0  0  0  0  0  0  0  0  0
   36.5570   31.1970   30.6870 H   0  0  0  0  0  0  0  0  0  0  0  0
   34.9320   30.7990   34.8690 C   0  0  0  0  0  0  0  0  0  0  0  0
   33.6150   30.5120   35.2100 C   0  0  0  0  0  0  0  0  0  0  0  0
   33.0330   29.8700   34.5670 H   0  0  0  0  0  0  0  0  0  0  0  0
   32.9930   31.0030   36.3390 C   0  0  0  0  0  3  0  0  0  0  0  0
   33.7040   31.8250   37.1860 C   0  0  0  0  0  0  0  0  0  0  0  0
   33.3480   32.2780   38.0980 H   0  0  0  0  0  0  0  0  0  0  0  0
   35.0120   32.1270   36.8740 C   0  0  0  0  0  0  0  0  0  0  0  0
   35.6880   32.7560   37.4430 H   0  0  0  0  0  0  0  0  0  0  0  0
   35.6390   31.6360   35.7400 C   0  0  0  0  0  3  0  0  0  0  0  0
   36.8030   24.4090   32.0780 C   0  0  0  0  0  0  0  0  0  0  0  0
   37.5240   24.9260   33.0700 C   0  0  0  0  0  0  0  0  0  0  0  0
   37.4560   26.2800   33.3170 C   0  0  0  0  0  0  0  0  0  0  0  0
   36.6350   27.0030   32.5060 C   0  0  0  0  0  0  0  0  0  0  0  0
   35.9580   25.7320   31.3830 S   0  0  0  0  0  0  0  0  0  0  0  0
   38.1680   24.2700   33.6830 H   0  0  0  0  0  0  0  0  0  0  0  0
   38.0030   26.8020   34.1000 H   0  0  0  0  0  0  0  0  0  0  0  0
   35.4410   21.0950   31.3870 C   0  0  0  0  0  0  0  0  0  0  0  0
   36.5130   20.4100   30.8170 C   0  0  0  0  0  0  0  0  0  0  0  0
   37.7210   21.1000   30.6690 C   0  0  0  0  0  0  0  0  0  0  0  0
   37.7920   22.4010   31.0880 N   0  0  0  0  0  0  0  0  0  0  0  0
   36.7130   23.0060   31.6340 C   0  0  0  0  0  0  0  0  0  0  0  0
   35.5530   22.3890   31.7900 N   0  0  0  0  0  0  0  0  0  0  0  0
   34.4560   20.6600   31.5490 H   0  0  0  0  0  0  0  0  0  0  0  0
   36.3650   19.3810   30.5150 H   0  0  0  0  0  0  0  0  0  0  0  0
   38.5480   20.5910   30.2360 H   0  0  0  0  0  0  0  0  0  0  0  0
  1  6  1  0  0  0  0
  2  3  1  0  0  0  0
  2  1  2  0  0  0  0
  3  4  2  0  0  0  0
  4  5  1  0  0  0  0
  5  9  1  0  0  0  0
  6  5  2  0  0  0  0
  7  2  1  0  0  0  0
  8  3  1  0  0  0  0
  9 10  2  0  0  0  0
  9 17  1  0  0  0  0
 10 12  1  0  0  0  0
 11 10  1  0  0  0  0
 12 13  2  0  0  0  0
 13 14  1  0  0  0  0
 15 13  1  0  0  0  0
 15 16  1  0  0  0  0
 17 15  2  0  0  0  0
 18 19  2  0  0  0  0
 19 20  1  0  0  0  0
 19 23  1  0  0  0  0
 20 24  1  0  0  0  0
 21  1  1  0  0  0  0
 21 20  2  0  0  0  0
 22 18  1  0  0  0  0
 22 21  1  0  0  0  0
 25 31  1  0  0  0  0
 25 30  1  0  0  0  0
 26 25  2  0  0  0  0
 27 26  1  0  0  0  0
 27 28  2  0  0  0  0
 28 29  1  0  0  0  0
 29 30  2  0  0  0  0
 29 18  1  0  0  0  0
 32 26  1  0  0  0  0
 33 27  1  0  0  0  0
M  END
>  <minimizedAffinity>
-5.89678288

$$$$

 OpenBabel03262522533D

 33 36  0  0  0  0  0  0  0  0999 V2000
   38.4750   24.4590   36.0490 C   0  0  0  0  0  0  0  0  0  0  0  0
   37.7700   24.3850   37.1900 C   0  0  0  0  0  0  0  0  0  0  0  0
   38.3270   23.6300   38.2020 C   0  0  0  0  0  0  0  0  0  0  0  0
   39.5080   22.9930   38.0890 N   0  0  0  0  0  0  0  0  0  0  0  0
   40.1450   23.1320   36.8910 C   0  0  0  0  0  0  0  0  0  0  0  0
   39.6730   23.8490   35.8460 N   0  0  0  0  0  0  0  0  0  0  0  0
   36.8160   24.8700   37.3490 H   0  0  0  0  0  0  0  0  0  0  0  0
   37.8020   23.5310   39.1570 H   0  0  0  0  0  0  0  0  0  0  0  0
   41.4280   22.4630   36.7090 C   0  0  0  0  0  0  0  0  0  0  0  0
   41.6360   21.1710   37.1800 C   0  0  0  0  0  0  0  0  0  0  0  0
   40.8300   20.6600   37.6860 H   0  0  0  0  0  0  0  0  0  0  0  0
   42.8250   20.4880   37.0380 C   0  0  0  0  0  3  0  0  0  0  0  0
   43.8760   21.1060   36.3970 C   0  0  0  0  0  0  0  0  0  0  0  0
   44.8570   20.6960   36.2170 H   0  0  0  0  0  0  0  0  0  0  0  0
   43.6990   22.3880   35.9200 C   0  0  0  0  0  0  0  0  0  0  0  0
   44.4320   22.9950   35.3990 H   0  0  0  0  0  0  0  0  0  0  0  0
   42.5060   23.0770   36.0610 C   0  0  0  0  0  3  0  0  0  0  0  0
   36.9690   27.0190   33.2530 C   0  0  0  0  0  0  0  0  0  0  0  0
   37.3270   25.8350   32.7600 C   0  0  0  0  0  0  0  0  0  0  0  0
   37.8500   24.8830   33.6090 C   0  0  0  0  0  0  0  0  0  0  0  0
   37.9640   25.2360   34.9190 C   0  0  0  0  0  0  0  0  0  0  0  0
   37.3150   26.9440   34.9330 S   0  0  0  0  0  0  0  0  0  0  0  0
   37.2030   25.6270   31.6820 H   0  0  0  0  0  0  0  0  0  0  0  0
   38.1730   23.8880   33.3090 H   0  0  0  0  0  0  0  0  0  0  0  0
   36.4110   29.5790   30.7140 C   0  0  0  0  0  0  0  0  0  0  0  0
   35.3380   30.3140   31.2160 C   0  0  0  0  0  0  0  0  0  0  0  0
   34.8010   29.9220   32.4470 C   0  0  0  0  0  0  0  0  0  0  0  0
   35.3490   28.8470   33.0930 N   0  0  0  0  0  0  0  0  0  0  0  0
   36.3910   28.1770   32.5490 C   0  0  0  0  0  0  0  0  0  0  0  0
   36.9260   28.5160   31.3870 N   0  0  0  0  0  0  0  0  0  0  0  0
   36.9060   29.7920   29.7680 H   0  0  0  0  0  0  0  0  0  0  0  0
   34.9700   31.1510   30.6370 H   0  0  0  0  0  0  0  0  0  0  0  0
   33.9830   30.4730   32.8450 H   0  0  0  0  0  0  0  0  0  0  0  0
  1  2  1  0  0  0  0
  2  7  1  0  0  0  0
  2  3  2  0  0  0  0
  3  8  1  0  0  0  0
  4  3  1  0  0  0  0
  5  4  2  0  0  0  0
  6  1  2  0  0  0  0
  6  5  1  0  0  0  0
  9  5  1  0  0  0  0
  9 10  1  0  0  0  0
 10 11  1  0  0  0  0
 12 10  2  0  0  0  0
 13 12  1  0  0  0  0
 14 13  1  0  0  0  0
 15 17  1  0  0  0  0
 15 13  2  0  0  0  0
 16 15  1  0  0  0  0
 17  9  2  0  0  0  0
 18 22  1  0  0  0  0
 19 18  2  0  0  0  0
 19 20  1  0  0  0  0
 20 21  2  0  0  0  0
 21 22  1  0  0  0  0
 21  1  1  0  0  0  0
 23 19  1  0  0  0  0
 24 20  1  0  0  0  0
 25 26  2  0  0  0  0
 25 30  1  0  0  0  0
 26 27  1  0  0  0  0
 27 33  1  0  0  0  0
 27 28  2  0  0  0  0
 29 28  1  0  0  0  0
 29 18  1  0  0  0  0
 30 29  2  0  0  0  0
 31 25  1  0  0  0  0
 32 26  1  0  0  0  0
M  END
>  <minimizedAffinity>
-5.81493235

$$$$

 OpenBabel03262522533D

 33 36  0  0  0  0  0  0  0  0999 V2000
   38.5630   24.7330   36.1610 C   0  0  0  0  0  0  0  0  0  0  0  0
   37.7800   24.5040   37.2280 C   0  0  0  0  0  0  0  0  0  0  0  0
   38.2530   23.5880   38.1460 C   0  0  0  0  0  0  0  0  0  0  0  0
   39.4270   22.9440   38.0140 N   0  0  0  0  0  0  0  0  0  0  0  0
   40.1480   23.2460   36.8950 C   0  0  0  0  0  0  0  0  0  0  0  0
   39.7610   24.1280   35.9460 N   0  0  0  0  0  0  0  0  0  0  0  0
   36.8260   24.9860   37.3970 H   0  0  0  0  0  0  0  0  0  0  0  0
   37.6610   23.3590   39.0380 H   0  0  0  0  0  0  0  0  0  0  0  0
   41.4290   22.5790   36.6970 C   0  0  0  0  0  0  0  0  0  0  0  0
   41.6250   21.2670   37.1160 C   0  0  0  0  0  0  0  0  0  0  0  0
   40.8120   20.7390   37.5930 H   0  0  0  0  0  0  0  0  0  0  0  0
   42.8110   20.5830   36.9560 C   0  0  0  0  0  3  0  0  0  0  0  0
   43.8720   21.2210   36.3500 C   0  0  0  0  0  0  0  0  0  0  0  0
   44.8510   20.8130   36.1620 H   0  0  0  0  0  0  0  0  0  0  0  0
   43.7060   22.5230   35.9250 C   0  0  0  0  0  0  0  0  0  0  0  0
   44.4470   23.1460   35.4360 H   0  0  0  0  0  0  0  0  0  0  0  0
   42.5150   23.2120   36.0850 C   0  0  0  0  0  3  0  0  0  0  0  0
   37.7330   27.1320   32.9680 C   0  0  0  0  0  0  0  0  0  0  0  0
   37.0580   27.4510   34.0700 C   0  0  0  0  0  0  0  0  0  0  0  0
   37.2540   26.7130   35.2180 C   0  0  0  0  0  0  0  0  0  0  0  0
   38.1440   25.6870   35.1330 C   0  0  0  0  0  0  0  0  0  0  0  0
   38.7050   25.7830   33.3970 S   0  0  0  0  0  0  0  0  0  0  0  0
   36.3500   28.3000   34.0560 H   0  0  0  0  0  0  0  0  0  0  0  0
   36.7540   26.8900   36.1680 H   0  0  0  0  0  0  0  0  0  0  0  0
   38.5810   27.9670   29.5200 C   0  0  0  0  0  0  0  0  0  0  0  0
   37.6370   28.9310   29.1710 C   0  0  0  0  0  0  0  0  0  0  0  0
   36.6960   29.3000   30.1390 C   0  0  0  0  0  0  0  0  0  0  0  0
   36.7470   28.7010   31.3690 N   0  0  0  0  0  0  0  0  0  0  0  0
   37.6910   27.7710   31.6410 C   0  0  0  0  0  0  0  0  0  0  0  0
   38.5980   27.3950   30.7530 N   0  0  0  0  0  0  0  0  0  0  0  0
   39.3580   27.6040   28.8480 H   0  0  0  0  0  0  0  0  0  0  0  0
   37.6730   29.3520   28.1750 H   0  0  0  0  0  0  0  0  0  0  0  0
   35.9690   30.0350   29.8890 H   0  0  0  0  0  0  0  0  0  0  0  0
  1  2  1  0  0  0  0
  2  7  1  0  0  0  0
  2  3  2  0  0  0  0
  3  8  1  0  0  0  0
  4  3  1  0  0  0  0
  5  4  2  0  0  0  0
  6  1  2  0  0  0  0
  6  5  1  0  0  0  0
  9  5  1  0  0  0  0
  9 10  1  0  0  0  0
 10 11  1  0  0  0  0
 12 10  2  0  0  0  0
 13 12  1  0  0  0  0
 14 13  1  0  0  0  0
 15 17  1  0  0  0  0
 15 13  2  0  0  0  0
 16 15  1  0  0  0  0
 17  9  2  0  0  0  0
 18 22  1  0  0  0  0
 18 19  2  0  0  0  0
 19 20  1  0  0  0  0
 20 24  1  0  0  0  0
 21 20  2  0  0  0  0
 21  1  1  0  0  0  0
 22 21  1  0  0  0  0
 23 19  1  0  0  0  0
 25 30  1  0  0  0  0
 26 25  2  0  0  0  0
 26 27  1  0  0  0  0
 27 28  2  0  0  0  0
 28 29  1  0  0  0  0
 29 18  1  0  0  0  0
 30 29  2  0  0  0  0
 31 25  1  0  0  0  0
 32 26  1  0  0  0  0
 33 27  1  0  0  0  0
M  END
>  <minimizedAffinity>
-5.74021006

$$$$

 OpenBabel03262522533D

 33 36  0  0  0  0  0  0  0  0999 V2000
   37.4810   26.3440   33.3330 C   0  0  0  0  0  0  0  0  0  0  0  0
   37.9810   25.7480   32.2380 C   0  0  0  0  0  0  0  0  0  0  0  0
   38.7240   24.6050   32.4520 C   0  0  0  0  0  0  0  0  0  0  0  0
   38.9540   24.0870   33.6730 N   0  0  0  0  0  0  0  0  0  0  0  0
   38.4020   24.7660   34.7190 C   0  0  0  0  0  0  0  0  0  0  0  0
   37.6630   25.8920   34.6020 N   0  0  0  0  0  0  0  0  0  0  0  0
   37.8360   26.1100   31.2280 H   0  0  0  0  0  0  0  0  0  0  0  0
   39.1580   24.0730   31.5990 H   0  0  0  0  0  0  0  0  0  0  0  0
   38.6180   24.2530   36.0670 C   0  0  0  0  0  0  0  0  0  0  0  0
   37.8340   24.6850   37.1320 C   0  0  0  0  0  0  0  0  0  0  0  0
   37.0560   25.4110   36.9510 H   0  0  0  0  0  0  0  0  0  0  0  0
   37.9890   24.2370   38.4260 C   0  0  0  0  0  3  0  0  0  0  0  0
   38.9710   23.3090   38.6970 C   0  0  0  0  0  0  0  0  0  0  0  0
   39.2050   22.8740   39.6550 H   0  0  0  0  0  0  0  0  0  0  0  0
   39.7640   22.8620   37.6600 C   0  0  0  0  0  0  0  0  0  0  0  0
   40.5700   22.1390   37.7230 H   0  0  0  0  0  0  0  0  0  0  0  0
   39.6100   23.3110   36.3580 C   0  0  0  0  0  3  0  0  0  0  0  0
   35.2420   29.6380   32.4520 C   0  0  0  0  0  0  0  0  0  0  0  0
   35.5070   29.4990   33.7490 C   0  0  0  0  0  0  0  0  0  0  0  0
   36.2570   28.4230   34.1720 C   0  0  0  0  0  0  0  0  0  0  0  0
   36.6800   27.5620   33.2060 C   0  0  0  0  0  0  0  0  0  0  0  0
   35.9980   28.3020   31.6820 S   0  0  0  0  0  0  0  0  0  0  0  0
   35.1250   30.2430   34.4720 H   0  0  0  0  0  0  0  0  0  0  0  0
   36.5290   28.2180   35.2060 H   0  0  0  0  0  0  0  0  0  0  0  0
   34.4700   32.6410   30.5300 C   0  0  0  0  0  0  0  0  0  0  0  0
   33.0760   32.6660   30.5020 C   0  0  0  0  0  0  0  0  0  0  0  0
   32.3940   31.6340   31.1540 C   0  0  0  0  0  0  0  0  0  0  0  0
   33.1210   30.6590   31.7840 N   0  0  0  0  0  0  0  0  0  0  0  0
   34.4730   30.6950   31.7730 C   0  0  0  0  0  0  0  0  0  0  0  0
   35.1550   31.6540   31.1670 N   0  0  0  0  0  0  0  0  0  0  0  0
   35.1030   33.3910   30.0570 H   0  0  0  0  0  0  0  0  0  0  0  0
   32.5860   33.4770   29.9800 H   0  0  0  0  0  0  0  0  0  0  0  0
   31.3310   31.6380   31.1420 H   0  0  0  0  0  0  0  0  0  0  0  0
  1  6  1  0  0  0  0
  2  3  1  0  0  0  0
  2  1  2  0  0  0  0
  3  4  2  0  0  0  0
  4  5  1  0  0  0  0
  5  9  1  0  0  0  0
  6  5  2  0  0  0  0
  7  2  1  0  0  0  0
  8  3  1  0  0  0  0
  9 17  2  0  0  0  0
  9 10  1  0  0  0  0
 10 12  2  0  0  0  0
 11 10  1  0  0  0  0
 12 13  1  0  0  0  0
 13 14  1  0  0  0  0
 15 16  1  0  0  0  0
 15 13  2  0  0  0  0
 17 15  1  0  0  0  0
 18 19  2  0  0  0  0
 19 20  1  0  0  0  0
 19 23  1  0  0  0  0
 20 24  1  0  0  0  0
 21  1  1  0  0  0  0
 21 20  2  0  0  0  0
 22 18  1  0  0  0  0
 22 21  1  0  0  0  0
 25 30  1  0  0  0  0
 26 25  2  0  0  0  0
 26 27  1  0  0  0  0
 27 28  2  0  0  0  0
 29 28  1  0  0  0  0
 29 18  1  0  0  0  0
 30 29  2  0  0  0  0
 31 25  1  0  0  0  0
 32 26  1  0  0  0  0
 33 27  1  0  0  0  0
M  END
>  <minimizedAffinity>
-5.63179779

$$$$

 OpenBabel03262522533D

 33 36  0  0  0  0  0  0  0  0999 V2000
   37.4680   25.4640   31.9140 C   0  0  0  0  0  0  0  0  0  0  0  0
   38.3920   25.6890   30.9650 C   0  0  0  0  0  0  0  0  0  0  0  0
   38.6840   24.6270   30.1340 C   0  0  0  0  0  0  0  0  0  0  0  0
   38.0950   23.4210   30.2370 N   0  0  0  0  0  0  0  0  0  0  0  0
   37.1700   23.2940   31.2320 C   0  0  0  0  0  0  0  0  0  0  0  0
   36.8240   24.2800   32.0910 N   0  0  0  0  0  0  0  0  0  0  0  0
   38.9040   26.6320   30.8270 H   0  0  0  0  0  0  0  0  0  0  0  0
   39.4280   24.7470   29.3410 H   0  0  0  0  0  0  0  0  0  0  0  0
   36.4990   22.0100   31.3930 C   0  0  0  0  0  0  0  0  0  0  0  0
   36.9930   20.8630   30.7810 C   0  0  0  0  0  0  0  0  0  0  0  0
   37.8880   20.9300   30.1810 H   0  0  0  0  0  0  0  0  0  0  0  0
   36.4040   19.6210   30.8960 C   0  0  0  0  0  3  0  0  0  0  0  0
   35.2610   19.4940   31.6550 C   0  0  0  0  0  0  0  0  0  0  0  0
   34.6970   18.5920   31.8300 H   0  0  0  0  0  0  0  0  0  0  0  0
   34.7480   20.6150   32.2730 C   0  0  0  0  0  0  0  0  0  0  0  0
   33.8620   20.6660   32.8960 H   0  0  0  0  0  0  0  0  0  0  0  0
   35.3380   21.8640   32.1590 C   0  0  0  0  0  3  0  0  0  0  0  0
   36.1670   28.6600   34.0890 C   0  0  0  0  0  0  0  0  0  0  0  0
   36.8930   27.7920   34.7910 C   0  0  0  0  0  0  0  0  0  0  0  0
   37.3910   26.6690   34.1650 C   0  0  0  0  0  0  0  0  0  0  0  0
   37.0930   26.5300   32.8440 C   0  0  0  0  0  0  0  0  0  0  0  0
   36.0950   28.0200   32.4980 S   0  0  0  0  0  0  0  0  0  0  0  0
   37.0890   27.9770   35.8620 H   0  0  0  0  0  0  0  0  0  0  0  0
   37.9920   25.9000   34.6450 H   0  0  0  0  0  0  0  0  0  0  0  0
   33.8210   31.4430   34.3350 C   0  0  0  0  0  0  0  0  0  0  0  0
   34.3560   32.2370   35.3490 C   0  0  0  0  0  0  0  0  0  0  0  0
   35.5410   31.8070   35.9550 C   0  0  0  0  0  0  0  0  0  0  0  0
   36.1140   30.6390   35.5280 N   0  0  0  0  0  0  0  0  0  0  0  0
   35.5420   29.9170   34.5370 C   0  0  0  0  0  0  0  0  0  0  0  0
   34.4210   30.2890   33.9400 N   0  0  0  0  0  0  0  0  0  0  0  0
   32.9060   31.6780   33.7950 H   0  0  0  0  0  0  0  0  0  0  0  0
   33.8350   33.1450   35.6210 H   0  0  0  0  0  0  0  0  0  0  0  0
   35.9620   32.4020   36.7300 H   0  0  0  0  0  0  0  0  0  0  0  0
  1  6  1  0  0  0  0
  1 21  1  0  0  0  0
  2  1  2  0  0  0  0
  3  4  2  0  0  0  0
  3  2  1  0  0  0  0
  4  5  1  0  0  0  0
  5  9  1  0  0  0  0
  5  6  2  0  0  0  0
  7  2  1  0  0  0  0
  8  3  1  0  0  0  0
  9 17  1  0  0  0  0
 10 12  1  0  0  0  0
 10  9  2  0  0  0  0
 11 10  1  0  0  0  0
 12 13  2  0  0  0  0
 13 14  1  0  0  0  0
 13 15  1  0  0  0  0
 15 16  1  0  0  0  0
 17 15  2  0  0  0  0
 18 29  1  0  0  0  0
 18 19  2  0  0  0  0
 19 23  1  0  0  0  0
 20 24  1  0  0  0  0
 20 19  1  0  0  0  0
 21 20  2  0  0  0  0
 22 21  1  0  0  0  0
 22 18  1  0  0  0  0
 25 26  1  0  0  0  0
 26 32  1  0  0  0  0
 26 27  2  0  0  0  0
 27 33  1  0  0  0  0
 28 27  1  0  0  0  0
 29 28  2  0  0  0  0
 30 25  2  0  0  0  0
 30 29  1  0  0  0  0
 31 25  1  0  0  0  0
M  END
>  <minimizedAffinity>
-5.62619734

$$$$

 OpenBabel03262522533D

 33 36  0  0  0  0  0  0  0  0999 V2000
   37.4810   23.9540   32.6520 C   0  0  0  0  0  0  0  0  0  0  0  0
   37.5510   22.7740   32.0140 C   0  0  0  0  0  0  0  0  0  0  0  0
   37.9470   21.6930   32.7750 C   0  0  0  0  0  0  0  0  0  0  0  0
   38.2500   21.7780   34.0830 N   0  0  0  0  0  0  0  0  0  0  0  0
   38.1470   23.0200   34.6370 C   0  0  0  0  0  0  0  0  0  0  0  0
   37.7700   24.1330   33.9680 N   0  0  0  0  0  0  0  0  0  0  0  0
   37.3220   22.6350   30.9650 H   0  0  0  0  0  0  0  0  0  0  0  0
   38.0230   20.7030   32.3130 H   0  0  0  0  0  0  0  0  0  0  0  0
   38.4640   23.1740   36.0530 C   0  0  0  0  0  0  0  0  0  0  0  0
   39.6180   22.6170   36.5930 C   0  0  0  0  0  0  0  0  0  0  0  0
   40.2870   22.0640   35.9490 H   0  0  0  0  0  0  0  0  0  0  0  0
   39.9720   22.7280   37.9200 C   0  0  0  0  0  3  0  0  0  0  0  0
   39.1460   23.4280   38.7730 C   0  0  0  0  0  0  0  0  0  0  0  0
   39.2950   23.5940   39.8280 H   0  0  0  0  0  0  0  0  0  0  0  0
   37.9940   23.9920   38.2650 C   0  0  0  0  0  0  0  0  0  0  0  0
   37.2550   24.5650   38.8140 H   0  0  0  0  0  0  0  0  0  0  0  0
   37.6360   23.8810   36.9320 C   0  0  0  0  0  3  0  0  0  0  0  0
   36.8630   27.4450   30.6330 C   0  0  0  0  0  0  0  0  0  0  0  0
   35.7510   26.7460   30.8510 C   0  0  0  0  0  0  0  0  0  0  0  0
   35.8310   25.5460   31.5260 C   0  0  0  0  0  0  0  0  0  0  0  0
   37.0730   25.1580   31.9270 C   0  0  0  0  0  0  0  0  0  0  0  0
   38.1320   26.5240   31.3330 S   0  0  0  0  0  0  0  0  0  0  0  0
   34.7790   27.1300   30.4920 H   0  0  0  0  0  0  0  0  0  0  0  0
   34.9860   24.9000   31.7540 H   0  0  0  0  0  0  0  0  0  0  0  0
   36.6470   31.0160   29.9230 C   0  0  0  0  0  0  0  0  0  0  0  0
   37.3040   31.1510   28.7020 C   0  0  0  0  0  0  0  0  0  0  0  0
   37.8290   29.9940   28.1150 C   0  0  0  0  0  0  0  0  0  0  0  0
   37.6720   28.7980   28.7620 N   0  0  0  0  0  0  0  0  0  0  0  0
   37.0220   28.7380   29.9460 C   0  0  0  0  0  0  0  0  0  0  0  0
   36.5120   29.8090   30.5340 N   0  0  0  0  0  0  0  0  0  0  0  0
   36.2010   31.8460   30.4700 H   0  0  0  0  0  0  0  0  0  0  0  0
   37.3800   32.1370   28.2620 H   0  0  0  0  0  0  0  0  0  0  0  0
   38.3330   30.0800   27.1820 H   0  0  0  0  0  0  0  0  0  0  0  0
  1  6  1  0  0  0  0
  2  1  2  0  0  0  0
  2  3  1  0  0  0  0
  3  4  2  0  0  0  0
  4  5  1  0  0  0  0
  5  9  1  0  0  0  0
  6  5  2  0  0  0  0
  7  2  1  0  0  0  0
  8  3  1  0  0  0  0
  9 10  2  0  0  0  0
  9 17  1  0  0  0  0
 10 12  1  0  0  0  0
 11 10  1  0  0  0  0
 12 13  2  0  0  0  0
 13 14  1  0  0  0  0
 15 13  1  0  0  0  0
 15 16  1  0  0  0  0
 17 15  2  0  0  0  0
 18 19  2  0  0  0  0
 18 22  1  0  0  0  0
 19 20  1  0  0  0  0
 20 24  1  0  0  0  0
 20 21  2  0  0  0  0
 21  1  1  0  0  0  0
 22 21  1  0  0  0  0
 23 19  1  0  0  0  0
 25 31  1  0  0  0  0
 25 30  1  0  0  0  0
 26 25  2  0  0  0  0
 27 26  1  0  0  0  0
 27 28  2  0  0  0  0
 28 29  1  0  0  0  0
 29 30  2  0  0  0  0
 29 18  1  0  0  0  0
 32 26  1  0  0  0  0
 33 27  1  0  0  0  0
M  END
>  <minimizedAffinity>
-5.61207867

$$$$

 OpenBabel03262522533D

 33 36  0  0  0  0  0  0  0  0999 V2000
   37.4760   25.1900   32.8440 C   0  0  0  0  0  0  0  0  0  0  0  0
   37.3490   24.1460   32.0070 C   0  0  0  0  0  0  0  0  0  0  0  0
   37.5870   22.9000   32.5480 C   0  0  0  0  0  0  0  0  0  0  0  0
   37.9270   22.7020   33.8360 N   0  0  0  0  0  0  0  0  0  0  0  0
   38.0290   23.8260   34.6020 C   0  0  0  0  0  0  0  0  0  0  0  0
   37.8150   25.0840   34.1560 N   0  0  0  0  0  0  0  0  0  0  0  0
   37.0810   24.2330   30.9630 H   0  0  0  0  0  0  0  0  0  0  0  0
   37.5000   22.0090   31.9180 H   0  0  0  0  0  0  0  0  0  0  0  0
   38.3940   23.6750   36.0060 C   0  0  0  0  0  0  0  0  0  0  0  0
   37.6640   24.3050   37.0080 C   0  0  0  0  0  0  0  0  0  0  0  0
   36.8140   24.9130   36.7360 H   0  0  0  0  0  0  0  0  0  0  0  0
   37.9590   24.2000   38.3500 C   0  0  0  0  0  3  0  0  0  0  0  0
   39.0360   23.4310   38.7370 C   0  0  0  0  0  0  0  0  0  0  0  0
   39.3820   23.2610   39.7440 H   0  0  0  0  0  0  0  0  0  0  0  0
   39.7790   22.7950   37.7650 C   0  0  0  0  0  0  0  0  0  0  0  0
   40.6460   22.1630   37.9200 H   0  0  0  0  0  0  0  0  0  0  0  0
   39.4840   22.8990   36.4160 C   0  0  0  0  0  3  0  0  0  0  0  0
   37.1030   28.8380   31.0560 C   0  0  0  0  0  0  0  0  0  0  0  0
   36.5230   28.7640   32.2520 C   0  0  0  0  0  0  0  0  0  0  0  0
   36.5820   27.5800   32.9570 C   0  0  0  0  0  0  0  0  0  0  0  0
   37.2450   26.5520   32.3600 C   0  0  0  0  0  0  0  0  0  0  0  0
   37.7880   27.2880   30.7790 S   0  0  0  0  0  0  0  0  0  0  0  0
   36.0030   29.6450   32.6680 H   0  0  0  0  0  0  0  0  0  0  0  0
   36.1420   27.4150   33.9390 H   0  0  0  0  0  0  0  0  0  0  0  0
   37.0070   32.2620   29.8030 C   0  0  0  0  0  0  0  0  0  0  0  0
   37.3000   32.1260   28.4470 C   0  0  0  0  0  0  0  0  0  0  0  0
   37.5330   30.8360   27.9580 C   0  0  0  0  0  0  0  0  0  0  0  0
   37.4630   29.7800   28.8270 N   0  0  0  0  0  0  0  0  0  0  0  0
   37.1730   29.9830   30.1320 C   0  0  0  0  0  0  0  0  0  0  0  0
   36.9470   31.1870   30.6330 N   0  0  0  0  0  0  0  0  0  0  0  0
   36.8100   33.2150   30.2910 H   0  0  0  0  0  0  0  0  0  0  0  0
   37.3340   33.0180   27.8350 H   0  0  0  0  0  0  0  0  0  0  0  0
   37.7580   30.7150   26.9260 H   0  0  0  0  0  0  0  0  0  0  0  0
  1  6  1  0  0  0  0
  2  3  1  0  0  0  0
  2  1  2  0  0  0  0
  3  4  2  0  0  0  0
  4  5  1  0  0  0  0
  5  9  1  0  0  0  0
  6  5  2  0  0  0  0
  7  2  1  0  0  0  0
  8  3  1  0  0  0  0
  9 17  2  0  0  0  0
  9 10  1  0  0  0  0
 10 12  2  0  0  0  0
 11 10  1  0  0  0  0
 12 13  1  0  0  0  0
 13 14  1  0  0  0  0
 15 16  1  0  0  0  0
 15 13  2  0  0  0  0
 17 15  1  0  0  0  0
 18 19  2  0  0  0  0
 19 23  1  0  0  0  0
 19 20  1  0  0  0  0
 20 24  1  0  0  0  0
 21  1  1  0  0  0  0
 21 20  2  0  0  0  0
 22 18  1  0  0  0  0
 22 21  1  0  0  0  0
 25 31  1  0  0  0  0
 25 30  1  0  0  0  0
 26 25  2  0  0  0  0
 27 26  1  0  0  0  0
 27 28  2  0  0  0  0
 28 29  1  0  0  0  0
 29 30  2  0  0  0  0
 29 18  1  0  0  0  0
 32 26  1  0  0  0  0
 33 27  1  0  0  0  0
M  END
>  <minimizedAffinity>
-5.51507568

$$$$
