
 OpenBabel03262523453D

 28 30  0  0  0  0  0  0  0  0999 V2000
   37.1750   28.5260   29.7100 Cl  0  0  0  0  0  0  0  0  0  0  0  0
   36.5110   29.2260   31.1650 C   0  0  0  0  0  0  0  0  0  0  0  0
   36.0800   28.4160   32.1970 C   0  0  0  0  0  0  0  0  0  0  0  0
   35.5640   29.0360   33.3230 C   0  0  0  0  0  0  0  0  0  0  0  0
   35.4790   30.4140   33.4180 C   0  0  0  0  0  0  0  0  0  0  0  0
   35.9260   31.1860   32.3520 C   0  0  0  0  0  0  0  0  0  0  0  0
   35.7910   32.9190   32.5370 Cl  0  0  0  0  0  0  0  0  0  0  0  0
   36.4430   30.6100   31.2220 C   0  0  0  0  0  0  0  0  0  0  0  0
   35.2420   28.3660   34.0990 H   0  0  0  0  0  0  0  0  0  0  0  0
   36.7780   31.2590   30.4170 H   0  0  0  0  0  0  0  0  0  0  0  0
   37.3450   24.8620   32.4690 C   0  0  0  0  0  0  0  0  0  0  0  0
   37.2180   26.2470   32.6300 C   0  0  0  0  0  0  0  0  0  0  0  0
   36.2010   26.9820   32.0240 C   0  0  0  0  0  0  0  0  0  0  0  0
   35.3390   26.2620   31.2660 N   0  0  0  0  0  0  0  0  0  0  0  0
   35.4600   24.9320   31.1120 C   0  0  0  0  0  0  0  0  0  0  0  0
   36.4390   24.2440   31.6980 N   0  0  0  0  0  0  0  0  0  0  0  0
   38.1990   24.4440   33.0150 H   0  0  0  0  0  0  0  0  0  0  0  0
   37.9050   26.8250   33.2340 H   0  0  0  0  0  0  0  0  0  0  0  0
   34.7960   24.3260   30.5180 H   0  0  0  0  0  0  0  0  0  0  0  0
   34.9120   30.9160   34.6670 C   0  0  0  0  0  0  0  0  0  0  0  0
   33.5580   30.8170   34.9110 C   0  0  0  0  0  0  0  0  0  0  0  0
   32.8680   30.3770   34.2080 H   0  0  0  0  0  0  0  0  0  0  0  0
   32.9840   31.2820   36.0840 C   0  0  0  0  0  3  0  0  0  0  0  0
   33.7720   31.8660   37.0560 C   0  0  0  0  0  0  0  0  0  0  0  0
   33.3300   32.2270   37.9650 H   0  0  0  0  0  0  0  0  0  0  0  0
   35.1450   31.9680   36.8130 C   0  0  0  0  0  0  0  0  0  0  0  0
   35.7320   32.4350   37.6040 H   0  0  0  0  0  0  0  0  0  0  0  0
   35.7300   31.5010   35.6320 C   0  0  0  0  0  3  0  0  0  0  0  0
  1  2  1  0  0  0  0
  2  8  2  0  0  0  0
  2  3  1  0  0  0  0
  3  4  2  0  0  0  0
  4  5  1  0  0  0  0
  4  9  1  0  0  0  0
  5 20  1  0  0  0  0
  6  7  1  0  0  0  0
  6  5  2  0  0  0  0
  8  6  1  0  0  0  0
 10  8  1  0  0  0  0
 11 12  1  0  0  0  0
 11 17  1  0  0  0  0
 12 18  1  0  0  0  0
 13  3  1  0  0  0  0
 13 12  2  0  0  0  0
 14 13  1  0  0  0  0
 15 14  2  0  0  0  0
 15 16  1  0  0  0  0
 16 11  2  0  0  0  0
 19 15  1  0  0  0  0
 20 21  2  0  0  0  0
 20 28  1  0  0  0  0
 21 23  1  0  0  0  0
 22 21  1  0  0  0  0
 23 24  2  0  0  0  0
 24 25  1  0  0  0  0
 26 24  1  0  0  0  0
 26 27  1  0  0  0  0
 28 26  2  0  0  0  0
M  END
>  <minimizedAffinity>
-5.54726839

$$$$

 OpenBabel03262523453D

 28 30  0  0  0  0  0  0  0  0999 V2000
   37.9020   27.2760   31.1020 Cl  0  0  0  0  0  0  0  0  0  0  0  0
   37.0130   28.2160   32.2750 C   0  0  0  0  0  0  0  0  0  0  0  0
   37.0600   27.8870   33.6150 C   0  0  0  0  0  0  0  0  0  0  0  0
   36.3310   28.6740   34.4920 C   0  0  0  0  0  0  0  0  0  0  0  0
   35.5810   29.7500   34.0500 C   0  0  0  0  0  0  0  0  0  0  0  0
   35.5660   30.0390   32.6910 C   0  0  0  0  0  0  0  0  0  0  0  0
   34.5990   31.4110   32.2000 Cl  0  0  0  0  0  0  0  0  0  0  0  0
   36.2730   29.2850   31.7930 C   0  0  0  0  0  0  0  0  0  0  0  0
   36.3990   28.3800   35.5240 H   0  0  0  0  0  0  0  0  0  0  0  0
   36.2270   29.5540   30.7410 H   0  0  0  0  0  0  0  0  0  0  0  0
   39.9430   25.7980   34.8890 C   0  0  0  0  0  0  0  0  0  0  0  0
   39.1550   26.8920   34.5130 C   0  0  0  0  0  0  0  0  0  0  0  0
   37.8670   26.7470   34.0010 C   0  0  0  0  0  0  0  0  0  0  0  0
   37.4280   25.4700   33.8910 N   0  0  0  0  0  0  0  0  0  0  0  0
   38.1850   24.4190   34.2530 C   0  0  0  0  0  0  0  0  0  0  0  0
   39.4150   24.5750   34.7400 N   0  0  0  0  0  0  0  0  0  0  0  0
   40.9280   26.0920   35.2720 H   0  0  0  0  0  0  0  0  0  0  0  0
   39.5030   27.9130   34.5990 H   0  0  0  0  0  0  0  0  0  0  0  0
   37.8720   23.3910   34.1810 H   0  0  0  0  0  0  0  0  0  0  0  0
   34.8690   30.4800   35.0950 C   0  0  0  0  0  0  0  0  0  0  0  0
   35.5180   31.4380   35.8470 C   0  0  0  0  0  0  0  0  0  0  0  0
   36.5580   31.6870   35.7040 H   0  0  0  0  0  0  0  0  0  0  0  0
   34.8750   32.1510   36.8470 C   0  0  0  0  0  3  0  0  0  0  0  0
   33.5430   31.9130   37.1200 C   0  0  0  0  0  0  0  0  0  0  0  0
   33.0440   32.4640   37.8930 H   0  0  0  0  0  0  0  0  0  0  0  0
   32.8810   30.9440   36.3600 C   0  0  0  0  0  0  0  0  0  0  0  0
   31.8310   30.7870   36.6050 H   0  0  0  0  0  0  0  0  0  0  0  0
   33.5240   30.2210   35.3500 C   0  0  0  0  0  3  0  0  0  0  0  0
  1  2  1  0  0  0  0
  2  3  1  0  0  0  0
  3 13  1  0  0  0  0
  3  4  2  0  0  0  0
  4  9  1  0  0  0  0
  5  4  1  0  0  0  0
  5 20  1  0  0  0  0
  6  5  2  0  0  0  0
  7  6  1  0  0  0  0
  8  2  2  0  0  0  0
  8  6  1  0  0  0  0
 10  8  1  0  0  0  0
 11 17  1  0  0  0  0
 12 18  1  0  0  0  0
 12 11  2  0  0  0  0
 13 12  1  0  0  0  0
 14 13  2  0  0  0  0
 14 15  1  0  0  0  0
 15 16  2  0  0  0  0
 16 11  1  0  0  0  0
 19 15  1  0  0  0  0
 20 28  2  0  0  0  0
 20 21  1  0  0  0  0
 21 23  2  0  0  0  0
 22 21  1  0  0  0  0
 23 24  1  0  0  0  0
 24 25  1  0  0  0  0
 26 27  1  0  0  0  0
 26 24  2  0  0  0  0
 28 26  1  0  0  0  0
M  END
>  <minimizedAffinity>
-5.52187872

$$$$

 OpenBabel03262523453D

 28 30  0  0  0  0  0  0  0  0999 V2000
   34.3470   31.2750   32.3980 Cl  0  0  0  0  0  0  0  0  0  0  0  0
   35.4130   29.9710   32.8610 C   0  0  0  0  0  0  0  0  0  0  0  0
   35.6090   29.6690   34.1940 C   0  0  0  0  0  0  0  0  0  0  0  0
   36.4680   28.6230   34.4930 C   0  0  0  0  0  0  0  0  0  0  0  0
   37.1080   27.9040   33.4990 C   0  0  0  0  0  0  0  0  0  0  0  0
   36.8770   28.2470   32.1720 C   0  0  0  0  0  0  0  0  0  0  0  0
   37.7170   27.2980   30.9670 Cl  0  0  0  0  0  0  0  0  0  0  0  0
   36.0360   29.2750   31.8370 C   0  0  0  0  0  0  0  0  0  0  0  0
   36.5890   28.4250   35.5420 H   0  0  0  0  0  0  0  0  0  0  0  0
   35.8900   29.5020   30.7840 H   0  0  0  0  0  0  0  0  0  0  0  0
   34.8710   32.2310   36.8760 C   0  0  0  0  0  0  0  0  0  0  0  0
   35.5420   31.4550   35.9240 C   0  0  0  0  0  0  0  0  0  0  0  0
   34.9040   30.4670   35.1770 C   0  0  0  0  0  0  0  0  0  0  0  0
   33.5840   30.3070   35.4370 N   0  0  0  0  0  0  0  0  0  0  0  0
   32.9380   31.0530   36.3510 C   0  0  0  0  0  0  0  0  0  0  0  0
   33.5640   31.9940   37.0570 N   0  0  0  0  0  0  0  0  0  0  0  0
   35.5230   32.9610   37.3700 H   0  0  0  0  0  0  0  0  0  0  0  0
   36.5960   31.5790   35.7150 H   0  0  0  0  0  0  0  0  0  0  0  0
   31.8920   30.9560   36.5850 H   0  0  0  0  0  0  0  0  0  0  0  0
   37.9800   26.8330   33.9730 C   0  0  0  0  0  0  0  0  0  0  0  0
   39.2600   27.1110   34.4050 C   0  0  0  0  0  0  0  0  0  0  0  0
   39.6700   28.1090   34.4120 H   0  0  0  0  0  0  0  0  0  0  0  0
   40.1160   26.1210   34.8620 C   0  0  0  0  0  3  0  0  0  0  0  0
   39.6980   24.8060   34.8950 C   0  0  0  0  0  0  0  0  0  0  0  0
   40.3590   24.0380   35.2480 H   0  0  0  0  0  0  0  0  0  0  0  0
   38.4010   24.5190   34.4580 C   0  0  0  0  0  0  0  0  0  0  0  0
   38.1080   23.4690   34.5000 H   0  0  0  0  0  0  0  0  0  0  0  0
   37.5320   25.5130   33.9960 C   0  0  0  0  0  3  0  0  0  0  0  0
  1  2  1  0  0  0  0
  2  3  1  0  0  0  0
  3  4  2  0  0  0  0
  3 13  1  0  0  0  0
  4  9  1  0  0  0  0
  5 20  1  0  0  0  0
  5  4  1  0  0  0  0
  6  5  2  0  0  0  0
  7  6  1  0  0  0  0
  8  6  1  0  0  0  0
  8  2  2  0  0  0  0
 10  8  1  0  0  0  0
 11 16  1  0  0  0  0
 11 17  1  0  0  0  0
 12 11  2  0  0  0  0
 13 14  2  0  0  0  0
 13 12  1  0  0  0  0
 14 15  1  0  0  0  0
 15 19  1  0  0  0  0
 15 16  2  0  0  0  0
 18 12  1  0  0  0  0
 20 28  2  0  0  0  0
 20 21  1  0  0  0  0
 21 22  1  0  0  0  0
 21 23  2  0  0  0  0
 23 24  1  0  0  0  0
 24 25  1  0  0  0  0
 26 27  1  0  0  0  0
 26 24  2  0  0  0  0
 28 26  1  0  0  0  0
M  END
>  <minimizedAffinity>
-5.18667889

$$$$

 OpenBabel03262523453D

 28 30  0  0  0  0  0  0  0  0999 V2000
   38.3880   24.2740   30.1560 Cl  0  0  0  0  0  0  0  0  0  0  0  0
   38.5150   24.1480   31.8930 C   0  0  0  0  0  0  0  0  0  0  0  0
   38.0790   23.0110   32.5440 C   0  0  0  0  0  0  0  0  0  0  0  0
   38.2090   22.9760   33.9240 C   0  0  0  0  0  0  0  0  0  0  0  0
   38.7530   24.0360   34.6280 C   0  0  0  0  0  0  0  0  0  0  0  0
   39.1760   25.1580   33.9260 C   0  0  0  0  0  0  0  0  0  0  0  0
   39.8540   26.4590   34.8770 Cl  0  0  0  0  0  0  0  0  0  0  0  0
   39.0650   25.2300   32.5630 C   0  0  0  0  0  0  0  0  0  0  0  0
   37.8560   22.0720   34.3870 H   0  0  0  0  0  0  0  0  0  0  0  0
   39.4110   26.1300   32.0620 H   0  0  0  0  0  0  0  0  0  0  0  0
   35.5980   20.7380   30.8190 C   0  0  0  0  0  0  0  0  0  0  0  0
   36.1470   21.7660   31.5940 C   0  0  0  0  0  0  0  0  0  0  0  0
   37.5220   21.9430   31.7390 C   0  0  0  0  0  0  0  0  0  0  0  0
   38.2940   21.0490   31.0740 N   0  0  0  0  0  0  0  0  0  0  0  0
   37.7660   20.0620   30.3290 C   0  0  0  0  0  0  0  0  0  0  0  0
   36.4500   19.9070   30.2020 N   0  0  0  0  0  0  0  0  0  0  0  0
   34.5020   20.7450   30.8140 H   0  0  0  0  0  0  0  0  0  0  0  0
   35.5340   22.4810   32.1260 H   0  0  0  0  0  0  0  0  0  0  0  0
   38.3460   19.3340   29.7870 H   0  0  0  0  0  0  0  0  0  0  0  0
   38.8210   23.8470   36.0750 C   0  0  0  0  0  0  0  0  0  0  0  0
   37.8710   24.4130   36.9010 C   0  0  0  0  0  0  0  0  0  0  0  0
   37.0530   25.0080   36.5280 H   0  0  0  0  0  0  0  0  0  0  0  0
   37.9040   24.2560   38.2780 C   0  0  0  0  0  3  0  0  0  0  0  0
   38.9090   23.5150   38.8660 C   0  0  0  0  0  0  0  0  0  0  0  0
   38.9360   23.3920   39.9320 H   0  0  0  0  0  0  0  0  0  0  0  0
   39.8740   22.9400   38.0330 C   0  0  0  0  0  0  0  0  0  0  0  0
   40.6500   22.3620   38.5360 H   0  0  0  0  0  0  0  0  0  0  0  0
   39.8470   23.0940   36.6430 C   0  0  0  0  0  3  0  0  0  0  0  0
  1  2  1  0  0  0  0
  2  3  2  0  0  0  0
  2  8  1  0  0  0  0
  3  4  1  0  0  0  0
  4  9  1  0  0  0  0
  4  5  2  0  0  0  0
  5 20  1  0  0  0  0
  6  5  1  0  0  0  0
  6  7  1  0  0  0  0
  8  6  2  0  0  0  0
 10  8  1  0  0  0  0
 11 12  1  0  0  0  0
 12 13  2  0  0  0  0
 12 18  1  0  0  0  0
 13  3  1  0  0  0  0
 14 13  1  0  0  0  0
 15 14  2  0  0  0  0
 16 15  1  0  0  0  0
 16 11  2  0  0  0  0
 17 11  1  0  0  0  0
 19 15  1  0  0  0  0
 20 28  2  0  0  0  0
 20 21  1  0  0  0  0
 21 23  2  0  0  0  0
 22 21  1  0  0  0  0
 23 24  1  0  0  0  0
 24 25  1  0  0  0  0
 26 27  1  0  0  0  0
 26 24  2  0  0  0  0
 28 26  1  0  0  0  0
M  END
>  <minimizedAffinity>
-5.17120457

$$$$

 OpenBabel03262523453D

 28 30  0  0  0  0  0  0  0  0999 V2000
   35.8100   32.6670   32.4930 Cl  0  0  0  0  0  0  0  0  0  0  0  0
   35.9390   30.9380   32.2880 C   0  0  0  0  0  0  0  0  0  0  0  0
   35.5330   30.0820   33.2930 C   0  0  0  0  0  0  0  0  0  0  0  0
   35.6640   28.7210   33.0650 C   0  0  0  0  0  0  0  0  0  0  0  0
   36.1800   28.2310   31.8780 C   0  0  0  0  0  0  0  0  0  0  0  0
   36.5750   29.1330   30.8980 C   0  0  0  0  0  0  0  0  0  0  0  0
   37.2180   28.4470   29.4240 Cl  0  0  0  0  0  0  0  0  0  0  0  0
   36.4620   30.4850   31.0860 C   0  0  0  0  0  0  0  0  0  0  0  0
   35.3350   28.0950   33.8740 H   0  0  0  0  0  0  0  0  0  0  0  0
   36.7850   31.1470   30.2870 H   0  0  0  0  0  0  0  0  0  0  0  0
   33.1160   31.2400   35.9600 C   0  0  0  0  0  0  0  0  0  0  0  0
   33.6380   30.6750   34.7920 C   0  0  0  0  0  0  0  0  0  0  0  0
   35.0020   30.6700   34.5060 C   0  0  0  0  0  0  0  0  0  0  0  0
   35.7910   31.2550   35.4400 N   0  0  0  0  0  0  0  0  0  0  0  0
   35.2890   31.7980   36.5630 C   0  0  0  0  0  0  0  0  0  0  0  0
   33.9820   31.7930   36.8200 N   0  0  0  0  0  0  0  0  0  0  0  0
   32.0240   31.1560   36.0250 H   0  0  0  0  0  0  0  0  0  0  0  0
   33.0120   30.2080   34.0430 H   0  0  0  0  0  0  0  0  0  0  0  0
   35.8820   32.2700   37.3280 H   0  0  0  0  0  0  0  0  0  0  0  0
   36.2530   26.7750   31.7900 C   0  0  0  0  0  0  0  0  0  0  0  0
   35.2500   26.0590   31.1700 C   0  0  0  0  0  0  0  0  0  0  0  0
   34.3830   26.5280   30.7320 H   0  0  0  0  0  0  0  0  0  0  0  0
   35.2860   24.6770   31.0670 C   0  0  0  0  0  3  0  0  0  0  0  0
   36.3480   23.9710   31.5940 C   0  0  0  0  0  0  0  0  0  0  0  0
   36.3780   22.9010   31.5150 H   0  0  0  0  0  0  0  0  0  0  0  0
   37.3680   24.6920   32.2230 C   0  0  0  0  0  0  0  0  0  0  0  0
   38.1890   24.0980   32.6250 H   0  0  0  0  0  0  0  0  0  0  0  0
   37.3380   26.0860   32.3300 C   0  0  0  0  0  3  0  0  0  0  0  0
  2  1  1  0  0  0  0
  2  3  1  0  0  0  0
  3 13  1  0  0  0  0
  4  3  2  0  0  0  0
  4  9  1  0  0  0  0
  5  4  1  0  0  0  0
  6  8  1  0  0  0  0
  6  5  2  0  0  0  0
  7  6  1  0  0  0  0
  8  2  2  0  0  0  0
 10  8  1  0  0  0  0
 11 17  1  0  0  0  0
 11 16  1  0  0  0  0
 12 11  2  0  0  0  0
 13 12  1  0  0  0  0
 13 14  2  0  0  0  0
 14 15  1  0  0  0  0
 15 16  2  0  0  0  0
 15 19  1  0  0  0  0
 18 12  1  0  0  0  0
 20  5  1  0  0  0  0
 20 28  1  0  0  0  0
 21 20  2  0  0  0  0
 22 21  1  0  0  0  0
 23 21  1  0  0  0  0
 23 24  2  0  0  0  0
 24 26  1  0  0  0  0
 25 24  1  0  0  0  0
 26 28  2  0  0  0  0
 26 27  1  0  0  0  0
M  END
>  <minimizedAffinity>
-5.14166594

$$$$

 OpenBabel03262523453D

 28 30  0  0  0  0  0  0  0  0999 V2000
   35.7650   20.8830   36.1920 Cl  0  0  0  0  0  0  0  0  0  0  0  0
   36.5300   21.2940   34.6770 C   0  0  0  0  0  0  0  0  0  0  0  0
   37.6840   22.0520   34.6600 C   0  0  0  0  0  0  0  0  0  0  0  0
   38.2390   22.3420   33.4240 C   0  0  0  0  0  0  0  0  0  0  0  0
   37.6650   21.8940   32.2480 C   0  0  0  0  0  0  0  0  0  0  0  0
   36.5040   21.1340   32.3180 C   0  0  0  0  0  0  0  0  0  0  0  0
   35.8310   20.5990   30.7950 Cl  0  0  0  0  0  0  0  0  0  0  0  0
   35.9250   20.8260   33.5210 C   0  0  0  0  0  0  0  0  0  0  0  0
   39.1360   22.9340   33.4610 H   0  0  0  0  0  0  0  0  0  0  0  0
   35.0170   20.2290   33.5200 H   0  0  0  0  0  0  0  0  0  0  0  0
   40.0470   22.5600   37.5690 C   0  0  0  0  0  0  0  0  0  0  0  0
   39.5140   22.1480   36.3420 C   0  0  0  0  0  0  0  0  0  0  0  0
   38.2250   22.4850   35.9330 C   0  0  0  0  0  0  0  0  0  0  0  0
   37.5190   23.2420   36.8080 N   0  0  0  0  0  0  0  0  0  0  0  0
   38.0310   23.6390   37.9860 C   0  0  0  0  0  0  0  0  0  0  0  0
   39.2650   23.3070   38.3620 N   0  0  0  0  0  0  0  0  0  0  0  0
   41.0720   22.2070   37.7300 H   0  0  0  0  0  0  0  0  0  0  0  0
   40.0740   21.5430   35.6410 H   0  0  0  0  0  0  0  0  0  0  0  0
   37.5030   24.2400   38.7070 H   0  0  0  0  0  0  0  0  0  0  0  0
   38.3680   22.2820   31.0280 C   0  0  0  0  0  0  0  0  0  0  0  0
   38.2590   23.5660   30.5350 C   0  0  0  0  0  0  0  0  0  0  0  0
   37.6630   24.3270   31.0140 H   0  0  0  0  0  0  0  0  0  0  0  0
   38.9120   23.9710   29.3800 C   0  0  0  0  0  3  0  0  0  0  0  0
   39.7020   23.0790   28.6830 C   0  0  0  0  0  0  0  0  0  0  0  0
   40.2080   23.3900   27.7900 H   0  0  0  0  0  0  0  0  0  0  0  0
   39.8160   21.7770   29.1800 C   0  0  0  0  0  0  0  0  0  0  0  0
   40.4490   21.1040   28.6010 H   0  0  0  0  0  0  0  0  0  0  0  0
   39.1600   21.3620   30.3440 C   0  0  0  0  0  3  0  0  0  0  0  0
  2  1  1  0  0  0  0
  3  2  1  0  0  0  0
  3 13  1  0  0  0  0
  4  9  1  0  0  0  0
  4  3  2  0  0  0  0
  5  6  2  0  0  0  0
  5  4  1  0  0  0  0
  6  8  1  0  0  0  0
  7  6  1  0  0  0  0
  8  2  2  0  0  0  0
 10  8  1  0  0  0  0
 11 17  1  0  0  0  0
 11 16  1  0  0  0  0
 12 11  2  0  0  0  0
 13 12  1  0  0  0  0
 13 14  2  0  0  0  0
 14 15  1  0  0  0  0
 15 16  2  0  0  0  0
 15 19  1  0  0  0  0
 18 12  1  0  0  0  0
 20  5  1  0  0  0  0
 21 22  1  0  0  0  0
 21 20  1  0  0  0  0
 23 21  2  0  0  0  0
 24 26  2  0  0  0  0
 24 23  1  0  0  0  0
 25 24  1  0  0  0  0
 26 28  1  0  0  0  0
 27 26  1  0  0  0  0
 28 20  2  0  0  0  0
M  END
>  <minimizedAffinity>
-5.13401413

$$$$

 OpenBabel03262523453D

 28 30  0  0  0  0  0  0  0  0999 V2000
   38.7570   26.4260   35.2250 Cl  0  0  0  0  0  0  0  0  0  0  0  0
   38.3000   25.0770   34.2150 C   0  0  0  0  0  0  0  0  0  0  0  0
   38.1950   23.8080   34.7490 C   0  0  0  0  0  0  0  0  0  0  0  0
   37.8280   22.7820   33.8920 C   0  0  0  0  0  0  0  0  0  0  0  0
   37.5750   23.0130   32.5510 C   0  0  0  0  0  0  0  0  0  0  0  0
   37.6950   24.3080   32.0620 C   0  0  0  0  0  0  0  0  0  0  0  0
   37.3620   24.5300   30.3600 Cl  0  0  0  0  0  0  0  0  0  0  0  0
   38.0550   25.3480   32.8770 C   0  0  0  0  0  0  0  0  0  0  0  0
   37.7590   21.8130   34.3520 H   0  0  0  0  0  0  0  0  0  0  0  0
   38.1350   26.3420   32.4440 H   0  0  0  0  0  0  0  0  0  0  0  0
   39.9400   22.9100   37.9810 C   0  0  0  0  0  0  0  0  0  0  0  0
   39.6590   23.0720   36.6200 C   0  0  0  0  0  0  0  0  0  0  0  0
   38.4750   23.6450   36.1610 C   0  0  0  0  0  0  0  0  0  0  0  0
   37.6090   24.0370   37.1280 N   0  0  0  0  0  0  0  0  0  0  0  0
   37.8790   23.8820   38.4360 C   0  0  0  0  0  0  0  0  0  0  0  0
   39.0160   23.3310   38.8570 N   0  0  0  0  0  0  0  0  0  0  0  0
   40.9140   22.4420   38.1650 H   0  0  0  0  0  0  0  0  0  0  0  0
   40.3470   22.7600   35.8450 H   0  0  0  0  0  0  0  0  0  0  0  0
   37.2170   24.1800   39.2320 H   0  0  0  0  0  0  0  0  0  0  0  0
   37.2000   21.8310   31.7790 C   0  0  0  0  0  0  0  0  0  0  0  0
   38.1280   21.1870   30.9870 C   0  0  0  0  0  0  0  0  0  0  0  0
   39.1510   21.5180   30.9010 H   0  0  0  0  0  0  0  0  0  0  0  0
   37.8080   20.0640   30.2410 C   0  0  0  0  0  3  0  0  0  0  0  0
   36.5260   19.5530   30.2740 C   0  0  0  0  0  0  0  0  0  0  0  0
   36.2770   18.6830   29.6970 H   0  0  0  0  0  0  0  0  0  0  0  0
   35.5820   20.2020   31.0760 C   0  0  0  0  0  0  0  0  0  0  0  0
   34.5820   19.7670   31.0750 H   0  0  0  0  0  0  0  0  0  0  0  0
   35.8980   21.3360   31.8310 C   0  0  0  0  0  3  0  0  0  0  0  0
  2  3  1  0  0  0  0
  2  1  1  0  0  0  0
  3 13  1  0  0  0  0
  4  9  1  0  0  0  0
  4  3  2  0  0  0  0
  5  4  1  0  0  0  0
  6  5  2  0  0  0  0
  6  8  1  0  0  0  0
  7  6  1  0  0  0  0
  8  2  2  0  0  0  0
 10  8  1  0  0  0  0
 11 17  1  0  0  0  0
 11 16  1  0  0  0  0
 12 11  2  0  0  0  0
 13 12  1  0  0  0  0
 13 14  2  0  0  0  0
 14 15  1  0  0  0  0
 15 16  2  0  0  0  0
 15 19  1  0  0  0  0
 18 12  1  0  0  0  0
 20 28  1  0  0  0  0
 20  5  1  0  0  0  0
 21 20  2  0  0  0  0
 22 21  1  0  0  0  0
 23 24  2  0  0  0  0
 23 21  1  0  0  0  0
 24 26  1  0  0  0  0
 25 24  1  0  0  0  0
 26 28  2  0  0  0  0
 27 26  1  0  0  0  0
M  END
>  <minimizedAffinity>
-5.11768818

$$$$

 OpenBabel03262523453D

 28 30  0  0  0  0  0  0  0  0999 V2000
   38.8470   26.7640   31.2590 Cl  0  0  0  0  0  0  0  0  0  0  0  0
   37.7350   27.6880   32.2380 C   0  0  0  0  0  0  0  0  0  0  0  0
   37.6270   27.4430   33.5930 C   0  0  0  0  0  0  0  0  0  0  0  0
   36.7250   28.2120   34.3110 C   0  0  0  0  0  0  0  0  0  0  0  0
   35.9590   29.1900   33.7020 C   0  0  0  0  0  0  0  0  0  0  0  0
   36.1040   29.3980   32.3360 C   0  0  0  0  0  0  0  0  0  0  0  0
   35.1060   30.6480   31.6300 Cl  0  0  0  0  0  0  0  0  0  0  0  0
   36.9850   28.6580   31.5920 C   0  0  0  0  0  0  0  0  0  0  0  0
   36.6760   27.9850   35.3610 H   0  0  0  0  0  0  0  0  0  0  0  0
   37.0600   28.8610   30.5270 H   0  0  0  0  0  0  0  0  0  0  0  0
   38.7910   24.0960   34.9140 C   0  0  0  0  0  0  0  0  0  0  0  0
   37.9930   25.1080   34.3680 C   0  0  0  0  0  0  0  0  0  0  0  0
   38.4620   26.4030   34.1590 C   0  0  0  0  0  0  0  0  0  0  0  0
   39.7510   26.6170   34.5220 N   0  0  0  0  0  0  0  0  0  0  0  0
   40.5180   25.6450   35.0460 C   0  0  0  0  0  0  0  0  0  0  0  0
   40.0530   24.4130   35.2390 N   0  0  0  0  0  0  0  0  0  0  0  0
   38.2640   23.1400   35.0090 H   0  0  0  0  0  0  0  0  0  0  0  0
   36.9640   24.9410   34.0780 H   0  0  0  0  0  0  0  0  0  0  0  0
   41.5440   25.7770   35.3460 H   0  0  0  0  0  0  0  0  0  0  0  0
   35.0560   29.9140   34.5930 C   0  0  0  0  0  0  0  0  0  0  0  0
   33.7210   29.5730   34.6670 C   0  0  0  0  0  0  0  0  0  0  0  0
   33.2890   28.7750   34.0830 H   0  0  0  0  0  0  0  0  0  0  0  0
   32.8350   30.2380   35.5000 C   0  0  0  0  0  3  0  0  0  0  0  0
   33.2770   31.2770   36.2920 C   0  0  0  0  0  0  0  0  0  0  0  0
   32.5930   31.7930   36.9380 H   0  0  0  0  0  0  0  0  0  0  0  0
   34.6300   31.6260   36.2220 C   0  0  0  0  0  0  0  0  0  0  0  0
   34.9400   32.4520   36.8630 H   0  0  0  0  0  0  0  0  0  0  0  0
   35.5290   30.9600   35.3830 C   0  0  0  0  0  3  0  0  0  0  0  0
  1  2  1  0  0  0  0
  2  3  1  0  0  0  0
  3 13  1  0  0  0  0
  3  4  2  0  0  0  0
  4  9  1  0  0  0  0
  5  4  1  0  0  0  0
  5 20  1  0  0  0  0
  6  5  2  0  0  0  0
  7  6  1  0  0  0  0
  8  2  2  0  0  0  0
  8  6  1  0  0  0  0
 10  8  1  0  0  0  0
 11 17  1  0  0  0  0
 11 16  1  0  0  0  0
 12 11  2  0  0  0  0
 13 12  1  0  0  0  0
 13 14  2  0  0  0  0
 14 15  1  0  0  0  0
 15 16  2  0  0  0  0
 15 19  1  0  0  0  0
 18 12  1  0  0  0  0
 20 21  2  0  0  0  0
 20 28  1  0  0  0  0
 21 23  1  0  0  0  0
 22 21  1  0  0  0  0
 23 24  2  0  0  0  0
 24 25  1  0  0  0  0
 26 24  1  0  0  0  0
 26 27  1  0  0  0  0
 28 26  2  0  0  0  0
M  END
>  <minimizedAffinity>
-5.04153872

$$$$

 OpenBabel03262523453D

 28 30  0  0  0  0  0  0  0  0999 V2000
   38.5850   22.0010   34.5480 Cl  0  0  0  0  0  0  0  0  0  0  0  0
   38.1400   23.6050   34.0210 C   0  0  0  0  0  0  0  0  0  0  0  0
   37.4080   23.7820   32.8630 C   0  0  0  0  0  0  0  0  0  0  0  0
   37.0890   25.0820   32.5010 C   0  0  0  0  0  0  0  0  0  0  0  0
   37.4850   26.1650   33.2650 C   0  0  0  0  0  0  0  0  0  0  0  0
   38.2210   25.9340   34.4210 C   0  0  0  0  0  0  0  0  0  0  0  0
   38.6900   27.3470   35.3390 Cl  0  0  0  0  0  0  0  0  0  0  0  0
   38.5560   24.6650   34.8110 C   0  0  0  0  0  0  0  0  0  0  0  0
   36.5180   25.1700   31.5950 H   0  0  0  0  0  0  0  0  0  0  0  0
   39.1330   24.5400   35.7240 H   0  0  0  0  0  0  0  0  0  0  0  0
   35.3920   20.8760   31.5250 C   0  0  0  0  0  0  0  0  0  0  0  0
   35.7680   22.0190   32.2400 C   0  0  0  0  0  0  0  0  0  0  0  0
   37.0290   22.5990   32.1180 C   0  0  0  0  0  0  0  0  0  0  0  0
   37.8700   21.9780   31.2550 N   0  0  0  0  0  0  0  0  0  0  0  0
   37.5090   20.8800   30.5680 C   0  0  0  0  0  0  0  0  0  0  0  0
   36.2990   20.3390   30.6970 N   0  0  0  0  0  0  0  0  0  0  0  0
   34.3660   20.5550   31.7410 H   0  0  0  0  0  0  0  0  0  0  0  0
   35.0990   22.5170   32.9300 H   0  0  0  0  0  0  0  0  0  0  0  0
   38.1480   20.3600   29.8750 H   0  0  0  0  0  0  0  0  0  0  0  0
   37.0720   27.4690   32.7520 C   0  0  0  0  0  0  0  0  0  0  0  0
   36.1760   28.2470   33.4560 C   0  0  0  0  0  0  0  0  0  0  0  0
   35.7470   27.9370   34.3960 H   0  0  0  0  0  0  0  0  0  0  0  0
   35.7610   29.4890   33.0000 C   0  0  0  0  0  3  0  0  0  0  0  0
   36.2440   29.9850   31.8070 C   0  0  0  0  0  0  0  0  0  0  0  0
   35.9240   30.9460   31.4530 H   0  0  0  0  0  0  0  0  0  0  0  0
   37.1530   29.2000   31.0900 C   0  0  0  0  0  0  0  0  0  0  0  0
   37.5120   29.6280   30.1530 H   0  0  0  0  0  0  0  0  0  0  0  0
   37.5760   27.9460   31.5440 C   0  0  0  0  0  3  0  0  0  0  0  0
  2  1  1  0  0  0  0
  2  8  1  0  0  0  0
  3  2  2  0  0  0  0
  4  3  1  0  0  0  0
  4  5  2  0  0  0  0
  5  6  1  0  0  0  0
  6  8  2  0  0  0  0
  6  7  1  0  0  0  0
  8 10  1  0  0  0  0
  9  4  1  0  0  0  0
 11 17  1  0  0  0  0
 11 12  1  0  0  0  0
 12 18  1  0  0  0  0
 13 12  2  0  0  0  0
 13  3  1  0  0  0  0
 14 13  1  0  0  0  0
 15 16  1  0  0  0  0
 15 14  2  0  0  0  0
 16 11  2  0  0  0  0
 19 15  1  0  0  0  0
 20  5  1  0  0  0  0
 20 21  1  0  0  0  0
 21 22  1  0  0  0  0
 23 21  2  0  0  0  0
 24 23  1  0  0  0  0
 25 24  1  0  0  0  0
 26 28  1  0  0  0  0
 26 24  2  0  0  0  0
 27 26  1  0  0  0  0
 28 20  2  0  0  0  0
M  END
>  <minimizedAffinity>
-4.99415684

$$$$
