
 OpenBabel03272510213D

 36 39  0  0  0  0  0  0  0  0999 V2000
   37.3930   29.1740   50.8110 Br  0  0  0  0  0  0  0  0  0  0  0  0
   35.9840   29.2750   49.5290 C   0  0  0  0  0  0  0  0  0  0  0  0
   35.9840   30.2770   48.5640 C   0  0  0  0  0  0  0  0  0  0  0  0
   34.9310   30.2880   47.6680 C   0  0  0  0  0  0  0  0  0  0  0  0
   33.9010   29.3640   47.6930 C   0  0  0  0  0  0  0  0  0  0  0  0
   33.9350   28.4000   48.6510 C   0  0  0  0  0  0  0  0  0  0  0  0
   34.9770   28.3690   49.5560 C   0  0  0  0  0  0  0  0  0  0  0  0
   34.8770   31.0430   46.8940 H   0  0  0  0  0  0  0  0  0  0  0  0
   33.1800   27.6310   48.7580 H   0  0  0  0  0  0  0  0  0  0  0  0
   35.0080   27.5930   50.3290 H   0  0  0  0  0  0  0  0  0  0  0  0
   38.0080   33.1760   49.4600 C   0  0  0  0  0  0  0  0  0  0  0  0
   39.0290   33.1810   48.4680 C   0  0  0  0  0  0  0  0  0  0  0  0
   39.0000   32.1830   47.5060 C   0  0  0  0  0  0  0  0  0  0  0  0
   38.0060   31.2460   47.5480 N   0  0  0  0  0  0  0  0  0  0  0  0
   37.0500   31.2680   48.5040 C   0  0  0  0  0  0  0  0  0  0  0  0
   37.0630   32.2380   49.4540 N   0  0  0  0  0  0  0  0  0  0  0  0
   38.0710   33.9770   50.1920 H   0  0  0  0  0  0  0  0  0  0  0  0
   39.8290   33.9070   48.4050 H   0  0  0  0  0  0  0  0  0  0  0  0
   39.7070   32.0750   46.7080 H   0  0  0  0  0  0  0  0  0  0  0  0
   32.8020   29.3930   46.7420 C   0  0  0  0  0  0  0  0  0  0  0  0
   31.9770   28.3210   46.4670 C   0  0  0  0  0  0  0  0  0  0  0  0
   30.9400   28.3840   45.5540 C   0  0  0  0  0  0  0  0  0  0  0  0
   30.7200   29.5400   44.9020 N   0  0  0  0  0  0  0  0  0  0  0  0
   31.5100   30.5890   45.1570 C   0  0  0  0  0  0  0  0  0  0  0  0
   32.4990   30.4970   46.0400 N   0  0  0  0  0  0  0  0  0  0  0  0
   32.1580   27.3830   46.9980 H   0  0  0  0  0  0  0  0  0  0  0  0
   30.3290   27.4960   45.3880 H   0  0  0  0  0  0  0  0  0  0  0  0
   31.2750   31.8450   44.4520 C   0  0  0  0  0  0  0  0  0  0  0  0
   31.7640   33.0380   44.9730 C   0  0  0  0  0  0  0  0  0  0  0  0
   32.3080   32.9590   45.9040 H   0  0  0  0  0  0  0  0  0  0  0  0
   31.5280   34.2110   44.2870 C   0  0  0  0  0  3  0  0  0  0  0  0
   30.8320   34.2780   43.1050 C   0  0  0  0  0  0  0  0  0  0  0  0
   30.7330   35.2680   42.6930 H   0  0  0  0  0  0  0  0  0  0  0  0
   30.3490   33.0920   42.5910 C   0  0  0  0  0  0  0  0  0  0  0  0
   29.8040   33.1640   41.6620 H   0  0  0  0  0  0  0  0  0  0  0  0
   30.5830   31.9150   43.2760 C   0  0  0  0  0  3  0  0  0  0  0  0
  2  7  1  0  0  0  0
  2  1  1  0  0  0  0
  3  2  2  0  0  0  0
  4  5  2  0  0  0  0
  4  3  1  0  0  0  0
  5  6  1  0  0  0  0
  6  9  1  0  0  0  0
  6  7  2  0  0  0  0
  7 10  1  0  0  0  0
  8  4  1  0  0  0  0
 11 17  1  0  0  0  0
 12 11  2  0  0  0  0
 13 14  2  0  0  0  0
 13 12  1  0  0  0  0
 14 15  1  0  0  0  0
 15  3  1  0  0  0  0
 15 16  2  0  0  0  0
 16 11  1  0  0  0  0
 18 12  1  0  0  0  0
 19 13  1  0  0  0  0
 20  5  1  0  0  0  0
 21 20  1  0  0  0  0
 21 26  1  0  0  0  0
 22 21  2  0  0  0  0
 23 24  2  0  0  0  0
 23 22  1  0  0  0  0
 24 25  1  0  0  0  0
 25 20  2  0  0  0  0
 27 22  1  0  0  0  0
 28 29  1  0  0  0  0
 28 24  1  0  0  0  0
 29 30  1  0  0  0  0
 31 29  2  0  0  0  0
 32 31  1  0  0  0  0
 33 32  1  0  0  0  0
 34 32  2  0  0  0  0
 34 36  1  0  0  0  0
 35 34  1  0  0  0  0
 36 28  2  0  0  0  0
M  END
>  <minimizedAffinity>
-6.67315722

>  <minimizedRMSD>
0.308991253

$$$$
