
     RDKit          3D

 33 36  0  0  0  0  0  0  0  0999 V2000
   37.0579   30.7188   46.7833 C   0  0  0  0  0  0  0  0  0  0  0  0
   37.7069   31.1472   47.9239 C   0  0  0  0  0  0  0  0  0  0  0  0
   38.7191   32.0640   47.8317 C   0  0  0  0  0  0  0  0  0  0  0  0
   39.0660   32.5411   46.5737 C   0  0  0  0  0  0  0  0  0  0  0  0
   40.0294   33.4458   46.2443 N   0  0  0  0  0  0  0  0  0  0  0  0
   39.9890   33.5880   44.9023 C   0  0  0  0  0  0  0  0  0  0  0  0
   39.0331   32.8026   44.3856 N   0  0  0  0  0  0  0  0  0  0  0  0
   38.4464   32.1427   45.4057 C   0  0  0  0  0  0  0  0  0  0  0  0
   37.4202   31.2093   45.5290 C   0  0  0  0  0  0  0  0  0  0  0  0
   37.3784   30.1611   51.5349 C   0  0  0  0  0  0  0  0  0  0  0  0
   37.9060   30.7605   50.3927 C   0  0  0  0  0  0  0  0  0  0  0  0
   37.2480   30.5699   49.1824 C   0  0  0  0  0  0  0  0  0  0  0  0
   36.1274   29.8098   49.1822 N   0  0  0  0  0  0  0  0  0  0  0  0
   35.6285   29.2347   50.3018 C   0  0  0  0  0  0  0  0  0  0  0  0
   36.2547   29.4144   51.4616 N   0  0  0  0  0  0  0  0  0  0  0  0
   36.2441   29.9972   46.7419 H   0  0  0  0  0  0  0  0  0  0  0  0
   39.2219   32.3957   48.7159 H   0  0  0  0  0  0  0  0  0  0  0  0
   40.6760   33.9331   46.9253 H   0  0  0  0  0  0  0  0  0  0  0  0
   36.9239   30.8877   44.6121 H   0  0  0  0  0  0  0  0  0  0  0  0
   37.8467   30.2770   52.4898 H   0  0  0  0  0  0  0  0  0  0  0  0
   38.7935   31.3571   50.4185 H   0  0  0  0  0  0  0  0  0  0  0  0
   34.7208   28.6576   50.1187 H   0  0  0  0  0  0  0  0  0  0  0  0
   40.8405   34.4563   44.0959 C   0  0  0  0  0  0  0  0  0  0  0  0
   40.3300   35.2578   43.0791 C   0  0  0  0  0  0  0  0  0  0  0  0
   39.2520   35.1994   42.9192 H   0  0  0  0  0  0  0  0  0  0  0  0
   41.0821   36.0946   42.2875 C   0  0  0  0  0  0  0  0  0  0  0  0
   42.4425   36.1565   42.5030 C   0  0  0  0  0  0  0  0  0  0  0  0
   42.9612   36.8369   41.8397 H   0  0  0  0  0  0  0  0  0  0  0  0
   42.9849   35.3769   43.5013 C   0  0  0  0  0  0  0  0  0  0  0  0
   44.0563   35.4845   43.6043 H   0  0  0  0  0  0  0  0  0  0  0  0
   42.1995   34.5481   44.2769 C   0  0  0  0  0  0  0  0  0  0  0  0
   40.5405   36.6682   41.5230 H   0  0  0  0  0  0  0  0  0  0  0  0
   42.6886   33.9572   45.0501 H   0  0  0  0  0  0  0  0  0  0  0  0
  1  2  2  0
  2 12  1  0
  3  2  1  0
  4  3  2  0
  5  4  1  0
  6  5  1  0
  7  6  2  0
  7  8  1  0
  8  9  2  0
  8  4  1  0
  9  1  1  0
 11 10  2  0
 12 11  1  0
 13 12  2  0
 13 14  1  0
 14 15  2  0
 15 10  1  0
  1 16  1  0
  3 17  1  0
  5 18  1  0
  9 19  1  0
 10 20  1  0
 11 21  1  0
 14 22  1  0
 23 24  2  0
 24 25  1  0
 24 26  1  0
 26 27  2  0
 27 28  1  0
 27 29  1  0
 29 30  1  0
 29 31  2  0
 31 23  1  0
 26 32  1  0
 31 33  1  0
  6 23  1  0
M  ISO  8  16  14  17  14  18   9  19  14  20  14  21  14  22  14  25  16
M  ISO  2  28  16  30  16
M  END
>  <DihAtoms>  (1) 
4,5,22,23

>  <DihDeg>  (1) 
179.9965095884959

$$$$
