
 OpenBabel03272507153D

 40 44  0  0  0  0  0  0  0  0999 V2000
   37.1730   27.7560   32.4380 C   0  0  0  0  0  0  0  0  0  0  0  0
   36.4800   28.3530   31.4410 C   0  0  0  0  0  0  0  0  0  0  0  0
   35.5500   29.2140   32.0370 C   0  0  0  0  0  0  0  0  0  0  0  0
   35.7530   29.0750   33.4170 C   0  0  0  0  0  0  0  0  0  0  0  0
   36.7090   28.2130   33.5660 O   0  0  0  0  0  0  0  0  0  0  0  0
   36.5940   28.2140   30.3610 H   0  0  0  0  0  0  0  0  0  0  0  0
   34.8640   29.8170   31.4440 H   0  0  0  0  0  0  0  0  0  0  0  0
   33.6130   29.5710   34.5840 C   0  0  0  0  0  0  0  0  0  0  0  0
   34.9640   29.8200   34.3870 C   0  0  0  0  0  0  0  0  0  0  0  0
   35.6260   30.8000   35.1100 C   0  0  0  0  0  0  0  0  0  0  0  0
   34.8930   31.5230   36.0400 C   0  0  0  0  0  0  0  0  0  0  0  0
   35.2650   32.5090   36.8630 N   0  0  0  0  0  0  0  0  0  0  0  0
   34.1860   32.8730   37.5620 N   0  0  0  0  0  0  0  0  0  0  0  0
   33.1410   32.1210   37.1800 C   0  0  0  0  0  0  0  0  0  0  0  0
   33.5490   31.2360   36.2000 C   0  0  0  0  0  0  0  0  0  0  0  0
   32.8790   30.2650   35.4880 C   0  0  0  0  0  0  0  0  0  0  0  0
   33.1960   28.7870   33.9690 H   0  0  0  0  0  0  0  0  0  0  0  0
   36.6780   31.0480   35.0070 H   0  0  0  0  0  0  0  0  0  0  0  0
   36.2140   32.9460   36.9750 H   0  0  0  0  0  0  0  0  0  0  0  0
   32.1210   32.1650   37.5520 H   0  0  0  0  0  0  0  0  0  0  0  0
   31.8260   30.0600   35.6310 H   0  0  0  0  0  0  0  0  0  0  0  0
   38.2260   26.7940   32.1820 C   0  0  0  0  0  0  0  0  0  0  0  0
   39.1980   27.1350   31.4590 O   0  0  0  0  0  0  0  0  0  0  0  0
   38.1020   25.4850   32.7750 C   0  0  0  0  0  0  0  0  0  0  0  0
   37.6740   24.4470   31.9580 C   0  0  0  0  0  0  0  0  0  0  0  0
   37.5490   23.1780   32.5040 C   0  0  0  0  0  0  0  0  0  0  0  0
   37.8560   23.0290   33.8270 N   0  0  0  0  0  0  0  0  0  0  0  0
   38.2640   24.0350   34.5930 C   0  0  0  0  0  0  0  0  0  0  0  0
   38.3870   25.2630   34.0670 N   0  0  0  0  0  0  0  0  0  0  0  0
   37.4440   24.6220   30.9140 H   0  0  0  0  0  0  0  0  0  0  0  0
   37.2190   22.3780   31.8740 H   0  0  0  0  0  0  0  0  0  0  0  0
   38.5660   23.7610   35.9950 C   0  0  0  0  0  0  0  0  0  0  0  0
   39.6180   22.9700   36.4070 C   0  0  0  0  0  0  0  0  0  0  0  0
   40.2350   22.5430   35.6400 H   0  0  0  0  0  0  0  0  0  0  0  0
   39.7840   22.7970   37.7630 C   0  0  0  0  0  3  0  0  0  0  0  0
   38.9840   23.3510   38.7170 C   0  0  0  0  0  0  0  0  0  0  0  0
   39.1160   23.2130   39.7800 H   0  0  0  0  0  0  0  0  0  0  0  0
   37.9220   24.1480   38.3290 C   0  0  0  0  0  0  0  0  0  0  0  0
   37.2480   24.6200   39.0320 H   0  0  0  0  0  0  0  0  0  0  0  0
   37.7440   24.3320   36.9540 C   0  0  0  0  0  3  0  0  0  0  0  0
  1  5  1  0  0  0  0
  2  3  1  0  0  0  0
  2  1  2  0  0  0  0
  3  4  2  0  0  0  0
  4  5  1  0  0  0  0
  4  9  1  0  0  0  0
  6  2  1  0  0  0  0
  7  3  1  0  0  0  0
  8 16  1  0  0  0  0
  9  8  2  0  0  0  0
  9 10  1  0  0  0  0
 10 11  2  0  0  0  0
 11 15  1  0  0  0  0
 11 12  1  0  0  0  0
 12 19  1  0  0  0  0
 12 13  1  0  0  0  0
 14 20  1  0  0  0  0
 14 13  2  0  0  0  0
 15 14  1  0  0  0  0
 16 21  1  0  0  0  0
 16 15  2  0  0  0  0
 17  8  1  0  0  0  0
 18 10  1  0  0  0  0
 22  1  1  0  0  0  0
 22 24  1  0  0  0  0
 23 22  2  0  0  0  0
 24 29  1  0  0  0  0
 25 26  1  0  0  0  0
 25 24  2  0  0  0  0
 26 27  2  0  0  0  0
 27 28  1  0  0  0  0
 28 32  1  0  0  0  0
 29 28  2  0  0  0  0
 30 25  1  0  0  0  0
 31 26  1  0  0  0  0
 32 33  2  0  0  0  0
 32 40  1  0  0  0  0
 33 35  1  0  0  0  0
 34 33  1  0  0  0  0
 35 36  2  0  0  0  0
 36 37  1  0  0  0  0
 38 36  1  0  0  0  0
 38 39  1  0  0  0  0
 40 38  2  0  0  0  0
M  END
>  <minimizedAffinity>
-7.15762806

$$$$

 OpenBabel03272507153D

 40 44  0  0  0  0  0  0  0  0999 V2000
   36.9220   27.6270   32.4810 C   0  0  0  0  0  0  0  0  0  0  0  0
   35.8870   27.9350   31.6650 C   0  0  0  0  0  0  0  0  0  0  0  0
   35.0830   28.8590   32.3420 C   0  0  0  0  0  0  0  0  0  0  0  0
   35.7140   29.0590   33.5780 C   0  0  0  0  0  0  0  0  0  0  0  0
   36.7720   28.3100   33.5800 O   0  0  0  0  0  0  0  0  0  0  0  0
   35.6820   27.5530   30.6600 H   0  0  0  0  0  0  0  0  0  0  0  0
   34.1770   29.2680   31.8960 H   0  0  0  0  0  0  0  0  0  0  0  0
   35.9860   30.8080   35.3270 C   0  0  0  0  0  0  0  0  0  0  0  0
   35.1720   29.9670   34.5780 C   0  0  0  0  0  0  0  0  0  0  0  0
   33.7980   29.9570   34.7520 C   0  0  0  0  0  0  0  0  0  0  0  0
   33.2590   30.8160   35.7000 C   0  0  0  0  0  0  0  0  0  0  0  0
   31.9900   31.0130   36.0730 N   0  0  0  0  0  0  0  0  0  0  0  0
   31.9960   31.9500   37.0270 N   0  0  0  0  0  0  0  0  0  0  0  0
   33.2620   32.3380   37.2530 C   0  0  0  0  0  0  0  0  0  0  0  0
   34.1120   31.6340   36.4210 C   0  0  0  0  0  0  0  0  0  0  0  0
   35.4790   31.6540   36.2570 C   0  0  0  0  0  0  0  0  0  0  0  0
   37.0410   30.7360   35.1110 H   0  0  0  0  0  0  0  0  0  0  0  0
   33.1040   29.3270   34.2030 H   0  0  0  0  0  0  0  0  0  0  0  0
   31.1220   30.5460   35.7130 H   0  0  0  0  0  0  0  0  0  0  0  0
   33.6110   33.0810   37.9640 H   0  0  0  0  0  0  0  0  0  0  0  0
   36.1260   32.3030   36.8340 H   0  0  0  0  0  0  0  0  0  0  0  0
   37.9590   26.6910   32.0980 C   0  0  0  0  0  0  0  0  0  0  0  0
   38.8060   27.0410   31.2340 O   0  0  0  0  0  0  0  0  0  0  0  0
   37.9670   25.3960   32.7320 C   0  0  0  0  0  0  0  0  0  0  0  0
   37.7410   24.2850   31.9290 C   0  0  0  0  0  0  0  0  0  0  0  0
   37.7440   23.0280   32.5150 C   0  0  0  0  0  0  0  0  0  0  0  0
   37.9710   22.9620   33.8610 N   0  0  0  0  0  0  0  0  0  0  0  0
   38.1860   24.0360   34.6120 C   0  0  0  0  0  0  0  0  0  0  0  0
   38.1840   25.2530   34.0480 N   0  0  0  0  0  0  0  0  0  0  0  0
   37.5650   24.3960   30.8660 H   0  0  0  0  0  0  0  0  0  0  0  0
   37.5690   22.1720   31.8960 H   0  0  0  0  0  0  0  0  0  0  0  0
   38.4180   23.8470   36.0420 C   0  0  0  0  0  0  0  0  0  0  0  0
   37.6380   24.4230   37.0230 C   0  0  0  0  0  0  0  0  0  0  0  0
   36.8240   25.0410   36.6970 H   0  0  0  0  0  0  0  0  0  0  0  0
   37.9720   24.1580   38.3320 C   0  0  0  0  0  3  0  0  0  0  0  0
   39.0140   23.3690   38.7190 C   0  0  0  0  0  0  0  0  0  0  0  0
   39.2750   23.1620   39.7470 H   0  0  0  0  0  0  0  0  0  0  0  0
   39.8110   22.7790   37.7540 C   0  0  0  0  0  0  0  0  0  0  0  0
   40.6520   22.1420   37.9900 H   0  0  0  0  0  0  0  0  0  0  0  0
   39.4800   23.0410   36.4210 C   0  0  0  0  0  3  0  0  0  0  0  0
  1  5  1  0  0  0  0
  2  3  1  0  0  0  0
  2  1  2  0  0  0  0
  3  4  2  0  0  0  0
  4  5  1  0  0  0  0
  4  9  1  0  0  0  0
  6  2  1  0  0  0  0
  7  3  1  0  0  0  0
  8 16  1  0  0  0  0
  9 10  1  0  0  0  0
  9  8  2  0  0  0  0
 10 11  2  0  0  0  0
 11 12  1  0  0  0  0
 11 15  1  0  0  0  0
 12 13  1  0  0  0  0
 13 14  2  0  0  0  0
 14 20  1  0  0  0  0
 15 14  1  0  0  0  0
 16 15  2  0  0  0  0
 16 21  1  0  0  0  0
 17  8  1  0  0  0  0
 18 10  1  0  0  0  0
 19 12  1  0  0  0  0
 22  1  1  0  0  0  0
 22 24  1  0  0  0  0
 23 22  2  0  0  0  0
 24 29  1  0  0  0  0
 25 26  1  0  0  0  0
 25 24  2  0  0  0  0
 26 27  2  0  0  0  0
 27 28  1  0  0  0  0
 28 32  1  0  0  0  0
 29 28  2  0  0  0  0
 30 25  1  0  0  0  0
 31 26  1  0  0  0  0
 32 40  2  0  0  0  0
 32 33  1  0  0  0  0
 33 35  2  0  0  0  0
 34 33  1  0  0  0  0
 35 36  1  0  0  0  0
 36 37  1  0  0  0  0
 38 39  1  0  0  0  0
 38 36  2  0  0  0  0
 40 38  1  0  0  0  0
M  END
>  <minimizedAffinity>
-7.08253145

$$$$

 OpenBabel03272507153D

 40 44  0  0  0  0  0  0  0  0999 V2000
   36.7150   25.8550   31.9550 C   0  0  0  0  0  0  0  0  0  0  0  0
   35.5600   25.8890   31.2510 C   0  0  0  0  0  0  0  0  0  0  0  0
   35.1470   24.5640   31.0630 C   0  0  0  0  0  0  0  0  0  0  0  0
   36.1240   23.7820   31.6950 C   0  0  0  0  0  0  0  0  0  0  0  0
   36.9960   24.6040   32.1870 O   0  0  0  0  0  0  0  0  0  0  0  0
   35.0200   26.7660   30.8790 H   0  0  0  0  0  0  0  0  0  0  0  0
   34.2350   24.3190   30.5200 H   0  0  0  0  0  0  0  0  0  0  0  0
   35.0950   21.6550   32.4730 C   0  0  0  0  0  0  0  0  0  0  0  0
   36.0450   22.3290   31.7180 C   0  0  0  0  0  0  0  0  0  0  0  0
   36.9690   21.6410   30.9480 C   0  0  0  0  0  0  0  0  0  0  0  0
   36.9120   20.2540   30.9540 C   0  0  0  0  0  0  0  0  0  0  0  0
   37.6640   19.3510   30.3170 N   0  0  0  0  0  0  0  0  0  0  0  0
   37.2060   18.1410   30.6560 N   0  0  0  0  0  0  0  0  0  0  0  0
   36.1720   18.2840   31.5010 C   0  0  0  0  0  0  0  0  0  0  0  0
   35.9460   19.6290   31.7230 C   0  0  0  0  0  0  0  0  0  0  0  0
   35.0220   20.3020   32.4930 C   0  0  0  0  0  0  0  0  0  0  0  0
   34.4240   22.2870   33.0360 H   0  0  0  0  0  0  0  0  0  0  0  0
   37.7380   22.1030   30.3350 H   0  0  0  0  0  0  0  0  0  0  0  0
   38.4720   19.5130   29.6650 H   0  0  0  0  0  0  0  0  0  0  0  0
   35.5790   17.5000   31.9620 H   0  0  0  0  0  0  0  0  0  0  0  0
   34.2760   19.7890   33.0870 H   0  0  0  0  0  0  0  0  0  0  0  0
   37.4290   27.0580   32.3310 C   0  0  0  0  0  0  0  0  0  0  0  0
   38.6470   26.9710   32.6380 O   0  0  0  0  0  0  0  0  0  0  0  0
   36.7000   28.3020   32.3340 C   0  0  0  0  0  0  0  0  0  0  0  0
   36.5940   28.9880   31.1310 C   0  0  0  0  0  0  0  0  0  0  0  0
   35.8970   30.1880   31.1080 C   0  0  0  0  0  0  0  0  0  0  0  0
   35.3540   30.6230   32.2840 N   0  0  0  0  0  0  0  0  0  0  0  0
   35.4670   29.9520   33.4250 C   0  0  0  0  0  0  0  0  0  0  0  0
   36.1400   28.7920   33.4500 N   0  0  0  0  0  0  0  0  0  0  0  0
   37.0450   28.5960   30.2280 H   0  0  0  0  0  0  0  0  0  0  0  0
   35.8150   30.7160   30.1800 H   0  0  0  0  0  0  0  0  0  0  0  0
   34.8460   30.5120   34.6220 C   0  0  0  0  0  0  0  0  0  0  0  0
   33.5310   30.2890   34.9740 C   0  0  0  0  0  0  0  0  0  0  0  0
   32.9510   29.6680   34.3190 H   0  0  0  0  0  0  0  0  0  0  0  0
   33.0780   30.8810   36.1320 C   0  0  0  0  0  3  0  0  0  0  0  0
   33.8370   31.6670   36.9460 C   0  0  0  0  0  0  0  0  0  0  0  0
   33.4790   32.1310   37.8540 H   0  0  0  0  0  0  0  0  0  0  0  0
   35.1590   31.9060   36.6150 C   0  0  0  0  0  0  0  0  0  0  0  0
   35.8180   32.5190   37.2160 H   0  0  0  0  0  0  0  0  0  0  0  0
   35.6300   31.3090   35.4420 C   0  0  0  0  0  3  0  0  0  0  0  0
  1  5  1  0  0  0  0
  1 22  1  0  0  0  0
  2  1  2  0  0  0  0
  3  2  1  0  0  0  0
  3  4  2  0  0  0  0
  4  9  1  0  0  0  0
  4  5  1  0  0  0  0
  6  2  1  0  0  0  0
  7  3  1  0  0  0  0
  8 16  1  0  0  0  0
  8 17  1  0  0  0  0
  9  8  2  0  0  0  0
 10 11  2  0  0  0  0
 10  9  1  0  0  0  0
 11 15  1  0  0  0  0
 12 13  1  0  0  0  0
 12 11  1  0  0  0  0
 13 14  2  0  0  0  0
 14 15  1  0  0  0  0
 14 20  1  0  0  0  0
 15 16  2  0  0  0  0
 16 21  1  0  0  0  0
 18 10  1  0  0  0  0
 19 12  1  0  0  0  0
 22 24  1  0  0  0  0
 22 23  2  0  0  0  0
 24 29  1  0  0  0  0
 25 24  2  0  0  0  0
 26 25  1  0  0  0  0
 26 27  2  0  0  0  0
 27 28  1  0  0  0  0
 28 29  2  0  0  0  0
 28 32  1  0  0  0  0
 30 25  1  0  0  0  0
 31 26  1  0  0  0  0
 32 33  2  0  0  0  0
 32 40  1  0  0  0  0
 33 35  1  0  0  0  0
 34 33  1  0  0  0  0
 35 36  2  0  0  0  0
 36 37  1  0  0  0  0
 38 36  1  0  0  0  0
 38 39  1  0  0  0  0
 40 38  2  0  0  0  0
M  END
>  <minimizedAffinity>
-6.91682482

$$$$

 OpenBabel03272507153D

 40 44  0  0  0  0  0  0  0  0999 V2000
   36.3000   27.5390   32.2380 C   0  0  0  0  0  0  0  0  0  0  0  0
   36.2330   28.2830   31.1100 C   0  0  0  0  0  0  0  0  0  0  0  0
   35.9900   29.6060   31.4960 C   0  0  0  0  0  0  0  0  0  0  0  0
   35.9240   29.5730   32.8960 C   0  0  0  0  0  0  0  0  0  0  0  0
   36.1130   28.3400   33.2470 O   0  0  0  0  0  0  0  0  0  0  0  0
   36.3420   27.9500   30.0720 H   0  0  0  0  0  0  0  0  0  0  0  0
   35.8920   30.4090   30.7670 H   0  0  0  0  0  0  0  0  0  0  0  0
   35.6740   32.0390   33.1070 C   0  0  0  0  0  0  0  0  0  0  0  0
   35.6810   30.7750   33.6810 C   0  0  0  0  0  0  0  0  0  0  0  0
   35.4580   30.6010   35.0370 C   0  0  0  0  0  0  0  0  0  0  0  0
   35.2240   31.7340   35.8050 C   0  0  0  0  0  0  0  0  0  0  0  0
   34.9830   31.8620   37.1130 N   0  0  0  0  0  0  0  0  0  0  0  0
   34.8260   33.1660   37.3640 N   0  0  0  0  0  0  0  0  0  0  0  0
   34.9680   33.8530   36.2180 C   0  0  0  0  0  0  0  0  0  0  0  0
   35.2260   32.9720   35.1850 C   0  0  0  0  0  0  0  0  0  0  0  0
   35.4470   33.1580   33.8390 C   0  0  0  0  0  0  0  0  0  0  0  0
   35.8580   32.0610   32.0430 H   0  0  0  0  0  0  0  0  0  0  0  0
   35.4500   29.6440   35.5510 H   0  0  0  0  0  0  0  0  0  0  0  0
   34.9200   31.1110   37.8450 H   0  0  0  0  0  0  0  0  0  0  0  0
   34.9000   34.9280   36.0770 H   0  0  0  0  0  0  0  0  0  0  0  0
   35.4440   34.1370   33.3770 H   0  0  0  0  0  0  0  0  0  0  0  0
   36.5420   26.1110   32.2110 C   0  0  0  0  0  0  0  0  0  0  0  0
   35.6990   25.3620   31.6500 O   0  0  0  0  0  0  0  0  0  0  0  0
   37.7450   25.6180   32.8340 C   0  0  0  0  0  0  0  0  0  0  0  0
   38.9120   25.6320   32.0800 C   0  0  0  0  0  0  0  0  0  0  0  0
   40.0830   25.1640   32.6570 C   0  0  0  0  0  0  0  0  0  0  0  0
   40.0130   24.7120   33.9450 N   0  0  0  0  0  0  0  0  0  0  0  0
   38.8870   24.7070   34.6500 C   0  0  0  0  0  0  0  0  0  0  0  0
   37.7540   25.1590   34.0940 N   0  0  0  0  0  0  0  0  0  0  0  0
   38.9100   26.0020   31.0620 H   0  0  0  0  0  0  0  0  0  0  0  0
   40.9820   25.1750   32.0750 H   0  0  0  0  0  0  0  0  0  0  0  0
   38.9300   24.2000   36.0190 C   0  0  0  0  0  0  0  0  0  0  0  0
   39.8450   23.2660   36.4580 C   0  0  0  0  0  0  0  0  0  0  0  0
   40.5550   22.9050   35.7380 H   0  0  0  0  0  0  0  0  0  0  0  0
   39.7700   22.8790   37.7760 C   0  0  0  0  0  3  0  0  0  0  0  0
   38.8570   23.3540   38.6700 C   0  0  0  0  0  0  0  0  0  0  0  0
   38.7990   23.0480   39.7050 H   0  0  0  0  0  0  0  0  0  0  0  0
   37.9280   24.2920   38.2550 C   0  0  0  0  0  0  0  0  0  0  0  0
   37.1770   24.7110   38.9100 H   0  0  0  0  0  0  0  0  0  0  0  0
   37.9960   24.6930   36.9170 C   0  0  0  0  0  3  0  0  0  0  0  0
  1  5  1  0  0  0  0
  2  3  1  0  0  0  0
  2  1  2  0  0  0  0
  3  4  2  0  0  0  0
  4  5  1  0  0  0  0
  4  9  1  0  0  0  0
  6  2  1  0  0  0  0
  7  3  1  0  0  0  0
  8  9  2  0  0  0  0
  8 16  1  0  0  0  0
  9 10  1  0  0  0  0
 10 18  1  0  0  0  0
 10 11  2  0  0  0  0
 11 12  1  0  0  0  0
 12 13  1  0  0  0  0
 12 19  1  0  0  0  0
 14 13  2  0  0  0  0
 15 11  1  0  0  0  0
 15 14  1  0  0  0  0
 16 15  2  0  0  0  0
 17  8  1  0  0  0  0
 20 14  1  0  0  0  0
 21 16  1  0  0  0  0
 22  1  1  0  0  0  0
 22 24  1  0  0  0  0
 23 22  2  0  0  0  0
 24 29  1  0  0  0  0
 25 26  1  0  0  0  0
 25 24  2  0  0  0  0
 26 27  2  0  0  0  0
 27 28  1  0  0  0  0
 28 32  1  0  0  0  0
 29 28  2  0  0  0  0
 30 25  1  0  0  0  0
 31 26  1  0  0  0  0
 32 33  2  0  0  0  0
 32 40  1  0  0  0  0
 33 35  1  0  0  0  0
 34 33  1  0  0  0  0
 35 36  2  0  0  0  0
 36 37  1  0  0  0  0
 38 36  1  0  0  0  0
 38 39  1  0  0  0  0
 40 38  2  0  0  0  0
M  END
>  <minimizedAffinity>
-6.89273405

$$$$

 OpenBabel03272507153D

 40 44  0  0  0  0  0  0  0  0999 V2000
   36.8010   27.4160   33.2610 C   0  0  0  0  0  0  0  0  0  0  0  0
   36.4810   28.1700   32.1850 C   0  0  0  0  0  0  0  0  0  0  0  0
   35.8360   29.3190   32.6580 C   0  0  0  0  0  0  0  0  0  0  0  0
   35.8080   29.1770   34.0520 C   0  0  0  0  0  0  0  0  0  0  0  0
   36.3860   28.0490   34.3210 O   0  0  0  0  0  0  0  0  0  0  0  0
   36.6720   27.9570   31.1280 H   0  0  0  0  0  0  0  0  0  0  0  0
   35.4740   30.0940   31.9830 H   0  0  0  0  0  0  0  0  0  0  0  0
   35.9790   31.0920   35.6300 C   0  0  0  0  0  0  0  0  0  0  0  0
   35.2090   30.1850   34.9140 C   0  0  0  0  0  0  0  0  0  0  0  0
   33.8260   30.2010   34.9900 C   0  0  0  0  0  0  0  0  0  0  0  0
   33.2330   31.1550   35.8060 C   0  0  0  0  0  0  0  0  0  0  0  0
   31.9440   31.3970   36.0650 N   0  0  0  0  0  0  0  0  0  0  0  0
   31.8960   32.4250   36.9180 N   0  0  0  0  0  0  0  0  0  0  0  0
   33.1480   32.8270   37.1930 C   0  0  0  0  0  0  0  0  0  0  0  0
   34.0440   32.0370   36.4990 C   0  0  0  0  0  0  0  0  0  0  0  0
   35.4200   32.0320   36.4320 C   0  0  0  0  0  0  0  0  0  0  0  0
   37.0460   30.9930   35.4990 H   0  0  0  0  0  0  0  0  0  0  0  0
   33.1640   29.5230   34.4590 H   0  0  0  0  0  0  0  0  0  0  0  0
   31.0970   30.9010   35.6930 H   0  0  0  0  0  0  0  0  0  0  0  0
   33.4550   33.6360   37.8490 H   0  0  0  0  0  0  0  0  0  0  0  0
   36.0330   32.7320   36.9850 H   0  0  0  0  0  0  0  0  0  0  0  0
   37.4850   26.1440   33.1410 C   0  0  0  0  0  0  0  0  0  0  0  0
   36.9050   25.1970   32.5480 O   0  0  0  0  0  0  0  0  0  0  0  0
   38.8040   26.0300   33.7110 C   0  0  0  0  0  0  0  0  0  0  0  0
   39.7010   27.0630   33.4680 C   0  0  0  0  0  0  0  0  0  0  0  0
   40.9770   26.9770   34.0070 C   0  0  0  0  0  0  0  0  0  0  0  0
   41.2730   25.8690   34.7500 N   0  0  0  0  0  0  0  0  0  0  0  0
   40.4010   24.8910   34.9710 C   0  0  0  0  0  0  0  0  0  0  0  0
   39.1670   24.9720   34.4520 N   0  0  0  0  0  0  0  0  0  0  0  0
   39.4130   27.9190   32.8710 H   0  0  0  0  0  0  0  0  0  0  0  0
   41.6680   27.7730   33.8190 H   0  0  0  0  0  0  0  0  0  0  0  0
   40.8270   23.7530   35.7810 C   0  0  0  0  0  0  0  0  0  0  0  0
   39.9800   23.0520   36.6150 C   0  0  0  0  0  0  0  0  0  0  0  0
   38.9590   23.3780   36.6570 H   0  0  0  0  0  0  0  0  0  0  0  0
   40.5180   21.9990   37.3200 C   0  0  0  0  0  3  0  0  0  0  0  0
   41.8210   21.6070   37.2480 C   0  0  0  0  0  0  0  0  0  0  0  0
   42.2410   20.7800   37.8030 H   0  0  0  0  0  0  0  0  0  0  0  0
   42.6900   22.2930   36.4190 C   0  0  0  0  0  0  0  0  0  0  0  0
   43.7350   22.0350   36.3130 H   0  0  0  0  0  0  0  0  0  0  0  0
   42.1540   23.3640   35.6970 C   0  0  0  0  0  3  0  0  0  0  0  0
  1  5  1  0  0  0  0
  2  3  1  0  0  0  0
  2  1  2  0  0  0  0
  3  4  2  0  0  0  0
  4  5  1  0  0  0  0
  4  9  1  0  0  0  0
  6  2  1  0  0  0  0
  7  3  1  0  0  0  0
  8 16  1  0  0  0  0
  9 10  1  0  0  0  0
  9  8  2  0  0  0  0
 10 11  2  0  0  0  0
 11 12  1  0  0  0  0
 11 15  1  0  0  0  0
 12 13  1  0  0  0  0
 13 14  2  0  0  0  0
 14 20  1  0  0  0  0
 15 14  1  0  0  0  0
 16 15  2  0  0  0  0
 16 21  1  0  0  0  0
 17  8  1  0  0  0  0
 18 10  1  0  0  0  0
 19 12  1  0  0  0  0
 22  1  1  0  0  0  0
 22 24  1  0  0  0  0
 23 22  2  0  0  0  0
 24 29  1  0  0  0  0
 25 24  2  0  0  0  0
 25 26  1  0  0  0  0
 26 27  2  0  0  0  0
 27 28  1  0  0  0  0
 28 32  1  0  0  0  0
 29 28  2  0  0  0  0
 30 25  1  0  0  0  0
 31 26  1  0  0  0  0
 32 33  1  0  0  0  0
 33 34  1  0  0  0  0
 33 35  2  0  0  0  0
 36 35  1  0  0  0  0
 36 37  1  0  0  0  0
 38 36  2  0  0  0  0
 39 38  1  0  0  0  0
 40 32  2  0  0  0  0
 40 38  1  0  0  0  0
M  END
>  <minimizedAffinity>
-6.83701277

$$$$

 OpenBabel03272507153D

 40 44  0  0  0  0  0  0  0  0999 V2000
   35.7880   27.0510   31.2840 C   0  0  0  0  0  0  0  0  0  0  0  0
   36.6390   27.6900   30.4470 C   0  0  0  0  0  0  0  0  0  0  0  0
   36.7950   28.9950   30.9270 C   0  0  0  0  0  0  0  0  0  0  0  0
   35.9930   29.0630   32.0750 C   0  0  0  0  0  0  0  0  0  0  0  0
   35.4430   27.8980   32.2120 O   0  0  0  0  0  0  0  0  0  0  0  0
   37.1320   27.2940   29.5530 H   0  0  0  0  0  0  0  0  0  0  0  0
   37.4370   29.7190   30.4250 H   0  0  0  0  0  0  0  0  0  0  0  0
   36.0340   31.5400   32.3030 C   0  0  0  0  0  0  0  0  0  0  0  0
   35.8890   30.2800   32.8670 C   0  0  0  0  0  0  0  0  0  0  0  0
   35.6390   30.1240   34.2210 C   0  0  0  0  0  0  0  0  0  0  0  0
   35.5360   31.2710   34.9960 C   0  0  0  0  0  0  0  0  0  0  0  0
   35.3040   31.4180   36.3040 N   0  0  0  0  0  0  0  0  0  0  0  0
   35.3000   32.7290   36.5630 N   0  0  0  0  0  0  0  0  0  0  0  0
   35.5290   33.4030   35.4240 C   0  0  0  0  0  0  0  0  0  0  0  0
   35.6880   32.5040   34.3860 C   0  0  0  0  0  0  0  0  0  0  0  0
   35.9370   32.6720   33.0420 C   0  0  0  0  0  0  0  0  0  0  0  0
   36.2270   31.5480   31.2400 H   0  0  0  0  0  0  0  0  0  0  0  0
   35.5150   29.1710   34.7270 H   0  0  0  0  0  0  0  0  0  0  0  0
   35.1480   30.6750   37.0290 H   0  0  0  0  0  0  0  0  0  0  0  0
   35.5900   34.4790   35.2900 H   0  0  0  0  0  0  0  0  0  0  0  0
   36.0530   33.6490   32.5880 H   0  0  0  0  0  0  0  0  0  0  0  0
   35.3980   25.6710   31.0870 C   0  0  0  0  0  0  0  0  0  0  0  0
   34.4390   25.4150   30.3120 O   0  0  0  0  0  0  0  0  0  0  0  0
   36.1340   24.6530   31.7950 C   0  0  0  0  0  0  0  0  0  0  0  0
   37.1730   25.0670   32.6190 C   0  0  0  0  0  0  0  0  0  0  0  0
   37.8960   24.1070   33.3120 C   0  0  0  0  0  0  0  0  0  0  0  0
   37.5370   22.8010   33.1360 N   0  0  0  0  0  0  0  0  0  0  0  0
   36.5400   22.4240   32.3430 C   0  0  0  0  0  0  0  0  0  0  0  0
   35.8390   23.3500   31.6730 N   0  0  0  0  0  0  0  0  0  0  0  0
   37.4150   26.1180   32.7210 H   0  0  0  0  0  0  0  0  0  0  0  0
   38.6970   24.4270   33.9470 H   0  0  0  0  0  0  0  0  0  0  0  0
   36.2440   20.9990   32.2320 C   0  0  0  0  0  0  0  0  0  0  0  0
   35.6370   20.2660   33.2310 C   0  0  0  0  0  0  0  0  0  0  0  0
   35.3790   20.7910   34.1300 H   0  0  0  0  0  0  0  0  0  0  0  0
   35.4180   18.9290   32.9890 C   0  0  0  0  0  3  0  0  0  0  0  0
   35.7580   18.2860   31.8360 C   0  0  0  0  0  0  0  0  0  0  0  0
   35.5850   17.2360   31.6480 H   0  0  0  0  0  0  0  0  0  0  0  0
   36.3670   18.9990   30.8190 C   0  0  0  0  0  0  0  0  0  0  0  0
   36.6620   18.5530   29.8780 H   0  0  0  0  0  0  0  0  0  0  0  0
   36.5940   20.3590   31.0530 C   0  0  0  0  0  3  0  0  0  0  0  0
  1  5  1  0  0  0  0
  2  3  1  0  0  0  0
  2  1  2  0  0  0  0
  3  4  2  0  0  0  0
  4  5  1  0  0  0  0
  4  9  1  0  0  0  0
  6  2  1  0  0  0  0
  7  3  1  0  0  0  0
  8  9  2  0  0  0  0
  8 16  1  0  0  0  0
  9 10  1  0  0  0  0
 10 18  1  0  0  0  0
 10 11  2  0  0  0  0
 11 12  1  0  0  0  0
 12 13  1  0  0  0  0
 12 19  1  0  0  0  0
 14 13  2  0  0  0  0
 15 11  1  0  0  0  0
 15 14  1  0  0  0  0
 16 15  2  0  0  0  0
 17  8  1  0  0  0  0
 20 14  1  0  0  0  0
 21 16  1  0  0  0  0
 22  1  1  0  0  0  0
 22 24  1  0  0  0  0
 23 22  2  0  0  0  0
 24 25  1  0  0  0  0
 25 30  1  0  0  0  0
 25 26  2  0  0  0  0
 26 31  1  0  0  0  0
 27 26  1  0  0  0  0
 28 27  2  0  0  0  0
 29 24  2  0  0  0  0
 29 28  1  0  0  0  0
 32 28  1  0  0  0  0
 32 33  1  0  0  0  0
 33 34  1  0  0  0  0
 35 33  2  0  0  0  0
 36 35  1  0  0  0  0
 37 36  1  0  0  0  0
 38 40  1  0  0  0  0
 38 36  2  0  0  0  0
 39 38  1  0  0  0  0
 40 32  2  0  0  0  0
M  END
>  <minimizedAffinity>
-6.80210304

$$$$

 OpenBabel03272507153D

 40 44  0  0  0  0  0  0  0  0999 V2000
   37.8320   26.3920   33.4060 C   0  0  0  0  0  0  0  0  0  0  0  0
   38.9560   27.1300   33.5600 C   0  0  0  0  0  0  0  0  0  0  0  0
   39.8190   26.4070   34.3910 C   0  0  0  0  0  0  0  0  0  0  0  0
   39.1290   25.2260   34.6990 C   0  0  0  0  0  0  0  0  0  0  0  0
   37.9870   25.2950   34.0910 O   0  0  0  0  0  0  0  0  0  0  0  0
   39.1840   28.1120   33.1320 H   0  0  0  0  0  0  0  0  0  0  0  0
   40.8010   26.7880   34.6700 H   0  0  0  0  0  0  0  0  0  0  0  0
   39.0730   23.7620   36.7090 C   0  0  0  0  0  0  0  0  0  0  0  0
   39.7080   24.2010   35.5550 C   0  0  0  0  0  0  0  0  0  0  0  0
   40.9300   23.6790   35.1650 C   0  0  0  0  0  0  0  0  0  0  0  0
   41.5010   22.6990   35.9670 C   0  0  0  0  0  0  0  0  0  0  0  0
   42.6510   22.0310   35.8360 N   0  0  0  0  0  0  0  0  0  0  0  0
   42.7450   21.1930   36.8730 N   0  0  0  0  0  0  0  0  0  0  0  0
   41.6590   21.3340   37.6520 C   0  0  0  0  0  0  0  0  0  0  0  0
   40.8290   22.2950   37.1070 C   0  0  0  0  0  0  0  0  0  0  0  0
   39.6130   22.8060   37.5050 C   0  0  0  0  0  0  0  0  0  0  0  0
   38.1260   24.2340   36.9200 H   0  0  0  0  0  0  0  0  0  0  0  0
   41.4810   23.9750   34.2770 H   0  0  0  0  0  0  0  0  0  0  0  0
   43.3750   22.1140   35.0800 H   0  0  0  0  0  0  0  0  0  0  0  0
   41.4280   20.8020   38.5700 H   0  0  0  0  0  0  0  0  0  0  0  0
   39.1070   22.4740   38.4030 H   0  0  0  0  0  0  0  0  0  0  0  0
   36.7140   26.8400   32.6010 C   0  0  0  0  0  0  0  0  0  0  0  0
   36.1120   26.0040   31.8780 O   0  0  0  0  0  0  0  0  0  0  0  0
   36.3470   28.2330   32.6710 C   0  0  0  0  0  0  0  0  0  0  0  0
   36.6380   29.0310   31.5720 C   0  0  0  0  0  0  0  0  0  0  0  0
   36.2940   30.3740   31.6140 C   0  0  0  0  0  0  0  0  0  0  0  0
   35.6850   30.8320   32.7480 N   0  0  0  0  0  0  0  0  0  0  0  0
   35.4150   30.0530   33.7900 C   0  0  0  0  0  0  0  0  0  0  0  0
   35.7460   28.7530   33.7510 N   0  0  0  0  0  0  0  0  0  0  0  0
   37.1230   28.6140   30.6970 H   0  0  0  0  0  0  0  0  0  0  0  0
   36.5190   30.9890   30.7660 H   0  0  0  0  0  0  0  0  0  0  0  0
   34.7600   30.6500   34.9500 C   0  0  0  0  0  0  0  0  0  0  0  0
   33.4440   30.4130   35.2890 C   0  0  0  0  0  0  0  0  0  0  0  0
   32.8890   29.7520   34.6510 H   0  0  0  0  0  0  0  0  0  0  0  0
   32.9570   31.0440   36.4110 C   0  0  0  0  0  3  0  0  0  0  0  0
   33.6840   31.8800   37.2040 C   0  0  0  0  0  0  0  0  0  0  0  0
   33.3000   32.3750   38.0850 H   0  0  0  0  0  0  0  0  0  0  0  0
   35.0070   32.1340   36.8870 C   0  0  0  0  0  0  0  0  0  0  0  0
   35.6420   32.7860   37.4720 H   0  0  0  0  0  0  0  0  0  0  0  0
   35.5120   31.4980   35.7490 C   0  0  0  0  0  3  0  0  0  0  0  0
  1  2  2  0  0  0  0
  1  5  1  0  0  0  0
  2  3  1  0  0  0  0
  3  7  1  0  0  0  0
  3  4  2  0  0  0  0
  4  9  1  0  0  0  0
  5  4  1  0  0  0  0
  6  2  1  0  0  0  0
  8 17  1  0  0  0  0
  8 16  1  0  0  0  0
  9  8  2  0  0  0  0
 10  9  1  0  0  0  0
 10 11  2  0  0  0  0
 11 15  1  0  0  0  0
 12 11  1  0  0  0  0
 12 13  1  0  0  0  0
 13 14  2  0  0  0  0
 14 20  1  0  0  0  0
 15 16  2  0  0  0  0
 15 14  1  0  0  0  0
 16 21  1  0  0  0  0
 18 10  1  0  0  0  0
 19 12  1  0  0  0  0
 22 24  1  0  0  0  0
 22  1  1  0  0  0  0
 23 22  2  0  0  0  0
 24 29  1  0  0  0  0
 25 26  1  0  0  0  0
 25 24  2  0  0  0  0
 26 27  2  0  0  0  0
 27 28  1  0  0  0  0
 28 32  1  0  0  0  0
 29 28  2  0  0  0  0
 30 25  1  0  0  0  0
 31 26  1  0  0  0  0
 32 33  2  0  0  0  0
 32 40  1  0  0  0  0
 33 35  1  0  0  0  0
 34 33  1  0  0  0  0
 35 36  2  0  0  0  0
 36 37  1  0  0  0  0
 38 36  1  0  0  0  0
 38 39  1  0  0  0  0
 40 38  2  0  0  0  0
M  END
>  <minimizedAffinity>
-6.77558613

$$$$

 OpenBabel03272507153D

 40 44  0  0  0  0  0  0  0  0999 V2000
   36.8070   27.8450   32.8810 C   0  0  0  0  0  0  0  0  0  0  0  0
   36.7940   28.8460   31.9700 C   0  0  0  0  0  0  0  0  0  0  0  0
   36.1710   29.9470   32.5690 C   0  0  0  0  0  0  0  0  0  0  0  0
   35.8320   29.5190   33.8610 C   0  0  0  0  0  0  0  0  0  0  0  0
   36.2340   28.2910   33.9620 O   0  0  0  0  0  0  0  0  0  0  0  0
   37.1870   28.8350   30.9480 H   0  0  0  0  0  0  0  0  0  0  0  0
   36.0350   30.8890   32.0390 H   0  0  0  0  0  0  0  0  0  0  0  0
   35.8590   31.2420   35.6550 C   0  0  0  0  0  0  0  0  0  0  0  0
   35.1580   30.3960   34.8060 C   0  0  0  0  0  0  0  0  0  0  0  0
   33.7730   30.3490   34.8240 C   0  0  0  0  0  0  0  0  0  0  0  0
   33.1090   31.1770   35.7180 C   0  0  0  0  0  0  0  0  0  0  0  0
   31.8020   31.3380   35.9480 N   0  0  0  0  0  0  0  0  0  0  0  0
   31.6760   32.2560   36.9100 N   0  0  0  0  0  0  0  0  0  0  0  0
   32.8980   32.6710   37.2840 C   0  0  0  0  0  0  0  0  0  0  0  0
   33.8530   32.0030   36.5430 C   0  0  0  0  0  0  0  0  0  0  0  0
   35.2300   32.0580   36.5350 C   0  0  0  0  0  0  0  0  0  0  0  0
   36.9340   31.1990   35.5590 H   0  0  0  0  0  0  0  0  0  0  0  0
   33.1620   29.7130   34.1900 H   0  0  0  0  0  0  0  0  0  0  0  0
   30.9910   30.8560   35.4850 H   0  0  0  0  0  0  0  0  0  0  0  0
   33.1450   33.4090   38.0420 H   0  0  0  0  0  0  0  0  0  0  0  0
   35.7900   32.7120   37.1910 H   0  0  0  0  0  0  0  0  0  0  0  0
   37.3810   26.5460   32.5960 C   0  0  0  0  0  0  0  0  0  0  0  0
   38.5890   26.3380   32.8850 O   0  0  0  0  0  0  0  0  0  0  0  0
   36.5320   25.5500   31.9920 C   0  0  0  0  0  0  0  0  0  0  0  0
   35.4710   25.9960   31.2130 C   0  0  0  0  0  0  0  0  0  0  0  0
   34.6400   25.0570   30.6190 C   0  0  0  0  0  0  0  0  0  0  0  0
   34.9190   23.7380   30.8430 N   0  0  0  0  0  0  0  0  0  0  0  0
   35.9390   23.3310   31.5910 C   0  0  0  0  0  0  0  0  0  0  0  0
   36.7450   24.2370   32.1650 N   0  0  0  0  0  0  0  0  0  0  0  0
   35.2950   27.0550   31.0700 H   0  0  0  0  0  0  0  0  0  0  0  0
   33.8220   25.4010   30.0200 H   0  0  0  0  0  0  0  0  0  0  0  0
   36.1430   21.8950   31.7610 C   0  0  0  0  0  0  0  0  0  0  0  0
   37.0500   21.1620   31.0240 C   0  0  0  0  0  0  0  0  0  0  0  0
   37.6260   21.6950   30.2920 H   0  0  0  0  0  0  0  0  0  0  0  0
   37.1390   19.8150   31.2910 C   0  0  0  0  0  3  0  0  0  0  0  0
   36.3950   19.1620   32.2280 C   0  0  0  0  0  0  0  0  0  0  0  0
   36.4650   18.1040   32.4350 H   0  0  0  0  0  0  0  0  0  0  0  0
   35.4780   19.8750   32.9800 C   0  0  0  0  0  0  0  0  0  0  0  0
   34.8560   19.4220   33.7410 H   0  0  0  0  0  0  0  0  0  0  0  0
   35.3810   21.2450   32.7180 C   0  0  0  0  0  3  0  0  0  0  0  0
  1  5  1  0  0  0  0
  2  3  1  0  0  0  0
  2  1  2  0  0  0  0
  3  4  2  0  0  0  0
  4  5  1  0  0  0  0
  4  9  1  0  0  0  0
  6  2  1  0  0  0  0
  7  3  1  0  0  0  0
  8 16  1  0  0  0  0
  9 10  1  0  0  0  0
  9  8  2  0  0  0  0
 10 11  2  0  0  0  0
 11 12  1  0  0  0  0
 11 15  1  0  0  0  0
 12 13  1  0  0  0  0
 13 14  2  0  0  0  0
 14 20  1  0  0  0  0
 15 14  1  0  0  0  0
 16 15  2  0  0  0  0
 16 21  1  0  0  0  0
 17  8  1  0  0  0  0
 18 10  1  0  0  0  0
 19 12  1  0  0  0  0
 22  1  1  0  0  0  0
 22 23  2  0  0  0  0
 24 29  1  0  0  0  0
 24 22  1  0  0  0  0
 25 24  2  0  0  0  0
 26 27  2  0  0  0  0
 26 25  1  0  0  0  0
 27 28  1  0  0  0  0
 28 32  1  0  0  0  0
 28 29  2  0  0  0  0
 30 25  1  0  0  0  0
 31 26  1  0  0  0  0
 32 40  1  0  0  0  0
 33 35  1  0  0  0  0
 33 32  2  0  0  0  0
 34 33  1  0  0  0  0
 35 36  2  0  0  0  0
 36 37  1  0  0  0  0
 36 38  1  0  0  0  0
 38 39  1  0  0  0  0
 40 38  2  0  0  0  0
M  END
>  <minimizedAffinity>
-6.68380356

$$$$

 OpenBabel03272507153D

 40 44  0  0  0  0  0  0  0  0999 V2000
   37.4550   27.5960   32.8720 C   0  0  0  0  0  0  0  0  0  0  0  0
   36.7140   27.9670   31.8030 C   0  0  0  0  0  0  0  0  0  0  0  0
   35.6980   28.8080   32.2710 C   0  0  0  0  0  0  0  0  0  0  0  0
   35.9020   28.8950   33.6550 C   0  0  0  0  0  0  0  0  0  0  0  0
   36.9380   28.1640   33.9240 O   0  0  0  0  0  0  0  0  0  0  0  0
   36.8500   27.6820   30.7540 H   0  0  0  0  0  0  0  0  0  0  0  0
   34.9600   29.2460   31.6000 H   0  0  0  0  0  0  0  0  0  0  0  0
   33.6540   29.5470   34.4970 C   0  0  0  0  0  0  0  0  0  0  0  0
   35.0350   29.6920   34.5090 C   0  0  0  0  0  0  0  0  0  0  0  0
   35.6510   30.6120   35.3420 C   0  0  0  0  0  0  0  0  0  0  0  0
   34.8430   31.3840   36.1660 C   0  0  0  0  0  0  0  0  0  0  0  0
   35.1600   32.3310   37.0540 N   0  0  0  0  0  0  0  0  0  0  0  0
   34.0180   32.7740   37.5890 N   0  0  0  0  0  0  0  0  0  0  0  0
   32.9890   32.1070   37.0410 C   0  0  0  0  0  0  0  0  0  0  0  0
   33.4720   31.2000   36.1160 C   0  0  0  0  0  0  0  0  0  0  0  0
   32.8470   30.2900   35.2930 C   0  0  0  0  0  0  0  0  0  0  0  0
   33.2770   28.8020   33.8120 H   0  0  0  0  0  0  0  0  0  0  0  0
   36.7230   30.7780   35.4030 H   0  0  0  0  0  0  0  0  0  0  0  0
   36.1110   32.6930   37.3150 H   0  0  0  0  0  0  0  0  0  0  0  0
   31.9310   32.2270   37.2560 H   0  0  0  0  0  0  0  0  0  0  0  0
   31.7710   30.1660   35.2720 H   0  0  0  0  0  0  0  0  0  0  0  0
   38.6010   26.7160   32.7540 C   0  0  0  0  0  0  0  0  0  0  0  0
   39.6140   27.1200   32.1260 O   0  0  0  0  0  0  0  0  0  0  0  0
   38.5190   25.4150   33.3690 C   0  0  0  0  0  0  0  0  0  0  0  0
   39.3200   25.1750   34.4780 C   0  0  0  0  0  0  0  0  0  0  0  0
   39.2580   23.9300   35.0880 C   0  0  0  0  0  0  0  0  0  0  0  0
   38.4050   23.0090   34.5510 N   0  0  0  0  0  0  0  0  0  0  0  0
   37.6450   23.2570   33.4900 C   0  0  0  0  0  0  0  0  0  0  0  0
   37.7030   24.4600   32.8990 N   0  0  0  0  0  0  0  0  0  0  0  0
   39.9800   25.9430   34.8610 H   0  0  0  0  0  0  0  0  0  0  0  0
   39.8770   23.7460   35.9420 H   0  0  0  0  0  0  0  0  0  0  0  0
   36.7690   22.1960   33.0020 C   0  0  0  0  0  0  0  0  0  0  0  0
   36.3750   21.1200   33.7700 C   0  0  0  0  0  0  0  0  0  0  0  0
   36.7450   21.0790   34.7760 H   0  0  0  0  0  0  0  0  0  0  0  0
   35.5440   20.1940   33.1800 C   0  0  0  0  0  3  0  0  0  0  0  0
   35.0890   20.2690   31.8980 C   0  0  0  0  0  0  0  0  0  0  0  0
   34.4380   19.5410   31.4360 H   0  0  0  0  0  0  0  0  0  0  0  0
   35.4700   21.3390   31.1070 C   0  0  0  0  0  0  0  0  0  0  0  0
   35.1460   21.4630   30.0820 H   0  0  0  0  0  0  0  0  0  0  0  0
   36.3130   22.2870   31.6960 C   0  0  0  0  0  3  0  0  0  0  0  0
  1  5  1  0  0  0  0
  2  3  1  0  0  0  0
  2  1  2  0  0  0  0
  3  4  2  0  0  0  0
  4  5  1  0  0  0  0
  4  9  1  0  0  0  0
  6  2  1  0  0  0  0
  7  3  1  0  0  0  0
  8  9  2  0  0  0  0
  8 16  1  0  0  0  0
  9 10  1  0  0  0  0
 10 18  1  0  0  0  0
 10 11  2  0  0  0  0
 11 12  1  0  0  0  0
 12 19  1  0  0  0  0
 12 13  1  0  0  0  0
 14 20  1  0  0  0  0
 14 13  2  0  0  0  0
 15 11  1  0  0  0  0
 15 14  1  0  0  0  0
 16 15  2  0  0  0  0
 17  8  1  0  0  0  0
 21 16  1  0  0  0  0
 22  1  1  0  0  0  0
 22 24  1  0  0  0  0
 23 22  2  0  0  0  0
 24 25  1  0  0  0  0
 25 30  1  0  0  0  0
 25 26  2  0  0  0  0
 26 31  1  0  0  0  0
 27 26  1  0  0  0  0
 28 27  2  0  0  0  0
 29 24  2  0  0  0  0
 29 28  1  0  0  0  0
 32 28  1  0  0  0  0
 32 33  1  0  0  0  0
 33 34  1  0  0  0  0
 35 33  2  0  0  0  0
 36 35  1  0  0  0  0
 37 36  1  0  0  0  0
 38 40  1  0  0  0  0
 38 36  2  0  0  0  0
 39 38  1  0  0  0  0
 40 32  2  0  0  0  0
M  END
>  <minimizedAffinity>
-6.64744854

$$$$
