
 OpenBabel03262520133D

 42 44  0  0  0  0  0  0  0  0999 V2000
   35.2910   30.5180   49.4950 C   0  0  0  0  0  0  0  0  0  0  0  0
   34.8910   31.5230   49.7520 H   0  0  0  0  0  0  0  0  0  0  0  0
   36.1580   30.3840   50.2000 H   0  0  0  0  0  0  0  0  0  0  0  0
   38.1990   31.6610   48.9830 Br  0  0  0  0  0  0  0  0  0  0  0  0
   36.9590   30.9940   47.6790 C   0  0  0  0  0  0  0  0  0  0  0  0
   37.2960   30.9770   46.3450 C   0  0  0  0  0  0  0  0  0  0  0  0
   36.3690   30.4970   45.4550 C   0  0  0  0  0  0  0  0  0  0  0  0
   35.1270   30.0380   45.8490 C   0  0  0  0  0  0  0  0  0  0  0  0
   34.8190   30.0710   47.2180 C   0  0  0  0  0  0  0  0  0  0  0  0
   35.7400   30.5480   48.1080 C   0  0  0  0  0  0  0  0  0  0  0  0
   36.6970   30.5070   44.4020 H   0  0  0  0  0  0  0  0  0  0  0  0
   34.5270   29.6990   45.0300 H   0  0  0  0  0  0  0  0  0  0  0  0
   33.8290   29.6940   47.3040 H   0  0  0  0  0  0  0  0  0  0  0  0
   39.8250   33.2490   45.0220 C   0  0  0  0  0  0  0  0  0  0  0  0
   41.0130   32.4540   44.9990 C   0  0  0  0  0  0  0  0  0  0  0  0
   40.9040   31.1550   45.4420 C   0  0  0  0  0  0  0  0  0  0  0  0
   39.6910   30.6710   45.8830 N   0  0  0  0  0  0  0  0  0  0  0  0
   38.6020   31.4630   45.8830 C   0  0  0  0  0  0  0  0  0  0  0  0
   38.6850   32.7320   45.4560 N   0  0  0  0  0  0  0  0  0  0  0  0
   39.9180   34.2640   44.6740 H   0  0  0  0  0  0  0  0  0  0  0  0
   41.9680   32.8360   44.6520 H   0  0  0  0  0  0  0  0  0  0  0  0
   41.7460   30.4800   45.4610 H   0  0  0  0  0  0  0  0  0  0  0  0
   34.2630   29.5080   49.8590 C   0  0  0  0  0  0  0  0  0  0  0  0
   33.2600   29.7790   49.5930 H   0  0  0  0  0  0  0  0  0  0  0  0
   34.2450   29.5610   51.0050 H   0  0  0  0  0  0  0  0  0  0  0  0
   34.7630   28.2100   49.5850 N   0  0  0  0  0  0  0  0  0  0  0  0
   35.3190   27.7690   50.3340 H   0  0  0  0  0  0  0  0  0  0  0  0
   33.9540   27.3520   48.8020 C   0  0  0  0  0  0  0  0  0  0  0  0
   34.3140   27.2560   47.7580 H   0  0  0  0  0  0  0  0  0  0  0  0
   33.9450   26.3510   49.3110 H   0  0  0  0  0  0  0  0  0  0  0  0
   32.5530   27.8520   48.8210 C   0  0  0  0  0  0  0  0  0  0  0  0
   32.0330   27.6720   49.7860 H   0  0  0  0  0  0  0  0  0  0  0  0
   32.3140   28.8080   48.3660 H   0  0  0  0  0  0  0  0  0  0  0  0
   31.8200   26.8840   47.8790 C   0  0  0  0  0  0  0  0  0  0  0  0
   32.4900   25.8010   47.3140 C   0  0  0  0  0  0  0  0  0  0  0  0
   33.5470   25.6400   47.5440 H   0  0  0  0  0  0  0  0  0  0  0  0
   31.8750   24.9250   46.4780 C   0  0  0  0  0  0  0  0  0  0  0  0
   30.5510   25.0990   46.1690 C   0  0  0  0  0  0  0  0  0  0  0  0
   29.9470   24.4810   45.5230 H   0  0  0  0  0  0  0  0  0  0  0  0
   29.8630   26.1640   46.7150 C   0  0  0  0  0  0  0  0  0  0  0  0
   28.8200   26.4220   46.5600 H   0  0  0  0  0  0  0  0  0  0  0  0
   30.4790   27.0590   47.5660 C   0  0  0  0  0  0  0  0  0  0  0  0
  1  2  1  0  0  0  0
  1 23  1  0  0  0  0
  1  3  1  0  0  0  0
  5 10  1  0  0  0  0
  5  4  1  0  0  0  0
  6  5  2  0  0  0  0
  7  8  2  0  0  0  0
  7  6  1  0  0  0  0
  8  9  1  0  0  0  0
  9 13  1  0  0  0  0
  9 10  2  0  0  0  0
 10  1  1  0  0  0  0
 11  7  1  0  0  0  0
 12  8  1  0  0  0  0
 14 19  1  0  0  0  0
 15 14  2  0  0  0  0
 15 16  1  0  0  0  0
 16 22  1  0  0  0  0
 16 17  2  0  0  0  0
 17 18  1  0  0  0  0
 18  6  1  0  0  0  0
 19 18  2  0  0  0  0
 20 14  1  0  0  0  0
 21 15  1  0  0  0  0
 23 25  1  0  0  0  0
 24 23  1  0  0  0  0
 26 23  1  0  0  0  0
 26 27  1  0  0  0  0
 28 31  1  0  0  0  0
 28 30  1  0  0  0  0
 28 26  1  0  0  0  0
 29 28  1  0  0  0  0
 31 32  1  0  0  0  0
 33 31  1  0  0  0  0
 34 31  1  0  0  0  0
 35 36  1  0  0  0  0
 35 34  2  0  0  0  0
 37 35  1  0  0  0  0
 38 37  2  0  0  0  0
 38 40  1  0  0  0  0
 39 38  1  0  0  0  0
 40 42  2  0  0  0  0
 41 40  1  0  0  0  0
 42 34  1  0  0  0  0
M  END
>  <minimizedAffinity>
-5.32677269

>  <minimizedRMSD>
0.37795645

$$$$
