
 OpenBabel03262520143D

 42 44  0  0  0  0  0  0  0  0999 V2000
   37.4590   27.5410   32.4480 C   0  0  0  0  0  0  0  0  0  0  0  0
   38.4390   27.9110   32.0770 H   0  0  0  0  0  0  0  0  0  0  0  0
   37.2260   28.2160   33.3180 H   0  0  0  0  0  0  0  0  0  0  0  0
   38.2440   27.1130   35.4850 Br  0  0  0  0  0  0  0  0  0  0  0  0
   37.9570   25.7630   34.1510 C   0  0  0  0  0  0  0  0  0  0  0  0
   38.0900   24.4320   34.4700 C   0  0  0  0  0  0  0  0  0  0  0  0
   37.8820   23.5100   33.4750 C   0  0  0  0  0  0  0  0  0  0  0  0
   37.5490   23.8700   32.1840 C   0  0  0  0  0  0  0  0  0  0  0  0
   37.4230   25.2380   31.8960 C   0  0  0  0  0  0  0  0  0  0  0  0
   37.6290   26.1600   32.8840 C   0  0  0  0  0  0  0  0  0  0  0  0
   38.0010   22.4600   33.7920 H   0  0  0  0  0  0  0  0  0  0  0  0
   37.4220   23.0300   31.5350 H   0  0  0  0  0  0  0  0  0  0  0  0
   37.1810   25.2990   30.8630 H   0  0  0  0  0  0  0  0  0  0  0  0
   37.8220   23.8960   38.0680 C   0  0  0  0  0  0  0  0  0  0  0  0
   39.0470   23.2390   38.4030 C   0  0  0  0  0  0  0  0  0  0  0  0
   39.9290   22.9990   37.3730 C   0  0  0  0  0  0  0  0  0  0  0  0
   39.6180   23.3880   36.0880 N   0  0  0  0  0  0  0  0  0  0  0  0
   38.4500   24.0060   35.8280 C   0  0  0  0  0  0  0  0  0  0  0  0
   37.5750   24.2480   36.8160 N   0  0  0  0  0  0  0  0  0  0  0  0
   37.1370   24.0800   38.8790 H   0  0  0  0  0  0  0  0  0  0  0  0
   39.2910   22.9320   39.4160 H   0  0  0  0  0  0  0  0  0  0  0  0
   40.8780   22.5100   37.5290 H   0  0  0  0  0  0  0  0  0  0  0  0
   36.4410   27.8050   31.3970 C   0  0  0  0  0  0  0  0  0  0  0  0
   36.0480   26.9240   30.9280 H   0  0  0  0  0  0  0  0  0  0  0  0
   37.0580   28.2850   30.5570 H   0  0  0  0  0  0  0  0  0  0  0  0
   35.5820   28.8480   31.8260 N   0  0  0  0  0  0  0  0  0  0  0  0
   34.6460   28.8730   31.3940 H   0  0  0  0  0  0  0  0  0  0  0  0
   35.6710   29.2480   33.1800 C   0  0  0  0  0  0  0  0  0  0  0  0
   36.2890   28.5620   33.7930 H   0  0  0  0  0  0  0  0  0  0  0  0
   36.1020   30.2850   33.1910 H   0  0  0  0  0  0  0  0  0  0  0  0
   34.2990   29.3510   33.7490 C   0  0  0  0  0  0  0  0  0  0  0  0
   33.5790   29.8650   33.0750 H   0  0  0  0  0  0  0  0  0  0  0  0
   33.8710   28.5110   34.2860 H   0  0  0  0  0  0  0  0  0  0  0  0
   34.4620   30.3770   34.8820 C   0  0  0  0  0  0  0  0  0  0  0  0
   33.3700   30.7520   35.6600 C   0  0  0  0  0  0  0  0  0  0  0  0
   32.3880   30.3120   35.4620 H   0  0  0  0  0  0  0  0  0  0  0  0
   33.4760   31.6550   36.6700 C   0  0  0  0  0  3  0  0  0  0  0  0
   34.6930   32.2240   36.9440 C   0  0  0  0  0  0  0  0  0  0  0  0
   34.9130   32.9500   37.7120 H   0  0  0  0  0  0  0  0  0  0  0  0
   35.7920   31.8700   36.1880 C   0  0  0  0  0  0  0  0  0  0  0  0
   36.8080   32.2380   36.2910 H   0  0  0  0  0  0  0  0  0  0  0  0
   35.6940   30.9540   35.1600 C   0  0  0  0  0  3  0  0  0  0  0  0
  1 10  1  0  0  0  0
  1  3  1  0  0  0  0
  2  1  1  0  0  0  0
  5  6  1  0  0  0  0
  5  4  1  0  0  0  0
  6 18  1  0  0  0  0
  7 11  1  0  0  0  0
  7  6  2  0  0  0  0
  8  7  1  0  0  0  0
  9  8  2  0  0  0  0
  9 10  1  0  0  0  0
 10  5  2  0  0  0  0
 12  8  1  0  0  0  0
 13  9  1  0  0  0  0
 14 15  1  0  0  0  0
 14 20  1  0  0  0  0
 15 21  1  0  0  0  0
 16 22  1  0  0  0  0
 16 15  2  0  0  0  0
 17 16  1  0  0  0  0
 18 17  2  0  0  0  0
 18 19  1  0  0  0  0
 19 14  2  0  0  0  0
 23 26  1  0  0  0  0
 23  1  1  0  0  0  0
 24 23  1  0  0  0  0
 25 23  1  0  0  0  0
 26 28  1  0  0  0  0
 27 26  1  0  0  0  0
 28 30  1  0  0  0  0
 28 31  1  0  0  0  0
 28 29  1  0  0  0  0
 31 33  1  0  0  0  0
 31 34  1  0  0  0  0
 32 31  1  0  0  0  0
 34 42  2  0  0  0  0
 34 35  1  0  0  0  0
 35 37  2  0  0  0  0
 36 35  1  0  0  0  0
 37 38  1  0  0  0  0
 38 39  1  0  0  0  0
 40 41  1  0  0  0  0
 40 38  2  0  0  0  0
 42 40  1  0  0  0  0
M  END
>  <minimizedAffinity>
-5.65884781

$$$$

 OpenBabel03262520143D

 42 44  0  0  0  0  0  0  0  0999 V2000
   38.5700   26.7210   32.2390 C   0  0  0  0  0  0  0  0  0  0  0  0
   38.8940   26.7400   33.3020 H   0  0  0  0  0  0  0  0  0  0  0  0
   39.5070   26.9690   31.6660 H   0  0  0  0  0  0  0  0  0  0  0  0
   37.0800   27.7100   34.8520 Br  0  0  0  0  0  0  0  0  0  0  0  0
   36.8050   28.3130   33.0510 C   0  0  0  0  0  0  0  0  0  0  0  0
   35.8700   29.2850   32.7800 C   0  0  0  0  0  0  0  0  0  0  0  0
   35.7080   29.6720   31.4730 C   0  0  0  0  0  0  0  0  0  0  0  0
   36.4440   29.1270   30.4380 C   0  0  0  0  0  0  0  0  0  0  0  0
   37.3880   28.1380   30.7540 C   0  0  0  0  0  0  0  0  0  0  0  0
   37.5530   27.7490   32.0550 C   0  0  0  0  0  0  0  0  0  0  0  0
   34.9460   30.4540   31.3180 H   0  0  0  0  0  0  0  0  0  0  0  0
   36.1940   29.5410   29.4840 H   0  0  0  0  0  0  0  0  0  0  0  0
   37.8270   27.8460   29.8320 H   0  0  0  0  0  0  0  0  0  0  0  0
   34.9130   31.5300   35.4910 C   0  0  0  0  0  0  0  0  0  0  0  0
   33.6120   31.0700   35.8660 C   0  0  0  0  0  0  0  0  0  0  0  0
   33.1040   29.9970   35.1690 C   0  0  0  0  0  0  0  0  0  0  0  0
   33.8400   29.4120   34.1600 N   0  0  0  0  0  0  0  0  0  0  0  0
   35.0620   29.8850   33.8480 C   0  0  0  0  0  0  0  0  0  0  0  0
   35.5760   30.9300   34.5140 N   0  0  0  0  0  0  0  0  0  0  0  0
   35.3040   32.3700   36.0400 H   0  0  0  0  0  0  0  0  0  0  0  0
   33.0330   31.5310   36.6600 H   0  0  0  0  0  0  0  0  0  0  0  0
   32.1320   29.5800   35.3810 H   0  0  0  0  0  0  0  0  0  0  0  0
   38.1980   25.3230   31.8960 C   0  0  0  0  0  0  0  0  0  0  0  0
   38.9500   24.7840   31.3540 H   0  0  0  0  0  0  0  0  0  0  0  0
   37.3720   25.4620   31.1130 H   0  0  0  0  0  0  0  0  0  0  0  0
   37.5290   24.7310   32.9970 N   0  0  0  0  0  0  0  0  0  0  0  0
   36.5030   24.6580   32.9200 H   0  0  0  0  0  0  0  0  0  0  0  0
   38.1940   23.6840   33.6780 C   0  0  0  0  0  0  0  0  0  0  0  0
   37.5480   23.1750   34.4210 H   0  0  0  0  0  0  0  0  0  0  0  0
   38.5500   22.9570   32.9000 H   0  0  0  0  0  0  0  0  0  0  0  0
   39.4100   24.2290   34.3400 C   0  0  0  0  0  0  0  0  0  0  0  0
   40.3260   23.6330   34.1400 H   0  0  0  0  0  0  0  0  0  0  0  0
   39.5810   25.3010   34.3600 H   0  0  0  0  0  0  0  0  0  0  0  0
   39.1610   23.9410   35.8290 C   0  0  0  0  0  0  0  0  0  0  0  0
   40.0110   23.0970   36.5390 C   0  0  0  0  0  0  0  0  0  0  0  0
   40.8640   22.6370   36.0320 H   0  0  0  0  0  0  0  0  0  0  0  0
   39.8230   22.8190   37.8560 C   0  0  0  0  0  3  0  0  0  0  0  0
   38.7630   23.3800   38.5210 C   0  0  0  0  0  0  0  0  0  0  0  0
   38.5010   23.2430   39.5590 H   0  0  0  0  0  0  0  0  0  0  0  0
   37.9040   24.2200   37.8410 C   0  0  0  0  0  0  0  0  0  0  0  0
   37.0320   24.7300   38.2370 H   0  0  0  0  0  0  0  0  0  0  0  0
   38.0880   24.5090   36.5040 C   0  0  0  0  0  3  0  0  0  0  0  0
  1  2  1  0  0  0  0
  3  1  1  0  0  0  0
  5  4  1  0  0  0  0
  6  5  1  0  0  0  0
  6 18  1  0  0  0  0
  7  6  2  0  0  0  0
  8  9  2  0  0  0  0
  8  7  1  0  0  0  0
  9 10  1  0  0  0  0
 10  1  1  0  0  0  0
 10  5  2  0  0  0  0
 11  7  1  0  0  0  0
 12  8  1  0  0  0  0
 13  9  1  0  0  0  0
 14 15  1  0  0  0  0
 14 20  1  0  0  0  0
 15 21  1  0  0  0  0
 16 22  1  0  0  0  0
 16 15  2  0  0  0  0
 17 16  1  0  0  0  0
 18 17  2  0  0  0  0
 18 19  1  0  0  0  0
 19 14  2  0  0  0  0
 23  1  1  0  0  0  0
 23 26  1  0  0  0  0
 24 23  1  0  0  0  0
 25 23  1  0  0  0  0
 26 28  1  0  0  0  0
 27 26  1  0  0  0  0
 28 31  1  0  0  0  0
 28 29  1  0  0  0  0
 30 28  1  0  0  0  0
 31 33  1  0  0  0  0
 31 34  1  0  0  0  0
 32 31  1  0  0  0  0
 34 42  2  0  0  0  0
 34 35  1  0  0  0  0
 35 37  2  0  0  0  0
 36 35  1  0  0  0  0
 37 38  1  0  0  0  0
 38 39  1  0  0  0  0
 40 41  1  0  0  0  0
 40 38  2  0  0  0  0
 42 40  1  0  0  0  0
M  END
>  <minimizedAffinity>
-5.3318243

$$$$

 OpenBabel03262520143D

 42 44  0  0  0  0  0  0  0  0999 V2000
   38.2660   26.1590   32.2570 C   0  0  0  0  0  0  0  0  0  0  0  0
   38.9680   26.2200   31.3970 H   0  0  0  0  0  0  0  0  0  0  0  0
   38.8830   25.6950   33.0760 H   0  0  0  0  0  0  0  0  0  0  0  0
   38.6400   23.0670   32.8280 Br  0  0  0  0  0  0  0  0  0  0  0  0
   37.1170   23.9350   32.0480 C   0  0  0  0  0  0  0  0  0  0  0  0
   36.0200   23.2000   31.6640 C   0  0  0  0  0  0  0  0  0  0  0  0
   34.9620   23.8710   31.1030 C   0  0  0  0  0  0  0  0  0  0  0  0
   34.9630   25.2400   30.9160 C   0  0  0  0  0  0  0  0  0  0  0  0
   36.1010   25.9560   31.3190 C   0  0  0  0  0  0  0  0  0  0  0  0
   37.1570   25.2910   31.8790 C   0  0  0  0  0  0  0  0  0  0  0  0
   34.1120   23.2280   30.8180 H   0  0  0  0  0  0  0  0  0  0  0  0
   34.0620   25.6010   30.4680 H   0  0  0  0  0  0  0  0  0  0  0  0
   35.9080   26.9720   31.0780 H   0  0  0  0  0  0  0  0  0  0  0  0
   35.5100   19.9610   33.2640 C   0  0  0  0  0  0  0  0  0  0  0  0
   35.8740   19.0230   32.2490 C   0  0  0  0  0  0  0  0  0  0  0  0
   36.2840   19.5390   31.0390 C   0  0  0  0  0  0  0  0  0  0  0  0
   36.3320   20.9030   30.8470 N   0  0  0  0  0  0  0  0  0  0  0  0
   35.9790   21.7430   31.8380 C   0  0  0  0  0  0  0  0  0  0  0  0
   35.5760   21.2620   33.0240 N   0  0  0  0  0  0  0  0  0  0  0  0
   35.1910   19.5510   34.2070 H   0  0  0  0  0  0  0  0  0  0  0  0
   35.8350   17.9490   32.4010 H   0  0  0  0  0  0  0  0  0  0  0  0
   36.5780   18.9090   30.2140 H   0  0  0  0  0  0  0  0  0  0  0  0
   37.9360   27.5450   32.6810 C   0  0  0  0  0  0  0  0  0  0  0  0
   37.3020   28.0780   32.0000 H   0  0  0  0  0  0  0  0  0  0  0  0
   38.9390   28.0910   32.5750 H   0  0  0  0  0  0  0  0  0  0  0  0
   37.6850   27.5620   34.0760 N   0  0  0  0  0  0  0  0  0  0  0  0
   38.4820   27.8170   34.6790 H   0  0  0  0  0  0  0  0  0  0  0  0
   36.4030   27.9820   34.5020 C   0  0  0  0  0  0  0  0  0  0  0  0
   35.6480   27.1710   34.4600 H   0  0  0  0  0  0  0  0  0  0  0  0
   36.5120   28.3660   35.5510 H   0  0  0  0  0  0  0  0  0  0  0  0
   35.9660   29.1350   33.6690 C   0  0  0  0  0  0  0  0  0  0  0  0
   36.8110   29.7540   33.2940 H   0  0  0  0  0  0  0  0  0  0  0  0
   35.1630   29.0110   32.9500 H   0  0  0  0  0  0  0  0  0  0  0  0
   35.3080   30.0780   34.6880 C   0  0  0  0  0  0  0  0  0  0  0  0
   33.9260   30.0880   34.8550 C   0  0  0  0  0  0  0  0  0  0  0  0
   33.3040   29.4180   34.2540 H   0  0  0  0  0  0  0  0  0  0  0  0
   33.3090   30.9070   35.7460 C   0  0  0  0  0  3  0  0  0  0  0  0
   34.0600   31.7590   36.5140 C   0  0  0  0  0  0  0  0  0  0  0  0
   33.6980   32.4570   37.2540 H   0  0  0  0  0  0  0  0  0  0  0  0
   35.4320   31.7700   36.3690 C   0  0  0  0  0  0  0  0  0  0  0  0
   36.1460   32.3870   36.9070 H   0  0  0  0  0  0  0  0  0  0  0  0
   36.0670   30.9410   35.4670 C   0  0  0  0  0  3  0  0  0  0  0  0
  1 23  1  0  0  0  0
  1  3  1  0  0  0  0
  2  1  1  0  0  0  0
  5  4  1  0  0  0  0
  6 18  1  0  0  0  0
  6  5  2  0  0  0  0
  7  6  1  0  0  0  0
  8  7  2  0  0  0  0
  8  9  1  0  0  0  0
  9 10  2  0  0  0  0
 10  5  1  0  0  0  0
 10  1  1  0  0  0  0
 11  7  1  0  0  0  0
 12  8  1  0  0  0  0
 13  9  1  0  0  0  0
 14 20  1  0  0  0  0
 15 21  1  0  0  0  0
 15 14  2  0  0  0  0
 16 15  1  0  0  0  0
 17 16  2  0  0  0  0
 17 18  1  0  0  0  0
 18 19  2  0  0  0  0
 19 14  1  0  0  0  0
 22 16  1  0  0  0  0
 23 26  1  0  0  0  0
 24 23  1  0  0  0  0
 25 23  1  0  0  0  0
 26 28  1  0  0  0  0
 26 27  1  0  0  0  0
 28 30  1  0  0  0  0
 29 28  1  0  0  0  0
 31 28  1  0  0  0  0
 31 34  1  0  0  0  0
 32 31  1  0  0  0  0
 33 31  1  0  0  0  0
 34 35  2  0  0  0  0
 34 42  1  0  0  0  0
 35 37  1  0  0  0  0
 36 35  1  0  0  0  0
 37 38  2  0  0  0  0
 38 39  1  0  0  0  0
 40 38  1  0  0  0  0
 40 41  1  0  0  0  0
 42 40  2  0  0  0  0
M  END
>  <minimizedAffinity>
-5.31271124

$$$$

 OpenBabel03262520143D

 42 44  0  0  0  0  0  0  0  0999 V2000
   36.4550   27.3090   31.1800 C   0  0  0  0  0  0  0  0  0  0  0  0
   37.4700   27.3590   30.7320 H   0  0  0  0  0  0  0  0  0  0  0  0
   35.8560   28.0490   30.5790 H   0  0  0  0  0  0  0  0  0  0  0  0
   34.8760   29.9330   31.9840 Br  0  0  0  0  0  0  0  0  0  0  0  0
   35.9420   28.8160   33.1230 C   0  0  0  0  0  0  0  0  0  0  0  0
   36.0880   29.1220   34.4560 C   0  0  0  0  0  0  0  0  0  0  0  0
   36.8690   28.2940   35.2230 C   0  0  0  0  0  0  0  0  0  0  0  0
   37.5020   27.1790   34.7080 C   0  0  0  0  0  0  0  0  0  0  0  0
   37.3290   26.9000   33.3430 C   0  0  0  0  0  0  0  0  0  0  0  0
   36.5520   27.7220   32.5750 C   0  0  0  0  0  0  0  0  0  0  0  0
   36.9470   28.5900   36.2830 H   0  0  0  0  0  0  0  0  0  0  0  0
   38.0690   26.6450   35.4400 H   0  0  0  0  0  0  0  0  0  0  0  0
   37.9010   26.0250   33.1490 H   0  0  0  0  0  0  0  0  0  0  0  0
   33.4450   31.2940   35.7230 C   0  0  0  0  0  0  0  0  0  0  0  0
   34.1440   32.4700   36.1370 C   0  0  0  0  0  0  0  0  0  0  0  0
   35.5100   32.4770   35.9660 C   0  0  0  0  0  0  0  0  0  0  0  0
   36.1470   31.3840   35.4170 N   0  0  0  0  0  0  0  0  0  0  0  0
   35.4390   30.3010   35.0430 C   0  0  0  0  0  0  0  0  0  0  0  0
   34.1070   30.2730   35.2010 N   0  0  0  0  0  0  0  0  0  0  0  0
   32.3760   31.2960   35.8590 H   0  0  0  0  0  0  0  0  0  0  0  0
   33.6420   33.3300   36.5690 H   0  0  0  0  0  0  0  0  0  0  0  0
   36.1220   33.3200   36.2480 H   0  0  0  0  0  0  0  0  0  0  0  0
   35.8970   25.9590   30.9050 C   0  0  0  0  0  0  0  0  0  0  0  0
   34.9350   25.9640   30.4300 H   0  0  0  0  0  0  0  0  0  0  0  0
   35.6600   25.5600   31.9540 H   0  0  0  0  0  0  0  0  0  0  0  0
   36.9320   25.1080   30.4430 N   0  0  0  0  0  0  0  0  0  0  0  0
   37.8560   25.5470   30.3050 H   0  0  0  0  0  0  0  0  0  0  0  0
   36.9250   23.7680   30.8960 C   0  0  0  0  0  0  0  0  0  0  0  0
   37.1280   23.0380   30.0870 H   0  0  0  0  0  0  0  0  0  0  0  0
   37.7000   23.6880   31.7050 H   0  0  0  0  0  0  0  0  0  0  0  0
   35.6120   23.4770   31.5340 C   0  0  0  0  0  0  0  0  0  0  0  0
   35.5170   23.8950   32.5600 H   0  0  0  0  0  0  0  0  0  0  0  0
   34.7000   23.5400   30.9500 H   0  0  0  0  0  0  0  0  0  0  0  0
   35.6820   21.9670   31.8120 C   0  0  0  0  0  0  0  0  0  0  0  0
   35.4780   21.4730   33.0980 C   0  0  0  0  0  0  0  0  0  0  0  0
   35.2680   22.1670   33.9170 H   0  0  0  0  0  0  0  0  0  0  0  0
   35.5320   20.1450   33.3820 C   0  0  0  0  0  3  0  0  0  0  0  0
   35.7950   19.2490   32.3780 C   0  0  0  0  0  0  0  0  0  0  0  0
   35.8650   18.1750   32.4670 H   0  0  0  0  0  0  0  0  0  0  0  0
   36.0000   19.7110   31.0940 C   0  0  0  0  0  0  0  0  0  0  0  0
   36.2150   19.1210   30.2080 H   0  0  0  0  0  0  0  0  0  0  0  0
   35.9470   21.0580   30.7960 C   0  0  0  0  0  3  0  0  0  0  0  0
  1 10  1  0  0  0  0
  2  1  1  0  0  0  0
  3  1  1  0  0  0  0
  4  5  1  0  0  0  0
  5  6  1  0  0  0  0
  6 18  1  0  0  0  0
  6  7  2  0  0  0  0
  7 11  1  0  0  0  0
  8  7  1  0  0  0  0
  8 12  1  0  0  0  0
  9  8  2  0  0  0  0
 10  5  2  0  0  0  0
 10  9  1  0  0  0  0
 13  9  1  0  0  0  0
 14 20  1  0  0  0  0
 14 15  1  0  0  0  0
 15 21  1  0  0  0  0
 16 15  2  0  0  0  0
 16 22  1  0  0  0  0
 17 16  1  0  0  0  0
 18 19  1  0  0  0  0
 18 17  2  0  0  0  0
 19 14  2  0  0  0  0
 23  1  1  0  0  0  0
 23 25  1  0  0  0  0
 24 23  1  0  0  0  0
 26 28  1  0  0  0  0
 26 23  1  0  0  0  0
 27 26  1  0  0  0  0
 28 31  1  0  0  0  0
 28 30  1  0  0  0  0
 29 28  1  0  0  0  0
 31 34  1  0  0  0  0
 31 32  1  0  0  0  0
 33 31  1  0  0  0  0
 34 35  1  0  0  0  0
 35 37  2  0  0  0  0
 35 36  1  0  0  0  0
 38 39  1  0  0  0  0
 38 37  1  0  0  0  0
 40 38  2  0  0  0  0
 41 40  1  0  0  0  0
 42 40  1  0  0  0  0
 42 34  2  0  0  0  0
M  END
>  <minimizedAffinity>
-5.30812883

$$$$

 OpenBabel03262520143D

 42 44  0  0  0  0  0  0  0  0999 V2000
   38.2060   27.0810   32.1540 C   0  0  0  0  0  0  0  0  0  0  0  0
   39.0430   27.6270   32.6400 H   0  0  0  0  0  0  0  0  0  0  0  0
   37.3010   27.7060   32.3940 H   0  0  0  0  0  0  0  0  0  0  0  0
   38.8230   26.9100   35.2550 Br  0  0  0  0  0  0  0  0  0  0  0  0
   38.3270   25.4750   34.0800 C   0  0  0  0  0  0  0  0  0  0  0  0
   38.2050   24.1930   34.5640 C   0  0  0  0  0  0  0  0  0  0  0  0
   37.8570   23.2030   33.6780 C   0  0  0  0  0  0  0  0  0  0  0  0
   37.6280   23.4500   32.3380 C   0  0  0  0  0  0  0  0  0  0  0  0
   37.7630   24.7710   31.8820 C   0  0  0  0  0  0  0  0  0  0  0  0
   38.1090   25.7600   32.7610 C   0  0  0  0  0  0  0  0  0  0  0  0
   37.7740   22.1980   34.1250 H   0  0  0  0  0  0  0  0  0  0  0  0
   37.3660   22.5700   31.7900 H   0  0  0  0  0  0  0  0  0  0  0  0
   37.5620   24.7420   30.8390 H   0  0  0  0  0  0  0  0  0  0  0  0
   39.9050   22.9860   37.5570 C   0  0  0  0  0  0  0  0  0  0  0  0
   38.9800   23.2740   38.6090 C   0  0  0  0  0  0  0  0  0  0  0  0
   37.7960   23.8780   38.2510 C   0  0  0  0  0  0  0  0  0  0  0  0
   37.5410   24.1790   36.9300 N   0  0  0  0  0  0  0  0  0  0  0  0
   38.4470   23.8850   35.9790 C   0  0  0  0  0  0  0  0  0  0  0  0
   39.6080   23.2970   36.3050 N   0  0  0  0  0  0  0  0  0  0  0  0
   40.8290   22.5130   37.8450 H   0  0  0  0  0  0  0  0  0  0  0  0
   39.1820   23.0370   39.6490 H   0  0  0  0  0  0  0  0  0  0  0  0
   37.0370   24.1330   38.9750 H   0  0  0  0  0  0  0  0  0  0  0  0
   38.4090   27.1440   30.6830 C   0  0  0  0  0  0  0  0  0  0  0  0
   38.8170   26.2500   30.2520 H   0  0  0  0  0  0  0  0  0  0  0  0
   39.2710   27.8930   30.5740 H   0  0  0  0  0  0  0  0  0  0  0  0
   37.3070   27.8040   30.0830 N   0  0  0  0  0  0  0  0  0  0  0  0
   37.0250   27.4650   29.1510 H   0  0  0  0  0  0  0  0  0  0  0  0
   36.2730   28.2520   30.9390 C   0  0  0  0  0  0  0  0  0  0  0  0
   35.3140   27.7220   30.7700 H   0  0  0  0  0  0  0  0  0  0  0  0
   36.6270   28.1020   31.9930 H   0  0  0  0  0  0  0  0  0  0  0  0
   36.0900   29.7180   30.7560 C   0  0  0  0  0  0  0  0  0  0  0  0
   37.0150   30.2410   30.4310 H   0  0  0  0  0  0  0  0  0  0  0  0
   35.1870   30.0960   30.2880 H   0  0  0  0  0  0  0  0  0  0  0  0
   35.9190   30.2340   32.1930 C   0  0  0  0  0  0  0  0  0  0  0  0
   35.9260   31.6010   32.4600 C   0  0  0  0  0  0  0  0  0  0  0  0
   36.0550   32.3120   31.6380 H   0  0  0  0  0  0  0  0  0  0  0  0
   35.7770   32.0950   33.7170 C   0  0  0  0  0  3  0  0  0  0  0  0
   35.6140   31.2300   34.7680 C   0  0  0  0  0  0  0  0  0  0  0  0
   35.4870   31.4890   35.8090 H   0  0  0  0  0  0  0  0  0  0  0  0
   35.6030   29.8710   34.5320 C   0  0  0  0  0  0  0  0  0  0  0  0
   35.4840   29.0760   35.2630 H   0  0  0  0  0  0  0  0  0  0  0  0
   35.7530   29.3600   33.2590 C   0  0  0  0  0  3  0  0  0  0  0  0
  1  3  1  0  0  0  0
  1  2  1  0  0  0  0
  1 10  1  0  0  0  0
  5  6  1  0  0  0  0
  5  4  1  0  0  0  0
  6 18  1  0  0  0  0
  7 11  1  0  0  0  0
  7  6  2  0  0  0  0
  8  7  1  0  0  0  0
  9  8  2  0  0  0  0
  9 10  1  0  0  0  0
 10  5  2  0  0  0  0
 12  8  1  0  0  0  0
 13  9  1  0  0  0  0
 14 20  1  0  0  0  0
 14 15  1  0  0  0  0
 15 21  1  0  0  0  0
 16 15  2  0  0  0  0
 16 22  1  0  0  0  0
 17 16  1  0  0  0  0
 18 19  1  0  0  0  0
 18 17  2  0  0  0  0
 19 14  2  0  0  0  0
 23  1  1  0  0  0  0
 24 23  1  0  0  0  0
 25 23  1  0  0  0  0
 26 23  1  0  0  0  0
 26 28  1  0  0  0  0
 27 26  1  0  0  0  0
 28 30  1  0  0  0  0
 29 28  1  0  0  0  0
 31 28  1  0  0  0  0
 31 34  1  0  0  0  0
 32 31  1  0  0  0  0
 33 31  1  0  0  0  0
 34 35  2  0  0  0  0
 34 42  1  0  0  0  0
 35 37  1  0  0  0  0
 36 35  1  0  0  0  0
 37 38  2  0  0  0  0
 38 39  1  0  0  0  0
 40 38  1  0  0  0  0
 40 41  1  0  0  0  0
 42 40  2  0  0  0  0
M  END
>  <minimizedAffinity>
-5.30123425

$$$$

 OpenBabel03262520143D

 42 44  0  0  0  0  0  0  0  0999 V2000
   38.5570   26.6800   31.9080 C   0  0  0  0  0  0  0  0  0  0  0  0
   38.5820   26.3590   32.9710 H   0  0  0  0  0  0  0  0  0  0  0  0
   39.6090   27.0280   31.7060 H   0  0  0  0  0  0  0  0  0  0  0  0
   37.0050   27.4970   34.5440 Br  0  0  0  0  0  0  0  0  0  0  0  0
   36.8470   28.2870   32.8020 C   0  0  0  0  0  0  0  0  0  0  0  0
   35.9800   29.3340   32.5910 C   0  0  0  0  0  0  0  0  0  0  0  0
   35.9000   29.8550   31.3230 C   0  0  0  0  0  0  0  0  0  0  0  0
   36.6510   29.3700   30.2700 C   0  0  0  0  0  0  0  0  0  0  0  0
   37.5240   28.3010   30.5240 C   0  0  0  0  0  0  0  0  0  0  0  0
   37.6070   27.7790   31.7860 C   0  0  0  0  0  0  0  0  0  0  0  0
   35.1890   30.6920   31.2170 H   0  0  0  0  0  0  0  0  0  0  0  0
   36.4690   29.8890   29.3530 H   0  0  0  0  0  0  0  0  0  0  0  0
   37.9880   28.0750   29.5960 H   0  0  0  0  0  0  0  0  0  0  0  0
   33.1110   29.8180   34.7910 C   0  0  0  0  0  0  0  0  0  0  0  0
   33.5480   30.8330   35.6970 C   0  0  0  0  0  0  0  0  0  0  0  0
   34.8240   31.3200   35.5200 C   0  0  0  0  0  0  0  0  0  0  0  0
   35.6200   30.8320   34.5060 N   0  0  0  0  0  0  0  0  0  0  0  0
   35.1570   29.8750   33.6800 C   0  0  0  0  0  0  0  0  0  0  0  0
   33.9170   29.3850   33.8340 N   0  0  0  0  0  0  0  0  0  0  0  0
   32.1110   29.4420   34.9350 H   0  0  0  0  0  0  0  0  0  0  0  0
   32.9220   31.2170   36.4960 H   0  0  0  0  0  0  0  0  0  0  0  0
   35.2410   32.0870   36.1550 H   0  0  0  0  0  0  0  0  0  0  0  0
   38.3200   25.4750   31.0690 C   0  0  0  0  0  0  0  0  0  0  0  0
   39.2040   25.0650   30.6220 H   0  0  0  0  0  0  0  0  0  0  0  0
   37.7520   25.8990   30.1670 H   0  0  0  0  0  0  0  0  0  0  0  0
   37.3700   24.6390   31.7070 N   0  0  0  0  0  0  0  0  0  0  0  0
   36.7420   25.0970   32.3850 H   0  0  0  0  0  0  0  0  0  0  0  0
   36.8240   23.5770   30.9480 C   0  0  0  0  0  0  0  0  0  0  0  0
   36.6910   23.8360   29.8780 H   0  0  0  0  0  0  0  0  0  0  0  0
   37.5160   22.7000   31.0600 H   0  0  0  0  0  0  0  0  0  0  0  0
   35.5220   23.1710   31.5440 C   0  0  0  0  0  0  0  0  0  0  0  0
   35.3730   23.5500   32.5790 H   0  0  0  0  0  0  0  0  0  0  0  0
   34.6210   23.1870   30.9400 H   0  0  0  0  0  0  0  0  0  0  0  0
   35.6960   21.6630   31.7790 C   0  0  0  0  0  0  0  0  0  0  0  0
   36.2220   20.8460   30.7810 C   0  0  0  0  0  0  0  0  0  0  0  0
   36.5130   21.2850   29.8220 H   0  0  0  0  0  0  0  0  0  0  0  0
   36.3900   19.5090   30.9520 C   0  0  0  0  0  3  0  0  0  0  0  0
   36.0340   18.9290   32.1420 C   0  0  0  0  0  0  0  0  0  0  0  0
   36.1150   17.8850   32.4070 H   0  0  0  0  0  0  0  0  0  0  0  0
   35.5110   19.7150   33.1480 C   0  0  0  0  0  0  0  0  0  0  0  0
   35.1880   19.3930   34.1340 H   0  0  0  0  0  0  0  0  0  0  0  0
   35.3360   21.0740   32.9840 C   0  0  0  0  0  3  0  0  0  0  0  0
  1  2  1  0  0  0  0
  3  1  1  0  0  0  0
  5  4  1  0  0  0  0
  6  5  1  0  0  0  0
  6 18  1  0  0  0  0
  7  6  2  0  0  0  0
  8  9  2  0  0  0  0
  8  7  1  0  0  0  0
  9 10  1  0  0  0  0
 10  1  1  0  0  0  0
 10  5  2  0  0  0  0
 11  7  1  0  0  0  0
 12  8  1  0  0  0  0
 13  9  1  0  0  0  0
 14 20  1  0  0  0  0
 14 15  1  0  0  0  0
 15 21  1  0  0  0  0
 16 15  2  0  0  0  0
 16 22  1  0  0  0  0
 17 16  1  0  0  0  0
 18 19  1  0  0  0  0
 18 17  2  0  0  0  0
 19 14  2  0  0  0  0
 23 26  1  0  0  0  0
 23  1  1  0  0  0  0
 24 23  1  0  0  0  0
 25 23  1  0  0  0  0
 26 27  1  0  0  0  0
 28 30  1  0  0  0  0
 28 31  1  0  0  0  0
 28 26  1  0  0  0  0
 29 28  1  0  0  0  0
 31 34  1  0  0  0  0
 31 32  1  0  0  0  0
 33 31  1  0  0  0  0
 34 42  1  0  0  0  0
 35 37  1  0  0  0  0
 35 34  2  0  0  0  0
 36 35  1  0  0  0  0
 37 38  2  0  0  0  0
 38 39  1  0  0  0  0
 38 40  1  0  0  0  0
 40 41  1  0  0  0  0
 42 40  2  0  0  0  0
M  END
>  <minimizedAffinity>
-5.27100086

$$$$

 OpenBabel03262520143D

 42 44  0  0  0  0  0  0  0  0999 V2000
   36.7140   26.7830   32.1360 C   0  0  0  0  0  0  0  0  0  0  0  0
   36.0390   25.9200   32.3240 H   0  0  0  0  0  0  0  0  0  0  0  0
   37.2720   26.4910   31.2030 H   0  0  0  0  0  0  0  0  0  0  0  0
   39.7220   25.9290   31.6400 Br  0  0  0  0  0  0  0  0  0  0  0  0
   38.9510   26.6040   33.2630 C   0  0  0  0  0  0  0  0  0  0  0  0
   39.7280   26.7630   34.3870 C   0  0  0  0  0  0  0  0  0  0  0  0
   39.1230   27.2410   35.5230 C   0  0  0  0  0  0  0  0  0  0  0  0
   37.7800   27.5620   35.5720 C   0  0  0  0  0  0  0  0  0  0  0  0
   37.0200   27.3850   34.4060 C   0  0  0  0  0  0  0  0  0  0  0  0
   37.6190   26.9100   33.2720 C   0  0  0  0  0  0  0  0  0  0  0  0
   39.7970   27.3480   36.3890 H   0  0  0  0  0  0  0  0  0  0  0  0
   37.4710   27.9200   36.5310 H   0  0  0  0  0  0  0  0  0  0  0  0
   36.0280   27.6710   34.6560 H   0  0  0  0  0  0  0  0  0  0  0  0
   43.3050   27.0540   33.7330 C   0  0  0  0  0  0  0  0  0  0  0  0
   43.8530   25.8730   34.3220 C   0  0  0  0  0  0  0  0  0  0  0  0
   42.9680   25.0100   34.9300 C   0  0  0  0  0  0  0  0  0  0  0  0
   41.6200   25.2990   34.9520 N   0  0  0  0  0  0  0  0  0  0  0  0
   41.1570   26.4270   34.3800 C   0  0  0  0  0  0  0  0  0  0  0  0
   42.0010   27.2820   33.7830 N   0  0  0  0  0  0  0  0  0  0  0  0
   44.0040   27.7240   33.2590 H   0  0  0  0  0  0  0  0  0  0  0  0
   44.9140   25.6460   34.3050 H   0  0  0  0  0  0  0  0  0  0  0  0
   43.2880   24.0940   35.4010 H   0  0  0  0  0  0  0  0  0  0  0  0
   35.8710   27.9600   31.7980 C   0  0  0  0  0  0  0  0  0  0  0  0
   35.0240   28.0990   32.4400 H   0  0  0  0  0  0  0  0  0  0  0  0
   35.3880   27.6540   30.8040 H   0  0  0  0  0  0  0  0  0  0  0  0
   36.7070   29.0510   31.4490 N   0  0  0  0  0  0  0  0  0  0  0  0
   37.4700   28.8470   30.7850 H   0  0  0  0  0  0  0  0  0  0  0  0
   36.1050   30.3280   31.3550 C   0  0  0  0  0  0  0  0  0  0  0  0
   36.8150   31.1550   31.5600 H   0  0  0  0  0  0  0  0  0  0  0  0
   35.6810   30.4190   30.3190 H   0  0  0  0  0  0  0  0  0  0  0  0
   34.9530   30.3940   32.2950 C   0  0  0  0  0  0  0  0  0  0  0  0
   34.1220   31.0370   31.9310 H   0  0  0  0  0  0  0  0  0  0  0  0
   34.6190   29.4970   32.8060 H   0  0  0  0  0  0  0  0  0  0  0  0
   35.5020   31.2190   33.4700 C   0  0  0  0  0  0  0  0  0  0  0  0
   35.5070   30.6970   34.7610 C   0  0  0  0  0  0  0  0  0  0  0  0
   35.1140   29.6910   34.9390 H   0  0  0  0  0  0  0  0  0  0  0  0
   35.9840   31.3950   35.8240 C   0  0  0  0  0  3  0  0  0  0  0  0
   36.4820   32.6590   35.6340 C   0  0  0  0  0  0  0  0  0  0  0  0
   36.8890   33.3170   36.3870 H   0  0  0  0  0  0  0  0  0  0  0  0
   36.4900   33.2000   34.3650 C   0  0  0  0  0  0  0  0  0  0  0  0
   36.8510   34.1810   34.0700 H   0  0  0  0  0  0  0  0  0  0  0  0
   36.0080   32.4980   33.2800 C   0  0  0  0  0  3  0  0  0  0  0  0
  1  2  1  0  0  0  0
  1 10  1  0  0  0  0
  3  1  1  0  0  0  0
  4  5  1  0  0  0  0
  5 10  2  0  0  0  0
  5  6  1  0  0  0  0
  6  7  2  0  0  0  0
  7  8  1  0  0  0  0
  7 11  1  0  0  0  0
  8 12  1  0  0  0  0
  9 13  1  0  0  0  0
  9  8  2  0  0  0  0
 10  9  1  0  0  0  0
 14 19  2  0  0  0  0
 14 15  1  0  0  0  0
 15 16  2  0  0  0  0
 16 17  1  0  0  0  0
 16 22  1  0  0  0  0
 18  6  1  0  0  0  0
 18 17  2  0  0  0  0
 19 18  1  0  0  0  0
 20 14  1  0  0  0  0
 21 15  1  0  0  0  0
 23  1  1  0  0  0  0
 23 24  1  0  0  0  0
 25 23  1  0  0  0  0
 26 23  1  0  0  0  0
 27 26  1  0  0  0  0
 28 26  1  0  0  0  0
 28 29  1  0  0  0  0
 28 31  1  0  0  0  0
 30 28  1  0  0  0  0
 31 33  1  0  0  0  0
 31 34  1  0  0  0  0
 32 31  1  0  0  0  0
 34 35  1  0  0  0  0
 35 36  1  0  0  0  0
 35 37  2  0  0  0  0
 38 37  1  0  0  0  0
 38 39  1  0  0  0  0
 40 38  2  0  0  0  0
 41 40  1  0  0  0  0
 42 34  2  0  0  0  0
 42 40  1  0  0  0  0
M  END
>  <minimizedAffinity>
-5.26718616

$$$$

 OpenBabel03262520143D

 42 44  0  0  0  0  0  0  0  0999 V2000
   38.9850   27.0720   31.1650 C   0  0  0  0  0  0  0  0  0  0  0  0
   40.0110   27.4150   31.4180 H   0  0  0  0  0  0  0  0  0  0  0  0
   38.7310   27.6450   30.2290 H   0  0  0  0  0  0  0  0  0  0  0  0
   36.6360   29.0780   30.4660 Br  0  0  0  0  0  0  0  0  0  0  0  0
   37.0240   28.2800   32.1680 C   0  0  0  0  0  0  0  0  0  0  0  0
   36.2400   28.5620   33.2620 C   0  0  0  0  0  0  0  0  0  0  0  0
   36.5680   27.9710   34.4570 C   0  0  0  0  0  0  0  0  0  0  0  0
   37.6440   27.1150   34.5930 C   0  0  0  0  0  0  0  0  0  0  0  0
   38.4220   26.8520   33.4550 C   0  0  0  0  0  0  0  0  0  0  0  0
   38.0980   27.4390   32.2620 C   0  0  0  0  0  0  0  0  0  0  0  0
   35.9020   28.2340   35.2960 H   0  0  0  0  0  0  0  0  0  0  0  0
   37.7580   26.7430   35.5890 H   0  0  0  0  0  0  0  0  0  0  0  0
   39.1930   26.1940   33.7720 H   0  0  0  0  0  0  0  0  0  0  0  0
   34.2910   31.6400   33.4530 C   0  0  0  0  0  0  0  0  0  0  0  0
   32.9920   31.2440   33.0070 C   0  0  0  0  0  0  0  0  0  0  0  0
   32.8280   29.9240   32.6530 C   0  0  0  0  0  0  0  0  0  0  0  0
   33.8880   29.0460   32.7360 N   0  0  0  0  0  0  0  0  0  0  0  0
   35.0920   29.4720   33.1630 C   0  0  0  0  0  0  0  0  0  0  0  0
   35.2740   30.7540   33.5130 N   0  0  0  0  0  0  0  0  0  0  0  0
   34.4110   32.6750   33.7280 H   0  0  0  0  0  0  0  0  0  0  0  0
   32.1580   31.9360   32.9420 H   0  0  0  0  0  0  0  0  0  0  0  0
   31.8840   29.5330   32.3050 H   0  0  0  0  0  0  0  0  0  0  0  0
   39.0580   25.6330   30.7970 C   0  0  0  0  0  0  0  0  0  0  0  0
   39.6920   25.0450   31.4320 H   0  0  0  0  0  0  0  0  0  0  0  0
   39.6380   25.6510   29.8070 H   0  0  0  0  0  0  0  0  0  0  0  0
   37.7680   25.1750   30.4290 N   0  0  0  0  0  0  0  0  0  0  0  0
   37.3440   25.6260   29.6040 H   0  0  0  0  0  0  0  0  0  0  0  0
   37.4840   23.8030   30.6240 C   0  0  0  0  0  0  0  0  0  0  0  0
   37.3330   23.2550   29.6720 H   0  0  0  0  0  0  0  0  0  0  0  0
   38.3430   23.3660   31.1990 H   0  0  0  0  0  0  0  0  0  0  0  0
   36.2810   23.6730   31.4900 C   0  0  0  0  0  0  0  0  0  0  0  0
   36.4810   23.9000   32.5600 H   0  0  0  0  0  0  0  0  0  0  0  0
   35.3200   24.0340   31.1390 H   0  0  0  0  0  0  0  0  0  0  0  0
   36.0340   22.1570   31.5270 C   0  0  0  0  0  0  0  0  0  0  0  0
   36.8500   21.2890   30.8050 C   0  0  0  0  0  0  0  0  0  0  0  0
   37.6720   21.6920   30.2070 H   0  0  0  0  0  0  0  0  0  0  0  0
   36.6620   19.9430   30.8130 C   0  0  0  0  0  3  0  0  0  0  0  0
   35.6390   19.4070   31.5520 C   0  0  0  0  0  0  0  0  0  0  0  0
   35.3820   18.3620   31.6440 H   0  0  0  0  0  0  0  0  0  0  0  0
   34.8160   20.2440   32.2770 C   0  0  0  0  0  0  0  0  0  0  0  0
   33.9740   19.9610   32.9010 H   0  0  0  0  0  0  0  0  0  0  0  0
   34.9990   21.6120   32.2750 C   0  0  0  0  0  3  0  0  0  0  0  0
  1  2  1  0  0  0  0
  1 10  1  0  0  0  0
  3  1  1  0  0  0  0
  4  5  1  0  0  0  0
  5 10  2  0  0  0  0
  5  6  1  0  0  0  0
  6  7  2  0  0  0  0
  7  8  1  0  0  0  0
  7 11  1  0  0  0  0
  8 12  1  0  0  0  0
  9 13  1  0  0  0  0
  9  8  2  0  0  0  0
 10  9  1  0  0  0  0
 14 19  1  0  0  0  0
 14 20  1  0  0  0  0
 15 14  2  0  0  0  0
 16 17  2  0  0  0  0
 16 15  1  0  0  0  0
 17 18  1  0  0  0  0
 18  6  1  0  0  0  0
 18 19  2  0  0  0  0
 21 15  1  0  0  0  0
 22 16  1  0  0  0  0
 23  1  1  0  0  0  0
 23 24  1  0  0  0  0
 25 23  1  0  0  0  0
 26 28  1  0  0  0  0
 26 23  1  0  0  0  0
 27 26  1  0  0  0  0
 28 30  1  0  0  0  0
 28 31  1  0  0  0  0
 29 28  1  0  0  0  0
 31 34  1  0  0  0  0
 31 32  1  0  0  0  0
 33 31  1  0  0  0  0
 34 42  1  0  0  0  0
 35 37  1  0  0  0  0
 35 34  2  0  0  0  0
 36 35  1  0  0  0  0
 37 38  2  0  0  0  0
 38 39  1  0  0  0  0
 38 40  1  0  0  0  0
 40 41  1  0  0  0  0
 42 40  2  0  0  0  0
M  END
>  <minimizedAffinity>
-5.2472291

$$$$

 OpenBabel03262520143D

 42 44  0  0  0  0  0  0  0  0999 V2000
   39.1150   23.9770   30.9710 C   0  0  0  0  0  0  0  0  0  0  0  0
   39.8850   24.6510   31.4040 H   0  0  0  0  0  0  0  0  0  0  0  0
   39.4350   23.8540   29.8990 H   0  0  0  0  0  0  0  0  0  0  0  0
   39.1770   27.0940   31.5210 Br  0  0  0  0  0  0  0  0  0  0  0  0
   37.6330   25.9800   31.2820 C   0  0  0  0  0  0  0  0  0  0  0  0
   36.3700   26.5220   31.3440 C   0  0  0  0  0  0  0  0  0  0  0  0
   35.3000   25.6780   31.1750 C   0  0  0  0  0  0  0  0  0  0  0  0
   35.4500   24.3230   30.9480 C   0  0  0  0  0  0  0  0  0  0  0  0
   36.7540   23.8070   30.8930 C   0  0  0  0  0  0  0  0  0  0  0  0
   37.8220   24.6450   31.0600 C   0  0  0  0  0  0  0  0  0  0  0  0
   34.3150   26.1700   31.2340 H   0  0  0  0  0  0  0  0  0  0  0  0
   34.5170   23.8130   30.8380 H   0  0  0  0  0  0  0  0  0  0  0  0
   36.6490   22.7630   30.7270 H   0  0  0  0  0  0  0  0  0  0  0  0
   35.7560   29.6240   33.1630 C   0  0  0  0  0  0  0  0  0  0  0  0
   35.7730   30.6230   32.1410 C   0  0  0  0  0  0  0  0  0  0  0  0
   35.9980   30.1940   30.8520 C   0  0  0  0  0  0  0  0  0  0  0  0
   36.1930   28.8550   30.5900 N   0  0  0  0  0  0  0  0  0  0  0  0
   36.1650   27.9550   31.5910 C   0  0  0  0  0  0  0  0  0  0  0  0
   35.9490   28.3510   32.8540 N   0  0  0  0  0  0  0  0  0  0  0  0
   35.5800   29.9670   34.1690 H   0  0  0  0  0  0  0  0  0  0  0  0
   35.6200   31.6770   32.3480 H   0  0  0  0  0  0  0  0  0  0  0  0
   36.0280   30.8740   30.0150 H   0  0  0  0  0  0  0  0  0  0  0  0
   39.2450   22.6500   31.6280 C   0  0  0  0  0  0  0  0  0  0  0  0
   39.6080   21.8700   30.9870 H   0  0  0  0  0  0  0  0  0  0  0  0
   38.1540   22.3440   31.8070 H   0  0  0  0  0  0  0  0  0  0  0  0
   39.7690   22.8210   32.9340 N   0  0  0  0  0  0  0  0  0  0  0  0
   40.3700   23.6470   33.0790 H   0  0  0  0  0  0  0  0  0  0  0  0
   38.9510   22.4290   34.0210 C   0  0  0  0  0  0  0  0  0  0  0  0
   38.2230   21.6390   33.7480 H   0  0  0  0  0  0  0  0  0  0  0  0
   39.6350   22.0720   34.8370 H   0  0  0  0  0  0  0  0  0  0  0  0
   38.2410   23.6240   34.5520 C   0  0  0  0  0  0  0  0  0  0  0  0
   38.7250   24.5850   34.2740 H   0  0  0  0  0  0  0  0  0  0  0  0
   37.1560   23.6600   34.5360 H   0  0  0  0  0  0  0  0  0  0  0  0
   38.5140   23.5550   36.0620 C   0  0  0  0  0  0  0  0  0  0  0  0
   37.6590   24.1800   36.9660 C   0  0  0  0  0  0  0  0  0  0  0  0
   36.7850   24.7250   36.5960 H   0  0  0  0  0  0  0  0  0  0  0  0
   37.8680   24.1400   38.3080 C   0  0  0  0  0  3  0  0  0  0  0  0
   38.9540   23.4660   38.8040 C   0  0  0  0  0  0  0  0  0  0  0  0
   39.2340   23.3580   39.8410 H   0  0  0  0  0  0  0  0  0  0  0  0
   39.8170   22.8370   37.9300 C   0  0  0  0  0  0  0  0  0  0  0  0
   40.7100   22.2720   38.1800 H   0  0  0  0  0  0  0  0  0  0  0  0
   39.6130   22.8720   36.5660 C   0  0  0  0  0  3  0  0  0  0  0  0
  1 10  1  0  0  0  0
  1  2  1  0  0  0  0
  1 23  1  0  0  0  0
  3  1  1  0  0  0  0
  5  6  1  0  0  0  0
  5  4  1  0  0  0  0
  6 18  1  0  0  0  0
  7 11  1  0  0  0  0
  7  6  2  0  0  0  0
  8  7  1  0  0  0  0
  9  8  2  0  0  0  0
  9 10  1  0  0  0  0
 10  5  2  0  0  0  0
 12  8  1  0  0  0  0
 13  9  1  0  0  0  0
 14 20  1  0  0  0  0
 15 21  1  0  0  0  0
 15 14  2  0  0  0  0
 16 15  1  0  0  0  0
 17 16  2  0  0  0  0
 17 18  1  0  0  0  0
 18 19  2  0  0  0  0
 19 14  1  0  0  0  0
 22 16  1  0  0  0  0
 23 25  1  0  0  0  0
 23 26  1  0  0  0  0
 24 23  1  0  0  0  0
 26 27  1  0  0  0  0
 26 28  1  0  0  0  0
 28 31  1  0  0  0  0
 28 30  1  0  0  0  0
 29 28  1  0  0  0  0
 31 34  1  0  0  0  0
 32 31  1  0  0  0  0
 33 31  1  0  0  0  0
 34 42  2  0  0  0  0
 34 35  1  0  0  0  0
 35 37  2  0  0  0  0
 36 35  1  0  0  0  0
 37 38  1  0  0  0  0
 38 39  1  0  0  0  0
 40 41  1  0  0  0  0
 40 38  2  0  0  0  0
 42 40  1  0  0  0  0
M  END
>  <minimizedAffinity>
-5.17080975

$$$$
