
 OpenBabel03262522523D

 33 36  0  0  0  0  0  0  0  0999 V2000
   32.8800   27.7030   48.4610 C   0  0  0  0  0  0  0  0  0  0  0  0
   32.9290   26.7260   47.5400 C   0  0  0  0  0  0  0  0  0  0  0  0
   31.7530   26.0380   47.3190 C   0  0  0  0  0  0  0  0  0  0  0  0
   30.6040   26.3040   47.9670 N   0  0  0  0  0  0  0  0  0  0  0  0
   30.6590   27.3150   48.8820 C   0  0  0  0  0  0  0  0  0  0  0  0
   31.7660   28.0400   49.1630 N   0  0  0  0  0  0  0  0  0  0  0  0
   33.8170   26.4590   46.9830 H   0  0  0  0  0  0  0  0  0  0  0  0
   31.7280   25.2300   46.5800 H   0  0  0  0  0  0  0  0  0  0  0  0
   29.4440   27.6490   49.6170 C   0  0  0  0  0  0  0  0  0  0  0  0
   29.0420   26.8950   50.7140 C   0  0  0  0  0  0  0  0  0  0  0  0
   29.6420   26.0530   51.0230 H   0  0  0  0  0  0  0  0  0  0  0  0
   27.9060   27.1610   51.4480 C   0  0  0  0  0  0  0  0  0  0  0  0
   27.1140   28.2300   51.0870 C   0  0  0  0  0  0  0  0  0  0  0  0
   26.2030   28.5520   51.5650 H   0  0  0  0  0  0  0  0  0  0  0  0
   27.4890   28.9950   50.0020 C   0  0  0  0  0  0  0  0  0  0  0  0
   26.9670   29.8590   49.6050 H   0  0  0  0  0  0  0  0  0  0  0  0
   28.6300   28.7290   49.2630 C   0  0  0  0  0  0  0  0  0  0  0  0
   36.1010   30.1720   48.8670 C   0  0  0  0  0  0  0  0  0  0  0  0
   36.0040   29.2540   49.8260 C   0  0  0  0  0  0  0  0  0  0  0  0
   34.9560   28.3590   49.7970 C   0  0  0  0  0  0  0  0  0  0  0  0
   34.0780   28.4870   48.7650 C   0  0  0  0  0  0  0  0  0  0  0  0
   34.7610   29.9000   47.8290 S   0  0  0  0  0  0  0  0  0  0  0  0
   36.7590   29.2160   50.6310 H   0  0  0  0  0  0  0  0  0  0  0  0
   34.7850   27.5720   50.5300 H   0  0  0  0  0  0  0  0  0  0  0  0
   38.0690   33.1940   49.4200 C   0  0  0  0  0  0  0  0  0  0  0  0
   39.0090   33.1690   48.3910 C   0  0  0  0  0  0  0  0  0  0  0  0
   38.9630   32.0960   47.4940 C   0  0  0  0  0  0  0  0  0  0  0  0
   38.0070   31.1320   47.6680 N   0  0  0  0  0  0  0  0  0  0  0  0
   37.1240   31.2180   48.6900 C   0  0  0  0  0  0  0  0  0  0  0  0
   37.1350   32.2160   49.5590 N   0  0  0  0  0  0  0  0  0  0  0  0
   38.0120   33.9770   50.1740 H   0  0  0  0  0  0  0  0  0  0  0  0
   39.7290   33.9750   48.3300 H   0  0  0  0  0  0  0  0  0  0  0  0
   39.6740   32.0620   46.7030 H   0  0  0  0  0  0  0  0  0  0  0  0
  1 21  1  0  0  0  0
  1  6  1  0  0  0  0
  2  1  2  0  0  0  0
  3  2  1  0  0  0  0
  3  4  2  0  0  0  0
  4  5  1  0  0  0  0
  5  6  2  0  0  0  0
  5  9  1  0  0  0  0
  7  2  1  0  0  0  0
  8  3  1  0  0  0  0
  9 10  1  0  0  0  0
 10 11  1  0  0  0  0
 10 12  2  0  0  0  0
 13 12  1  0  0  0  0
 13 14  1  0  0  0  0
 15 13  2  0  0  0  0
 16 15  1  0  0  0  0
 17  9  2  0  0  0  0
 17 15  1  0  0  0  0
 18 19  2  0  0  0  0
 19 23  1  0  0  0  0
 20 19  1  0  0  0  0
 20 24  1  0  0  0  0
 21 20  2  0  0  0  0
 22 21  1  0  0  0  0
 22 18  1  0  0  0  0
 25 30  1  0  0  0  0
 25 31  1  0  0  0  0
 26 25  2  0  0  0  0
 27 28  2  0  0  0  0
 27 26  1  0  0  0  0
 28 29  1  0  0  0  0
 29 18  1  0  0  0  0
 29 30  2  0  0  0  0
 32 26  1  0  0  0  0
 33 27  1  0  0  0  0
M  END
>  <minimizedAffinity>
-7.41144133

>  <minimizedRMSD>
0.588249922

$$$$
