
     RDKit          3D

 38 41  0  0  0  0  0  0  0  0999 V2000
   37.3148   29.3338   51.0249 Br  0  0  0  0  0  0  0  0  0  0  0  0
   35.9615   29.3241   49.6814 C   0  0  0  0  0  0  0  0  0  0  0  0
   35.9943   30.2540   48.6458 C   0  0  0  0  0  0  0  0  0  0  0  0
   34.9804   30.1864   47.7084 C   0  0  0  0  0  0  0  0  0  0  0  0
   33.9591   29.2543   47.7570 C   0  0  0  0  0  0  0  0  0  0  0  0
   33.9606   28.3622   48.7834 C   0  0  0  0  0  0  0  0  0  0  0  0
   34.9629   28.4103   49.7315 C   0  0  0  0  0  0  0  0  0  0  0  0
   37.9888   33.1970   49.4571 C   0  0  0  0  0  0  0  0  0  0  0  0
   39.0153   33.1792   48.4697 C   0  0  0  0  0  0  0  0  0  0  0  0
   38.9993   32.1498   47.5414 C   0  0  0  0  0  0  0  0  0  0  0  0
   38.0130   31.2055   47.6086 N   0  0  0  0  0  0  0  0  0  0  0  0
   37.0520   31.2508   48.5592 C   0  0  0  0  0  0  0  0  0  0  0  0
   37.0516   32.2524   49.4775 N   0  0  0  0  0  0  0  0  0  0  0  0
   32.9022   29.2003   46.7610 C   0  0  0  0  0  0  0  0  0  0  0  0
   32.2572   28.0453   46.3666 C   0  0  0  0  0  0  0  0  0  0  0  0
   31.2541   28.0300   45.4144 C   0  0  0  0  0  0  0  0  0  0  0  0
   30.8855   29.1906   44.8427 N   0  0  0  0  0  0  0  0  0  0  0  0
   31.5008   30.3196   45.2137 C   0  0  0  0  0  0  0  0  0  0  0  0
   32.4614   30.3025   46.1316 N   0  0  0  0  0  0  0  0  0  0  0  0
   34.9516   30.8825   46.8798 H   0  0  0  0  0  0  0  0  0  0  0  0
   33.2089   27.5931   48.9145 H   0  0  0  0  0  0  0  0  0  0  0  0
   34.9675   27.6931   50.5602 H   0  0  0  0  0  0  0  0  0  0  0  0
   38.0423   34.0219   50.1625 H   0  0  0  0  0  0  0  0  0  0  0  0
   39.8094   33.9091   48.3878 H   0  0  0  0  0  0  0  0  0  0  0  0
   39.7106   32.0216   46.7511 H   0  0  0  0  0  0  0  0  0  0  0  0
   32.5581   27.1026   46.8324 H   0  0  0  0  0  0  0  0  0  0  0  0
   30.7886   27.0789   45.1522 H   0  0  0  0  0  0  0  0  0  0  0  0
   31.1054   31.5818   44.5972 C   0  0  0  0  0  0  0  0  0  0  0  0
   31.4918   32.7891   45.1694 C   0  0  0  0  0  0  0  0  0  0  0  0
   32.0845   32.7153   46.0708 H   0  0  0  0  0  0  0  0  0  0  0  0
   31.1048   33.9671   44.5664 C   0  0  0  0  0  0  0  0  0  0  0  0
   30.3509   34.0273   43.4200 C   0  0  0  0  0  0  0  0  0  0  0  0
   30.1310   35.0220   43.0734 H   0  0  0  0  0  0  0  0  0  0  0  0
   29.9687   32.8272   42.8543 C   0  0  0  0  0  0  0  0  0  0  0  0
   29.3768   32.8933   41.9538 H   0  0  0  0  0  0  0  0  0  0  0  0
   30.3552   31.6453   43.4563 C   0  0  0  0  0  0  0  0  0  0  0  0
   31.4783   34.8377   45.1232 H   0  0  0  0  0  0  0  0  0  0  0  0
   30.0419   30.7158   42.9919 H   0  0  0  0  0  0  0  0  0  0  0  0
  2  7  2  0
  2  1  1  0
  3  2  1  0
  4  5  1  0
  4  3  2  0
  5  6  2  0
  6  7  1  0
  8 13  2  0
  9  8  1  0
 10 11  1  0
 10  9  2  0
 11 12  2  0
 12  3  1  0
 12 13  1  0
 14  5  1  0
 15 14  2  0
 16 15  1  0
 17 18  1  0
 17 16  2  0
 18 19  2  0
 19 14  1  0
  4 20  1  0
  6 21  1  0
  7 22  1  0
  8 23  1  0
  9 24  1  0
 10 25  1  0
 15 26  1  0
 16 27  1  0
 28 29  2  0
 29 30  1  0
 29 31  1  0
 31 32  2  0
 32 33  1  0
 32 34  1  0
 34 35  1  0
 34 36  2  0
 36 28  1  0
 31 37  1  0
 36 38  1  0
 18 28  1  0
M  ISO  8  20  14  21  14  22  14  23  14  24  14  25  14  26  14  27  14
M  ISO  3  30  16  33  16  35  16
M  END
>  <DihAtoms>  (1) 
16,17,27,28

>  <DihDeg>  (1) 
-179.99927705789187

$$$$
