
 OpenBabel03272510233D

 31 34  0  0  0  0  0  0  0  0999 V2000
   36.1010   30.1670   46.1830 C   0  0  0  0  0  0  0  0  0  0  0  0
   37.1020   30.9520   46.7190 C   0  0  0  0  0  0  0  0  0  0  0  0
   37.7650   31.8500   45.9270 C   0  0  0  0  0  0  0  0  0  0  0  0
   37.4040   31.9430   44.5880 C   0  0  0  0  0  0  0  0  0  0  0  0
   37.9180   32.7550   43.6240 N   0  0  0  0  0  0  0  0  0  0  0  0
   37.2460   32.4840   42.4850 C   0  0  0  0  0  0  0  0  0  0  0  0
   36.3300   31.5320   42.7080 N   0  0  0  0  0  0  0  0  0  0  0  0
   36.4100   31.1800   44.0080 C   0  0  0  0  0  0  0  0  0  0  0  0
   35.7520   30.2740   44.8370 C   0  0  0  0  0  0  0  0  0  0  0  0
   35.5120   29.4240   46.7200 H   0  0  0  0  0  0  0  0  0  0  0  0
   38.5410   32.4580   46.3420 H   0  0  0  0  0  0  0  0  0  0  0  0
   38.6970   33.4580   43.7610 H   0  0  0  0  0  0  0  0  0  0  0  0
   34.9650   29.6660   44.3880 H   0  0  0  0  0  0  0  0  0  0  0  0
   38.4260   31.3110   50.2170 C   0  0  0  0  0  0  0  0  0  0  0  0
   38.2260   31.5910   48.8670 C   0  0  0  0  0  0  0  0  0  0  0  0
   37.3850   30.7570   48.1360 C   0  0  0  0  0  0  0  0  0  0  0  0
   36.8060   29.7170   48.7820 N   0  0  0  0  0  0  0  0  0  0  0  0
   37.0120   29.4610   50.0950 C   0  0  0  0  0  0  0  0  0  0  0  0
   37.8150   30.2550   50.7970 N   0  0  0  0  0  0  0  0  0  0  0  0
   39.0630   31.9210   50.8220 H   0  0  0  0  0  0  0  0  0  0  0  0
   38.6960   32.4190   48.3790 H   0  0  0  0  0  0  0  0  0  0  0  0
   36.4670   28.5850   50.4500 H   0  0  0  0  0  0  0  0  0  0  0  0
   37.4540   33.1120   41.1850 C   0  0  0  0  0  0  0  0  0  0  0  0
   36.4350   33.7820   40.5130 C   0  0  0  0  0  0  0  0  0  0  0  0
   35.4670   33.8100   41.0180 H   0  0  0  0  0  0  0  0  0  0  0  0
   36.5710   34.3920   39.2880 C   0  0  0  0  0  3  0  0  0  0  0  0
   37.8000   34.3470   38.6650 C   0  0  0  0  0  0  0  0  0  0  0  0
   37.8240   34.8490   37.7050 H   0  0  0  0  0  0  0  0  0  0  0  0
   38.8350   33.6940   39.2980 C   0  0  0  0  0  0  0  0  0  0  0  0
   39.7620   33.7050   38.7430 H   0  0  0  0  0  0  0  0  0  0  0  0
   38.6620   33.0920   40.5280 C   0  0  0  0  0  3  0  0  0  0  0  0
  1  2  1  0  0  0  0
  1 10  1  0  0  0  0
  2 16  1  0  0  0  0
  3 11  1  0  0  0  0
  3  2  2  0  0  0  0
  4  3  1  0  0  0  0
  5 12  1  0  0  0  0
  5  4  1  0  0  0  0
  6  7  2  0  0  0  0
  6  5  1  0  0  0  0
  7  8  1  0  0  0  0
  8  4  2  0  0  0  0
  8  9  1  0  0  0  0
  9  1  2  0  0  0  0
 13  9  1  0  0  0  0
 14 19  1  0  0  0  0
 14 20  1  0  0  0  0
 15 14  2  0  0  0  0
 16 17  2  0  0  0  0
 16 15  1  0  0  0  0
 17 18  1  0  0  0  0
 18 22  1  0  0  0  0
 18 19  2  0  0  0  0
 21 15  1  0  0  0  0
 23  6  1  0  0  0  0
 24 25  1  0  0  0  0
 24 23  2  0  0  0  0
 26 24  1  0  0  0  0
 27 26  2  0  0  0  0
 27 29  1  0  0  0  0
 28 27  1  0  0  0  0
 29 31  2  0  0  0  0
 30 29  1  0  0  0  0
 31 23  1  0  0  0  0
M  END
>  <minimizedAffinity>
-4.97422838

>  <minimizedRMSD>
3.54546452

$$$$
