
 OpenBabel03272502193D

 33 35  0  0  1  0  0  0  0  0999 V2000
   38.0610   25.5410   32.8360 C   0  0  0  0  0  0  0  0  0  0  0  0
   37.5960   24.5130   31.9910 C   0  0  0  0  0  0  0  0  0  0  0  0
   37.4540   23.2390   32.5300 C   0  0  0  0  0  0  0  0  0  0  0  0
   37.7800   23.0560   33.8650 N   0  0  0  0  0  0  0  0  0  0  0  0
   38.2160   24.0580   34.6230 C   0  0  0  0  0  0  0  0  0  0  0  0
   38.3560   25.2890   34.1190 N   0  0  0  0  0  0  0  0  0  0  0  0
   37.3360   24.6360   30.9470 H   0  0  0  0  0  0  0  0  0  0  0  0
   37.0960   22.4190   31.9070 H   0  0  0  0  0  0  0  0  0  0  0  0
   38.5370   23.7810   36.0200 C   0  0  0  0  0  0  0  0  0  0  0  0
   39.6100   22.9710   36.3810 C   0  0  0  0  0  0  0  0  0  0  0  0
   40.2350   22.5260   35.6070 H   0  0  0  0  0  0  0  0  0  0  0  0
   39.8590   22.7490   37.7300 C   0  0  0  0  0  3  0  0  0  0  0  0
   39.0460   23.3280   38.7070 C   0  0  0  0  0  0  0  0  0  0  0  0
   39.2270   23.1640   39.7680 H   0  0  0  0  0  0  0  0  0  0  0  0
   37.9810   24.1300   38.3700 C   0  0  0  0  0  0  0  0  0  0  0  0
   37.3300   24.5950   39.1100 H   0  0  0  0  0  0  0  0  0  0  0  0
   37.7630   24.3290   37.0230 C   0  0  0  0  0  3  0  0  0  0  0  0
   38.1900   27.1020   32.0150 S   0  0  0  0  0  0  0  0  0  0  0  0
   36.6380   27.5970   29.8630 N   0  0  0  0  0  0  0  0  0  0  0  0
   36.5860   27.6200   31.3170 C   0  0  2  0  0  0  0  0  0  0  0  0
   36.3040   29.0440   31.7540 C   0  0  0  0  0  0  0  0  0  0  0  0
   35.7740   29.7940   30.6820 O   0  0  0  0  0  0  0  0  0  0  0  0
   36.8450   29.9680   29.8040 C   0  0  0  0  0  0  0  0  0  0  0  0
   37.4970   28.6580   29.4200 C   0  0  2  0  0  0  0  0  0  0  0  0
   35.6930   27.6170   29.4580 H   0  0  0  0  0  0  0  0  0  0  0  0
   35.7960   26.9060   31.6390 H   0  0  0  0  0  0  0  0  0  0  0  0
   37.1720   29.5510   32.2050 H   0  0  0  0  0  0  0  0  0  0  0  0
   35.5000   28.9790   32.5350 H   0  0  0  0  0  0  0  0  0  0  0  0
   36.4180   30.4260   28.8780 H   0  0  0  0  0  0  0  0  0  0  0  0
   37.5570   30.6570   30.2720 H   0  0  0  0  0  0  0  0  0  0  0  0
   38.4670   28.5540   29.9480 H   0  0  0  0  0  0  0  0  0  0  0  0
   37.6340   28.5610   28.0200 O   0  0  0  0  0  0  0  0  0  0  0  0
   37.8500   29.4700   27.6830 H   0  0  0  0  0  0  0  0  0  0  0  0
  1  6  1  0  0  0  0
  2  3  1  0  0  0  0
  2  1  2  0  0  0  0
  3  4  2  0  0  0  0
  4  5  1  0  0  0  0
  5  9  1  0  0  0  0
  6  5  2  0  0  0  0
  7  2  1  0  0  0  0
  8  3  1  0  0  0  0
  9 10  2  0  0  0  0
  9 17  1  0  0  0  0
 10 12  1  0  0  0  0
 11 10  1  0  0  0  0
 12 13  2  0  0  0  0
 13 14  1  0  0  0  0
 15 13  1  0  0  0  0
 15 16  1  0  0  0  0
 17 15  2  0  0  0  0
 18  1  1  0  0  0  0
 19 20  1  0  0  0  0
 20 26  1  1  0  0  0
 20 21  1  0  0  0  0
 20 18  1  0  0  0  0
 21 27  1  0  0  0  0
 21 28  1  0  0  0  0
 22 21  1  0  0  0  0
 23 30  1  0  0  0  0
 23 22  1  0  0  0  0
 24 23  1  0  0  0  0
 24 19  1  0  0  0  0
 24 31  1  1  0  0  0
 25 19  1  0  0  0  0
 29 23  1  0  0  0  0
 32 24  1  0  0  0  0
 33 32  1  0  0  0  0
M  END
>  <minimizedAffinity>
-5.73578501

$$$$

 OpenBabel03272502193D

 33 35  0  0  1  0  0  0  0  0999 V2000
   37.6130   23.2210   32.6380 C   0  0  0  0  0  0  0  0  0  0  0  0
   37.4350   24.5160   32.1140 C   0  0  0  0  0  0  0  0  0  0  0  0
   37.5800   25.5960   32.9770 C   0  0  0  0  0  0  0  0  0  0  0  0
   37.8900   25.3330   34.3030 N   0  0  0  0  0  0  0  0  0  0  0  0
   38.0480   24.0920   34.7520 C   0  0  0  0  0  0  0  0  0  0  0  0
   37.9130   23.0420   33.9330 N   0  0  0  0  0  0  0  0  0  0  0  0
   37.1940   24.7410   31.0820 H   0  0  0  0  0  0  0  0  0  0  0  0
   37.4500   26.6130   32.6070 H   0  0  0  0  0  0  0  0  0  0  0  0
   38.3740   23.9010   36.1630 C   0  0  0  0  0  0  0  0  0  0  0  0
   37.6500   24.5260   37.1740 C   0  0  0  0  0  0  0  0  0  0  0  0
   36.8150   25.1770   36.9190 H   0  0  0  0  0  0  0  0  0  0  0  0
   38.0150   24.3010   38.4970 C   0  0  0  0  0  3  0  0  0  0  0  0
   39.0890   23.4620   38.8050 C   0  0  0  0  0  0  0  0  0  0  0  0
   39.3870   23.2760   39.8350 H   0  0  0  0  0  0  0  0  0  0  0  0
   39.8150   22.8380   37.8190 C   0  0  0  0  0  0  0  0  0  0  0  0
   40.6570   22.1780   38.0280 H   0  0  0  0  0  0  0  0  0  0  0  0
   39.4260   23.0830   36.5190 C   0  0  0  0  0  3  0  0  0  0  0  0
   37.3990   21.9510   31.4270 S   0  0  0  0  0  0  0  0  0  0  0  0
   35.1570   21.3070   32.7860 N   0  0  0  0  0  0  0  0  0  0  0  0
   35.6920   21.3060   31.4330 C   0  0  2  0  0  0  0  0  0  0  0  0
   35.7120   19.8750   30.9370 C   0  0  0  0  0  0  0  0  0  0  0  0
   34.8540   19.0690   31.7170 O   0  0  0  0  0  0  0  0  0  0  0  0
   35.4960   18.9560   32.9510 C   0  0  0  0  0  0  0  0  0  0  0  0
   35.8430   20.3020   33.5480 C   0  0  2  0  0  0  0  0  0  0  0  0
   34.1340   21.2120   32.7810 H   0  0  0  0  0  0  0  0  0  0  0  0
   35.0460   21.9690   30.8140 H   0  0  0  0  0  0  0  0  0  0  0  0
   36.7210   19.4390   30.8750 H   0  0  0  0  0  0  0  0  0  0  0  0
   35.2840   19.8970   29.8990 H   0  0  0  0  0  0  0  0  0  0  0  0
   34.7690   18.4520   33.6360 H   0  0  0  0  0  0  0  0  0  0  0  0
   36.3830   18.3290   32.8140 H   0  0  0  0  0  0  0  0  0  0  0  0
   36.9330   20.4850   33.4490 H   0  0  0  0  0  0  0  0  0  0  0  0
   35.4030   20.3840   34.8850 O   0  0  0  0  0  0  0  0  0  0  0  0
   35.5310   19.4860   35.2910 H   0  0  0  0  0  0  0  0  0  0  0  0
  1  6  1  0  0  0  0
  2  1  2  0  0  0  0
  2  3  1  0  0  0  0
  3  4  2  0  0  0  0
  4  5  1  0  0  0  0
  5  9  1  0  0  0  0
  6  5  2  0  0  0  0
  7  2  1  0  0  0  0
  8  3  1  0  0  0  0
  9 17  2  0  0  0  0
  9 10  1  0  0  0  0
 10 12  2  0  0  0  0
 11 10  1  0  0  0  0
 12 13  1  0  0  0  0
 13 14  1  0  0  0  0
 15 16  1  0  0  0  0
 15 13  2  0  0  0  0
 17 15  1  0  0  0  0
 18 20  1  0  0  0  0
 18  1  1  0  0  0  0
 19 24  1  0  0  0  0
 20 26  1  6  0  0  0
 20 19  1  0  0  0  0
 21 20  1  0  0  0  0
 21 22  1  0  0  0  0
 22 23  1  0  0  0  0
 23 24  1  0  0  0  0
 23 29  1  0  0  0  0
 24 31  1  6  0  0  0
 24 32  1  0  0  0  0
 25 19  1  0  0  0  0
 27 21  1  0  0  0  0
 28 21  1  0  0  0  0
 30 23  1  0  0  0  0
 32 33  1  0  0  0  0
M  END
>  <minimizedAffinity>
-5.68447638

$$$$

 OpenBabel03272502193D

 33 35  0  0  1  0  0  0  0  0999 V2000
   37.4030   23.5920   32.5010 C   0  0  0  0  0  0  0  0  0  0  0  0
   36.8270   22.3690   32.1050 C   0  0  0  0  0  0  0  0  0  0  0  0
   36.7710   21.3400   33.0390 C   0  0  0  0  0  0  0  0  0  0  0  0
   37.2870   21.5800   34.3040 N   0  0  0  0  0  0  0  0  0  0  0  0
   37.8220   22.7520   34.6320 C   0  0  0  0  0  0  0  0  0  0  0  0
   37.8820   23.7520   33.7440 N   0  0  0  0  0  0  0  0  0  0  0  0
   36.4190   22.1620   31.1240 H   0  0  0  0  0  0  0  0  0  0  0  0
   36.3320   20.3800   32.7690 H   0  0  0  0  0  0  0  0  0  0  0  0
   38.3420   22.9230   35.9850 C   0  0  0  0  0  0  0  0  0  0  0  0
   39.6110   22.4790   36.3450 C   0  0  0  0  0  0  0  0  0  0  0  0
   40.2430   21.9890   35.6050 H   0  0  0  0  0  0  0  0  0  0  0  0
   40.0430   22.6730   37.6520 C   0  0  0  0  0  3  0  0  0  0  0  0
   39.2190   23.3040   38.5870 C   0  0  0  0  0  0  0  0  0  0  0  0
   39.5420   23.4640   39.6140 H   0  0  0  0  0  0  0  0  0  0  0  0
   37.9620   23.7480   38.2490 C   0  0  0  0  0  0  0  0  0  0  0  0
   37.2960   24.2430   38.9570 H   0  0  0  0  0  0  0  0  0  0  0  0
   37.5660   23.5390   36.9450 C   0  0  0  0  0  3  0  0  0  0  0  0
   37.4050   24.8020   31.2130 S   0  0  0  0  0  0  0  0  0  0  0  0
   35.9650   26.9180   30.3510 N   0  0  0  0  0  0  0  0  0  0  0  0
   36.2120   26.1400   31.5560 C   0  0  2  0  0  0  0  0  0  0  0  0
   36.8060   27.0650   32.5980 C   0  0  0  0  0  0  0  0  0  0  0  0
   36.5550   28.4130   32.2630 O   0  0  0  0  0  0  0  0  0  0  0  0
   37.3680   28.6630   31.1570 C   0  0  0  0  0  0  0  0  0  0  0  0
   37.1500   27.6660   30.0410 C   0  0  2  0  0  0  0  0  0  0  0  0
   35.1140   27.4870   30.4450 H   0  0  0  0  0  0  0  0  0  0  0  0
   35.2420   25.6950   31.8760 H   0  0  0  0  0  0  0  0  0  0  0  0
   37.8780   26.8940   32.7860 H   0  0  0  0  0  0  0  0  0  0  0  0
   36.2540   26.8570   33.5540 H   0  0  0  0  0  0  0  0  0  0  0  0
   37.0770   29.6750   30.7790 H   0  0  0  0  0  0  0  0  0  0  0  0
   38.4090   28.6740   31.4980 H   0  0  0  0  0  0  0  0  0  0  0  0
   38.0010   26.9560   30.0030 H   0  0  0  0  0  0  0  0  0  0  0  0
   36.9460   28.3280   28.8130 O   0  0  0  0  0  0  0  0  0  0  0  0
   37.5360   29.1270   28.8090 H   0  0  0  0  0  0  0  0  0  0  0  0
  1  6  1  0  0  0  0
  2  1  2  0  0  0  0
  2  3  1  0  0  0  0
  3  4  2  0  0  0  0
  4  5  1  0  0  0  0
  5  9  1  0  0  0  0
  6  5  2  0  0  0  0
  7  2  1  0  0  0  0
  8  3  1  0  0  0  0
  9 10  2  0  0  0  0
  9 17  1  0  0  0  0
 10 12  1  0  0  0  0
 11 10  1  0  0  0  0
 12 13  2  0  0  0  0
 13 14  1  0  0  0  0
 15 13  1  0  0  0  0
 15 16  1  0  0  0  0
 17 15  2  0  0  0  0
 18 20  1  0  0  0  0
 18  1  1  0  0  0  0
 19 25  1  0  0  0  0
 19 20  1  0  0  0  0
 20 26  1  1  0  0  0
 20 21  1  0  0  0  0
 21 27  1  0  0  0  0
 21 28  1  0  0  0  0
 22 21  1  0  0  0  0
 23 30  1  0  0  0  0
 23 22  1  0  0  0  0
 24 31  1  6  0  0  0
 24 19  1  0  0  0  0
 24 23  1  0  0  0  0
 29 23  1  0  0  0  0
 32 24  1  0  0  0  0
 33 32  1  0  0  0  0
M  END
>  <minimizedAffinity>
-5.67817354

$$$$

 OpenBabel03272502193D

 33 35  0  0  1  0  0  0  0  0999 V2000
   36.4330   28.6980   32.4690 C   0  0  0  0  0  0  0  0  0  0  0  0
   36.1150   29.3140   31.2430 C   0  0  0  0  0  0  0  0  0  0  0  0
   35.2920   30.4350   31.2690 C   0  0  0  0  0  0  0  0  0  0  0  0
   34.8320   30.8770   32.5000 N   0  0  0  0  0  0  0  0  0  0  0  0
   35.1600   30.2620   33.6320 C   0  0  0  0  0  0  0  0  0  0  0  0
   35.9520   29.1830   33.6230 N   0  0  0  0  0  0  0  0  0  0  0  0
   36.4630   28.9840   30.2720 H   0  0  0  0  0  0  0  0  0  0  0  0
   35.0240   30.9380   30.3390 H   0  0  0  0  0  0  0  0  0  0  0  0
   34.6340   30.7920   34.8870 C   0  0  0  0  0  0  0  0  0  0  0  0
   35.4000   31.6020   35.7200 C   0  0  0  0  0  0  0  0  0  0  0  0
   36.4230   31.8540   35.4390 H   0  0  0  0  0  0  0  0  0  0  0  0
   34.8370   32.0730   36.9010 C   0  0  0  0  0  3  0  0  0  0  0  0
   33.5250   31.7390   37.2440 C   0  0  0  0  0  0  0  0  0  0  0  0
   33.0680   32.0990   38.1640 H   0  0  0  0  0  0  0  0  0  0  0  0
   32.7530   30.9400   36.4330 C   0  0  0  0  0  0  0  0  0  0  0  0
   31.7270   30.6630   36.6750 H   0  0  0  0  0  0  0  0  0  0  0  0
   33.3430   30.4910   35.2710 C   0  0  0  0  0  3  0  0  0  0  0  0
   37.4850   27.2900   32.2810 S   0  0  0  0  0  0  0  0  0  0  0  0
   37.2780   26.6850   34.9040 N   0  0  0  0  0  0  0  0  0  0  0  0
   37.1890   26.0580   33.5940 C   0  0  2  0  0  0  0  0  0  0  0  0
   38.2620   24.9920   33.5100 C   0  0  0  0  0  0  0  0  0  0  0  0
   38.7160   24.6450   34.8010 O   0  0  0  0  0  0  0  0  0  0  0  0
   39.4440   25.7540   35.2330 C   0  0  0  0  0  0  0  0  0  0  0  0
   38.6480   27.0380   35.1480 C   0  0  2  0  0  0  0  0  0  0  0  0
   36.8550   26.0920   35.6290 H   0  0  0  0  0  0  0  0  0  0  0  0
   36.1600   25.6450   33.4860 H   0  0  0  0  0  0  0  0  0  0  0  0
   39.1030   25.2570   32.8490 H   0  0  0  0  0  0  0  0  0  0  0  0
   37.7650   24.0790   33.0830 H   0  0  0  0  0  0  0  0  0  0  0  0
   39.6870   25.5680   36.3090 H   0  0  0  0  0  0  0  0  0  0  0  0
   40.3650   25.8040   34.6420 H   0  0  0  0  0  0  0  0  0  0  0  0
   39.0030   27.6410   34.2880 H   0  0  0  0  0  0  0  0  0  0  0  0
   38.7120   27.7460   36.3650 O   0  0  0  0  0  0  0  0  0  0  0  0
   39.6280   27.6200   36.7300 H   0  0  0  0  0  0  0  0  0  0  0  0
  1  6  1  0  0  0  0
  2  3  1  0  0  0  0
  2  1  2  0  0  0  0
  3  4  2  0  0  0  0
  4  5  1  0  0  0  0
  5  9  1  0  0  0  0
  6  5  2  0  0  0  0
  7  2  1  0  0  0  0
  8  3  1  0  0  0  0
  9 17  2  0  0  0  0
  9 10  1  0  0  0  0
 10 12  2  0  0  0  0
 11 10  1  0  0  0  0
 12 13  1  0  0  0  0
 13 14  1  0  0  0  0
 15 16  1  0  0  0  0
 15 13  2  0  0  0  0
 17 15  1  0  0  0  0
 18  1  1  0  0  0  0
 18 20  1  0  0  0  0
 19 24  1  0  0  0  0
 19 25  1  0  0  0  0
 20 26  1  6  0  0  0
 20 19  1  0  0  0  0
 21 20  1  0  0  0  0
 21 22  1  0  0  0  0
 22 23  1  0  0  0  0
 23 29  1  0  0  0  0
 24 31  1  6  0  0  0
 24 23  1  0  0  0  0
 24 32  1  0  0  0  0
 27 21  1  0  0  0  0
 28 21  1  0  0  0  0
 30 23  1  0  0  0  0
 32 33  1  0  0  0  0
M  END
>  <minimizedAffinity>
-5.54137373

$$$$

 OpenBabel03272502193D

 33 35  0  0  1  0  0  0  0  0999 V2000
   36.3790   28.7160   32.4280 C   0  0  0  0  0  0  0  0  0  0  0  0
   36.0390   29.3180   31.2010 C   0  0  0  0  0  0  0  0  0  0  0  0
   35.1850   30.4150   31.2270 C   0  0  0  0  0  0  0  0  0  0  0  0
   34.7180   30.8490   32.4590 N   0  0  0  0  0  0  0  0  0  0  0  0
   35.0660   30.2460   33.5910 C   0  0  0  0  0  0  0  0  0  0  0  0
   35.8880   29.1900   33.5820 N   0  0  0  0  0  0  0  0  0  0  0  0
   36.3930   28.9950   30.2300 H   0  0  0  0  0  0  0  0  0  0  0  0
   34.9000   30.9080   30.2970 H   0  0  0  0  0  0  0  0  0  0  0  0
   34.5300   30.7660   34.8460 C   0  0  0  0  0  0  0  0  0  0  0  0
   33.2310   30.4890   35.2600 C   0  0  0  0  0  0  0  0  0  0  0  0
   32.5860   29.8680   34.6380 H   0  0  0  0  0  0  0  0  0  0  0  0
   32.7840   31.0160   36.4660 C   0  0  0  0  0  3  0  0  0  0  0  0
   33.6260   31.8100   37.2490 C   0  0  0  0  0  0  0  0  0  0  0  0
   33.2930   32.2310   38.1960 H   0  0  0  0  0  0  0  0  0  0  0  0
   34.9130   32.0950   36.8560 C   0  0  0  0  0  0  0  0  0  0  0  0
   35.5920   32.7110   37.4450 H   0  0  0  0  0  0  0  0  0  0  0  0
   35.3220   31.5560   35.6550 C   0  0  0  0  0  3  0  0  0  0  0  0
   37.4700   27.3370   32.2400 S   0  0  0  0  0  0  0  0  0  0  0  0
   37.2570   26.7040   34.8560 N   0  0  0  0  0  0  0  0  0  0  0  0
   37.1910   26.0870   33.5400 C   0  0  2  0  0  0  0  0  0  0  0  0
   38.2890   25.0450   33.4550 C   0  0  0  0  0  0  0  0  0  0  0  0
   38.7410   24.6970   34.7460 O   0  0  0  0  0  0  0  0  0  0  0  0
   39.4410   25.8180   35.1930 C   0  0  0  0  0  0  0  0  0  0  0  0
   38.6160   27.0840   35.1140 C   0  0  2  0  0  0  0  0  0  0  0  0
   36.8420   26.0940   35.5730 H   0  0  0  0  0  0  0  0  0  0  0  0
   36.1730   25.6510   33.4210 H   0  0  0  0  0  0  0  0  0  0  0  0
   39.1280   25.3360   32.8030 H   0  0  0  0  0  0  0  0  0  0  0  0
   37.8160   24.1260   33.0160 H   0  0  0  0  0  0  0  0  0  0  0  0
   39.6790   25.6280   36.2700 H   0  0  0  0  0  0  0  0  0  0  0  0
   40.3640   25.8950   34.6110 H   0  0  0  0  0  0  0  0  0  0  0  0
   38.9640   27.7040   34.2630 H   0  0  0  0  0  0  0  0  0  0  0  0
   38.6560   27.7820   36.3380 O   0  0  0  0  0  0  0  0  0  0  0  0
   39.5710   27.6740   36.7090 H   0  0  0  0  0  0  0  0  0  0  0  0
  1  6  1  0  0  0  0
  2  3  1  0  0  0  0
  2  1  2  0  0  0  0
  3  4  2  0  0  0  0
  4  5  1  0  0  0  0
  5  9  1  0  0  0  0
  6  5  2  0  0  0  0
  7  2  1  0  0  0  0
  8  3  1  0  0  0  0
  9 10  2  0  0  0  0
  9 17  1  0  0  0  0
 10 12  1  0  0  0  0
 11 10  1  0  0  0  0
 12 13  2  0  0  0  0
 13 14  1  0  0  0  0
 15 13  1  0  0  0  0
 15 16  1  0  0  0  0
 17 15  2  0  0  0  0
 18  1  1  0  0  0  0
 18 20  1  0  0  0  0
 19 24  1  0  0  0  0
 19 25  1  0  0  0  0
 20 26  1  6  0  0  0
 20 19  1  0  0  0  0
 21 20  1  0  0  0  0
 21 22  1  0  0  0  0
 22 23  1  0  0  0  0
 23 29  1  0  0  0  0
 24 31  1  6  0  0  0
 24 23  1  0  0  0  0
 24 32  1  0  0  0  0
 27 21  1  0  0  0  0
 28 21  1  0  0  0  0
 30 23  1  0  0  0  0
 32 33  1  0  0  0  0
M  END
>  <minimizedAffinity>
-5.49991179

$$$$

 OpenBabel03272502193D

 33 35  0  0  1  0  0  0  0  0999 V2000
   37.4620   23.9920   33.0080 C   0  0  0  0  0  0  0  0  0  0  0  0
   36.7810   23.1210   32.1360 C   0  0  0  0  0  0  0  0  0  0  0  0
   35.9970   23.6810   31.1330 C   0  0  0  0  0  0  0  0  0  0  0  0
   35.9310   25.0640   31.0540 N   0  0  0  0  0  0  0  0  0  0  0  0
   36.5930   25.8460   31.9010 C   0  0  0  0  0  0  0  0  0  0  0  0
   37.3520   25.3220   32.8700 N   0  0  0  0  0  0  0  0  0  0  0  0
   36.8200   22.0390   32.1820 H   0  0  0  0  0  0  0  0  0  0  0  0
   35.4550   23.0380   30.4390 H   0  0  0  0  0  0  0  0  0  0  0  0
   36.4710   27.2930   31.7480 C   0  0  0  0  0  0  0  0  0  0  0  0
   36.1090   28.1160   32.8100 C   0  0  0  0  0  0  0  0  0  0  0  0
   35.9080   27.6800   33.7890 H   0  0  0  0  0  0  0  0  0  0  0  0
   36.0100   29.4860   32.5950 C   0  0  0  0  0  3  0  0  0  0  0  0
   36.2710   30.0260   31.3330 C   0  0  0  0  0  0  0  0  0  0  0  0
   36.1990   31.0960   31.1470 H   0  0  0  0  0  0  0  0  0  0  0  0
   36.6290   29.2290   30.2720 C   0  0  0  0  0  0  0  0  0  0  0  0
   36.8380   29.6220   29.2770 H   0  0  0  0  0  0  0  0  0  0  0  0
   36.7170   27.8760   30.5220 C   0  0  0  0  0  3  0  0  0  0  0  0
   38.4170   23.1400   34.2280 S   0  0  0  0  0  0  0  0  0  0  0  0
   39.9810   23.6130   36.3770 N   0  0  0  0  0  0  0  0  0  0  0  0
   39.0070   24.2790   35.5260 C   0  0  2  0  0  0  0  0  0  0  0  0
   37.8280   24.6830   36.3880 C   0  0  0  0  0  0  0  0  0  0  0  0
   38.1910   24.6860   37.7520 O   0  0  0  0  0  0  0  0  0  0  0  0
   38.3430   23.3390   38.0830 C   0  0  0  0  0  0  0  0  0  0  0  0
   39.3000   22.6200   37.1580 C   0  0  2  0  0  0  0  0  0  0  0  0
   40.5180   24.2940   36.9290 H   0  0  0  0  0  0  0  0  0  0  0  0
   39.5120   25.1500   35.0500 H   0  0  0  0  0  0  0  0  0  0  0  0
   36.9230   24.0780   36.2180 H   0  0  0  0  0  0  0  0  0  0  0  0
   37.5870   25.7450   36.1130 H   0  0  0  0  0  0  0  0  0  0  0  0
   38.7780   23.3180   39.1140 H   0  0  0  0  0  0  0  0  0  0  0  0
   37.3510   22.8770   38.0840 H   0  0  0  0  0  0  0  0  0  0  0  0
   38.7300   21.9710   36.4620 H   0  0  0  0  0  0  0  0  0  0  0  0
   40.2630   21.9020   37.8960 O   0  0  0  0  0  0  0  0  0  0  0  0
   39.8060   21.5390   38.7010 H   0  0  0  0  0  0  0  0  0  0  0  0
  1 18  1  0  0  0  0
  2  7  1  0  0  0  0
  2  1  2  0  0  0  0
  3  2  1  0  0  0  0
  4  3  2  0  0  0  0
  4  5  1  0  0  0  0
  5  6  2  0  0  0  0
  6  1  1  0  0  0  0
  8  3  1  0  0  0  0
  9  5  1  0  0  0  0
  9 10  1  0  0  0  0
 10 11  1  0  0  0  0
 12 10  2  0  0  0  0
 13 12  1  0  0  0  0
 14 13  1  0  0  0  0
 15 17  1  0  0  0  0
 15 13  2  0  0  0  0
 16 15  1  0  0  0  0
 17  9  2  0  0  0  0
 18 20  1  0  0  0  0
 19 25  1  0  0  0  0
 19 24  1  0  0  0  0
 20 26  1  6  0  0  0
 20 19  1  0  0  0  0
 20 21  1  0  0  0  0
 21 22  1  0  0  0  0
 22 23  1  0  0  0  0
 23 30  1  0  0  0  0
 23 29  1  0  0  0  0
 24 31  1  6  0  0  0
 24 32  1  0  0  0  0
 24 23  1  0  0  0  0
 27 21  1  0  0  0  0
 28 21  1  0  0  0  0
 32 33  1  0  0  0  0
M  END
>  <minimizedAffinity>
-5.4533782

$$$$

 OpenBabel03272502193D

 33 35  0  0  1  0  0  0  0  0999 V2000
   37.7640   25.5570   34.0630 C   0  0  0  0  0  0  0  0  0  0  0  0
   37.5390   24.5130   33.1450 C   0  0  0  0  0  0  0  0  0  0  0  0
   36.9310   24.8270   31.9340 C   0  0  0  0  0  0  0  0  0  0  0  0
   36.5800   26.1490   31.7050 N   0  0  0  0  0  0  0  0  0  0  0  0
   36.8120   27.1010   32.6040 C   0  0  0  0  0  0  0  0  0  0  0  0
   37.3980   26.8140   33.7720 N   0  0  0  0  0  0  0  0  0  0  0  0
   37.8060   23.4760   33.3050 H   0  0  0  0  0  0  0  0  0  0  0  0
   36.7410   24.0450   31.1990 H   0  0  0  0  0  0  0  0  0  0  0  0
   36.4130   28.4680   32.2840 C   0  0  0  0  0  0  0  0  0  0  0  0
   35.8420   29.3080   33.2350 C   0  0  0  0  0  0  0  0  0  0  0  0
   35.6840   28.9460   34.2510 H   0  0  0  0  0  0  0  0  0  0  0  0
   35.4840   30.5990   32.8630 C   0  0  0  0  0  3  0  0  0  0  0  0
   35.6950   31.0450   31.5560 C   0  0  0  0  0  0  0  0  0  0  0  0
   35.4210   32.0520   31.2480 H   0  0  0  0  0  0  0  0  0  0  0  0
   36.2570   30.2290   30.6030 C   0  0  0  0  0  0  0  0  0  0  0  0
   36.4330   30.5490   29.5760 H   0  0  0  0  0  0  0  0  0  0  0  0
   36.5990   28.9560   31.0070 C   0  0  0  0  0  3  0  0  0  0  0  0
   38.5440   25.0090   35.5520 S   0  0  0  0  0  0  0  0  0  0  0  0
   38.3060   22.6320   36.8100 N   0  0  0  0  0  0  0  0  0  0  0  0
   38.7750   23.1990   35.5550 C   0  0  2  0  0  0  0  0  0  0  0  0
   40.2540   22.8990   35.4280 C   0  0  0  0  0  0  0  0  0  0  0  0
   40.6220   21.8480   36.2970 O   0  0  0  0  0  0  0  0  0  0  0  0
   40.5480   22.4010   37.5760 C   0  0  0  0  0  0  0  0  0  0  0  0
   39.2030   23.0350   37.8560 C   0  0  2  0  0  0  0  0  0  0  0  0
   38.1720   21.6160   36.7320 H   0  0  0  0  0  0  0  0  0  0  0  0
   38.1710   22.7500   34.7340 H   0  0  0  0  0  0  0  0  0  0  0  0
   40.9020   23.7790   35.5700 H   0  0  0  0  0  0  0  0  0  0  0  0
   40.4100   22.5250   34.3800 H   0  0  0  0  0  0  0  0  0  0  0  0
   40.6860   21.5530   38.2910 H   0  0  0  0  0  0  0  0  0  0  0  0
   41.3680   23.1200   37.6810 H   0  0  0  0  0  0  0  0  0  0  0  0
   39.2960   24.1400   37.8180 H   0  0  0  0  0  0  0  0  0  0  0  0
   38.6840   22.5800   39.0840 O   0  0  0  0  0  0  0  0  0  0  0  0
   39.4500   22.4780   39.7080 H   0  0  0  0  0  0  0  0  0  0  0  0
  1 18  1  0  0  0  0
  2  7  1  0  0  0  0
  2  1  2  0  0  0  0
  3  2  1  0  0  0  0
  4  3  2  0  0  0  0
  4  5  1  0  0  0  0
  5  6  2  0  0  0  0
  6  1  1  0  0  0  0
  8  3  1  0  0  0  0
  9  5  1  0  0  0  0
  9 10  1  0  0  0  0
 10 11  1  0  0  0  0
 12 10  2  0  0  0  0
 13 12  1  0  0  0  0
 14 13  1  0  0  0  0
 15 17  1  0  0  0  0
 15 13  2  0  0  0  0
 16 15  1  0  0  0  0
 17  9  2  0  0  0  0
 18 20  1  0  0  0  0
 19 24  1  0  0  0  0
 20 26  1  6  0  0  0
 20 19  1  0  0  0  0
 21 20  1  0  0  0  0
 21 27  1  0  0  0  0
 21 22  1  0  0  0  0
 22 23  1  0  0  0  0
 23 30  1  0  0  0  0
 23 24  1  0  0  0  0
 23 29  1  0  0  0  0
 24 31  1  1  0  0  0
 24 32  1  0  0  0  0
 25 19  1  0  0  0  0
 28 21  1  0  0  0  0
 32 33  1  0  0  0  0
M  END
>  <minimizedAffinity>
-5.44861364

$$$$

 OpenBabel03272502193D

 33 35  0  0  1  0  0  0  0  0999 V2000
   38.6760   25.7730   32.5830 C   0  0  0  0  0  0  0  0  0  0  0  0
   39.6190   26.8150   32.4970 C   0  0  0  0  0  0  0  0  0  0  0  0
   40.3890   27.0950   33.6210 C   0  0  0  0  0  0  0  0  0  0  0  0
   40.1790   26.3320   34.7610 N   0  0  0  0  0  0  0  0  0  0  0  0
   39.2750   25.3570   34.7940 C   0  0  0  0  0  0  0  0  0  0  0  0
   38.5280   25.0760   33.7200 N   0  0  0  0  0  0  0  0  0  0  0  0
   39.7980   27.4220   31.6180 H   0  0  0  0  0  0  0  0  0  0  0  0
   41.1300   27.8940   33.5920 H   0  0  0  0  0  0  0  0  0  0  0  0
   39.1170   24.6010   36.0330 C   0  0  0  0  0  0  0  0  0  0  0  0
   39.9250   23.5090   36.3350 C   0  0  0  0  0  0  0  0  0  0  0  0
   40.7020   23.2010   35.6350 H   0  0  0  0  0  0  0  0  0  0  0  0
   39.7200   22.8340   37.5320 C   0  0  0  0  0  3  0  0  0  0  0  0
   38.7200   23.2440   38.4170 C   0  0  0  0  0  0  0  0  0  0  0  0
   38.5460   22.7260   39.3580 H   0  0  0  0  0  0  0  0  0  0  0  0
   37.9110   24.3190   38.1350 C   0  0  0  0  0  0  0  0  0  0  0  0
   37.1230   24.6620   38.8050 H   0  0  0  0  0  0  0  0  0  0  0  0
   38.1420   24.9660   36.9390 C   0  0  0  0  0  3  0  0  0  0  0  0
   37.7750   25.5330   31.0810 S   0  0  0  0  0  0  0  0  0  0  0  0
   36.2600   27.4080   29.8650 N   0  0  0  0  0  0  0  0  0  0  0  0
   36.2630   26.5530   31.0420 C   0  0  2  0  0  0  0  0  0  0  0  0
   36.2460   27.4430   32.2690 C   0  0  0  0  0  0  0  0  0  0  0  0
   35.8190   28.7450   31.9300 O   0  0  0  0  0  0  0  0  0  0  0  0
   36.8740   29.2860   31.1940 C   0  0  0  0  0  0  0  0  0  0  0  0
   37.2750   28.4100   30.0280 C   0  0  2  0  0  0  0  0  0  0  0  0
   35.3200   27.7810   29.6790 H   0  0  0  0  0  0  0  0  0  0  0  0
   35.3710   25.8890   30.9800 H   0  0  0  0  0  0  0  0  0  0  0  0
   37.2030   27.4670   32.8150 H   0  0  0  0  0  0  0  0  0  0  0  0
   35.4700   27.0140   32.9580 H   0  0  0  0  0  0  0  0  0  0  0  0
   36.5020   30.2580   30.7840 H   0  0  0  0  0  0  0  0  0  0  0  0
   37.7090   29.4610   31.8800 H   0  0  0  0  0  0  0  0  0  0  0  0
   38.2290   27.8940   30.2590 H   0  0  0  0  0  0  0  0  0  0  0  0
   37.3470   29.1640   28.8390 O   0  0  0  0  0  0  0  0  0  0  0  0
   37.7050   30.0590   29.0800 H   0  0  0  0  0  0  0  0  0  0  0  0
  1  6  1  0  0  0  0
  2  1  2  0  0  0  0
  2  3  1  0  0  0  0
  3  4  2  0  0  0  0
  4  5  1  0  0  0  0
  5  9  1  0  0  0  0
  6  5  2  0  0  0  0
  7  2  1  0  0  0  0
  8  3  1  0  0  0  0
  9 10  2  0  0  0  0
  9 17  1  0  0  0  0
 10 12  1  0  0  0  0
 11 10  1  0  0  0  0
 12 13  2  0  0  0  0
 13 14  1  0  0  0  0
 15 13  1  0  0  0  0
 15 16  1  0  0  0  0
 17 15  2  0  0  0  0
 18  1  1  0  0  0  0
 19 24  1  0  0  0  0
 19 20  1  0  0  0  0
 20 26  1  6  0  0  0
 20 18  1  0  0  0  0
 20 21  1  0  0  0  0
 21 27  1  0  0  0  0
 21 28  1  0  0  0  0
 22 21  1  0  0  0  0
 23 30  1  0  0  0  0
 23 22  1  0  0  0  0
 24 31  1  1  0  0  0
 24 23  1  0  0  0  0
 25 19  1  0  0  0  0
 29 23  1  0  0  0  0
 32 33  1  0  0  0  0
 32 24  1  0  0  0  0
M  END
>  <minimizedAffinity>
-5.4452529

$$$$

 OpenBabel03272502193D

 33 35  0  0  1  0  0  0  0  0999 V2000
   37.5820   26.9490   34.6980 C   0  0  0  0  0  0  0  0  0  0  0  0
   37.5610   26.6250   33.3270 C   0  0  0  0  0  0  0  0  0  0  0  0
   36.8420   27.4520   32.4710 C   0  0  0  0  0  0  0  0  0  0  0  0
   36.1860   28.5440   33.0190 N   0  0  0  0  0  0  0  0  0  0  0  0
   36.2350   28.8090   34.3210 C   0  0  0  0  0  0  0  0  0  0  0  0
   36.9240   28.0240   35.1570 N   0  0  0  0  0  0  0  0  0  0  0  0
   38.0660   25.7770   32.8810 H   0  0  0  0  0  0  0  0  0  0  0  0
   36.8030   27.2320   31.4040 H   0  0  0  0  0  0  0  0  0  0  0  0
   35.5170   29.9800   34.8170 C   0  0  0  0  0  0  0  0  0  0  0  0
   36.1290   30.9230   35.6380 C   0  0  0  0  0  0  0  0  0  0  0  0
   37.1730   30.7950   35.9250 H   0  0  0  0  0  0  0  0  0  0  0  0
   35.3870   32.0150   36.0740 C   0  0  0  0  0  3  0  0  0  0  0  0
   34.0500   32.1620   35.6960 C   0  0  0  0  0  0  0  0  0  0  0  0
   33.4550   33.0100   36.0290 H   0  0  0  0  0  0  0  0  0  0  0  0
   33.4290   31.2400   34.8860 C   0  0  0  0  0  0  0  0  0  0  0  0
   32.3890   31.3280   34.5750 H   0  0  0  0  0  0  0  0  0  0  0  0
   34.1950   30.1710   34.4720 C   0  0  0  0  0  3  0  0  0  0  0  0
   38.5350   25.8130   35.6610 S   0  0  0  0  0  0  0  0  0  0  0  0
   37.8570   23.4890   36.8570 N   0  0  0  0  0  0  0  0  0  0  0  0
   37.8650   24.1190   35.5460 C   0  0  2  0  0  0  0  0  0  0  0  0
   38.7620   23.3030   34.6370 C   0  0  0  0  0  0  0  0  0  0  0  0
   38.9650   22.0120   35.1720 O   0  0  0  0  0  0  0  0  0  0  0  0
   39.7830   22.2120   36.2840 C   0  0  0  0  0  0  0  0  0  0  0  0
   39.2150   23.2310   37.2460 C   0  0  2  0  0  0  0  0  0  0  0  0
   37.2470   22.6610   36.8670 H   0  0  0  0  0  0  0  0  0  0  0  0
   36.8120   24.1630   35.1850 H   0  0  0  0  0  0  0  0  0  0  0  0
   39.7210   23.7920   34.4020 H   0  0  0  0  0  0  0  0  0  0  0  0
   38.1990   23.1730   33.6740 H   0  0  0  0  0  0  0  0  0  0  0  0
   39.8350   21.2280   36.8140 H   0  0  0  0  0  0  0  0  0  0  0  0
   40.7770   22.4990   35.9250 H   0  0  0  0  0  0  0  0  0  0  0  0
   39.7800   24.1820   37.1610 H   0  0  0  0  0  0  0  0  0  0  0  0
   39.2090   22.7270   38.5620 O   0  0  0  0  0  0  0  0  0  0  0  0
   40.0310   22.1790   38.6710 H   0  0  0  0  0  0  0  0  0  0  0  0
  1  6  1  0  0  0  0
  1 18  1  0  0  0  0
  2  1  2  0  0  0  0
  3  4  2  0  0  0  0
  3  2  1  0  0  0  0
  4  5  1  0  0  0  0
  5  9  1  0  0  0  0
  5  6  2  0  0  0  0
  7  2  1  0  0  0  0
  8  3  1  0  0  0  0
  9 10  1  0  0  0  0
 10 11  1  0  0  0  0
 10 12  2  0  0  0  0
 13 14  1  0  0  0  0
 13 12  1  0  0  0  0
 15 13  2  0  0  0  0
 16 15  1  0  0  0  0
 17  9  2  0  0  0  0
 17 15  1  0  0  0  0
 19 25  1  0  0  0  0
 19 24  1  0  0  0  0
 20 26  1  6  0  0  0
 20 18  1  0  0  0  0
 20 19  1  0  0  0  0
 21 22  1  0  0  0  0
 21 20  1  0  0  0  0
 22 23  1  0  0  0  0
 23 29  1  0  0  0  0
 23 24  1  0  0  0  0
 24 31  1  6  0  0  0
 24 32  1  0  0  0  0
 27 21  1  0  0  0  0
 28 21  1  0  0  0  0
 30 23  1  0  0  0  0
 32 33  1  0  0  0  0
M  END
>  <minimizedAffinity>
-5.37950659

$$$$
