
 OpenBabel03272506593D

 28 30  0  0  0  0  0  0  0  0999 V2000
   37.8050   24.9840   33.9960 C   0  0  0  0  0  0  0  0  0  0  0  0
   37.5820   24.4210   32.7540 C   0  0  0  0  0  0  0  0  0  0  0  0
   36.9980   25.0280   31.6710 C   0  0  0  0  0  0  0  0  0  0  0  0
   36.6090   26.3190   31.8730 N   0  0  0  0  0  0  0  0  0  0  0  0
   36.8160   26.9070   33.0920 C   0  0  0  0  0  0  0  0  0  0  0  0
   37.3970   26.2570   34.1220 N   0  0  0  0  0  0  0  0  0  0  0  0
   37.8920   23.3920   32.5980 H   0  0  0  0  0  0  0  0  0  0  0  0
   36.8640   24.5040   30.7340 H   0  0  0  0  0  0  0  0  0  0  0  0
   36.3740   28.2940   33.2380 C   0  0  0  0  0  0  0  0  0  0  0  0
   35.9980   28.8220   34.4340 C   0  0  0  0  0  0  0  0  0  0  0  0
   36.0270   28.1900   35.3180 H   0  0  0  0  0  0  0  0  0  0  0  0
   35.5920   30.1310   34.5010 C   0  0  0  0  0  3  0  0  0  0  0  0
   35.5520   30.9540   33.3740 C   0  0  0  0  0  0  0  0  0  0  0  0
   35.2290   32.0060   33.4160 H   0  0  0  0  0  0  0  0  0  0  0  0
   35.9340   30.4230   32.1430 C   0  0  0  0  0  0  0  0  0  0  0  0
   35.8990   31.0600   31.2840 H   0  0  0  0  0  0  0  0  0  0  0  0
   36.3340   29.0970   32.1270 C   0  0  0  0  0  3  0  0  0  0  0  0
   40.0930   22.6500   35.5820 C   0  0  0  0  0  0  0  0  0  0  0  0
   39.7550   22.6700   36.9470 C   0  0  0  0  0  0  0  0  0  0  0  0
   38.6960   23.5300   37.2940 C   0  0  0  0  0  0  0  0  0  0  0  0
   38.0730   24.2720   36.3420 N   0  0  0  0  0  0  0  0  0  0  0  0
   38.4450   24.2050   35.0630 C   0  0  0  0  0  0  0  0  0  0  0  0
   39.4650   23.3950   34.6340 N   0  0  0  0  0  0  0  0  0  0  0  0
   40.8950   22.0150   35.2310 H   0  0  0  0  0  0  0  0  0  0  0  0
   38.3960   23.5830   38.3340 H   0  0  0  0  0  0  0  0  0  0  0  0
   40.4310   21.8830   37.8960 N   0  0  0  0  0  0  0  0  0  0  0  0
   40.6820   20.8760   37.8330 H   0  0  0  0  0  0  0  0  0  0  0  0
   40.6630   22.4880   38.7330 H   0  0  0  0  0  0  0  0  0  0  0  0
  1  6  1  0  0  0  0
  1 22  1  0  0  0  0
  2  1  2  0  0  0  0
  3  4  2  0  0  0  0
  3  2  1  0  0  0  0
  4  5  1  0  0  0  0
  5  9  1  0  0  0  0
  5  6  2  0  0  0  0
  7  2  1  0  0  0  0
  8  3  1  0  0  0  0
  9 10  1  0  0  0  0
 10 12  2  0  0  0  0
 10 11  1  0  0  0  0
 13 14  1  0  0  0  0
 13 12  1  0  0  0  0
 15 13  2  0  0  0  0
 16 15  1  0  0  0  0
 17 15  1  0  0  0  0
 17  9  2  0  0  0  0
 18 19  1  0  0  0  0
 19 20  2  0  0  0  0
 19 26  1  0  0  0  0
 20 25  1  0  0  0  0
 21 20  1  0  0  0  0
 22 21  2  0  0  0  0
 23 22  1  0  0  0  0
 23 18  2  0  0  0  0
 24 18  1  0  0  0  0
 26 28  1  0  0  0  0
 27 26  1  0  0  0  0
M  END
>  <minimizedAffinity>
-5.44311571

$$$$

 OpenBabel03272506593D

 28 30  0  0  0  0  0  0  0  0999 V2000
   37.6340   25.2850   33.8430 C   0  0  0  0  0  0  0  0  0  0  0  0
   37.4250   24.7200   32.5990 C   0  0  0  0  0  0  0  0  0  0  0  0
   36.8740   25.3330   31.5020 C   0  0  0  0  0  0  0  0  0  0  0  0
   36.5060   26.6320   31.6900 N   0  0  0  0  0  0  0  0  0  0  0  0
   36.7000   27.2210   32.9100 C   0  0  0  0  0  0  0  0  0  0  0  0
   37.2480   26.5650   33.9550 N   0  0  0  0  0  0  0  0  0  0  0  0
   37.7200   23.6840   32.4540 H   0  0  0  0  0  0  0  0  0  0  0  0
   36.7500   24.8060   30.5650 H   0  0  0  0  0  0  0  0  0  0  0  0
   36.2810   28.6160   33.0420 C   0  0  0  0  0  0  0  0  0  0  0  0
   36.2830   29.4850   31.9940 C   0  0  0  0  0  0  0  0  0  0  0  0
   36.6080   29.1300   31.0190 H   0  0  0  0  0  0  0  0  0  0  0  0
   35.8780   30.7820   32.1860 C   0  0  0  0  0  3  0  0  0  0  0  0
   35.4580   31.2510   33.4320 C   0  0  0  0  0  0  0  0  0  0  0  0
   35.1310   32.2890   33.5980 H   0  0  0  0  0  0  0  0  0  0  0  0
   35.4530   30.3710   34.5130 C   0  0  0  0  0  0  0  0  0  0  0  0
   35.1300   30.7380   35.4650 H   0  0  0  0  0  0  0  0  0  0  0  0
   35.8700   29.0730   34.2680 C   0  0  0  0  0  3  0  0  0  0  0  0
   38.3470   24.1570   37.2220 C   0  0  0  0  0  0  0  0  0  0  0  0
   39.2780   23.1130   37.0750 C   0  0  0  0  0  0  0  0  0  0  0  0
   39.6490   22.8170   35.7500 C   0  0  0  0  0  0  0  0  0  0  0  0
   39.1180   23.5180   34.7150 N   0  0  0  0  0  0  0  0  0  0  0  0
   38.2380   24.4980   34.9250 C   0  0  0  0  0  0  0  0  0  0  0  0
   37.8190   24.8540   36.1820 N   0  0  0  0  0  0  0  0  0  0  0  0
   38.0100   24.4480   38.2070 H   0  0  0  0  0  0  0  0  0  0  0  0
   40.3650   22.0210   35.5810 H   0  0  0  0  0  0  0  0  0  0  0  0
   39.8010   22.4160   38.1790 N   0  0  0  0  0  0  0  0  0  0  0  0
   40.1750   22.8080   39.0670 H   0  0  0  0  0  0  0  0  0  0  0  0
   39.7610   21.3790   37.9730 H   0  0  0  0  0  0  0  0  0  0  0  0
  1  6  1  0  0  0  0
  1 22  1  0  0  0  0
  2  1  2  0  0  0  0
  3  4  2  0  0  0  0
  3  2  1  0  0  0  0
  4  5  1  0  0  0  0
  5  9  1  0  0  0  0
  5  6  2  0  0  0  0
  7  2  1  0  0  0  0
  8  3  1  0  0  0  0
  9 17  1  0  0  0  0
 10 12  1  0  0  0  0
 10  9  2  0  0  0  0
 11 10  1  0  0  0  0
 12 13  2  0  0  0  0
 13 14  1  0  0  0  0
 13 15  1  0  0  0  0
 15 16  1  0  0  0  0
 17 15  2  0  0  0  0
 18 24  1  0  0  0  0
 19 18  1  0  0  0  0
 19 26  1  0  0  0  0
 20 19  2  0  0  0  0
 21 22  2  0  0  0  0
 21 20  1  0  0  0  0
 22 23  1  0  0  0  0
 23 18  2  0  0  0  0
 25 20  1  0  0  0  0
 26 27  1  0  0  0  0
 28 26  1  0  0  0  0
M  END
>  <minimizedAffinity>
-5.39709711

$$$$

 OpenBabel03272506593D

 28 30  0  0  0  0  0  0  0  0999 V2000
   37.3860   25.4480   32.8950 C   0  0  0  0  0  0  0  0  0  0  0  0
   37.5120   24.3460   32.0710 C   0  0  0  0  0  0  0  0  0  0  0  0
   37.9230   23.0900   32.4370 C   0  0  0  0  0  0  0  0  0  0  0  0
   38.2320   22.9450   33.7570 N   0  0  0  0  0  0  0  0  0  0  0  0
   38.1180   24.0170   34.6010 C   0  0  0  0  0  0  0  0  0  0  0  0
   37.7070   25.2310   34.1810 N   0  0  0  0  0  0  0  0  0  0  0  0
   37.2650   24.4660   31.0190 H   0  0  0  0  0  0  0  0  0  0  0  0
   37.9910   22.2850   31.7160 H   0  0  0  0  0  0  0  0  0  0  0  0
   38.4660   23.7910   36.0040 C   0  0  0  0  0  0  0  0  0  0  0  0
   39.5240   23.0230   36.3830 C   0  0  0  0  0  0  0  0  0  0  0  0
   40.1360   22.5580   35.6140 H   0  0  0  0  0  0  0  0  0  0  0  0
   39.7940   22.8510   37.7170 C   0  0  0  0  0  3  0  0  0  0  0  0
   39.0170   23.4420   38.7140 C   0  0  0  0  0  0  0  0  0  0  0  0
   39.2250   23.3110   39.7880 H   0  0  0  0  0  0  0  0  0  0  0  0
   37.9300   24.2300   38.3380 C   0  0  0  0  0  0  0  0  0  0  0  0
   37.3380   24.6790   39.1080 H   0  0  0  0  0  0  0  0  0  0  0  0
   37.6980   24.3720   36.9790 C   0  0  0  0  0  3  0  0  0  0  0  0
   36.6080   28.0050   30.4350 C   0  0  0  0  0  0  0  0  0  0  0  0
   36.1120   29.0930   31.1770 C   0  0  0  0  0  0  0  0  0  0  0  0
   36.0600   28.9010   32.5700 C   0  0  0  0  0  0  0  0  0  0  0  0
   36.4700   27.7270   33.1170 N   0  0  0  0  0  0  0  0  0  0  0  0
   36.9310   26.7340   32.3550 C   0  0  0  0  0  0  0  0  0  0  0  0
   37.0170   26.8340   30.9900 N   0  0  0  0  0  0  0  0  0  0  0  0
   36.6810   28.0720   29.3590 H   0  0  0  0  0  0  0  0  0  0  0  0
   35.6860   29.7080   33.1880 H   0  0  0  0  0  0  0  0  0  0  0  0
   35.6980   30.2890   30.5640 N   0  0  0  0  0  0  0  0  0  0  0  0
   36.1900   30.8380   29.8300 H   0  0  0  0  0  0  0  0  0  0  0  0
   34.7650   30.5730   30.9740 H   0  0  0  0  0  0  0  0  0  0  0  0
  1  6  1  0  0  0  0
  2  3  1  0  0  0  0
  2  1  2  0  0  0  0
  3  4  2  0  0  0  0
  4  5  1  0  0  0  0
  5  9  1  0  0  0  0
  6  5  2  0  0  0  0
  7  2  1  0  0  0  0
  8  3  1  0  0  0  0
  9 10  2  0  0  0  0
  9 17  1  0  0  0  0
 10 12  1  0  0  0  0
 11 10  1  0  0  0  0
 12 13  2  0  0  0  0
 13 14  1  0  0  0  0
 15 13  1  0  0  0  0
 15 16  1  0  0  0  0
 17 15  2  0  0  0  0
 18 23  2  0  0  0  0
 18 19  1  0  0  0  0
 19 20  2  0  0  0  0
 20 21  1  0  0  0  0
 20 25  1  0  0  0  0
 22  1  1  0  0  0  0
 22 21  2  0  0  0  0
 23 22  1  0  0  0  0
 24 18  1  0  0  0  0
 26 28  1  0  0  0  0
 26 19  1  0  0  0  0
 27 26  1  0  0  0  0
M  END
>  <minimizedAffinity>
-5.38255739

$$$$

 OpenBabel03272506593D

 28 30  0  0  0  0  0  0  0  0999 V2000
   37.7480   25.0820   33.7770 C   0  0  0  0  0  0  0  0  0  0  0  0
   37.7850   24.4140   32.5690 C   0  0  0  0  0  0  0  0  0  0  0  0
   37.4460   24.9220   31.3400 C   0  0  0  0  0  0  0  0  0  0  0  0
   37.0360   26.2220   31.3450 N   0  0  0  0  0  0  0  0  0  0  0  0
   36.9880   26.9120   32.5260 C   0  0  0  0  0  0  0  0  0  0  0  0
   37.3340   26.3570   33.7070 N   0  0  0  0  0  0  0  0  0  0  0  0
   38.1120   23.3780   32.5690 H   0  0  0  0  0  0  0  0  0  0  0  0
   37.5070   24.3190   30.4440 H   0  0  0  0  0  0  0  0  0  0  0  0
   36.5380   28.3020   32.4590 C   0  0  0  0  0  0  0  0  0  0  0  0
   35.9350   28.9310   33.5040 C   0  0  0  0  0  0  0  0  0  0  0  0
   35.7810   28.3790   34.4290 H   0  0  0  0  0  0  0  0  0  0  0  0
   35.5360   30.2360   33.3740 C   0  0  0  0  0  3  0  0  0  0  0  0
   35.7290   30.9570   32.1930 C   0  0  0  0  0  0  0  0  0  0  0  0
   35.4130   32.0050   32.0780 H   0  0  0  0  0  0  0  0  0  0  0  0
   36.3440   30.3230   31.1150 C   0  0  0  0  0  0  0  0  0  0  0  0
   36.4880   30.8820   30.2140 H   0  0  0  0  0  0  0  0  0  0  0  0
   36.7280   29.0050   31.2970 C   0  0  0  0  0  3  0  0  0  0  0  0
   38.0900   24.4560   37.3400 C   0  0  0  0  0  0  0  0  0  0  0  0
   38.8060   23.2490   37.4360 C   0  0  0  0  0  0  0  0  0  0  0  0
   39.1660   22.6610   36.2090 C   0  0  0  0  0  0  0  0  0  0  0  0
   38.8230   23.2530   35.0360 N   0  0  0  0  0  0  0  0  0  0  0  0
   38.1420   24.4010   35.0170 C   0  0  0  0  0  0  0  0  0  0  0  0
   37.7510   25.0440   36.1630 N   0  0  0  0  0  0  0  0  0  0  0  0
   37.7760   24.9730   38.2360 H   0  0  0  0  0  0  0  0  0  0  0  0
   39.7190   21.7290   36.2270 H   0  0  0  0  0  0  0  0  0  0  0  0
   39.1380   22.6730   38.6760 N   0  0  0  0  0  0  0  0  0  0  0  0
   39.5440   23.1390   39.5120 H   0  0  0  0  0  0  0  0  0  0  0  0
   38.9050   21.6420   38.6420 H   0  0  0  0  0  0  0  0  0  0  0  0
  1 22  1  0  0  0  0
  2  7  1  0  0  0  0
  2  1  2  0  0  0  0
  3  4  2  0  0  0  0
  3  2  1  0  0  0  0
  4  5  1  0  0  0  0
  5  6  2  0  0  0  0
  6  1  1  0  0  0  0
  8  3  1  0  0  0  0
  9  5  1  0  0  0  0
  9 10  1  0  0  0  0
 10 11  1  0  0  0  0
 12 10  2  0  0  0  0
 13 12  1  0  0  0  0
 14 13  1  0  0  0  0
 15 17  1  0  0  0  0
 15 13  2  0  0  0  0
 16 15  1  0  0  0  0
 17  9  2  0  0  0  0
 18 19  1  0  0  0  0
 18 24  1  0  0  0  0
 19 26  1  0  0  0  0
 20 25  1  0  0  0  0
 20 19  2  0  0  0  0
 21 20  1  0  0  0  0
 22 21  2  0  0  0  0
 22 23  1  0  0  0  0
 23 18  2  0  0  0  0
 26 27  1  0  0  0  0
 28 26  1  0  0  0  0
M  END
>  <minimizedAffinity>
-5.35306883

$$$$

 OpenBabel03272506593D

 28 30  0  0  0  0  0  0  0  0999 V2000
   37.0150   23.3550   31.2650 C   0  0  0  0  0  0  0  0  0  0  0  0
   38.0730   23.5850   30.4070 C   0  0  0  0  0  0  0  0  0  0  0  0
   38.7080   24.7810   30.1890 C   0  0  0  0  0  0  0  0  0  0  0  0
   38.2220   25.8320   30.9090 N   0  0  0  0  0  0  0  0  0  0  0  0
   37.1750   25.6390   31.7680 C   0  0  0  0  0  0  0  0  0  0  0  0
   36.5890   24.4350   31.9400 N   0  0  0  0  0  0  0  0  0  0  0  0
   38.4570   22.7450   29.8350 H   0  0  0  0  0  0  0  0  0  0  0  0
   39.5330   24.8640   29.4930 H   0  0  0  0  0  0  0  0  0  0  0  0
   36.7040   26.8100   32.5070 C   0  0  0  0  0  0  0  0  0  0  0  0
   35.9050   27.7590   31.9480 C   0  0  0  0  0  0  0  0  0  0  0  0
   35.6030   27.6440   30.9100 H   0  0  0  0  0  0  0  0  0  0  0  0
   35.5000   28.8340   32.6980 C   0  0  0  0  0  3  0  0  0  0  0  0
   35.8800   28.9930   34.0320 C   0  0  0  0  0  0  0  0  0  0  0  0
   35.5600   29.8520   34.6430 H   0  0  0  0  0  0  0  0  0  0  0  0
   36.6990   28.0280   34.6150 C   0  0  0  0  0  0  0  0  0  0  0  0
   36.9860   28.1580   35.6380 H   0  0  0  0  0  0  0  0  0  0  0  0
   37.0810   26.9630   33.8170 C   0  0  0  0  0  3  0  0  0  0  0  0
   34.7740   20.7200   32.3760 C   0  0  0  0  0  0  0  0  0  0  0  0
   35.2300   19.5530   31.7370 C   0  0  0  0  0  0  0  0  0  0  0  0
   36.3510   19.7200   30.9020 C   0  0  0  0  0  0  0  0  0  0  0  0
   36.9210   20.9440   30.7540 N   0  0  0  0  0  0  0  0  0  0  0  0
   36.4370   22.0120   31.3910 C   0  0  0  0  0  0  0  0  0  0  0  0
   35.3490   21.9420   32.2230 N   0  0  0  0  0  0  0  0  0  0  0  0
   33.9170   20.6780   33.0340 H   0  0  0  0  0  0  0  0  0  0  0  0
   36.7430   18.8520   30.3860 H   0  0  0  0  0  0  0  0  0  0  0  0
   34.6060   18.3070   31.9220 N   0  0  0  0  0  0  0  0  0  0  0  0
   34.3060   17.8650   32.8150 H   0  0  0  0  0  0  0  0  0  0  0  0
   34.4730   17.8510   30.9760 H   0  0  0  0  0  0  0  0  0  0  0  0
  1 22  1  0  0  0  0
  1  6  1  0  0  0  0
  2  1  2  0  0  0  0
  3  2  1  0  0  0  0
  3  4  2  0  0  0  0
  4  5  1  0  0  0  0
  5  6  2  0  0  0  0
  5  9  1  0  0  0  0
  7  2  1  0  0  0  0
  8  3  1  0  0  0  0
  9 17  1  0  0  0  0
 10  9  2  0  0  0  0
 10 12  1  0  0  0  0
 11 10  1  0  0  0  0
 12 13  2  0  0  0  0
 13 15  1  0  0  0  0
 13 14  1  0  0  0  0
 15 16  1  0  0  0  0
 17 15  2  0  0  0  0
 18 24  1  0  0  0  0
 19 26  1  0  0  0  0
 19 18  2  0  0  0  0
 20 19  1  0  0  0  0
 21 20  2  0  0  0  0
 21 22  1  0  0  0  0
 22 23  2  0  0  0  0
 23 18  1  0  0  0  0
 25 20  1  0  0  0  0
 26 27  1  0  0  0  0
 28 26  1  0  0  0  0
M  END
>  <minimizedAffinity>
-5.28939772

$$$$

 OpenBabel03272506593D

 28 30  0  0  0  0  0  0  0  0999 V2000
   35.9920   28.1940   32.2180 C   0  0  0  0  0  0  0  0  0  0  0  0
   36.4060   29.0810   31.2440 C   0  0  0  0  0  0  0  0  0  0  0  0
   36.3900   30.4510   31.3220 C   0  0  0  0  0  0  0  0  0  0  0  0
   35.9120   30.9570   32.4940 N   0  0  0  0  0  0  0  0  0  0  0  0
   35.4950   30.1050   33.4800 C   0  0  0  0  0  0  0  0  0  0  0  0
   35.5340   28.7630   33.3440 N   0  0  0  0  0  0  0  0  0  0  0  0
   36.7860   28.6740   30.3110 H   0  0  0  0  0  0  0  0  0  0  0  0
   36.7360   31.0670   30.5020 H   0  0  0  0  0  0  0  0  0  0  0  0
   34.9930   30.7160   34.7110 C   0  0  0  0  0  0  0  0  0  0  0  0
   35.7750   31.4790   35.5230 C   0  0  0  0  0  0  0  0  0  0  0  0
   36.8140   31.6420   35.2480 H   0  0  0  0  0  0  0  0  0  0  0  0
   35.2410   32.0220   36.6640 C   0  0  0  0  0  3  0  0  0  0  0  0
   33.9090   31.8220   37.0290 C   0  0  0  0  0  0  0  0  0  0  0  0
   33.4700   32.2540   37.9420 H   0  0  0  0  0  0  0  0  0  0  0  0
   33.0990   31.0420   36.2050 C   0  0  0  0  0  0  0  0  0  0  0  0
   32.0790   30.8920   36.4920 H   0  0  0  0  0  0  0  0  0  0  0  0
   33.6840   30.5150   35.0650 C   0  0  0  0  0  3  0  0  0  0  0  0
   37.1720   24.7710   32.5260 C   0  0  0  0  0  0  0  0  0  0  0  0
   36.3500   24.0180   31.6680 C   0  0  0  0  0  0  0  0  0  0  0  0
   35.3670   24.7510   30.9760 C   0  0  0  0  0  0  0  0  0  0  0  0
   35.2560   26.0920   31.1570 N   0  0  0  0  0  0  0  0  0  0  0  0
   36.0700   26.7460   31.9880 C   0  0  0  0  0  0  0  0  0  0  0  0
   37.0560   26.1140   32.7020 N   0  0  0  0  0  0  0  0  0  0  0  0
   37.9530   24.2840   33.0940 H   0  0  0  0  0  0  0  0  0  0  0  0
   34.7070   24.2190   30.3020 H   0  0  0  0  0  0  0  0  0  0  0  0
   36.5040   22.6290   31.5140 N   0  0  0  0  0  0  0  0  0  0  0  0
   37.3820   22.0930   31.3660 H   0  0  0  0  0  0  0  0  0  0  0  0
   35.5500   22.1750   31.5730 H   0  0  0  0  0  0  0  0  0  0  0  0
  1  6  1  0  0  0  0
  2  3  1  0  0  0  0
  2  1  2  0  0  0  0
  3  4  2  0  0  0  0
  4  5  1  0  0  0  0
  5  9  1  0  0  0  0
  6  5  2  0  0  0  0
  7  2  1  0  0  0  0
  8  3  1  0  0  0  0
  9 17  2  0  0  0  0
  9 10  1  0  0  0  0
 10 12  2  0  0  0  0
 11 10  1  0  0  0  0
 12 13  1  0  0  0  0
 13 14  1  0  0  0  0
 15 16  1  0  0  0  0
 15 13  2  0  0  0  0
 17 15  1  0  0  0  0
 18 23  1  0  0  0  0
 18 24  1  0  0  0  0
 19 18  2  0  0  0  0
 20 21  2  0  0  0  0
 20 19  1  0  0  0  0
 21 22  1  0  0  0  0
 22  1  1  0  0  0  0
 22 23  2  0  0  0  0
 25 20  1  0  0  0  0
 26 28  1  0  0  0  0
 26 19  1  0  0  0  0
 27 26  1  0  0  0  0
M  END
>  <minimizedAffinity>
-5.26881552

$$$$

 OpenBabel03272506593D

 28 30  0  0  0  0  0  0  0  0999 V2000
   37.7800   25.5930   32.7500 C   0  0  0  0  0  0  0  0  0  0  0  0
   38.2720   24.5880   31.9390 C   0  0  0  0  0  0  0  0  0  0  0  0
   38.8480   23.4120   32.3480 C   0  0  0  0  0  0  0  0  0  0  0  0
   38.9280   23.2470   33.7000 N   0  0  0  0  0  0  0  0  0  0  0  0
   38.4490   24.2240   34.5310 C   0  0  0  0  0  0  0  0  0  0  0  0
   37.8910   25.3620   34.0670 N   0  0  0  0  0  0  0  0  0  0  0  0
   38.2070   24.7230   30.8630 H   0  0  0  0  0  0  0  0  0  0  0  0
   39.2070   22.6810   31.6360 H   0  0  0  0  0  0  0  0  0  0  0  0
   38.5670   23.9820   35.9680 C   0  0  0  0  0  0  0  0  0  0  0  0
   37.7390   24.5590   36.8810 C   0  0  0  0  0  0  0  0  0  0  0  0
   36.9570   25.2270   36.5290 H   0  0  0  0  0  0  0  0  0  0  0  0
   37.9060   24.2900   38.2150 C   0  0  0  0  0  3  0  0  0  0  0  0
   38.9050   23.4330   38.6800 C   0  0  0  0  0  0  0  0  0  0  0  0
   39.0480   23.2090   39.7490 H   0  0  0  0  0  0  0  0  0  0  0  0
   39.7610   22.8370   37.7550 C   0  0  0  0  0  0  0  0  0  0  0  0
   40.5250   22.1820   38.1190 H   0  0  0  0  0  0  0  0  0  0  0  0
   39.5520   23.1410   36.4200 C   0  0  0  0  0  3  0  0  0  0  0  0
   36.0260   28.7700   32.5800 C   0  0  0  0  0  0  0  0  0  0  0  0
   36.0260   29.1200   31.2170 C   0  0  0  0  0  0  0  0  0  0  0  0
   36.6620   28.2040   30.3580 C   0  0  0  0  0  0  0  0  0  0  0  0
   37.2240   27.0720   30.8560 N   0  0  0  0  0  0  0  0  0  0  0  0
   37.1880   26.8000   32.1620 C   0  0  0  0  0  0  0  0  0  0  0  0
   36.5900   27.6350   33.0710 N   0  0  0  0  0  0  0  0  0  0  0  0
   35.5570   29.4190   33.3060 H   0  0  0  0  0  0  0  0  0  0  0  0
   36.6900   28.4260   29.2980 H   0  0  0  0  0  0  0  0  0  0  0  0
   35.4300   30.3050   30.7490 N   0  0  0  0  0  0  0  0  0  0  0  0
   34.4940   30.6900   30.9890 H   0  0  0  0  0  0  0  0  0  0  0  0
   36.1000   30.7790   30.0820 H   0  0  0  0  0  0  0  0  0  0  0  0
  1  6  1  0  0  0  0
  2  3  1  0  0  0  0
  2  1  2  0  0  0  0
  3  4  2  0  0  0  0
  4  5  1  0  0  0  0
  5  9  1  0  0  0  0
  6  5  2  0  0  0  0
  7  2  1  0  0  0  0
  8  3  1  0  0  0  0
  9 17  2  0  0  0  0
  9 10  1  0  0  0  0
 10 12  2  0  0  0  0
 11 10  1  0  0  0  0
 12 13  1  0  0  0  0
 13 14  1  0  0  0  0
 15 16  1  0  0  0  0
 15 13  2  0  0  0  0
 17 15  1  0  0  0  0
 18 23  1  0  0  0  0
 18 24  1  0  0  0  0
 19 18  2  0  0  0  0
 20 21  2  0  0  0  0
 20 19  1  0  0  0  0
 21 22  1  0  0  0  0
 22  1  1  0  0  0  0
 22 23  2  0  0  0  0
 25 20  1  0  0  0  0
 26 27  1  0  0  0  0
 26 19  1  0  0  0  0
 28 26  1  0  0  0  0
M  END
>  <minimizedAffinity>
-5.25870848

$$$$

 OpenBabel03272506593D

 28 30  0  0  0  0  0  0  0  0999 V2000
   41.3620   24.8180   35.1550 C   0  0  0  0  0  0  0  0  0  0  0  0
   42.4430   25.5150   34.6520 C   0  0  0  0  0  0  0  0  0  0  0  0
   42.4030   26.6880   33.9410 C   0  0  0  0  0  0  0  0  0  0  0  0
   41.1550   27.1920   33.7270 N   0  0  0  0  0  0  0  0  0  0  0  0
   40.0620   26.5250   34.2120 C   0  0  0  0  0  0  0  0  0  0  0  0
   40.1650   25.3720   34.9060 N   0  0  0  0  0  0  0  0  0  0  0  0
   43.4360   25.1100   34.8240 H   0  0  0  0  0  0  0  0  0  0  0  0
   43.3080   27.1630   33.5850 H   0  0  0  0  0  0  0  0  0  0  0  0
   38.7540   27.1220   33.9450 C   0  0  0  0  0  0  0  0  0  0  0  0
   37.8850   27.4610   34.9360 C   0  0  0  0  0  0  0  0  0  0  0  0
   38.1740   27.2820   35.9690 H   0  0  0  0  0  0  0  0  0  0  0  0
   36.6730   28.0160   34.6160 C   0  0  0  0  0  3  0  0  0  0  0  0
   36.2900   28.2520   33.2940 C   0  0  0  0  0  0  0  0  0  0  0  0
   35.3200   28.6980   33.0260 H   0  0  0  0  0  0  0  0  0  0  0  0
   37.1710   27.9080   32.2710 C   0  0  0  0  0  0  0  0  0  0  0  0
   36.8710   28.0910   31.2600 H   0  0  0  0  0  0  0  0  0  0  0  0
   38.3830   27.3500   32.6450 C   0  0  0  0  0  3  0  0  0  0  0  0
   43.0360   21.8370   36.3840 C   0  0  0  0  0  0  0  0  0  0  0  0
   42.1050   21.2120   37.2330 C   0  0  0  0  0  0  0  0  0  0  0  0
   40.8680   21.8710   37.3610 C   0  0  0  0  0  0  0  0  0  0  0  0
   40.6340   23.0300   36.6910 N   0  0  0  0  0  0  0  0  0  0  0  0
   41.5630   23.5690   35.9000 C   0  0  0  0  0  0  0  0  0  0  0  0
   42.7960   22.9960   35.7160 N   0  0  0  0  0  0  0  0  0  0  0  0
   44.0110   21.3940   36.2300 H   0  0  0  0  0  0  0  0  0  0  0  0
   40.1140   21.4320   38.0030 H   0  0  0  0  0  0  0  0  0  0  0  0
   42.3930   20.0120   37.9060 N   0  0  0  0  0  0  0  0  0  0  0  0
   42.8260   19.1480   37.5210 H   0  0  0  0  0  0  0  0  0  0  0  0
   42.0940   20.1100   38.9160 H   0  0  0  0  0  0  0  0  0  0  0  0
  1 22  1  0  0  0  0
  2  7  1  0  0  0  0
  2  1  2  0  0  0  0
  3  2  1  0  0  0  0
  4  3  2  0  0  0  0
  4  5  1  0  0  0  0
  5  6  2  0  0  0  0
  6  1  1  0  0  0  0
  8  3  1  0  0  0  0
  9  5  1  0  0  0  0
  9 10  1  0  0  0  0
 10 11  1  0  0  0  0
 12 10  2  0  0  0  0
 13 12  1  0  0  0  0
 14 13  1  0  0  0  0
 15 17  1  0  0  0  0
 15 13  2  0  0  0  0
 16 15  1  0  0  0  0
 17  9  2  0  0  0  0
 18 19  1  0  0  0  0
 19 20  2  0  0  0  0
 19 26  1  0  0  0  0
 20 25  1  0  0  0  0
 21 20  1  0  0  0  0
 22 21  2  0  0  0  0
 23 22  1  0  0  0  0
 23 18  2  0  0  0  0
 24 18  1  0  0  0  0
 26 28  1  0  0  0  0
 27 26  1  0  0  0  0
M  END
>  <minimizedAffinity>
-5.22976255

$$$$

 OpenBabel03272506593D

 28 30  0  0  0  0  0  0  0  0999 V2000
   40.1760   24.6630   34.8100 C   0  0  0  0  0  0  0  0  0  0  0  0
   40.7530   25.9180   34.8030 C   0  0  0  0  0  0  0  0  0  0  0  0
   40.3150   27.0190   34.1100 C   0  0  0  0  0  0  0  0  0  0  0  0
   39.1920   26.8210   33.3630 N   0  0  0  0  0  0  0  0  0  0  0  0
   38.5950   25.5890   33.3480 C   0  0  0  0  0  0  0  0  0  0  0  0
   39.0750   24.5420   34.0520 N   0  0  0  0  0  0  0  0  0  0  0  0
   41.6480   26.0710   35.4000 H   0  0  0  0  0  0  0  0  0  0  0  0
   40.8360   27.9650   34.1670 H   0  0  0  0  0  0  0  0  0  0  0  0
   37.3950   25.4480   32.5240 C   0  0  0  0  0  0  0  0  0  0  0  0
   36.6800   26.5170   32.0790 C   0  0  0  0  0  0  0  0  0  0  0  0
   37.0140   27.5180   32.3450 H   0  0  0  0  0  0  0  0  0  0  0  0
   35.5630   26.3150   31.3100 C   0  0  0  0  0  3  0  0  0  0  0  0
   35.1250   25.0360   30.9600 C   0  0  0  0  0  0  0  0  0  0  0  0
   34.2290   24.8620   30.3430 H   0  0  0  0  0  0  0  0  0  0  0  0
   35.8480   23.9330   31.4120 C   0  0  0  0  0  0  0  0  0  0  0  0
   35.5050   22.9570   31.1400 H   0  0  0  0  0  0  0  0  0  0  0  0
   36.9680   24.1900   32.1850 C   0  0  0  0  0  3  0  0  0  0  0  0
   40.4070   22.0270   37.3000 C   0  0  0  0  0  0  0  0  0  0  0  0
   41.7160   21.5240   37.1850 C   0  0  0  0  0  0  0  0  0  0  0  0
   42.5160   22.1400   36.2050 C   0  0  0  0  0  0  0  0  0  0  0  0
   42.0170   23.1480   35.4450 N   0  0  0  0  0  0  0  0  0  0  0  0
   40.7640   23.5780   35.6050 C   0  0  0  0  0  0  0  0  0  0  0  0
   39.9140   23.0370   36.5350 N   0  0  0  0  0  0  0  0  0  0  0  0
   39.7270   21.6090   38.0290 H   0  0  0  0  0  0  0  0  0  0  0  0
   43.5330   21.7900   36.0760 H   0  0  0  0  0  0  0  0  0  0  0  0
   42.1880   20.4770   37.9970 N   0  0  0  0  0  0  0  0  0  0  0  0
   42.0900   20.3690   39.0270 H   0  0  0  0  0  0  0  0  0  0  0  0
   42.6850   19.7720   37.3840 H   0  0  0  0  0  0  0  0  0  0  0  0
  1 22  1  0  0  0  0
  2  1  1  0  0  0  0
  2  7  1  0  0  0  0
  3  8  1  0  0  0  0
  3  2  2  0  0  0  0
  4  3  1  0  0  0  0
  5  4  2  0  0  0  0
  5  6  1  0  0  0  0
  6  1  2  0  0  0  0
  9  5  1  0  0  0  0
 10 11  1  0  0  0  0
 10  9  2  0  0  0  0
 12 10  1  0  0  0  0
 13 12  2  0  0  0  0
 13 15  1  0  0  0  0
 14 13  1  0  0  0  0
 15 17  2  0  0  0  0
 16 15  1  0  0  0  0
 17  9  1  0  0  0  0
 18 24  1  0  0  0  0
 19 18  1  0  0  0  0
 19 26  1  0  0  0  0
 20 19  2  0  0  0  0
 21 22  2  0  0  0  0
 21 20  1  0  0  0  0
 22 23  1  0  0  0  0
 23 18  2  0  0  0  0
 25 20  1  0  0  0  0
 26 27  1  0  0  0  0
 28 26  1  0  0  0  0
M  END
>  <minimizedAffinity>
-5.17919111

$$$$
