REMARK  Name = 
REMARK  3 active torsions:
REMARK  status: ('A' for Active; 'I' for Inactive)
REMARK    1  A    between atoms: C_3  and  C_12
REMARK    2  A    between atoms: C_5  and  C_14
REMARK    3  A    between atoms: C_18  and  C_28
REMARK                            x       y       z     vdW  Elec       q    Type
REMARK                         _______ _______ _______ _____ _____    ______ ____
ROOT
ATOM      1 BR   UNL     1      37.315  29.334  51.025  0.00  0.00    +0.000 Br
ATOM      2  C   UNL     1      35.962  29.324  49.681  0.00  0.00    +0.000 A 
ATOM      3  C   UNL     1      35.994  30.254  48.646  0.00  0.00    +0.000 A 
ATOM      4  C   UNL     1      34.980  30.186  47.708  0.00  0.00    +0.000 A 
ATOM      5  C   UNL     1      33.959  29.254  47.757  0.00  0.00    +0.000 A 
ATOM      6  C   UNL     1      33.961  28.362  48.783  0.00  0.00    +0.000 A 
ATOM      7  C   UNL     1      34.963  28.410  49.731  0.00  0.00    +0.000 A 
ATOM      8  H   UNL     1      34.952  30.883  46.880  0.00  0.00    +0.000 HD
ATOM      9  H   UNL     1      33.209  27.593  48.914  0.00  0.00    +0.000 HD
ATOM     10  H   UNL     1      34.968  27.693  50.560  0.00  0.00    +0.000 HD
ENDROOT
BRANCH   3  15
ATOM     11  C   UNL     1      37.989  33.197  49.457  0.00  0.00    +0.000 A 
ATOM     12  C   UNL     1      39.015  33.179  48.470  0.00  0.00    +0.000 A 
ATOM     13  C   UNL     1      38.999  32.150  47.541  0.00  0.00    +0.000 A 
ATOM     14  N   UNL     1      38.013  31.206  47.609  0.00  0.00    +0.000 NA
ATOM     15  C   UNL     1      37.052  31.251  48.559  0.00  0.00    +0.000 A 
ATOM     16  N   UNL     1      37.052  32.252  49.477  0.00  0.00    +0.000 NA
ATOM     17  H   UNL     1      38.042  34.022  50.163  0.00  0.00    +0.000 HD
ATOM     18  H   UNL     1      39.809  33.909  48.388  0.00  0.00    +0.000 HD
ATOM     19  H   UNL     1      39.711  32.022  46.751  0.00  0.00    +0.000 HD
ENDBRANCH   3  15
BRANCH   5  20
ATOM     20  C   UNL     1      32.902  29.200  46.761  0.00  0.00    +0.000 A 
ATOM     21  C   UNL     1      32.257  28.045  46.367  0.00  0.00    +0.000 A 
ATOM     22  C   UNL     1      31.254  28.030  45.414  0.00  0.00    +0.000 A 
ATOM     23  N   UNL     1      30.886  29.191  44.843  0.00  0.00    +0.000 NA
ATOM     24  C   UNL     1      31.501  30.320  45.214  0.00  0.00    +0.000 A 
ATOM     25  N   UNL     1      32.461  30.302  46.132  0.00  0.00    +0.000 NA
ATOM     26  H   UNL     1      32.558  27.103  46.832  0.00  0.00    +0.000 HD
ATOM     27  H   UNL     1      30.789  27.079  45.152  0.00  0.00    +0.000 HD
BRANCH  24  28
ATOM     28  C   UNL     1      31.105  31.582  44.597  0.00  0.00    +0.000 A 
ATOM     29  C   UNL     1      30.613  32.618  45.383  0.00  0.00    +0.000 A 
ATOM     30  H   UNL     1      30.550  32.417  46.444  0.00  0.00    +0.000 HD
ATOM     31  C   UNL     1      30.246  33.800  44.775  0.00  0.00    +0.000 A 
ATOM     32  C   UNL     1      30.338  34.025  43.423  0.00  0.00    +0.000 A 
ATOM     33  H   UNL     1      30.012  34.999  43.102  0.00  0.00    +0.000 HD
ATOM     34  C   UNL     1      30.827  32.994  42.646  0.00  0.00    +0.000 A 
ATOM     35  H   UNL     1      30.892  33.188  41.586  0.00  0.00    +0.000 HD
ATOM     36  C   UNL     1      31.195  31.809  43.252  0.00  0.00    +0.000 A 
ENDBRANCH  24  28
ENDBRANCH   5  20
TORSDOF 3
