
 OpenBabel03272502433D

 28 30  0  0  0  0  0  0  0  0999 V2000
   37.4390   32.6280   49.8090 C   0  0  0  0  0  0  0  0  0  0  0  0
   38.3800   32.7260   48.7590 C   0  0  0  0  0  0  0  0  0  0  0  0
   38.1970   31.8770   47.6600 C   0  0  0  0  0  0  0  0  0  0  0  0
   37.1490   31.0180   47.6560 N   0  0  0  0  0  0  0  0  0  0  0  0
   36.2640   30.9590   48.6950 C   0  0  0  0  0  0  0  0  0  0  0  0
   36.4140   31.7660   49.7690 N   0  0  0  0  0  0  0  0  0  0  0  0
   37.6060   33.2990   50.6470 H   0  0  0  0  0  0  0  0  0  0  0  0
   39.2060   33.4040   48.7630 H   0  0  0  0  0  0  0  0  0  0  0  0
   35.9020   29.2870   51.1000 Cl  0  0  0  0  0  0  0  0  0  0  0  0
   34.9040   29.1930   49.6860 C   0  0  0  0  0  0  0  0  0  0  0  0
   35.1620   30.0160   48.6260 C   0  0  0  0  0  0  0  0  0  0  0  0
   34.3910   29.9740   47.4790 C   0  0  0  0  0  0  0  0  0  0  0  0
   33.3290   29.0930   47.3690 C   0  0  0  0  0  0  0  0  0  0  0  0
   33.0450   28.2500   48.4230 C   0  0  0  0  0  0  0  0  0  0  0  0
   31.7460   27.0700   48.4780 Cl  0  0  0  0  0  0  0  0  0  0  0  0
   33.8450   28.3260   49.5550 C   0  0  0  0  0  0  0  0  0  0  0  0
   34.5880   30.6230   46.6330 H   0  0  0  0  0  0  0  0  0  0  0  0
   32.6920   29.0050   46.5170 H   0  0  0  0  0  0  0  0  0  0  0  0
   33.6640   27.6770   50.4260 H   0  0  0  0  0  0  0  0  0  0  0  0
   39.0830   31.8620   46.5040 C   0  0  0  0  0  0  0  0  0  0  0  0
   39.1020   30.7190   45.7350 C   0  0  0  0  0  0  0  0  0  0  0  0
   38.5070   29.8210   45.9200 H   0  0  0  0  0  0  0  0  0  0  0  0
   39.9370   30.6560   44.6120 C   0  0  0  0  0  0  0  0  0  0  0  0
   40.7440   31.7120   44.2540 C   0  0  0  0  0  0  0  0  0  0  0  0
   41.3820   31.6390   43.3800 H   0  0  0  0  0  0  0  0  0  0  0  0
   40.7040   32.8350   45.0380 C   0  0  0  0  0  0  0  0  0  0  0  0
   41.3400   33.6630   44.7520 H   0  0  0  0  0  0  0  0  0  0  0  0
   39.8900   32.9180   46.1450 C   0  0  0  0  0  0  0  0  0  0  0  0
  1  7  1  0  0  0  0
  2  8  1  0  0  0  0
  2  1  2  0  0  0  0
  3  2  1  0  0  0  0
  4  3  2  0  0  0  0
  4  5  1  0  0  0  0
  5  6  2  0  0  0  0
  6  1  1  0  0  0  0
 10  9  1  0  0  0  0
 11  5  1  0  0  0  0
 11 10  2  0  0  0  0
 12 11  1  0  0  0  0
 13 12  2  0  0  0  0
 13 14  1  0  0  0  0
 14 15  1  0  0  0  0
 14 16  2  0  0  0  0
 16 10  1  0  0  0  0
 16 19  1  0  0  0  0
 17 12  1  0  0  0  0
 18 13  1  0  0  0  0
 20  3  1  0  0  0  0
 21 22  1  0  0  0  0
 21 20  2  0  0  0  0
 23 21  1  0  0  0  0
 24 23  2  0  0  0  0
 24 26  1  0  0  0  0
 25 24  1  0  0  0  0
 26 28  2  0  0  0  0
 27 26  1  0  0  0  0
 28 20  1  0  0  0  0
M  END
>  <minimizedAffinity>
-6.79254818

>  <minimizedRMSD>
0.99949038

$$$$
