
 OpenBabel03272510203D

 36 39  0  0  0  0  0  0  0  0999 V2000
   37.3940   29.1750   50.8110 Br  0  0  0  0  0  0  0  0  0  0  0  0
   35.9860   29.2750   49.5290 C   0  0  0  0  0  0  0  0  0  0  0  0
   35.9850   30.2780   48.5640 C   0  0  0  0  0  0  0  0  0  0  0  0
   34.9320   30.2880   47.6680 C   0  0  0  0  0  0  0  0  0  0  0  0
   33.9020   29.3650   47.6940 C   0  0  0  0  0  0  0  0  0  0  0  0
   33.9360   28.4000   48.6510 C   0  0  0  0  0  0  0  0  0  0  0  0
   34.9780   28.3700   49.5560 C   0  0  0  0  0  0  0  0  0  0  0  0
   34.8770   31.0440   46.8950 H   0  0  0  0  0  0  0  0  0  0  0  0
   33.1810   27.6310   48.7590 H   0  0  0  0  0  0  0  0  0  0  0  0
   35.0090   27.5940   50.3300 H   0  0  0  0  0  0  0  0  0  0  0  0
   38.0090   33.1770   49.4590 C   0  0  0  0  0  0  0  0  0  0  0  0
   39.0300   33.1820   48.4670 C   0  0  0  0  0  0  0  0  0  0  0  0
   39.0000   32.1840   47.5050 C   0  0  0  0  0  0  0  0  0  0  0  0
   38.0070   31.2470   47.5470 N   0  0  0  0  0  0  0  0  0  0  0  0
   37.0510   31.2690   48.5040 C   0  0  0  0  0  0  0  0  0  0  0  0
   37.0640   32.2390   49.4540 N   0  0  0  0  0  0  0  0  0  0  0  0
   38.0720   33.9780   50.1910 H   0  0  0  0  0  0  0  0  0  0  0  0
   39.8290   33.9080   48.4040 H   0  0  0  0  0  0  0  0  0  0  0  0
   39.7070   32.0760   46.7070 H   0  0  0  0  0  0  0  0  0  0  0  0
   32.8030   29.3930   46.7430 C   0  0  0  0  0  0  0  0  0  0  0  0
   31.9780   28.3210   46.4690 C   0  0  0  0  0  0  0  0  0  0  0  0
   30.9410   28.3830   45.5560 C   0  0  0  0  0  0  0  0  0  0  0  0
   30.7200   29.5390   44.9040 N   0  0  0  0  0  0  0  0  0  0  0  0
   31.5100   30.5880   45.1590 C   0  0  0  0  0  0  0  0  0  0  0  0
   32.4990   30.4970   46.0410 N   0  0  0  0  0  0  0  0  0  0  0  0
   32.1600   27.3830   46.9990 H   0  0  0  0  0  0  0  0  0  0  0  0
   30.3300   27.4950   45.3890 H   0  0  0  0  0  0  0  0  0  0  0  0
   31.2750   31.8440   44.4540 C   0  0  0  0  0  0  0  0  0  0  0  0
   31.7650   33.0380   44.9730 C   0  0  0  0  0  0  0  0  0  0  0  0
   32.3110   32.9580   45.9030 H   0  0  0  0  0  0  0  0  0  0  0  0
   31.5290   34.2100   44.2870 C   0  0  0  0  0  3  0  0  0  0  0  0
   30.8310   34.2780   43.1060 C   0  0  0  0  0  0  0  0  0  0  0  0
   30.7320   35.2670   42.6940 H   0  0  0  0  0  0  0  0  0  0  0  0
   30.3460   33.0910   42.5930 C   0  0  0  0  0  0  0  0  0  0  0  0
   29.8000   33.1630   41.6650 H   0  0  0  0  0  0  0  0  0  0  0  0
   30.5810   31.9150   43.2780 C   0  0  0  0  0  3  0  0  0  0  0  0
  2  7  1  0  0  0  0
  2  1  1  0  0  0  0
  3  2  2  0  0  0  0
  4  5  2  0  0  0  0
  4  3  1  0  0  0  0
  5  6  1  0  0  0  0
  6  9  1  0  0  0  0
  6  7  2  0  0  0  0
  7 10  1  0  0  0  0
  8  4  1  0  0  0  0
 11 17  1  0  0  0  0
 12 11  2  0  0  0  0
 13 14  2  0  0  0  0
 13 12  1  0  0  0  0
 14 15  1  0  0  0  0
 15  3  1  0  0  0  0
 15 16  2  0  0  0  0
 16 11  1  0  0  0  0
 18 12  1  0  0  0  0
 19 13  1  0  0  0  0
 20  5  1  0  0  0  0
 21 20  1  0  0  0  0
 21 26  1  0  0  0  0
 22 21  2  0  0  0  0
 23 24  2  0  0  0  0
 23 22  1  0  0  0  0
 24 25  1  0  0  0  0
 25 20  2  0  0  0  0
 27 22  1  0  0  0  0
 28 29  1  0  0  0  0
 28 24  1  0  0  0  0
 29 30  1  0  0  0  0
 31 29  2  0  0  0  0
 32 31  1  0  0  0  0
 33 32  1  0  0  0  0
 34 32  2  0  0  0  0
 34 36  1  0  0  0  0
 35 34  1  0  0  0  0
 36 28  2  0  0  0  0
M  END
>  <minimizedAffinity>
-6.67282772

>  <minimizedRMSD>
0.336377442

$$$$
