
 OpenBabel03272500363D

 21 22  0  0  0  0  0  0  0  0999 V2000
   38.3390   23.8790   36.9890 C   0  0  0  0  0  0  0  0  0  0  0  0
   38.9200   22.8040   36.3080 C   0  0  0  0  0  0  0  0  0  0  0  0
   39.0000   22.8830   34.9130 C   0  0  0  0  0  0  0  0  0  0  0  0
   38.5080   24.0000   34.3140 N   0  0  0  0  0  0  0  0  0  0  0  0
   37.9550   25.0170   35.0060 C   0  0  0  0  0  0  0  0  0  0  0  0
   37.8740   24.9520   36.3340 N   0  0  0  0  0  0  0  0  0  0  0  0
   39.3130   21.9130   36.7910 H   0  0  0  0  0  0  0  0  0  0  0  0
   39.4200   22.1270   34.2910 H   0  0  0  0  0  0  0  0  0  0  0  0
   37.4520   26.1760   34.2840 C   0  0  0  0  0  0  0  0  0  0  0  0
   37.4970   26.2260   32.9050 C   0  0  0  0  0  0  0  0  0  0  0  0
   37.9070   25.4070   32.3200 H   0  0  0  0  0  0  0  0  0  0  0  0
   37.0220   27.3220   32.2210 C   0  0  0  0  0  3  0  0  0  0  0  0
   36.4800   28.4180   32.8640 C   0  0  0  0  0  0  0  0  0  0  0  0
   36.1090   29.2730   32.3220 H   0  0  0  0  0  0  0  0  0  0  0  0
   36.4250   28.3880   34.2460 C   0  0  0  0  0  0  0  0  0  0  0  0
   36.0030   29.2470   34.7210 H   0  0  0  0  0  0  0  0  0  0  0  0
   36.9080   27.2790   34.9110 C   0  0  0  0  0  3  0  0  0  0  0  0
   38.2560   23.7900   38.4890 C   0  0  0  0  0  0  0  0  0  0  0  0
   37.9530   25.0450   39.0100 F   0  0  0  0  0  0  0  0  0  0  0  0
   37.3270   22.8480   38.8040 F   0  0  0  0  0  0  0  0  0  0  0  0
   39.5200   23.4640   38.9600 F   0  0  0  0  0  0  0  0  0  0  0  0
  1 18  1  0  0  0  0
  2  7  1  0  0  0  0
  2  1  2  0  0  0  0
  3  2  1  0  0  0  0
  4  3  2  0  0  0  0
  4  5  1  0  0  0  0
  5  6  2  0  0  0  0
  6  1  1  0  0  0  0
  8  3  1  0  0  0  0
  9 17  1  0  0  0  0
  9  5  1  0  0  0  0
 10  9  2  0  0  0  0
 11 10  1  0  0  0  0
 12 13  2  0  0  0  0
 12 10  1  0  0  0  0
 13 15  1  0  0  0  0
 14 13  1  0  0  0  0
 15 16  1  0  0  0  0
 15 17  2  0  0  0  0
 18 20  1  0  0  0  0
 18 21  1  0  0  0  0
 18 19  1  0  0  0  0
M  END
>  <minimizedAffinity>
-5.28032064

$$$$

 OpenBabel03272500363D

 21 22  0  0  0  0  0  0  0  0999 V2000
   38.6950   23.0670   36.8610 C   0  0  0  0  0  0  0  0  0  0  0  0
   40.0610   22.9290   36.5960 C   0  0  0  0  0  0  0  0  0  0  0  0
   40.4340   22.3980   35.3550 C   0  0  0  0  0  0  0  0  0  0  0  0
   39.4410   22.0550   34.4910 N   0  0  0  0  0  0  0  0  0  0  0  0
   38.1340   22.2050   34.7840 C   0  0  0  0  0  0  0  0  0  0  0  0
   37.7690   22.7080   35.9620 N   0  0  0  0  0  0  0  0  0  0  0  0
   40.8510   23.2040   37.2900 H   0  0  0  0  0  0  0  0  0  0  0  0
   41.4410   22.2470   35.0430 H   0  0  0  0  0  0  0  0  0  0  0  0
   37.1360   21.8100   33.8000 C   0  0  0  0  0  0  0  0  0  0  0  0
   36.1860   20.8550   34.1000 C   0  0  0  0  0  0  0  0  0  0  0  0
   36.1530   20.3710   35.0730 H   0  0  0  0  0  0  0  0  0  0  0  0
   35.2420   20.4800   33.1700 C   0  0  0  0  0  3  0  0  0  0  0  0
   35.1910   21.0300   31.9040 C   0  0  0  0  0  0  0  0  0  0  0  0
   34.4490   20.7320   31.1810 H   0  0  0  0  0  0  0  0  0  0  0  0
   36.1350   21.9890   31.5840 C   0  0  0  0  0  0  0  0  0  0  0  0
   36.0770   22.3990   30.5990 H   0  0  0  0  0  0  0  0  0  0  0  0
   37.0720   22.3490   32.5320 C   0  0  0  0  0  3  0  0  0  0  0  0
   38.3000   23.6370   38.1960 C   0  0  0  0  0  0  0  0  0  0  0  0
   39.3520   23.4810   39.0950 F   0  0  0  0  0  0  0  0  0  0  0  0
   37.9520   24.9400   38.0120 F   0  0  0  0  0  0  0  0  0  0  0  0
   37.2500   22.8740   38.6840 F   0  0  0  0  0  0  0  0  0  0  0  0
  1 18  1  0  0  0  0
  2  1  1  0  0  0  0
  2  7  1  0  0  0  0
  3  2  2  0  0  0  0
  4  5  2  0  0  0  0
  4  3  1  0  0  0  0
  5  6  1  0  0  0  0
  6  1  2  0  0  0  0
  8  3  1  0  0  0  0
  9 10  1  0  0  0  0
  9  5  1  0  0  0  0
 10 11  1  0  0  0  0
 12 10  2  0  0  0  0
 13 12  1  0  0  0  0
 14 13  1  0  0  0  0
 15 13  2  0  0  0  0
 15 17  1  0  0  0  0
 16 15  1  0  0  0  0
 17  9  2  0  0  0  0
 18 21  1  0  0  0  0
 18 19  1  0  0  0  0
 20 18  1  0  0  0  0
M  END
>  <minimizedAffinity>
-5.16519547

$$$$

 OpenBabel03272500363D

 21 22  0  0  0  0  0  0  0  0999 V2000
   38.5410   24.4780   36.5050 C   0  0  0  0  0  0  0  0  0  0  0  0
   39.6620   23.9570   35.8510 C   0  0  0  0  0  0  0  0  0  0  0  0
   39.9570   24.4460   34.5720 C   0  0  0  0  0  0  0  0  0  0  0  0
   39.1330   25.3960   34.0540 N   0  0  0  0  0  0  0  0  0  0  0  0
   38.0610   25.8730   34.7170 C   0  0  0  0  0  0  0  0  0  0  0  0
   37.7720   25.4150   35.9330 N   0  0  0  0  0  0  0  0  0  0  0  0
   40.3190   23.1980   36.2690 H   0  0  0  0  0  0  0  0  0  0  0  0
   40.7820   24.1250   33.9810 H   0  0  0  0  0  0  0  0  0  0  0  0
   37.2310   26.8890   34.0860 C   0  0  0  0  0  0  0  0  0  0  0  0
   36.7920   27.9870   34.7990 C   0  0  0  0  0  0  0  0  0  0  0  0
   37.0490   28.1260   35.8450 H   0  0  0  0  0  0  0  0  0  0  0  0
   36.0060   28.9490   34.2030 C   0  0  0  0  0  3  0  0  0  0  0  0
   35.6190   28.8720   32.8790 C   0  0  0  0  0  0  0  0  0  0  0  0
   35.0040   29.6290   32.4200 H   0  0  0  0  0  0  0  0  0  0  0  0
   36.0490   27.7800   32.1480 C   0  0  0  0  0  0  0  0  0  0  0  0
   35.7360   27.7420   31.1270 H   0  0  0  0  0  0  0  0  0  0  0  0
   36.8350   26.8280   32.7660 C   0  0  0  0  0  3  0  0  0  0  0  0
   38.2290   23.9500   37.8790 C   0  0  0  0  0  0  0  0  0  0  0  0
   39.3280   23.2460   38.3630 F   0  0  0  0  0  0  0  0  0  0  0  0
   37.8870   25.0040   38.6680 F   0  0  0  0  0  0  0  0  0  0  0  0
   37.1990   23.0300   37.7490 F   0  0  0  0  0  0  0  0  0  0  0  0
  1 18  1  0  0  0  0
  2  7  1  0  0  0  0
  2  1  2  0  0  0  0
  3  2  1  0  0  0  0
  4  3  2  0  0  0  0
  4  5  1  0  0  0  0
  5  6  2  0  0  0  0
  6  1  1  0  0  0  0
  8  3  1  0  0  0  0
  9  5  1  0  0  0  0
  9 10  1  0  0  0  0
 10 11  1  0  0  0  0
 12 10  2  0  0  0  0
 13 12  1  0  0  0  0
 14 13  1  0  0  0  0
 15 17  1  0  0  0  0
 15 13  2  0  0  0  0
 16 15  1  0  0  0  0
 17  9  2  0  0  0  0
 18 19  1  0  0  0  0
 18 20  1  0  0  0  0
 21 18  1  0  0  0  0
M  END
>  <minimizedAffinity>
-4.91172838

$$$$

 OpenBabel03272500363D

 21 22  0  0  0  0  0  0  0  0999 V2000
   36.3360   21.3190   32.9710 C   0  0  0  0  0  0  0  0  0  0  0  0
   36.4980   22.2700   31.9580 C   0  0  0  0  0  0  0  0  0  0  0  0
   37.2930   23.3890   32.2350 C   0  0  0  0  0  0  0  0  0  0  0  0
   37.8550   23.4740   33.4700 N   0  0  0  0  0  0  0  0  0  0  0  0
   37.6750   22.5350   34.4210 C   0  0  0  0  0  0  0  0  0  0  0  0
   36.9210   21.4670   34.1680 N   0  0  0  0  0  0  0  0  0  0  0  0
   36.0460   22.1980   30.9720 H   0  0  0  0  0  0  0  0  0  0  0  0
   37.4860   24.1750   31.5430 H   0  0  0  0  0  0  0  0  0  0  0  0
   38.3140   22.7070   35.7180 C   0  0  0  0  0  0  0  0  0  0  0  0
   39.6090   22.2810   35.9300 C   0  0  0  0  0  0  0  0  0  0  0  0
   40.1890   21.8080   35.1420 H   0  0  0  0  0  0  0  0  0  0  0  0
   40.2150   22.4430   37.1570 C   0  0  0  0  0  3  0  0  0  0  0  0
   39.5700   23.0310   38.2280 C   0  0  0  0  0  0  0  0  0  0  0  0
   40.0510   23.1550   39.1850 H   0  0  0  0  0  0  0  0  0  0  0  0
   38.2710   23.4650   38.0350 C   0  0  0  0  0  0  0  0  0  0  0  0
   37.7930   23.9160   38.8780 H   0  0  0  0  0  0  0  0  0  0  0  0
   37.6850   23.2920   36.7980 C   0  0  0  0  0  3  0  0  0  0  0  0
   35.4810   20.1190   32.6680 C   0  0  0  0  0  0  0  0  0  0  0  0
   35.9980   19.4510   31.5620 F   0  0  0  0  0  0  0  0  0  0  0  0
   35.4370   19.3410   33.7830 F   0  0  0  0  0  0  0  0  0  0  0  0
   34.2260   20.5810   32.2970 F   0  0  0  0  0  0  0  0  0  0  0  0
  1  6  1  0  0  0  0
  2  3  1  0  0  0  0
  2  1  2  0  0  0  0
  3  4  2  0  0  0  0
  4  5  1  0  0  0  0
  5  9  1  0  0  0  0
  6  5  2  0  0  0  0
  7  2  1  0  0  0  0
  8  3  1  0  0  0  0
  9 10  2  0  0  0  0
  9 17  1  0  0  0  0
 10 12  1  0  0  0  0
 11 10  1  0  0  0  0
 12 13  2  0  0  0  0
 13 14  1  0  0  0  0
 15 13  1  0  0  0  0
 15 16  1  0  0  0  0
 17 15  2  0  0  0  0
 18  1  1  0  0  0  0
 18 20  1  0  0  0  0
 19 18  1  0  0  0  0
 21 18  1  0  0  0  0
M  END
>  <minimizedAffinity>
-4.86465645

$$$$

 OpenBabel03272500363D

 21 22  0  0  0  0  0  0  0  0999 V2000
   40.0470   22.3200   36.8860 C   0  0  0  0  0  0  0  0  0  0  0  0
   39.4810   23.0500   37.9360 C   0  0  0  0  0  0  0  0  0  0  0  0
   38.1220   23.3760   37.8450 C   0  0  0  0  0  0  0  0  0  0  0  0
   37.4450   22.9600   36.7410 N   0  0  0  0  0  0  0  0  0  0  0  0
   38.0280   22.2570   35.7490 C   0  0  0  0  0  0  0  0  0  0  0  0
   39.3190   21.9420   35.8260 N   0  0  0  0  0  0  0  0  0  0  0  0
   40.0250   23.3800   38.8170 H   0  0  0  0  0  0  0  0  0  0  0  0
   37.5850   23.9270   38.5810 H   0  0  0  0  0  0  0  0  0  0  0  0
   37.2290   21.8530   34.6020 C   0  0  0  0  0  0  0  0  0  0  0  0
   37.4600   22.3930   33.3520 C   0  0  0  0  0  0  0  0  0  0  0  0
   38.2390   23.1320   33.1880 H   0  0  0  0  0  0  0  0  0  0  0  0
   36.7040   22.0120   32.2660 C   0  0  0  0  0  3  0  0  0  0  0  0
   35.6870   21.0800   32.3620 C   0  0  0  0  0  0  0  0  0  0  0  0
   35.1000   20.7860   31.5070 H   0  0  0  0  0  0  0  0  0  0  0  0
   35.4410   20.5270   33.6050 C   0  0  0  0  0  0  0  0  0  0  0  0
   34.6500   19.8100   33.6550 H   0  0  0  0  0  0  0  0  0  0  0  0
   36.2110   20.9240   34.6800 C   0  0  0  0  0  3  0  0  0  0  0  0
   41.5070   21.9720   36.9890 C   0  0  0  0  0  0  0  0  0  0  0  0
   42.2560   23.1420   37.0800 F   0  0  0  0  0  0  0  0  0  0  0  0
   41.6710   21.1560   38.0660 F   0  0  0  0  0  0  0  0  0  0  0  0
   41.8770   21.3590   35.8010 F   0  0  0  0  0  0  0  0  0  0  0  0
  1 18  1  0  0  0  0
  1  2  1  0  0  0  0
  2  7  1  0  0  0  0
  3  2  2  0  0  0  0
  3  8  1  0  0  0  0
  4  3  1  0  0  0  0
  5  6  1  0  0  0  0
  5  4  2  0  0  0  0
  6  1  2  0  0  0  0
  9 17  1  0  0  0  0
  9  5  1  0  0  0  0
 10  9  2  0  0  0  0
 11 10  1  0  0  0  0
 12 13  2  0  0  0  0
 12 10  1  0  0  0  0
 13 15  1  0  0  0  0
 14 13  1  0  0  0  0
 15 16  1  0  0  0  0
 15 17  2  0  0  0  0
 18 19  1  0  0  0  0
 18 20  1  0  0  0  0
 21 18  1  0  0  0  0
M  END
>  <minimizedAffinity>
-4.86427975

$$$$

 OpenBabel03272500363D

 21 22  0  0  0  0  0  0  0  0999 V2000
   39.9460   23.0980   37.0180 C   0  0  0  0  0  0  0  0  0  0  0  0
   39.2670   23.0430   38.2400 C   0  0  0  0  0  0  0  0  0  0  0  0
   38.1160   23.8270   38.3820 C   0  0  0  0  0  0  0  0  0  0  0  0
   37.7350   24.5890   37.3220 N   0  0  0  0  0  0  0  0  0  0  0  0
   38.4170   24.6140   36.1590 C   0  0  0  0  0  0  0  0  0  0  0  0
   39.5130   23.8720   36.0130 N   0  0  0  0  0  0  0  0  0  0  0  0
   39.5750   22.4320   39.0850 H   0  0  0  0  0  0  0  0  0  0  0  0
   37.5200   23.8660   39.2640 H   0  0  0  0  0  0  0  0  0  0  0  0
   37.9390   25.4600   35.0750 C   0  0  0  0  0  0  0  0  0  0  0  0
   37.5550   26.7650   35.3120 C   0  0  0  0  0  0  0  0  0  0  0  0
   37.5970   27.1980   36.3080 H   0  0  0  0  0  0  0  0  0  0  0  0
   37.1030   27.5660   34.2870 C   0  0  0  0  0  3  0  0  0  0  0  0
   37.0090   27.1180   32.9840 C   0  0  0  0  0  0  0  0  0  0  0  0
   36.6540   27.7510   32.1870 H   0  0  0  0  0  0  0  0  0  0  0  0
   37.3890   25.8130   32.7250 C   0  0  0  0  0  0  0  0  0  0  0  0
   37.3070   25.4890   31.7110 H   0  0  0  0  0  0  0  0  0  0  0  0
   37.8390   25.0280   33.7680 C   0  0  0  0  0  3  0  0  0  0  0  0
   41.1820   22.2540   36.8700 C   0  0  0  0  0  0  0  0  0  0  0  0
   41.2800   21.3850   37.9540 F   0  0  0  0  0  0  0  0  0  0  0  0
   41.1090   21.6040   35.6770 F   0  0  0  0  0  0  0  0  0  0  0  0
   42.2790   23.1000   36.9450 F   0  0  0  0  0  0  0  0  0  0  0  0
  1  2  1  0  0  0  0
  2  3  2  0  0  0  0
  2  7  1  0  0  0  0
  3  8  1  0  0  0  0
  4  3  1  0  0  0  0
  5  4  2  0  0  0  0
  6  5  1  0  0  0  0
  6  1  2  0  0  0  0
  9 10  1  0  0  0  0
  9  5  1  0  0  0  0
 10 11  1  0  0  0  0
 12 10  2  0  0  0  0
 13 12  1  0  0  0  0
 14 13  1  0  0  0  0
 15 13  2  0  0  0  0
 15 17  1  0  0  0  0
 16 15  1  0  0  0  0
 17  9  2  0  0  0  0
 18 21  1  0  0  0  0
 18  1  1  0  0  0  0
 18 19  1  0  0  0  0
 20 18  1  0  0  0  0
M  END
>  <minimizedAffinity>
-4.84433842

$$$$

 OpenBabel03272500363D

 21 22  0  0  0  0  0  0  0  0999 V2000
   38.3450   23.6450   36.8940 C   0  0  0  0  0  0  0  0  0  0  0  0
   37.7320   22.5750   36.2330 C   0  0  0  0  0  0  0  0  0  0  0  0
   37.8470   22.5180   34.8390 C   0  0  0  0  0  0  0  0  0  0  0  0
   38.5500   23.5050   34.2220 N   0  0  0  0  0  0  0  0  0  0  0  0
   39.1280   24.5210   34.8950 C   0  0  0  0  0  0  0  0  0  0  0  0
   39.0240   24.5850   36.2210 N   0  0  0  0  0  0  0  0  0  0  0  0
   37.1710   21.7880   36.7300 H   0  0  0  0  0  0  0  0  0  0  0  0
   37.4230   21.7530   34.2310 H   0  0  0  0  0  0  0  0  0  0  0  0
   39.8610   25.5370   34.1550 C   0  0  0  0  0  0  0  0  0  0  0  0
   39.4100   25.9810   32.9270 C   0  0  0  0  0  0  0  0  0  0  0  0
   38.5020   25.5880   32.4790 H   0  0  0  0  0  0  0  0  0  0  0  0
   40.1030   26.9420   32.2250 C   0  0  0  0  0  3  0  0  0  0  0  0
   41.2690   27.5100   32.7010 C   0  0  0  0  0  0  0  0  0  0  0  0
   41.8060   28.2620   32.1460 H   0  0  0  0  0  0  0  0  0  0  0  0
   41.7370   27.0790   33.9300 C   0  0  0  0  0  0  0  0  0  0  0  0
   42.6410   27.5310   34.2770 H   0  0  0  0  0  0  0  0  0  0  0  0
   41.0260   26.1140   34.6150 C   0  0  0  0  0  3  0  0  0  0  0  0
   38.2180   23.7020   38.3920 C   0  0  0  0  0  0  0  0  0  0  0  0
   37.9090   25.0030   38.7800 F   0  0  0  0  0  0  0  0  0  0  0  0
   37.2730   22.7990   38.7700 F   0  0  0  0  0  0  0  0  0  0  0  0
   39.4650   23.4180   38.9290 F   0  0  0  0  0  0  0  0  0  0  0  0
  1 18  1  0  0  0  0
  2  7  1  0  0  0  0
  2  1  1  0  0  0  0
  3  2  2  0  0  0  0
  4  3  1  0  0  0  0
  4  5  2  0  0  0  0
  5  6  1  0  0  0  0
  6  1  2  0  0  0  0
  8  3  1  0  0  0  0
  9 17  1  0  0  0  0
  9  5  1  0  0  0  0
 10  9  2  0  0  0  0
 11 10  1  0  0  0  0
 12 13  2  0  0  0  0
 12 10  1  0  0  0  0
 13 15  1  0  0  0  0
 14 13  1  0  0  0  0
 15 16  1  0  0  0  0
 15 17  2  0  0  0  0
 18 20  1  0  0  0  0
 18 19  1  0  0  0  0
 18 21  1  0  0  0  0
M  END
>  <minimizedAffinity>
-4.76728773

$$$$

 OpenBabel03272500363D

 21 22  0  0  0  0  0  0  0  0999 V2000
   37.0140   26.0740   33.0700 C   0  0  0  0  0  0  0  0  0  0  0  0
   36.7810   27.4010   33.4450 C   0  0  0  0  0  0  0  0  0  0  0  0
   37.1620   27.7900   34.7350 C   0  0  0  0  0  0  0  0  0  0  0  0
   37.7340   26.8510   35.5350 N   0  0  0  0  0  0  0  0  0  0  0  0
   37.9430   25.5800   35.1350 C   0  0  0  0  0  0  0  0  0  0  0  0
   37.5840   25.2000   33.9110 N   0  0  0  0  0  0  0  0  0  0  0  0
   36.3230   28.1480   32.8020 H   0  0  0  0  0  0  0  0  0  0  0  0
   37.0330   28.7710   35.1290 H   0  0  0  0  0  0  0  0  0  0  0  0
   38.5610   24.6390   36.0580 C   0  0  0  0  0  0  0  0  0  0  0  0
   39.7060   23.9520   35.7070 C   0  0  0  0  0  0  0  0  0  0  0  0
   40.1770   24.0910   34.7370 H   0  0  0  0  0  0  0  0  0  0  0  0
   40.2920   23.0610   36.5780 C   0  0  0  0  0  3  0  0  0  0  0  0
   39.7760   22.8080   37.8350 C   0  0  0  0  0  0  0  0  0  0  0  0
   40.2410   22.1100   38.5120 H   0  0  0  0  0  0  0  0  0  0  0  0
   38.6300   23.4880   38.2070 C   0  0  0  0  0  0  0  0  0  0  0  0
   38.2500   23.2750   39.1820 H   0  0  0  0  0  0  0  0  0  0  0  0
   38.0600   24.3760   37.3160 C   0  0  0  0  0  3  0  0  0  0  0  0
   36.6030   25.6600   31.6830 C   0  0  0  0  0  0  0  0  0  0  0  0
   35.9200   26.7090   31.0720 F   0  0  0  0  0  0  0  0  0  0  0  0
   37.7230   25.2920   31.0030 F   0  0  0  0  0  0  0  0  0  0  0  0
   35.6940   24.6190   31.8080 F   0  0  0  0  0  0  0  0  0  0  0  0
  1  2  2  0  0  0  0
  1  6  1  0  0  0  0
  2  3  1  0  0  0  0
  3  8  1  0  0  0  0
  3  4  2  0  0  0  0
  5  4  1  0  0  0  0
  5  9  1  0  0  0  0
  6  5  2  0  0  0  0
  7  2  1  0  0  0  0
  9 17  1  0  0  0  0
 10  9  2  0  0  0  0
 10 12  1  0  0  0  0
 11 10  1  0  0  0  0
 12 13  2  0  0  0  0
 13 15  1  0  0  0  0
 13 14  1  0  0  0  0
 15 16  1  0  0  0  0
 17 15  2  0  0  0  0
 18 21  1  0  0  0  0
 18  1  1  0  0  0  0
 19 18  1  0  0  0  0
 20 18  1  0  0  0  0
M  END
>  <minimizedAffinity>
-4.72416496

$$$$

 OpenBabel03272500363D

 21 22  0  0  0  0  0  0  0  0999 V2000
   37.3960   26.2070   33.1950 C   0  0  0  0  0  0  0  0  0  0  0  0
   37.5550   25.3360   32.1120 C   0  0  0  0  0  0  0  0  0  0  0  0
   38.0170   24.0410   32.3800 C   0  0  0  0  0  0  0  0  0  0  0  0
   38.2790   23.7190   33.6740 N   0  0  0  0  0  0  0  0  0  0  0  0
   38.1120   24.5880   34.6920 C   0  0  0  0  0  0  0  0  0  0  0  0
   37.6740   25.8220   34.4480 N   0  0  0  0  0  0  0  0  0  0  0  0
   37.3450   25.5980   31.0780 H   0  0  0  0  0  0  0  0  0  0  0  0
   38.1770   23.2940   31.6370 H   0  0  0  0  0  0  0  0  0  0  0  0
   38.4180   24.1600   36.0490 C   0  0  0  0  0  0  0  0  0  0  0  0
   39.4540   23.2820   36.2970 C   0  0  0  0  0  0  0  0  0  0  0  0
   40.0680   22.8860   35.4930 H   0  0  0  0  0  0  0  0  0  0  0  0
   39.7440   22.8750   37.5800 C   0  0  0  0  0  3  0  0  0  0  0  0
   39.0270   23.3160   38.6760 C   0  0  0  0  0  0  0  0  0  0  0  0
   39.2610   22.9930   39.6780 H   0  0  0  0  0  0  0  0  0  0  0  0
   37.9860   24.1970   38.4490 C   0  0  0  0  0  0  0  0  0  0  0  0
   37.4450   24.5230   39.3110 H   0  0  0  0  0  0  0  0  0  0  0  0
   37.7130   24.5900   37.1540 C   0  0  0  0  0  3  0  0  0  0  0  0
   36.8990   27.5970   32.9020 C   0  0  0  0  0  0  0  0  0  0  0  0
   36.6650   28.2650   34.1010 F   0  0  0  0  0  0  0  0  0  0  0  0
   37.8240   28.2200   32.1230 F   0  0  0  0  0  0  0  0  0  0  0  0
   35.6700   27.4780   32.2710 F   0  0  0  0  0  0  0  0  0  0  0  0
  1  6  1  0  0  0  0
  2  3  1  0  0  0  0
  2  1  2  0  0  0  0
  3  4  2  0  0  0  0
  4  5  1  0  0  0  0
  5  9  1  0  0  0  0
  6  5  2  0  0  0  0
  7  2  1  0  0  0  0
  8  3  1  0  0  0  0
  9 10  2  0  0  0  0
  9 17  1  0  0  0  0
 10 12  1  0  0  0  0
 11 10  1  0  0  0  0
 12 13  2  0  0  0  0
 13 14  1  0  0  0  0
 15 13  1  0  0  0  0
 15 16  1  0  0  0  0
 17 15  2  0  0  0  0
 18  1  1  0  0  0  0
 18 19  1  0  0  0  0
 20 18  1  0  0  0  0
 21 18  1  0  0  0  0
M  END
>  <minimizedAffinity>
-4.70319319

$$$$
