
 OpenBabel03272510203D

 36 39  0  0  0  0  0  0  0  0999 V2000
   37.4170   29.1720   50.8060 Br  0  0  0  0  0  0  0  0  0  0  0  0
   36.0010   29.2740   49.5320 C   0  0  0  0  0  0  0  0  0  0  0  0
   35.9950   30.2790   48.5690 C   0  0  0  0  0  0  0  0  0  0  0  0
   34.9370   30.2910   47.6790 C   0  0  0  0  0  0  0  0  0  0  0  0
   33.9080   29.3660   47.7070 C   0  0  0  0  0  0  0  0  0  0  0  0
   33.9480   28.3990   48.6620 C   0  0  0  0  0  0  0  0  0  0  0  0
   34.9950   28.3670   49.5610 C   0  0  0  0  0  0  0  0  0  0  0  0
   34.8770   31.0490   46.9080 H   0  0  0  0  0  0  0  0  0  0  0  0
   33.1950   27.6290   48.7710 H   0  0  0  0  0  0  0  0  0  0  0  0
   35.0310   27.5900   50.3330 H   0  0  0  0  0  0  0  0  0  0  0  0
   38.0140   33.1830   49.4570 C   0  0  0  0  0  0  0  0  0  0  0  0
   39.0350   33.1880   48.4640 C   0  0  0  0  0  0  0  0  0  0  0  0
   39.0070   32.1880   47.5050 C   0  0  0  0  0  0  0  0  0  0  0  0
   38.0150   31.2490   47.5500 N   0  0  0  0  0  0  0  0  0  0  0  0
   37.0590   31.2720   48.5060 C   0  0  0  0  0  0  0  0  0  0  0  0
   37.0710   32.2440   49.4540 N   0  0  0  0  0  0  0  0  0  0  0  0
   38.0770   33.9860   50.1870 H   0  0  0  0  0  0  0  0  0  0  0  0
   39.8330   33.9150   48.4000 H   0  0  0  0  0  0  0  0  0  0  0  0
   39.7140   32.0790   46.7070 H   0  0  0  0  0  0  0  0  0  0  0  0
   32.8040   29.3960   46.7620 C   0  0  0  0  0  0  0  0  0  0  0  0
   31.9760   28.3260   46.4930 C   0  0  0  0  0  0  0  0  0  0  0  0
   30.9330   28.3890   45.5860 C   0  0  0  0  0  0  0  0  0  0  0  0
   30.7120   29.5450   44.9330 N   0  0  0  0  0  0  0  0  0  0  0  0
   31.5070   30.5920   45.1820 C   0  0  0  0  0  0  0  0  0  0  0  0
   32.5000   30.5000   46.0600 N   0  0  0  0  0  0  0  0  0  0  0  0
   32.1570   27.3880   47.0240 H   0  0  0  0  0  0  0  0  0  0  0  0
   30.3190   27.5020   45.4240 H   0  0  0  0  0  0  0  0  0  0  0  0
   31.2710   31.8480   44.4770 C   0  0  0  0  0  0  0  0  0  0  0  0
   30.5330   31.8590   43.2980 C   0  0  0  0  0  0  0  0  0  0  0  0
   30.1650   30.8980   42.9630 H   0  0  0  0  0  0  0  0  0  0  0  0
   30.3260   33.0580   42.6520 C   0  0  0  0  0  0  0  0  0  0  0  0
   30.8070   34.2630   43.1030 C   0  0  0  0  0  0  0  0  0  0  0  0
   30.5600   35.1100   42.4870 H   0  0  0  0  0  0  0  0  0  0  0  0
   31.5390   34.2490   44.2740 C   0  0  0  0  0  0  0  0  0  0  0  0
   31.9100   35.2050   44.6140 H   0  0  0  0  0  0  0  0  0  0  0  0
   31.7480   33.0480   44.9240 C   0  0  0  0  0  0  0  0  0  0  0  0
  2  7  1  0  0  0  0
  2  1  1  0  0  0  0
  3  2  2  0  0  0  0
  4  5  2  0  0  0  0
  4  3  1  0  0  0  0
  5  6  1  0  0  0  0
  6  9  1  0  0  0  0
  6  7  2  0  0  0  0
  7 10  1  0  0  0  0
  8  4  1  0  0  0  0
 11 17  1  0  0  0  0
 12 11  2  0  0  0  0
 13 14  2  0  0  0  0
 13 12  1  0  0  0  0
 14 15  1  0  0  0  0
 15  3  1  0  0  0  0
 15 16  2  0  0  0  0
 16 11  1  0  0  0  0
 18 12  1  0  0  0  0
 19 13  1  0  0  0  0
 20  5  1  0  0  0  0
 21 20  1  0  0  0  0
 21 26  1  0  0  0  0
 22 21  2  0  0  0  0
 23 24  2  0  0  0  0
 23 22  1  0  0  0  0
 24 25  1  0  0  0  0
 25 20  2  0  0  0  0
 27 22  1  0  0  0  0
 28 36  1  0  0  0  0
 28 24  1  0  0  0  0
 29 28  2  0  0  0  0
 30 29  1  0  0  0  0
 31 32  2  0  0  0  0
 31 29  1  0  0  0  0
 32 34  1  0  0  0  0
 33 32  1  0  0  0  0
 34 35  1  0  0  0  0
 34 36  2  0  0  0  0
M  END
>  <minimizedAffinity>
-6.6973443

>  <minimizedRMSD>
0.306971848

$$$$
