
 OpenBabel03272510233D

 31 34  0  0  0  0  0  0  0  0999 V2000
   35.5680   29.9460   46.8770 C   0  0  0  0  0  0  0  0  0  0  0  0
   36.7010   30.4640   47.4730 C   0  0  0  0  0  0  0  0  0  0  0  0
   37.6330   31.1210   46.7160 C   0  0  0  0  0  0  0  0  0  0  0  0
   37.4050   31.2470   45.3510 C   0  0  0  0  0  0  0  0  0  0  0  0
   38.1830   31.8530   44.4120 N   0  0  0  0  0  0  0  0  0  0  0  0
   37.5460   31.7180   43.2290 C   0  0  0  0  0  0  0  0  0  0  0  0
   36.3970   31.0500   43.4010 N   0  0  0  0  0  0  0  0  0  0  0  0
   36.2880   30.7470   44.7110 C   0  0  0  0  0  0  0  0  0  0  0  0
   35.3570   30.0820   45.5060 C   0  0  0  0  0  0  0  0  0  0  0  0
   34.7680   29.4080   47.3820 H   0  0  0  0  0  0  0  0  0  0  0  0
   38.5100   31.5230   47.1770 H   0  0  0  0  0  0  0  0  0  0  0  0
   39.1090   32.3320   44.5940 H   0  0  0  0  0  0  0  0  0  0  0  0
   34.4710   29.6830   45.0100 H   0  0  0  0  0  0  0  0  0  0  0  0
   37.9140   30.4750   51.0290 C   0  0  0  0  0  0  0  0  0  0  0  0
   37.9030   30.7220   49.6580 C   0  0  0  0  0  0  0  0  0  0  0  0
   36.8210   30.2640   48.9120 C   0  0  0  0  0  0  0  0  0  0  0  0
   35.8360   29.6030   49.5650 N   0  0  0  0  0  0  0  0  0  0  0  0
   35.8640   29.3720   50.8990 C   0  0  0  0  0  0  0  0  0  0  0  0
   36.8970   29.8070   51.6150 N   0  0  0  0  0  0  0  0  0  0  0  0
   38.7240   30.8050   51.6460 H   0  0  0  0  0  0  0  0  0  0  0  0
   38.6950   31.2470   49.1650 H   0  0  0  0  0  0  0  0  0  0  0  0
   34.9900   28.8250   51.2570 H   0  0  0  0  0  0  0  0  0  0  0  0
   38.0050   32.2120   41.9360 C   0  0  0  0  0  0  0  0  0  0  0  0
   38.8640   31.4780   41.1230 C   0  0  0  0  0  0  0  0  0  0  0  0
   39.1760   30.5060   41.5120 H   0  0  0  0  0  0  0  0  0  0  0  0
   39.3290   31.8910   39.8960 C   0  0  0  0  0  3  0  0  0  0  0  0
   38.9250   33.1200   39.4200 C   0  0  0  0  0  0  0  0  0  0  0  0
   39.3340   33.3710   38.4500 H   0  0  0  0  0  0  0  0  0  0  0  0
   38.0740   33.8760   40.1960 C   0  0  0  0  0  0  0  0  0  0  0  0
   37.8060   34.8250   39.7500 H   0  0  0  0  0  0  0  0  0  0  0  0
   37.6270   33.4300   41.4240 C   0  0  0  0  0  3  0  0  0  0  0  0
  1 10  1  0  0  0  0
  1  2  1  0  0  0  0
  2 16  1  0  0  0  0
  3 11  1  0  0  0  0
  3  2  2  0  0  0  0
  4  3  1  0  0  0  0
  5 12  1  0  0  0  0
  5  4  1  0  0  0  0
  6  7  2  0  0  0  0
  6  5  1  0  0  0  0
  7  8  1  0  0  0  0
  8  4  2  0  0  0  0
  8  9  1  0  0  0  0
  9  1  2  0  0  0  0
 13  9  1  0  0  0  0
 14 19  1  0  0  0  0
 14 20  1  0  0  0  0
 15 14  2  0  0  0  0
 16 17  2  0  0  0  0
 16 15  1  0  0  0  0
 17 18  1  0  0  0  0
 18 22  1  0  0  0  0
 18 19  2  0  0  0  0
 21 15  1  0  0  0  0
 23  6  1  0  0  0  0
 24 25  1  0  0  0  0
 24 23  2  0  0  0  0
 26 24  1  0  0  0  0
 27 26  2  0  0  0  0
 27 29  1  0  0  0  0
 28 27  1  0  0  0  0
 29 31  2  0  0  0  0
 30 29  1  0  0  0  0
 31 23  1  0  0  0  0
M  END
>  <minimizedAffinity>
-5.03027344

>  <minimizedRMSD>
3.25590968

$$$$
