
 OpenBabel03272506353D

 19 20  0  0  0  0  0  0  0  0999 V2000
   37.4780   30.0550   50.9470 C   0  0  0  0  0  0  0  0  0  0  0  0
   38.2470   31.0510   50.2980 C   0  0  0  0  0  0  0  0  0  0  0  0
   37.8600   31.4520   49.0120 C   0  0  0  0  0  0  0  0  0  0  0  0
   36.7610   30.8540   48.4600 N   0  0  0  0  0  0  0  0  0  0  0  0
   36.0490   29.9040   49.1080 C   0  0  0  0  0  0  0  0  0  0  0  0
   36.4150   29.5240   50.3280 N   0  0  0  0  0  0  0  0  0  0  0  0
   39.1200   31.5380   50.7180 H   0  0  0  0  0  0  0  0  0  0  0  0
   38.3870   32.1980   48.4550 H   0  0  0  0  0  0  0  0  0  0  0  0
   34.8850   29.3100   48.4540 C   0  0  0  0  0  0  0  0  0  0  0  0
   34.2900   29.9720   47.4000 C   0  0  0  0  0  0  0  0  0  0  0  0
   34.6980   30.9190   47.0800 H   0  0  0  0  0  0  0  0  0  0  0  0
   33.1870   29.3770   46.8060 C   0  0  0  0  0  0  0  0  0  0  0  0
   32.7290   28.1590   47.2810 C   0  0  0  0  0  0  0  0  0  0  0  0
   31.8830   27.7010   46.8250 H   0  0  0  0  0  0  0  0  0  0  0  0
   33.3540   27.5320   48.3370 C   0  0  0  0  0  0  0  0  0  0  0  0
   32.9940   26.5720   48.7140 H   0  0  0  0  0  0  0  0  0  0  0  0
   34.4610   28.1060   48.9530 C   0  0  0  0  0  0  0  0  0  0  0  0
   37.9720   29.7620   52.2000 O   0  0  0  0  0  0  0  0  0  0  0  0
   37.6150   30.1200   53.0690 H   0  0  0  0  0  0  0  0  0  0  0  0
  1 18  1  0  0  0  0
  2  7  1  0  0  0  0
  2  1  2  0  0  0  0
  3  2  1  0  0  0  0
  4  3  2  0  0  0  0
  4  5  1  0  0  0  0
  5  6  2  0  0  0  0
  6  1  1  0  0  0  0
  8  3  1  0  0  0  0
  9 17  1  0  0  0  0
  9  5  1  0  0  0  0
 10  9  2  0  0  0  0
 11 10  1  0  0  0  0
 12 13  2  0  0  0  0
 12 10  1  0  0  0  0
 13 15  1  0  0  0  0
 14 13  1  0  0  0  0
 15 16  1  0  0  0  0
 15 17  2  0  0  0  0
 18 19  1  0  0  0  0
M  END
>  <minimizedAffinity>
-5.03392029

>  <minimizedRMSD>
1.29852927

$$$$
