
 OpenBabel03272506353D

 19 20  0  0  0  0  0  0  0  0999 V2000
   39.0330   23.1320   37.8800 C   0  0  0  0  0  0  0  0  0  0  0  0
   40.2510   22.5740   37.4230 C   0  0  0  0  0  0  0  0  0  0  0  0
   40.7980   23.0680   36.2290 C   0  0  0  0  0  0  0  0  0  0  0  0
   40.1170   24.0590   35.5780 N   0  0  0  0  0  0  0  0  0  0  0  0
   38.9540   24.5690   36.0430 C   0  0  0  0  0  0  0  0  0  0  0  0
   38.4360   24.1010   37.1750 N   0  0  0  0  0  0  0  0  0  0  0  0
   40.8050   21.7890   37.9240 H   0  0  0  0  0  0  0  0  0  0  0  0
   41.7140   22.7010   35.8180 H   0  0  0  0  0  0  0  0  0  0  0  0
   38.2840   25.6280   35.2920 C   0  0  0  0  0  0  0  0  0  0  0  0
   37.7930   25.3560   34.0310 C   0  0  0  0  0  0  0  0  0  0  0  0
   37.9150   24.3640   33.6250 H   0  0  0  0  0  0  0  0  0  0  0  0
   37.1640   26.3880   33.3490 C   0  0  0  0  0  3  0  0  0  0  0  0
   37.0510   27.6330   33.9460 C   0  0  0  0  0  0  0  0  0  0  0  0
   36.5680   28.4250   33.4250 H   0  0  0  0  0  0  0  0  0  0  0  0
   37.5570   27.8600   35.2080 C   0  0  0  0  0  0  0  0  0  0  0  0
   37.4700   28.8410   35.6800 H   0  0  0  0  0  0  0  0  0  0  0  0
   38.1930   26.8450   35.9150 C   0  0  0  0  0  3  0  0  0  0  0  0
   38.6150   22.5530   39.0600 O   0  0  0  0  0  0  0  0  0  0  0  0
   38.7430   22.9410   39.9790 H   0  0  0  0  0  0  0  0  0  0  0  0
  1 18  1  0  0  0  0
  2  1  1  0  0  0  0
  2  7  1  0  0  0  0
  3  2  2  0  0  0  0
  4  5  2  0  0  0  0
  4  3  1  0  0  0  0
  5  6  1  0  0  0  0
  6  1  2  0  0  0  0
  8  3  1  0  0  0  0
  9 17  1  0  0  0  0
  9  5  1  0  0  0  0
 10  9  2  0  0  0  0
 11 10  1  0  0  0  0
 12 13  2  0  0  0  0
 12 10  1  0  0  0  0
 13 15  1  0  0  0  0
 14 13  1  0  0  0  0
 15 16  1  0  0  0  0
 15 17  2  0  0  0  0
 18 19  1  0  0  0  0
M  END
>  <minimizedAffinity>
-4.75983572

$$$$

 OpenBabel03272506353D

 19 20  0  0  0  0  0  0  0  0999 V2000
   39.6720   22.8610   37.5120 C   0  0  0  0  0  0  0  0  0  0  0  0
   38.7430   23.1880   38.5300 C   0  0  0  0  0  0  0  0  0  0  0  0
   37.9030   24.2920   38.3290 C   0  0  0  0  0  0  0  0  0  0  0  0
   38.0340   24.9900   37.1610 N   0  0  0  0  0  0  0  0  0  0  0  0
   38.9340   24.6520   36.2090 C   0  0  0  0  0  0  0  0  0  0  0  0
   39.7300   23.6040   36.3990 N   0  0  0  0  0  0  0  0  0  0  0  0
   38.6230   22.6470   39.4620 H   0  0  0  0  0  0  0  0  0  0  0  0
   37.1750   24.6030   39.0480 H   0  0  0  0  0  0  0  0  0  0  0  0
   39.0160   25.4450   34.9840 C   0  0  0  0  0  0  0  0  0  0  0  0
   38.0490   25.2880   34.0110 C   0  0  0  0  0  0  0  0  0  0  0  0
   37.2520   24.5780   34.1760 H   0  0  0  0  0  0  0  0  0  0  0  0
   38.1620   26.0580   32.8630 C   0  0  0  0  0  3  0  0  0  0  0  0
   39.2190   26.9440   32.7350 C   0  0  0  0  0  0  0  0  0  0  0  0
   39.3050   27.5360   31.8550 H   0  0  0  0  0  0  0  0  0  0  0  0
   40.1610   27.0680   33.7330 C   0  0  0  0  0  0  0  0  0  0  0  0
   40.9960   27.7660   33.6330 H   0  0  0  0  0  0  0  0  0  0  0  0
   40.0750   26.3090   34.8940 C   0  0  0  0  0  3  0  0  0  0  0  0
   40.4290   21.7580   37.8440 O   0  0  0  0  0  0  0  0  0  0  0  0
   40.2660   20.8190   37.5230 H   0  0  0  0  0  0  0  0  0  0  0  0
  1 18  1  0  0  0  0
  1  2  1  0  0  0  0
  2  7  1  0  0  0  0
  3  2  2  0  0  0  0
  3  8  1  0  0  0  0
  4  3  1  0  0  0  0
  5  6  1  0  0  0  0
  5  4  2  0  0  0  0
  6  1  2  0  0  0  0
  9  5  1  0  0  0  0
 10 11  1  0  0  0  0
 10  9  2  0  0  0  0
 12 10  1  0  0  0  0
 13 12  2  0  0  0  0
 13 15  1  0  0  0  0
 14 13  1  0  0  0  0
 15 17  2  0  0  0  0
 16 15  1  0  0  0  0
 17  9  1  0  0  0  0
 19 18  1  0  0  0  0
M  END
>  <minimizedAffinity>
-4.59458828

$$$$

 OpenBabel03272506353D

 19 20  0  0  0  0  0  0  0  0999 V2000
   39.3900   22.8060   37.1420 C   0  0  0  0  0  0  0  0  0  0  0  0
   38.9570   23.1590   38.4440 C   0  0  0  0  0  0  0  0  0  0  0  0
   38.1630   24.3060   38.5880 C   0  0  0  0  0  0  0  0  0  0  0  0
   37.8570   25.0160   37.4610 N   0  0  0  0  0  0  0  0  0  0  0  0
   38.2880   24.6510   36.2320 C   0  0  0  0  0  0  0  0  0  0  0  0
   39.0400   23.5630   36.0940 N   0  0  0  0  0  0  0  0  0  0  0  0
   39.1890   22.6090   39.3490 H   0  0  0  0  0  0  0  0  0  0  0  0
   37.7960   24.6390   39.5360 H   0  0  0  0  0  0  0  0  0  0  0  0
   37.9180   25.4600   35.0730 C   0  0  0  0  0  0  0  0  0  0  0  0
   37.5090   26.7650   35.2620 C   0  0  0  0  0  0  0  0  0  0  0  0
   37.4690   27.1600   36.2650 H   0  0  0  0  0  0  0  0  0  0  0  0
   37.1660   27.5000   34.1360 C   0  0  0  0  0  3  0  0  0  0  0  0
   37.2450   26.9130   32.8850 C   0  0  0  0  0  0  0  0  0  0  0  0
   36.9830   27.4760   32.0210 H   0  0  0  0  0  0  0  0  0  0  0  0
   37.6600   25.6060   32.7430 C   0  0  0  0  0  0  0  0  0  0  0  0
   37.7230   25.1400   31.7570 H   0  0  0  0  0  0  0  0  0  0  0  0
   38.0090   24.8440   33.8520 C   0  0  0  0  0  3  0  0  0  0  0  0
   40.1580   21.6610   37.1510 O   0  0  0  0  0  0  0  0  0  0  0  0
   39.8340   20.7370   36.9240 H   0  0  0  0  0  0  0  0  0  0  0  0
  1 18  1  0  0  0  0
  1  2  1  0  0  0  0
  2  3  2  0  0  0  0
  2  7  1  0  0  0  0
  3  8  1  0  0  0  0
  4  3  1  0  0  0  0
  5  4  2  0  0  0  0
  6  5  1  0  0  0  0
  6  1  2  0  0  0  0
  9 10  1  0  0  0  0
  9  5  1  0  0  0  0
 10 11  1  0  0  0  0
 12 10  2  0  0  0  0
 13 12  1  0  0  0  0
 14 13  1  0  0  0  0
 15 13  2  0  0  0  0
 15 17  1  0  0  0  0
 16 15  1  0  0  0  0
 17  9  2  0  0  0  0
 19 18  1  0  0  0  0
M  END
>  <minimizedAffinity>
-4.37643814

$$$$

 OpenBabel03272506353D

 19 20  0  0  0  0  0  0  0  0999 V2000
   35.8260   24.9980   31.0480 C   0  0  0  0  0  0  0  0  0  0  0  0
   36.7800   25.6030   31.9010 C   0  0  0  0  0  0  0  0  0  0  0  0
   37.4910   24.7810   32.7870 C   0  0  0  0  0  0  0  0  0  0  0  0
   37.2170   23.4420   32.7740 N   0  0  0  0  0  0  0  0  0  0  0  0
   36.2970   22.8960   31.9460 C   0  0  0  0  0  0  0  0  0  0  0  0
   35.6230   23.6750   31.1060 N   0  0  0  0  0  0  0  0  0  0  0  0
   37.0120   26.6620   31.9260 H   0  0  0  0  0  0  0  0  0  0  0  0
   38.2290   25.1600   33.4620 H   0  0  0  0  0  0  0  0  0  0  0  0
   36.0590   21.4550   31.9890 C   0  0  0  0  0  0  0  0  0  0  0  0
   36.2740   20.7000   30.8540 C   0  0  0  0  0  0  0  0  0  0  0  0
   36.6140   21.1920   29.9560 H   0  0  0  0  0  0  0  0  0  0  0  0
   36.0370   19.3350   30.9350 C   0  0  0  0  0  3  0  0  0  0  0  0
   35.6010   18.7860   32.1290 C   0  0  0  0  0  0  0  0  0  0  0  0
   35.4190   17.7400   32.1920 H   0  0  0  0  0  0  0  0  0  0  0  0
   35.3990   19.5790   33.2390 C   0  0  0  0  0  0  0  0  0  0  0  0
   35.0540   19.1480   34.1820 H   0  0  0  0  0  0  0  0  0  0  0  0
   35.6280   20.9490   33.1880 C   0  0  0  0  0  3  0  0  0  0  0  0
   35.2060   25.9230   30.2350 O   0  0  0  0  0  0  0  0  0  0  0  0
   35.4410   26.1080   29.2750 H   0  0  0  0  0  0  0  0  0  0  0  0
  1  6  2  0  0  0  0
  1  2  1  0  0  0  0
  2  7  1  0  0  0  0
  2  3  2  0  0  0  0
  3  8  1  0  0  0  0
  4  3  1  0  0  0  0
  5  9  1  0  0  0  0
  5  4  2  0  0  0  0
  6  5  1  0  0  0  0
  9 17  1  0  0  0  0
 10 12  1  0  0  0  0
 10  9  2  0  0  0  0
 11 10  1  0  0  0  0
 12 13  2  0  0  0  0
 13 14  1  0  0  0  0
 13 15  1  0  0  0  0
 15 16  1  0  0  0  0
 17 15  2  0  0  0  0
 18  1  1  0  0  0  0
 19 18  1  0  0  0  0
M  END
>  <minimizedAffinity>
-4.3497467

$$$$

 OpenBabel03272506353D

 19 20  0  0  0  0  0  0  0  0999 V2000
   40.5140   22.7300   36.9420 C   0  0  0  0  0  0  0  0  0  0  0  0
   41.8170   22.7200   36.3870 C   0  0  0  0  0  0  0  0  0  0  0  0
   42.1240   23.6720   35.4040 C   0  0  0  0  0  0  0  0  0  0  0  0
   41.1440   24.5520   35.0400 N   0  0  0  0  0  0  0  0  0  0  0  0
   39.9080   24.5330   35.5890 C   0  0  0  0  0  0  0  0  0  0  0  0
   39.6170   23.6310   36.5220 N   0  0  0  0  0  0  0  0  0  0  0  0
   42.6080   22.0320   36.6630 H   0  0  0  0  0  0  0  0  0  0  0  0
   43.0850   23.7310   34.9370 H   0  0  0  0  0  0  0  0  0  0  0  0
   38.9120   25.5070   35.1490 C   0  0  0  0  0  0  0  0  0  0  0  0
   38.7590   26.6840   35.8540 C   0  0  0  0  0  0  0  0  0  0  0  0
   39.3800   26.8600   36.7190 H   0  0  0  0  0  0  0  0  0  0  0  0
   37.8030   27.5830   35.4050 C   0  0  0  0  0  3  0  0  0  0  0  0
   37.0480   27.2760   34.2850 C   0  0  0  0  0  0  0  0  0  0  0  0
   36.3150   27.9650   33.9390 H   0  0  0  0  0  0  0  0  0  0  0  0
   37.2350   26.0880   33.6110 C   0  0  0  0  0  0  0  0  0  0  0  0
   36.6400   25.8430   32.7280 H   0  0  0  0  0  0  0  0  0  0  0  0
   38.1850   25.1670   34.0380 C   0  0  0  0  0  3  0  0  0  0  0  0
   40.3550   21.7440   37.8920 O   0  0  0  0  0  0  0  0  0  0  0  0
   40.4100   21.8760   38.8880 H   0  0  0  0  0  0  0  0  0  0  0  0
  1 18  1  0  0  0  0
  2  7  1  0  0  0  0
  2  1  2  0  0  0  0
  3  2  1  0  0  0  0
  4  3  2  0  0  0  0
  4  5  1  0  0  0  0
  5  6  2  0  0  0  0
  6  1  1  0  0  0  0
  8  3  1  0  0  0  0
  9  5  1  0  0  0  0
  9 10  1  0  0  0  0
 10 11  1  0  0  0  0
 12 10  2  0  0  0  0
 13 12  1  0  0  0  0
 14 13  1  0  0  0  0
 15 17  1  0  0  0  0
 15 13  2  0  0  0  0
 16 15  1  0  0  0  0
 17  9  2  0  0  0  0
 18 19  1  0  0  0  0
M  END
>  <minimizedAffinity>
-4.31313515

$$$$

 OpenBabel03272506353D

 19 20  0  0  0  0  0  0  0  0999 V2000
   36.9040   27.3510   34.4170 C   0  0  0  0  0  0  0  0  0  0  0  0
   36.9140   26.9400   33.0620 C   0  0  0  0  0  0  0  0  0  0  0  0
   37.4700   25.6900   32.7530 C   0  0  0  0  0  0  0  0  0  0  0  0
   37.9720   24.9440   33.7830 N   0  0  0  0  0  0  0  0  0  0  0  0
   37.9490   25.3670   35.0670 C   0  0  0  0  0  0  0  0  0  0  0  0
   37.4210   26.5520   35.3600 N   0  0  0  0  0  0  0  0  0  0  0  0
   36.5200   27.5160   32.2320 H   0  0  0  0  0  0  0  0  0  0  0  0
   37.5140   25.3070   31.7560 H   0  0  0  0  0  0  0  0  0  0  0  0
   38.5040   24.5140   36.1150 C   0  0  0  0  0  0  0  0  0  0  0  0
   37.9220   24.5120   37.3660 C   0  0  0  0  0  0  0  0  0  0  0  0
   37.0660   25.1450   37.5450 H   0  0  0  0  0  0  0  0  0  0  0  0
   38.4780   23.6890   38.3340 C   0  0  0  0  0  3  0  0  0  0  0  0
   39.5780   22.9090   38.0180 C   0  0  0  0  0  0  0  0  0  0  0  0
   40.0050   22.2760   38.7590 H   0  0  0  0  0  0  0  0  0  0  0  0
   40.1280   22.9420   36.7540 C   0  0  0  0  0  0  0  0  0  0  0  0
   40.9960   22.3280   36.5030 H   0  0  0  0  0  0  0  0  0  0  0  0
   39.5920   23.7580   35.7640 C   0  0  0  0  0  3  0  0  0  0  0  0
   36.3300   28.5950   34.5710 O   0  0  0  0  0  0  0  0  0  0  0  0
   35.3850   28.7700   34.8660 H   0  0  0  0  0  0  0  0  0  0  0  0
  1 18  1  0  0  0  0
  1  6  1  0  0  0  0
  2  1  2  0  0  0  0
  3  2  1  0  0  0  0
  3  4  2  0  0  0  0
  4  5  1  0  0  0  0
  5  6  2  0  0  0  0
  5  9  1  0  0  0  0
  7  2  1  0  0  0  0
  8  3  1  0  0  0  0
  9 10  1  0  0  0  0
 10 11  1  0  0  0  0
 10 12  2  0  0  0  0
 13 12  1  0  0  0  0
 13 14  1  0  0  0  0
 15 13  2  0  0  0  0
 16 15  1  0  0  0  0
 17  9  2  0  0  0  0
 17 15  1  0  0  0  0
 18 19  1  0  0  0  0
M  END
>  <minimizedAffinity>
-4.29438257

$$$$

 OpenBabel03272506353D

 19 20  0  0  0  0  0  0  0  0999 V2000
   39.9000   22.6340   37.2050 C   0  0  0  0  0  0  0  0  0  0  0  0
   39.1900   23.2690   38.2520 C   0  0  0  0  0  0  0  0  0  0  0  0
   37.8000   23.4050   38.1210 C   0  0  0  0  0  0  0  0  0  0  0  0
   37.2160   22.9180   36.9850 N   0  0  0  0  0  0  0  0  0  0  0  0
   37.9250   22.3170   36.0020 C   0  0  0  0  0  0  0  0  0  0  0  0
   39.2420   22.1870   36.1270 N   0  0  0  0  0  0  0  0  0  0  0  0
   39.6340   23.6610   39.1590 H   0  0  0  0  0  0  0  0  0  0  0  0
   37.1920   23.8720   38.8670 H   0  0  0  0  0  0  0  0  0  0  0  0
   37.2300   21.8200   34.8170 C   0  0  0  0  0  0  0  0  0  0  0  0
   37.6480   22.2270   33.5670 C   0  0  0  0  0  0  0  0  0  0  0  0
   38.4820   22.9080   33.4910 H   0  0  0  0  0  0  0  0  0  0  0  0
   36.9630   21.7340   32.4660 C   0  0  0  0  0  3  0  0  0  0  0  0
   35.9020   20.8630   32.6560 C   0  0  0  0  0  0  0  0  0  0  0  0
   35.3760   20.4830   31.8120 H   0  0  0  0  0  0  0  0  0  0  0  0
   35.5180   20.4820   33.9240 C   0  0  0  0  0  0  0  0  0  0  0  0
   34.6820   19.7960   34.0750 H   0  0  0  0  0  0  0  0  0  0  0  0
   36.1860   20.9610   35.0450 C   0  0  0  0  0  3  0  0  0  0  0  0
   41.2520   22.5700   37.4680 O   0  0  0  0  0  0  0  0  0  0  0  0
   41.7410   21.7670   37.8260 H   0  0  0  0  0  0  0  0  0  0  0  0
  1 18  1  0  0  0  0
  1  2  1  0  0  0  0
  2  7  1  0  0  0  0
  3  2  2  0  0  0  0
  3  8  1  0  0  0  0
  4  3  1  0  0  0  0
  5  6  1  0  0  0  0
  5  4  2  0  0  0  0
  6  1  2  0  0  0  0
  9 17  1  0  0  0  0
  9  5  1  0  0  0  0
 10  9  2  0  0  0  0
 11 10  1  0  0  0  0
 12 13  2  0  0  0  0
 12 10  1  0  0  0  0
 13 15  1  0  0  0  0
 14 13  1  0  0  0  0
 15 16  1  0  0  0  0
 15 17  2  0  0  0  0
 18 19  1  0  0  0  0
M  END
>  <minimizedAffinity>
-4.28232527

$$$$

 OpenBabel03272506353D

 19 20  0  0  0  0  0  0  0  0999 V2000
   36.5970   28.2590   30.7110 C   0  0  0  0  0  0  0  0  0  0  0  0
   35.8460   29.4260   30.9930 C   0  0  0  0  0  0  0  0  0  0  0  0
   35.6470   29.7760   32.3360 C   0  0  0  0  0  0  0  0  0  0  0  0
   36.1890   28.9650   33.2940 N   0  0  0  0  0  0  0  0  0  0  0  0
   36.9000   27.8550   32.9900 C   0  0  0  0  0  0  0  0  0  0  0  0
   37.0900   27.5230   31.7160 N   0  0  0  0  0  0  0  0  0  0  0  0
   35.4090   30.0820   30.2490 H   0  0  0  0  0  0  0  0  0  0  0  0
   35.0930   30.6420   32.6320 H   0  0  0  0  0  0  0  0  0  0  0  0
   37.4500   27.0370   34.0690 C   0  0  0  0  0  0  0  0  0  0  0  0
   37.7890   27.6360   35.2660 C   0  0  0  0  0  0  0  0  0  0  0  0
   37.6410   28.6990   35.3790 H   0  0  0  0  0  0  0  0  0  0  0  0
   38.3090   26.8270   36.2650 C   0  0  0  0  0  3  0  0  0  0  0  0
   38.4660   25.4700   36.0340 C   0  0  0  0  0  0  0  0  0  0  0  0
   38.8630   24.8480   36.8010 H   0  0  0  0  0  0  0  0  0  0  0  0
   38.1130   24.9150   34.8230 C   0  0  0  0  0  0  0  0  0  0  0  0
   38.2370   23.8450   34.6390 H   0  0  0  0  0  0  0  0  0  0  0  0
   37.5910   25.7010   33.8020 C   0  0  0  0  0  3  0  0  0  0  0  0
   36.7120   28.0390   29.3550 O   0  0  0  0  0  0  0  0  0  0  0  0
   37.5090   28.2750   28.7890 H   0  0  0  0  0  0  0  0  0  0  0  0
  1  2  2  0  0  0  0
  1  6  1  0  0  0  0
  2  3  1  0  0  0  0
  3  8  1  0  0  0  0
  3  4  2  0  0  0  0
  5  4  1  0  0  0  0
  5  9  1  0  0  0  0
  6  5  2  0  0  0  0
  7  2  1  0  0  0  0
  9 10  1  0  0  0  0
 10 11  1  0  0  0  0
 10 12  2  0  0  0  0
 13 12  1  0  0  0  0
 13 14  1  0  0  0  0
 15 13  2  0  0  0  0
 16 15  1  0  0  0  0
 17  9  2  0  0  0  0
 17 15  1  0  0  0  0
 18  1  1  0  0  0  0
 19 18  1  0  0  0  0
M  END
>  <minimizedAffinity>
-4.26823568

$$$$

 OpenBabel03272506353D

 19 20  0  0  0  0  0  0  0  0999 V2000
   42.3160   20.7740   37.3170 C   0  0  0  0  0  0  0  0  0  0  0  0
   43.2680   21.1070   36.3230 C   0  0  0  0  0  0  0  0  0  0  0  0
   43.0080   22.2150   35.5030 C   0  0  0  0  0  0  0  0  0  0  0  0
   41.8470   22.9050   35.7120 N   0  0  0  0  0  0  0  0  0  0  0  0
   40.9570   22.5590   36.6710 C   0  0  0  0  0  0  0  0  0  0  0  0
   41.2040   21.5100   37.4490 N   0  0  0  0  0  0  0  0  0  0  0  0
   44.1940   20.5730   36.1420 H   0  0  0  0  0  0  0  0  0  0  0  0
   43.6770   22.5320   34.7310 H   0  0  0  0  0  0  0  0  0  0  0  0
   39.7380   23.3470   36.8360 C   0  0  0  0  0  0  0  0  0  0  0  0
   39.0410   23.2730   38.0260 C   0  0  0  0  0  0  0  0  0  0  0  0
   39.4130   22.6320   38.8110 H   0  0  0  0  0  0  0  0  0  0  0  0
   37.8880   24.0350   38.1440 C   0  0  0  0  0  3  0  0  0  0  0  0
   37.4830   24.8300   37.0850 C   0  0  0  0  0  0  0  0  0  0  0  0
   36.5990   25.4160   37.1750 H   0  0  0  0  0  0  0  0  0  0  0  0
   38.2090   24.8730   35.9150 C   0  0  0  0  0  0  0  0  0  0  0  0
   37.8910   25.4990   35.0780 H   0  0  0  0  0  0  0  0  0  0  0  0
   39.3690   24.1200   35.7670 C   0  0  0  0  0  3  0  0  0  0  0  0
   42.7010   19.6690   38.0450 O   0  0  0  0  0  0  0  0  0  0  0  0
   43.1350   19.6880   38.9520 H   0  0  0  0  0  0  0  0  0  0  0  0
  1  6  1  0  0  0  0
  1 18  1  0  0  0  0
  2  1  2  0  0  0  0
  3  4  2  0  0  0  0
  3  2  1  0  0  0  0
  4  5  1  0  0  0  0
  5  9  1  0  0  0  0
  5  6  2  0  0  0  0
  7  2  1  0  0  0  0
  8  3  1  0  0  0  0
  9 10  1  0  0  0  0
 10 12  2  0  0  0  0
 10 11  1  0  0  0  0
 13 14  1  0  0  0  0
 13 12  1  0  0  0  0
 15 13  2  0  0  0  0
 16 15  1  0  0  0  0
 17 15  1  0  0  0  0
 17  9  2  0  0  0  0
 18 19  1  0  0  0  0
M  END
>  <minimizedAffinity>
-4.2432704

$$$$
