
 OpenBabel03262522493D

 25 27  0  0  0  0  0  0  0  0999 V2000
   37.1470   26.9310   33.2000 C   0  0  0  0  0  0  0  0  0  0  0  0
   37.5560   25.7390   32.7420 C   0  0  0  0  0  0  0  0  0  0  0  0
   38.0430   24.8050   33.6270 C   0  0  0  0  0  0  0  0  0  0  0  0
   38.0730   25.1790   34.9420 C   0  0  0  0  0  0  0  0  0  0  0  0
   37.4030   26.8680   34.9090 S   0  0  0  0  0  0  0  0  0  0  0  0
   37.4950   25.5230   31.6600 H   0  0  0  0  0  0  0  0  0  0  0  0
   38.3960   23.8180   33.3570 H   0  0  0  0  0  0  0  0  0  0  0  0
   35.0540   29.7910   32.3700 C   0  0  0  0  0  0  0  0  0  0  0  0
   35.5440   30.1890   31.1060 C   0  0  0  0  0  0  0  0  0  0  0  0
   36.6020   29.4520   30.5510 C   0  0  0  0  0  0  0  0  0  0  0  0
   37.1110   28.3910   31.2470 N   0  0  0  0  0  0  0  0  0  0  0  0
   36.5920   28.0640   32.4590 C   0  0  0  0  0  0  0  0  0  0  0  0
   35.5910   28.7410   33.0110 N   0  0  0  0  0  0  0  0  0  0  0  0
   34.2470   30.3120   32.8490 H   0  0  0  0  0  0  0  0  0  0  0  0
   35.0880   31.0400   30.6160 H   0  0  0  0  0  0  0  0  0  0  0  0
   36.9830   29.7420   29.5940 H   0  0  0  0  0  0  0  0  0  0  0  0
   38.5270   24.4250   36.1020 C   0  0  0  0  0  0  0  0  0  0  0  0
   39.5870   23.5480   35.9960 C   0  0  0  0  0  0  0  0  0  0  0  0
   40.0560   23.4480   35.0260 H   0  0  0  0  0  0  0  0  0  0  0  0
   39.9470   22.8780   37.1460 C   0  0  0  0  0  3  0  0  0  0  0  0
   39.2610   23.0930   38.3430 C   0  0  0  0  0  0  0  0  0  0  0  0
   39.6220   22.5240   39.1650 H   0  0  0  0  0  0  0  0  0  0  0  0
   38.2050   23.9770   38.4160 C   0  0  0  0  0  0  0  0  0  0  0  0
   37.7010   24.1140   39.3640 H   0  0  0  0  0  0  0  0  0  0  0  0
   37.8240   24.6600   37.2850 C   0  0  0  0  0  3  0  0  0  0  0  0
  1  5  1  0  0  0  0
  2  1  2  0  0  0  0
  2  3  1  0  0  0  0
  3  4  2  0  0  0  0
  4 17  1  0  0  0  0
  5  4  1  0  0  0  0
  6  2  1  0  0  0  0
  7  3  1  0  0  0  0
  8 14  1  0  0  0  0
  8 13  1  0  0  0  0
  9  8  2  0  0  0  0
 10  9  1  0  0  0  0
 10 11  2  0  0  0  0
 11 12  1  0  0  0  0
 12 13  2  0  0  0  0
 12  1  1  0  0  0  0
 15  9  1  0  0  0  0
 16 10  1  0  0  0  0
 17 25  1  0  0  0  0
 18 17  2  0  0  0  0
 18 20  1  0  0  0  0
 19 18  1  0  0  0  0
 20 21  2  0  0  0  0
 21 23  1  0  0  0  0
 21 22  1  0  0  0  0
 23 24  1  0  0  0  0
 25 23  2  0  0  0  0
M  END
>  <minimizedAffinity>
-4.88958263

$$$$

 OpenBabel03262522493D

 25 27  0  0  0  0  0  0  0  0999 V2000
   37.7580   27.1760   33.0250 C   0  0  0  0  0  0  0  0  0  0  0  0
   37.1690   27.4880   34.1880 C   0  0  0  0  0  0  0  0  0  0  0  0
   37.4170   26.7170   35.3010 C   0  0  0  0  0  0  0  0  0  0  0  0
   38.2680   25.6610   35.1240 C   0  0  0  0  0  0  0  0  0  0  0  0
   38.7130   25.7750   33.3660 S   0  0  0  0  0  0  0  0  0  0  0  0
   36.4940   28.3610   34.2390 H   0  0  0  0  0  0  0  0  0  0  0  0
   36.9910   26.8870   36.2810 H   0  0  0  0  0  0  0  0  0  0  0  0
   36.5270   29.3510   30.3790 C   0  0  0  0  0  0  0  0  0  0  0  0
   37.4380   29.1190   29.3250 C   0  0  0  0  0  0  0  0  0  0  0  0
   38.4760   28.2010   29.5460 C   0  0  0  0  0  0  0  0  0  0  0  0
   38.5640   27.5740   30.7580 N   0  0  0  0  0  0  0  0  0  0  0  0
   37.6530   27.8460   31.7290 C   0  0  0  0  0  0  0  0  0  0  0  0
   36.6590   28.7090   31.5510 N   0  0  0  0  0  0  0  0  0  0  0  0
   35.7110   30.0410   30.2760 H   0  0  0  0  0  0  0  0  0  0  0  0
   37.3020   29.6530   28.3930 H   0  0  0  0  0  0  0  0  0  0  0  0
   39.1730   28.0150   28.7560 H   0  0  0  0  0  0  0  0  0  0  0  0
   38.7210   24.6730   36.0930 C   0  0  0  0  0  0  0  0  0  0  0  0
   38.0360   24.4890   37.2770 C   0  0  0  0  0  0  0  0  0  0  0  0
   37.1610   25.1030   37.4480 H   0  0  0  0  0  0  0  0  0  0  0  0
   38.5370   23.5320   38.1340 C   0  0  0  0  0  3  0  0  0  0  0  0
   39.6790   22.8010   37.8000 C   0  0  0  0  0  0  0  0  0  0  0  0
   39.9770   22.0920   38.5330 H   0  0  0  0  0  0  0  0  0  0  0  0
   40.3410   23.0100   36.6080 C   0  0  0  0  0  0  0  0  0  0  0  0
   41.2220   22.4200   36.3880 H   0  0  0  0  0  0  0  0  0  0  0  0
   39.8630   23.9570   35.7340 C   0  0  0  0  0  3  0  0  0  0  0  0
  1  5  1  0  0  0  0
  1  2  2  0  0  0  0
  2  6  1  0  0  0  0
  2  3  1  0  0  0  0
  3  7  1  0  0  0  0
  4  3  2  0  0  0  0
  4 17  1  0  0  0  0
  5  4  1  0  0  0  0
  8 13  1  0  0  0  0
  9 10  1  0  0  0  0
  9  8  2  0  0  0  0
 10 11  2  0  0  0  0
 11 12  1  0  0  0  0
 12  1  1  0  0  0  0
 13 12  2  0  0  0  0
 14  8  1  0  0  0  0
 15  9  1  0  0  0  0
 16 10  1  0  0  0  0
 17 18  1  0  0  0  0
 18 19  1  0  0  0  0
 18 20  2  0  0  0  0
 21 20  1  0  0  0  0
 21 22  1  0  0  0  0
 23 21  2  0  0  0  0
 24 23  1  0  0  0  0
 25 17  2  0  0  0  0
 25 23  1  0  0  0  0
M  END
>  <minimizedAffinity>
-4.85125637

$$$$

 OpenBabel03262522493D

 25 27  0  0  0  0  0  0  0  0999 V2000
   37.9930   25.2860   34.9280 C   0  0  0  0  0  0  0  0  0  0  0  0
   37.7940   24.9350   33.6490 C   0  0  0  0  0  0  0  0  0  0  0  0
   37.3140   25.8670   32.7580 C   0  0  0  0  0  0  0  0  0  0  0  0
   37.0710   27.1130   33.2640 C   0  0  0  0  0  0  0  0  0  0  0  0
   37.5290   26.9490   35.0150 S   0  0  0  0  0  0  0  0  0  0  0  0
   38.0190   23.9010   33.3280 H   0  0  0  0  0  0  0  0  0  0  0  0
   37.1220   25.6820   31.7090 H   0  0  0  0  0  0  0  0  0  0  0  0
   38.2650   23.8030   38.2410 C   0  0  0  0  0  0  0  0  0  0  0  0
   39.4050   22.9750   38.1270 C   0  0  0  0  0  0  0  0  0  0  0  0
   40.0730   22.9440   36.8930 C   0  0  0  0  0  0  0  0  0  0  0  0
   39.5990   23.7060   35.8610 N   0  0  0  0  0  0  0  0  0  0  0  0
   38.4960   24.4780   36.0390 C   0  0  0  0  0  0  0  0  0  0  0  0
   37.8430   24.5300   37.1940 N   0  0  0  0  0  0  0  0  0  0  0  0
   37.7100   23.8720   39.1570 H   0  0  0  0  0  0  0  0  0  0  0  0
   39.7190   22.4020   38.9900 H   0  0  0  0  0  0  0  0  0  0  0  0
   40.9370   22.3220   36.7930 H   0  0  0  0  0  0  0  0  0  0  0  0
   36.5660   28.2990   32.5850 C   0  0  0  0  0  0  0  0  0  0  0  0
   35.7880   29.2150   33.2620 C   0  0  0  0  0  0  0  0  0  0  0  0
   35.5740   29.0150   34.3030 H   0  0  0  0  0  0  0  0  0  0  0  0
   35.3550   30.3070   32.5390 C   0  0  0  0  0  3  0  0  0  0  0  0
   35.6980   30.4550   31.1930 C   0  0  0  0  0  0  0  0  0  0  0  0
   35.3110   31.3310   30.7340 H   0  0  0  0  0  0  0  0  0  0  0  0
   36.4790   29.5190   30.5450 C   0  0  0  0  0  0  0  0  0  0  0  0
   36.7220   29.6730   29.5020 H   0  0  0  0  0  0  0  0  0  0  0  0
   36.9250   28.4210   31.2420 C   0  0  0  0  0  3  0  0  0  0  0  0
  1  5  1  0  0  0  0
  1 12  1  0  0  0  0
  2  1  2  0  0  0  0
  3  4  2  0  0  0  0
  3  2  1  0  0  0  0
  4  5  1  0  0  0  0
  6  2  1  0  0  0  0
  7  3  1  0  0  0  0
  8 14  1  0  0  0  0
  9  8  1  0  0  0  0
  9 15  1  0  0  0  0
 10  9  2  0  0  0  0
 11 12  2  0  0  0  0
 11 10  1  0  0  0  0
 12 13  1  0  0  0  0
 13  8  2  0  0  0  0
 16 10  1  0  0  0  0
 17 18  1  0  0  0  0
 17  4  1  0  0  0  0
 18 19  1  0  0  0  0
 20 18  2  0  0  0  0
 21 20  1  0  0  0  0
 22 21  1  0  0  0  0
 23 21  2  0  0  0  0
 23 25  1  0  0  0  0
 24 23  1  0  0  0  0
 25 17  2  0  0  0  0
M  END
>  <minimizedAffinity>
-4.83868647

$$$$

 OpenBabel03262522493D

 25 27  0  0  0  0  0  0  0  0999 V2000
   38.4430   25.6680   35.5570 C   0  0  0  0  0  0  0  0  0  0  0  0
   38.2810   26.8800   36.1070 C   0  0  0  0  0  0  0  0  0  0  0  0
   37.6680   27.8760   35.3820 C   0  0  0  0  0  0  0  0  0  0  0  0
   37.2620   27.5390   34.1200 C   0  0  0  0  0  0  0  0  0  0  0  0
   37.7590   25.7970   33.9750 S   0  0  0  0  0  0  0  0  0  0  0  0
   38.6420   27.0630   37.1350 H   0  0  0  0  0  0  0  0  0  0  0  0
   37.4910   28.8830   35.7360 H   0  0  0  0  0  0  0  0  0  0  0  0
   40.5610   22.7280   35.9050 C   0  0  0  0  0  0  0  0  0  0  0  0
   40.2120   22.2320   37.1810 C   0  0  0  0  0  0  0  0  0  0  0  0
   39.2360   22.9290   37.9110 C   0  0  0  0  0  0  0  0  0  0  0  0
   38.6680   24.0460   37.3640 N   0  0  0  0  0  0  0  0  0  0  0  0
   39.0510   24.4680   36.1320 C   0  0  0  0  0  0  0  0  0  0  0  0
   39.9720   23.8310   35.4160 N   0  0  0  0  0  0  0  0  0  0  0  0
   41.3000   22.2430   35.2960 H   0  0  0  0  0  0  0  0  0  0  0  0
   40.7060   21.3410   37.5460 H   0  0  0  0  0  0  0  0  0  0  0  0
   38.9620   22.5640   38.8780 H   0  0  0  0  0  0  0  0  0  0  0  0
   36.5940   28.3590   33.1200 C   0  0  0  0  0  0  0  0  0  0  0  0
   37.0320   28.3620   31.8110 C   0  0  0  0  0  0  0  0  0  0  0  0
   37.8810   27.7370   31.5680 H   0  0  0  0  0  0  0  0  0  0  0  0
   36.3390   29.1680   30.9330 C   0  0  0  0  0  3  0  0  0  0  0  0
   35.2540   29.9330   31.3690 C   0  0  0  0  0  0  0  0  0  0  0  0
   34.7940   30.5170   30.6100 H   0  0  0  0  0  0  0  0  0  0  0  0
   34.8410   29.9070   32.6850 C   0  0  0  0  0  0  0  0  0  0  0  0
   33.9950   30.5150   32.9800 H   0  0  0  0  0  0  0  0  0  0  0  0
   35.5130   29.1120   33.5820 C   0  0  0  0  0  3  0  0  0  0  0  0
  1  2  2  0  0  0  0
  1 12  1  0  0  0  0
  2  6  1  0  0  0  0
  3  7  1  0  0  0  0
  3  2  1  0  0  0  0
  4  3  2  0  0  0  0
  5  4  1  0  0  0  0
  5  1  1  0  0  0  0
  8  9  1  0  0  0  0
  9 15  1  0  0  0  0
  9 10  2  0  0  0  0
 10 16  1  0  0  0  0
 11 10  1  0  0  0  0
 12 11  2  0  0  0  0
 13  8  2  0  0  0  0
 13 12  1  0  0  0  0
 14  8  1  0  0  0  0
 17 25  1  0  0  0  0
 17  4  1  0  0  0  0
 18 17  2  0  0  0  0
 19 18  1  0  0  0  0
 20 21  2  0  0  0  0
 20 18  1  0  0  0  0
 21 23  1  0  0  0  0
 22 21  1  0  0  0  0
 23 24  1  0  0  0  0
 23 25  2  0  0  0  0
M  END
>  <minimizedAffinity>
-4.80945015

$$$$

 OpenBabel03262522493D

 25 27  0  0  0  0  0  0  0  0999 V2000
   37.9990   25.2790   34.8910 C   0  0  0  0  0  0  0  0  0  0  0  0
   37.7980   24.9310   33.6120 C   0  0  0  0  0  0  0  0  0  0  0  0
   37.3280   25.8690   32.7210 C   0  0  0  0  0  0  0  0  0  0  0  0
   37.0960   27.1170   33.2280 C   0  0  0  0  0  0  0  0  0  0  0  0
   37.5520   26.9470   34.9790 S   0  0  0  0  0  0  0  0  0  0  0  0
   38.0120   23.8960   33.2900 H   0  0  0  0  0  0  0  0  0  0  0  0
   37.1340   25.6860   31.6720 H   0  0  0  0  0  0  0  0  0  0  0  0
   40.0630   22.9560   36.7860 C   0  0  0  0  0  0  0  0  0  0  0  0
   39.4480   22.9470   38.0580 C   0  0  0  0  0  0  0  0  0  0  0  0
   38.3130   23.7520   38.2440 C   0  0  0  0  0  0  0  0  0  0  0  0
   37.8530   24.5050   37.1990 N   0  0  0  0  0  0  0  0  0  0  0  0
   38.4940   24.4660   36.0020 C   0  0  0  0  0  0  0  0  0  0  0  0
   39.5700   23.7150   35.7940 N   0  0  0  0  0  0  0  0  0  0  0  0
   40.9340   22.3630   36.5790 H   0  0  0  0  0  0  0  0  0  0  0  0
   39.8700   22.3240   38.8360 H   0  0  0  0  0  0  0  0  0  0  0  0
   37.8370   23.7540   39.2020 H   0  0  0  0  0  0  0  0  0  0  0  0
   36.6040   28.3080   32.5490 C   0  0  0  0  0  0  0  0  0  0  0  0
   36.9350   28.5490   31.2320 C   0  0  0  0  0  0  0  0  0  0  0  0
   37.5660   27.8250   30.7350 H   0  0  0  0  0  0  0  0  0  0  0  0
   36.4230   29.7010   30.6710 C   0  0  0  0  0  3  0  0  0  0  0  0
   35.6160   30.5620   31.4180 C   0  0  0  0  0  0  0  0  0  0  0  0
   35.2780   31.4180   30.8870 H   0  0  0  0  0  0  0  0  0  0  0  0
   35.3040   30.2920   32.7340 C   0  0  0  0  0  0  0  0  0  0  0  0
   34.6750   30.9860   33.2760 H   0  0  0  0  0  0  0  0  0  0  0  0
   35.8000   29.1500   33.3190 C   0  0  0  0  0  3  0  0  0  0  0  0
  1  5  1  0  0  0  0
  1 12  1  0  0  0  0
  2  1  2  0  0  0  0
  3  4  2  0  0  0  0
  3  2  1  0  0  0  0
  4  5  1  0  0  0  0
  6  2  1  0  0  0  0
  7  3  1  0  0  0  0
  8  9  1  0  0  0  0
  9 10  2  0  0  0  0
  9 15  1  0  0  0  0
 10 16  1  0  0  0  0
 11 10  1  0  0  0  0
 12 11  2  0  0  0  0
 13 12  1  0  0  0  0
 13  8  2  0  0  0  0
 14  8  1  0  0  0  0
 17  4  1  0  0  0  0
 17 25  1  0  0  0  0
 18 17  2  0  0  0  0
 19 18  1  0  0  0  0
 20 18  1  0  0  0  0
 20 21  2  0  0  0  0
 21 23  1  0  0  0  0
 22 21  1  0  0  0  0
 23 24  1  0  0  0  0
 23 25  2  0  0  0  0
M  END
>  <minimizedAffinity>
-4.80396557

$$$$

 OpenBabel03262522493D

 25 27  0  0  0  0  0  0  0  0999 V2000
   38.3600   25.5750   35.1320 C   0  0  0  0  0  0  0  0  0  0  0  0
   37.4020   26.4830   35.3650 C   0  0  0  0  0  0  0  0  0  0  0  0
   37.0300   27.3480   34.3610 C   0  0  0  0  0  0  0  0  0  0  0  0
   37.6900   27.2080   33.1710 C   0  0  0  0  0  0  0  0  0  0  0  0
   38.8400   25.8380   33.4920 S   0  0  0  0  0  0  0  0  0  0  0  0
   36.9220   26.5240   36.3590 H   0  0  0  0  0  0  0  0  0  0  0  0
   36.2700   28.1120   34.4500 H   0  0  0  0  0  0  0  0  0  0  0  0
   38.7230   23.3890   38.0190 C   0  0  0  0  0  0  0  0  0  0  0  0
   39.9000   22.6650   37.7260 C   0  0  0  0  0  0  0  0  0  0  0  0
   40.5620   22.9490   36.5210 C   0  0  0  0  0  0  0  0  0  0  0  0
   40.0460   23.9030   35.6880 N   0  0  0  0  0  0  0  0  0  0  0  0
   38.9090   24.5600   36.0320 C   0  0  0  0  0  0  0  0  0  0  0  0
   38.2600   24.3150   37.1650 N   0  0  0  0  0  0  0  0  0  0  0  0
   38.1690   23.2200   38.9240 H   0  0  0  0  0  0  0  0  0  0  0  0
   40.2460   21.9250   38.4370 H   0  0  0  0  0  0  0  0  0  0  0  0
   41.4540   22.4080   36.2870 H   0  0  0  0  0  0  0  0  0  0  0  0
   37.5270   27.9610   31.9360 C   0  0  0  0  0  0  0  0  0  0  0  0
   38.3460   27.7140   30.8530 C   0  0  0  0  0  0  0  0  0  0  0  0
   39.1010   26.9470   30.9630 H   0  0  0  0  0  0  0  0  0  0  0  0
   38.1190   28.4750   29.7250 C   0  0  0  0  0  3  0  0  0  0  0  0
   37.1090   29.4390   29.7040 C   0  0  0  0  0  0  0  0  0  0  0  0
   37.0230   29.9670   28.7860 H   0  0  0  0  0  0  0  0  0  0  0  0
   36.3070   29.6620   30.8050 C   0  0  0  0  0  0  0  0  0  0  0  0
   35.5360   30.4190   30.7470 H   0  0  0  0  0  0  0  0  0  0  0  0
   36.5100   28.9170   31.9430 C   0  0  0  0  0  3  0  0  0  0  0  0
  1  2  2  0  0  0  0
  1 12  1  0  0  0  0
  2  6  1  0  0  0  0
  3  7  1  0  0  0  0
  3  2  1  0  0  0  0
  4  5  1  0  0  0  0
  4  3  2  0  0  0  0
  5  1  1  0  0  0  0
  8 14  1  0  0  0  0
  9  8  1  0  0  0  0
  9 15  1  0  0  0  0
 10  9  2  0  0  0  0
 11 12  2  0  0  0  0
 11 10  1  0  0  0  0
 12 13  1  0  0  0  0
 13  8  2  0  0  0  0
 16 10  1  0  0  0  0
 17 25  1  0  0  0  0
 17  4  1  0  0  0  0
 18 19  1  0  0  0  0
 18 17  2  0  0  0  0
 20 18  1  0  0  0  0
 21 20  2  0  0  0  0
 21 23  1  0  0  0  0
 22 21  1  0  0  0  0
 23 25  2  0  0  0  0
 24 23  1  0  0  0  0
M  END
>  <minimizedAffinity>
-4.77983761

$$$$

 OpenBabel03262522493D

 25 27  0  0  0  0  0  0  0  0999 V2000
   36.4650   26.0230   31.8820 C   0  0  0  0  0  0  0  0  0  0  0  0
   37.3680   25.3670   32.6240 C   0  0  0  0  0  0  0  0  0  0  0  0
   37.3530   23.9910   32.6500 C   0  0  0  0  0  0  0  0  0  0  0  0
   36.3870   23.3860   31.8960 C   0  0  0  0  0  0  0  0  0  0  0  0
   35.5030   24.7870   31.1490 S   0  0  0  0  0  0  0  0  0  0  0  0
   38.1140   25.9400   33.2050 H   0  0  0  0  0  0  0  0  0  0  0  0
   38.0380   23.3730   33.2160 H   0  0  0  0  0  0  0  0  0  0  0  0
   36.4860   29.3020   30.3020 C   0  0  0  0  0  0  0  0  0  0  0  0
   35.9780   30.1470   31.3130 C   0  0  0  0  0  0  0  0  0  0  0  0
   35.6330   29.5650   32.5430 C   0  0  0  0  0  0  0  0  0  0  0  0
   35.8010   28.2180   32.7120 N   0  0  0  0  0  0  0  0  0  0  0  0
   36.2940   27.4640   31.6950 C   0  0  0  0  0  0  0  0  0  0  0  0
   36.6300   27.9850   30.5200 N   0  0  0  0  0  0  0  0  0  0  0  0
   36.7680   29.6840   29.3390 H   0  0  0  0  0  0  0  0  0  0  0  0
   35.8750   31.2040   31.1040 H   0  0  0  0  0  0  0  0  0  0  0  0
   35.2480   30.1930   33.3180 H   0  0  0  0  0  0  0  0  0  0  0  0
   36.1140   21.9670   31.7180 C   0  0  0  0  0  0  0  0  0  0  0  0
   35.0240   21.3820   32.3310 C   0  0  0  0  0  0  0  0  0  0  0  0
   34.3940   22.0170   32.9380 H   0  0  0  0  0  0  0  0  0  0  0  0
   34.8440   20.0330   32.1060 C   0  0  0  0  0  3  0  0  0  0  0  0
   35.7310   19.3180   31.2980 C   0  0  0  0  0  0  0  0  0  0  0  0
   35.4980   18.2870   31.1940 H   0  0  0  0  0  0  0  0  0  0  0  0
   36.8120   19.9330   30.7000 C   0  0  0  0  0  0  0  0  0  0  0  0
   37.4740   19.3420   30.0810 H   0  0  0  0  0  0  0  0  0  0  0  0
   37.0150   21.2770   30.9060 C   0  0  0  0  0  3  0  0  0  0  0  0
  1  2  2  0  0  0  0
  2  3  1  0  0  0  0
  2  6  1  0  0  0  0
  3  7  1  0  0  0  0
  4  3  2  0  0  0  0
  5  1  1  0  0  0  0
  5  4  1  0  0  0  0
  8 13  2  0  0  0  0
  8  9  1  0  0  0  0
  9 10  2  0  0  0  0
 10 11  1  0  0  0  0
 10 16  1  0  0  0  0
 12  1  1  0  0  0  0
 12 11  2  0  0  0  0
 13 12  1  0  0  0  0
 14  8  1  0  0  0  0
 15  9  1  0  0  0  0
 17  4  1  0  0  0  0
 17 18  1  0  0  0  0
 18 19  1  0  0  0  0
 20 18  2  0  0  0  0
 21 20  1  0  0  0  0
 22 21  1  0  0  0  0
 23 25  1  0  0  0  0
 23 21  2  0  0  0  0
 24 23  1  0  0  0  0
 25 17  2  0  0  0  0
M  END
>  <minimizedAffinity>
-4.74710226

$$$$

 OpenBabel03262522493D

 25 27  0  0  0  0  0  0  0  0999 V2000
   36.6010   25.9110   31.1710 C   0  0  0  0  0  0  0  0  0  0  0  0
   37.7620   25.2420   31.2080 C   0  0  0  0  0  0  0  0  0  0  0  0
   37.7510   23.8680   31.2740 C   0  0  0  0  0  0  0  0  0  0  0  0
   36.5180   23.2770   31.2970 C   0  0  0  0  0  0  0  0  0  0  0  0
   35.3780   24.6910   31.2250 S   0  0  0  0  0  0  0  0  0  0  0  0
   38.7140   25.8040   31.1850 H   0  0  0  0  0  0  0  0  0  0  0  0
   38.6310   23.2400   31.3080 H   0  0  0  0  0  0  0  0  0  0  0  0
   35.3640   29.2340   31.9950 C   0  0  0  0  0  0  0  0  0  0  0  0
   35.9260   30.0440   30.9820 C   0  0  0  0  0  0  0  0  0  0  0  0
   36.7310   29.4210   30.0150 C   0  0  0  0  0  0  0  0  0  0  0  0
   36.9390   28.0710   30.0920 N   0  0  0  0  0  0  0  0  0  0  0  0
   36.3690   27.3530   31.0930 C   0  0  0  0  0  0  0  0  0  0  0  0
   35.6010   27.9120   32.0230 N   0  0  0  0  0  0  0  0  0  0  0  0
   34.7390   29.6470   32.7640 H   0  0  0  0  0  0  0  0  0  0  0  0
   35.7150   31.1050   30.9890 H   0  0  0  0  0  0  0  0  0  0  0  0
   37.1620   30.0220   29.2430 H   0  0  0  0  0  0  0  0  0  0  0  0
   36.1770   21.8630   31.3640 C   0  0  0  0  0  0  0  0  0  0  0  0
   36.8850   20.9370   30.6260 C   0  0  0  0  0  0  0  0  0  0  0  0
   37.6920   21.3050   30.0070 H   0  0  0  0  0  0  0  0  0  0  0  0
   36.4930   19.6210   30.7520 C   0  0  0  0  0  3  0  0  0  0  0  0
   35.4310   19.2680   31.5890 C   0  0  0  0  0  0  0  0  0  0  0  0
   35.2140   18.2290   31.6090 H   0  0  0  0  0  0  0  0  0  0  0  0
   34.7430   20.2200   32.3130 C   0  0  0  0  0  0  0  0  0  0  0  0
   33.9260   19.9030   32.9500 H   0  0  0  0  0  0  0  0  0  0  0  0
   35.1130   21.5390   32.2080 C   0  0  0  0  0  3  0  0  0  0  0  0
  1  2  2  0  0  0  0
  1  5  1  0  0  0  0
  2  3  1  0  0  0  0
  3  4  2  0  0  0  0
  3  7  1  0  0  0  0
  4 17  1  0  0  0  0
  5  4  1  0  0  0  0
  6  2  1  0  0  0  0
  8 13  1  0  0  0  0
  8 14  1  0  0  0  0
  9 15  1  0  0  0  0
  9  8  2  0  0  0  0
 10 11  2  0  0  0  0
 10  9  1  0  0  0  0
 11 12  1  0  0  0  0
 12  1  1  0  0  0  0
 12 13  2  0  0  0  0
 16 10  1  0  0  0  0
 17 25  1  0  0  0  0
 18 20  1  0  0  0  0
 18 17  2  0  0  0  0
 19 18  1  0  0  0  0
 20 21  2  0  0  0  0
 21 22  1  0  0  0  0
 21 23  1  0  0  0  0
 23 24  1  0  0  0  0
 25 23  2  0  0  0  0
M  END
>  <minimizedAffinity>
-4.72698689

$$$$

 OpenBabel03262522493D

 25 27  0  0  0  0  0  0  0  0999 V2000
   37.8540   25.8970   34.5550 C   0  0  0  0  0  0  0  0  0  0  0  0
   37.6540   25.5690   35.8390 C   0  0  0  0  0  0  0  0  0  0  0  0
   38.5320   24.7130   36.4640 C   0  0  0  0  0  0  0  0  0  0  0  0
   39.5690   24.2520   35.7010 C   0  0  0  0  0  0  0  0  0  0  0  0
   39.2850   25.0440   34.0900 S   0  0  0  0  0  0  0  0  0  0  0  0
   36.7870   25.9900   36.3790 H   0  0  0  0  0  0  0  0  0  0  0  0
   38.4570   24.3890   37.4940 H   0  0  0  0  0  0  0  0  0  0  0  0
   35.8970   28.7650   33.4630 C   0  0  0  0  0  0  0  0  0  0  0  0
   35.6090   28.4600   32.1140 C   0  0  0  0  0  0  0  0  0  0  0  0
   36.0990   27.2510   31.5950 C   0  0  0  0  0  0  0  0  0  0  0  0
   36.8280   26.4260   32.4070 N   0  0  0  0  0  0  0  0  0  0  0  0
   37.0680   26.7820   33.6950 C   0  0  0  0  0  0  0  0  0  0  0  0
   36.6180   27.9190   34.2150 N   0  0  0  0  0  0  0  0  0  0  0  0
   35.5520   29.6730   33.9200 H   0  0  0  0  0  0  0  0  0  0  0  0
   35.0250   29.1640   31.5350 H   0  0  0  0  0  0  0  0  0  0  0  0
   35.8880   27.0070   30.5750 H   0  0  0  0  0  0  0  0  0  0  0  0
   40.6480   23.3460   36.0680 C   0  0  0  0  0  0  0  0  0  0  0  0
   41.8890   23.4590   35.4740 C   0  0  0  0  0  0  0  0  0  0  0  0
   42.0190   24.2380   34.7350 H   0  0  0  0  0  0  0  0  0  0  0  0
   42.8500   22.5580   35.8830 C   0  0  0  0  0  3  0  0  0  0  0  0
   42.5600   21.5920   36.8490 C   0  0  0  0  0  0  0  0  0  0  0  0
   43.3720   20.9520   37.0880 H   0  0  0  0  0  0  0  0  0  0  0  0
   41.3080   21.5060   37.4240 C   0  0  0  0  0  0  0  0  0  0  0  0
   41.1260   20.7430   38.1690 H   0  0  0  0  0  0  0  0  0  0  0  0
   40.3310   22.3920   37.0350 C   0  0  0  0  0  3  0  0  0  0  0  0
  1  2  2  0  0  0  0
  2  6  1  0  0  0  0
  2  3  1  0  0  0  0
  3  7  1  0  0  0  0
  4 17  1  0  0  0  0
  4  3  2  0  0  0  0
  5  1  1  0  0  0  0
  5  4  1  0  0  0  0
  8 14  1  0  0  0  0
  8 13  1  0  0  0  0
  9  8  2  0  0  0  0
 10  9  1  0  0  0  0
 10 11  2  0  0  0  0
 11 12  1  0  0  0  0
 12 13  2  0  0  0  0
 12  1  1  0  0  0  0
 15  9  1  0  0  0  0
 16 10  1  0  0  0  0
 17 25  1  0  0  0  0
 18 20  1  0  0  0  0
 18 17  2  0  0  0  0
 19 18  1  0  0  0  0
 20 21  2  0  0  0  0
 21 22  1  0  0  0  0
 21 23  1  0  0  0  0
 23 24  1  0  0  0  0
 25 23  2  0  0  0  0
M  END
>  <minimizedAffinity>
-4.60083866

$$$$
