REMARK  Name = 
REMARK  2 active torsions:
REMARK  status: ('A' for Active; 'I' for Inactive)
REMARK    1  A    between atoms: C_5  and  C_9
REMARK    2  A    between atoms: C_11  and  C_20
REMARK                            x       y       z     vdW  Elec       q    Type
REMARK                         _______ _______ _______ _____ _____    ______ ____
ROOT
ATOM      1 BR   UNL     1      37.272  29.358  51.052  0.00  0.00    +0.000 Br
ATOM      2  C   UNL     1      35.963  29.314  49.670  0.00  0.00    +0.000 A 
ATOM      3  C   UNL     1      35.997  30.215  48.625  0.00  0.00    +0.000 A 
ATOM      4  C   UNL     1      35.009  30.127  47.655  0.00  0.00    +0.000 A 
ATOM      5  C   UNL     1      34.003  29.184  47.693  0.00  0.00    +0.000 A 
ATOM      6  C   UNL     1      33.994  28.304  48.741  0.00  0.00    +0.000 A 
ATOM      7  C   UNL     1      34.967  28.377  49.712  0.00  0.00    +0.000 A 
ATOM      8  H   UNL     1      35.073  30.859  46.844  0.00  0.00    +0.000 HD
ATOM      9  H   UNL     1      33.234  27.538  48.834  0.00  0.00    +0.000 HD
ATOM     10  H   UNL     1      34.936  27.667  50.531  0.00  0.00    +0.000 HD
ENDROOT
BRANCH   3  15
ATOM     11  C   UNL     1      37.981  33.168  49.423  0.00  0.00    +0.000 A 
ATOM     12  C   UNL     1      39.021  33.165  48.461  0.00  0.00    +0.000 A 
ATOM     13  C   UNL     1      39.014  32.125  47.542  0.00  0.00    +0.000 A 
ATOM     14  N   UNL     1      38.030  31.170  47.601  0.00  0.00    +0.000 NA
ATOM     15  C   UNL     1      37.048  31.223  48.555  0.00  0.00    +0.000 A 
ATOM     16  N   UNL     1      37.038  32.221  49.452  0.00  0.00    +0.000 NA
ATOM     17  H   UNL     1      37.903  33.940  50.181  0.00  0.00    +0.000 HD
ATOM     18  H   UNL     1      39.756  33.942  48.472  0.00  0.00    +0.000 HD
ATOM     19  H   UNL     1      39.787  32.075  46.784  0.00  0.00    +0.000 HD
ENDBRANCH   3  15
BRANCH   5  20
ATOM     20  C   UNL     1      32.988  29.130  46.652  0.00  0.00    +0.000 A 
ATOM     21  C   UNL     1      33.294  29.826  45.477  0.00  0.00    +0.000 A 
ATOM     22  H   UNL     1      34.212  30.361  45.354  0.00  0.00    +0.000 HD
ATOM     23  C   UNL     1      32.418  29.856  44.411  0.00  0.00    +0.000 A 
ATOM     24  C   UNL     1      31.213  29.193  44.486  0.00  0.00    +0.000 A 
ATOM     25  H   UNL     1      30.538  29.234  43.623  0.00  0.00    +0.000 HD
ATOM     26  C   UNL     1      30.903  28.499  45.653  0.00  0.00    +0.000 A 
ATOM     27  H   UNL     1      29.974  27.984  45.718  0.00  0.00    +0.000 HD
ATOM     28  C   UNL     1      31.782  28.467  46.726  0.00  0.00    +0.000 A 
ENDBRANCH   5  20
TORSDOF 2
