
 OpenBabel03272505173D

 42 45  0  0  1  0  0  0  0  0999 V2000
   37.9410   31.5520   43.2420 N   0  0  0  0  0  0  0  0  0  0  0  0
   38.2600   32.9790   43.2050 C   0  0  0  0  0  0  0  0  0  0  0  0
   39.1460   33.2000   42.0000 C   0  0  0  0  0  0  0  0  0  0  0  0
   38.4670   32.6330   40.8750 N   0  0  0  0  0  0  0  0  0  0  0  0
   38.3390   31.2200   40.9270 C   0  0  0  0  0  0  0  0  0  0  0  0
   38.6840   30.7260   42.3390 C   0  0  2  0  0  0  0  0  0  0  0  0
   38.6790   33.3350   44.1490 H   0  0  0  0  0  0  0  0  0  0  0  0
   37.2970   33.5100   42.9900 H   0  0  0  0  0  0  0  0  0  0  0  0
   40.1900   32.9170   42.1360 H   0  0  0  0  0  0  0  0  0  0  0  0
   39.1500   34.3230   41.8450 H   0  0  0  0  0  0  0  0  0  0  0  0
   38.7360   33.0480   39.9720 H   0  0  0  0  0  0  0  0  0  0  0  0
   39.0160   30.7120   40.1920 H   0  0  0  0  0  0  0  0  0  0  0  0
   37.3020   30.9550   40.6350 H   0  0  0  0  0  0  0  0  0  0  0  0
   39.7650   30.9730   42.4630 H   0  0  0  0  0  0  0  0  0  0  0  0
   38.5700   31.8020   46.1170 Cl  0  0  0  0  0  0  0  0  0  0  0  0
   37.1590   30.9890   45.4960 C   0  0  0  0  0  0  0  0  0  0  0  0
   36.2850   30.4300   46.3630 C   0  0  0  0  0  0  0  0  0  0  0  0
   35.1710   29.8310   45.7810 C   0  0  0  0  0  0  0  0  0  0  0  0
   34.9250   29.7790   44.4420 C   0  0  0  0  0  0  0  0  0  0  0  0
   35.8460   30.3620   43.6040 C   0  0  0  0  0  0  0  0  0  0  0  0
   36.9730   30.9720   44.1150 C   0  0  0  0  0  0  0  0  0  0  0  0
   34.4380   29.3670   46.4510 H   0  0  0  0  0  0  0  0  0  0  0  0
   34.0250   29.2890   44.0720 H   0  0  0  0  0  0  0  0  0  0  0  0
   35.6960   30.3470   42.5340 H   0  0  0  0  0  0  0  0  0  0  0  0
   38.0050   30.3500   49.7050 C   0  0  0  0  0  0  0  0  0  0  0  0
   37.8020   30.2850   48.3180 C   0  0  0  0  0  0  0  0  0  0  0  0
   36.5220   30.4770   47.7830 C   0  0  0  0  0  0  0  0  0  0  0  0
   35.5100   30.7220   48.6710 N   0  0  0  0  0  0  0  0  0  0  0  0
   35.7150   30.7810   49.9990 C   0  0  0  0  0  0  0  0  0  0  0  0
   36.9540   30.5970   50.5180 N   0  0  0  0  0  0  0  0  0  0  0  0
   38.9340   30.2210   50.2090 H   0  0  0  0  0  0  0  0  0  0  0  0
   38.7250   30.0500   47.8290 H   0  0  0  0  0  0  0  0  0  0  0  0
   34.7930   30.9820   50.5220 H   0  0  0  0  0  0  0  0  0  0  0  0
   38.5510   29.2880   42.4600 C   0  0  0  0  0  0  0  0  0  0  0  0
   37.7560   28.5690   41.5490 C   0  0  0  0  0  0  0  0  0  0  0  0
   37.2700   29.1440   40.7420 H   0  0  0  0  0  0  0  0  0  0  0  0
   37.5080   27.2250   41.5420 C   0  0  0  0  0  0  0  0  0  0  0  0
   38.0950   26.4640   42.5320 C   0  0  0  0  0  0  0  0  0  0  0  0
   37.9180   25.4180   42.5490 H   0  0  0  0  0  0  0  0  0  0  0  0
   38.8960   27.0690   43.4780 C   0  0  0  0  0  0  0  0  0  0  0  0
   39.3520   26.4790   44.2470 H   0  0  0  0  0  0  0  0  0  0  0  0
   39.0810   28.4300   43.3960 C   0  0  0  0  0  0  0  0  0  0  0  0
  1 21  1  0  0  0  0
  2  1  1  0  0  0  0
  2  7  1  0  0  0  0
  3  9  1  0  0  0  0
  3  2  1  0  0  0  0
  4  5  1  0  0  0  0
  4  3  1  0  0  0  0
  5  6  1  0  0  0  0
  6 34  1  0  0  0  0
  6 14  1  1  0  0  0
  6  1  1  0  0  0  0
  8  2  1  0  0  0  0
 10  3  1  0  0  0  0
 11  4  1  0  0  0  0
 12  5  1  0  0  0  0
 13  5  1  0  0  0  0
 16 15  1  0  0  0  0
 16 17  1  0  0  0  0
 17 27  1  0  0  0  0
 18 17  2  0  0  0  0
 18 22  1  0  0  0  0
 19 18  1  0  0  0  0
 20 21  1  0  0  0  0
 20 19  2  0  0  0  0
 21 16  2  0  0  0  0
 23 19  1  0  0  0  0
 24 20  1  0  0  0  0
 25 31  1  0  0  0  0
 25 30  1  0  0  0  0
 26 25  2  0  0  0  0
 27 26  1  0  0  0  0
 27 28  2  0  0  0  0
 28 29  1  0  0  0  0
 29 30  2  0  0  0  0
 29 33  1  0  0  0  0
 32 26  1  0  0  0  0
 34 42  1  0  0  0  0
 35 34  2  0  0  0  0
 36 35  1  0  0  0  0
 37 35  1  0  0  0  0
 37 38  2  0  0  0  0
 38 39  1  0  0  0  0
 38 40  1  0  0  0  0
 40 41  1  0  0  0  0
 42 40  2  0  0  0  0
M  END
>  <minimizedAffinity>
-4.8519702

>  <minimizedRMSD>
1.97311151

$$$$
