
 OpenBabel03272507453D

 33 35  0  0  0  0  0  0  0  0999 V2000
   37.9440   26.8560   32.9390 N   0  0  0  0  0  0  0  0  0  0  0  0
   37.7280   25.4580   32.6720 C   0  0  0  0  0  0  0  0  0  0  0  0
   38.1230   24.4890   33.7090 C   0  0  0  0  0  0  0  0  0  0  0  0
   39.2190   24.8620   34.6190 C   0  0  0  0  0  0  0  0  0  0  0  0
   39.4350   26.3470   34.7730 C   0  0  0  0  0  0  0  0  0  0  0  0
   39.3010   27.0100   33.4130 C   0  0  0  0  0  0  0  0  0  0  0  0
   36.6300   25.3470   32.4550 H   0  0  0  0  0  0  0  0  0  0  0  0
   38.2390   25.2250   31.7100 H   0  0  0  0  0  0  0  0  0  0  0  0
   37.2160   24.2490   34.3370 H   0  0  0  0  0  0  0  0  0  0  0  0
   38.3650   23.5250   33.2090 H   0  0  0  0  0  0  0  0  0  0  0  0
   40.2050   24.4610   34.2430 H   0  0  0  0  0  0  0  0  0  0  0  0
   40.4820   26.5280   35.1050 H   0  0  0  0  0  0  0  0  0  0  0  0
   38.7760   26.8000   35.5250 H   0  0  0  0  0  0  0  0  0  0  0  0
   39.5890   28.0820   33.5410 H   0  0  0  0  0  0  0  0  0  0  0  0
   40.0500   26.5680   32.7390 H   0  0  0  0  0  0  0  0  0  0  0  0
   36.9960   27.9040   32.7670 C   0  0  0  0  0  0  0  0  0  0  0  0
   36.2190   28.4450   33.7900 C   0  0  0  0  0  0  0  0  0  0  0  0
   35.3310   29.4750   33.4480 C   0  0  0  0  0  0  0  0  0  0  0  0
   35.2800   29.8820   32.1510 N   0  0  0  0  0  0  0  0  0  0  0  0
   36.0450   29.3330   31.2050 C   0  0  0  0  0  0  0  0  0  0  0  0
   36.9040   28.3470   31.5000 N   0  0  0  0  0  0  0  0  0  0  0  0
   36.3830   28.0080   34.7570 H   0  0  0  0  0  0  0  0  0  0  0  0
   34.7610   29.8510   34.2690 H   0  0  0  0  0  0  0  0  0  0  0  0
   35.9050   29.7510   30.2180 H   0  0  0  0  0  0  0  0  0  0  0  0
   39.0820   24.3160   35.9950 C   0  0  0  0  0  0  0  0  0  0  0  0
   39.9310   23.3220   36.4630 C   0  0  0  0  0  0  0  0  0  0  0  0
   40.7170   22.9280   35.8150 H   0  0  0  0  0  0  0  0  0  0  0  0
   39.7750   22.8340   37.7570 C   0  0  0  0  0  3  0  0  0  0  0  0
   38.7820   23.3290   38.5840 C   0  0  0  0  0  0  0  0  0  0  0  0
   38.6880   22.9210   39.5950 H   0  0  0  0  0  0  0  0  0  0  0  0
   37.9090   24.3310   38.1450 C   0  0  0  0  0  0  0  0  0  0  0  0
   37.1300   24.7250   38.7790 H   0  0  0  0  0  0  0  0  0  0  0  0
   38.1050   24.7830   36.8500 C   0  0  0  0  0  3  0  0  0  0  0  0
  1  6  1  0  0  0  0
  2  1  1  0  0  0  0
  2  3  1  0  0  0  0
  3  9  1  0  0  0  0
  3  4  1  0  0  0  0
  4  5  1  0  0  0  0
  4 25  1  0  0  0  0
  5 12  1  0  0  0  0
  5 13  1  0  0  0  0
  6 14  1  0  0  0  0
  6  5  1  0  0  0  0
  7  2  1  0  0  0  0
  8  2  1  0  0  0  0
 10  3  1  0  0  0  0
 11  4  1  0  0  0  0
 15  6  1  0  0  0  0
 16  1  1  0  0  0  0
 16 17  1  0  0  0  0
 17 22  1  0  0  0  0
 18 17  2  0  0  0  0
 18 23  1  0  0  0  0
 19 18  1  0  0  0  0
 20 21  1  0  0  0  0
 20 19  2  0  0  0  0
 21 16  2  0  0  0  0
 24 20  1  0  0  0  0
 25 26  2  0  0  0  0
 25 33  1  0  0  0  0
 26 28  1  0  0  0  0
 27 26  1  0  0  0  0
 28 29  2  0  0  0  0
 29 30  1  0  0  0  0
 31 29  1  0  0  0  0
 31 32  1  0  0  0  0
 33 31  2  0  0  0  0
M  END
>  <minimizedAffinity>
-5.31096077

$$$$

 OpenBabel03272507453D

 33 35  0  0  0  0  0  0  0  0999 V2000
   39.0570   24.8350   34.8080 N   0  0  0  0  0  0  0  0  0  0  0  0
   39.9530   25.8760   34.3760 C   0  0  0  0  0  0  0  0  0  0  0  0
   39.3970   26.9690   33.5600 C   0  0  0  0  0  0  0  0  0  0  0  0
   38.2170   26.6780   32.7290 C   0  0  0  0  0  0  0  0  0  0  0  0
   37.3810   25.5150   33.2030 C   0  0  0  0  0  0  0  0  0  0  0  0
   38.3030   24.3960   33.6560 C   0  0  0  0  0  0  0  0  0  0  0  0
   40.4120   26.3020   35.3110 H   0  0  0  0  0  0  0  0  0  0  0  0
   40.7950   25.3820   33.8400 H   0  0  0  0  0  0  0  0  0  0  0  0
   39.1360   27.8290   34.2450 H   0  0  0  0  0  0  0  0  0  0  0  0
   40.2130   27.3750   32.9220 H   0  0  0  0  0  0  0  0  0  0  0  0
   38.5260   26.4060   31.6780 H   0  0  0  0  0  0  0  0  0  0  0  0
   36.8020   25.1110   32.3430 H   0  0  0  0  0  0  0  0  0  0  0  0
   36.6560   25.7970   33.9770 H   0  0  0  0  0  0  0  0  0  0  0  0
   37.6590   23.5110   33.8800 H   0  0  0  0  0  0  0  0  0  0  0  0
   38.9380   24.1060   32.8050 H   0  0  0  0  0  0  0  0  0  0  0  0
   38.9320   24.3250   36.1320 C   0  0  0  0  0  0  0  0  0  0  0  0
   37.9720   24.7390   37.0530 C   0  0  0  0  0  0  0  0  0  0  0  0
   37.9900   24.1330   38.3170 C   0  0  0  0  0  0  0  0  0  0  0  0
   38.9330   23.1850   38.5680 N   0  0  0  0  0  0  0  0  0  0  0  0
   39.8340   22.8210   37.6520 C   0  0  0  0  0  0  0  0  0  0  0  0
   39.8430   23.3820   36.4350 N   0  0  0  0  0  0  0  0  0  0  0  0
   37.3020   25.4970   36.6930 H   0  0  0  0  0  0  0  0  0  0  0  0
   37.2340   24.4870   38.9820 H   0  0  0  0  0  0  0  0  0  0  0  0
   40.5240   22.0580   37.9820 H   0  0  0  0  0  0  0  0  0  0  0  0
   37.2840   27.8240   32.5700 C   0  0  0  0  0  0  0  0  0  0  0  0
   37.2100   28.5330   31.3780 C   0  0  0  0  0  0  0  0  0  0  0  0
   37.8460   28.2490   30.5360 H   0  0  0  0  0  0  0  0  0  0  0  0
   36.3240   29.6000   31.2630 C   0  0  0  0  0  3  0  0  0  0  0  0
   35.5160   29.9640   32.3260 C   0  0  0  0  0  0  0  0  0  0  0  0
   34.8320   30.8100   32.2000 H   0  0  0  0  0  0  0  0  0  0  0  0
   35.5650   29.2730   33.5420 C   0  0  0  0  0  0  0  0  0  0  0  0
   34.9400   29.5470   34.3770 H   0  0  0  0  0  0  0  0  0  0  0  0
   36.4610   28.2180   33.6050 C   0  0  0  0  0  3  0  0  0  0  0  0
  1 16  1  0  0  0  0
  2  1  1  0  0  0  0
  2  7  1  0  0  0  0
  3  9  1  0  0  0  0
  3  2  1  0  0  0  0
  4  5  1  0  0  0  0
  4  3  1  0  0  0  0
  5  6  1  0  0  0  0
  5 13  1  0  0  0  0
  6 14  1  0  0  0  0
  6  1  1  0  0  0  0
  8  2  1  0  0  0  0
 10  3  1  0  0  0  0
 11  4  1  0  0  0  0
 12  5  1  0  0  0  0
 15  6  1  0  0  0  0
 16 21  2  0  0  0  0
 16 17  1  0  0  0  0
 17 18  2  0  0  0  0
 18 19  1  0  0  0  0
 18 23  1  0  0  0  0
 20 24  1  0  0  0  0
 20 19  2  0  0  0  0
 21 20  1  0  0  0  0
 22 17  1  0  0  0  0
 25  4  1  0  0  0  0
 25 33  1  0  0  0  0
 26 25  2  0  0  0  0
 27 26  1  0  0  0  0
 28 26  1  0  0  0  0
 28 29  2  0  0  0  0
 29 31  1  0  0  0  0
 30 29  1  0  0  0  0
 31 33  2  0  0  0  0
 31 32  1  0  0  0  0
M  END
>  <minimizedAffinity>
-5.22719145

$$$$

 OpenBabel03272507453D

 33 35  0  0  0  0  0  0  0  0999 V2000
   37.5520   25.2950   32.3890 N   0  0  0  0  0  0  0  0  0  0  0  0
   36.2210   25.2070   31.8480 C   0  0  0  0  0  0  0  0  0  0  0  0
   35.6900   23.8690   31.5380 C   0  0  0  0  0  0  0  0  0  0  0  0
   36.6520   22.8080   31.1950 C   0  0  0  0  0  0  0  0  0  0  0  0
   38.0470   23.0230   31.7270 C   0  0  0  0  0  0  0  0  0  0  0  0
   38.4190   24.4860   31.5620 C   0  0  0  0  0  0  0  0  0  0  0  0
   35.5470   25.7140   32.5920 H   0  0  0  0  0  0  0  0  0  0  0  0
   36.1920   25.8540   30.9430 H   0  0  0  0  0  0  0  0  0  0  0  0
   35.0810   23.5130   32.4210 H   0  0  0  0  0  0  0  0  0  0  0  0
   34.9410   23.9730   30.7220 H   0  0  0  0  0  0  0  0  0  0  0  0
   36.7760   22.7280   30.0760 H   0  0  0  0  0  0  0  0  0  0  0  0
   38.7660   22.4480   31.1020 H   0  0  0  0  0  0  0  0  0  0  0  0
   38.1690   22.6750   32.7610 H   0  0  0  0  0  0  0  0  0  0  0  0
   39.4940   24.5860   31.8480 H   0  0  0  0  0  0  0  0  0  0  0  0
   38.3590   24.7390   30.4930 H   0  0  0  0  0  0  0  0  0  0  0  0
   37.9500   26.0440   33.5330 C   0  0  0  0  0  0  0  0  0  0  0  0
   37.1170   26.9030   34.2470 C   0  0  0  0  0  0  0  0  0  0  0  0
   37.6700   27.5660   35.3510 C   0  0  0  0  0  0  0  0  0  0  0  0
   38.9750   27.3350   35.6590 N   0  0  0  0  0  0  0  0  0  0  0  0
   39.7350   26.5030   34.9440 C   0  0  0  0  0  0  0  0  0  0  0  0
   39.2350   25.8540   33.8830 N   0  0  0  0  0  0  0  0  0  0  0  0
   36.1130   26.9710   33.8700 H   0  0  0  0  0  0  0  0  0  0  0  0
   36.9880   28.2100   35.8610 H   0  0  0  0  0  0  0  0  0  0  0  0
   40.7530   26.4110   35.2970 H   0  0  0  0  0  0  0  0  0  0  0  0
   36.2430   21.4480   31.6340 C   0  0  0  0  0  0  0  0  0  0  0  0
   35.7620   21.2180   32.9170 C   0  0  0  0  0  0  0  0  0  0  0  0
   35.6800   22.0480   33.6230 H   0  0  0  0  0  0  0  0  0  0  0  0
   35.3880   19.9320   33.2940 C   0  0  0  0  0  3  0  0  0  0  0  0
   35.4900   18.8770   32.4030 C   0  0  0  0  0  0  0  0  0  0  0  0
   35.1870   17.8790   32.7350 H   0  0  0  0  0  0  0  0  0  0  0  0
   35.9710   19.0720   31.1040 C   0  0  0  0  0  0  0  0  0  0  0  0
   36.0550   18.2590   30.4010 H   0  0  0  0  0  0  0  0  0  0  0  0
   36.3290   20.3700   30.7770 C   0  0  0  0  0  3  0  0  0  0  0  0
  1 16  1  0  0  0  0
  2  1  1  0  0  0  0
  2  7  1  0  0  0  0
  3  2  1  0  0  0  0
  3  9  1  0  0  0  0
  4  3  1  0  0  0  0
  4 25  1  0  0  0  0
  4  5  1  0  0  0  0
  5 13  1  0  0  0  0
  6  5  1  0  0  0  0
  6 14  1  0  0  0  0
  6  1  1  0  0  0  0
  8  2  1  0  0  0  0
 10  3  1  0  0  0  0
 11  4  1  0  0  0  0
 12  5  1  0  0  0  0
 15  6  1  0  0  0  0
 16 21  2  0  0  0  0
 16 17  1  0  0  0  0
 17 18  2  0  0  0  0
 18 19  1  0  0  0  0
 18 23  1  0  0  0  0
 20 24  1  0  0  0  0
 20 19  2  0  0  0  0
 21 20  1  0  0  0  0
 22 17  1  0  0  0  0
 25 26  1  0  0  0  0
 26 28  2  0  0  0  0
 26 27  1  0  0  0  0
 29 30  1  0  0  0  0
 29 28  1  0  0  0  0
 31 29  2  0  0  0  0
 32 31  1  0  0  0  0
 33 31  1  0  0  0  0
 33 25  2  0  0  0  0
M  END
>  <minimizedAffinity>
-5.15695095

$$$$

 OpenBabel03272507453D

 33 35  0  0  0  0  0  0  0  0999 V2000
   36.8070   23.0550   31.0290 N   0  0  0  0  0  0  0  0  0  0  0  0
   38.1990   23.3760   30.8460 C   0  0  0  0  0  0  0  0  0  0  0  0
   38.7530   24.5030   31.6150 C   0  0  0  0  0  0  0  0  0  0  0  0
   37.8360   25.5840   32.0120 C   0  0  0  0  0  0  0  0  0  0  0  0
   36.3840   25.1830   32.0940 C   0  0  0  0  0  0  0  0  0  0  0  0
   36.0520   24.2820   30.9170 C   0  0  0  0  0  0  0  0  0  0  0  0
   38.7710   22.4380   31.0900 H   0  0  0  0  0  0  0  0  0  0  0  0
   38.3570   23.5360   29.7550 H   0  0  0  0  0  0  0  0  0  0  0  0
   39.2330   24.0940   32.5520 H   0  0  0  0  0  0  0  0  0  0  0  0
   39.6060   24.9280   31.0420 H   0  0  0  0  0  0  0  0  0  0  0  0
   37.8640   26.4270   31.2610 H   0  0  0  0  0  0  0  0  0  0  0  0
   35.7510   26.0910   31.9760 H   0  0  0  0  0  0  0  0  0  0  0  0
   36.1190   24.7280   33.0560 H   0  0  0  0  0  0  0  0  0  0  0  0
   34.9490   24.1070   30.9380 H   0  0  0  0  0  0  0  0  0  0  0  0
   36.2590   24.8360   29.9880 H   0  0  0  0  0  0  0  0  0  0  0  0
   36.2650   21.7610   31.2760 C   0  0  0  0  0  0  0  0  0  0  0  0
   35.1840   21.5020   32.1160 C   0  0  0  0  0  0  0  0  0  0  0  0
   34.7770   20.1670   32.2480 C   0  0  0  0  0  0  0  0  0  0  0  0
   35.4540   19.2110   31.5560 N   0  0  0  0  0  0  0  0  0  0  0  0
   36.4860   19.5080   30.7630 C   0  0  0  0  0  0  0  0  0  0  0  0
   36.8990   20.7750   30.6150 N   0  0  0  0  0  0  0  0  0  0  0  0
   34.7630   22.3710   32.5860 H   0  0  0  0  0  0  0  0  0  0  0  0
   33.9450   20.0270   32.9030 H   0  0  0  0  0  0  0  0  0  0  0  0
   36.9330   18.6550   30.2720 H   0  0  0  0  0  0  0  0  0  0  0  0
   38.1670   26.2190   33.3140 C   0  0  0  0  0  0  0  0  0  0  0  0
   37.2020   26.8860   34.0580 C   0  0  0  0  0  0  0  0  0  0  0  0
   36.1760   26.9490   33.6850 H   0  0  0  0  0  0  0  0  0  0  0  0
   37.5470   27.4680   35.2730 C   0  0  0  0  0  3  0  0  0  0  0  0
   38.8440   27.3900   35.7510 C   0  0  0  0  0  0  0  0  0  0  0  0
   39.0780   27.8610   36.7110 H   0  0  0  0  0  0  0  0  0  0  0  0
   39.8410   26.7260   35.0280 C   0  0  0  0  0  0  0  0  0  0  0  0
   40.8550   26.6590   35.3900 H   0  0  0  0  0  0  0  0  0  0  0  0
   39.4470   26.1630   33.8250 C   0  0  0  0  0  3  0  0  0  0  0  0
  1 16  1  0  0  0  0
  2  1  1  0  0  0  0
  2  7  1  0  0  0  0
  2  3  1  0  0  0  0
  3  4  1  0  0  0  0
  3  9  1  0  0  0  0
  4  5  1  0  0  0  0
  4 25  1  0  0  0  0
  5 13  1  0  0  0  0
  6 14  1  0  0  0  0
  6  1  1  0  0  0  0
  6  5  1  0  0  0  0
  8  2  1  0  0  0  0
 10  3  1  0  0  0  0
 11  4  1  0  0  0  0
 12  5  1  0  0  0  0
 15  6  1  0  0  0  0
 16 17  1  0  0  0  0
 17 18  2  0  0  0  0
 17 22  1  0  0  0  0
 18 23  1  0  0  0  0
 19 18  1  0  0  0  0
 20 19  2  0  0  0  0
 21 20  1  0  0  0  0
 21 16  2  0  0  0  0
 24 20  1  0  0  0  0
 25 33  2  0  0  0  0
 25 26  1  0  0  0  0
 26 28  2  0  0  0  0
 27 26  1  0  0  0  0
 28 29  1  0  0  0  0
 29 30  1  0  0  0  0
 31 32  1  0  0  0  0
 31 29  2  0  0  0  0
 33 31  1  0  0  0  0
M  END
>  <minimizedAffinity>
-5.0286622

$$$$

 OpenBabel03272507453D

 33 35  0  0  0  0  0  0  0  0999 V2000
   39.2640   24.5590   34.5550 N   0  0  0  0  0  0  0  0  0  0  0  0
   40.1500   25.5690   34.0380 C   0  0  0  0  0  0  0  0  0  0  0  0
   39.5530   26.7100   33.3240 C   0  0  0  0  0  0  0  0  0  0  0  0
   38.2650   26.4980   32.6400 C   0  0  0  0  0  0  0  0  0  0  0  0
   37.4390   25.3620   33.1880 C   0  0  0  0  0  0  0  0  0  0  0  0
   38.3520   24.1880   33.4960 C   0  0  0  0  0  0  0  0  0  0  0  0
   40.7420   25.9470   34.9180 H   0  0  0  0  0  0  0  0  0  0  0  0
   40.8940   25.0530   33.3890 H   0  0  0  0  0  0  0  0  0  0  0  0
   39.4210   27.5600   34.0550 H   0  0  0  0  0  0  0  0  0  0  0  0
   40.3020   27.0960   32.5980 H   0  0  0  0  0  0  0  0  0  0  0  0
   38.4280   26.2430   31.5530 H   0  0  0  0  0  0  0  0  0  0  0  0
   36.7380   25.0100   32.3980 H   0  0  0  0  0  0  0  0  0  0  0  0
   36.8290   25.6540   34.0530 H   0  0  0  0  0  0  0  0  0  0  0  0
   37.6980   23.3280   33.7790 H   0  0  0  0  0  0  0  0  0  0  0  0
   38.8620   23.8950   32.5660 H   0  0  0  0  0  0  0  0  0  0  0  0
   39.2790   24.0170   35.8710 C   0  0  0  0  0  0  0  0  0  0  0  0
   40.2530   23.1480   36.3590 C   0  0  0  0  0  0  0  0  0  0  0  0
   40.1170   22.7060   37.6830 C   0  0  0  0  0  0  0  0  0  0  0  0
   39.0530   23.1470   38.4070 N   0  0  0  0  0  0  0  0  0  0  0  0
   38.1440   23.9800   37.8950 C   0  0  0  0  0  0  0  0  0  0  0  0
   38.2470   24.4200   36.6340 N   0  0  0  0  0  0  0  0  0  0  0  0
   41.0260   22.8990   35.6560 H   0  0  0  0  0  0  0  0  0  0  0  0
   40.8900   22.0430   38.0040 H   0  0  0  0  0  0  0  0  0  0  0  0
   37.3510   24.2510   38.5780 H   0  0  0  0  0  0  0  0  0  0  0  0
   37.3780   27.6900   32.6260 C   0  0  0  0  0  0  0  0  0  0  0  0
   36.6030   28.0260   33.7290 C   0  0  0  0  0  0  0  0  0  0  0  0
   36.6410   27.4070   34.6280 H   0  0  0  0  0  0  0  0  0  0  0  0
   35.7850   29.1500   33.6800 C   0  0  0  0  0  3  0  0  0  0  0  0
   35.7330   29.9390   32.5440 C   0  0  0  0  0  0  0  0  0  0  0  0
   35.0760   30.8140   32.5420 H   0  0  0  0  0  0  0  0  0  0  0  0
   36.5000   29.6290   31.4140 C   0  0  0  0  0  0  0  0  0  0  0  0
   36.4680   30.2350   30.5230 H   0  0  0  0  0  0  0  0  0  0  0  0
   37.2990   28.5020   31.5130 C   0  0  0  0  0  3  0  0  0  0  0  0
  1 16  1  0  0  0  0
  2  1  1  0  0  0  0
  2  7  1  0  0  0  0
  3  2  1  0  0  0  0
  3  9  1  0  0  0  0
  4  5  1  0  0  0  0
  4  3  1  0  0  0  0
  5  6  1  0  0  0  0
  5 13  1  0  0  0  0
  6 14  1  0  0  0  0
  6  1  1  0  0  0  0
  8  2  1  0  0  0  0
 10  3  1  0  0  0  0
 11  4  1  0  0  0  0
 12  5  1  0  0  0  0
 15  6  1  0  0  0  0
 16 17  2  0  0  0  0
 16 21  1  0  0  0  0
 17 18  1  0  0  0  0
 18 23  1  0  0  0  0
 18 19  2  0  0  0  0
 20 19  1  0  0  0  0
 20 24  1  0  0  0  0
 21 20  2  0  0  0  0
 22 17  1  0  0  0  0
 25  4  1  0  0  0  0
 25 26  1  0  0  0  0
 26 27  1  0  0  0  0
 28 26  2  0  0  0  0
 29 28  1  0  0  0  0
 30 29  1  0  0  0  0
 31 33  1  0  0  0  0
 31 29  2  0  0  0  0
 32 31  1  0  0  0  0
 33 25  2  0  0  0  0
M  END
>  <minimizedAffinity>
-5.02143717

$$$$

 OpenBabel03272507453D

 33 35  0  0  0  0  0  0  0  0999 V2000
   38.0040   26.8250   33.0460 N   0  0  0  0  0  0  0  0  0  0  0  0
   37.8730   27.4230   34.3490 C   0  0  0  0  0  0  0  0  0  0  0  0
   38.1070   26.5690   35.5260 C   0  0  0  0  0  0  0  0  0  0  0  0
   37.8460   25.1260   35.3940 C   0  0  0  0  0  0  0  0  0  0  0  0
   37.9160   24.5980   33.9830 C   0  0  0  0  0  0  0  0  0  0  0  0
   37.2490   25.5920   33.0490 C   0  0  0  0  0  0  0  0  0  0  0  0
   38.5890   28.2910   34.3680 H   0  0  0  0  0  0  0  0  0  0  0  0
   36.8600   27.8820   34.3990 H   0  0  0  0  0  0  0  0  0  0  0  0
   39.1800   26.6990   35.8540 H   0  0  0  0  0  0  0  0  0  0  0  0
   37.5180   26.9790   36.3750 H   0  0  0  0  0  0  0  0  0  0  0  0
   36.8050   24.8750   35.7490 H   0  0  0  0  0  0  0  0  0  0  0  0
   37.3180   23.6610   33.9170 H   0  0  0  0  0  0  0  0  0  0  0  0
   38.9380   24.3510   33.6690 H   0  0  0  0  0  0  0  0  0  0  0  0
   37.2070   25.1160   32.0390 H   0  0  0  0  0  0  0  0  0  0  0  0
   36.2050   25.7230   33.3720 H   0  0  0  0  0  0  0  0  0  0  0  0
   38.7430   27.3490   31.9470 C   0  0  0  0  0  0  0  0  0  0  0  0
   38.1850   28.0500   30.8800 C   0  0  0  0  0  0  0  0  0  0  0  0
   39.0570   28.4980   29.8780 C   0  0  0  0  0  0  0  0  0  0  0  0
   40.3840   28.2250   30.0040 N   0  0  0  0  0  0  0  0  0  0  0  0
   40.8720   27.5470   31.0460 C   0  0  0  0  0  0  0  0  0  0  0  0
   40.0640   27.1070   32.0200 N   0  0  0  0  0  0  0  0  0  0  0  0
   37.1200   28.1800   30.9360 H   0  0  0  0  0  0  0  0  0  0  0  0
   38.5760   29.0290   29.0860 H   0  0  0  0  0  0  0  0  0  0  0  0
   41.9430   27.4000   31.0210 H   0  0  0  0  0  0  0  0  0  0  0  0
   38.7460   24.2660   36.2060 C   0  0  0  0  0  0  0  0  0  0  0  0
   38.4000   23.8740   37.4930 C   0  0  0  0  0  0  0  0  0  0  0  0
   37.4510   24.2000   37.9250 H   0  0  0  0  0  0  0  0  0  0  0  0
   39.2660   23.0670   38.2250 C   0  0  0  0  0  3  0  0  0  0  0  0
   40.4710   22.6510   37.6850 C   0  0  0  0  0  0  0  0  0  0  0  0
   41.1270   22.0170   38.2900 H   0  0  0  0  0  0  0  0  0  0  0  0
   40.8510   23.0270   36.3910 C   0  0  0  0  0  0  0  0  0  0  0  0
   41.7860   22.7090   35.9590 H   0  0  0  0  0  0  0  0  0  0  0  0
   39.9540   23.8290   35.7040 C   0  0  0  0  0  3  0  0  0  0  0  0
  1  6  1  0  0  0  0
  1  2  1  0  0  0  0
  2  7  1  0  0  0  0
  2  8  1  0  0  0  0
  2  3  1  0  0  0  0
  3  9  1  0  0  0  0
  3 10  1  0  0  0  0
  4  3  1  0  0  0  0
  4 11  1  0  0  0  0
  4 25  1  0  0  0  0
  5  4  1  0  0  0  0
  6 15  1  0  0  0  0
  6  5  1  0  0  0  0
 12  5  1  0  0  0  0
 13  5  1  0  0  0  0
 14  6  1  0  0  0  0
 16 21  1  0  0  0  0
 16  1  1  0  0  0  0
 17 22  1  0  0  0  0
 17 16  2  0  0  0  0
 18 19  2  0  0  0  0
 18 17  1  0  0  0  0
 19 20  1  0  0  0  0
 20 21  2  0  0  0  0
 23 18  1  0  0  0  0
 24 20  1  0  0  0  0
 25 26  1  0  0  0  0
 26 27  1  0  0  0  0
 26 28  2  0  0  0  0
 29 28  1  0  0  0  0
 29 30  1  0  0  0  0
 31 29  2  0  0  0  0
 32 31  1  0  0  0  0
 33 25  2  0  0  0  0
 33 31  1  0  0  0  0
M  END
>  <minimizedAffinity>
-4.69328451

$$$$

 OpenBabel03272507453D

 33 35  0  0  0  0  0  0  0  0999 V2000
   38.1000   24.8750   34.9750 N   0  0  0  0  0  0  0  0  0  0  0  0
   38.0930   24.2810   33.6630 C   0  0  0  0  0  0  0  0  0  0  0  0
   38.7130   25.0350   32.5610 C   0  0  0  0  0  0  0  0  0  0  0  0
   38.7370   26.5050   32.6590 C   0  0  0  0  0  0  0  0  0  0  0  0
   38.6510   27.0460   34.0640 C   0  0  0  0  0  0  0  0  0  0  0  0
   37.6300   26.2360   34.8450 C   0  0  0  0  0  0  0  0  0  0  0  0
   38.6040   23.2840   33.7690 H   0  0  0  0  0  0  0  0  0  0  0  0
   37.0340   24.0390   33.4190 H   0  0  0  0  0  0  0  0  0  0  0  0
   39.7780   24.6790   32.4400 H   0  0  0  0  0  0  0  0  0  0  0  0
   38.2200   24.7320   31.6120 H   0  0  0  0  0  0  0  0  0  0  0  0
   37.8540   26.9550   32.1180 H   0  0  0  0  0  0  0  0  0  0  0  0
   38.2570   28.0870   34.0280 H   0  0  0  0  0  0  0  0  0  0  0  0
   39.6250   27.0870   34.5680 H   0  0  0  0  0  0  0  0  0  0  0  0
   37.5000   26.7380   35.8350 H   0  0  0  0  0  0  0  0  0  0  0  0
   36.6600   26.3140   34.3300 H   0  0  0  0  0  0  0  0  0  0  0  0
   38.4960   24.2410   36.1870 C   0  0  0  0  0  0  0  0  0  0  0  0
   39.5630   23.3520   36.3030 C   0  0  0  0  0  0  0  0  0  0  0  0
   39.8180   22.8150   37.5730 C   0  0  0  0  0  0  0  0  0  0  0  0
   39.0180   23.1900   38.6070 N   0  0  0  0  0  0  0  0  0  0  0  0
   38.0050   24.0460   38.4460 C   0  0  0  0  0  0  0  0  0  0  0  0
   37.7370   24.5760   37.2450 N   0  0  0  0  0  0  0  0  0  0  0  0
   40.0930   23.1640   35.3880 H   0  0  0  0  0  0  0  0  0  0  0  0
   40.6450   22.1410   37.6040 H   0  0  0  0  0  0  0  0  0  0  0  0
   37.4510   24.2570   39.3500 H   0  0  0  0  0  0  0  0  0  0  0  0
   39.9300   27.1390   32.0410 C   0  0  0  0  0  0  0  0  0  0  0  0
   39.9080   27.5870   30.7260 C   0  0  0  0  0  0  0  0  0  0  0  0
   39.0010   27.4740   30.1280 H   0  0  0  0  0  0  0  0  0  0  0  0
   41.0430   28.1770   30.1790 C   0  0  0  0  0  3  0  0  0  0  0  0
   42.1960   28.3230   30.9310 C   0  0  0  0  0  0  0  0  0  0  0  0
   43.0700   28.7910   30.4670 H   0  0  0  0  0  0  0  0  0  0  0  0
   42.2530   27.8830   32.2590 C   0  0  0  0  0  0  0  0  0  0  0  0
   43.1450   27.9910   32.8550 H   0  0  0  0  0  0  0  0  0  0  0  0
   41.0980   27.3040   32.7570 C   0  0  0  0  0  3  0  0  0  0  0  0
  1 16  1  0  0  0  0
  2  7  1  0  0  0  0
  2  1  1  0  0  0  0
  3  4  1  0  0  0  0
  3  2  1  0  0  0  0
  4  5  1  0  0  0  0
  5 13  1  0  0  0  0
  5  6  1  0  0  0  0
  6  1  1  0  0  0  0
  6 14  1  0  0  0  0
  8  2  1  0  0  0  0
  9  3  1  0  0  0  0
 10  3  1  0  0  0  0
 11  4  1  0  0  0  0
 12  5  1  0  0  0  0
 15  6  1  0  0  0  0
 16 17  2  0  0  0  0
 16 21  1  0  0  0  0
 17 18  1  0  0  0  0
 18 23  1  0  0  0  0
 18 19  2  0  0  0  0
 20 19  1  0  0  0  0
 20 24  1  0  0  0  0
 21 20  2  0  0  0  0
 22 17  1  0  0  0  0
 25  4  1  0  0  0  0
 25 33  1  0  0  0  0
 26 25  2  0  0  0  0
 27 26  1  0  0  0  0
 28 26  1  0  0  0  0
 28 29  2  0  0  0  0
 29 31  1  0  0  0  0
 30 29  1  0  0  0  0
 31 33  2  0  0  0  0
 31 32  1  0  0  0  0
M  END
>  <minimizedAffinity>
-4.65913773

$$$$

 OpenBabel03272507453D

 33 35  0  0  0  0  0  0  0  0999 V2000
   39.3870   25.8320   34.8070 N   0  0  0  0  0  0  0  0  0  0  0  0
   38.4230   25.2870   33.8870 C   0  0  0  0  0  0  0  0  0  0  0  0
   37.3020   26.1480   33.4740 C   0  0  0  0  0  0  0  0  0  0  0  0
   36.8570   27.1960   34.4070 C   0  0  0  0  0  0  0  0  0  0  0  0
   37.9030   27.6470   35.3960 C   0  0  0  0  0  0  0  0  0  0  0  0
   38.6610   26.4320   35.9030 C   0  0  0  0  0  0  0  0  0  0  0  0
   39.0050   24.9670   32.9780 H   0  0  0  0  0  0  0  0  0  0  0  0
   38.0420   24.3410   34.3340 H   0  0  0  0  0  0  0  0  0  0  0  0
   37.5750   26.6460   32.4970 H   0  0  0  0  0  0  0  0  0  0  0  0
   36.4420   25.4940   33.2090 H   0  0  0  0  0  0  0  0  0  0  0  0
   35.9970   26.8290   35.0390 H   0  0  0  0  0  0  0  0  0  0  0  0
   37.3960   28.0880   36.2840 H   0  0  0  0  0  0  0  0  0  0  0  0
   38.5710   28.4170   34.9910 H   0  0  0  0  0  0  0  0  0  0  0  0
   39.3360   26.7840   36.7200 H   0  0  0  0  0  0  0  0  0  0  0  0
   37.9390   25.7470   36.3740 H   0  0  0  0  0  0  0  0  0  0  0  0
   40.8040   25.7890   34.6690 C   0  0  0  0  0  0  0  0  0  0  0  0
   41.5780   26.8150   34.1310 C   0  0  0  0  0  0  0  0  0  0  0  0
   42.9640   26.6100   34.0670 C   0  0  0  0  0  0  0  0  0  0  0  0
   43.4670   25.4330   34.5280 N   0  0  0  0  0  0  0  0  0  0  0  0
   42.6830   24.4780   35.0360 C   0  0  0  0  0  0  0  0  0  0  0  0
   41.3560   24.6450   35.1110 N   0  0  0  0  0  0  0  0  0  0  0  0
   41.0230   27.6780   33.8130 H   0  0  0  0  0  0  0  0  0  0  0  0
   43.5080   27.4270   33.6460 H   0  0  0  0  0  0  0  0  0  0  0  0
   43.2120   23.5950   35.3660 H   0  0  0  0  0  0  0  0  0  0  0  0
   36.3500   28.4270   33.7460 C   0  0  0  0  0  0  0  0  0  0  0  0
   36.4970   28.6240   32.3790 C   0  0  0  0  0  0  0  0  0  0  0  0
   36.9930   27.8640   31.7700 H   0  0  0  0  0  0  0  0  0  0  0  0
   36.0090   29.7880   31.7940 C   0  0  0  0  0  3  0  0  0  0  0  0
   35.3780   30.7540   32.5590 C   0  0  0  0  0  0  0  0  0  0  0  0
   35.0080   31.6570   32.0640 H   0  0  0  0  0  0  0  0  0  0  0  0
   35.2140   30.5880   33.9390 C   0  0  0  0  0  0  0  0  0  0  0  0
   34.7250   31.3330   34.5460 H   0  0  0  0  0  0  0  0  0  0  0  0
   35.7160   29.4130   34.4740 C   0  0  0  0  0  3  0  0  0  0  0  0
  1  6  1  0  0  0  0
  2  8  1  0  0  0  0
  2  1  1  0  0  0  0
  3  2  1  0  0  0  0
  3  4  1  0  0  0  0
  4 11  1  0  0  0  0
  4  5  1  0  0  0  0
  5  6  1  0  0  0  0
  5 12  1  0  0  0  0
  6 15  1  0  0  0  0
  6 14  1  0  0  0  0
  7  2  1  0  0  0  0
  9  3  1  0  0  0  0
 10  3  1  0  0  0  0
 13  5  1  0  0  0  0
 16  1  1  0  0  0  0
 16 21  1  0  0  0  0
 17 16  2  0  0  0  0
 18 17  1  0  0  0  0
 18 19  2  0  0  0  0
 19 20  1  0  0  0  0
 20 21  2  0  0  0  0
 20 24  1  0  0  0  0
 22 17  1  0  0  0  0
 23 18  1  0  0  0  0
 25  4  1  0  0  0  0
 25 33  1  0  0  0  0
 26 25  2  0  0  0  0
 27 26  1  0  0  0  0
 28 26  1  0  0  0  0
 28 29  2  0  0  0  0
 29 31  1  0  0  0  0
 30 29  1  0  0  0  0
 31 33  2  0  0  0  0
 31 32  1  0  0  0  0
M  END
>  <minimizedAffinity>
-4.64523315

$$$$

 OpenBabel03272507453D

 33 35  0  0  0  0  0  0  0  0999 V2000
   36.8340   26.6830   32.6140 N   0  0  0  0  0  0  0  0  0  0  0  0
   37.2520   27.2090   33.8880 C   0  0  0  0  0  0  0  0  0  0  0  0
   36.4730   28.3180   34.4640 C   0  0  0  0  0  0  0  0  0  0  0  0
   35.7650   29.2180   33.5380 C   0  0  0  0  0  0  0  0  0  0  0  0
   35.4440   28.6150   32.1930 C   0  0  0  0  0  0  0  0  0  0  0  0
   36.6350   27.8000   31.7190 C   0  0  0  0  0  0  0  0  0  0  0  0
   37.2500   26.3390   34.6020 H   0  0  0  0  0  0  0  0  0  0  0  0
   38.3230   27.4990   33.7870 H   0  0  0  0  0  0  0  0  0  0  0  0
   35.7120   27.8870   35.1780 H   0  0  0  0  0  0  0  0  0  0  0  0
   37.1470   28.9120   35.1200 H   0  0  0  0  0  0  0  0  0  0  0  0
   36.3920   30.1280   33.3080 H   0  0  0  0  0  0  0  0  0  0  0  0
   35.3150   29.4350   31.4510 H   0  0  0  0  0  0  0  0  0  0  0  0
   34.5140   28.0330   32.1960 H   0  0  0  0  0  0  0  0  0  0  0  0
   36.4140   27.4740   30.6740 H   0  0  0  0  0  0  0  0  0  0  0  0
   37.5080   28.4680   31.6570 H   0  0  0  0  0  0  0  0  0  0  0  0
   36.6500   25.3090   32.2890 C   0  0  0  0  0  0  0  0  0  0  0  0
   35.7030   24.8290   31.3870 C   0  0  0  0  0  0  0  0  0  0  0  0
   35.6540   23.4430   31.1820 C   0  0  0  0  0  0  0  0  0  0  0  0
   36.5260   22.6550   31.8670 N   0  0  0  0  0  0  0  0  0  0  0  0
   37.4170   23.1620   32.7220 C   0  0  0  0  0  0  0  0  0  0  0  0
   37.4880   24.4820   32.9400 N   0  0  0  0  0  0  0  0  0  0  0  0
   35.0920   25.5860   30.9310 H   0  0  0  0  0  0  0  0  0  0  0  0
   34.9100   23.1310   30.4820 H   0  0  0  0  0  0  0  0  0  0  0  0
   38.0490   22.4260   33.1990 H   0  0  0  0  0  0  0  0  0  0  0  0
   34.4860   29.7580   34.0690 C   0  0  0  0  0  0  0  0  0  0  0  0
   33.2660   29.4020   33.5090 C   0  0  0  0  0  0  0  0  0  0  0  0
   33.2360   28.7120   32.6620 H   0  0  0  0  0  0  0  0  0  0  0  0
   32.0870   29.9250   34.0330 C   0  0  0  0  0  3  0  0  0  0  0  0
   32.1180   30.7990   35.1060 C   0  0  0  0  0  0  0  0  0  0  0  0
   31.1710   31.1910   35.4900 H   0  0  0  0  0  0  0  0  0  0  0  0
   33.3290   31.1790   35.6940 C   0  0  0  0  0  0  0  0  0  0  0  0
   33.3660   31.8590   36.5310 H   0  0  0  0  0  0  0  0  0  0  0  0
   34.4740   30.6300   35.1380 C   0  0  0  0  0  3  0  0  0  0  0  0
  1  2  1  0  0  0  0
  2  3  1  0  0  0  0
  2  7  1  0  0  0  0
  3 10  1  0  0  0  0
  3  9  1  0  0  0  0
  4 25  1  0  0  0  0
  4  3  1  0  0  0  0
  5 13  1  0  0  0  0
  5  4  1  0  0  0  0
  6  5  1  0  0  0  0
  6  1  1  0  0  0  0
  8  2  1  0  0  0  0
 11  4  1  0  0  0  0
 12  5  1  0  0  0  0
 14  6  1  0  0  0  0
 15  6  1  0  0  0  0
 16  1  1  0  0  0  0
 16 21  1  0  0  0  0
 17 16  2  0  0  0  0
 18 17  1  0  0  0  0
 18 19  2  0  0  0  0
 19 20  1  0  0  0  0
 20 21  2  0  0  0  0
 20 24  1  0  0  0  0
 22 17  1  0  0  0  0
 23 18  1  0  0  0  0
 25 33  1  0  0  0  0
 26 28  1  0  0  0  0
 26 25  2  0  0  0  0
 27 26  1  0  0  0  0
 28 29  2  0  0  0  0
 29 30  1  0  0  0  0
 29 31  1  0  0  0  0
 31 32  1  0  0  0  0
 33 31  2  0  0  0  0
M  END
>  <minimizedAffinity>
-4.6186614

$$$$
