REMARK  Name = 
REMARK  2 active torsions:
REMARK  status: ('A' for Active; 'I' for Inactive)
REMARK    1  A    between atoms: C_5  and  C_7
REMARK    2  A    between atoms: C_12  and  C_20
REMARK                            x       y       z     vdW  Elec       q    Type
REMARK                         _______ _______ _______ _____ _____    ______ ____
ROOT
ATOM      1  C   UNL     1      36.094  30.120  48.608  0.00  0.00    +0.000 A 
ATOM      2  C   UNL     1      35.288  29.960  47.506  0.00  0.00    +0.000 A 
ATOM      3  C   UNL     1      34.297  28.990  47.508  0.00  0.00    +0.000 A 
ATOM      4  C   UNL     1      34.149  28.203  48.633  0.00  0.00    +0.000 A 
ATOM      5  C   UNL     1      34.955  28.359  49.739  0.00  0.00    +0.000 A 
ATOM      6  C   UNL     1      35.944  29.329  49.737  0.00  0.00    +0.000 A 
ATOM      7  H   UNL     1      35.410  30.585  46.618  0.00  0.00    +0.000 HD
ATOM      8  H   UNL     1      33.661  28.861  46.644  0.00  0.00    +0.000 HD
ATOM      9  H   UNL     1      33.389  27.423  48.697  0.00  0.00    +0.000 HD
ATOM     10  H   UNL     1      34.902  27.781  50.660  0.00  0.00    +0.000 HD
ENDROOT
BRANCH   1  15
ATOM     11  C   UNL     1      38.005  33.107  49.476  0.00  0.00    +0.000 A 
ATOM     12  C   UNL     1      38.966  33.216  48.471  0.00  0.00    +0.000 A 
ATOM     13  C   UNL     1      38.947  32.224  47.465  0.00  0.00    +0.000 A 
ATOM     14  N   UNL     1      38.017  31.237  47.526  0.00  0.00    +0.000 NA
ATOM     15  C   UNL     1      37.114  31.173  48.511  0.00  0.00    +0.000 A 
ATOM     16  N   UNL     1      37.109  32.116  49.493  0.00  0.00    +0.000 NA
ATOM     17  H   UNL     1      37.988  33.851  50.267  0.00  0.00    +0.000 HD
ATOM     18  H   UNL     1      39.704  34.007  48.428  0.00  0.00    +0.000 HD
ATOM     19  H   UNL     1      39.672  32.258  46.657  0.00  0.00    +0.000 HD
ENDBRANCH   1  15
BRANCH   6  20
ATOM     20  C   UNL     1      36.889  29.639  50.812  0.00  0.00    +0.000 A 
ATOM     21  C   UNL     1      36.518  30.641  51.709  0.00  0.00    +0.000 A 
ATOM     22  H   UNL     1      35.578  31.199  51.655  0.00  0.00    +0.000 HD
ATOM     23  C   UNL     1      37.362  30.991  52.759  0.00  0.00    +0.000 A 
ATOM     24  C   UNL     1      38.584  30.324  52.898  0.00  0.00    +0.000 A 
ATOM     25  H   UNL     1      39.219  30.621  53.728  0.00  0.00    +0.000 HD
ATOM     26  C   UNL     1      38.935  29.323  51.988  0.00  0.00    +0.000 A 
ATOM     27  H   UNL     1      39.896  28.806  52.107  0.00  0.00    +0.000 HD
ATOM     28  C   UNL     1      38.098  28.990  50.964  0.00  0.00    +0.000 A 
ENDBRANCH   6  20
TORSDOF 2
