
 OpenBabel03262522333D

 27 29  0  0  0  0  0  0  0  0999 V2000
   36.7290   27.7720   33.5590 C   0  0  0  0  0  0  0  0  0  0  0  0
   36.8050   28.2500   32.2820 C   0  0  0  0  0  0  0  0  0  0  0  0
   36.3090   29.4730   31.8730 C   0  0  0  0  0  0  0  0  0  0  0  0
   35.6970   30.2850   32.7890 C   0  0  0  0  0  0  0  0  0  0  0  0
   35.6260   29.7970   34.0670 C   0  0  0  0  0  0  0  0  0  0  0  0
   36.1160   28.5960   34.4520 N   0  0  0  0  0  0  0  0  0  0  0  0
   37.2880   27.6190   31.5430 H   0  0  0  0  0  0  0  0  0  0  0  0
   36.4220   29.7550   30.8380 H   0  0  0  0  0  0  0  0  0  0  0  0
   35.3240   31.2210   32.4480 H   0  0  0  0  0  0  0  0  0  0  0  0
   37.5350   26.1500   35.3180 C   0  0  0  0  0  0  0  0  0  0  0  0
   37.2490   26.4810   33.9760 C   0  0  0  0  0  0  0  0  0  0  0  0
   37.4790   25.5220   32.9800 C   0  0  0  0  0  0  0  0  0  0  0  0
   37.9730   24.3060   33.3630 N   0  0  0  0  0  0  0  0  0  0  0  0
   38.2350   24.0230   34.6440 C   0  0  0  0  0  0  0  0  0  0  0  0
   38.0230   24.9300   35.6280 N   0  0  0  0  0  0  0  0  0  0  0  0
   37.3110   26.9770   35.9770 H   0  0  0  0  0  0  0  0  0  0  0  0
   37.2810   25.7080   31.9280 H   0  0  0  0  0  0  0  0  0  0  0  0
   38.6270   23.0470   34.9060 H   0  0  0  0  0  0  0  0  0  0  0  0
   34.9890   30.5990   35.1030 C   0  0  0  0  0  0  0  0  0  0  0  0
   35.6360   31.5080   35.9120 C   0  0  0  0  0  0  0  0  0  0  0  0
   36.6990   31.6540   35.7860 H   0  0  0  0  0  0  0  0  0  0  0  0
   35.0140   32.2560   36.8850 C   0  0  0  0  0  3  0  0  0  0  0  0
   33.6750   32.1210   37.0960 C   0  0  0  0  0  0  0  0  0  0  0  0
   33.2040   32.7170   37.8650 H   0  0  0  0  0  0  0  0  0  0  0  0
   32.9460   31.2330   36.3320 C   0  0  0  0  0  0  0  0  0  0  0  0
   31.8800   31.0920   36.4640 H   0  0  0  0  0  0  0  0  0  0  0  0
   33.6340   30.5180   35.3760 C   0  0  0  0  0  3  0  0  0  0  0  0
  1 11  1  0  0  0  0
  1  6  1  0  0  0  0
  2  1  2  0  0  0  0
  3  2  1  0  0  0  0
  3  4  2  0  0  0  0
  4  5  1  0  0  0  0
  5  6  2  0  0  0  0
  5 19  1  0  0  0  0
  7  2  1  0  0  0  0
  8  3  1  0  0  0  0
  9  4  1  0  0  0  0
 10 15  1  0  0  0  0
 10 16  1  0  0  0  0
 11 10  2  0  0  0  0
 12 13  2  0  0  0  0
 12 11  1  0  0  0  0
 13 14  1  0  0  0  0
 14 18  1  0  0  0  0
 14 15  2  0  0  0  0
 17 12  1  0  0  0  0
 19 27  2  0  0  0  0
 19 20  1  0  0  0  0
 20 22  2  0  0  0  0
 21 20  1  0  0  0  0
 22 23  1  0  0  0  0
 23 24  1  0  0  0  0
 25 26  1  0  0  0  0
 25 23  2  0  0  0  0
 27 25  1  0  0  0  0
M  END
>  <minimizedAffinity>
-5.31514311

$$$$

 OpenBabel03262522333D

 27 29  0  0  0  0  0  0  0  0999 V2000
   36.7040   27.8330   33.4920 C   0  0  0  0  0  0  0  0  0  0  0  0
   36.8030   28.3470   32.2300 C   0  0  0  0  0  0  0  0  0  0  0  0
   36.3020   29.5750   31.8440 C   0  0  0  0  0  0  0  0  0  0  0  0
   35.6580   30.3540   32.7660 C   0  0  0  0  0  0  0  0  0  0  0  0
   35.5630   29.8300   34.0280 C   0  0  0  0  0  0  0  0  0  0  0  0
   36.0590   28.6240   34.3920 N   0  0  0  0  0  0  0  0  0  0  0  0
   37.3110   27.7430   31.4860 H   0  0  0  0  0  0  0  0  0  0  0  0
   36.4350   29.8860   30.8200 H   0  0  0  0  0  0  0  0  0  0  0  0
   35.2820   31.2940   32.4410 H   0  0  0  0  0  0  0  0  0  0  0  0
   37.4990   25.4950   32.9730 C   0  0  0  0  0  0  0  0  0  0  0  0
   37.2300   26.5370   33.8850 C   0  0  0  0  0  0  0  0  0  0  0  0
   37.4730   26.3210   35.2490 C   0  0  0  0  0  0  0  0  0  0  0  0
   37.9630   25.1030   35.6270 N   0  0  0  0  0  0  0  0  0  0  0  0
   38.2080   24.1330   34.7380 C   0  0  0  0  0  0  0  0  0  0  0  0
   37.9820   24.3140   33.4130 N   0  0  0  0  0  0  0  0  0  0  0  0
   37.2680   25.7960   31.9600 H   0  0  0  0  0  0  0  0  0  0  0  0
   37.2890   27.0790   36.0050 H   0  0  0  0  0  0  0  0  0  0  0  0
   38.5950   23.1800   35.0790 H   0  0  0  0  0  0  0  0  0  0  0  0
   34.8910   30.5960   35.0700 C   0  0  0  0  0  0  0  0  0  0  0  0
   33.5460   30.5310   35.3590 C   0  0  0  0  0  0  0  0  0  0  0  0
   32.9190   29.8670   34.7800 H   0  0  0  0  0  0  0  0  0  0  0  0
   32.9310   31.2640   36.3490 C   0  0  0  0  0  3  0  0  0  0  0  0
   33.6630   32.1200   37.1160 C   0  0  0  0  0  0  0  0  0  0  0  0
   33.1630   32.6870   37.8880 H   0  0  0  0  0  0  0  0  0  0  0  0
   35.0190   32.2490   36.8960 C   0  0  0  0  0  0  0  0  0  0  0  0
   35.6400   32.9170   37.4800 H   0  0  0  0  0  0  0  0  0  0  0  0
   35.5660   31.4850   35.8900 C   0  0  0  0  0  3  0  0  0  0  0  0
  1 11  1  0  0  0  0
  1  6  1  0  0  0  0
  2  1  2  0  0  0  0
  3  2  1  0  0  0  0
  3  4  2  0  0  0  0
  4  5  1  0  0  0  0
  5  6  2  0  0  0  0
  5 19  1  0  0  0  0
  7  2  1  0  0  0  0
  8  3  1  0  0  0  0
  9  4  1  0  0  0  0
 10 15  2  0  0  0  0
 10 11  1  0  0  0  0
 11 12  2  0  0  0  0
 12 13  1  0  0  0  0
 12 17  1  0  0  0  0
 14 18  1  0  0  0  0
 14 13  2  0  0  0  0
 15 14  1  0  0  0  0
 16 10  1  0  0  0  0
 19 20  2  0  0  0  0
 19 27  1  0  0  0  0
 20 22  1  0  0  0  0
 21 20  1  0  0  0  0
 22 23  2  0  0  0  0
 23 24  1  0  0  0  0
 25 23  1  0  0  0  0
 25 26  1  0  0  0  0
 27 25  2  0  0  0  0
M  END
>  <minimizedAffinity>
-5.28093767

$$$$

 OpenBabel03262522333D

 27 29  0  0  0  0  0  0  0  0999 V2000
   38.4180   24.6380   36.1690 C   0  0  0  0  0  0  0  0  0  0  0  0
   37.7930   24.4780   37.3730 C   0  0  0  0  0  0  0  0  0  0  0  0
   38.2770   23.7020   38.4080 C   0  0  0  0  0  0  0  0  0  0  0  0
   39.4620   23.0370   38.2470 C   0  0  0  0  0  0  0  0  0  0  0  0
   40.0800   23.2040   37.0360 C   0  0  0  0  0  0  0  0  0  0  0  0
   39.5940   23.9680   36.0300 N   0  0  0  0  0  0  0  0  0  0  0  0
   36.8520   24.9990   37.5180 H   0  0  0  0  0  0  0  0  0  0  0  0
   37.7030   23.6430   39.3190 H   0  0  0  0  0  0  0  0  0  0  0  0
   39.8100   22.4460   39.0600 H   0  0  0  0  0  0  0  0  0  0  0  0
   37.3940   26.7600   35.2620 C   0  0  0  0  0  0  0  0  0  0  0  0
   37.8960   25.4530   35.0840 C   0  0  0  0  0  0  0  0  0  0  0  0
   37.8910   24.8970   33.7980 C   0  0  0  0  0  0  0  0  0  0  0  0
   37.3960   25.6550   32.7740 N   0  0  0  0  0  0  0  0  0  0  0  0
   36.9270   26.8910   32.9740 C   0  0  0  0  0  0  0  0  0  0  0  0
   36.9200   27.4550   34.2070 N   0  0  0  0  0  0  0  0  0  0  0  0
   37.4590   27.0630   36.2990 H   0  0  0  0  0  0  0  0  0  0  0  0
   38.2610   23.8970   33.5890 H   0  0  0  0  0  0  0  0  0  0  0  0
   36.5420   27.4600   32.1350 H   0  0  0  0  0  0  0  0  0  0  0  0
   41.3470   22.5290   36.7830 C   0  0  0  0  0  0  0  0  0  0  0  0
   42.4170   23.0790   36.1110 C   0  0  0  0  0  0  0  0  0  0  0  0
   42.3330   24.0880   35.7340 H   0  0  0  0  0  0  0  0  0  0  0  0
   43.6060   22.4230   35.8830 C   0  0  0  0  0  3  0  0  0  0  0  0
   43.7770   21.1490   36.3330 C   0  0  0  0  0  0  0  0  0  0  0  0
   44.7180   20.6500   36.1440 H   0  0  0  0  0  0  0  0  0  0  0  0
   42.7580   20.5190   37.0160 C   0  0  0  0  0  0  0  0  0  0  0  0
   42.8490   19.5080   37.3920 H   0  0  0  0  0  0  0  0  0  0  0  0
   41.5970   21.2350   37.2090 C   0  0  0  0  0  3  0  0  0  0  0  0
  1  2  1  0  0  0  0
  2  7  1  0  0  0  0
  2  3  2  0  0  0  0
  3  8  1  0  0  0  0
  4  3  1  0  0  0  0
  4  9  1  0  0  0  0
  5  4  2  0  0  0  0
  6  1  2  0  0  0  0
  6  5  1  0  0  0  0
 10 16  1  0  0  0  0
 11 10  1  0  0  0  0
 11  1  1  0  0  0  0
 12 11  2  0  0  0  0
 13 14  2  0  0  0  0
 13 12  1  0  0  0  0
 14 15  1  0  0  0  0
 15 10  2  0  0  0  0
 17 12  1  0  0  0  0
 18 14  1  0  0  0  0
 19  5  1  0  0  0  0
 19 27  1  0  0  0  0
 20 19  2  0  0  0  0
 21 20  1  0  0  0  0
 22 20  1  0  0  0  0
 22 23  2  0  0  0  0
 23 25  1  0  0  0  0
 24 23  1  0  0  0  0
 25 27  2  0  0  0  0
 25 26  1  0  0  0  0
M  END
>  <minimizedAffinity>
-5.23536348

$$$$

 OpenBabel03262522333D

 27 29  0  0  0  0  0  0  0  0999 V2000
   37.3170   26.3200   33.3390 C   0  0  0  0  0  0  0  0  0  0  0  0
   37.5990   25.5050   32.2800 C   0  0  0  0  0  0  0  0  0  0  0  0
   38.1650   24.2490   32.3880 C   0  0  0  0  0  0  0  0  0  0  0  0
   38.4740   23.7610   33.6280 C   0  0  0  0  0  0  0  0  0  0  0  0
   38.1880   24.5850   34.6830 C   0  0  0  0  0  0  0  0  0  0  0  0
   37.6330   25.8140   34.5620 N   0  0  0  0  0  0  0  0  0  0  0  0
   37.3600   25.8770   31.2890 H   0  0  0  0  0  0  0  0  0  0  0  0
   38.3470   23.6870   31.4850 H   0  0  0  0  0  0  0  0  0  0  0  0
   38.9100   22.7920   33.6820 H   0  0  0  0  0  0  0  0  0  0  0  0
   36.5520   28.3030   31.9780 C   0  0  0  0  0  0  0  0  0  0  0  0
   36.7270   27.6420   33.2130 C   0  0  0  0  0  0  0  0  0  0  0  0
   36.3180   28.2860   34.3880 C   0  0  0  0  0  0  0  0  0  0  0  0
   35.7670   29.5320   34.2780 N   0  0  0  0  0  0  0  0  0  0  0  0
   35.6150   30.1340   33.0920 C   0  0  0  0  0  0  0  0  0  0  0  0
   36.0000   29.5350   31.9390 N   0  0  0  0  0  0  0  0  0  0  0  0
   36.9070   27.6940   31.1580 H   0  0  0  0  0  0  0  0  0  0  0  0
   36.4230   27.8360   35.3710 H   0  0  0  0  0  0  0  0  0  0  0  0
   35.1740   31.1230   33.0480 H   0  0  0  0  0  0  0  0  0  0  0  0
   38.4870   24.1400   36.0390 C   0  0  0  0  0  0  0  0  0  0  0  0
   39.4900   23.2600   36.3800 C   0  0  0  0  0  0  0  0  0  0  0  0
   40.1170   22.8540   35.5990 H   0  0  0  0  0  0  0  0  0  0  0  0
   39.7550   22.8520   37.6680 C   0  0  0  0  0  3  0  0  0  0  0  0
   39.0020   23.3260   38.7010 C   0  0  0  0  0  0  0  0  0  0  0  0
   39.2250   22.9950   39.7050 H   0  0  0  0  0  0  0  0  0  0  0  0
   37.9750   24.2130   38.4500 C   0  0  0  0  0  0  0  0  0  0  0  0
   37.3510   24.6160   39.2390 H   0  0  0  0  0  0  0  0  0  0  0  0
   37.7670   24.5770   37.1380 C   0  0  0  0  0  3  0  0  0  0  0  0
  1  6  1  0  0  0  0
  2  3  1  0  0  0  0
  2  1  2  0  0  0  0
  3  4  2  0  0  0  0
  4  9  1  0  0  0  0
  4  5  1  0  0  0  0
  5 19  1  0  0  0  0
  6  5  2  0  0  0  0
  7  2  1  0  0  0  0
  8  3  1  0  0  0  0
 10 11  1  0  0  0  0
 11  1  1  0  0  0  0
 11 12  2  0  0  0  0
 12 17  1  0  0  0  0
 13 12  1  0  0  0  0
 14 13  2  0  0  0  0
 15 10  2  0  0  0  0
 15 14  1  0  0  0  0
 16 10  1  0  0  0  0
 18 14  1  0  0  0  0
 19 20  2  0  0  0  0
 19 27  1  0  0  0  0
 20 22  1  0  0  0  0
 21 20  1  0  0  0  0
 22 23  2  0  0  0  0
 23 24  1  0  0  0  0
 25 23  1  0  0  0  0
 25 26  1  0  0  0  0
 27 25  2  0  0  0  0
M  END
>  <minimizedAffinity>
-5.14179087

$$$$

 OpenBabel03262522333D

 27 29  0  0  0  0  0  0  0  0999 V2000
   40.0480   22.8800   36.8100 C   0  0  0  0  0  0  0  0  0  0  0  0
   39.4960   22.8910   38.0600 C   0  0  0  0  0  0  0  0  0  0  0  0
   38.4700   23.7270   38.4550 C   0  0  0  0  0  0  0  0  0  0  0  0
   37.9490   24.6150   37.5540 C   0  0  0  0  0  0  0  0  0  0  0  0
   38.5080   24.5970   36.3040 C   0  0  0  0  0  0  0  0  0  0  0  0
   39.5140   23.7710   35.9310 N   0  0  0  0  0  0  0  0  0  0  0  0
   39.8980   22.1920   38.7870 H   0  0  0  0  0  0  0  0  0  0  0  0
   38.1070   23.6540   39.4680 H   0  0  0  0  0  0  0  0  0  0  0  0
   37.1600   25.2480   37.8850 H   0  0  0  0  0  0  0  0  0  0  0  0
   41.5480   21.8330   35.0690 C   0  0  0  0  0  0  0  0  0  0  0  0
   41.1320   21.9990   36.4080 C   0  0  0  0  0  0  0  0  0  0  0  0
   41.7880   21.2760   37.4140 C   0  0  0  0  0  0  0  0  0  0  0  0
   42.8040   20.4410   37.0430 N   0  0  0  0  0  0  0  0  0  0  0  0
   43.1760   20.3050   35.7650 C   0  0  0  0  0  0  0  0  0  0  0  0
   42.5600   20.9920   34.7720 N   0  0  0  0  0  0  0  0  0  0  0  0
   40.9590   22.4480   34.4020 H   0  0  0  0  0  0  0  0  0  0  0  0
   41.5200   21.3550   38.4640 H   0  0  0  0  0  0  0  0  0  0  0  0
   43.9870   19.6320   35.5120 H   0  0  0  0  0  0  0  0  0  0  0  0
   38.0110   25.5120   35.2850 C   0  0  0  0  0  0  0  0  0  0  0  0
   37.8320   25.1970   33.9560 C   0  0  0  0  0  0  0  0  0  0  0  0
   38.0730   24.1990   33.6190 H   0  0  0  0  0  0  0  0  0  0  0  0
   37.3600   26.0780   33.0100 C   0  0  0  0  0  3  0  0  0  0  0  0
   37.0370   27.3530   33.3670 C   0  0  0  0  0  0  0  0  0  0  0  0
   36.6680   28.0300   32.6100 H   0  0  0  0  0  0  0  0  0  0  0  0
   37.1850   27.7560   34.6780 C   0  0  0  0  0  0  0  0  0  0  0  0
   36.9410   28.7580   35.0090 H   0  0  0  0  0  0  0  0  0  0  0  0
   37.6620   26.8220   35.5710 C   0  0  0  0  0  3  0  0  0  0  0  0
  1  2  1  0  0  0  0
  2  3  2  0  0  0  0
  2  7  1  0  0  0  0
  3  8  1  0  0  0  0
  4  9  1  0  0  0  0
  4  3  1  0  0  0  0
  5  4  2  0  0  0  0
  6  5  1  0  0  0  0
  6  1  2  0  0  0  0
 10 11  1  0  0  0  0
 11  1  1  0  0  0  0
 11 12  2  0  0  0  0
 12 17  1  0  0  0  0
 13 12  1  0  0  0  0
 14 13  2  0  0  0  0
 15 10  2  0  0  0  0
 15 14  1  0  0  0  0
 16 10  1  0  0  0  0
 18 14  1  0  0  0  0
 19 27  1  0  0  0  0
 19  5  1  0  0  0  0
 20 19  2  0  0  0  0
 21 20  1  0  0  0  0
 22 23  2  0  0  0  0
 22 20  1  0  0  0  0
 23 25  1  0  0  0  0
 24 23  1  0  0  0  0
 25 26  1  0  0  0  0
 25 27  2  0  0  0  0
M  END
>  <minimizedAffinity>
-5.12997818

$$$$

 OpenBabel03262522333D

 27 29  0  0  0  0  0  0  0  0999 V2000
   36.1620   28.3560   32.2740 C   0  0  0  0  0  0  0  0  0  0  0  0
   36.5540   29.2390   31.3080 C   0  0  0  0  0  0  0  0  0  0  0  0
   36.4160   30.6100   31.4000 C   0  0  0  0  0  0  0  0  0  0  0  0
   35.8520   31.1510   32.5230 C   0  0  0  0  0  0  0  0  0  0  0  0
   35.4610   30.2580   33.4840 C   0  0  0  0  0  0  0  0  0  0  0  0
   35.6030   28.9160   33.3810 N   0  0  0  0  0  0  0  0  0  0  0  0
   37.0040   28.8270   30.4110 H   0  0  0  0  0  0  0  0  0  0  0  0
   36.7600   31.2180   30.5780 H   0  0  0  0  0  0  0  0  0  0  0  0
   35.7570   32.2100   32.5670 H   0  0  0  0  0  0  0  0  0  0  0  0
   37.1740   26.1520   32.9760 C   0  0  0  0  0  0  0  0  0  0  0  0
   36.3070   26.9140   32.1640 C   0  0  0  0  0  0  0  0  0  0  0  0
   35.5420   26.2570   31.1900 C   0  0  0  0  0  0  0  0  0  0  0  0
   35.6770   24.9020   31.0770 N   0  0  0  0  0  0  0  0  0  0  0  0
   36.5090   24.2070   31.8620 C   0  0  0  0  0  0  0  0  0  0  0  0
   37.2610   24.8150   32.8110 N   0  0  0  0  0  0  0  0  0  0  0  0
   37.6990   26.7830   33.6810 H   0  0  0  0  0  0  0  0  0  0  0  0
   34.8550   26.7800   30.5320 H   0  0  0  0  0  0  0  0  0  0  0  0
   36.5880   23.1330   31.7390 H   0  0  0  0  0  0  0  0  0  0  0  0
   34.8510   30.7520   34.7120 C   0  0  0  0  0  0  0  0  0  0  0  0
   33.5510   30.5140   35.1030 C   0  0  0  0  0  0  0  0  0  0  0  0
   32.9160   29.9160   34.4640 H   0  0  0  0  0  0  0  0  0  0  0  0
   32.9950   30.9910   36.2680 C   0  0  0  0  0  3  0  0  0  0  0  0
   33.7410   31.7500   37.1180 C   0  0  0  0  0  0  0  0  0  0  0  0
   33.2870   32.1160   38.0280 H   0  0  0  0  0  0  0  0  0  0  0  0
   35.0530   32.0390   36.8070 C   0  0  0  0  0  0  0  0  0  0  0  0
   35.6850   32.6390   37.4510 H   0  0  0  0  0  0  0  0  0  0  0  0
   35.5440   31.5290   35.6250 C   0  0  0  0  0  3  0  0  0  0  0  0
  1  6  1  0  0  0  0
  2  3  1  0  0  0  0
  2  1  2  0  0  0  0
  3  4  2  0  0  0  0
  4  9  1  0  0  0  0
  4  5  1  0  0  0  0
  5 19  1  0  0  0  0
  6  5  2  0  0  0  0
  7  2  1  0  0  0  0
  8  3  1  0  0  0  0
 10 16  1  0  0  0  0
 11  1  1  0  0  0  0
 11 10  2  0  0  0  0
 12 11  1  0  0  0  0
 13 12  2  0  0  0  0
 13 14  1  0  0  0  0
 14 15  2  0  0  0  0
 15 10  1  0  0  0  0
 17 12  1  0  0  0  0
 18 14  1  0  0  0  0
 19 20  2  0  0  0  0
 19 27  1  0  0  0  0
 20 22  1  0  0  0  0
 21 20  1  0  0  0  0
 22 23  2  0  0  0  0
 23 24  1  0  0  0  0
 25 23  1  0  0  0  0
 25 26  1  0  0  0  0
 27 25  2  0  0  0  0
M  END
>  <minimizedAffinity>
-5.12726498

$$$$

 OpenBabel03262522333D

 27 29  0  0  0  0  0  0  0  0999 V2000
   38.5060   25.7210   33.1940 C   0  0  0  0  0  0  0  0  0  0  0  0
   39.2070   26.8920   33.1430 C   0  0  0  0  0  0  0  0  0  0  0  0
   40.3480   27.1530   33.8760 C   0  0  0  0  0  0  0  0  0  0  0  0
   40.8350   26.1910   34.7180 C   0  0  0  0  0  0  0  0  0  0  0  0
   40.1250   25.0210   34.7630 C   0  0  0  0  0  0  0  0  0  0  0  0
   39.0080   24.7790   34.0380 N   0  0  0  0  0  0  0  0  0  0  0  0
   38.8350   27.6660   32.4790 H   0  0  0  0  0  0  0  0  0  0  0  0
   40.8260   28.1140   33.7610 H   0  0  0  0  0  0  0  0  0  0  0  0
   41.7150   26.4190   35.2710 H   0  0  0  0  0  0  0  0  0  0  0  0
   36.8640   24.1640   32.0730 C   0  0  0  0  0  0  0  0  0  0  0  0
   37.3020   25.4600   32.4220 C   0  0  0  0  0  0  0  0  0  0  0  0
   36.5480   26.5640   32.0020 C   0  0  0  0  0  0  0  0  0  0  0  0
   35.4180   26.3270   31.2710 N   0  0  0  0  0  0  0  0  0  0  0  0
   35.0280   25.0870   30.9560 C   0  0  0  0  0  0  0  0  0  0  0  0
   35.7370   24.0010   31.3480 N   0  0  0  0  0  0  0  0  0  0  0  0
   37.5350   23.4100   32.4610 H   0  0  0  0  0  0  0  0  0  0  0  0
   36.8270   27.5880   32.2340 H   0  0  0  0  0  0  0  0  0  0  0  0
   34.1260   24.9420   30.3740 H   0  0  0  0  0  0  0  0  0  0  0  0
   40.5770   23.9450   35.6360 C   0  0  0  0  0  0  0  0  0  0  0  0
   39.7840   23.2730   36.5400 C   0  0  0  0  0  0  0  0  0  0  0  0
   38.7420   23.5480   36.6260 H   0  0  0  0  0  0  0  0  0  0  0  0
   40.2310   22.2580   37.3560 C   0  0  0  0  0  3  0  0  0  0  0  0
   41.5330   21.8620   37.2970 C   0  0  0  0  0  0  0  0  0  0  0  0
   41.8660   21.0630   37.9450 H   0  0  0  0  0  0  0  0  0  0  0  0
   42.4000   22.4800   36.4190 C   0  0  0  0  0  0  0  0  0  0  0  0
   43.4430   22.1980   36.3380 H   0  0  0  0  0  0  0  0  0  0  0  0
   41.8840   23.4870   35.6340 C   0  0  0  0  0  3  0  0  0  0  0  0
  1  6  1  0  0  0  0
  2  1  2  0  0  0  0
  2  3  1  0  0  0  0
  3  4  2  0  0  0  0
  4  5  1  0  0  0  0
  4  9  1  0  0  0  0
  5 19  1  0  0  0  0
  6  5  2  0  0  0  0
  7  2  1  0  0  0  0
  8  3  1  0  0  0  0
 10 11  1  0  0  0  0
 10 16  1  0  0  0  0
 11  1  1  0  0  0  0
 12 17  1  0  0  0  0
 12 11  2  0  0  0  0
 13 12  1  0  0  0  0
 14 13  2  0  0  0  0
 14 15  1  0  0  0  0
 15 10  2  0  0  0  0
 18 14  1  0  0  0  0
 19 20  1  0  0  0  0
 20 21  1  0  0  0  0
 20 22  2  0  0  0  0
 23 22  1  0  0  0  0
 23 24  1  0  0  0  0
 25 23  2  0  0  0  0
 26 25  1  0  0  0  0
 27 19  2  0  0  0  0
 27 25  1  0  0  0  0
M  END
>  <minimizedAffinity>
-5.03636169

$$$$

 OpenBabel03262522333D

 27 29  0  0  0  0  0  0  0  0999 V2000
   38.1940   24.7330   34.7600 C   0  0  0  0  0  0  0  0  0  0  0  0
   38.4580   24.0620   33.5980 C   0  0  0  0  0  0  0  0  0  0  0  0
   38.1860   24.5510   32.3350 C   0  0  0  0  0  0  0  0  0  0  0  0
   37.6150   25.7870   32.2050 C   0  0  0  0  0  0  0  0  0  0  0  0
   37.3550   26.4510   33.3750 C   0  0  0  0  0  0  0  0  0  0  0  0
   37.6260   25.9600   34.6070 N   0  0  0  0  0  0  0  0  0  0  0  0
   38.9110   23.0800   33.6830 H   0  0  0  0  0  0  0  0  0  0  0  0
   38.4340   23.9390   31.4820 H   0  0  0  0  0  0  0  0  0  0  0  0
   37.4160   26.1380   31.2210 H   0  0  0  0  0  0  0  0  0  0  0  0
   39.4900   23.2560   36.3450 C   0  0  0  0  0  0  0  0  0  0  0  0
   38.4790   24.2060   36.0840 C   0  0  0  0  0  0  0  0  0  0  0  0
   37.6970   24.6700   37.1500 C   0  0  0  0  0  0  0  0  0  0  0  0
   37.9550   24.1760   38.3970 N   0  0  0  0  0  0  0  0  0  0  0  0
   38.9210   23.2750   38.6130 C   0  0  0  0  0  0  0  0  0  0  0  0
   39.6930   22.8080   37.6020 N   0  0  0  0  0  0  0  0  0  0  0  0
   40.0140   22.9880   35.4370 H   0  0  0  0  0  0  0  0  0  0  0  0
   36.9030   25.4010   37.0210 H   0  0  0  0  0  0  0  0  0  0  0  0
   39.0930   22.9070   39.6180 H   0  0  0  0  0  0  0  0  0  0  0  0
   36.7470   27.7740   33.3250 C   0  0  0  0  0  0  0  0  0  0  0  0
   36.2090   28.4400   34.4040 C   0  0  0  0  0  0  0  0  0  0  0  0
   36.2270   27.9630   35.3740 H   0  0  0  0  0  0  0  0  0  0  0  0
   35.6390   29.6910   34.3350 C   0  0  0  0  0  3  0  0  0  0  0  0
   35.5830   30.3490   33.1430 C   0  0  0  0  0  0  0  0  0  0  0  0
   35.1320   31.3300   33.1080 H   0  0  0  0  0  0  0  0  0  0  0  0
   36.0990   29.7570   32.0080 C   0  0  0  0  0  0  0  0  0  0  0  0
   36.0770   30.2410   31.0390 H   0  0  0  0  0  0  0  0  0  0  0  0
   36.6540   28.5040   32.1520 C   0  0  0  0  0  3  0  0  0  0  0  0
  1 11  1  0  0  0  0
  2  7  1  0  0  0  0
  2  1  2  0  0  0  0
  3  2  1  0  0  0  0
  4  3  2  0  0  0  0
  4  5  1  0  0  0  0
  5  6  2  0  0  0  0
  6  1  1  0  0  0  0
  8  3  1  0  0  0  0
  9  4  1  0  0  0  0
 10 15  1  0  0  0  0
 11 10  2  0  0  0  0
 11 12  1  0  0  0  0
 12 13  2  0  0  0  0
 13 14  1  0  0  0  0
 14 18  1  0  0  0  0
 15 14  2  0  0  0  0
 16 10  1  0  0  0  0
 17 12  1  0  0  0  0
 19  5  1  0  0  0  0
 19 20  1  0  0  0  0
 20 21  1  0  0  0  0
 22 20  2  0  0  0  0
 23 22  1  0  0  0  0
 24 23  1  0  0  0  0
 25 27  1  0  0  0  0
 25 23  2  0  0  0  0
 26 25  1  0  0  0  0
 27 19  2  0  0  0  0
M  END
>  <minimizedAffinity>
-5.03511429

$$$$

 OpenBabel03262522333D

 27 29  0  0  0  0  0  0  0  0999 V2000
   36.0620   22.9990   31.8550 C   0  0  0  0  0  0  0  0  0  0  0  0
   35.2940   23.7800   31.0380 C   0  0  0  0  0  0  0  0  0  0  0  0
   35.4000   25.1540   30.9430 C   0  0  0  0  0  0  0  0  0  0  0  0
   36.3310   25.8060   31.7060 C   0  0  0  0  0  0  0  0  0  0  0  0
   37.0950   25.0150   32.5210 C   0  0  0  0  0  0  0  0  0  0  0  0
   36.9800   23.6690   32.6040 N   0  0  0  0  0  0  0  0  0  0  0  0
   34.5510   23.2790   30.4260 H   0  0  0  0  0  0  0  0  0  0  0  0
   34.7430   25.6760   30.2650 H   0  0  0  0  0  0  0  0  0  0  0  0
   36.3910   26.8640   31.6130 H   0  0  0  0  0  0  0  0  0  0  0  0
   36.0930   20.6830   30.8510 C   0  0  0  0  0  0  0  0  0  0  0  0
   35.9370   21.5550   31.9500 C   0  0  0  0  0  0  0  0  0  0  0  0
   35.6380   21.0100   33.2070 C   0  0  0  0  0  0  0  0  0  0  0  0
   35.5130   19.6530   33.3040 N   0  0  0  0  0  0  0  0  0  0  0  0
   35.6670   18.8520   32.2430 C   0  0  0  0  0  0  0  0  0  0  0  0
   35.9560   19.3500   31.0160 N   0  0  0  0  0  0  0  0  0  0  0  0
   36.3210   21.2340   29.9490 H   0  0  0  0  0  0  0  0  0  0  0  0
   35.5050   21.6220   34.0950 H   0  0  0  0  0  0  0  0  0  0  0  0
   35.5590   17.7800   32.3620 H   0  0  0  0  0  0  0  0  0  0  0  0
   38.1100   25.6310   33.3670 C   0  0  0  0  0  0  0  0  0  0  0  0
   38.2210   25.4530   34.7280 C   0  0  0  0  0  0  0  0  0  0  0  0
   37.5120   24.8110   35.2300 H   0  0  0  0  0  0  0  0  0  0  0  0
   39.1880   26.0450   35.5080 C   0  0  0  0  0  3  0  0  0  0  0  0
   40.1140   26.8660   34.9380 C   0  0  0  0  0  0  0  0  0  0  0  0
   40.8660   27.3220   35.5670 H   0  0  0  0  0  0  0  0  0  0  0  0
   40.0790   27.1020   33.5800 C   0  0  0  0  0  0  0  0  0  0  0  0
   40.7930   27.7470   33.0830 H   0  0  0  0  0  0  0  0  0  0  0  0
   39.0840   26.4760   32.8610 C   0  0  0  0  0  3  0  0  0  0  0  0
  1 11  1  0  0  0  0
  1  6  1  0  0  0  0
  2  1  2  0  0  0  0
  3  2  1  0  0  0  0
  3  4  2  0  0  0  0
  4  5  1  0  0  0  0
  5  6  2  0  0  0  0
  5 19  1  0  0  0  0
  7  2  1  0  0  0  0
  8  3  1  0  0  0  0
  9  4  1  0  0  0  0
 10 15  2  0  0  0  0
 10 11  1  0  0  0  0
 11 12  2  0  0  0  0
 12 13  1  0  0  0  0
 12 17  1  0  0  0  0
 14 18  1  0  0  0  0
 14 13  2  0  0  0  0
 15 14  1  0  0  0  0
 16 10  1  0  0  0  0
 19 20  1  0  0  0  0
 20 21  1  0  0  0  0
 20 22  2  0  0  0  0
 23 22  1  0  0  0  0
 23 24  1  0  0  0  0
 25 23  2  0  0  0  0
 26 25  1  0  0  0  0
 27 19  2  0  0  0  0
 27 25  1  0  0  0  0
M  END
>  <minimizedAffinity>
-5.0123601

$$$$
