
 OpenBabel03262520283D

 20 21  0  0  0  0  0  0  0  0999 V2000
   37.3020   30.3880   50.9900 C   0  0  0  0  0  0  0  0  0  0  0  0
   38.2670   31.0410   50.1900 C   0  0  0  0  0  0  0  0  0  0  0  0
   38.0550   31.0610   48.8140 C   0  0  0  0  0  0  0  0  0  0  0  0
   36.9460   30.4610   48.3180 N   0  0  0  0  0  0  0  0  0  0  0  0
   36.0490   29.8490   49.1020 C   0  0  0  0  0  0  0  0  0  0  0  0
   36.2340   29.8200   50.4200 N   0  0  0  0  0  0  0  0  0  0  0  0
   39.0380   31.7220   48.0330 N   0  0  0  0  0  0  0  0  0  0  0  0
   37.4330   30.3510   52.0800 H   0  0  0  0  0  0  0  0  0  0  0  0
   39.1280   31.4980   50.6600 H   0  0  0  0  0  0  0  0  0  0  0  0
   39.7260   31.0590   47.6160 H   0  0  0  0  0  0  0  0  0  0  0  0
   39.2120   32.7300   47.7940 H   0  0  0  0  0  0  0  0  0  0  0  0
   34.8770   29.2230   48.4990 C   0  0  0  0  0  0  0  0  0  0  0  0
   34.4210   28.0080   49.0020 C   0  0  0  0  0  0  0  0  0  0  0  0
   34.8790   27.4900   49.8170 H   0  0  0  0  0  0  0  0  0  0  0  0
   33.3100   27.4500   48.4060 C   0  0  0  0  0  0  0  0  0  0  0  0
   32.6540   28.0460   47.3500 C   0  0  0  0  0  0  0  0  0  0  0  0
   31.7930   27.5830   46.9080 H   0  0  0  0  0  0  0  0  0  0  0  0
   33.1160   29.2600   46.8530 C   0  0  0  0  0  0  0  0  0  0  0  0
   32.5740   29.7050   46.0170 H   0  0  0  0  0  0  0  0  0  0  0  0
   34.2240   29.8250   47.4420 C   0  0  0  0  0  0  0  0  0  0  0  0
  1  8  1  0  0  0  0
  2  9  1  0  0  0  0
  2  1  2  0  0  0  0
  3  2  1  0  0  0  0
  4  3  2  0  0  0  0
  4  5  1  0  0  0  0
  5  6  2  0  0  0  0
  6  1  1  0  0  0  0
  7  3  1  0  0  0  0
 10  7  1  0  0  0  0
 11  7  1  0  0  0  0
 12 13  1  0  0  0  0
 12  5  1  0  0  0  0
 13 14  1  0  0  0  0
 15 13  2  0  0  0  0
 16 15  1  0  0  0  0
 17 16  1  0  0  0  0
 18 16  2  0  0  0  0
 18 20  1  0  0  0  0
 19 18  1  0  0  0  0
 20 12  2  0  0  0  0
M  END
>  <minimizedAffinity>
-4.93135357

>  <minimizedRMSD>
1.67698383

$$$$
