
 OpenBabel03272506153D

 24 25  0  0  0  0  0  0  0  0999 V2000
   38.4750   24.7100   35.1670 C   0  0  0  0  0  0  0  0  0  0  0  0
   37.9580   25.9910   34.9220 C   0  0  0  0  0  0  0  0  0  0  0  0
   37.3010   26.2040   33.7230 C   0  0  0  0  0  0  0  0  0  0  0  0
   37.1720   25.1890   32.8270 N   0  0  0  0  0  0  0  0  0  0  0  0
   37.6900   23.9490   33.1020 C   0  0  0  0  0  0  0  0  0  0  0  0
   38.3430   23.7130   34.2780 N   0  0  0  0  0  0  0  0  0  0  0  0
   38.1140   26.7120   35.6870 H   0  0  0  0  0  0  0  0  0  0  0  0
   37.5570   23.1780   32.3480 H   0  0  0  0  0  0  0  0  0  0  0  0
   36.7620   27.5100   33.4450 C   0  0  0  0  0  0  0  0  0  0  0  0
   36.6300   28.0950   32.2230 C   0  0  0  0  0  0  0  0  0  0  0  0
   36.9550   27.5440   31.3590 H   0  0  0  0  0  0  0  0  0  0  0  0
   36.1090   29.3490   31.9910 C   0  0  0  0  0  3  0  0  0  0  0  0
   35.6820   30.0800   33.0830 C   0  0  0  0  0  0  0  0  0  0  0  0
   35.2740   31.0650   32.8920 H   0  0  0  0  0  0  0  0  0  0  0  0
   35.7790   29.5660   34.3530 C   0  0  0  0  0  0  0  0  0  0  0  0
   35.4440   30.1410   35.1900 H   0  0  0  0  0  0  0  0  0  0  0  0
   36.3130   28.2990   34.5100 C   0  0  0  0  0  3  0  0  0  0  0  0
   39.1590   24.3060   36.3000 O   0  0  0  0  0  0  0  0  0  0  0  0
   37.7610   24.3910   38.5810 O   0  0  0  0  0  0  0  0  0  0  0  0
   38.3980   23.4530   37.5780 P   0  0  0  0  0  0  0  0  0  0  0  0
   37.2150   22.4540   36.8550 O   0  0  0  0  0  0  0  0  0  0  0  0
   37.7180   21.8000   36.2990 H   0  0  0  0  0  0  0  0  0  0  0  0
   39.5350   22.5260   38.3990 O   0  0  0  0  0  0  0  0  0  0  0  0
   39.8710   23.0430   39.1680 H   0  0  0  0  0  0  0  0  0  0  0  0
  1 18  1  0  0  0  0
  2  1  1  0  0  0  0
  2  7  1  0  0  0  0
  3  2  2  0  0  0  0
  4  5  2  0  0  0  0
  4  3  1  0  0  0  0
  5  6  1  0  0  0  0
  6  1  2  0  0  0  0
  8  5  1  0  0  0  0
  9  3  1  0  0  0  0
  9 17  1  0  0  0  0
 10  9  2  0  0  0  0
 11 10  1  0  0  0  0
 12 10  1  0  0  0  0
 12 13  2  0  0  0  0
 13 15  1  0  0  0  0
 14 13  1  0  0  0  0
 15 17  2  0  0  0  0
 15 16  1  0  0  0  0
 18 20  1  0  0  0  0
 20 23  1  0  0  0  0
 20 19  2  0  0  0  0
 21 20  1  0  0  0  0
 22 21  1  0  0  0  0
 23 24  1  0  0  0  0
M  END
>  <minimizedAffinity>
-5.19528389

$$$$

 OpenBabel03272506153D

 24 25  0  0  0  0  0  0  0  0999 V2000
   38.3310   24.5820   36.1370 C   0  0  0  0  0  0  0  0  0  0  0  0
   39.5360   23.8930   35.9320 C   0  0  0  0  0  0  0  0  0  0  0  0
   40.0440   23.1530   36.9830 C   0  0  0  0  0  0  0  0  0  0  0  0
   39.3790   23.1080   38.1690 N   0  0  0  0  0  0  0  0  0  0  0  0
   38.2030   23.7940   38.3330 C   0  0  0  0  0  0  0  0  0  0  0  0
   37.6800   24.5320   37.3100 N   0  0  0  0  0  0  0  0  0  0  0  0
   39.9730   23.9950   34.9680 H   0  0  0  0  0  0  0  0  0  0  0  0
   37.7180   23.7210   39.3020 H   0  0  0  0  0  0  0  0  0  0  0  0
   41.2800   22.4370   36.8010 C   0  0  0  0  0  0  0  0  0  0  0  0
   41.5740   21.1880   37.2560 C   0  0  0  0  0  0  0  0  0  0  0  0
   40.8220   20.6600   37.8120 H   0  0  0  0  0  0  0  0  0  0  0  0
   42.7690   20.5300   37.0630 C   0  0  0  0  0  3  0  0  0  0  0  0
   43.7560   21.1840   36.3510 C   0  0  0  0  0  0  0  0  0  0  0  0
   44.6930   20.6600   36.2050 H   0  0  0  0  0  0  0  0  0  0  0  0
   43.5430   22.4480   35.8560 C   0  0  0  0  0  0  0  0  0  0  0  0
   44.3150   22.9440   35.3050 H   0  0  0  0  0  0  0  0  0  0  0  0
   42.3180   23.0470   36.0880 C   0  0  0  0  0  3  0  0  0  0  0  0
   37.6700   25.3690   35.2110 O   0  0  0  0  0  0  0  0  0  0  0  0
   36.7850   27.8260   34.6250 O   0  0  0  0  0  0  0  0  0  0  0  0
   38.0200   27.0350   35.0030 P   0  0  0  0  0  0  0  0  0  0  0  0
   38.6510   27.5860   36.4930 O   0  0  0  0  0  0  0  0  0  0  0  0
   39.5110   27.1000   36.6170 H   0  0  0  0  0  0  0  0  0  0  0  0
   39.1470   27.2320   33.7730 O   0  0  0  0  0  0  0  0  0  0  0  0
   38.6690   27.3980   32.9270 H   0  0  0  0  0  0  0  0  0  0  0  0
  1  6  1  0  0  0  0
  2  1  2  0  0  0  0
  2  3  1  0  0  0  0
  3  4  2  0  0  0  0
  4  5  1  0  0  0  0
  5  8  1  0  0  0  0
  6  5  2  0  0  0  0
  7  2  1  0  0  0  0
  9  3  1  0  0  0  0
  9 10  1  0  0  0  0
 10 11  1  0  0  0  0
 12 10  2  0  0  0  0
 13 12  1  0  0  0  0
 14 13  1  0  0  0  0
 15 17  1  0  0  0  0
 15 13  2  0  0  0  0
 16 15  1  0  0  0  0
 17  9  2  0  0  0  0
 18  1  1  0  0  0  0
 19 20  2  0  0  0  0
 20 18  1  0  0  0  0
 20 21  1  0  0  0  0
 21 22  1  0  0  0  0
 23 20  1  0  0  0  0
 24 23  1  0  0  0  0
M  END
>  <minimizedAffinity>
-5.05104542

$$$$

 OpenBabel03272506153D

 24 25  0  0  0  0  0  0  0  0999 V2000
   37.0540   27.6040   33.6120 C   0  0  0  0  0  0  0  0  0  0  0  0
   36.3480   28.3910   34.5340 C   0  0  0  0  0  0  0  0  0  0  0  0
   35.7430   29.5450   34.0690 C   0  0  0  0  0  0  0  0  0  0  0  0
   35.8420   29.8830   32.7550 N   0  0  0  0  0  0  0  0  0  0  0  0
   36.5410   29.0890   31.8830 C   0  0  0  0  0  0  0  0  0  0  0  0
   37.1480   27.9450   32.3170 N   0  0  0  0  0  0  0  0  0  0  0  0
   36.3320   28.0360   35.5360 H   0  0  0  0  0  0  0  0  0  0  0  0
   36.5860   29.4110   30.8460 H   0  0  0  0  0  0  0  0  0  0  0  0
   35.0120   30.3720   34.9930 C   0  0  0  0  0  0  0  0  0  0  0  0
   33.6660   30.3720   35.1990 C   0  0  0  0  0  0  0  0  0  0  0  0
   33.0640   29.6930   34.6230 H   0  0  0  0  0  0  0  0  0  0  0  0
   32.9970   31.1790   36.0930 C   0  0  0  0  0  3  0  0  0  0  0  0
   33.7450   32.0630   36.8470 C   0  0  0  0  0  0  0  0  0  0  0  0
   33.2100   32.6940   37.5470 H   0  0  0  0  0  0  0  0  0  0  0  0
   35.1090   32.1280   36.7030 C   0  0  0  0  0  0  0  0  0  0  0  0
   35.6780   32.8160   37.2920 H   0  0  0  0  0  0  0  0  0  0  0  0
   35.7130   31.2870   35.7850 C   0  0  0  0  0  3  0  0  0  0  0  0
   37.7210   26.4230   33.8870 O   0  0  0  0  0  0  0  0  0  0  0  0
   37.7590   25.3360   36.3320 O   0  0  0  0  0  0  0  0  0  0  0  0
   38.5680   26.1640   35.3550 P   0  0  0  0  0  0  0  0  0  0  0  0
   40.0170   25.3570   34.9420 O   0  0  0  0  0  0  0  0  0  0  0  0
   40.5370   26.0040   34.3920 H   0  0  0  0  0  0  0  0  0  0  0  0
   38.8990   27.6390   36.0890 O   0  0  0  0  0  0  0  0  0  0  0  0
   38.1810   27.8420   36.7340 H   0  0  0  0  0  0  0  0  0  0  0  0
  1 18  1  0  0  0  0
  1  2  1  0  0  0  0
  2  7  1  0  0  0  0
  3  2  2  0  0  0  0
  3  9  1  0  0  0  0
  4  3  1  0  0  0  0
  5  6  1  0  0  0  0
  5  4  2  0  0  0  0
  6  1  2  0  0  0  0
  8  5  1  0  0  0  0
  9 10  2  0  0  0  0
  9 17  1  0  0  0  0
 10 12  1  0  0  0  0
 11 10  1  0  0  0  0
 12 13  2  0  0  0  0
 13 14  1  0  0  0  0
 15 13  1  0  0  0  0
 15 16  1  0  0  0  0
 17 15  2  0  0  0  0
 18 20  1  0  0  0  0
 20 23  1  0  0  0  0
 20 19  2  0  0  0  0
 21 20  1  0  0  0  0
 22 21  1  0  0  0  0
 23 24  1  0  0  0  0
M  END
>  <minimizedAffinity>
-5.01393986

$$$$

 OpenBabel03272506153D

 24 25  0  0  0  0  0  0  0  0999 V2000
   38.3800   24.3650   35.6920 C   0  0  0  0  0  0  0  0  0  0  0  0
   37.7490   25.3060   34.8640 C   0  0  0  0  0  0  0  0  0  0  0  0
   38.5480   26.1140   34.0770 C   0  0  0  0  0  0  0  0  0  0  0  0
   39.9010   25.9820   34.1190 N   0  0  0  0  0  0  0  0  0  0  0  0
   40.4840   25.0500   34.9400 C   0  0  0  0  0  0  0  0  0  0  0  0
   39.7160   24.2400   35.7280 N   0  0  0  0  0  0  0  0  0  0  0  0
   36.6870   25.3270   34.9070 H   0  0  0  0  0  0  0  0  0  0  0  0
   41.5690   24.9910   34.9320 H   0  0  0  0  0  0  0  0  0  0  0  0
   37.9270   27.0880   33.2190 C   0  0  0  0  0  0  0  0  0  0  0  0
   36.8310   27.8460   33.5040 C   0  0  0  0  0  0  0  0  0  0  0  0
   36.3640   27.7220   34.4630 H   0  0  0  0  0  0  0  0  0  0  0  0
   36.2600   28.7710   32.6580 C   0  0  0  0  0  3  0  0  0  0  0  0
   36.8390   28.9520   31.4160 C   0  0  0  0  0  0  0  0  0  0  0  0
   36.3840   29.6810   30.7580 H   0  0  0  0  0  0  0  0  0  0  0  0
   37.9470   28.2290   31.0470 C   0  0  0  0  0  0  0  0  0  0  0  0
   38.3870   28.3780   30.0840 H   0  0  0  0  0  0  0  0  0  0  0  0
   38.4670   27.3170   31.9490 C   0  0  0  0  0  3  0  0  0  0  0  0
   37.7540   23.4750   36.5450 O   0  0  0  0  0  0  0  0  0  0  0  0
   38.1100   24.7100   38.8920 O   0  0  0  0  0  0  0  0  0  0  0  0
   38.1520   23.3590   38.2090 P   0  0  0  0  0  0  0  0  0  0  0  0
   37.0080   22.2980   38.9070 O   0  0  0  0  0  0  0  0  0  0  0  0
   37.1720   21.4110   38.4860 H   0  0  0  0  0  0  0  0  0  0  0  0
   39.7090   22.7500   38.3810 O   0  0  0  0  0  0  0  0  0  0  0  0
   40.3390   23.5050   38.4540 H   0  0  0  0  0  0  0  0  0  0  0  0
  1  6  1  0  0  0  0
  1 18  1  0  0  0  0
  2  7  1  0  0  0  0
  2  1  2  0  0  0  0
  3  4  2  0  0  0  0
  3  2  1  0  0  0  0
  4  5  1  0  0  0  0
  5  6  2  0  0  0  0
  8  5  1  0  0  0  0
  9 10  1  0  0  0  0
  9  3  1  0  0  0  0
 10 11  1  0  0  0  0
 12 10  2  0  0  0  0
 13 12  1  0  0  0  0
 14 13  1  0  0  0  0
 15 13  2  0  0  0  0
 15 17  1  0  0  0  0
 16 15  1  0  0  0  0
 17  9  2  0  0  0  0
 18 20  1  0  0  0  0
 20 23  1  0  0  0  0
 20 19  2  0  0  0  0
 20 21  1  0  0  0  0
 22 21  1  0  0  0  0
 23 24  1  0  0  0  0
M  END
>  <minimizedAffinity>
-5.00372601

$$$$

 OpenBabel03272506153D

 24 25  0  0  0  0  0  0  0  0999 V2000
   37.4370   26.3500   33.1900 C   0  0  0  0  0  0  0  0  0  0  0  0
   37.9920   25.3560   34.0100 C   0  0  0  0  0  0  0  0  0  0  0  0
   38.1460   25.6390   35.3550 C   0  0  0  0  0  0  0  0  0  0  0  0
   37.7640   26.8500   35.8440 N   0  0  0  0  0  0  0  0  0  0  0  0
   37.2250   27.7970   35.0120 C   0  0  0  0  0  0  0  0  0  0  0  0
   37.0620   27.5420   33.6800 N   0  0  0  0  0  0  0  0  0  0  0  0
   38.2560   24.4460   33.5280 H   0  0  0  0  0  0  0  0  0  0  0  0
   36.9400   28.7450   35.4600 H   0  0  0  0  0  0  0  0  0  0  0  0
   38.7140   24.6380   36.2190 C   0  0  0  0  0  0  0  0  0  0  0  0
   38.2700   24.2820   37.4570 C   0  0  0  0  0  0  0  0  0  0  0  0
   37.4090   24.7870   37.8520 H   0  0  0  0  0  0  0  0  0  0  0  0
   38.8380   23.3170   38.2600 C   0  0  0  0  0  3  0  0  0  0  0  0
   39.9480   22.6500   37.7780 C   0  0  0  0  0  0  0  0  0  0  0  0
   40.3880   21.8930   38.4160 H   0  0  0  0  0  0  0  0  0  0  0  0
   40.4610   22.9470   36.5390 C   0  0  0  0  0  0  0  0  0  0  0  0
   41.3210   22.4230   36.1770 H   0  0  0  0  0  0  0  0  0  0  0  0
   39.8390   23.9280   35.7880 C   0  0  0  0  0  3  0  0  0  0  0  0
   37.2060   26.2540   31.8290 O   0  0  0  0  0  0  0  0  0  0  0  0
   36.3030   23.7520   32.1240 O   0  0  0  0  0  0  0  0  0  0  0  0
   36.5680   24.8380   31.1020 P   0  0  0  0  0  0  0  0  0  0  0  0
   35.1150   25.3040   30.3320 O   0  0  0  0  0  0  0  0  0  0  0  0
   35.3830   25.9320   29.6080 H   0  0  0  0  0  0  0  0  0  0  0  0
   37.6630   24.2290   29.9830 O   0  0  0  0  0  0  0  0  0  0  0  0
   38.2230   23.5480   30.4250 H   0  0  0  0  0  0  0  0  0  0  0  0
  1  6  2  0  0  0  0
  1  2  1  0  0  0  0
  2  3  2  0  0  0  0
  3  4  1  0  0  0  0
  3  9  1  0  0  0  0
  5  8  1  0  0  0  0
  5  4  2  0  0  0  0
  6  5  1  0  0  0  0
  7  2  1  0  0  0  0
  9 10  1  0  0  0  0
 10 11  1  0  0  0  0
 10 12  2  0  0  0  0
 13 12  1  0  0  0  0
 13 14  1  0  0  0  0
 15 13  2  0  0  0  0
 16 15  1  0  0  0  0
 17  9  2  0  0  0  0
 17 15  1  0  0  0  0
 18  1  1  0  0  0  0
 20 18  1  0  0  0  0
 20 19  2  0  0  0  0
 21 20  1  0  0  0  0
 22 21  1  0  0  0  0
 23 24  1  0  0  0  0
 23 20  1  0  0  0  0
M  END
>  <minimizedAffinity>
-4.89482975

$$$$

 OpenBabel03272506153D

 24 25  0  0  0  0  0  0  0  0999 V2000
   37.2200   26.2500   33.1920 C   0  0  0  0  0  0  0  0  0  0  0  0
   37.7930   25.2770   34.0250 C   0  0  0  0  0  0  0  0  0  0  0  0
   38.0490   25.6210   35.3400 C   0  0  0  0  0  0  0  0  0  0  0  0
   37.7470   26.8690   35.7880 N   0  0  0  0  0  0  0  0  0  0  0  0
   37.1870   27.7940   34.9450 C   0  0  0  0  0  0  0  0  0  0  0  0
   36.9240   27.4800   33.6420 N   0  0  0  0  0  0  0  0  0  0  0  0
   37.9890   24.3340   33.5750 H   0  0  0  0  0  0  0  0  0  0  0  0
   36.9690   28.7750   35.3600 H   0  0  0  0  0  0  0  0  0  0  0  0
   38.6370   24.6420   36.2160 C   0  0  0  0  0  0  0  0  0  0  0  0
   38.2230   24.3180   37.4720 C   0  0  0  0  0  0  0  0  0  0  0  0
   37.3700   24.8330   37.8740 H   0  0  0  0  0  0  0  0  0  0  0  0
   38.8090   23.3740   38.2860 C   0  0  0  0  0  3  0  0  0  0  0  0
   39.9090   22.6950   37.7960 C   0  0  0  0  0  0  0  0  0  0  0  0
   40.3640   21.9550   38.4430 H   0  0  0  0  0  0  0  0  0  0  0  0
   40.3930   22.9600   36.5390 C   0  0  0  0  0  0  0  0  0  0  0  0
   41.2450   22.4280   36.1700 H   0  0  0  0  0  0  0  0  0  0  0  0
   39.7530   23.9220   35.7770 C   0  0  0  0  0  3  0  0  0  0  0  0
   36.8930   26.0950   31.8570 O   0  0  0  0  0  0  0  0  0  0  0  0
   38.7030   27.9380   31.1570 O   0  0  0  0  0  0  0  0  0  0  0  0
   37.7020   26.9430   30.6060 P   0  0  0  0  0  0  0  0  0  0  0  0
   38.4920   25.7640   29.6550 O   0  0  0  0  0  0  0  0  0  0  0  0
   37.7670   25.2200   29.2430 H   0  0  0  0  0  0  0  0  0  0  0  0
   36.5880   27.8000   29.6850 O   0  0  0  0  0  0  0  0  0  0  0  0
   36.5220   28.7180   30.0370 H   0  0  0  0  0  0  0  0  0  0  0  0
  1  6  2  0  0  0  0
  1  2  1  0  0  0  0
  2  3  2  0  0  0  0
  3  4  1  0  0  0  0
  3  9  1  0  0  0  0
  5  8  1  0  0  0  0
  5  4  2  0  0  0  0
  6  5  1  0  0  0  0
  7  2  1  0  0  0  0
  9 10  1  0  0  0  0
 10 11  1  0  0  0  0
 10 12  2  0  0  0  0
 13 12  1  0  0  0  0
 13 14  1  0  0  0  0
 15 13  2  0  0  0  0
 16 15  1  0  0  0  0
 17  9  2  0  0  0  0
 17 15  1  0  0  0  0
 18  1  1  0  0  0  0
 20 19  2  0  0  0  0
 20 18  1  0  0  0  0
 21 20  1  0  0  0  0
 22 21  1  0  0  0  0
 23 24  1  0  0  0  0
 23 20  1  0  0  0  0
M  END
>  <minimizedAffinity>
-4.86785507

$$$$

 OpenBabel03272506153D

 24 25  0  0  0  0  0  0  0  0999 V2000
   38.2870   24.8730   35.6490 C   0  0  0  0  0  0  0  0  0  0  0  0
   37.3830   25.7900   35.0920 C   0  0  0  0  0  0  0  0  0  0  0  0
   37.9020   26.8900   34.4340 C   0  0  0  0  0  0  0  0  0  0  0  0
   39.2490   27.0560   34.3420 N   0  0  0  0  0  0  0  0  0  0  0  0
   40.1020   26.1390   34.8990 C   0  0  0  0  0  0  0  0  0  0  0  0
   39.6150   25.0430   35.5540 N   0  0  0  0  0  0  0  0  0  0  0  0
   36.3520   25.5650   35.2200 H   0  0  0  0  0  0  0  0  0  0  0  0
   41.1670   26.3250   34.7950 H   0  0  0  0  0  0  0  0  0  0  0  0
   36.9970   27.8470   33.8530 C   0  0  0  0  0  0  0  0  0  0  0  0
   36.1820   28.7100   34.5220 C   0  0  0  0  0  0  0  0  0  0  0  0
   36.1980   28.6940   35.5960 H   0  0  0  0  0  0  0  0  0  0  0  0
   35.3260   29.6150   33.9340 C   0  0  0  0  0  3  0  0  0  0  0  0
   35.2840   29.6590   32.5540 C   0  0  0  0  0  0  0  0  0  0  0  0
   34.6080   30.3730   32.1000 H   0  0  0  0  0  0  0  0  0  0  0  0
   36.0730   28.8230   31.8010 C   0  0  0  0  0  0  0  0  0  0  0  0
   36.0320   28.8660   30.7330 H   0  0  0  0  0  0  0  0  0  0  0  0
   36.9090   27.9390   32.4600 C   0  0  0  0  0  3  0  0  0  0  0  0
   37.9610   23.7190   36.3400 O   0  0  0  0  0  0  0  0  0  0  0  0
   39.6670   23.0370   38.2850 O   0  0  0  0  0  0  0  0  0  0  0  0
   38.2630   23.5350   38.0180 P   0  0  0  0  0  0  0  0  0  0  0  0
   38.0280   25.0740   38.7220 O   0  0  0  0  0  0  0  0  0  0  0  0
   37.0620   25.2820   38.6000 H   0  0  0  0  0  0  0  0  0  0  0  0
   37.1920   22.4150   38.6690 O   0  0  0  0  0  0  0  0  0  0  0  0
   37.6200   21.5270   38.6650 H   0  0  0  0  0  0  0  0  0  0  0  0
  1 18  1  0  0  0  0
  2  7  1  0  0  0  0
  2  1  2  0  0  0  0
  3  2  1  0  0  0  0
  4  3  2  0  0  0  0
  4  5  1  0  0  0  0
  5  6  2  0  0  0  0
  6  1  1  0  0  0  0
  8  5  1  0  0  0  0
  9  3  1  0  0  0  0
  9 10  1  0  0  0  0
 10 11  1  0  0  0  0
 12 10  2  0  0  0  0
 13 12  1  0  0  0  0
 14 13  1  0  0  0  0
 15 17  1  0  0  0  0
 15 13  2  0  0  0  0
 16 15  1  0  0  0  0
 17  9  2  0  0  0  0
 18 20  1  0  0  0  0
 20 19  2  0  0  0  0
 20 23  1  0  0  0  0
 20 21  1  0  0  0  0
 22 21  1  0  0  0  0
 24 23  1  0  0  0  0
M  END
>  <minimizedAffinity>
-4.81235123

$$$$

 OpenBabel03272506153D

 24 25  0  0  0  0  0  0  0  0999 V2000
   37.7310   26.0020   32.8010 C   0  0  0  0  0  0  0  0  0  0  0  0
   37.9810   25.6750   34.1430 C   0  0  0  0  0  0  0  0  0  0  0  0
   38.2970   24.3610   34.4390 C   0  0  0  0  0  0  0  0  0  0  0  0
   38.3570   23.4340   33.4450 N   0  0  0  0  0  0  0  0  0  0  0  0
   38.1070   23.7910   32.1450 C   0  0  0  0  0  0  0  0  0  0  0  0
   37.7930   25.0820   31.8260 N   0  0  0  0  0  0  0  0  0  0  0  0
   37.9080   26.4740   34.8400 H   0  0  0  0  0  0  0  0  0  0  0  0
   38.1690   23.0080   31.3950 H   0  0  0  0  0  0  0  0  0  0  0  0
   38.5580   23.9970   35.8070 C   0  0  0  0  0  0  0  0  0  0  0  0
   39.5350   23.1630   36.2570 C   0  0  0  0  0  0  0  0  0  0  0  0
   40.1940   22.7170   35.5350 H   0  0  0  0  0  0  0  0  0  0  0  0
   39.7580   22.8350   37.5770 C   0  0  0  0  0  3  0  0  0  0  0  0
   38.9260   23.3930   38.5280 C   0  0  0  0  0  0  0  0  0  0  0  0
   39.1080   23.1290   39.5630 H   0  0  0  0  0  0  0  0  0  0  0  0
   37.9140   24.2450   38.1610 C   0  0  0  0  0  0  0  0  0  0  0  0
   37.2760   24.6720   38.9070 H   0  0  0  0  0  0  0  0  0  0  0  0
   37.7490   24.5300   36.8170 C   0  0  0  0  0  3  0  0  0  0  0  0
   37.4020   27.2540   32.3120 O   0  0  0  0  0  0  0  0  0  0  0  0
   36.2810   28.8920   30.5180 O   0  0  0  0  0  0  0  0  0  0  0  0
   36.8360   27.4970   30.7120 P   0  0  0  0  0  0  0  0  0  0  0  0
   38.1750   27.2360   29.6810 O   0  0  0  0  0  0  0  0  0  0  0  0
   38.4120   26.2750   29.7860 H   0  0  0  0  0  0  0  0  0  0  0  0
   35.6040   26.4060   30.3720 O   0  0  0  0  0  0  0  0  0  0  0  0
   34.7380   26.8350   30.5650 H   0  0  0  0  0  0  0  0  0  0  0  0
  1  2  1  0  0  0  0
  2  3  2  0  0  0  0
  2  7  1  0  0  0  0
  3  9  1  0  0  0  0
  4  3  1  0  0  0  0
  5  4  2  0  0  0  0
  6  5  1  0  0  0  0
  6  1  2  0  0  0  0
  8  5  1  0  0  0  0
  9 10  2  0  0  0  0
  9 17  1  0  0  0  0
 10 12  1  0  0  0  0
 11 10  1  0  0  0  0
 12 13  2  0  0  0  0
 13 14  1  0  0  0  0
 15 13  1  0  0  0  0
 15 16  1  0  0  0  0
 17 15  2  0  0  0  0
 18  1  1  0  0  0  0
 19 20  2  0  0  0  0
 20 18  1  0  0  0  0
 21 22  1  0  0  0  0
 21 20  1  0  0  0  0
 23 24  1  0  0  0  0
 23 20  1  0  0  0  0
M  END
>  <minimizedAffinity>
-4.80016661

$$$$

 OpenBabel03272506153D

 24 25  0  0  0  0  0  0  0  0999 V2000
   36.4310   28.0090   32.6710 C   0  0  0  0  0  0  0  0  0  0  0  0
   35.9200   28.6520   33.8090 C   0  0  0  0  0  0  0  0  0  0  0  0
   35.5470   29.9780   33.6900 C   0  0  0  0  0  0  0  0  0  0  0  0
   35.6800   30.6180   32.4970 N   0  0  0  0  0  0  0  0  0  0  0  0
   36.1830   29.9580   31.4060 C   0  0  0  0  0  0  0  0  0  0  0  0
   36.5590   28.6480   31.4970 N   0  0  0  0  0  0  0  0  0  0  0  0
   35.8580   28.0600   34.6900 H   0  0  0  0  0  0  0  0  0  0  0  0
   36.2660   30.5220   30.4800 H   0  0  0  0  0  0  0  0  0  0  0  0
   35.0200   30.6610   34.8420 C   0  0  0  0  0  0  0  0  0  0  0  0
   35.6900   31.5240   35.6560 C   0  0  0  0  0  0  0  0  0  0  0  0
   36.7210   31.7330   35.4360 H   0  0  0  0  0  0  0  0  0  0  0  0
   35.1550   32.1620   36.7530 C   0  0  0  0  0  3  0  0  0  0  0  0
   33.8310   31.9130   37.0610 C   0  0  0  0  0  0  0  0  0  0  0  0
   33.4190   32.4180   37.9260 H   0  0  0  0  0  0  0  0  0  0  0  0
   33.0820   31.0550   36.2930 C   0  0  0  0  0  0  0  0  0  0  0  0
   32.0580   30.8710   36.5400 H   0  0  0  0  0  0  0  0  0  0  0  0
   33.6860   30.4500   35.2050 C   0  0  0  0  0  3  0  0  0  0  0  0
   36.8550   26.6950   32.5930 O   0  0  0  0  0  0  0  0  0  0  0  0
   37.0270   24.3300   31.3530 O   0  0  0  0  0  0  0  0  0  0  0  0
   36.8710   25.8180   31.1200 P   0  0  0  0  0  0  0  0  0  0  0  0
   35.3860   26.1510   30.3430 O   0  0  0  0  0  0  0  0  0  0  0  0
   35.4060   27.1220   30.1280 H   0  0  0  0  0  0  0  0  0  0  0  0
   38.1630   26.3230   30.1710 O   0  0  0  0  0  0  0  0  0  0  0  0
   38.9320   25.7300   30.3390 H   0  0  0  0  0  0  0  0  0  0  0  0
  1  2  1  0  0  0  0
  2  7  1  0  0  0  0
  3  2  2  0  0  0  0
  3  9  1  0  0  0  0
  4  3  1  0  0  0  0
  5  6  1  0  0  0  0
  5  4  2  0  0  0  0
  6  1  2  0  0  0  0
  8  5  1  0  0  0  0
  9 17  2  0  0  0  0
  9 10  1  0  0  0  0
 10 12  2  0  0  0  0
 11 10  1  0  0  0  0
 12 13  1  0  0  0  0
 13 14  1  0  0  0  0
 15 16  1  0  0  0  0
 15 13  2  0  0  0  0
 17 15  1  0  0  0  0
 18  1  1  0  0  0  0
 20 19  2  0  0  0  0
 20 18  1  0  0  0  0
 21 20  1  0  0  0  0
 22 21  1  0  0  0  0
 23 24  1  0  0  0  0
 23 20  1  0  0  0  0
M  END
>  <minimizedAffinity>
-4.73885059

$$$$
