
 OpenBabel03262520283D

 20 21  0  0  0  0  0  0  0  0999 V2000
   40.7770   23.1350   36.1950 C   0  0  0  0  0  0  0  0  0  0  0  0
   40.2440   22.6130   37.3970 C   0  0  0  0  0  0  0  0  0  0  0  0
   39.0430   23.1500   37.8540 C   0  0  0  0  0  0  0  0  0  0  0  0
   38.4530   24.1320   37.1320 N   0  0  0  0  0  0  0  0  0  0  0  0
   38.9820   24.6060   35.9970 C   0  0  0  0  0  0  0  0  0  0  0  0
   40.1300   24.1060   35.5430 N   0  0  0  0  0  0  0  0  0  0  0  0
   38.5310   22.6100   39.0620 N   0  0  0  0  0  0  0  0  0  0  0  0
   41.7220   22.7380   35.8020 H   0  0  0  0  0  0  0  0  0  0  0  0
   40.7750   21.8270   37.9180 H   0  0  0  0  0  0  0  0  0  0  0  0
   38.7630   23.1990   39.8910 H   0  0  0  0  0  0  0  0  0  0  0  0
   37.9720   21.7500   39.2880 H   0  0  0  0  0  0  0  0  0  0  0  0
   38.2910   25.6660   35.2700 C   0  0  0  0  0  0  0  0  0  0  0  0
   38.1580   26.9200   35.8600 C   0  0  0  0  0  0  0  0  0  0  0  0
   38.5350   27.1670   36.8300 H   0  0  0  0  0  0  0  0  0  0  0  0
   37.5000   27.8940   35.1400 C   0  0  0  0  0  3  0  0  0  0  0  0
   36.9810   27.6680   33.8840 C   0  0  0  0  0  0  0  0  0  0  0  0
   36.4730   28.4480   33.3520 H   0  0  0  0  0  0  0  0  0  0  0  0
   37.1170   26.4120   33.3010 C   0  0  0  0  0  0  0  0  0  0  0  0
   36.6960   26.2660   32.3060 H   0  0  0  0  0  0  0  0  0  0  0  0
   37.7740   25.4330   34.0120 C   0  0  0  0  0  3  0  0  0  0  0  0
  1  2  1  0  0  0  0
  2  3  2  0  0  0  0
  2  9  1  0  0  0  0
  3  7  1  0  0  0  0
  4  3  1  0  0  0  0
  5  4  2  0  0  0  0
  6  5  1  0  0  0  0
  6  1  2  0  0  0  0
  7 11  1  0  0  0  0
  7 10  1  0  0  0  0
  8  1  1  0  0  0  0
 12 13  1  0  0  0  0
 12  5  1  0  0  0  0
 13 14  1  0  0  0  0
 15 13  2  0  0  0  0
 16 15  1  0  0  0  0
 17 16  1  0  0  0  0
 18 16  2  0  0  0  0
 18 20  1  0  0  0  0
 19 18  1  0  0  0  0
 20 12  2  0  0  0  0
M  END
>  <minimizedAffinity>
-4.6741457

$$$$

 OpenBabel03262520283D

 20 21  0  0  0  0  0  0  0  0999 V2000
   37.9310   24.3260   38.2380 C   0  0  0  0  0  0  0  0  0  0  0  0
   38.7670   23.2110   38.4770 C   0  0  0  0  0  0  0  0  0  0  0  0
   39.7070   22.8900   37.5020 C   0  0  0  0  0  0  0  0  0  0  0  0
   39.7740   23.6550   36.3860 N   0  0  0  0  0  0  0  0  0  0  0  0
   38.9680   24.7060   36.1870 C   0  0  0  0  0  0  0  0  0  0  0  0
   38.0620   25.0290   37.1090 N   0  0  0  0  0  0  0  0  0  0  0  0
   40.5320   21.7660   37.7660 N   0  0  0  0  0  0  0  0  0  0  0  0
   37.1770   24.6110   38.9830 H   0  0  0  0  0  0  0  0  0  0  0  0
   38.6530   22.6470   39.3940 H   0  0  0  0  0  0  0  0  0  0  0  0
   40.1900   20.9020   37.2930 H   0  0  0  0  0  0  0  0  0  0  0  0
   41.4060   21.6300   38.3330 H   0  0  0  0  0  0  0  0  0  0  0  0
   39.0960   25.4870   34.9610 C   0  0  0  0  0  0  0  0  0  0  0  0
   40.1530   26.3840   34.8330 C   0  0  0  0  0  0  0  0  0  0  0  0
   40.8940   26.5450   35.5860 H   0  0  0  0  0  0  0  0  0  0  0  0
   40.2380   27.1020   33.6590 C   0  0  0  0  0  3  0  0  0  0  0  0
   39.3290   26.9620   32.6330 C   0  0  0  0  0  0  0  0  0  0  0  0
   39.4240   27.5370   31.7330 H   0  0  0  0  0  0  0  0  0  0  0  0
   38.2750   26.0630   32.7690 C   0  0  0  0  0  0  0  0  0  0  0  0
   37.5730   25.9760   31.9380 H   0  0  0  0  0  0  0  0  0  0  0  0
   38.1820   25.3410   33.9370 C   0  0  0  0  0  3  0  0  0  0  0  0
  1  2  1  0  0  0  0
  1  8  1  0  0  0  0
  2  9  1  0  0  0  0
  3  7  1  0  0  0  0
  3  2  2  0  0  0  0
  4  3  1  0  0  0  0
  5  4  2  0  0  0  0
  5  6  1  0  0  0  0
  6  1  2  0  0  0  0
  7 11  1  0  0  0  0
 10  7  1  0  0  0  0
 12  5  1  0  0  0  0
 13 12  1  0  0  0  0
 13 14  1  0  0  0  0
 15 13  2  0  0  0  0
 16 18  2  0  0  0  0
 16 15  1  0  0  0  0
 17 16  1  0  0  0  0
 18 20  1  0  0  0  0
 19 18  1  0  0  0  0
 20 12  2  0  0  0  0
M  END
>  <minimizedAffinity>
-4.59973574

$$$$

 OpenBabel03262520283D

 20 21  0  0  0  0  0  0  0  0999 V2000
   36.7360   27.8620   33.2790 C   0  0  0  0  0  0  0  0  0  0  0  0
   36.6440   28.2740   31.9290 C   0  0  0  0  0  0  0  0  0  0  0  0
   35.9630   29.4590   31.6640 C   0  0  0  0  0  0  0  0  0  0  0  0
   35.4300   30.1490   32.7000 N   0  0  0  0  0  0  0  0  0  0  0  0
   35.5340   29.7340   33.9690 C   0  0  0  0  0  0  0  0  0  0  0  0
   36.1820   28.6030   34.2430 N   0  0  0  0  0  0  0  0  0  0  0  0
   35.8830   29.8490   30.3020 N   0  0  0  0  0  0  0  0  0  0  0  0
   37.2660   26.9330   33.5300 H   0  0  0  0  0  0  0  0  0  0  0  0
   37.0960   27.6670   31.1550 H   0  0  0  0  0  0  0  0  0  0  0  0
   34.9760   29.5800   29.8630 H   0  0  0  0  0  0  0  0  0  0  0  0
   36.5430   30.3470   29.6540 H   0  0  0  0  0  0  0  0  0  0  0  0
   34.9360   30.5280   35.0360 C   0  0  0  0  0  0  0  0  0  0  0  0
   35.7400   31.3930   35.7730 C   0  0  0  0  0  0  0  0  0  0  0  0
   36.7890   31.5180   35.6080 H   0  0  0  0  0  0  0  0  0  0  0  0
   35.1370   32.1260   36.7720 C   0  0  0  0  0  3  0  0  0  0  0  0
   33.7910   32.0310   37.0560 C   0  0  0  0  0  0  0  0  0  0  0  0
   33.3540   32.6160   37.8420 H   0  0  0  0  0  0  0  0  0  0  0  0
   32.9940   31.1650   36.3160 C   0  0  0  0  0  0  0  0  0  0  0  0
   31.9330   31.1130   36.5660 H   0  0  0  0  0  0  0  0  0  0  0  0
   33.5870   30.4290   35.3160 C   0  0  0  0  0  3  0  0  0  0  0  0
  1  8  1  0  0  0  0
  1  6  1  0  0  0  0
  2  1  2  0  0  0  0
  3  2  1  0  0  0  0
  3  4  2  0  0  0  0
  4  5  1  0  0  0  0
  5  6  2  0  0  0  0
  5 12  1  0  0  0  0
  7  3  1  0  0  0  0
  9  2  1  0  0  0  0
 10  7  1  0  0  0  0
 11  7  1  0  0  0  0
 12 20  2  0  0  0  0
 12 13  1  0  0  0  0
 13 15  2  0  0  0  0
 14 13  1  0  0  0  0
 15 16  1  0  0  0  0
 16 17  1  0  0  0  0
 18 19  1  0  0  0  0
 18 16  2  0  0  0  0
 20 18  1  0  0  0  0
M  END
>  <minimizedAffinity>
-4.27662277

$$$$

 OpenBabel03262520283D

 20 21  0  0  0  0  0  0  0  0999 V2000
   35.6090   29.8080   32.3670 C   0  0  0  0  0  0  0  0  0  0  0  0
   35.8470   29.5340   31.0010 C   0  0  0  0  0  0  0  0  0  0  0  0
   36.6250   28.4210   30.6940 C   0  0  0  0  0  0  0  0  0  0  0  0
   37.1090   27.6650   31.7080 N   0  0  0  0  0  0  0  0  0  0  0  0
   36.8660   27.9500   32.9940 C   0  0  0  0  0  0  0  0  0  0  0  0
   36.1230   29.0100   33.3080 N   0  0  0  0  0  0  0  0  0  0  0  0
   36.8500   28.1690   29.3160 N   0  0  0  0  0  0  0  0  0  0  0  0
   34.9990   30.6760   32.6500 H   0  0  0  0  0  0  0  0  0  0  0  0
   35.4260   30.1850   30.2450 H   0  0  0  0  0  0  0  0  0  0  0  0
   37.7730   28.5310   28.9910 H   0  0  0  0  0  0  0  0  0  0  0  0
   36.2850   27.6990   28.5660 H   0  0  0  0  0  0  0  0  0  0  0  0
   37.4190   27.0910   34.0360 C   0  0  0  0  0  0  0  0  0  0  0  0
   37.5700   25.7300   33.7870 C   0  0  0  0  0  0  0  0  0  0  0  0
   37.3050   25.2590   32.8650 H   0  0  0  0  0  0  0  0  0  0  0  0
   38.0970   24.9540   34.7970 C   0  0  0  0  0  3  0  0  0  0  0  0
   38.4680   25.4730   36.0190 C   0  0  0  0  0  0  0  0  0  0  0  0
   38.8730   24.8400   36.7840 H   0  0  0  0  0  0  0  0  0  0  0  0
   38.3130   26.8340   36.2610 C   0  0  0  0  0  0  0  0  0  0  0  0
   38.6160   27.2130   37.2380 H   0  0  0  0  0  0  0  0  0  0  0  0
   37.7890   27.6180   35.2580 C   0  0  0  0  0  3  0  0  0  0  0  0
  1  8  1  0  0  0  0
  1  6  1  0  0  0  0
  2  1  2  0  0  0  0
  3  2  1  0  0  0  0
  3  4  2  0  0  0  0
  4  5  1  0  0  0  0
  5  6  2  0  0  0  0
  5 12  1  0  0  0  0
  7  3  1  0  0  0  0
  9  2  1  0  0  0  0
 10  7  1  0  0  0  0
 11  7  1  0  0  0  0
 12 20  1  0  0  0  0
 13 12  2  0  0  0  0
 13 15  1  0  0  0  0
 14 13  1  0  0  0  0
 15 16  2  0  0  0  0
 16 18  1  0  0  0  0
 16 17  1  0  0  0  0
 18 19  1  0  0  0  0
 20 18  2  0  0  0  0
M  END
>  <minimizedAffinity>
-4.27422285

$$$$

 OpenBabel03262520283D

 20 21  0  0  0  0  0  0  0  0999 V2000
   37.4520   25.7290   32.6950 C   0  0  0  0  0  0  0  0  0  0  0  0
   36.8870   26.9920   32.9890 C   0  0  0  0  0  0  0  0  0  0  0  0
   36.8770   27.3980   34.3200 C   0  0  0  0  0  0  0  0  0  0  0  0
   37.4050   26.5740   35.2560 N   0  0  0  0  0  0  0  0  0  0  0  0
   37.9340   25.3830   34.9470 C   0  0  0  0  0  0  0  0  0  0  0  0
   37.9530   24.9760   33.6790 N   0  0  0  0  0  0  0  0  0  0  0  0
   36.3030   28.6680   34.5880 N   0  0  0  0  0  0  0  0  0  0  0  0
   37.4780   25.3730   31.6560 H   0  0  0  0  0  0  0  0  0  0  0  0
   36.4830   27.5950   32.1850 H   0  0  0  0  0  0  0  0  0  0  0  0
   35.3160   28.5970   34.9150 H   0  0  0  0  0  0  0  0  0  0  0  0
   36.6660   29.6510   34.5250 H   0  0  0  0  0  0  0  0  0  0  0  0
   38.4860   24.5460   36.0070 C   0  0  0  0  0  0  0  0  0  0  0  0
   39.6470   23.8170   35.7630 C   0  0  0  0  0  0  0  0  0  0  0  0
   40.1750   23.8280   34.8330 H   0  0  0  0  0  0  0  0  0  0  0  0
   40.1370   23.0390   36.7900 C   0  0  0  0  0  3  0  0  0  0  0  0
   39.5240   22.9620   38.0220 C   0  0  0  0  0  0  0  0  0  0  0  0
   39.9320   22.3450   38.8000 H   0  0  0  0  0  0  0  0  0  0  0  0
   38.3640   23.6920   38.2580 C   0  0  0  0  0  0  0  0  0  0  0  0
   37.9050   23.6090   39.2440 H   0  0  0  0  0  0  0  0  0  0  0  0
   37.8680   24.4730   37.2390 C   0  0  0  0  0  3  0  0  0  0  0  0
  1  2  2  0  0  0  0
  1  6  1  0  0  0  0
  2  3  1  0  0  0  0
  3  7  1  0  0  0  0
  3  4  2  0  0  0  0
  5  4  1  0  0  0  0
  5 12  1  0  0  0  0
  6  5  2  0  0  0  0
  7 10  1  0  0  0  0
  8  1  1  0  0  0  0
  9  2  1  0  0  0  0
 11  7  1  0  0  0  0
 12 20  1  0  0  0  0
 13 12  2  0  0  0  0
 13 15  1  0  0  0  0
 14 13  1  0  0  0  0
 15 16  2  0  0  0  0
 16 18  1  0  0  0  0
 16 17  1  0  0  0  0
 18 19  1  0  0  0  0
 20 18  2  0  0  0  0
M  END
>  <minimizedAffinity>
-4.25451612

$$$$

 OpenBabel03262520283D

 20 21  0  0  0  0  0  0  0  0999 V2000
   36.9530   27.5070   34.5330 C   0  0  0  0  0  0  0  0  0  0  0  0
   36.7960   27.1110   33.1850 C   0  0  0  0  0  0  0  0  0  0  0  0
   37.2420   25.8400   32.8320 C   0  0  0  0  0  0  0  0  0  0  0  0
   37.7970   25.0560   33.7870 N   0  0  0  0  0  0  0  0  0  0  0  0
   37.9320   25.4590   35.0570 C   0  0  0  0  0  0  0  0  0  0  0  0
   37.5110   26.6710   35.4150 N   0  0  0  0  0  0  0  0  0  0  0  0
   37.0740   25.4680   31.4730 N   0  0  0  0  0  0  0  0  0  0  0  0
   36.6130   28.5020   34.8520 H   0  0  0  0  0  0  0  0  0  0  0  0
   36.3430   27.7940   32.4780 H   0  0  0  0  0  0  0  0  0  0  0  0
   37.9440   25.6020   30.9140 H   0  0  0  0  0  0  0  0  0  0  0  0
   36.2630   25.0900   30.9230 H   0  0  0  0  0  0  0  0  0  0  0  0
   38.5380   24.5620   36.0340 C   0  0  0  0  0  0  0  0  0  0  0  0
   37.9450   24.4180   37.2860 C   0  0  0  0  0  0  0  0  0  0  0  0
   37.0570   24.9300   37.5870 H   0  0  0  0  0  0  0  0  0  0  0  0
   38.5490   23.5600   38.1810 C   0  0  0  0  0  3  0  0  0  0  0  0
   39.6960   22.8580   37.8800 C   0  0  0  0  0  0  0  0  0  0  0  0
   40.1400   22.1990   38.6000 H   0  0  0  0  0  0  0  0  0  0  0  0
   40.2820   23.0070   36.6280 C   0  0  0  0  0  0  0  0  0  0  0  0
   41.1890   22.4370   36.4220 H   0  0  0  0  0  0  0  0  0  0  0  0
   39.6870   23.8600   35.7270 C   0  0  0  0  0  3  0  0  0  0  0  0
  1  8  1  0  0  0  0
  1  6  1  0  0  0  0
  2  1  2  0  0  0  0
  3  2  1  0  0  0  0
  3  4  2  0  0  0  0
  4  5  1  0  0  0  0
  5  6  2  0  0  0  0
  5 12  1  0  0  0  0
  7  3  1  0  0  0  0
  9  2  1  0  0  0  0
 10  7  1  0  0  0  0
 11  7  1  0  0  0  0
 12 13  1  0  0  0  0
 13 14  1  0  0  0  0
 13 15  2  0  0  0  0
 16 15  1  0  0  0  0
 16 17  1  0  0  0  0
 18 16  2  0  0  0  0
 19 18  1  0  0  0  0
 20 12  2  0  0  0  0
 20 18  1  0  0  0  0
M  END
>  <minimizedAffinity>
-4.23114014

$$$$

 OpenBabel03262520283D

 20 21  0  0  0  0  0  0  0  0999 V2000
   38.0210   25.8450   32.6620 C   0  0  0  0  0  0  0  0  0  0  0  0
   37.2520   27.0080   32.8980 C   0  0  0  0  0  0  0  0  0  0  0  0
   36.9410   27.3160   34.2200 C   0  0  0  0  0  0  0  0  0  0  0  0
   37.3860   26.4960   35.2020 N   0  0  0  0  0  0  0  0  0  0  0  0
   38.1120   25.4000   34.9470 C   0  0  0  0  0  0  0  0  0  0  0  0
   38.4200   25.0880   33.6890 N   0  0  0  0  0  0  0  0  0  0  0  0
   36.1690   28.4880   34.4290 N   0  0  0  0  0  0  0  0  0  0  0  0
   38.2870   25.5670   31.6340 H   0  0  0  0  0  0  0  0  0  0  0  0
   36.9330   27.6150   32.0610 H   0  0  0  0  0  0  0  0  0  0  0  0
   35.1550   28.2790   34.5540 H   0  0  0  0  0  0  0  0  0  0  0  0
   36.4070   29.5090   34.4830 H   0  0  0  0  0  0  0  0  0  0  0  0
   38.5580   24.5610   36.0540 C   0  0  0  0  0  0  0  0  0  0  0  0
   37.8800   24.6200   37.2690 C   0  0  0  0  0  0  0  0  0  0  0  0
   37.0360   25.2500   37.4510 H   0  0  0  0  0  0  0  0  0  0  0  0
   38.3320   23.8110   38.2890 C   0  0  0  0  0  3  0  0  0  0  0  0
   39.4120   22.9670   38.1460 C   0  0  0  0  0  0  0  0  0  0  0  0
   39.7390   22.3510   38.9620 H   0  0  0  0  0  0  0  0  0  0  0  0
   40.0850   22.9140   36.9300 C   0  0  0  0  0  0  0  0  0  0  0  0
   40.9350   22.2350   36.8500 H   0  0  0  0  0  0  0  0  0  0  0  0
   39.6400   23.7170   35.9050 C   0  0  0  0  0  3  0  0  0  0  0  0
  1  2  2  0  0  0  0
  1  6  1  0  0  0  0
  2  3  1  0  0  0  0
  3  7  1  0  0  0  0
  3  4  2  0  0  0  0
  5  4  1  0  0  0  0
  5 12  1  0  0  0  0
  6  5  2  0  0  0  0
  7 11  1  0  0  0  0
  7 10  1  0  0  0  0
  8  1  1  0  0  0  0
  9  2  1  0  0  0  0
 12 13  1  0  0  0  0
 13 14  1  0  0  0  0
 13 15  2  0  0  0  0
 16 15  1  0  0  0  0
 16 17  1  0  0  0  0
 18 16  2  0  0  0  0
 19 18  1  0  0  0  0
 20 12  2  0  0  0  0
 20 18  1  0  0  0  0
M  END
>  <minimizedAffinity>
-4.20330334

$$$$

 OpenBabel03262520283D

 20 21  0  0  0  0  0  0  0  0999 V2000
   40.6590   23.4930   34.6590 C   0  0  0  0  0  0  0  0  0  0  0  0
   40.7530   23.2510   36.0500 C   0  0  0  0  0  0  0  0  0  0  0  0
   39.6910   22.5920   36.6620 C   0  0  0  0  0  0  0  0  0  0  0  0
   38.6320   22.2190   35.9030 N   0  0  0  0  0  0  0  0  0  0  0  0
   38.5720   22.4610   34.5870 C   0  0  0  0  0  0  0  0  0  0  0  0
   39.5780   23.0900   33.9830 N   0  0  0  0  0  0  0  0  0  0  0  0
   39.8100   22.3640   38.0570 N   0  0  0  0  0  0  0  0  0  0  0  0
   41.4770   24.0090   34.1400 H   0  0  0  0  0  0  0  0  0  0  0  0
   41.6320   23.5810   36.5890 H   0  0  0  0  0  0  0  0  0  0  0  0
   39.3010   23.0780   38.6210 H   0  0  0  0  0  0  0  0  0  0  0  0
   40.2990   21.6320   38.6290 H   0  0  0  0  0  0  0  0  0  0  0  0
   37.4010   22.0300   33.8310 C   0  0  0  0  0  0  0  0  0  0  0  0
   36.5680   21.0510   34.3660 C   0  0  0  0  0  0  0  0  0  0  0  0
   36.7300   20.5820   35.3130 H   0  0  0  0  0  0  0  0  0  0  0  0
   35.4720   20.6720   33.6210 C   0  0  0  0  0  3  0  0  0  0  0  0
   35.1840   21.2200   32.3900 C   0  0  0  0  0  0  0  0  0  0  0  0
   34.3230   20.9020   31.8350 H   0  0  0  0  0  0  0  0  0  0  0  0
   36.0210   22.1980   31.8620 C   0  0  0  0  0  0  0  0  0  0  0  0
   35.7640   22.6120   30.8850 H   0  0  0  0  0  0  0  0  0  0  0  0
   37.1170   22.5840   32.5980 C   0  0  0  0  0  3  0  0  0  0  0  0
  1  2  1  0  0  0  0
  2  9  1  0  0  0  0
  2  3  2  0  0  0  0
  3  7  1  0  0  0  0
  4  3  1  0  0  0  0
  5  4  2  0  0  0  0
  6  5  1  0  0  0  0
  6  1  2  0  0  0  0
  7 10  1  0  0  0  0
  7 11  1  0  0  0  0
  8  1  1  0  0  0  0
 12 13  1  0  0  0  0
 12  5  1  0  0  0  0
 13 14  1  0  0  0  0
 15 13  2  0  0  0  0
 16 15  1  0  0  0  0
 17 16  1  0  0  0  0
 18 16  2  0  0  0  0
 18 20  1  0  0  0  0
 19 18  1  0  0  0  0
 20 12  2  0  0  0  0
M  END
>  <minimizedAffinity>
-4.17779922

$$$$

 OpenBabel03262520283D

 20 21  0  0  0  0  0  0  0  0999 V2000
   38.1820   23.4230   37.9260 C   0  0  0  0  0  0  0  0  0  0  0  0
   39.5550   23.1050   38.0340 C   0  0  0  0  0  0  0  0  0  0  0  0
   40.1320   22.3790   36.9950 C   0  0  0  0  0  0  0  0  0  0  0  0
   39.3560   22.0190   35.9440 N   0  0  0  0  0  0  0  0  0  0  0  0
   38.0570   22.3350   35.8700 C   0  0  0  0  0  0  0  0  0  0  0  0
   37.4870   23.0290   36.8530 N   0  0  0  0  0  0  0  0  0  0  0  0
   41.5100   22.0730   37.1300 N   0  0  0  0  0  0  0  0  0  0  0  0
   37.6900   23.9940   38.7240 H   0  0  0  0  0  0  0  0  0  0  0  0
   40.1090   23.4280   38.9060 H   0  0  0  0  0  0  0  0  0  0  0  0
   41.6700   21.1080   37.4910 H   0  0  0  0  0  0  0  0  0  0  0  0
   42.3910   22.6120   36.9410 H   0  0  0  0  0  0  0  0  0  0  0  0
   37.2820   21.9150   34.7070 C   0  0  0  0  0  0  0  0  0  0  0  0
   37.5630   22.4750   33.4640 C   0  0  0  0  0  0  0  0  0  0  0  0
   38.3240   23.2070   33.2970 H   0  0  0  0  0  0  0  0  0  0  0  0
   36.8080   22.0510   32.3910 C   0  0  0  0  0  3  0  0  0  0  0  0
   35.8070   21.1120   32.5100 C   0  0  0  0  0  0  0  0  0  0  0  0
   35.2380   20.8050   31.6540 H   0  0  0  0  0  0  0  0  0  0  0  0
   35.5320   20.5570   33.7560 C   0  0  0  0  0  0  0  0  0  0  0  0
   34.7330   19.8160   33.8160 H   0  0  0  0  0  0  0  0  0  0  0  0
   36.2800   20.9730   34.8330 C   0  0  0  0  0  3  0  0  0  0  0  0
  1  2  1  0  0  0  0
  1  8  1  0  0  0  0
  2  9  1  0  0  0  0
  3  7  1  0  0  0  0
  3  2  2  0  0  0  0
  4  3  1  0  0  0  0
  5  4  2  0  0  0  0
  5  6  1  0  0  0  0
  6  1  2  0  0  0  0
  7 10  1  0  0  0  0
 11  7  1  0  0  0  0
 12 20  1  0  0  0  0
 12  5  1  0  0  0  0
 13 12  2  0  0  0  0
 14 13  1  0  0  0  0
 15 16  2  0  0  0  0
 15 13  1  0  0  0  0
 16 18  1  0  0  0  0
 17 16  1  0  0  0  0
 18 19  1  0  0  0  0
 18 20  2  0  0  0  0
M  END
>  <minimizedAffinity>
-4.17489147

$$$$
