
     RDKit          3D

 44 47  0  0  0  0  0  0  0  0999 V2000
   34.9886   28.3824   49.4691 C   0  0  0  0  0  0  0  0  0  0  0  0
   34.3063   28.7656   48.4199 C   0  0  0  0  0  0  0  0  0  0  0  0
   37.3908   30.1551   51.5719 C   0  0  0  0  0  0  0  0  0  0  0  0
   38.1020   30.9285   50.6267 C   0  0  0  0  0  0  0  0  0  0  0  0
   37.7263   30.8126   49.2764 C   0  0  0  0  0  0  0  0  0  0  0  0
   36.6959   29.9623   48.9360 N   0  0  0  0  0  0  0  0  0  0  0  0
   36.0671   29.2571   49.9066 C   0  0  0  0  0  0  0  0  0  0  0  0
   36.4106   29.3532   51.2052 N   0  0  0  0  0  0  0  0  0  0  0  0
   38.3815   31.5651   48.1967 C   0  0  0  0  0  0  0  0  0  0  0  0
   38.5983   31.0335   46.9525 C   0  0  0  0  0  0  0  0  0  0  0  0
   39.2342   32.0242   46.1897 C   0  0  0  0  0  0  0  0  0  0  0  0
   39.3700   33.1024   47.0079 N   0  0  0  0  0  0  0  0  0  0  0  0
   38.8623   32.8281   48.2018 N   0  0  0  0  0  0  0  0  0  0  0  0
   33.1709   28.0349   47.8062 C   0  0  0  0  0  0  0  0  0  0  0  0
   33.5893   26.9583   46.8897 C   0  0  0  0  0  0  0  0  0  0  0  0
   33.7692   25.6435   47.3174 C   0  0  0  0  0  0  0  0  0  0  0  0
   34.1835   24.6489   46.4505 C   0  0  0  0  0  0  0  0  0  0  0  0
   34.4331   24.9329   45.1236 C   0  0  0  0  0  0  0  0  0  0  0  0
   34.2551   26.2227   44.7076 C   0  0  0  0  0  0  0  0  0  0  0  0
   33.8400   27.2307   45.5645 C   0  0  0  0  0  0  0  0  0  0  0  0
   34.6939   27.4506   49.9207 H   0  0  0  0  0  0  0  0  0  0  0  0
   34.5689   29.7070   47.9256 H   0  0  0  0  0  0  0  0  0  0  0  0
   37.6918   30.2566   52.5986 H   0  0  0  0  0  0  0  0  0  0  0  0
   38.9082   31.6003   50.8506 H   0  0  0  0  0  0  0  0  0  0  0  0
   38.3538   30.0419   46.5546 H   0  0  0  0  0  0  0  0  0  0  0  0
   39.5612   31.9718   45.1617 H   0  0  0  0  0  0  0  0  0  0  0  0
   39.7988   34.0364   46.7945 H   0  0  0  0  0  0  0  0  0  0  0  0
   32.4253   28.7300   47.4323 H   0  0  0  0  0  0  0  0  0  0  0  0
   32.6646   27.5149   48.6758 H   0  0  0  0  0  0  0  0  0  0  0  0
   33.5548   25.4967   48.3688 H   0  0  0  0  0  0  0  0  0  0  0  0
   34.2698   23.6989   46.9471 H   0  0  0  0  0  0  0  0  0  0  0  0
   34.7532   24.1000   44.5142 H   0  0  0  0  0  0  0  0  0  0  0  0
   34.4715   26.3673   43.6497 H   0  0  0  0  0  0  0  0  0  0  0  0
   33.6927   28.5099   44.8886 C   0  0  0  0  0  0  0  0  0  0  0  0
   34.2315   28.5376   43.5967 C   0  0  0  0  0  0  0  0  0  0  0  0
   34.7302   27.6686   43.1545 H   0  0  0  0  0  0  0  0  0  0  0  0
   34.1904   29.6381   42.7658 C   0  0  0  0  0  0  0  0  0  0  0  0
   33.5952   30.7923   43.1946 C   0  0  0  0  0  0  0  0  0  0  0  0
   33.5016   31.7109   42.6415 H   0  0  0  0  0  0  0  0  0  0  0  0
   33.0602   30.7803   44.4632 C   0  0  0  0  0  0  0  0  0  0  0  0
   32.5760   31.6670   44.8560 H   0  0  0  0  0  0  0  0  0  0  0  0
   33.0993   29.6839   45.2943 C   0  0  0  0  0  0  0  0  0  0  0  0
   34.6177   29.6243   41.7716 H   0  0  0  0  0  0  0  0  0  0  0  0
   32.6753   29.6645   46.2698 H   0  0  0  0  0  0  0  0  0  0  0  0
  1  7  1  0
  2  1  2  0
  4  3  2  0
  5  4  1  0
  6  5  2  0
  6  7  1  0
  7  8  2  0
  8  3  1  0
  9  5  1  0
 10  9  1  0
 11 10  2  0
 11 12  1  0
 12 13  1  0
 13  9  2  0
 14  2  1  0
 15 16  2  0
 15 14  1  0
 17 16  1  0
 18 17  2  0
 19 18  1  0
 19 20  2  0
 20 15  1  0
  1 21  1  0
  2 22  1  0
  3 23  1  0
  4 24  1  0
 10 25  1  0
 11 26  1  0
 12 27  1  0
 14 28  1  0
 14 29  1  0
 16 30  1  0
 17 31  1  0
 18 32  1  0
 19 33  1  0
 34 35  2  0
 35 36  1  0
 35 37  1  0
 37 38  2  0
 38 39  1  0
 38 40  1  0
 40 41  1  0
 40 42  2  0
 42 34  1  0
 37 43  1  0
 42 44  1  0
 20 34  1  0
M  ISO  8  23  14  24  14  25  14  26  14  27   9  28   8  29   8  30  14
M  ISO  6  31  14  32  14  33  14  36  16  39  16  41  16
M  END
>  <DihAtoms>  (1) 
18,19,33,34

>  <DihDeg>  (1) 
-56.49462568792633

$$$$
