
 OpenBabel03272509273D

 41 43  0  0  1  0  0  0  0  0999 V2000
   38.4850   32.1030   48.8460 C   0  0  2  0  0  0  0  0  0  0  0  0
   38.9430   32.9010   50.0560 C   0  0  0  0  0  0  0  0  0  0  0  0
   39.5660   34.1930   49.6400 C   0  0  0  0  0  0  0  0  0  0  0  0
   40.2780   34.0120   48.3070 C   0  0  0  0  0  0  0  0  0  0  0  0
   39.1350   34.0530   47.3340 C   0  0  0  0  0  0  0  0  0  0  0  0
   38.2350   32.8830   47.6490 C   0  0  1  0  0  0  0  0  0  0  0  0
   39.2460   31.2770   48.7800 H   0  0  0  0  0  0  0  0  0  0  0  0
   39.5980   32.3480   50.7310 H   0  0  0  0  0  0  0  0  0  0  0  0
   38.0440   33.1820   50.6810 H   0  0  0  0  0  0  0  0  0  0  0  0
   40.3100   34.5380   50.3670 H   0  0  0  0  0  0  0  0  0  0  0  0
   38.8140   35.0020   49.5220 H   0  0  0  0  0  0  0  0  0  0  0  0
   40.8780   34.9290   48.1560 H   0  0  0  0  0  0  0  0  0  0  0  0
   40.8570   33.0860   48.2730 H   0  0  0  0  0  0  0  0  0  0  0  0
   38.6130   35.0320   47.5550 H   0  0  0  0  0  0  0  0  0  0  0  0
   39.5240   34.1510   46.3380 H   0  0  0  0  0  0  0  0  0  0  0  0
   37.2180   33.2710   47.5950 H   0  0  0  0  0  0  0  0  0  0  0  0
   38.5510   32.0520   46.4020 C   0  0  0  0  0  0  0  0  0  0  0  0
   39.6110   31.1640   46.3590 C   0  0  0  0  0  0  0  0  0  0  0  0
   40.2290   31.0640   47.2450 H   0  0  0  0  0  0  0  0  0  0  0  0
   39.9670   30.3750   45.2910 C   0  0  0  0  0  3  0  0  0  0  0  0
   39.1890   30.4840   44.1610 C   0  0  0  0  0  0  0  0  0  0  0  0
   39.4390   29.8830   43.3130 H   0  0  0  0  0  0  0  0  0  0  0  0
   38.1200   31.3440   44.1320 C   0  0  0  0  0  0  0  0  0  0  0  0
   37.5480   31.3900   43.2320 H   0  0  0  0  0  0  0  0  0  0  0  0
   37.8170   32.1070   45.2380 C   0  0  0  0  0  3  0  0  0  0  0  0
   36.9630   31.2540   49.3650 S   0  0  0  0  0  0  0  0  0  0  0  0
   36.5890   29.8130   48.3440 C   0  0  0  0  0  0  0  0  0  0  0  0
   37.5690   29.5700   47.8220 H   0  0  0  0  0  0  0  0  0  0  0  0
   36.4560   28.9520   48.9930 H   0  0  0  0  0  0  0  0  0  0  0  0
   35.5280   30.1350   47.3510 C   0  0  0  0  0  0  0  0  0  0  0  0
   35.8540   29.7700   46.3480 H   0  0  0  0  0  0  0  0  0  0  0  0
   35.2580   31.2140   47.3240 H   0  0  0  0  0  0  0  0  0  0  0  0
   32.8900   27.8970   48.7520 C   0  0  0  0  0  0  0  0  0  0  0  0
   34.0760   28.6100   48.6430 C   0  0  0  0  0  0  0  0  0  0  0  0
   34.3020   29.3930   47.5490 C   0  0  0  0  0  0  0  0  0  0  0  0
   33.3050   29.4250   46.6020 N   0  0  0  0  0  0  0  0  0  0  0  0
   32.1790   28.7320   46.7340 C   0  0  0  0  0  0  0  0  0  0  0  0
   31.9450   27.9610   47.7980 N   0  0  0  0  0  0  0  0  0  0  0  0
   32.6520   27.2610   49.5890 H   0  0  0  0  0  0  0  0  0  0  0  0
   34.7120   28.4520   49.4970 H   0  0  0  0  0  0  0  0  0  0  0  0
   31.4250   28.7960   45.9520 H   0  0  0  0  0  0  0  0  0  0  0  0
  1  7  1  6  0  0  0
  1 26  1  0  0  0  0
  1  2  1  0  0  0  0
  2  9  1  0  0  0  0
  2  8  1  0  0  0  0
  3  2  1  0  0  0  0
  3 10  1  0  0  0  0
  4  3  1  0  0  0  0
  5 14  1  0  0  0  0
  5  6  1  0  0  0  0
  5  4  1  0  0  0  0
  6 16  1  6  0  0  0
  6  1  1  0  0  0  0
 11  3  1  0  0  0  0
 12  4  1  0  0  0  0
 13  4  1  0  0  0  0
 15  5  1  0  0  0  0
 17  6  1  0  0  0  0
 18 17  1  0  0  0  0
 18 19  1  0  0  0  0
 20 18  2  0  0  0  0
 21 20  1  0  0  0  0
 22 21  1  0  0  0  0
 23 21  2  0  0  0  0
 23 25  1  0  0  0  0
 24 23  1  0  0  0  0
 25 17  2  0  0  0  0
 27 29  1  0  0  0  0
 27 26  1  0  0  0  0
 28 27  1  0  0  0  0
 30 35  1  0  0  0  0
 30 27  1  0  0  0  0
 31 30  1  0  0  0  0
 32 30  1  0  0  0  0
 33 39  1  0  0  0  0
 34 33  1  0  0  0  0
 34 40  1  0  0  0  0
 35 34  2  0  0  0  0
 36 37  2  0  0  0  0
 36 35  1  0  0  0  0
 37 38  1  0  0  0  0
 38 33  2  0  0  0  0
 41 37  1  0  0  0  0
M  END
>  <minimizedAffinity>
-3.43783426

>  <minimizedRMSD>
1.22497308

$$$$
