
 OpenBabel03272509093D

 40 43  0  0  0  0  0  0  0  0999 V2000
   33.1690   28.0330   47.8170 C   0  0  0  0  0  0  0  0  0  0  0  0
   32.4190   28.7270   47.4480 H   0  0  0  0  0  0  0  0  0  0  0  0
   32.6680   27.5090   48.6870 H   0  0  0  0  0  0  0  0  0  0  0  0
   33.5880   26.9610   46.8960 C   0  0  0  0  0  0  0  0  0  0  0  0
   33.7600   25.6420   47.3140 C   0  0  0  0  0  0  0  0  0  0  0  0
   34.1760   24.6530   46.4430 C   0  0  0  0  0  0  0  0  0  0  0  0
   34.4340   24.9450   45.1200 C   0  0  0  0  0  0  0  0  0  0  0  0
   34.2640   26.2390   44.7130 C   0  0  0  0  0  0  0  0  0  0  0  0
   33.8480   27.2430   45.5740 C   0  0  0  0  0  0  0  0  0  0  0  0
   33.5390   25.4900   48.3640 H   0  0  0  0  0  0  0  0  0  0  0  0
   34.2540   23.6990   46.9330 H   0  0  0  0  0  0  0  0  0  0  0  0
   34.7540   24.1150   44.5060 H   0  0  0  0  0  0  0  0  0  0  0  0
   34.4870   26.3900   43.6570 H   0  0  0  0  0  0  0  0  0  0  0  0
   33.7110   28.5270   44.9070 C   0  0  0  0  0  0  0  0  0  0  0  0
   34.9180   29.2150   44.7380 C   0  0  0  0  0  0  0  0  0  0  0  0
   35.8720   28.8130   45.0970 H   0  0  0  0  0  0  0  0  0  0  0  0
   35.0300   30.4410   44.1160 C   0  0  0  0  0  3  0  0  0  0  0  0
   33.9130   31.0560   43.6210 C   0  0  0  0  0  0  0  0  0  0  0  0
   33.8730   32.0080   43.1200 H   0  0  0  0  0  0  0  0  0  0  0  0
   32.7180   30.3920   43.7790 C   0  0  0  0  0  0  0  0  0  0  0  0
   31.8000   30.8320   43.4060 H   0  0  0  0  0  0  0  0  0  0  0  0
   32.6030   29.1690   44.3980 C   0  0  0  0  0  3  0  0  0  0  0  0
   34.9950   28.3800   49.4710 C   0  0  0  0  0  3  0  0  0  0  0  0
   34.3030   28.7670   48.4290 C   0  0  0  0  0  3  0  0  0  0  0  0
   37.3910   30.1620   51.5740 C   0  0  0  0  0  0  0  0  0  0  0  0
   38.1010   30.9350   50.6280 C   0  0  0  0  0  0  0  0  0  0  0  0
   37.7260   30.8170   49.2770 C   0  0  0  0  0  0  0  0  0  0  0  0
   36.6990   29.9630   48.9370 N   0  0  0  0  0  0  0  0  0  0  0  0
   36.0700   29.2580   49.9090 C   0  0  0  0  0  0  0  0  0  0  0  0
   36.4130   29.3570   51.2070 N   0  0  0  0  0  0  0  0  0  0  0  0
   37.6900   30.2670   52.6010 H   0  0  0  0  0  0  0  0  0  0  0  0
   38.9050   31.6100   50.8520 H   0  0  0  0  0  0  0  0  0  0  0  0
   38.3810   31.5690   48.1970 C   0  0  0  0  0  0  0  0  0  0  0  0
   38.5850   31.0420   46.9490 C   0  0  0  0  0  0  0  0  0  0  0  0
   39.2240   32.0310   46.1870 C   0  0  0  0  0  0  0  0  0  0  0  0
   39.3740   33.1040   47.0090 N   0  0  0  0  0  0  0  0  0  0  0  0
   38.8720   32.8280   48.2050 N   0  0  0  0  0  0  0  0  0  0  0  0
   38.3300   30.0540   46.5480 H   0  0  0  0  0  0  0  0  0  0  0  0
   39.5440   31.9810   45.1570 H   0  0  0  0  0  0  0  0  0  0  0  0
   39.8090   34.0350   46.7970 H   0  0  0  0  0  0  0  0  0  0  0  0
  1 24  1  0  0  0  0
  1  3  1  0  0  0  0
  2  1  1  0  0  0  0
  4  5  1  0  0  0  0
  4  1  1  0  0  0  0
  5 10  1  0  0  0  0
  6 11  1  0  0  0  0
  6  5  2  0  0  0  0
  7  6  1  0  0  0  0
  8  7  2  0  0  0  0
  8  9  1  0  0  0  0
  9  4  2  0  0  0  0
 12  7  1  0  0  0  0
 13  8  1  0  0  0  0
 14  9  1  0  0  0  0
 15 14  1  0  0  0  0
 15 16  1  0  0  0  0
 17 15  2  0  0  0  0
 18 20  2  0  0  0  0
 18 17  1  0  0  0  0
 19 18  1  0  0  0  0
 20 22  1  0  0  0  0
 21 20  1  0  0  0  0
 22 14  2  0  0  0  0
 23 29  1  0  0  0  0
 24 23  2  0  0  0  0
 25 31  1  0  0  0  0
 26 32  1  0  0  0  0
 26 25  2  0  0  0  0
 27 26  1  0  0  0  0
 28 27  2  0  0  0  0
 28 29  1  0  0  0  0
 29 30  2  0  0  0  0
 30 25  1  0  0  0  0
 33 37  2  0  0  0  0
 33 27  1  0  0  0  0
 34 33  1  0  0  0  0
 35 34  2  0  0  0  0
 35 36  1  0  0  0  0
 36 37  1  0  0  0  0
 38 34  1  0  0  0  0
 39 35  1  0  0  0  0
 40 36  1  0  0  0  0
M  END
>  <minimizedAffinity>
-6.36894178

>  <minimizedRMSD>
0.613408387

$$$$
