
 OpenBabel03272506143D

 24 25  0  0  0  0  0  0  0  0999 V2000
   36.9060   30.7930   49.3730 C   0  0  0  0  0  0  0  0  0  0  0  0
   37.6410   30.7080   48.1810 C   0  0  0  0  0  0  0  0  0  0  0  0
   38.3570   31.8220   47.7820 C   0  0  0  0  0  0  0  0  0  0  0  0
   38.3330   32.9530   48.5380 N   0  0  0  0  0  0  0  0  0  0  0  0
   37.6030   32.9990   49.6980 C   0  0  0  0  0  0  0  0  0  0  0  0
   36.8880   31.9120   50.1140 N   0  0  0  0  0  0  0  0  0  0  0  0
   37.5910   29.7790   47.6670 H   0  0  0  0  0  0  0  0  0  0  0  0
   37.6220   33.9290   50.2590 H   0  0  0  0  0  0  0  0  0  0  0  0
   39.1190   31.7630   46.5630 C   0  0  0  0  0  0  0  0  0  0  0  0
   39.9570   32.7200   46.0770 C   0  0  0  0  0  0  0  0  0  0  0  0
   40.0800   33.6240   46.6450 H   0  0  0  0  0  0  0  0  0  0  0  0
   40.6740   32.6310   44.9040 C   0  0  0  0  0  0  0  0  0  0  0  0
   40.5370   31.4810   44.1510 C   0  0  0  0  0  0  0  0  0  0  0  0
   41.1030   31.4200   43.2300 H   0  0  0  0  0  0  0  0  0  0  0  0
   39.7110   30.4650   44.5670 C   0  0  0  0  0  0  0  0  0  0  0  0
   39.6140   29.5780   43.9770 H   0  0  0  0  0  0  0  0  0  0  0  0
   39.0230   30.6230   45.7570 C   0  0  0  0  0  0  0  0  0  0  0  0
   36.1330   29.7900   49.9320 O   0  0  0  0  0  0  0  0  0  0  0  0
   34.2130   30.1940   48.1120 O   0  0  0  0  0  0  0  0  0  0  0  0
   34.5570   29.4200   49.3670 P   0  0  0  0  0  0  0  0  0  0  0  0
   34.5360   27.7390   49.0600 O   0  0  0  0  0  0  0  0  0  0  0  0
   34.6600   27.3020   49.9460 H   0  0  0  0  0  0  0  0  0  0  0  0
   33.4230   29.8230   50.5400 O   0  0  0  0  0  0  0  0  0  0  0  0
   33.0920   30.7350   50.3630 H   0  0  0  0  0  0  0  0  0  0  0  0
  1 18  1  0  0  0  0
  1  6  1  0  0  0  0
  2  1  2  0  0  0  0
  3  2  1  0  0  0  0
  3  4  2  0  0  0  0
  4  5  1  0  0  0  0
  5  6  2  0  0  0  0
  5  8  1  0  0  0  0
  7  2  1  0  0  0  0
  9  3  1  0  0  0  0
 10  9  1  0  0  0  0
 10 11  1  0  0  0  0
 12 10  2  0  0  0  0
 13 15  2  0  0  0  0
 13 12  1  0  0  0  0
 14 13  1  0  0  0  0
 15 17  1  0  0  0  0
 16 15  1  0  0  0  0
 17  9  2  0  0  0  0
 19 20  2  0  0  0  0
 20 18  1  0  0  0  0
 20 23  1  0  0  0  0
 21 20  1  0  0  0  0
 21 22  1  0  0  0  0
 24 23  1  0  0  0  0
M  END
>  <minimizedAffinity>
-5.87073183

>  <minimizedRMSD>
5.85612106

$$$$
