REMARK  Name = 
REMARK  2 active torsions:
REMARK  status: ('A' for Active; 'I' for Inactive)
REMARK    1  A    between atoms: C_1  and  C_7
REMARK    2  A    between atoms: C_3  and  C_26
REMARK                            x       y       z     vdW  Elec       q    Type
REMARK                         _______ _______ _______ _____ _____    ______ ____
ROOT
ATOM      1  C   UNL     1      34.762  29.428  48.799  0.00  0.00    +0.000 A 
ATOM      2  C   UNL     1      34.219  30.049  47.660  0.00  0.00    +0.000 A 
ATOM      3  C   UNL     1      33.491  29.253  46.786  0.00  0.00    +0.000 A 
ATOM      4  N   UNL     1      33.331  27.928  47.058  0.00  0.00    +0.000 NA
ATOM      5  C   UNL     1      33.870  27.352  48.174  0.00  0.00    +0.000 A 
ATOM      6  N   UNL     1      34.575  28.107  49.025  0.00  0.00    +0.000 NA
ATOM      7  H   UNL     1      34.323  31.093  47.414  0.00  0.00    +0.000 HD
ATOM      8  H   UNL     1      33.705  26.308  48.324  0.00  0.00    +0.000 HD
ENDROOT
BRANCH   1   9
ATOM      9  C   UNL     1      35.534  30.292  49.737  0.00  0.00    +0.000 C 
ATOM     10  C   UNL     1      36.481  31.175  48.951  0.00  0.00    +0.000 C 
ATOM     11  C   UNL     1      37.918  30.806  49.165  0.00  0.00    +0.000 C 
ATOM     12  C   UNL     1      38.318  30.761  50.612  0.00  0.00    +0.000 C 
ATOM     13  C   UNL     1      37.268  30.170  51.504  0.00  0.00    +0.000 C 
ATOM     14  C   UNL     1      36.218  29.407  50.720  0.00  0.00    +0.000 C 
ATOM     15  H   UNL     1      34.767  30.901  50.262  0.00  0.00    +0.000 HD
ATOM     16  H   UNL     1      36.294  31.187  47.866  0.00  0.00    +0.000 HD
ATOM     17  H   UNL     1      36.358  32.205  49.345  0.00  0.00    +0.000 HD
ATOM     18  H   UNL     1      38.537  31.567  48.647  0.00  0.00    +0.000 HD
ATOM     19  H   UNL     1      38.136  29.839  48.638  0.00  0.00    +0.000 HD
ATOM     20  H   UNL     1      38.733  31.722  50.951  0.00  0.00    +0.000 HD
ATOM     21  H   UNL     1      39.190  30.044  50.661  0.00  0.00    +0.000 HD
ATOM     22  H   UNL     1      37.662  29.553  52.325  0.00  0.00    +0.000 HD
ATOM     23  H   UNL     1      36.740  31.032  51.991  0.00  0.00    +0.000 HD
ATOM     24  H   UNL     1      35.473  29.049  51.460  0.00  0.00    +0.000 HD
ATOM     25  H   UNL     1      36.653  28.482  50.278  0.00  0.00    +0.000 HD
ENDBRANCH   1   9
BRANCH   3  26
ATOM     26  C   UNL     1      32.866  29.738  45.566  0.00  0.00    +0.000 A 
ATOM     27  C   UNL     1      32.727  28.874  44.501  0.00  0.00    +0.000 A 
ATOM     28  H   UNL     1      33.062  27.840  44.524  0.00  0.00    +0.000 HD
ATOM     29  C   UNL     1      32.139  29.274  43.307  0.00  0.00    +0.000 A 
ATOM     30  C   UNL     1      31.667  30.559  43.133  0.00  0.00    +0.000 A 
ATOM     31  H   UNL     1      31.199  30.951  42.243  0.00  0.00    +0.000 HD
ATOM     32  C   UNL     1      31.811  31.415  44.205  0.00  0.00    +0.000 A 
ATOM     33  H   UNL     1      31.456  32.438  44.120  0.00  0.00    +0.000 HD
ATOM     34  C   UNL     1      32.394  31.020  45.389  0.00  0.00    +0.000 A 
ENDBRANCH   3  26
TORSDOF 2
