
 OpenBabel03272506193D

 34 36  0  0  0  0  0  0  0  0999 V2000
   34.7700   29.4390   48.8430 C   0  0  0  0  0  0  0  0  0  0  0  0
   34.2070   30.0960   47.7340 C   0  0  0  0  0  0  0  0  0  0  0  0
   33.4750   29.3240   46.8410 C   0  0  0  0  0  0  0  0  0  0  0  0
   33.3300   27.9890   47.0670 N   0  0  0  0  0  0  0  0  0  0  0  0
   33.8890   27.3790   48.1550 C   0  0  0  0  0  0  0  0  0  0  0  0
   34.5970   28.1090   49.0240 N   0  0  0  0  0  0  0  0  0  0  0  0
   34.2980   31.1490   47.5240 H   0  0  0  0  0  0  0  0  0  0  0  0
   33.7350   26.3280   48.2690 H   0  0  0  0  0  0  0  0  0  0  0  0
   35.5450   30.2770   49.8020 C   0  0  0  0  0  0  0  0  0  0  0  0
   36.4560   31.2140   49.0360 C   0  0  0  0  0  0  0  0  0  0  0  0
   37.9050   30.8660   49.2010 C   0  0  0  0  0  0  0  0  0  0  0  0
   38.3390   30.7650   50.6350 C   0  0  0  0  0  0  0  0  0  0  0  0
   37.3220   30.1120   51.5230 C   0  0  0  0  0  0  0  0  0  0  0  0
   36.2700   29.3630   50.7280 C   0  0  0  0  0  0  0  0  0  0  0  0
   34.7790   30.8450   50.3710 H   0  0  0  0  0  0  0  0  0  0  0  0
   36.2440   31.2710   47.9570 H   0  0  0  0  0  0  0  0  0  0  0  0
   36.3210   32.2220   49.4790 H   0  0  0  0  0  0  0  0  0  0  0  0
   38.4960   31.6630   48.7050 H   0  0  0  0  0  0  0  0  0  0  0  0
   38.1300   29.9290   48.6260 H   0  0  0  0  0  0  0  0  0  0  0  0
   38.7420   31.7180   51.0080 H   0  0  0  0  0  0  0  0  0  0  0  0
   39.2260   30.0650   50.6330 H   0  0  0  0  0  0  0  0  0  0  0  0
   37.7470   29.4670   52.3060 H   0  0  0  0  0  0  0  0  0  0  0  0
   36.7880   30.9400   52.0600 H   0  0  0  0  0  0  0  0  0  0  0  0
   35.5490   28.9560   51.4680 H   0  0  0  0  0  0  0  0  0  0  0  0
   36.7130   28.4680   50.2350 H   0  0  0  0  0  0  0  0  0  0  0  0
   32.8300   29.8470   45.6470 C   0  0  0  0  0  0  0  0  0  0  0  0
   32.1980   31.0700   45.7130 C   0  0  0  0  0  0  0  0  0  0  0  0
   32.1540   31.6720   46.6180 H   0  0  0  0  0  0  0  0  0  0  0  0
   31.5630   31.6250   44.6080 C   0  0  0  0  0  3  0  0  0  0  0  0
   31.5370   30.9750   43.3910 C   0  0  0  0  0  0  0  0  0  0  0  0
   31.0690   31.3340   42.4880 H   0  0  0  0  0  0  0  0  0  0  0  0
   32.1730   29.7530   43.3370 C   0  0  0  0  0  0  0  0  0  0  0  0
   32.1820   29.1990   42.4020 H   0  0  0  0  0  0  0  0  0  0  0  0
   32.8030   29.2010   44.4300 C   0  0  0  0  0  3  0  0  0  0  0  0
  1  6  1  0  0  0  0
  1  9  1  0  0  0  0
  2  1  2  0  0  0  0
  3  4  2  0  0  0  0
  3  2  1  0  0  0  0
  4  5  1  0  0  0  0
  5  8  1  0  0  0  0
  5  6  2  0  0  0  0
  7  2  1  0  0  0  0
  9 15  1  0  0  0  0
  9 14  1  0  0  0  0
 10 11  1  0  0  0  0
 10 17  1  0  0  0  0
 10  9  1  0  0  0  0
 11 12  1  0  0  0  0
 12 20  1  0  0  0  0
 12 13  1  0  0  0  0
 13 23  1  0  0  0  0
 13 22  1  0  0  0  0
 14 24  1  0  0  0  0
 14 13  1  0  0  0  0
 16 10  1  0  0  0  0
 18 11  1  0  0  0  0
 19 11  1  0  0  0  0
 21 12  1  0  0  0  0
 25 14  1  0  0  0  0
 26 27  1  0  0  0  0
 26  3  1  0  0  0  0
 27 28  1  0  0  0  0
 29 27  2  0  0  0  0
 30 29  1  0  0  0  0
 31 30  1  0  0  0  0
 32 30  2  0  0  0  0
 32 34  1  0  0  0  0
 33 32  1  0  0  0  0
 34 26  2  0  0  0  0
M  END
>  <minimizedAffinity>
-5.29900503

>  <minimizedRMSD>
0.129905

$$$$
