
     RDKit          3D

 36 38  0  0  0  0  0  0  0  0999 V2000
   34.7619   29.4285   48.7992 C   0  0  0  0  0  0  0  0  0  0  0  0
   34.2193   30.0488   47.6600 C   0  0  0  0  0  0  0  0  0  0  0  0
   33.4909   29.2535   46.7859 C   0  0  0  0  0  0  0  0  0  0  0  0
   33.3313   27.9280   47.0584 N   0  0  0  0  0  0  0  0  0  0  0  0
   33.8702   27.3523   48.1741 C   0  0  0  0  0  0  0  0  0  0  0  0
   34.5749   28.1068   49.0250 N   0  0  0  0  0  0  0  0  0  0  0  0
   35.5337   30.2917   49.7368 C   0  0  0  0  0  0  0  0  0  0  0  0
   36.4806   31.1751   48.9509 C   0  0  0  0  0  0  0  0  0  0  0  0
   37.9180   30.8062   49.1651 C   0  0  0  0  0  0  0  0  0  0  0  0
   38.3183   30.7605   50.6117 C   0  0  0  0  0  0  0  0  0  0  0  0
   37.2682   30.1701   51.5037 C   0  0  0  0  0  0  0  0  0  0  0  0
   36.2178   29.4074   50.7202 C   0  0  0  0  0  0  0  0  0  0  0  0
   34.3234   31.0933   47.4144 H   0  0  0  0  0  0  0  0  0  0  0  0
   33.7048   26.3080   48.3243 H   0  0  0  0  0  0  0  0  0  0  0  0
   34.7671   30.9013   50.2620 H   0  0  0  0  0  0  0  0  0  0  0  0
   36.2938   31.1866   47.8664 H   0  0  0  0  0  0  0  0  0  0  0  0
   36.3575   32.2046   49.3454 H   0  0  0  0  0  0  0  0  0  0  0  0
   38.5372   31.5667   48.6465 H   0  0  0  0  0  0  0  0  0  0  0  0
   38.1364   29.8392   48.6378 H   0  0  0  0  0  0  0  0  0  0  0  0
   38.7331   31.7220   50.9508 H   0  0  0  0  0  0  0  0  0  0  0  0
   39.1899   30.0443   50.6610 H   0  0  0  0  0  0  0  0  0  0  0  0
   37.6624   29.5527   52.3255 H   0  0  0  0  0  0  0  0  0  0  0  0
   36.7398   31.0318   51.9911 H   0  0  0  0  0  0  0  0  0  0  0  0
   35.4731   29.0493   51.4603 H   0  0  0  0  0  0  0  0  0  0  0  0
   36.6533   28.4815   50.2775 H   0  0  0  0  0  0  0  0  0  0  0  0
   32.8661   29.7385   45.5655 C   0  0  0  0  0  0  0  0  0  0  0  0
   31.5003   29.6193   45.4256 C   0  0  0  0  0  0  0  0  0  0  0  0
   30.8580   29.1787   46.1844 H   0  0  0  0  0  0  0  0  0  0  0  0
   30.8413   30.0627   44.2846 C   0  0  0  0  0  0  0  0  0  0  0  0
   31.5279   30.6438   43.2377 C   0  0  0  0  0  0  0  0  0  0  0  0
   31.0958   31.0133   42.3205 H   0  0  0  0  0  0  0  0  0  0  0  0
   32.8941   30.7575   43.3893 C   0  0  0  0  0  0  0  0  0  0  0  0
   33.4816   31.2076   42.5944 H   0  0  0  0  0  0  0  0  0  0  0  0
   33.5485   30.3185   44.5196 C   0  0  0  0  0  0  0  0  0  0  0  0
   29.7676   29.9634   44.1868 H   0  0  0  0  0  0  0  0  0  0  0  0
   34.6176   30.4328   44.5840 H   0  0  0  0  0  0  0  0  0  0  0  0
  1  6  1  0
  1  7  1  0
  2  1  2  0
  3  4  2  0
  3  2  1  0
  4  5  1  0
  5  6  2  0
  7 12  1  0
  8  9  1  0
  8  7  1  0
  9 10  1  0
 10 11  1  0
 12 11  1  0
  2 13  1  0
  5 14  1  0
  7 15  1  0
  8 16  1  0
  8 17  1  0
  9 18  1  0
  9 19  1  0
 10 20  1  0
 10 21  1  0
 11 22  1  0
 11 23  1  0
 12 24  1  0
 12 25  1  0
 26 27  2  0
 27 28  1  0
 27 29  1  0
 29 30  2  0
 30 31  1  0
 30 32  1  0
 32 33  1  0
 32 34  2  0
 34 26  1  0
 29 35  1  0
 34 36  1  0
  3 26  1  0
M  ISO  8  13  14  14  14  15  13  16  13  17  13  18  13  19  13  20  13
M  ISO  8  21  13  22  13  23  13  24  13  25  13  28  16  31  16  33  16
M  END
>  <DihAtoms>  (1) 
3,2,25,26

>  <DihDeg>  (1) 
-0.00037874782515629385

$$$$
