
 OpenBabel03272506183D

 34 36  0  0  0  0  0  0  0  0999 V2000
   34.7610   29.4840   48.8860 C   0  0  0  0  0  0  0  0  0  0  0  0
   34.1810   30.1690   47.8030 C   0  0  0  0  0  0  0  0  0  0  0  0
   33.4360   29.4200   46.9020 C   0  0  0  0  0  0  0  0  0  0  0  0
   33.2960   28.0790   47.0950 N   0  0  0  0  0  0  0  0  0  0  0  0
   33.8720   27.4410   48.1580 C   0  0  0  0  0  0  0  0  0  0  0  0
   34.5930   28.1500   49.0350 N   0  0  0  0  0  0  0  0  0  0  0  0
   34.2680   31.2270   47.6200 H   0  0  0  0  0  0  0  0  0  0  0  0
   33.7200   26.3880   48.2470 H   0  0  0  0  0  0  0  0  0  0  0  0
   35.5510   30.2970   49.8540 C   0  0  0  0  0  0  0  0  0  0  0  0
   36.4640   31.2410   49.0990 C   0  0  0  0  0  0  0  0  0  0  0  0
   37.9110   30.8780   49.2470 C   0  0  0  0  0  0  0  0  0  0  0  0
   38.3550   30.7460   50.6760 C   0  0  0  0  0  0  0  0  0  0  0  0
   37.3390   30.0860   51.5580 C   0  0  0  0  0  0  0  0  0  0  0  0
   36.2750   29.3600   50.7580 C   0  0  0  0  0  0  0  0  0  0  0  0
   34.7940   30.8610   50.4400 H   0  0  0  0  0  0  0  0  0  0  0  0
   36.2450   31.3190   48.0230 H   0  0  0  0  0  0  0  0  0  0  0  0
   36.3410   32.2420   49.5620 H   0  0  0  0  0  0  0  0  0  0  0  0
   38.5060   31.6790   48.7610 H   0  0  0  0  0  0  0  0  0  0  0  0
   38.1240   29.9500   48.6530 H   0  0  0  0  0  0  0  0  0  0  0  0
   38.7690   31.6890   51.0630 H   0  0  0  0  0  0  0  0  0  0  0  0
   39.2360   30.0390   50.6530 H   0  0  0  0  0  0  0  0  0  0  0  0
   37.7650   29.4230   52.3260 H   0  0  0  0  0  0  0  0  0  0  0  0
   36.8160   30.9080   52.1150 H   0  0  0  0  0  0  0  0  0  0  0  0
   35.5560   28.9460   51.4950 H   0  0  0  0  0  0  0  0  0  0  0  0
   36.7070   28.4710   50.2450 H   0  0  0  0  0  0  0  0  0  0  0  0
   32.7730   29.9730   45.7320 C   0  0  0  0  0  0  0  0  0  0  0  0
   31.4040   30.1320   45.7570 C   0  0  0  0  0  0  0  0  0  0  0  0
   30.7870   29.8650   46.6100 H   0  0  0  0  0  0  0  0  0  0  0  0
   30.7090   30.6550   44.6720 C   0  0  0  0  0  3  0  0  0  0  0  0
   31.3610   31.0390   43.5170 C   0  0  0  0  0  0  0  0  0  0  0  0
   30.9000   31.4510   42.6340 H   0  0  0  0  0  0  0  0  0  0  0  0
   32.7310   30.8760   43.5040 C   0  0  0  0  0  0  0  0  0  0  0  0
   33.2920   31.1620   42.6190 H   0  0  0  0  0  0  0  0  0  0  0  0
   33.4200   30.3580   44.5790 C   0  0  0  0  0  3  0  0  0  0  0  0
  1  6  1  0  0  0  0
  1  9  1  0  0  0  0
  2  1  2  0  0  0  0
  3  4  2  0  0  0  0
  3  2  1  0  0  0  0
  4  5  1  0  0  0  0
  5  8  1  0  0  0  0
  5  6  2  0  0  0  0
  7  2  1  0  0  0  0
  9 15  1  0  0  0  0
  9 14  1  0  0  0  0
 10 11  1  0  0  0  0
 10 17  1  0  0  0  0
 10  9  1  0  0  0  0
 11 12  1  0  0  0  0
 12 20  1  0  0  0  0
 12 13  1  0  0  0  0
 13 23  1  0  0  0  0
 13 22  1  0  0  0  0
 14 24  1  0  0  0  0
 14 13  1  0  0  0  0
 16 10  1  0  0  0  0
 18 11  1  0  0  0  0
 19 11  1  0  0  0  0
 21 12  1  0  0  0  0
 25 14  1  0  0  0  0
 26 27  1  0  0  0  0
 26  3  1  0  0  0  0
 27 28  1  0  0  0  0
 29 27  2  0  0  0  0
 30 29  1  0  0  0  0
 31 30  1  0  0  0  0
 32 30  2  0  0  0  0
 32 34  1  0  0  0  0
 33 32  1  0  0  0  0
 34 26  2  0  0  0  0
M  END
>  <minimizedAffinity>
-5.27247858

>  <minimizedRMSD>
0.292075396

$$$$
