
 OpenBabel03272501313D

 18 18  0  0  0  0  0  0  0  0999 V2000
   36.9960   27.3640   34.3070 C   0  0  0  0  0  0  0  0  0  0  0  0
   37.5100   26.5080   35.2820 C   0  0  0  0  0  0  0  0  0  0  0  0
   37.9670   25.2840   34.8110 C   0  0  0  0  0  0  0  0  0  0  0  0
   37.9010   24.9730   33.4820 N   0  0  0  0  0  0  0  0  0  0  0  0
   37.3910   25.8500   32.5970 C   0  0  0  0  0  0  0  0  0  0  0  0
   36.9430   27.0360   33.0070 N   0  0  0  0  0  0  0  0  0  0  0  0
   36.6300   28.3300   34.6320 H   0  0  0  0  0  0  0  0  0  0  0  0
   37.5490   26.7800   36.3160 H   0  0  0  0  0  0  0  0  0  0  0  0
   37.2980   25.6960   31.5310 H   0  0  0  0  0  0  0  0  0  0  0  0
   38.5230   24.3070   35.7250 C   0  0  0  0  0  0  0  0  0  0  0  0
   39.7550   24.0220   35.8070 O   0  0  0  0  0  0  0  0  0  0  0  0
   37.6850   23.6030   36.5960 O   0  0  0  0  0  0  0  0  0  0  0  0
   38.0420   24.7040   38.9020 O   0  0  0  0  0  0  0  0  0  0  0  0
   38.0580   23.3480   38.2400 P   0  0  0  0  0  0  0  0  0  0  0  0
   37.0040   22.2750   39.0000 O   0  0  0  0  0  0  0  0  0  0  0  0
   36.0830   22.3000   38.6440 H   0  0  0  0  0  0  0  0  0  0  0  0
   39.6170   22.6680   38.3010 O   0  0  0  0  0  0  0  0  0  0  0  0
   40.2620   23.3990   38.1350 H   0  0  0  0  0  0  0  0  0  0  0  0
  1  7  1  0  0  0  0
  1  2  1  0  0  0  0
  2  8  1  0  0  0  0
  3  2  2  0  0  0  0
  3 10  1  0  0  0  0
  4  3  1  0  0  0  0
  5  6  1  0  0  0  0
  5  4  2  0  0  0  0
  6  1  2  0  0  0  0
  9  5  1  0  0  0  0
 10 11  2  0  0  0  0
 10 12  1  0  0  0  0
 12 14  1  0  0  0  0
 14 17  1  0  0  0  0
 14 13  2  0  0  0  0
 14 15  1  0  0  0  0
 16 15  1  0  0  0  0
 18 17  1  0  0  0  0
M  END
>  <minimizedAffinity>
-4.16121387

$$$$

 OpenBabel03272501313D

 18 18  0  0  0  0  0  0  0  0999 V2000
   37.3020   26.0360   32.7140 C   0  0  0  0  0  0  0  0  0  0  0  0
   37.8680   25.0300   33.4990 C   0  0  0  0  0  0  0  0  0  0  0  0
   37.9450   25.3130   34.8560 C   0  0  0  0  0  0  0  0  0  0  0  0
   37.4900   26.5020   35.3530 N   0  0  0  0  0  0  0  0  0  0  0  0
   36.9540   27.4280   34.5350 C   0  0  0  0  0  0  0  0  0  0  0  0
   36.8610   27.1950   33.2260 N   0  0  0  0  0  0  0  0  0  0  0  0
   37.2220   25.8550   31.6490 H   0  0  0  0  0  0  0  0  0  0  0  0
   38.2160   24.1090   33.0800 H   0  0  0  0  0  0  0  0  0  0  0  0
   36.5680   28.3930   34.8330 H   0  0  0  0  0  0  0  0  0  0  0  0
   38.5130   24.3500   35.7770 C   0  0  0  0  0  0  0  0  0  0  0  0
   39.7510   24.0980   35.8780 O   0  0  0  0  0  0  0  0  0  0  0  0
   37.6800   23.6230   36.6340 O   0  0  0  0  0  0  0  0  0  0  0  0
   38.0240   24.6990   38.9540 O   0  0  0  0  0  0  0  0  0  0  0  0
   38.0480   23.3510   38.2760 P   0  0  0  0  0  0  0  0  0  0  0  0
   36.9970   22.2630   39.0200 O   0  0  0  0  0  0  0  0  0  0  0  0
   36.0770   22.2880   38.6610 H   0  0  0  0  0  0  0  0  0  0  0  0
   39.6110   22.6770   38.3350 O   0  0  0  0  0  0  0  0  0  0  0  0
   40.2520   23.4140   38.1800 H   0  0  0  0  0  0  0  0  0  0  0  0
  1  6  2  0  0  0  0
  1  2  1  0  0  0  0
  2  3  2  0  0  0  0
  3  4  1  0  0  0  0
  3 10  1  0  0  0  0
  5  9  1  0  0  0  0
  5  4  2  0  0  0  0
  6  5  1  0  0  0  0
  7  1  1  0  0  0  0
  8  2  1  0  0  0  0
 10 11  2  0  0  0  0
 10 12  1  0  0  0  0
 12 14  1  0  0  0  0
 14 17  1  0  0  0  0
 14 13  2  0  0  0  0
 14 15  1  0  0  0  0
 16 15  1  0  0  0  0
 18 17  1  0  0  0  0
M  END
>  <minimizedAffinity>
-4.13156128

$$$$

 OpenBabel03272501313D

 18 18  0  0  0  0  0  0  0  0999 V2000
   36.7470   26.2320   32.4730 C   0  0  0  0  0  0  0  0  0  0  0  0
   37.2330   26.4740   33.7590 C   0  0  0  0  0  0  0  0  0  0  0  0
   37.8280   25.3840   34.3790 C   0  0  0  0  0  0  0  0  0  0  0  0
   37.9140   24.1750   33.7470 N   0  0  0  0  0  0  0  0  0  0  0  0
   37.4230   24.0150   32.5040 C   0  0  0  0  0  0  0  0  0  0  0  0
   36.8440   25.0360   31.8740 N   0  0  0  0  0  0  0  0  0  0  0  0
   36.2750   27.0570   31.9530 H   0  0  0  0  0  0  0  0  0  0  0  0
   37.1510   27.4330   34.2280 H   0  0  0  0  0  0  0  0  0  0  0  0
   37.4440   23.1030   31.9250 H   0  0  0  0  0  0  0  0  0  0  0  0
   38.3720   25.5060   35.7170 C   0  0  0  0  0  0  0  0  0  0  0  0
   38.3120   26.5570   36.4220 O   0  0  0  0  0  0  0  0  0  0  0  0
   39.0160   24.4180   36.3150 O   0  0  0  0  0  0  0  0  0  0  0  0
   37.1380   22.8610   37.1550 O   0  0  0  0  0  0  0  0  0  0  0  0
   38.3710   23.5760   37.6490 P   0  0  0  0  0  0  0  0  0  0  0  0
   39.4680   22.5060   38.3510 O   0  0  0  0  0  0  0  0  0  0  0  0
   40.1070   22.1110   37.7100 H   0  0  0  0  0  0  0  0  0  0  0  0
   37.9620   24.7370   38.8260 O   0  0  0  0  0  0  0  0  0  0  0  0
   37.1230   25.1690   38.5290 H   0  0  0  0  0  0  0  0  0  0  0  0
  1  2  1  0  0  0  0
  2  8  1  0  0  0  0
  2  3  2  0  0  0  0
  3 10  1  0  0  0  0
  4  3  1  0  0  0  0
  5  4  2  0  0  0  0
  6  1  2  0  0  0  0
  6  5  1  0  0  0  0
  7  1  1  0  0  0  0
  9  5  1  0  0  0  0
 10 12  1  0  0  0  0
 10 11  2  0  0  0  0
 12 14  1  0  0  0  0
 13 14  2  0  0  0  0
 14 15  1  0  0  0  0
 14 17  1  0  0  0  0
 16 15  1  0  0  0  0
 18 17  1  0  0  0  0
M  END
>  <minimizedAffinity>
-3.91273332

$$$$

 OpenBabel03272501313D

 18 18  0  0  0  0  0  0  0  0999 V2000
   36.8610   27.7040   34.1010 C   0  0  0  0  0  0  0  0  0  0  0  0
   37.4180   27.1050   35.2310 C   0  0  0  0  0  0  0  0  0  0  0  0
   37.8690   25.8050   35.0480 C   0  0  0  0  0  0  0  0  0  0  0  0
   37.7600   25.1870   33.8330 N   0  0  0  0  0  0  0  0  0  0  0  0
   37.2110   25.8280   32.7850 C   0  0  0  0  0  0  0  0  0  0  0  0
   36.7650   27.0770   32.9190 N   0  0  0  0  0  0  0  0  0  0  0  0
   36.4960   28.7190   34.2010 H   0  0  0  0  0  0  0  0  0  0  0  0
   37.4900   27.6150   36.1700 H   0  0  0  0  0  0  0  0  0  0  0  0
   37.0810   25.4260   31.7900 H   0  0  0  0  0  0  0  0  0  0  0  0
   38.4680   25.0730   36.1460 C   0  0  0  0  0  0  0  0  0  0  0  0
   38.1230   25.1920   37.3590 O   0  0  0  0  0  0  0  0  0  0  0  0
   39.5000   24.1610   35.9010 O   0  0  0  0  0  0  0  0  0  0  0  0
   40.7040   21.8790   35.9390 O   0  0  0  0  0  0  0  0  0  0  0  0
   39.5260   22.5890   36.5600 P   0  0  0  0  0  0  0  0  0  0  0  0
   39.6120   22.5770   38.2440 O   0  0  0  0  0  0  0  0  0  0  0  0
   40.1120   23.3390   38.6230 H   0  0  0  0  0  0  0  0  0  0  0  0
   38.0660   21.8330   36.1150 O   0  0  0  0  0  0  0  0  0  0  0  0
   38.1500   21.5760   35.1640 H   0  0  0  0  0  0  0  0  0  0  0  0
  1  7  1  0  0  0  0
  1  2  1  0  0  0  0
  2  8  1  0  0  0  0
  3  2  2  0  0  0  0
  3 10  1  0  0  0  0
  4  3  1  0  0  0  0
  5  6  1  0  0  0  0
  5  4  2  0  0  0  0
  6  1  2  0  0  0  0
  9  5  1  0  0  0  0
 10 11  2  0  0  0  0
 12 10  1  0  0  0  0
 12 14  1  0  0  0  0
 13 14  2  0  0  0  0
 14 15  1  0  0  0  0
 15 16  1  0  0  0  0
 17 14  1  0  0  0  0
 18 17  1  0  0  0  0
M  END
>  <minimizedAffinity>
-3.87462234

$$$$

 OpenBabel03272501313D

 18 18  0  0  0  0  0  0  0  0999 V2000
   40.1260   22.6270   37.5410 C   0  0  0  0  0  0  0  0  0  0  0  0
   39.9680   22.2060   36.2200 C   0  0  0  0  0  0  0  0  0  0  0  0
   38.7010   22.3960   35.6870 C   0  0  0  0  0  0  0  0  0  0  0  0
   37.7010   22.9580   36.4310 N   0  0  0  0  0  0  0  0  0  0  0  0
   37.9260   23.3420   37.7020 C   0  0  0  0  0  0  0  0  0  0  0  0
   39.1290   23.1770   38.2510 N   0  0  0  0  0  0  0  0  0  0  0  0
   41.1000   22.4970   37.9950 H   0  0  0  0  0  0  0  0  0  0  0  0
   40.7700   21.7690   35.6620 H   0  0  0  0  0  0  0  0  0  0  0  0
   37.2040   23.7940   38.3680 H   0  0  0  0  0  0  0  0  0  0  0  0
   38.4090   22.0000   34.3240 C   0  0  0  0  0  0  0  0  0  0  0  0
   39.2360   21.4330   33.5490 O   0  0  0  0  0  0  0  0  0  0  0  0
   37.1420   22.2360   33.7800 O   0  0  0  0  0  0  0  0  0  0  0  0
   35.0240   21.6400   32.4320 O   0  0  0  0  0  0  0  0  0  0  0  0
   36.1110   20.9860   33.2500 P   0  0  0  0  0  0  0  0  0  0  0  0
   36.9140   19.7920   32.3730 O   0  0  0  0  0  0  0  0  0  0  0  0
   37.6810   20.1280   31.8510 H   0  0  0  0  0  0  0  0  0  0  0  0
   35.4570   20.2510   34.6400 O   0  0  0  0  0  0  0  0  0  0  0  0
   34.7570   20.8570   34.9880 H   0  0  0  0  0  0  0  0  0  0  0  0
  1  7  1  0  0  0  0
  1  6  1  0  0  0  0
  2  1  2  0  0  0  0
  3  2  1  0  0  0  0
  3  4  2  0  0  0  0
  4  5  1  0  0  0  0
  5  6  2  0  0  0  0
  5  9  1  0  0  0  0
  8  2  1  0  0  0  0
 10  3  1  0  0  0  0
 11 10  2  0  0  0  0
 12 10  1  0  0  0  0
 13 14  2  0  0  0  0
 14 12  1  0  0  0  0
 14 17  1  0  0  0  0
 15 14  1  0  0  0  0
 16 15  1  0  0  0  0
 17 18  1  0  0  0  0
M  END
>  <minimizedAffinity>
-3.7529552

$$$$

 OpenBabel03272501313D

 18 18  0  0  0  0  0  0  0  0999 V2000
   40.3760   22.8280   37.1940 C   0  0  0  0  0  0  0  0  0  0  0  0
   39.9040   23.3580   35.9920 C   0  0  0  0  0  0  0  0  0  0  0  0
   38.6540   23.9570   36.0620 C   0  0  0  0  0  0  0  0  0  0  0  0
   37.9620   24.0070   37.2410 N   0  0  0  0  0  0  0  0  0  0  0  0
   38.4810   23.4740   38.3630 C   0  0  0  0  0  0  0  0  0  0  0  0
   39.6790   22.8900   38.3380 N   0  0  0  0  0  0  0  0  0  0  0  0
   41.3480   22.3520   37.1830 H   0  0  0  0  0  0  0  0  0  0  0  0
   40.4690   23.3040   35.0840 H   0  0  0  0  0  0  0  0  0  0  0  0
   38.0140   23.4640   39.3380 H   0  0  0  0  0  0  0  0  0  0  0  0
   38.0530   24.5450   34.8820 C   0  0  0  0  0  0  0  0  0  0  0  0
   38.1930   24.0950   33.7060 O   0  0  0  0  0  0  0  0  0  0  0  0
   37.2530   25.6870   34.9960 O   0  0  0  0  0  0  0  0  0  0  0  0
   36.7130   28.1850   34.6430 O   0  0  0  0  0  0  0  0  0  0  0  0
   37.8800   27.2700   34.9240 P   0  0  0  0  0  0  0  0  0  0  0  0
   38.7000   27.7240   36.3250 O   0  0  0  0  0  0  0  0  0  0  0  0
   38.3410   27.3130   37.1480 H   0  0  0  0  0  0  0  0  0  0  0  0
   38.9970   27.3110   33.6390 O   0  0  0  0  0  0  0  0  0  0  0  0
   38.4740   27.3400   32.8000 H   0  0  0  0  0  0  0  0  0  0  0  0
  1  6  1  0  0  0  0
  2  3  1  0  0  0  0
  2  1  2  0  0  0  0
  3  4  2  0  0  0  0
  4  5  1  0  0  0  0
  5  9  1  0  0  0  0
  6  5  2  0  0  0  0
  7  1  1  0  0  0  0
  8  2  1  0  0  0  0
 10 12  1  0  0  0  0
 10  3  1  0  0  0  0
 11 10  2  0  0  0  0
 13 14  2  0  0  0  0
 14 12  1  0  0  0  0
 14 15  1  0  0  0  0
 15 16  1  0  0  0  0
 17 14  1  0  0  0  0
 18 17  1  0  0  0  0
M  END
>  <minimizedAffinity>
-3.73603892

$$$$

 OpenBabel03272501313D

 18 18  0  0  0  0  0  0  0  0999 V2000
   35.0390   25.3390   30.8400 C   0  0  0  0  0  0  0  0  0  0  0  0
   35.6370   26.3950   31.5300 C   0  0  0  0  0  0  0  0  0  0  0  0
   36.6650   26.0310   32.3890 C   0  0  0  0  0  0  0  0  0  0  0  0
   37.0390   24.7230   32.5250 N   0  0  0  0  0  0  0  0  0  0  0  0
   36.4160   23.7560   31.8260 C   0  0  0  0  0  0  0  0  0  0  0  0
   35.4240   24.0630   30.9910 N   0  0  0  0  0  0  0  0  0  0  0  0
   34.2320   25.5800   30.1590 H   0  0  0  0  0  0  0  0  0  0  0  0
   35.3220   27.4100   31.4030 H   0  0  0  0  0  0  0  0  0  0  0  0
   36.6390   22.6990   31.8650 H   0  0  0  0  0  0  0  0  0  0  0  0
   37.3660   27.0350   33.1630 C   0  0  0  0  0  0  0  0  0  0  0  0
   36.8230   28.0690   33.6570 O   0  0  0  0  0  0  0  0  0  0  0  0
   38.7360   26.9000   33.4120 O   0  0  0  0  0  0  0  0  0  0  0  0
   40.8770   26.8180   34.8500 O   0  0  0  0  0  0  0  0  0  0  0  0
   39.3790   26.6810   34.9750 P   0  0  0  0  0  0  0  0  0  0  0  0
   38.7510   27.7580   36.1080 O   0  0  0  0  0  0  0  0  0  0  0  0
   38.5130   28.6400   35.7320 H   0  0  0  0  0  0  0  0  0  0  0  0
   38.9600   25.1070   35.4740 O   0  0  0  0  0  0  0  0  0  0  0  0
   39.5600   24.4810   34.9980 H   0  0  0  0  0  0  0  0  0  0  0  0
  1  6  2  0  0  0  0
  1  2  1  0  0  0  0
  2  3  2  0  0  0  0
  3  4  1  0  0  0  0
  3 10  1  0  0  0  0
  5  9  1  0  0  0  0
  5  4  2  0  0  0  0
  6  5  1  0  0  0  0
  7  1  1  0  0  0  0
  8  2  1  0  0  0  0
 10 12  1  0  0  0  0
 10 11  2  0  0  0  0
 12 14  1  0  0  0  0
 13 14  2  0  0  0  0
 14 17  1  0  0  0  0
 14 15  1  0  0  0  0
 16 15  1  0  0  0  0
 18 17  1  0  0  0  0
M  END
>  <minimizedAffinity>
-3.71966505

$$$$

 OpenBabel03272501313D

 18 18  0  0  0  0  0  0  0  0999 V2000
   35.1570   20.5900   32.8030 C   0  0  0  0  0  0  0  0  0  0  0  0
   36.0140   20.7660   33.8910 C   0  0  0  0  0  0  0  0  0  0  0  0
   37.0030   21.7240   33.7140 C   0  0  0  0  0  0  0  0  0  0  0  0
   37.1030   22.4260   32.5450 N   0  0  0  0  0  0  0  0  0  0  0  0
   36.2390   22.2020   31.5360 C   0  0  0  0  0  0  0  0  0  0  0  0
   35.2750   21.2920   31.6660 N   0  0  0  0  0  0  0  0  0  0  0  0
   34.3710   19.8520   32.9000 H   0  0  0  0  0  0  0  0  0  0  0  0
   35.9110   20.2020   34.7940 H   0  0  0  0  0  0  0  0  0  0  0  0
   36.2370   22.7040   30.5780 H   0  0  0  0  0  0  0  0  0  0  0  0
   37.9560   22.0010   34.7700 C   0  0  0  0  0  0  0  0  0  0  0  0
   39.2110   21.8700   34.6560 O   0  0  0  0  0  0  0  0  0  0  0  0
   37.5100   22.4450   36.0190 O   0  0  0  0  0  0  0  0  0  0  0  0
   37.5640   24.0310   38.0540 O   0  0  0  0  0  0  0  0  0  0  0  0
   38.4940   23.3230   37.0990 P   0  0  0  0  0  0  0  0  0  0  0  0
   39.6060   22.3580   37.9170 O   0  0  0  0  0  0  0  0  0  0  0  0
   39.2870   21.4400   38.0910 H   0  0  0  0  0  0  0  0  0  0  0  0
   39.3740   24.4490   36.1720 O   0  0  0  0  0  0  0  0  0  0  0  0
   38.7530   25.1830   35.9380 H   0  0  0  0  0  0  0  0  0  0  0  0
  1  7  1  0  0  0  0
  1  2  1  0  0  0  0
  2  8  1  0  0  0  0
  3  2  2  0  0  0  0
  3 10  1  0  0  0  0
  4  3  1  0  0  0  0
  5  6  1  0  0  0  0
  5  4  2  0  0  0  0
  6  1  2  0  0  0  0
  9  5  1  0  0  0  0
 10 12  1  0  0  0  0
 11 10  2  0  0  0  0
 12 14  1  0  0  0  0
 14 15  1  0  0  0  0
 14 13  2  0  0  0  0
 15 16  1  0  0  0  0
 17 14  1  0  0  0  0
 18 17  1  0  0  0  0
M  END
>  <minimizedAffinity>
-3.66556525

$$$$

 OpenBabel03272501313D

 18 18  0  0  0  0  0  0  0  0999 V2000
   40.0340   26.5940   34.8520 C   0  0  0  0  0  0  0  0  0  0  0  0
   40.0340   25.1980   34.8250 C   0  0  0  0  0  0  0  0  0  0  0  0
   39.0120   24.5940   35.5440 C   0  0  0  0  0  0  0  0  0  0  0  0
   38.0890   25.3420   36.2200 N   0  0  0  0  0  0  0  0  0  0  0  0
   38.1510   26.6870   36.2010 C   0  0  0  0  0  0  0  0  0  0  0  0
   39.1160   27.3060   35.5220 N   0  0  0  0  0  0  0  0  0  0  0  0
   40.8150   27.1050   34.3030 H   0  0  0  0  0  0  0  0  0  0  0  0
   40.7710   24.6390   34.2860 H   0  0  0  0  0  0  0  0  0  0  0  0
   37.4710   27.3620   36.7010 H   0  0  0  0  0  0  0  0  0  0  0  0
   38.9030   23.1500   35.5940 C   0  0  0  0  0  0  0  0  0  0  0  0
   37.8080   22.5130   35.5830 O   0  0  0  0  0  0  0  0  0  0  0  0
   40.0560   22.3610   35.6600 O   0  0  0  0  0  0  0  0  0  0  0  0
   40.2110   22.7950   38.1980 O   0  0  0  0  0  0  0  0  0  0  0  0
   41.0330   22.2560   37.0530 P   0  0  0  0  0  0  0  0  0  0  0  0
   41.5790   20.6920   37.3640 O   0  0  0  0  0  0  0  0  0  0  0  0
   40.9500   19.9860   37.0810 H   0  0  0  0  0  0  0  0  0  0  0  0
   42.4000   23.2340   36.7820 O   0  0  0  0  0  0  0  0  0  0  0  0
   42.1140   24.1740   36.8960 H   0  0  0  0  0  0  0  0  0  0  0  0
  1  6  1  0  0  0  0
  2  1  2  0  0  0  0
  2  3  1  0  0  0  0
  3 10  1  0  0  0  0
  3  4  2  0  0  0  0
  5  4  1  0  0  0  0
  5  9  1  0  0  0  0
  6  5  2  0  0  0  0
  7  1  1  0  0  0  0
  8  2  1  0  0  0  0
 10 12  1  0  0  0  0
 11 10  2  0  0  0  0
 12 14  1  0  0  0  0
 14 15  1  0  0  0  0
 14 13  2  0  0  0  0
 16 15  1  0  0  0  0
 17 18  1  0  0  0  0
 17 14  1  0  0  0  0
M  END
>  <minimizedAffinity>
-3.59680533

$$$$
