
     RDKit          3D

 18 18  0  0  0  0  0  0  0  0999 V2000
   37.2676   30.1819   51.4312 C   0  0  0  0  0  0  0  0  0  0  0  0
   38.0953   30.7554   50.4521 C   0  0  0  0  0  0  0  0  0  0  0  0
   37.8031   30.4930   49.0998 C   0  0  0  0  0  0  0  0  0  0  0  0
   36.7371   29.7000   48.8223 N   0  0  0  0  0  0  0  0  0  0  0  0
   35.9767   29.1755   49.7914 C   0  0  0  0  0  0  0  0  0  0  0  0
   36.2239   29.4025   51.0764 N   0  0  0  0  0  0  0  0  0  0  0  0
   34.8227   28.3171   49.4950 C   0  0  0  0  0  0  0  0  0  0  0  0
   33.6236   28.7077   49.5508 O   0  0  0  0  0  0  0  0  0  0  0  0
   37.4985   30.3881   52.4674 H   0  0  0  0  0  0  0  0  0  0  0  0
   38.9452   31.3879   50.6778 H   0  0  0  0  0  0  0  0  0  0  0  0
   38.3833   30.8902   48.2766 H   0  0  0  0  0  0  0  0  0  0  0  0
   33.8354   24.9957   48.3212 O   0  0  0  0  0  0  0  0  0  0  0  0
   34.4620   26.2670   47.8017 P   0  0  0  0  0  0  0  0  0  0  0  0
   33.2678   27.2073   47.1050 O   0  0  0  0  0  0  0  0  0  0  0  0
   35.6979   25.8693   46.7211 O   0  0  0  0  0  0  0  0  0  0  0  0
   35.1953   27.0400   49.1499 O   0  0  0  0  0  0  0  0  0  0  0  0
   33.6143   27.9878   46.6080 H   0  0  0  0  0  0  0  0  0  0  0  0
   36.4759   26.4889   46.7974 H   0  0  0  0  0  0  0  0  0  0  0  0
  2  1  2  0
  3  2  1  0
  4  3  2  0
  4  5  1  0
  5  6  2  0
  6  1  1  0
  7  8  2  0
  7  5  1  0
  1  9  1  0
  2 10  1  0
  3 11  1  0
 12 13  2  0
 13 14  1  0
 13 15  1  0
 13 16  1  0
 14 17  1  0
 15 18  1  0
  7 16  1  0
M  ISO  3   9  14  10  14  11  14
M  END
>  <DihAtoms>  (1) 
7,6,15,12

>  <DihDeg>  (1) 
6.85368876272926e-05

$$$$
