REMARK  Name = 
REMARK  5 active torsions:
REMARK  status: ('A' for Active; 'I' for Inactive)
REMARK    1  A    between atoms: C_3  and  C_7
REMARK    2  A    between atoms: C_7  and  O_16
REMARK    3  A    between atoms: P_13  and  O_14
REMARK    4  A    between atoms: P_13  and  O_15
REMARK    5  A    between atoms: P_13  and  O_16
REMARK                            x       y       z     vdW  Elec       q    Type
REMARK                         _______ _______ _______ _____ _____    ______ ____
ROOT
ATOM      1  C   UNL     1      37.355  30.225  51.358  0.00  0.00    +0.000 A 
ATOM      2  C   UNL     1      38.053  30.769  50.279  0.00  0.00    +0.000 A 
ATOM      3  C   UNL     1      37.574  30.412  49.026  0.00  0.00    +0.000 A 
ATOM      4  N   UNL     1      36.494  29.584  48.895  0.00  0.00    +0.000 NA
ATOM      5  C   UNL     1      35.869  29.096  49.983  0.00  0.00    +0.000 A 
ATOM      6  N   UNL     1      36.297  29.415  51.204  0.00  0.00    +0.000 NA
ATOM      7  H   UNL     1      37.696  30.479  52.354  0.00  0.00    +0.000 HD
ATOM      8  H   UNL     1      38.896  31.415  50.413  0.00  0.00    +0.000 HD
ATOM      9  H   UNL     1      35.011  28.438  49.982  0.00  0.00    +0.000 HD
ENDROOT
BRANCH   3  10
ATOM     10  C   UNL     1      38.213  30.911  47.825  0.00  0.00    +0.000 C 
ATOM     11  O   UNL     1      39.006  31.899  47.792  0.00  0.00    +0.000 OA
BRANCH  10  12
ATOM     12  O   UNL     1      37.971  30.294  46.593  0.00  0.00    +0.000 OA
BRANCH  12  14
ATOM     13  O   UNL     1      35.983  28.685  46.934  0.00  0.00    +0.000 OA
ATOM     14  P   UNL     1      36.411  29.845  46.069  0.00  0.00    +0.000 P 
BRANCH  14  15
ATOM     15  O   UNL     1      35.300  31.110  46.133  0.00  0.00    +0.000 OA
ATOM     16  H   UNL     1      35.469  31.754  46.864  0.00  0.00    +0.000 HD
ENDBRANCH  14  15
BRANCH  14  17
ATOM     17  O   UNL     1      36.548  29.363  44.442  0.00  0.00    +0.000 OA
ATOM     18  H   UNL     1      36.951  28.460  44.438  0.00  0.00    +0.000 HD
ENDBRANCH  14  17
ENDBRANCH  12  14
ENDBRANCH  10  12
ENDBRANCH   3  10
TORSDOF 5
