
     RDKit          3D

 18 18  0  0  0  0  0  0  0  0999 V2000
   37.6195   30.4081   49.7196 C   0  0  0  0  0  0  0  0  0  0  0  0
   38.3214   31.6111   49.9082 C   0  0  0  0  0  0  0  0  0  0  0  0
   38.5661   32.4061   48.7872 C   0  0  0  0  0  0  0  0  0  0  0  0
   38.1137   31.9791   47.5648 N   0  0  0  0  0  0  0  0  0  0  0  0
   37.4454   30.8213   47.4243 C   0  0  0  0  0  0  0  0  0  0  0  0
   37.2077   30.0543   48.4963 N   0  0  0  0  0  0  0  0  0  0  0  0
   37.3495   29.5586   50.8686 C   0  0  0  0  0  0  0  0  0  0  0  0
   37.4307   29.9935   52.0410 O   0  0  0  0  0  0  0  0  0  0  0  0
   38.6729   31.9420   50.8607 H   0  0  0  0  0  0  0  0  0  0  0  0
   39.0897   33.3278   48.8516 H   0  0  0  0  0  0  0  0  0  0  0  0
   37.0815   30.4700   46.4657 H   0  0  0  0  0  0  0  0  0  0  0  0
   34.9444   26.7032   51.0420 O   0  0  0  0  0  0  0  0  0  0  0  0
   35.4394   27.7976   50.0969 P   0  0  0  0  0  0  0  0  0  0  0  0
   34.3704   29.0997   50.0572 O   0  0  0  0  0  0  0  0  0  0  0  0
   35.5799   27.0838   48.5516 O   0  0  0  0  0  0  0  0  0  0  0  0
   36.9951   28.2402   50.6527 O   0  0  0  0  0  0  0  0  0  0  0  0
   33.6476   28.9628   50.7443 H   0  0  0  0  0  0  0  0  0  0  0  0
   36.5057   26.7460   48.4752 H   0  0  0  0  0  0  0  0  0  0  0  0
  1  2  2  0
  1  7  1  0
  3  2  1  0
  4  3  2  0
  5  4  1  0
  5  6  2  0
  6  1  1  0
  7  8  2  0
  2  9  1  0
  3 10  1  0
  5 11  1  0
 12 13  2  0
 13 14  1  0
 13 15  1  0
 13 16  1  0
 14 17  1  0
 15 18  1  0
  7 16  1  0
M  ISO  3   9  14  10  14  11  14
M  END
>  <DihAtoms>  (1) 
0,6,15,12

>  <DihDeg>  (1) 
-179.99976173294112

$$$$
