
 OpenBabel03272508423D

 18 18  0  0  0  0  0  0  0  0999 V2000
   36.9970   29.8840   51.5700 C   0  0  0  0  0  0  0  0  0  0  0  0
   38.0640   30.4780   50.8770 C   0  0  0  0  0  0  0  0  0  0  0  0
   37.9800   30.5620   49.4740 C   0  0  0  0  0  0  0  0  0  0  0  0
   36.8690   30.0630   48.8730 N   0  0  0  0  0  0  0  0  0  0  0  0
   35.8770   29.5050   49.5770 C   0  0  0  0  0  0  0  0  0  0  0  0
   35.9240   29.4100   50.9000 N   0  0  0  0  0  0  0  0  0  0  0  0
   37.0680   29.8240   52.6470 H   0  0  0  0  0  0  0  0  0  0  0  0
   38.9480   30.8750   51.3600 H   0  0  0  0  0  0  0  0  0  0  0  0
   38.7510   31.0010   48.8560 H   0  0  0  0  0  0  0  0  0  0  0  0
   34.6740   28.9650   48.9310 C   0  0  0  0  0  0  0  0  0  0  0  0
   33.5870   28.7520   49.5360 O   0  0  0  0  0  0  0  0  0  0  0  0
   34.8650   28.7180   47.5920 O   0  0  0  0  0  0  0  0  0  0  0  0
   33.4040   28.8910   45.4590 O   0  0  0  0  0  0  0  0  0  0  0  0
   34.1740   29.7650   46.4180 P   0  0  0  0  0  0  0  0  0  0  0  0
   33.1230   30.8720   47.0980 O   0  0  0  0  0  0  0  0  0  0  0  0
   33.5710   31.5780   47.6240 H   0  0  0  0  0  0  0  0  0  0  0  0
   35.4520   30.4970   45.5900 O   0  0  0  0  0  0  0  0  0  0  0  0
   36.2720   30.5690   46.1540 H   0  0  0  0  0  0  0  0  0  0  0  0
  1  7  1  0  0  0  0
  2  8  1  0  0  0  0
  2  1  2  0  0  0  0
  3  2  1  0  0  0  0
  4  3  2  0  0  0  0
  4  5  1  0  0  0  0
  5  6  2  0  0  0  0
  6  1  1  0  0  0  0
  9  3  1  0  0  0  0
 10 11  2  0  0  0  0
 10  5  1  0  0  0  0
 12 10  1  0  0  0  0
 13 14  2  0  0  0  0
 14 15  1  0  0  0  0
 14 12  1  0  0  0  0
 15 16  1  0  0  0  0
 17 18  1  0  0  0  0
 17 14  1  0  0  0  0
M  END
>  <minimizedAffinity>
-3.99594235

>  <minimizedRMSD>
3.01039648

$$$$
