
 OpenBabel03272501303D

 18 18  0  0  0  0  0  0  0  0999 V2000
   37.5680   30.2530   51.2410 C   0  0  0  0  0  0  0  0  0  0  0  0
   37.7770   30.6720   49.9270 C   0  0  0  0  0  0  0  0  0  0  0  0
   36.7670   30.3400   49.0340 C   0  0  0  0  0  0  0  0  0  0  0  0
   35.6610   29.6510   49.4470 N   0  0  0  0  0  0  0  0  0  0  0  0
   35.5270   29.2780   50.7330 C   0  0  0  0  0  0  0  0  0  0  0  0
   36.4730   29.5770   51.6220 N   0  0  0  0  0  0  0  0  0  0  0  0
   38.3320   30.4920   51.9700 H   0  0  0  0  0  0  0  0  0  0  0  0
   38.6540   31.2110   49.6330 H   0  0  0  0  0  0  0  0  0  0  0  0
   34.6930   28.7330   51.1540 H   0  0  0  0  0  0  0  0  0  0  0  0
   36.8660   30.7190   47.6390 C   0  0  0  0  0  0  0  0  0  0  0  0
   37.4370   31.7700   47.2190 O   0  0  0  0  0  0  0  0  0  0  0  0
   36.3090   29.9020   46.6490 O   0  0  0  0  0  0  0  0  0  0  0  0
   34.2150   28.5430   45.9970 O   0  0  0  0  0  0  0  0  0  0  0  0
   34.6630   29.9690   46.2060 P   0  0  0  0  0  0  0  0  0  0  0  0
   33.7020   30.7610   47.3410 O   0  0  0  0  0  0  0  0  0  0  0  0
   34.0160   30.6570   48.2730 H   0  0  0  0  0  0  0  0  0  0  0  0
   34.5700   30.8470   44.7510 O   0  0  0  0  0  0  0  0  0  0  0  0
   34.8750   30.2460   44.0270 H   0  0  0  0  0  0  0  0  0  0  0  0
  1  6  1  0  0  0  0
  1  7  1  0  0  0  0
  2  1  2  0  0  0  0
  3  4  2  0  0  0  0
  3  2  1  0  0  0  0
  4  5  1  0  0  0  0
  5  9  1  0  0  0  0
  5  6  2  0  0  0  0
  8  2  1  0  0  0  0
 10  3  1  0  0  0  0
 11 10  2  0  0  0  0
 12 10  1  0  0  0  0
 13 14  2  0  0  0  0
 14 12  1  0  0  0  0
 14 15  1  0  0  0  0
 15 16  1  0  0  0  0
 17 14  1  0  0  0  0
 18 17  1  0  0  0  0
M  END
>  <minimizedAffinity>
-3.69111228

>  <minimizedRMSD>
1.46611583

$$$$
