REMARK  Name = 
REMARK  5 active torsions:
REMARK  status: ('A' for Active; 'I' for Inactive)
REMARK    1  A    between atoms: C_1  and  C_7
REMARK    2  A    between atoms: C_7  and  O_16
REMARK    3  A    between atoms: P_13  and  O_14
REMARK    4  A    between atoms: P_13  and  O_15
REMARK    5  A    between atoms: P_13  and  O_16
REMARK                            x       y       z     vdW  Elec       q    Type
REMARK                         _______ _______ _______ _____ _____    ______ ____
ROOT
ATOM      1  C   UNL     1      37.620  30.408  49.720  0.00  0.00    +0.000 A 
ATOM      2  C   UNL     1      38.321  31.611  49.908  0.00  0.00    +0.000 A 
ATOM      3  C   UNL     1      38.566  32.406  48.787  0.00  0.00    +0.000 A 
ATOM      4  N   UNL     1      38.114  31.979  47.565  0.00  0.00    +0.000 NA
ATOM      5  C   UNL     1      37.445  30.821  47.424  0.00  0.00    +0.000 A 
ATOM      6  N   UNL     1      37.208  30.054  48.496  0.00  0.00    +0.000 NA
ATOM      7  H   UNL     1      38.673  31.942  50.861  0.00  0.00    +0.000 HD
ATOM      8  H   UNL     1      39.090  33.328  48.852  0.00  0.00    +0.000 HD
ATOM      9  H   UNL     1      37.081  30.470  46.466  0.00  0.00    +0.000 HD
ENDROOT
BRANCH   1  10
ATOM     10  C   UNL     1      37.349  29.559  50.869  0.00  0.00    +0.000 C 
ATOM     11  O   UNL     1      37.431  29.994  52.041  0.00  0.00    +0.000 OA
BRANCH  10  12
ATOM     12  O   UNL     1      36.995  28.240  50.653  0.00  0.00    +0.000 OA
BRANCH  12  14
ATOM     13  O   UNL     1      34.944  26.703  51.042  0.00  0.00    +0.000 OA
ATOM     14  P   UNL     1      35.439  27.798  50.097  0.00  0.00    +0.000 P 
BRANCH  14  15
ATOM     15  O   UNL     1      34.370  29.100  50.057  0.00  0.00    +0.000 OA
ATOM     16  H   UNL     1      33.648  28.963  50.744  0.00  0.00    +0.000 HD
ENDBRANCH  14  15
BRANCH  14  17
ATOM     17  O   UNL     1      35.580  27.084  48.552  0.00  0.00    +0.000 OA
ATOM     18  H   UNL     1      36.506  26.746  48.475  0.00  0.00    +0.000 HD
ENDBRANCH  14  17
ENDBRANCH  12  14
ENDBRANCH  10  12
ENDBRANCH   1  10
TORSDOF 5
