
 OpenBabel03272507423D

 39 41  0  0  0  0  0  0  0  0999 V2000
   36.6910   32.2620   49.2180 O   0  0  0  0  0  0  0  0  0  0  0  0
   38.2180   32.1980   47.2750 C   0  0  0  0  0  0  0  0  0  0  0  0
   37.8210   32.6550   48.5160 C   0  0  0  0  0  0  0  0  0  0  0  0
   38.5860   33.5990   49.1790 C   0  0  0  0  0  0  0  0  0  0  0  0
   39.7470   34.0810   48.5900 C   0  0  0  0  0  0  0  0  0  0  0  0
   40.1310   33.6180   47.3560 C   0  0  0  0  0  0  0  0  0  0  0  0
   39.3560   32.6800   46.7150 C   0  0  0  0  0  0  0  0  0  0  0  0
   38.3370   34.0000   50.1510 H   0  0  0  0  0  0  0  0  0  0  0  0
   40.3440   34.8230   49.1170 H   0  0  0  0  0  0  0  0  0  0  0  0
   41.0280   33.9800   46.8810 H   0  0  0  0  0  0  0  0  0  0  0  0
   39.7790   32.1910   45.3870 C   0  0  0  0  0  0  0  0  0  0  0  0
   40.6170   31.1450   45.0710 C   0  0  0  0  0  0  0  0  0  0  0  0
   40.6900   31.0990   43.6760 C   0  0  0  0  0  0  0  0  0  0  0  0
   39.8920   32.1200   43.2380 C   0  0  0  0  0  0  0  0  0  0  0  0
   39.3620   32.7560   44.2660 O   0  0  0  0  0  0  0  0  0  0  0  0
   41.0480   30.5730   45.8730 H   0  0  0  0  0  0  0  0  0  0  0  0
   41.3160   30.3240   43.2550 H   0  0  0  0  0  0  0  0  0  0  0  0
   39.7900   32.2870   42.1770 H   0  0  0  0  0  0  0  0  0  0  0  0
   36.6970   30.4440   46.1390 N   0  0  0  0  0  0  0  0  0  0  0  0
   37.3790   31.2220   46.6490 C   0  0  0  0  0  0  0  0  0  0  0  0
   36.6440   31.2080   50.0670 C   0  0  0  0  0  0  0  0  0  0  0  0
   35.5460   30.3790   49.8150 C   0  0  0  0  0  0  0  0  0  0  0  0
   35.3260   29.2450   50.5810 C   0  0  0  0  0  0  0  0  0  0  0  0
   36.2180   28.9810   51.5750 N   0  0  0  0  0  0  0  0  0  0  0  0
   37.2820   29.8000   51.8040 C   0  0  0  0  0  0  0  0  0  0  0  0
   37.4740   30.8740   51.0660 N   0  0  0  0  0  0  0  0  0  0  0  0
   34.5100   28.5670   50.4460 H   0  0  0  0  0  0  0  0  0  0  0  0
   37.9960   29.5860   52.6050 H   0  0  0  0  0  0  0  0  0  0  0  0
   34.1800   29.4790   48.0060 C   0  0  0  0  0  0  0  0  0  0  0  0
   34.6020   28.2690   47.8710 O   0  0  0  0  0  0  0  0  0  0  0  0
   34.5840   30.5760   48.8160 N   0  0  0  0  0  0  0  0  0  0  0  0
   34.1390   31.4640   48.6180 H   0  0  0  0  0  0  0  0  0  0  0  0
   33.1100   29.6080   47.1240 O   0  0  0  0  0  0  0  0  0  0  0  0
   31.8220   27.4730   46.1310 O   0  0  0  0  0  0  0  0  0  0  0  0
   31.7390   28.5770   47.1810 P   0  0  0  0  0  0  0  0  0  0  0  0
   31.4790   27.8850   48.6750 O   0  0  0  0  0  0  0  0  0  0  0  0
   31.7880   26.9670   48.6540 H   0  0  0  0  0  0  0  0  0  0  0  0
   30.4060   29.5370   46.7110 O   0  0  0  0  0  0  0  0  0  0  0  0
   30.6460   29.8900   45.7970 H   0  0  0  0  0  0  0  0  0  0  0  0
  1 21  1  0  0  0  0
  2  3  1  0  0  0  0
  3  4  2  0  0  0  0
  3  1  1  0  0  0  0
  4  8  1  0  0  0  0
  5  9  1  0  0  0  0
  5  4  1  0  0  0  0
  6  5  2  0  0  0  0
  7  2  2  0  0  0  0
  7  6  1  0  0  0  0
 10  6  1  0  0  0  0
 11  7  1  0  0  0  0
 12 11  2  0  0  0  0
 12 16  1  0  0  0  0
 13 12  1  0  0  0  0
 14 13  2  0  0  0  0
 14 15  1  0  0  0  0
 15 11  1  0  0  0  0
 17 13  1  0  0  0  0
 18 14  1  0  0  0  0
 19 20  3  0  0  0  0
 20  2  1  0  0  0  0
 21 26  1  0  0  0  0
 22 21  2  0  0  0  0
 22 23  1  0  0  0  0
 23 24  2  0  0  0  0
 24 25  1  0  0  0  0
 25 28  1  0  0  0  0
 26 25  2  0  0  0  0
 27 23  1  0  0  0  0
 29 31  1  0  0  0  0
 30 29  2  0  0  0  0
 31 22  1  0  0  0  0
 32 31  1  0  0  0  0
 33 35  1  0  0  0  0
 33 29  1  0  0  0  0
 34 35  2  0  0  0  0
 35 36  1  0  0  0  0
 37 36  1  0  0  0  0
 38 35  1  0  0  0  0
 39 38  1  0  0  0  0
M  END
>  <minimizedAffinity>
-5.87445116

>  <minimizedRMSD>
0.466841519

$$$$
