
 OpenBabel03272503213D

 35 37  0  0  0  0  0  0  0  0999 V2000
   37.3260   30.9950   47.4880 C   0  0  0  0  0  0  0  0  0  0  0  0
   38.2330   31.9650   47.4930 C   0  0  0  0  0  0  0  0  0  0  0  0
   38.6860   32.4450   46.3140 C   0  0  0  0  0  0  0  0  0  0  0  0
   38.1740   31.8930   45.1650 C   0  0  0  0  0  0  0  0  0  0  0  0
   37.0090   30.6510   45.8180 S   0  0  0  0  0  0  0  0  0  0  0  0
   38.5870   32.3460   48.4460 H   0  0  0  0  0  0  0  0  0  0  0  0
   39.4200   33.2290   46.1580 H   0  0  0  0  0  0  0  0  0  0  0  0
   40.8480   30.9050   44.0860 Cl  0  0  0  0  0  0  0  0  0  0  0  0
   39.5690   31.7200   43.1980 C   0  0  0  0  0  0  0  0  0  0  0  0
   38.4000   32.1300   43.7600 C   0  0  0  0  0  0  0  0  0  0  0  0
   37.4020   32.7530   43.1180 C   0  0  0  0  0  0  0  0  0  0  0  0
   37.5260   33.0260   41.7570 C   0  0  0  0  0  0  0  0  0  0  0  0
   38.6890   32.6340   41.1330 C   0  0  0  0  0  0  0  0  0  0  0  0
   38.9530   32.9280   39.4220 Cl  0  0  0  0  0  0  0  0  0  0  0  0
   39.7020   31.9870   41.8430 C   0  0  0  0  0  0  0  0  0  0  0  0
   36.4610   33.0880   43.5510 H   0  0  0  0  0  0  0  0  0  0  0  0
   36.7430   33.5280   41.2010 H   0  0  0  0  0  0  0  0  0  0  0  0
   40.6100   31.6930   41.3080 H   0  0  0  0  0  0  0  0  0  0  0  0
   36.4150   29.7270   50.9270 C   0  0  0  0  0  0  0  0  0  0  0  0
   37.1000   30.4330   49.9310 C   0  0  0  0  0  0  0  0  0  0  0  0
   36.6570   30.2840   48.5940 C   0  0  0  0  0  0  0  0  0  0  0  0
   35.6200   29.4860   48.3520 N   0  0  0  0  0  0  0  0  0  0  0  0
   34.9830   28.8210   49.3240 C   0  0  0  0  0  0  0  0  0  0  0  0
   35.3760   28.9410   50.5900 N   0  0  0  0  0  0  0  0  0  0  0  0
   36.7560   29.8430   51.9430 H   0  0  0  0  0  0  0  0  0  0  0  0
   37.9440   31.0820   50.1350 H   0  0  0  0  0  0  0  0  0  0  0  0
   33.8610   27.9740   48.9570 C   0  0  0  0  0  0  0  0  0  0  0  0
   34.0530   26.9550   48.2530 O   0  0  0  0  0  0  0  0  0  0  0  0
   32.5400   28.1930   49.3270 O   0  0  0  0  0  0  0  0  0  0  0  0
   31.6120   28.3340   46.9170 O   0  0  0  0  0  0  0  0  0  0  0  0
   31.2350   27.7430   48.2800 P   0  0  0  0  0  0  0  0  0  0  0  0
   29.7800   28.3490   48.8360 O   0  0  0  0  0  0  0  0  0  0  0  0
   29.4790   29.0740   48.2060 H   0  0  0  0  0  0  0  0  0  0  0  0
   31.2610   26.0670   48.1280 O   0  0  0  0  0  0  0  0  0  0  0  0
   32.1450   25.6720   48.2820 H   0  0  0  0  0  0  0  0  0  0  0  0
  1  2  2  0  0  0  0
  1 21  1  0  0  0  0
  2  6  1  0  0  0  0
  3  2  1  0  0  0  0
  4  5  1  0  0  0  0
  4  3  2  0  0  0  0
  5  1  1  0  0  0  0
  7  3  1  0  0  0  0
  9 10  1  0  0  0  0
  9  8  1  0  0  0  0
 10  4  1  0  0  0  0
 11 16  1  0  0  0  0
 11 10  2  0  0  0  0
 12 11  1  0  0  0  0
 13 12  2  0  0  0  0
 13 15  1  0  0  0  0
 14 13  1  0  0  0  0
 15  9  2  0  0  0  0
 17 12  1  0  0  0  0
 18 15  1  0  0  0  0
 19 25  1  0  0  0  0
 20 26  1  0  0  0  0
 20 19  2  0  0  0  0
 21 20  1  0  0  0  0
 22 21  2  0  0  0  0
 22 23  1  0  0  0  0
 23 24  2  0  0  0  0
 24 19  1  0  0  0  0
 27 23  1  0  0  0  0
 27 29  1  0  0  0  0
 28 27  2  0  0  0  0
 30 31  2  0  0  0  0
 31 32  1  0  0  0  0
 31 29  1  0  0  0  0
 33 32  1  0  0  0  0
 34 31  1  0  0  0  0
 34 35  1  0  0  0  0
M  END
>  <minimizedAffinity>
-5.7631855

>  <minimizedRMSD>
1.42829335

$$$$
