
 OpenBabel03262522013D

 18 18  0  0  0  0  0  0  0  0999 V2000
   38.0950   25.5240   35.2070 C   0  0  0  0  0  0  0  0  0  0  0  0
   38.1280   26.7550   35.8830 C   0  0  0  0  0  0  0  0  0  0  0  0
   37.6040   27.8720   35.2310 C   0  0  0  0  0  0  0  0  0  0  0  0
   37.0860   27.7170   33.9710 N   0  0  0  0  0  0  0  0  0  0  0  0
   37.0710   26.5210   33.3550 C   0  0  0  0  0  0  0  0  0  0  0  0
   37.5730   25.4460   33.9760 N   0  0  0  0  0  0  0  0  0  0  0  0
   38.5320   26.8740   36.8650 H   0  0  0  0  0  0  0  0  0  0  0  0
   37.5950   28.8350   35.6790 H   0  0  0  0  0  0  0  0  0  0  0  0
   36.6650   26.3820   32.3600 H   0  0  0  0  0  0  0  0  0  0  0  0
   38.6330   24.3420   35.8610 C   0  0  0  0  0  0  0  0  0  0  0  0
   39.8360   24.0150   35.7410 O   0  0  0  0  0  0  0  0  0  0  0  0
   37.7870   23.5640   36.6300 O   0  0  0  0  0  0  0  0  0  0  0  0
   38.0410   24.6640   38.9640 O   0  0  0  0  0  0  0  0  0  0  0  0
   38.0700   23.2900   38.2950 P   0  0  0  0  0  0  0  0  0  0  0  0
   36.9370   22.2500   38.9830 O   0  0  0  0  0  0  0  0  0  0  0  0
   36.3740   22.7580   39.6440 H   0  0  0  0  0  0  0  0  0  0  0  0
   39.6520   22.6790   38.4990 O   0  0  0  0  0  0  0  0  0  0  0  0
   40.1730   22.9590   37.7060 H   0  0  0  0  0  0  0  0  0  0  0  0
  1 10  1  0  0  0  0
  1  2  1  0  0  0  0
  2  7  1  0  0  0  0
  3  8  1  0  0  0  0
  3  2  2  0  0  0  0
  4  3  1  0  0  0  0
  5  4  2  0  0  0  0
  5  6  1  0  0  0  0
  6  1  2  0  0  0  0
  9  5  1  0  0  0  0
 10 12  1  0  0  0  0
 11 10  2  0  0  0  0
 12 14  1  0  0  0  0
 14 17  1  0  0  0  0
 14 13  2  0  0  0  0
 14 15  1  0  0  0  0
 15 16  1  0  0  0  0
 18 17  1  0  0  0  0
M  END
>  <minimizedAffinity>
-4.20355082

$$$$

 OpenBabel03262522013D

 18 18  0  0  0  0  0  0  0  0999 V2000
   37.3900   22.0150   34.5730 C   0  0  0  0  0  0  0  0  0  0  0  0
   36.4050   21.0480   34.8350 C   0  0  0  0  0  0  0  0  0  0  0  0
   35.5920   20.6400   33.7750 C   0  0  0  0  0  0  0  0  0  0  0  0
   35.7920   21.1980   32.5390 N   0  0  0  0  0  0  0  0  0  0  0  0
   36.7460   22.1210   32.3260 C   0  0  0  0  0  0  0  0  0  0  0  0
   37.5280   22.5160   33.3390 N   0  0  0  0  0  0  0  0  0  0  0  0
   36.2500   20.6140   35.7990 H   0  0  0  0  0  0  0  0  0  0  0  0
   34.8270   19.9130   33.8980 H   0  0  0  0  0  0  0  0  0  0  0  0
   36.9170   22.5710   31.3550 H   0  0  0  0  0  0  0  0  0  0  0  0
   38.2520   22.4590   35.6560 C   0  0  0  0  0  0  0  0  0  0  0  0
   39.4220   22.0300   35.7820 O   0  0  0  0  0  0  0  0  0  0  0  0
   37.7590   23.3760   36.5650 O   0  0  0  0  0  0  0  0  0  0  0  0
   38.0080   24.6570   38.8050 O   0  0  0  0  0  0  0  0  0  0  0  0
   38.0530   23.2360   38.2450 P   0  0  0  0  0  0  0  0  0  0  0  0
   36.9360   22.2380   39.0170 O   0  0  0  0  0  0  0  0  0  0  0  0
   36.3690   22.7880   39.6400 H   0  0  0  0  0  0  0  0  0  0  0  0
   39.6440   22.6640   38.4880 O   0  0  0  0  0  0  0  0  0  0  0  0
   40.1570   22.8890   37.6730 H   0  0  0  0  0  0  0  0  0  0  0  0
  1  2  1  0  0  0  0
  1 10  1  0  0  0  0
  2  7  1  0  0  0  0
  3  8  1  0  0  0  0
  3  2  2  0  0  0  0
  4  3  1  0  0  0  0
  5  4  2  0  0  0  0
  5  6  1  0  0  0  0
  6  1  2  0  0  0  0
  9  5  1  0  0  0  0
 10 11  2  0  0  0  0
 10 12  1  0  0  0  0
 12 14  1  0  0  0  0
 14 17  1  0  0  0  0
 14 13  2  0  0  0  0
 14 15  1  0  0  0  0
 15 16  1  0  0  0  0
 18 17  1  0  0  0  0
M  END
>  <minimizedAffinity>
-4.06051254

$$$$

 OpenBabel03262522013D

 18 18  0  0  0  0  0  0  0  0999 V2000
   37.7570   25.8580   34.5760 C   0  0  0  0  0  0  0  0  0  0  0  0
   37.2260   27.0990   34.1870 C   0  0  0  0  0  0  0  0  0  0  0  0
   36.6710   27.2010   32.9100 C   0  0  0  0  0  0  0  0  0  0  0  0
   36.6700   26.0930   32.1030 N   0  0  0  0  0  0  0  0  0  0  0  0
   37.1860   24.9200   32.5100 C   0  0  0  0  0  0  0  0  0  0  0  0
   37.7210   24.8170   33.7340 N   0  0  0  0  0  0  0  0  0  0  0  0
   37.2290   27.9620   34.8180 H   0  0  0  0  0  0  0  0  0  0  0  0
   36.2520   28.1070   32.5470 H   0  0  0  0  0  0  0  0  0  0  0  0
   37.1920   24.0360   31.8850 H   0  0  0  0  0  0  0  0  0  0  0  0
   38.3410   25.7210   35.9010 C   0  0  0  0  0  0  0  0  0  0  0  0
   38.3360   26.6670   36.7220 O   0  0  0  0  0  0  0  0  0  0  0  0
   38.9170   24.5140   36.2530 O   0  0  0  0  0  0  0  0  0  0  0  0
   37.1080   22.8950   37.1630 O   0  0  0  0  0  0  0  0  0  0  0  0
   38.3820   23.6150   37.6060 P   0  0  0  0  0  0  0  0  0  0  0  0
   39.5400   22.5220   38.1580 O   0  0  0  0  0  0  0  0  0  0  0  0
   39.2180   21.5820   37.9990 H   0  0  0  0  0  0  0  0  0  0  0  0
   37.9270   24.6940   38.8490 O   0  0  0  0  0  0  0  0  0  0  0  0
   37.7160   25.5580   38.4170 H   0  0  0  0  0  0  0  0  0  0  0  0
  1 10  1  0  0  0  0
  2  1  1  0  0  0  0
  2  7  1  0  0  0  0
  3  2  2  0  0  0  0
  4  5  2  0  0  0  0
  4  3  1  0  0  0  0
  5  6  1  0  0  0  0
  6  1  2  0  0  0  0
  8  3  1  0  0  0  0
  9  5  1  0  0  0  0
 10 12  1  0  0  0  0
 10 11  2  0  0  0  0
 12 14  1  0  0  0  0
 13 14  2  0  0  0  0
 14 15  1  0  0  0  0
 14 17  1  0  0  0  0
 16 15  1  0  0  0  0
 18 17  1  0  0  0  0
M  END
>  <minimizedAffinity>
-3.94462204

$$$$

 OpenBabel03262522013D

 18 18  0  0  0  0  0  0  0  0999 V2000
   38.0680   24.8110   34.2390 C   0  0  0  0  0  0  0  0  0  0  0  0
   37.4020   25.7910   33.4840 C   0  0  0  0  0  0  0  0  0  0  0  0
   36.7160   25.3790   32.3400 C   0  0  0  0  0  0  0  0  0  0  0  0
   36.7240   24.0490   32.0100 N   0  0  0  0  0  0  0  0  0  0  0  0
   37.3720   23.1380   32.7580 C   0  0  0  0  0  0  0  0  0  0  0  0
   38.0320   23.5280   33.8570 N   0  0  0  0  0  0  0  0  0  0  0  0
   37.3980   26.8280   33.7420 H   0  0  0  0  0  0  0  0  0  0  0  0
   36.1910   26.0640   31.7200 H   0  0  0  0  0  0  0  0  0  0  0  0
   37.3870   22.0840   32.5120 H   0  0  0  0  0  0  0  0  0  0  0  0
   38.7900   25.2080   35.4370 C   0  0  0  0  0  0  0  0  0  0  0  0
   38.8820   26.4100   35.7800 O   0  0  0  0  0  0  0  0  0  0  0  0
   39.3900   24.2300   36.2080 O   0  0  0  0  0  0  0  0  0  0  0  0
   37.9610   24.4500   38.3600 O   0  0  0  0  0  0  0  0  0  0  0  0
   38.5370   23.3850   37.4260 P   0  0  0  0  0  0  0  0  0  0  0  0
   37.3210   22.3990   36.8020 O   0  0  0  0  0  0  0  0  0  0  0  0
   36.4230   22.7570   37.0790 H   0  0  0  0  0  0  0  0  0  0  0  0
   39.6430   22.4700   38.3500 O   0  0  0  0  0  0  0  0  0  0  0  0
   40.5290   22.8940   38.2400 H   0  0  0  0  0  0  0  0  0  0  0  0
  1 10  1  0  0  0  0
  2  7  1  0  0  0  0
  2  1  2  0  0  0  0
  3  2  1  0  0  0  0
  4  3  2  0  0  0  0
  4  5  1  0  0  0  0
  5  6  2  0  0  0  0
  6  1  1  0  0  0  0
  8  3  1  0  0  0  0
  9  5  1  0  0  0  0
 10 11  2  0  0  0  0
 10 12  1  0  0  0  0
 12 14  1  0  0  0  0
 14 17  1  0  0  0  0
 14 13  2  0  0  0  0
 15 16  1  0  0  0  0
 15 14  1  0  0  0  0
 18 17  1  0  0  0  0
M  END
>  <minimizedAffinity>
-3.78314257

$$$$

 OpenBabel03262522013D

 18 18  0  0  0  0  0  0  0  0999 V2000
   38.5520   23.8880   36.2080 C   0  0  0  0  0  0  0  0  0  0  0  0
   39.5930   23.0360   36.6140 C   0  0  0  0  0  0  0  0  0  0  0  0
   39.7780   22.8400   37.9840 C   0  0  0  0  0  0  0  0  0  0  0  0
   38.9410   23.4810   38.8610 N   0  0  0  0  0  0  0  0  0  0  0  0
   37.9540   24.2880   38.4340 C   0  0  0  0  0  0  0  0  0  0  0  0
   37.7730   24.4810   37.1210 N   0  0  0  0  0  0  0  0  0  0  0  0
   40.2440   22.5380   35.9300 H   0  0  0  0  0  0  0  0  0  0  0  0
   40.5440   22.2100   38.3660 H   0  0  0  0  0  0  0  0  0  0  0  0
   37.2850   24.8020   39.1130 H   0  0  0  0  0  0  0  0  0  0  0  0
   38.3340   24.1120   34.7870 C   0  0  0  0  0  0  0  0  0  0  0  0
   38.2430   23.1590   33.9790 O   0  0  0  0  0  0  0  0  0  0  0  0
   38.2290   25.4110   34.3270 O   0  0  0  0  0  0  0  0  0  0  0  0
   39.5000   27.5070   33.4830 O   0  0  0  0  0  0  0  0  0  0  0  0
   39.3880   26.6070   34.7140 P   0  0  0  0  0  0  0  0  0  0  0  0
   38.9720   27.4960   36.0850 O   0  0  0  0  0  0  0  0  0  0  0  0
   38.7710   28.4450   35.8210 H   0  0  0  0  0  0  0  0  0  0  0  0
   40.9120   25.8630   34.9170 O   0  0  0  0  0  0  0  0  0  0  0  0
   40.8830   25.0090   34.4200 H   0  0  0  0  0  0  0  0  0  0  0  0
  1  2  2  0  0  0  0
  1  6  1  0  0  0  0
  2  3  1  0  0  0  0
  3  8  1  0  0  0  0
  3  4  2  0  0  0  0
  5  4  1  0  0  0  0
  5  9  1  0  0  0  0
  6  5  2  0  0  0  0
  7  2  1  0  0  0  0
 10  1  1  0  0  0  0
 11 10  2  0  0  0  0
 12 14  1  0  0  0  0
 12 10  1  0  0  0  0
 13 14  2  0  0  0  0
 14 17  1  0  0  0  0
 14 15  1  0  0  0  0
 16 15  1  0  0  0  0
 18 17  1  0  0  0  0
M  END
>  <minimizedAffinity>
-3.76734471

$$$$

 OpenBabel03262522013D

 18 18  0  0  0  0  0  0  0  0999 V2000
   33.4590   30.7070   35.5680 C   0  0  0  0  0  0  0  0  0  0  0  0
   34.7730   30.7800   35.0770 C   0  0  0  0  0  0  0  0  0  0  0  0
   35.6660   31.6330   35.7260 C   0  0  0  0  0  0  0  0  0  0  0  0
   35.2230   32.3540   36.8040 N   0  0  0  0  0  0  0  0  0  0  0  0
   33.9570   32.2570   37.2470 C   0  0  0  0  0  0  0  0  0  0  0  0
   33.0950   31.4410   36.6280 N   0  0  0  0  0  0  0  0  0  0  0  0
   35.1160   30.2180   34.2350 H   0  0  0  0  0  0  0  0  0  0  0  0
   36.6750   31.7410   35.4100 H   0  0  0  0  0  0  0  0  0  0  0  0
   33.5910   32.8200   38.0980 H   0  0  0  0  0  0  0  0  0  0  0  0
   32.5050   29.8250   34.9130 C   0  0  0  0  0  0  0  0  0  0  0  0
   31.8020   30.2160   33.9530 O   0  0  0  0  0  0  0  0  0  0  0  0
   32.3760   28.5270   35.3700 O   0  0  0  0  0  0  0  0  0  0  0  0
   29.9030   28.5900   36.1440 O   0  0  0  0  0  0  0  0  0  0  0  0
   31.2760   28.1070   36.6110 P   0  0  0  0  0  0  0  0  0  0  0  0
   31.2640   26.4540   36.9350 O   0  0  0  0  0  0  0  0  0  0  0  0
   30.3770   26.0640   36.6630 H   0  0  0  0  0  0  0  0  0  0  0  0
   31.6550   28.9970   38.0180 O   0  0  0  0  0  0  0  0  0  0  0  0
   32.1540   29.7990   37.7260 H   0  0  0  0  0  0  0  0  0  0  0  0
  1  6  1  0  0  0  0
  2  1  2  0  0  0  0
  2  3  1  0  0  0  0
  3  4  2  0  0  0  0
  4  5  1  0  0  0  0
  5  9  1  0  0  0  0
  6  5  2  0  0  0  0
  7  2  1  0  0  0  0
  8  3  1  0  0  0  0
 10 12  1  0  0  0  0
 10  1  1  0  0  0  0
 11 10  2  0  0  0  0
 12 14  1  0  0  0  0
 13 14  2  0  0  0  0
 14 15  1  0  0  0  0
 14 17  1  0  0  0  0
 16 15  1  0  0  0  0
 18 17  1  0  0  0  0
M  END
>  <minimizedAffinity>
-3.63774776

$$$$

 OpenBabel03262522013D

 18 18  0  0  0  0  0  0  0  0999 V2000
   38.2090   25.6120   34.5890 C   0  0  0  0  0  0  0  0  0  0  0  0
   38.2760   26.6020   35.5840 C   0  0  0  0  0  0  0  0  0  0  0  0
   37.5950   27.8000   35.3590 C   0  0  0  0  0  0  0  0  0  0  0  0
   36.8990   27.9530   34.1880 N   0  0  0  0  0  0  0  0  0  0  0  0
   36.8570   26.9820   33.2590 C   0  0  0  0  0  0  0  0  0  0  0  0
   37.5080   25.8310   33.4690 N   0  0  0  0  0  0  0  0  0  0  0  0
   38.8190   26.4820   36.4960 H   0  0  0  0  0  0  0  0  0  0  0  0
   37.6010   28.5940   36.0650 H   0  0  0  0  0  0  0  0  0  0  0  0
   36.3110   27.0860   32.3290 H   0  0  0  0  0  0  0  0  0  0  0  0
   38.9070   24.3530   34.7950 C   0  0  0  0  0  0  0  0  0  0  0  0
   38.9350   23.4660   33.9110 O   0  0  0  0  0  0  0  0  0  0  0  0
   39.5510   24.1390   35.9990 O   0  0  0  0  0  0  0  0  0  0  0  0
   40.8740   21.9150   36.1550 O   0  0  0  0  0  0  0  0  0  0  0  0
   39.6260   22.5910   36.7240 P   0  0  0  0  0  0  0  0  0  0  0  0
   39.6850   22.6650   38.4070 O   0  0  0  0  0  0  0  0  0  0  0  0
   40.5810   22.3400   38.7260 H   0  0  0  0  0  0  0  0  0  0  0  0
   38.2880   21.6660   36.2060 O   0  0  0  0  0  0  0  0  0  0  0  0
   37.9820   22.0570   35.3510 H   0  0  0  0  0  0  0  0  0  0  0  0
  1 10  1  0  0  0  0
  1  2  1  0  0  0  0
  2  7  1  0  0  0  0
  3  2  2  0  0  0  0
  3  8  1  0  0  0  0
  4  3  1  0  0  0  0
  5  6  1  0  0  0  0
  5  4  2  0  0  0  0
  6  1  2  0  0  0  0
  9  5  1  0  0  0  0
 10 12  1  0  0  0  0
 11 10  2  0  0  0  0
 12 14  1  0  0  0  0
 13 14  2  0  0  0  0
 14 15  1  0  0  0  0
 15 16  1  0  0  0  0
 17 14  1  0  0  0  0
 18 17  1  0  0  0  0
M  END
>  <minimizedAffinity>
-3.60998559

$$$$

 OpenBabel03262522013D

 18 18  0  0  0  0  0  0  0  0999 V2000
   36.2940   24.0360   31.7500 C   0  0  0  0  0  0  0  0  0  0  0  0
   35.4040   24.8280   31.0040 C   0  0  0  0  0  0  0  0  0  0  0  0
   35.4440   26.2100   31.1940 C   0  0  0  0  0  0  0  0  0  0  0  0
   36.3430   26.7260   32.0920 N   0  0  0  0  0  0  0  0  0  0  0  0
   37.1800   25.9360   32.7870 C   0  0  0  0  0  0  0  0  0  0  0  0
   37.1450   24.6090   32.6100 N   0  0  0  0  0  0  0  0  0  0  0  0
   34.7040   24.4240   30.3050 H   0  0  0  0  0  0  0  0  0  0  0  0
   34.8020   26.8720   30.6660 H   0  0  0  0  0  0  0  0  0  0  0  0
   37.8960   26.3280   33.5000 H   0  0  0  0  0  0  0  0  0  0  0  0
   36.2760   22.5930   31.5730 C   0  0  0  0  0  0  0  0  0  0  0  0
   37.1120   22.0110   30.8430 O   0  0  0  0  0  0  0  0  0  0  0  0
   35.3090   21.8540   32.2280 O   0  0  0  0  0  0  0  0  0  0  0  0
   34.4620   19.4080   32.0860 O   0  0  0  0  0  0  0  0  0  0  0  0
   35.5800   20.2380   32.7180 P   0  0  0  0  0  0  0  0  0  0  0  0
   37.0980   19.6670   32.2620 O   0  0  0  0  0  0  0  0  0  0  0  0
   36.9910   18.9430   31.5720 H   0  0  0  0  0  0  0  0  0  0  0  0
   35.3750   20.1260   34.4100 O   0  0  0  0  0  0  0  0  0  0  0  0
   34.8020   20.8850   34.6810 H   0  0  0  0  0  0  0  0  0  0  0  0
  1  6  1  0  0  0  0
  2  3  1  0  0  0  0
  2  1  2  0  0  0  0
  3  4  2  0  0  0  0
  4  5  1  0  0  0  0
  5  9  1  0  0  0  0
  6  5  2  0  0  0  0
  7  2  1  0  0  0  0
  8  3  1  0  0  0  0
 10  1  1  0  0  0  0
 10 12  1  0  0  0  0
 11 10  2  0  0  0  0
 12 14  1  0  0  0  0
 13 14  2  0  0  0  0
 14 17  1  0  0  0  0
 15 14  1  0  0  0  0
 16 15  1  0  0  0  0
 17 18  1  0  0  0  0
M  END
>  <minimizedAffinity>
-3.59562683

$$$$

 OpenBabel03262522013D

 18 18  0  0  0  0  0  0  0  0999 V2000
   38.4860   22.3930   35.8330 C   0  0  0  0  0  0  0  0  0  0  0  0
   39.7940   22.2330   36.3200 C   0  0  0  0  0  0  0  0  0  0  0  0
   40.0660   22.6750   37.6160 C   0  0  0  0  0  0  0  0  0  0  0  0
   39.0520   23.2380   38.3470 N   0  0  0  0  0  0  0  0  0  0  0  0
   37.8110   23.3730   37.8470 C   0  0  0  0  0  0  0  0  0  0  0  0
   37.5440   22.9520   36.6040 N   0  0  0  0  0  0  0  0  0  0  0  0
   40.5830   21.7940   35.7490 H   0  0  0  0  0  0  0  0  0  0  0  0
   41.0320   22.5880   38.0510 H   0  0  0  0  0  0  0  0  0  0  0  0
   36.9990   23.8150   38.4120 H   0  0  0  0  0  0  0  0  0  0  0  0
   38.1710   21.9420   34.4870 C   0  0  0  0  0  0  0  0  0  0  0  0
   39.0430   21.8980   33.5890 O   0  0  0  0  0  0  0  0  0  0  0  0
   36.8750   21.5560   34.2000 O   0  0  0  0  0  0  0  0  0  0  0  0
   36.0750   22.7960   32.0690 O   0  0  0  0  0  0  0  0  0  0  0  0
   36.3150   21.3800   32.5940 P   0  0  0  0  0  0  0  0  0  0  0  0
   37.4020   20.5420   31.6160 O   0  0  0  0  0  0  0  0  0  0  0  0
   37.7750   21.1630   30.9190 H   0  0  0  0  0  0  0  0  0  0  0  0
   34.7950   20.6020   32.6140 O   0  0  0  0  0  0  0  0  0  0  0  0
   34.4060   20.7540   33.5100 H   0  0  0  0  0  0  0  0  0  0  0  0
  1  2  2  0  0  0  0
  1  6  1  0  0  0  0
  2  3  1  0  0  0  0
  3  8  1  0  0  0  0
  3  4  2  0  0  0  0
  5  4  1  0  0  0  0
  5  9  1  0  0  0  0
  6  5  2  0  0  0  0
  7  2  1  0  0  0  0
 10  1  1  0  0  0  0
 11 10  2  0  0  0  0
 12 10  1  0  0  0  0
 13 14  2  0  0  0  0
 14 17  1  0  0  0  0
 14 12  1  0  0  0  0
 15 14  1  0  0  0  0
 16 15  1  0  0  0  0
 17 18  1  0  0  0  0
M  END
>  <minimizedAffinity>
-3.47758865

$$$$
