
 OpenBabel03262521013D

 35 36  0  0  1  0  0  0  0  0999 V2000
   38.2010   30.6290   46.7800 S   0  0  0  0  0  0  0  0  0  0  0  0
   39.6250   32.9010   46.3020 N   0  0  0  0  0  0  0  0  0  0  0  0
   38.2940   32.3650   46.1800 C   0  0  1  0  0  0  0  0  0  0  0  0
   37.8680   32.3350   44.7410 C   0  0  0  0  0  0  0  0  0  0  0  0
   38.8350   31.4990   44.0320 N   0  0  0  0  0  0  0  0  0  0  0  0
   40.0810   32.2810   44.0260 C   0  0  0  0  0  0  0  0  0  0  0  0
   40.5870   32.2650   45.4650 C   0  0  2  0  0  0  0  0  0  0  0  0
   39.5710   33.8940   46.0560 H   0  0  0  0  0  0  0  0  0  0  0  0
   37.6370   32.9910   46.8070 H   0  0  0  0  0  0  0  0  0  0  0  0
   37.8200   33.3580   44.3510 H   0  0  0  0  0  0  0  0  0  0  0  0
   36.8810   31.8120   44.7050 H   0  0  0  0  0  0  0  0  0  0  0  0
   38.9870   30.6380   44.5970 H   0  0  0  0  0  0  0  0  0  0  0  0
   39.9080   33.3190   43.7150 H   0  0  0  0  0  0  0  0  0  0  0  0
   40.8270   31.7790   43.3860 H   0  0  0  0  0  0  0  0  0  0  0  0
   41.5120   32.8810   45.4600 H   0  0  0  0  0  0  0  0  0  0  0  0
   40.8580   30.8990   45.8340 N   0  0  0  0  0  0  0  0  0  0  0  0
   41.2030   30.8020   46.7960 H   0  0  0  0  0  0  0  0  0  0  0  0
   41.5860   30.5370   45.1760 H   0  0  0  0  0  0  0  0  0  0  0  0
   35.7960   31.1270   50.0070 C   0  0  0  0  0  0  0  0  0  0  0  0
   36.8250   31.3360   49.1190 C   0  0  0  0  0  0  0  0  0  0  0  0
   36.9330   30.5020   48.0300 C   0  0  0  0  0  0  0  0  0  0  0  0
   35.9990   29.4890   47.8750 N   0  0  0  0  0  0  0  0  0  0  0  0
   35.0280   29.3480   48.7780 C   0  0  0  0  0  0  0  0  0  0  0  0
   34.9000   30.1390   49.8390 N   0  0  0  0  0  0  0  0  0  0  0  0
   35.6890   31.7650   50.8660 H   0  0  0  0  0  0  0  0  0  0  0  0
   37.5640   32.1240   49.2240 H   0  0  0  0  0  0  0  0  0  0  0  0
   34.0550   28.2750   48.5820 C   0  0  0  0  0  0  0  0  0  0  0  0
   34.2150   27.3080   47.8130 O   0  0  0  0  0  0  0  0  0  0  0  0
   32.8610   28.3160   49.2920 O   0  0  0  0  0  0  0  0  0  0  0  0
   30.3810   27.8910   49.8740 O   0  0  0  0  0  0  0  0  0  0  0  0
   31.3720   27.7010   48.7280 P   0  0  0  0  0  0  0  0  0  0  0  0
   31.4290   26.0970   48.2750 O   0  0  0  0  0  0  0  0  0  0  0  0
   32.0990   25.5890   48.7960 H   0  0  0  0  0  0  0  0  0  0  0  0
   30.7650   28.6700   47.4550 O   0  0  0  0  0  0  0  0  0  0  0  0
   31.1670   29.5830   47.5300 H   0  0  0  0  0  0  0  0  0  0  0  0
  1 21  1  0  0  0  0
  3  2  1  0  0  0  0
  3  1  1  0  0  0  0
  3  9  1  1  0  0  0
  4  3  1  0  0  0  0
  5 12  1  0  0  0  0
  5  4  1  0  0  0  0
  6  5  1  0  0  0  0
  6  7  1  0  0  0  0
  7 15  1  1  0  0  0
  7 16  1  0  0  0  0
  7  2  1  0  0  0  0
  8  2  1  0  0  0  0
 10  4  1  0  0  0  0
 11  4  1  0  0  0  0
 13  6  1  0  0  0  0
 14  6  1  0  0  0  0
 16 17  1  0  0  0  0
 18 16  1  0  0  0  0
 19 25  1  0  0  0  0
 20 26  1  0  0  0  0
 20 19  2  0  0  0  0
 21 20  1  0  0  0  0
 22 21  2  0  0  0  0
 22 23  1  0  0  0  0
 23 24  2  0  0  0  0
 24 19  1  0  0  0  0
 27 23  1  0  0  0  0
 27 29  1  0  0  0  0
 28 27  2  0  0  0  0
 31 29  1  0  0  0  0
 31 30  2  0  0  0  0
 32 31  1  0  0  0  0
 32 33  1  0  0  0  0
 34 35  1  0  0  0  0
 34 31  1  0  0  0  0
M  END
>  <minimizedAffinity>
-5.31840992

>  <minimizedRMSD>
2.08792973

$$$$
