
     RDKit          3D

 18 18  0  0  0  0  0  0  0  0999 V2000
   37.8473   30.7658   50.5841 C   0  0  0  0  0  0  0  0  0  0  0  0
   37.5510   31.5666   49.4373 C   0  0  0  0  0  0  0  0  0  0  0  0
   36.6802   31.0373   48.4677 C   0  0  0  0  0  0  0  0  0  0  0  0
   36.1710   29.7978   48.6751 N   0  0  0  0  0  0  0  0  0  0  0  0
   36.4748   29.0792   49.7655 C   0  0  0  0  0  0  0  0  0  0  0  0
   37.2929   29.5440   50.7034 N   0  0  0  0  0  0  0  0  0  0  0  0
   38.1763   32.9022   49.3378 C   0  0  0  0  0  0  0  0  0  0  0  0
   38.9615   33.0383   48.3962 O   0  0  0  0  0  0  0  0  0  0  0  0
   38.5206   31.1999   51.3129 H   0  0  0  0  0  0  0  0  0  0  0  0
   36.4698   31.6604   47.6081 H   0  0  0  0  0  0  0  0  0  0  0  0
   36.0294   28.0781   49.8777 H   0  0  0  0  0  0  0  0  0  0  0  0
   36.1424   35.7367   50.8980 O   0  0  0  0  0  0  0  0  0  0  0  0
   36.2594   34.2221   50.7395 P   0  0  0  0  0  0  0  0  0  0  0  0
   35.8588   33.4680   52.1740 O   0  0  0  0  0  0  0  0  0  0  0  0
   35.2607   33.7372   49.4660 O   0  0  0  0  0  0  0  0  0  0  0  0
   37.8717   33.9072   50.2633 O   0  0  0  0  0  0  0  0  0  0  0  0
   36.1880   34.0002   52.9371 H   0  0  0  0  0  0  0  0  0  0  0  0
   35.7086   33.8383   48.5866 H   0  0  0  0  0  0  0  0  0  0  0  0
  1  6  2  0
  2  1  1  0
  3  4  1  0
  3  2  2  0
  4  5  2  0
  5  6  1  0
  7  2  1  0
  8  7  2  0
  1  9  1  0
  3 10  1  0
  5 11  1  0
 12 13  2  0
 13 14  1  0
 13 15  1  0
 13 16  1  0
 14 17  1  0
 15 18  1  0
  7 16  1  0
M  ISO  3   9  14  10  14  11  14
M  END
>  <DihAtoms>  (1) 
1,6,15,12

>  <DihDeg>  (1) 
179.99934524234385

$$$$
