REMARK  Name = 
REMARK  9 active torsions:
REMARK  status: ('A' for Active; 'I' for Inactive)
REMARK    1  A    between atoms: C_1  and  C_13
REMARK    2  A    between atoms: C_2  and  O_14
REMARK    3  A    between atoms: C_6  and  C_7
REMARK    4  A    between atoms: O_14  and  C_15
REMARK    5  A    between atoms: C_16  and  N_23
REMARK    6  A    between atoms: C_21  and  O_37
REMARK    7  A    between atoms: P_34  and  O_35
REMARK    8  A    between atoms: P_34  and  O_36
REMARK    9  A    between atoms: P_34  and  O_37
REMARK                            x       y       z     vdW  Elec       q    Type
REMARK                         _______ _______ _______ _____ _____    ______ ____
ROOT
ATOM      1  O   UNL     1      36.806  32.311  49.392  0.00  0.00    +0.000 OA
ENDROOT
BRANCH   1   3
ATOM      2  C   UNL     1      38.267  32.297  47.398  0.00  0.00    +0.000 A 
ATOM      3  C   UNL     1      37.904  32.733  48.656  0.00  0.00    +0.000 A 
ATOM      4  C   UNL     1      38.672  33.686  49.303  0.00  0.00    +0.000 A 
ATOM      5  C   UNL     1      39.803  34.197  48.681  0.00  0.00    +0.000 A 
ATOM      6  C   UNL     1      40.153  33.755  47.429  0.00  0.00    +0.000 A 
ATOM      7  C   UNL     1      39.376  32.808  46.805  0.00  0.00    +0.000 A 
ATOM      8  H   UNL     1      38.448  34.072  50.287  0.00  0.00    +0.000 HD
ATOM      9  H   UNL     1      40.402  34.946  49.195  0.00  0.00    +0.000 HD
ATOM     10  H   UNL     1      41.026  34.139  46.928  0.00  0.00    +0.000 HD
BRANCH   7  11
ATOM     11  C   UNL     1      39.763  32.341  45.458  0.00  0.00    +0.000 A 
ATOM     12  C   UNL     1      40.620  31.324  45.102  0.00  0.00    +0.000 A 
ATOM     13  C   UNL     1      40.642  31.289  43.705  0.00  0.00    +0.000 A 
ATOM     14  C   UNL     1      39.797  32.288  43.306  0.00  0.00    +0.000 A 
ATOM     15  O   UNL     1      39.287  32.900  44.358  0.00  0.00    +0.000 OA
ATOM     16  H   UNL     1      41.099  30.760  45.883  0.00  0.00    +0.000 HD
ATOM     17  H   UNL     1      41.275  30.537  43.255  0.00  0.00    +0.000 HD
ATOM     18  H   UNL     1      39.649  32.458  42.251  0.00  0.00    +0.000 HD
ENDBRANCH   7  11
BRANCH   2  20
ATOM     19  N   UNL     1      36.744  30.525  46.295  0.00  0.00    +0.000 NA
ATOM     20  C   UNL     1      37.427  31.311  46.790  0.00  0.00    +0.000 C 
ENDBRANCH   2  20
ENDBRANCH   1   3
BRANCH   1  21
ATOM     21  C   UNL     1      36.785  31.201  50.168  0.00  0.00    +0.000 A 
ATOM     22  C   UNL     1      35.642  30.427  49.946  0.00  0.00    +0.000 A 
ATOM     23  C   UNL     1      35.439  29.249  50.648  0.00  0.00    +0.000 A 
ATOM     24  N   UNL     1      36.393  28.887  51.549  0.00  0.00    +0.000 NA
ATOM     25  C   UNL     1      37.500  29.655  51.750  0.00  0.00    +0.000 A 
ATOM     26  N   UNL     1      37.675  30.772  51.074  0.00  0.00    +0.000 NA
ATOM     27  H   UNL     1      34.591  28.608  50.531  0.00  0.00    +0.000 HD
ATOM     28  H   UNL     1      38.265  29.362  52.476  0.00  0.00    +0.000 HD
BRANCH  22  31
ATOM     29  C   UNL     1      34.146  29.714  48.156  0.00  0.00    +0.000 C 
ATOM     30  O   UNL     1      34.547  28.522  47.873  0.00  0.00    +0.000 OA
ATOM     31  N   UNL     1      34.615  30.724  49.041  0.00  0.00    +0.000 N 
ATOM     32  H   UNL     1      34.165  31.628  48.963  0.00  0.00    +0.000 HD
BRANCH  29  33
ATOM     33  O   UNL     1      33.019  29.932  47.368  0.00  0.00    +0.000 OA
BRANCH  33  35
ATOM     34  O   UNL     1      33.608  31.171  45.062  0.00  0.00    +0.000 OA
ATOM     35  P   UNL     1      33.066  29.874  45.654  0.00  0.00    +0.000 P 
BRANCH  35  36
ATOM     36  O   UNL     1      33.945  28.593  45.049  0.00  0.00    +0.000 OA
ATOM     37  H   UNL     1      34.811  28.916  44.757  0.00  0.00    +0.000 HD
ENDBRANCH  35  36
BRANCH  35  38
ATOM     38  O   UNL     1      31.439  29.796  45.139  0.00  0.00    +0.000 OA
ATOM     39  H   UNL     1      30.999  30.614  45.533  0.00  0.00    +0.000 HD
ENDBRANCH  35  38
ENDBRANCH  33  35
ENDBRANCH  29  33
ENDBRANCH  22  31
ENDBRANCH   1  21
TORSDOF 9
