
 OpenBabel03272509073D

 38 40  0  0  0  0  0  0  0  0999 V2000
   32.7940   27.8560   48.7430 C   0  0  0  0  0  0  0  0  0  0  0  0
   32.5960   27.0500   49.5080 H   0  0  0  0  0  0  0  0  0  0  0  0
   31.8670   28.4250   48.6750 H   0  0  0  0  0  0  0  0  0  0  0  0
   33.0820   27.1060   47.4850 C   0  0  0  0  0  0  0  0  0  0  0  0
   33.6770   25.8510   47.4730 C   0  0  0  0  0  0  0  0  0  0  0  0
   33.9220   25.2030   46.2880 C   0  0  0  0  0  0  0  0  0  0  0  0
   33.5810   25.7860   45.0730 C   0  0  0  0  0  0  0  0  0  0  0  0
   33.0020   27.0100   45.0940 C   0  0  0  0  0  0  0  0  0  0  0  0
   32.7480   27.6750   46.2650 C   0  0  0  0  0  0  0  0  0  0  0  0
   33.9290   25.4310   48.4580 H   0  0  0  0  0  0  0  0  0  0  0  0
   34.3880   24.2340   46.4140 H   0  0  0  0  0  0  0  0  0  0  0  0
   33.8270   25.1700   44.2130 H   0  0  0  0  0  0  0  0  0  0  0  0
   32.7530   27.4260   44.1300 H   0  0  0  0  0  0  0  0  0  0  0  0
   32.1550   28.9280   46.2780 O   0  0  0  0  0  0  0  0  0  0  0  0
   32.2910   31.5310   46.0620 O   0  0  0  0  0  0  0  0  0  0  0  0
   33.0170   30.2670   45.6870 P   0  0  0  0  0  0  0  0  0  0  0  0
   33.1130   30.1220   43.9860 O   0  0  0  0  0  0  0  0  0  0  0  0
   33.7940   30.8140   43.7130 H   0  0  0  0  0  0  0  0  0  0  0  0
   34.5770   30.3520   46.3240 O   0  0  0  0  0  0  0  0  0  0  0  0
   34.9140   29.4410   46.5170 H   0  0  0  0  0  0  0  0  0  0  0  0
   35.2030   28.3520   49.0810 C   0  0  0  0  0  0  0  0  0  0  0  0
   33.9420   28.6280   49.2420 C   0  0  0  0  0  0  0  0  0  0  0  0
   37.3240   30.1370   51.4680 C   0  0  0  0  0  0  0  0  0  0  0  0
   38.0390   31.0030   50.6220 C   0  0  0  0  0  0  0  0  0  0  0  0
   37.7660   30.9490   49.2310 C   0  0  0  0  0  0  0  0  0  0  0  0
   36.8280   30.0610   48.7870 N   0  0  0  0  0  0  0  0  0  0  0  0
   36.1820   29.2590   49.6620 C   0  0  0  0  0  0  0  0  0  0  0  0
   36.4200   29.2910   50.9770 N   0  0  0  0  0  0  0  0  0  0  0  0
   37.5230   30.1700   52.5280 H   0  0  0  0  0  0  0  0  0  0  0  0
   38.7690   31.6930   50.9730 H   0  0  0  0  0  0  0  0  0  0  0  0
   38.4570   31.8100   48.2670 C   0  0  0  0  0  0  0  0  0  0  0  0
   38.7960   31.3680   47.0030 C   0  0  0  0  0  0  0  0  0  0  0  0
   39.4330   32.4260   46.3540 C   0  0  0  0  0  0  0  0  0  0  0  0
   39.4590   33.4610   47.2370 N   0  0  0  0  0  0  0  0  0  0  0  0
   38.8770   33.0740   48.3580 N   0  0  0  0  0  0  0  0  0  0  0  0
   38.6030   30.3740   46.5820 H   0  0  0  0  0  0  0  0  0  0  0  0
   39.8290   32.4340   45.3570 H   0  0  0  0  0  0  0  0  0  0  0  0
   39.8670   34.4130   47.0690 H   0  0  0  0  0  0  0  0  0  0  0  0
  1 22  1  0  0  0  0
  1  2  1  0  0  0  0
  3  1  1  0  0  0  0
  4  1  1  0  0  0  0
  5  4  1  0  0  0  0
  5 10  1  0  0  0  0
  6 11  1  0  0  0  0
  6  5  2  0  0  0  0
  7  8  2  0  0  0  0
  7  6  1  0  0  0  0
  8  9  1  0  0  0  0
  9 14  1  0  0  0  0
  9  4  2  0  0  0  0
 12  7  1  0  0  0  0
 13  8  1  0  0  0  0
 16 15  2  0  0  0  0
 16 14  1  0  0  0  0
 16 19  1  0  0  0  0
 17 16  1  0  0  0  0
 18 17  1  0  0  0  0
 19 20  1  0  0  0  0
 21 22  2  0  0  0  0
 21 27  1  0  0  0  0
 23 29  1  0  0  0  0
 24 30  1  0  0  0  0
 24 23  2  0  0  0  0
 25 24  1  0  0  0  0
 26 25  2  0  0  0  0
 26 27  1  0  0  0  0
 27 28  2  0  0  0  0
 28 23  1  0  0  0  0
 31 35  2  0  0  0  0
 31 25  1  0  0  0  0
 32 31  1  0  0  0  0
 33 32  2  0  0  0  0
 33 34  1  0  0  0  0
 34 35  1  0  0  0  0
 36 32  1  0  0  0  0
 37 33  1  0  0  0  0
 38 34  1  0  0  0  0
M  END
>  <minimizedAffinity>
-6.16994238

>  <minimizedRMSD>
1.01996517

$$$$
