
 OpenBabel03272510183D

 26 27  0  0  0  0  0  0  0  0999 V2000
   34.6160   31.8400   32.3210 Br  0  0  0  0  0  0  0  0  0  0  0  0
   35.5300   30.2320   32.8400 C   0  0  0  0  0  0  0  0  0  0  0  0
   35.5140   29.8110   34.1560 C   0  0  0  0  0  0  0  0  0  0  0  0
   36.1970   28.6410   34.4610 C   0  0  0  0  0  0  0  0  0  0  0  0
   36.8770   27.8990   33.5090 C   0  0  0  0  0  0  0  0  0  0  0  0
   36.8640   28.3560   32.2170 C   0  0  0  0  0  0  0  0  0  0  0  0
   36.1940   29.5150   31.8910 C   0  0  0  0  0  0  0  0  0  0  0  0
   36.1530   28.3560   35.5030 H   0  0  0  0  0  0  0  0  0  0  0  0
   37.3970   27.7640   31.5040 H   0  0  0  0  0  0  0  0  0  0  0  0
   36.1870   29.8690   30.8740 H   0  0  0  0  0  0  0  0  0  0  0  0
   34.9170   32.1800   36.8700 C   0  0  0  0  0  0  0  0  0  0  0  0
   33.5390   32.0400   37.1350 C   0  0  0  0  0  0  0  0  0  0  0  0
   32.8240   31.1260   36.3720 C   0  0  0  0  0  0  0  0  0  0  0  0
   33.4780   30.4100   35.4090 N   0  0  0  0  0  0  0  0  0  0  0  0
   34.8100   30.5690   35.1790 C   0  0  0  0  0  0  0  0  0  0  0  0
   35.5270   31.4610   35.9170 N   0  0  0  0  0  0  0  0  0  0  0  0
   35.4820   32.8970   37.4660 H   0  0  0  0  0  0  0  0  0  0  0  0
   33.1290   32.6590   37.9200 H   0  0  0  0  0  0  0  0  0  0  0  0
   31.7770   31.0160   36.5690 H   0  0  0  0  0  0  0  0  0  0  0  0
   37.4940   26.7660   33.9980 O   0  0  0  0  0  0  0  0  0  0  0  0
   39.1820   25.2740   35.2710 O   0  0  0  0  0  0  0  0  0  0  0  0
   38.9230   26.7390   34.9090 P   0  0  0  0  0  0  0  0  0  0  0  0
   40.2340   27.2360   33.9520 O   0  0  0  0  0  0  0  0  0  0  0  0
   40.0570   28.0630   33.4710 H   0  0  0  0  0  0  0  0  0  0  0  0
   38.7990   27.6450   36.3290 O   0  0  0  0  0  0  0  0  0  0  0  0
   39.6600   27.5460   36.8110 H   0  0  0  0  0  0  0  0  0  0  0  0
  1  2  1  0  0  0  0
  2  3  1  0  0  0  0
  3  4  2  0  0  0  0
  3 15  1  0  0  0  0
  4  8  1  0  0  0  0
  5 20  1  0  0  0  0
  5  4  1  0  0  0  0
  6  5  2  0  0  0  0
  7  6  1  0  0  0  0
  7  2  2  0  0  0  0
  9  6  1  0  0  0  0
 10  7  1  0  0  0  0
 11 12  1  0  0  0  0
 11 17  1  0  0  0  0
 12 18  1  0  0  0  0
 13 19  1  0  0  0  0
 13 12  2  0  0  0  0
 14 13  1  0  0  0  0
 15 14  2  0  0  0  0
 15 16  1  0  0  0  0
 16 11  2  0  0  0  0
 20 22  1  0  0  0  0
 22 21  2  0  0  0  0
 22 25  1  0  0  0  0
 23 22  1  0  0  0  0
 24 23  1  0  0  0  0
 25 26  1  0  0  0  0
M  END
>  <minimizedAffinity>
-4.98196745

$$$$

 OpenBabel03272510183D

 26 27  0  0  0  0  0  0  0  0999 V2000
   39.9110   27.0950   32.3470 Br  0  0  0  0  0  0  0  0  0  0  0  0
   39.2630   25.8550   33.6640 C   0  0  0  0  0  0  0  0  0  0  0  0
   37.9590   25.9280   34.1120 C   0  0  0  0  0  0  0  0  0  0  0  0
   37.5580   25.0010   35.0660 C   0  0  0  0  0  0  0  0  0  0  0  0
   38.4050   24.0280   35.5700 C   0  0  0  0  0  0  0  0  0  0  0  0
   39.6910   23.9950   35.0950 C   0  0  0  0  0  0  0  0  0  0  0  0
   40.1110   24.9060   34.1490 C   0  0  0  0  0  0  0  0  0  0  0  0
   36.5280   25.1010   35.3820 H   0  0  0  0  0  0  0  0  0  0  0  0
   40.3220   23.2350   35.5020 H   0  0  0  0  0  0  0  0  0  0  0  0
   41.1220   24.8750   33.7800 H   0  0  0  0  0  0  0  0  0  0  0  0
   35.6580   27.6510   31.8600 C   0  0  0  0  0  0  0  0  0  0  0  0
   35.3020   28.8140   32.5760 C   0  0  0  0  0  0  0  0  0  0  0  0
   35.8610   28.9950   33.8340 C   0  0  0  0  0  0  0  0  0  0  0  0
   36.7220   28.0500   34.3200 N   0  0  0  0  0  0  0  0  0  0  0  0
   37.0440   26.9390   33.6030 C   0  0  0  0  0  0  0  0  0  0  0  0
   36.5060   26.7450   32.3670 N   0  0  0  0  0  0  0  0  0  0  0  0
   35.2210   27.5060   30.8720 H   0  0  0  0  0  0  0  0  0  0  0  0
   34.6140   29.4910   32.0920 H   0  0  0  0  0  0  0  0  0  0  0  0
   35.5950   29.8760   34.3820 H   0  0  0  0  0  0  0  0  0  0  0  0
   37.8300   23.1960   36.5090 O   0  0  0  0  0  0  0  0  0  0  0  0
   38.0620   24.6260   38.6530 O   0  0  0  0  0  0  0  0  0  0  0  0
   38.1930   23.1810   38.1640 P   0  0  0  0  0  0  0  0  0  0  0  0
   37.0280   22.2800   39.0080 O   0  0  0  0  0  0  0  0  0  0  0  0
   36.8600   21.4110   38.6060 H   0  0  0  0  0  0  0  0  0  0  0  0
   39.7610   22.6330   38.4750 O   0  0  0  0  0  0  0  0  0  0  0  0
   39.8970   22.6880   39.4560 H   0  0  0  0  0  0  0  0  0  0  0  0
  1  2  1  0  0  0  0
  2  3  2  0  0  0  0
  2  7  1  0  0  0  0
  3  4  1  0  0  0  0
  4  8  1  0  0  0  0
  4  5  2  0  0  0  0
  5 20  1  0  0  0  0
  6  9  1  0  0  0  0
  6  5  1  0  0  0  0
  7  6  2  0  0  0  0
 10  7  1  0  0  0  0
 11 16  2  0  0  0  0
 11 12  1  0  0  0  0
 12 13  2  0  0  0  0
 13 14  1  0  0  0  0
 13 19  1  0  0  0  0
 15  3  1  0  0  0  0
 15 14  2  0  0  0  0
 16 15  1  0  0  0  0
 17 11  1  0  0  0  0
 18 12  1  0  0  0  0
 20 22  1  0  0  0  0
 22 25  1  0  0  0  0
 22 21  2  0  0  0  0
 22 23  1  0  0  0  0
 24 23  1  0  0  0  0
 25 26  1  0  0  0  0
M  END
>  <minimizedAffinity>
-4.76160479

$$$$

 OpenBabel03272510183D

 26 27  0  0  0  0  0  0  0  0999 V2000
   38.7370   26.0670   34.6700 Br  0  0  0  0  0  0  0  0  0  0  0  0
   38.2310   24.3960   33.8690 C   0  0  0  0  0  0  0  0  0  0  0  0
   38.1390   23.2510   34.6360 C   0  0  0  0  0  0  0  0  0  0  0  0
   37.7680   22.0780   33.9910 C   0  0  0  0  0  0  0  0  0  0  0  0
   37.4930   22.0220   32.6350 C   0  0  0  0  0  0  0  0  0  0  0  0
   37.5970   23.1830   31.9150 C   0  0  0  0  0  0  0  0  0  0  0  0
   37.9640   24.3600   32.5330 C   0  0  0  0  0  0  0  0  0  0  0  0
   37.7110   21.2120   34.6360 H   0  0  0  0  0  0  0  0  0  0  0  0
   37.3790   23.1100   30.8710 H   0  0  0  0  0  0  0  0  0  0  0  0
   38.0440   25.2690   31.9630 H   0  0  0  0  0  0  0  0  0  0  0  0
   39.9280   22.8030   37.7880 C   0  0  0  0  0  0  0  0  0  0  0  0
   39.0260   23.2990   38.7530 C   0  0  0  0  0  0  0  0  0  0  0  0
   37.8040   23.7850   38.3080 C   0  0  0  0  0  0  0  0  0  0  0  0
   37.5290   23.7630   36.9690 N   0  0  0  0  0  0  0  0  0  0  0  0
   38.4220   23.2780   36.0630 C   0  0  0  0  0  0  0  0  0  0  0  0
   39.6250   22.7970   36.4810 N   0  0  0  0  0  0  0  0  0  0  0  0
   40.8890   22.4210   38.1330 H   0  0  0  0  0  0  0  0  0  0  0  0
   39.3510   23.2660   39.7830 H   0  0  0  0  0  0  0  0  0  0  0  0
   37.1160   24.1620   39.0370 H   0  0  0  0  0  0  0  0  0  0  0  0
   37.1400   20.7700   32.1720 O   0  0  0  0  0  0  0  0  0  0  0  0
   34.5760   21.0960   32.0680 O   0  0  0  0  0  0  0  0  0  0  0  0
   35.6300   20.0320   32.3840 P   0  0  0  0  0  0  0  0  0  0  0  0
   35.4210   18.7940   31.2420 O   0  0  0  0  0  0  0  0  0  0  0  0
   36.1820   18.1890   31.1980 H   0  0  0  0  0  0  0  0  0  0  0  0
   35.3990   19.4790   33.9640 O   0  0  0  0  0  0  0  0  0  0  0  0
   34.4850   19.0960   34.0050 H   0  0  0  0  0  0  0  0  0  0  0  0
  2  3  1  0  0  0  0
  2  1  1  0  0  0  0
  3 15  1  0  0  0  0
  4  8  1  0  0  0  0
  4  3  2  0  0  0  0
  5  4  1  0  0  0  0
  6  7  1  0  0  0  0
  6  5  2  0  0  0  0
  7  2  2  0  0  0  0
  9  6  1  0  0  0  0
 10  7  1  0  0  0  0
 11 17  1  0  0  0  0
 11 12  1  0  0  0  0
 12 18  1  0  0  0  0
 13 12  2  0  0  0  0
 13 19  1  0  0  0  0
 14 13  1  0  0  0  0
 15 16  1  0  0  0  0
 15 14  2  0  0  0  0
 16 11  2  0  0  0  0
 20 22  1  0  0  0  0
 20  5  1  0  0  0  0
 21 22  2  0  0  0  0
 22 25  1  0  0  0  0
 23 22  1  0  0  0  0
 24 23  1  0  0  0  0
 25 26  1  0  0  0  0
M  END
>  <minimizedAffinity>
-4.7589817

$$$$

 OpenBabel03272510183D

 26 27  0  0  0  0  0  0  0  0999 V2000
   36.2650   27.1420   31.8180 Br  0  0  0  0  0  0  0  0  0  0  0  0
   36.3950   25.2280   31.9130 C   0  0  0  0  0  0  0  0  0  0  0  0
   37.3240   24.6290   32.7410 C   0  0  0  0  0  0  0  0  0  0  0  0
   37.3640   23.2410   32.7590 C   0  0  0  0  0  0  0  0  0  0  0  0
   36.5200   22.4560   31.9910 C   0  0  0  0  0  0  0  0  0  0  0  0
   35.6140   23.0950   31.1850 C   0  0  0  0  0  0  0  0  0  0  0  0
   35.5570   24.4720   31.1500 C   0  0  0  0  0  0  0  0  0  0  0  0
   38.1080   22.8240   33.4230 H   0  0  0  0  0  0  0  0  0  0  0  0
   34.9760   22.4640   30.6040 H   0  0  0  0  0  0  0  0  0  0  0  0
   34.8430   24.9680   30.5150 H   0  0  0  0  0  0  0  0  0  0  0  0
   40.2930   26.5030   33.7480 C   0  0  0  0  0  0  0  0  0  0  0  0
   39.9830   26.9370   35.0540 C   0  0  0  0  0  0  0  0  0  0  0  0
   38.7490   26.5780   35.5790 C   0  0  0  0  0  0  0  0  0  0  0  0
   37.8960   25.8290   34.8170 N   0  0  0  0  0  0  0  0  0  0  0  0
   38.2260   25.4260   33.5590 C   0  0  0  0  0  0  0  0  0  0  0  0
   39.4320   25.7690   33.0280 N   0  0  0  0  0  0  0  0  0  0  0  0
   41.2610   26.7830   33.3320 H   0  0  0  0  0  0  0  0  0  0  0  0
   40.7340   27.5240   35.5620 H   0  0  0  0  0  0  0  0  0  0  0  0
   38.5090   26.9050   36.5700 H   0  0  0  0  0  0  0  0  0  0  0  0
   36.7050   21.0970   32.1420 O   0  0  0  0  0  0  0  0  0  0  0  0
   36.1380   18.6080   32.5630 O   0  0  0  0  0  0  0  0  0  0  0  0
   35.5670   20.0120   32.7740 P   0  0  0  0  0  0  0  0  0  0  0  0
   35.4260   20.2270   34.4520 O   0  0  0  0  0  0  0  0  0  0  0  0
   35.3040   21.1590   34.7040 H   0  0  0  0  0  0  0  0  0  0  0  0
   34.0710   20.1220   31.9960 O   0  0  0  0  0  0  0  0  0  0  0  0
   33.4820   19.4350   32.4030 H   0  0  0  0  0  0  0  0  0  0  0  0
  1  2  1  0  0  0  0
  2  3  1  0  0  0  0
  3  4  2  0  0  0  0
  3 15  1  0  0  0  0
  4  8  1  0  0  0  0
  5 20  1  0  0  0  0
  5  4  1  0  0  0  0
  6  5  2  0  0  0  0
  7  6  1  0  0  0  0
  7  2  2  0  0  0  0
  9  6  1  0  0  0  0
 10  7  1  0  0  0  0
 11 12  1  0  0  0  0
 12 18  1  0  0  0  0
 12 13  2  0  0  0  0
 13 19  1  0  0  0  0
 14 13  1  0  0  0  0
 15 14  2  0  0  0  0
 16 15  1  0  0  0  0
 16 11  2  0  0  0  0
 17 11  1  0  0  0  0
 20 22  1  0  0  0  0
 21 22  2  0  0  0  0
 22 23  1  0  0  0  0
 23 24  1  0  0  0  0
 25 26  1  0  0  0  0
 25 22  1  0  0  0  0
M  END
>  <minimizedAffinity>
-4.67163897

$$$$

 OpenBabel03272510183D

 26 27  0  0  0  0  0  0  0  0999 V2000
   37.0870   28.9840   29.6540 Br  0  0  0  0  0  0  0  0  0  0  0  0
   36.4680   29.5660   31.3770 C   0  0  0  0  0  0  0  0  0  0  0  0
   36.1640   28.6440   32.3590 C   0  0  0  0  0  0  0  0  0  0  0  0
   35.7200   29.1340   33.5800 C   0  0  0  0  0  0  0  0  0  0  0  0
   35.5780   30.4880   33.8390 C   0  0  0  0  0  0  0  0  0  0  0  0
   35.8930   31.3650   32.8330 C   0  0  0  0  0  0  0  0  0  0  0  0
   36.3340   30.9010   31.6120 C   0  0  0  0  0  0  0  0  0  0  0  0
   35.4960   28.3720   34.3140 H   0  0  0  0  0  0  0  0  0  0  0  0
   35.7730   32.4020   33.0610 H   0  0  0  0  0  0  0  0  0  0  0  0
   36.5800   31.5940   30.8270 H   0  0  0  0  0  0  0  0  0  0  0  0
   37.5810   25.2780   32.3990 C   0  0  0  0  0  0  0  0  0  0  0  0
   36.6280   24.5090   31.6990 C   0  0  0  0  0  0  0  0  0  0  0  0
   35.5000   25.1610   31.2160 C   0  0  0  0  0  0  0  0  0  0  0  0
   35.3620   26.5030   31.4370 N   0  0  0  0  0  0  0  0  0  0  0  0
   36.3020   27.2150   32.1180 C   0  0  0  0  0  0  0  0  0  0  0  0
   37.4140   26.5940   32.5980 N   0  0  0  0  0  0  0  0  0  0  0  0
   38.4670   24.7710   32.7800 H   0  0  0  0  0  0  0  0  0  0  0  0
   36.8420   23.4570   31.5840 H   0  0  0  0  0  0  0  0  0  0  0  0
   34.7730   24.5810   30.6830 H   0  0  0  0  0  0  0  0  0  0  0  0
   35.1270   30.7850   35.1090 O   0  0  0  0  0  0  0  0  0  0  0  0
   34.2110   33.1970   35.3040 O   0  0  0  0  0  0  0  0  0  0  0  0
   35.2910   32.2820   35.8860 P   0  0  0  0  0  0  0  0  0  0  0  0
   34.9440   32.1200   37.5400 O   0  0  0  0  0  0  0  0  0  0  0  0
   35.4170   31.3780   37.9530 H   0  0  0  0  0  0  0  0  0  0  0  0
   36.8070   32.9810   35.6240 O   0  0  0  0  0  0  0  0  0  0  0  0
   36.8020   33.8600   36.0830 H   0  0  0  0  0  0  0  0  0  0  0  0
  1  2  1  0  0  0  0
  2  7  2  0  0  0  0
  2  3  1  0  0  0  0
  3  4  2  0  0  0  0
  4  5  1  0  0  0  0
  4  8  1  0  0  0  0
  5 20  1  0  0  0  0
  6  9  1  0  0  0  0
  6  5  2  0  0  0  0
  7  6  1  0  0  0  0
 10  7  1  0  0  0  0
 11 16  1  0  0  0  0
 11 17  1  0  0  0  0
 12 11  2  0  0  0  0
 13 14  2  0  0  0  0
 13 12  1  0  0  0  0
 14 15  1  0  0  0  0
 15  3  1  0  0  0  0
 15 16  2  0  0  0  0
 18 12  1  0  0  0  0
 19 13  1  0  0  0  0
 20 22  1  0  0  0  0
 21 22  2  0  0  0  0
 22 23  1  0  0  0  0
 23 24  1  0  0  0  0
 25 22  1  0  0  0  0
 25 26  1  0  0  0  0
M  END
>  <minimizedAffinity>
-4.64790297

$$$$

 OpenBabel03272510183D

 26 27  0  0  0  0  0  0  0  0999 V2000
   35.1790   32.4950   32.2730 Br  0  0  0  0  0  0  0  0  0  0  0  0
   35.6900   30.6470   32.3950 C   0  0  0  0  0  0  0  0  0  0  0  0
   35.5280   29.9520   33.5780 C   0  0  0  0  0  0  0  0  0  0  0  0
   35.9200   28.6200   33.5950 C   0  0  0  0  0  0  0  0  0  0  0  0
   36.4540   27.9800   32.4880 C   0  0  0  0  0  0  0  0  0  0  0  0
   36.5940   28.7100   31.3370 C   0  0  0  0  0  0  0  0  0  0  0  0
   36.2130   30.0350   31.2960 C   0  0  0  0  0  0  0  0  0  0  0  0
   35.7720   28.1230   34.5440 H   0  0  0  0  0  0  0  0  0  0  0  0
   37.0090   28.1910   30.5000 H   0  0  0  0  0  0  0  0  0  0  0  0
   36.3260   30.6030   30.3890 H   0  0  0  0  0  0  0  0  0  0  0  0
   33.0870   31.0120   36.0780 C   0  0  0  0  0  0  0  0  0  0  0  0
   33.8490   31.7890   36.9770 C   0  0  0  0  0  0  0  0  0  0  0  0
   35.2040   31.9410   36.7110 C   0  0  0  0  0  0  0  0  0  0  0  0
   35.7350   31.3400   35.6050 N   0  0  0  0  0  0  0  0  0  0  0  0
   34.9710   30.5960   34.7580 C   0  0  0  0  0  0  0  0  0  0  0  0
   33.6420   30.4360   35.0020 N   0  0  0  0  0  0  0  0  0  0  0  0
   32.0230   30.8900   36.2830 H   0  0  0  0  0  0  0  0  0  0  0  0
   33.3230   32.2160   37.8170 H   0  0  0  0  0  0  0  0  0  0  0  0
   35.7870   32.5300   37.3900 H   0  0  0  0  0  0  0  0  0  0  0  0
   36.7830   26.6560   32.6940 O   0  0  0  0  0  0  0  0  0  0  0  0
   36.7710   24.0920   32.3510 O   0  0  0  0  0  0  0  0  0  0  0  0
   36.5390   25.3970   31.5860 P   0  0  0  0  0  0  0  0  0  0  0  0
   34.9210   25.3750   31.0760 O   0  0  0  0  0  0  0  0  0  0  0  0
   34.6020   26.2500   30.7950 H   0  0  0  0  0  0  0  0  0  0  0  0
   37.6110   25.4700   30.2820 O   0  0  0  0  0  0  0  0  0  0  0  0
   37.4210   24.6840   29.7070 H   0  0  0  0  0  0  0  0  0  0  0  0
  1  2  1  0  0  0  0
  2  3  1  0  0  0  0
  3  4  2  0  0  0  0
  3 15  1  0  0  0  0
  4  8  1  0  0  0  0
  5 20  1  0  0  0  0
  5  4  1  0  0  0  0
  6  5  2  0  0  0  0
  7  6  1  0  0  0  0
  7  2  2  0  0  0  0
  9  6  1  0  0  0  0
 10  7  1  0  0  0  0
 11 17  1  0  0  0  0
 11 12  1  0  0  0  0
 12 18  1  0  0  0  0
 13 12  2  0  0  0  0
 13 19  1  0  0  0  0
 14 13  1  0  0  0  0
 15 16  1  0  0  0  0
 15 14  2  0  0  0  0
 16 11  2  0  0  0  0
 22 21  2  0  0  0  0
 22 20  1  0  0  0  0
 23 22  1  0  0  0  0
 24 23  1  0  0  0  0
 25 22  1  0  0  0  0
 26 25  1  0  0  0  0
M  END
>  <minimizedAffinity>
-4.58748579

$$$$

 OpenBabel03272510183D

 26 27  0  0  0  0  0  0  0  0999 V2000
   36.5600   27.3480   31.8990 Br  0  0  0  0  0  0  0  0  0  0  0  0
   37.4280   26.4010   33.3260 C   0  0  0  0  0  0  0  0  0  0  0  0
   38.3940   25.4520   33.0520 C   0  0  0  0  0  0  0  0  0  0  0  0
   38.9800   24.8050   34.1320 C   0  0  0  0  0  0  0  0  0  0  0  0
   38.6350   25.0760   35.4460 C   0  0  0  0  0  0  0  0  0  0  0  0
   37.6720   26.0260   35.6690 C   0  0  0  0  0  0  0  0  0  0  0  0
   37.0760   26.6800   34.6120 C   0  0  0  0  0  0  0  0  0  0  0  0
   39.7290   24.0730   33.8620 H   0  0  0  0  0  0  0  0  0  0  0  0
   37.4270   26.2130   36.6920 H   0  0  0  0  0  0  0  0  0  0  0  0
   36.3210   27.4250   34.7940 H   0  0  0  0  0  0  0  0  0  0  0  0
   38.5550   23.7230   29.8390 C   0  0  0  0  0  0  0  0  0  0  0  0
   39.4590   24.5030   29.0880 C   0  0  0  0  0  0  0  0  0  0  0  0
   40.0080   25.6230   29.6980 C   0  0  0  0  0  0  0  0  0  0  0  0
   39.6540   25.9190   30.9850 N   0  0  0  0  0  0  0  0  0  0  0  0
   38.7780   25.1450   31.6820 C   0  0  0  0  0  0  0  0  0  0  0  0
   38.2290   24.0430   31.1000 N   0  0  0  0  0  0  0  0  0  0  0  0
   38.1210   22.8430   29.3640 H   0  0  0  0  0  0  0  0  0  0  0  0
   39.6650   24.1730   28.0800 H   0  0  0  0  0  0  0  0  0  0  0  0
   40.6950   26.2190   29.1320 H   0  0  0  0  0  0  0  0  0  0  0  0
   39.3250   24.3360   36.3840 O   0  0  0  0  0  0  0  0  0  0  0  0
   38.0450   24.3320   38.6330 O   0  0  0  0  0  0  0  0  0  0  0  0
   38.6220   23.3730   37.5880 P   0  0  0  0  0  0  0  0  0  0  0  0
   37.3070   22.5100   36.9510 O   0  0  0  0  0  0  0  0  0  0  0  0
   37.5230   22.0520   36.1200 H   0  0  0  0  0  0  0  0  0  0  0  0
   39.7440   22.3540   38.3350 O   0  0  0  0  0  0  0  0  0  0  0  0
   39.2570   21.8560   39.0420 H   0  0  0  0  0  0  0  0  0  0  0  0
  1  2  1  0  0  0  0
  2  7  1  0  0  0  0
  3  2  2  0  0  0  0
  3  4  1  0  0  0  0
  4  5  2  0  0  0  0
  5  6  1  0  0  0  0
  5 20  1  0  0  0  0
  6  9  1  0  0  0  0
  7 10  1  0  0  0  0
  7  6  2  0  0  0  0
  8  4  1  0  0  0  0
 11 16  1  0  0  0  0
 12 13  1  0  0  0  0
 12 11  2  0  0  0  0
 13 14  2  0  0  0  0
 14 15  1  0  0  0  0
 15  3  1  0  0  0  0
 16 15  2  0  0  0  0
 17 11  1  0  0  0  0
 18 12  1  0  0  0  0
 19 13  1  0  0  0  0
 20 22  1  0  0  0  0
 22 25  1  0  0  0  0
 22 21  2  0  0  0  0
 23 22  1  0  0  0  0
 24 23  1  0  0  0  0
 25 26  1  0  0  0  0
M  END
>  <minimizedAffinity>
-4.545362

$$$$

 OpenBabel03272510183D

 26 27  0  0  0  0  0  0  0  0999 V2000
   35.0880   32.3960   32.2070 Br  0  0  0  0  0  0  0  0  0  0  0  0
   35.6850   30.5760   32.3540 C   0  0  0  0  0  0  0  0  0  0  0  0
   35.5490   29.8890   33.5440 C   0  0  0  0  0  0  0  0  0  0  0  0
   36.0020   28.5760   33.5800 C   0  0  0  0  0  0  0  0  0  0  0  0
   36.5720   27.9490   32.4840 C   0  0  0  0  0  0  0  0  0  0  0  0
   36.6860   28.6720   31.3240 C   0  0  0  0  0  0  0  0  0  0  0  0
   36.2430   29.9760   31.2660 C   0  0  0  0  0  0  0  0  0  0  0  0
   35.8720   28.0840   34.5340 H   0  0  0  0  0  0  0  0  0  0  0  0
   37.1300   28.1630   30.4960 H   0  0  0  0  0  0  0  0  0  0  0  0
   36.3350   30.5380   30.3520 H   0  0  0  0  0  0  0  0  0  0  0  0
   35.2540   31.8800   36.5900 C   0  0  0  0  0  0  0  0  0  0  0  0
   33.8940   31.7460   36.9440 C   0  0  0  0  0  0  0  0  0  0  0  0
   33.0880   30.9660   36.1250 C   0  0  0  0  0  0  0  0  0  0  0  0
   33.6380   30.3690   35.0250 N   0  0  0  0  0  0  0  0  0  0  0  0
   34.9540   30.5200   34.7130 C   0  0  0  0  0  0  0  0  0  0  0  0
   35.7600   31.2800   35.5030 N   0  0  0  0  0  0  0  0  0  0  0  0
   35.8900   32.4920   37.2300 H   0  0  0  0  0  0  0  0  0  0  0  0
   33.5700   32.2630   37.8350 H   0  0  0  0  0  0  0  0  0  0  0  0
   32.0550   30.8610   36.3890 H   0  0  0  0  0  0  0  0  0  0  0  0
   36.9620   26.6450   32.7080 O   0  0  0  0  0  0  0  0  0  0  0  0
   35.1920   25.4740   31.2290 O   0  0  0  0  0  0  0  0  0  0  0  0
   36.6470   25.3330   31.6820 P   0  0  0  0  0  0  0  0  0  0  0  0
   37.6000   25.4460   30.2820 O   0  0  0  0  0  0  0  0  0  0  0  0
   38.5390   25.6110   30.4770 H   0  0  0  0  0  0  0  0  0  0  0  0
   36.8420   23.8460   32.4600 O   0  0  0  0  0  0  0  0  0  0  0  0
   36.6060   23.1420   31.8010 H   0  0  0  0  0  0  0  0  0  0  0  0
  1  2  1  0  0  0  0
  2  3  1  0  0  0  0
  3  4  2  0  0  0  0
  3 15  1  0  0  0  0
  4  8  1  0  0  0  0
  5 20  1  0  0  0  0
  5  4  1  0  0  0  0
  6  5  2  0  0  0  0
  7  6  1  0  0  0  0
  7  2  2  0  0  0  0
  9  6  1  0  0  0  0
 10  7  1  0  0  0  0
 11 12  1  0  0  0  0
 11 17  1  0  0  0  0
 12 18  1  0  0  0  0
 13 19  1  0  0  0  0
 13 12  2  0  0  0  0
 14 13  1  0  0  0  0
 15 14  2  0  0  0  0
 15 16  1  0  0  0  0
 16 11  2  0  0  0  0
 21 22  2  0  0  0  0
 22 25  1  0  0  0  0
 22 20  1  0  0  0  0
 23 24  1  0  0  0  0
 23 22  1  0  0  0  0
 26 25  1  0  0  0  0
M  END
>  <minimizedAffinity>
-4.53168011

$$$$

 OpenBabel03272510183D

 26 27  0  0  0  0  0  0  0  0999 V2000
   38.5500   27.0880   35.6870 Br  0  0  0  0  0  0  0  0  0  0  0  0
   38.2410   25.3200   35.0050 C   0  0  0  0  0  0  0  0  0  0  0  0
   37.8970   25.1300   33.6810 C   0  0  0  0  0  0  0  0  0  0  0  0
   37.6870   23.8250   33.2550 C   0  0  0  0  0  0  0  0  0  0  0  0
   37.8090   22.7320   34.0970 C   0  0  0  0  0  0  0  0  0  0  0  0
   38.1530   22.9700   35.4030 C   0  0  0  0  0  0  0  0  0  0  0  0
   38.3660   24.2570   35.8480 C   0  0  0  0  0  0  0  0  0  0  0  0
   37.4200   23.7330   32.2110 H   0  0  0  0  0  0  0  0  0  0  0  0
   38.2400   22.1080   36.0290 H   0  0  0  0  0  0  0  0  0  0  0  0
   38.6350   24.4370   36.8740 H   0  0  0  0  0  0  0  0  0  0  0  0
   38.7690   27.6630   31.1980 C   0  0  0  0  0  0  0  0  0  0  0  0
   37.5690   28.3860   31.0280 C   0  0  0  0  0  0  0  0  0  0  0  0
   36.4660   27.9930   31.7730 C   0  0  0  0  0  0  0  0  0  0  0  0
   36.5860   26.9350   32.6300 N   0  0  0  0  0  0  0  0  0  0  0  0
   37.7590   26.2580   32.7710 C   0  0  0  0  0  0  0  0  0  0  0  0
   38.8520   26.6290   32.0480 N   0  0  0  0  0  0  0  0  0  0  0  0
   39.6370   27.9680   30.6140 H   0  0  0  0  0  0  0  0  0  0  0  0
   37.5910   29.2040   30.3230 H   0  0  0  0  0  0  0  0  0  0  0  0
   35.5530   28.5390   31.6480 H   0  0  0  0  0  0  0  0  0  0  0  0
   37.5640   21.5140   33.4970 O   0  0  0  0  0  0  0  0  0  0  0  0
   36.2720   19.4510   32.6200 O   0  0  0  0  0  0  0  0  0  0  0  0
   36.0430   20.7830   33.3390 P   0  0  0  0  0  0  0  0  0  0  0  0
   35.4180   20.4030   34.8700 O   0  0  0  0  0  0  0  0  0  0  0  0
   35.4630   21.1500   35.4920 H   0  0  0  0  0  0  0  0  0  0  0  0
   34.9690   21.7220   32.4330 O   0  0  0  0  0  0  0  0  0  0  0  0
   34.1230   21.2070   32.3640 H   0  0  0  0  0  0  0  0  0  0  0  0
  2  1  1  0  0  0  0
  2  7  1  0  0  0  0
  3  2  2  0  0  0  0
  4  3  1  0  0  0  0
  4  5  2  0  0  0  0
  5  6  1  0  0  0  0
  6  7  2  0  0  0  0
  6  9  1  0  0  0  0
  7 10  1  0  0  0  0
  8  4  1  0  0  0  0
 11 16  1  0  0  0  0
 12 11  2  0  0  0  0
 12 13  1  0  0  0  0
 13 14  2  0  0  0  0
 14 15  1  0  0  0  0
 15  3  1  0  0  0  0
 16 15  2  0  0  0  0
 17 11  1  0  0  0  0
 18 12  1  0  0  0  0
 19 13  1  0  0  0  0
 20  5  1  0  0  0  0
 21 22  2  0  0  0  0
 22 20  1  0  0  0  0
 22 23  1  0  0  0  0
 23 24  1  0  0  0  0
 25 22  1  0  0  0  0
 26 25  1  0  0  0  0
M  END
>  <minimizedAffinity>
-4.5300293

$$$$
