
 OpenBabel03272510293D

 26 27  0  0  0  0  0  0  0  0999 V2000
   37.1350   31.2910   49.2200 C   0  0  0  0  0  0  0  0  0  0  0  0
   37.3330   32.5440   49.8090 C   0  0  0  0  0  0  0  0  0  0  0  0
   38.2850   33.3530   49.1880 C   0  0  0  0  0  0  0  0  0  0  0  0
   38.9490   32.8910   48.0800 N   0  0  0  0  0  0  0  0  0  0  0  0
   38.7140   31.6650   47.5540 C   0  0  0  0  0  0  0  0  0  0  0  0
   37.7850   30.8390   48.1360 N   0  0  0  0  0  0  0  0  0  0  0  0
   36.7830   32.8510   50.6760 H   0  0  0  0  0  0  0  0  0  0  0  0
   38.4970   34.3380   49.5820 H   0  0  0  0  0  0  0  0  0  0  0  0
   36.0940   30.4090   49.8410 C   0  0  0  0  0  0  0  0  0  0  0  0
   36.0610   28.9790   49.6440 C   0  0  0  0  0  0  0  0  0  0  0  0
   36.6560   29.4950   50.9400 C   0  0  0  0  0  0  0  0  0  0  0  0
   35.1760   30.9890   50.1560 H   0  0  0  0  0  0  0  0  0  0  0  0
   36.7860   28.4660   48.9810 H   0  0  0  0  0  0  0  0  0  0  0  0
   35.0950   28.4390   49.6890 H   0  0  0  0  0  0  0  0  0  0  0  0
   36.0090   29.3750   51.8310 H   0  0  0  0  0  0  0  0  0  0  0  0
   37.7480   29.4460   51.0830 H   0  0  0  0  0  0  0  0  0  0  0  0
   39.4040   31.1790   46.3660 C   0  0  0  0  0  0  0  0  0  0  0  0
   40.5170   31.3070   46.4090 H   0  0  0  0  0  0  0  0  0  0  0  0
   39.2430   30.1040   46.2270 H   0  0  0  0  0  0  0  0  0  0  0  0
   38.9950   31.9720   45.2930 O   0  0  0  0  0  0  0  0  0  0  0  0
   39.7340   32.5920   42.8910 O   0  0  0  0  0  0  0  0  0  0  0  0
   39.5680   31.4090   43.8130 P   0  0  0  0  0  0  0  0  0  0  0  0
   41.0020   30.5250   43.9640 O   0  0  0  0  0  0  0  0  0  0  0  0
   41.7100   31.1900   44.2270 H   0  0  0  0  0  0  0  0  0  0  0  0
   38.4250   30.3440   43.1370 O   0  0  0  0  0  0  0  0  0  0  0  0
   38.4190   29.5200   43.6630 H   0  0  0  0  0  0  0  0  0  0  0  0
  1  2  1  0  0  0  0
  1  9  1  0  0  0  0
  2  7  1  0  0  0  0
  3  8  1  0  0  0  0
  3  2  2  0  0  0  0
  4  3  1  0  0  0  0
  5  4  2  0  0  0  0
  5  6  1  0  0  0  0
  6  1  2  0  0  0  0
  9 12  1  0  0  0  0
  9 11  1  0  0  0  0
 10 14  1  0  0  0  0
 10  9  1  0  0  0  0
 10 11  1  0  0  0  0
 11 16  1  0  0  0  0
 11 15  1  0  0  0  0
 13 10  1  0  0  0  0
 17 18  1  0  0  0  0
 17  5  1  0  0  0  0
 19 17  1  0  0  0  0
 20 17  1  0  0  0  0
 21 22  2  0  0  0  0
 22 23  1  0  0  0  0
 22 20  1  0  0  0  0
 23 24  1  0  0  0  0
 25 26  1  0  0  0  0
 25 22  1  0  0  0  0
M  END
>  <minimizedAffinity>
-4.9688468

>  <minimizedRMSD>
0.643194377

$$$$
