
 OpenBabel03272500583D

 33 34  0  0  0  0  0  0  0  0999 V2000
   38.1030   31.8900   47.4190 C   0  0  0  0  0  0  0  0  0  0  0  0
   38.5790   32.8140   48.3210 C   0  0  0  0  0  0  0  0  0  0  0  0
   38.0570   32.8860   49.6220 C   0  0  0  0  0  0  0  0  0  0  0  0
   37.0040   31.9590   49.9870 C   0  0  0  0  0  0  0  0  0  0  0  0
   36.5920   31.0810   49.0460 C   0  0  0  0  0  0  0  0  0  0  0  0
   37.0880   31.0090   47.7960 C   0  0  0  0  0  0  0  0  0  0  0  0
   39.3680   33.5220   48.0770 H   0  0  0  0  0  0  0  0  0  0  0  0
   38.4640   33.6310   50.2920 H   0  0  0  0  0  0  0  0  0  0  0  0
   36.7060   32.1330   51.0110 H   0  0  0  0  0  0  0  0  0  0  0  0
   35.8400   30.4810   49.5340 H   0  0  0  0  0  0  0  0  0  0  0  0
   39.9950   31.2650   46.0030 C   0  0  0  0  0  0  0  0  0  0  0  0
   38.7440   31.9160   46.1270 C   0  0  0  0  0  0  0  0  0  0  0  0
   38.2910   32.4990   44.9690 C   0  0  0  0  0  0  0  0  0  0  0  0
   39.0000   32.4370   43.8330 N   0  0  0  0  0  0  0  0  0  0  0  0
   40.1590   31.8290   43.7340 C   0  0  0  0  0  0  0  0  0  0  0  0
   40.6470   31.2470   44.8190 N   0  0  0  0  0  0  0  0  0  0  0  0
   40.4600   30.7630   46.8590 H   0  0  0  0  0  0  0  0  0  0  0  0
   37.3270   33.0010   45.0670 H   0  0  0  0  0  0  0  0  0  0  0  0
   40.6640   31.8280   42.7760 H   0  0  0  0  0  0  0  0  0  0  0  0
   35.1590   29.9470   46.9650 C   0  0  0  0  0  0  0  0  0  0  0  0
   34.5210   30.5950   47.8860 O   0  0  0  0  0  0  0  0  0  0  0  0
   36.6000   30.1120   46.8770 N   0  0  0  0  0  0  0  0  0  0  0  0
   37.1770   29.5900   46.1830 H   0  0  0  0  0  0  0  0  0  0  0  0
   34.4650   29.1310   46.1090 O   0  0  0  0  0  0  0  0  0  0  0  0
   33.2220   29.4450   45.5630 C   0  0  0  0  0  0  0  0  0  0  0  0
   32.9910   30.5910   44.9640 O   0  0  0  0  0  0  0  0  0  0  0  0
   32.0690   28.6740   45.5200 O   0  0  0  0  0  0  0  0  0  0  0  0
   30.8790   26.8500   47.0130 O   0  0  0  0  0  0  0  0  0  0  0  0
   31.2780   28.3180   47.0040 P   0  0  0  0  0  0  0  0  0  0  0  0
   32.3850   28.4860   48.2960 O   0  0  0  0  0  0  0  0  0  0  0  0
   32.0100   28.0480   49.0940 H   0  0  0  0  0  0  0  0  0  0  0  0
   29.9000   29.2270   47.2560 O   0  0  0  0  0  0  0  0  0  0  0  0
   30.0530   30.1760   47.4400 H   0  0  0  0  0  0  0  0  0  0  0  0
  1  6  2  0  0  0  0
  1  2  1  0  0  0  0
  2  3  2  0  0  0  0
  3  4  1  0  0  0  0
  3  8  1  0  0  0  0
  4  9  1  0  0  0  0
  5 10  1  0  0  0  0
  5  4  2  0  0  0  0
  6  5  1  0  0  0  0
  7  2  1  0  0  0  0
 11 12  1  0  0  0  0
 11 17  1  0  0  0  0
 12  1  1  0  0  0  0
 13 18  1  0  0  0  0
 13 12  2  0  0  0  0
 14 13  1  0  0  0  0
 15 14  2  0  0  0  0
 15 16  1  0  0  0  0
 16 11  2  0  0  0  0
 19 15  1  0  0  0  0
 20 21  2  0  0  0  0
 22 20  1  0  0  0  0
 22  6  1  0  0  0  0
 23 22  1  0  0  0  0
 24 20  1  0  0  0  0
 25 24  1  0  0  0  0
 26 25  2  0  0  0  0
 27 25  1  0  0  0  0
 27 29  1  0  0  0  0
 29 28  2  0  0  0  0
 29 32  1  0  0  0  0
 29 30  1  0  0  0  0
 30 31  1  0  0  0  0
 32 33  1  0  0  0  0
M  END
>  <minimizedAffinity>
-5.54122877

>  <minimizedRMSD>
0.44904834

$$$$
