
 OpenBabel03272508033D

 33 35  0  0  0  0  0  0  0  0999 V2000
   38.8760   30.8800   45.8010 C   0  0  0  0  0  0  0  0  0  0  0  0
   40.0640   31.4990   46.0730 C   0  0  0  0  0  0  0  0  0  0  0  0
   40.9290   31.4570   44.9730 C   0  0  0  0  0  0  0  0  0  0  0  0
   40.1980   30.7940   44.0610 N   0  0  0  0  0  0  0  0  0  0  0  0
   39.0060   30.4540   44.5290 N   0  0  0  0  0  0  0  0  0  0  0  0
   40.3260   31.9720   47.0220 H   0  0  0  0  0  0  0  0  0  0  0  0
   41.9140   31.8320   44.8320 H   0  0  0  0  0  0  0  0  0  0  0  0
   37.7430   30.7240   46.6880 C   0  0  0  0  0  0  0  0  0  0  0  0
   37.9410   30.9250   48.0730 C   0  0  0  0  0  0  0  0  0  0  0  0
   36.8410   30.7700   48.9160 C   0  0  0  0  0  0  0  0  0  0  0  0
   35.6420   30.4370   48.3580 N   0  0  0  0  0  0  0  0  0  0  0  0
   35.4790   30.2500   47.0310 C   0  0  0  0  0  0  0  0  0  0  0  0
   36.5340   30.3950   46.2040 N   0  0  0  0  0  0  0  0  0  0  0  0
   38.9250   31.1900   48.4590 H   0  0  0  0  0  0  0  0  0  0  0  0
   34.4950   29.9850   46.6420 H   0  0  0  0  0  0  0  0  0  0  0  0
   37.0360   30.9800   50.3780 C   0  0  0  0  0  0  0  0  0  0  0  0
   36.5470   32.2410   50.6340 F   0  0  0  0  0  0  0  0  0  0  0  0
   36.3260   30.0720   51.1420 F   0  0  0  0  0  0  0  0  0  0  0  0
   38.3770   30.9580   50.7370 F   0  0  0  0  0  0  0  0  0  0  0  0
   40.5710   30.4390   42.6850 C   0  0  0  0  0  0  0  0  0  0  0  0
   40.1730   31.2100   41.5840 C   0  0  0  0  0  0  0  0  0  0  0  0
   40.5450   30.8370   40.3500 C   0  0  0  0  0  0  0  0  0  0  0  0
   41.3370   29.6680   40.1620 C   0  0  0  0  0  0  0  0  0  0  0  0
   41.5350   29.0980   41.9260 S   0  0  0  0  0  0  0  0  0  0  0  0
   39.5710   32.1030   41.6930 H   0  0  0  0  0  0  0  0  0  0  0  0
   40.3340   31.2990   39.4000 H   0  0  0  0  0  0  0  0  0  0  0  0
   41.8690   29.0160   39.1690 O   0  0  0  0  0  0  0  0  0  0  0  0
   43.3500   29.3370   37.0410 O   0  0  0  0  0  0  0  0  0  0  0  0
   43.4050   29.3750   38.5690 P   0  0  0  0  0  0  0  0  0  0  0  0
   44.4270   28.0790   39.0030 O   0  0  0  0  0  0  0  0  0  0  0  0
   43.9270   27.2270   38.9320 H   0  0  0  0  0  0  0  0  0  0  0  0
   44.0300   30.8320   39.0910 O   0  0  0  0  0  0  0  0  0  0  0  0
   44.5920   30.7340   39.8880 H   0  0  0  0  0  0  0  0  0  0  0  0
  1  2  1  0  0  0  0
  1  8  1  0  0  0  0
  2  6  1  0  0  0  0
  3  2  2  0  0  0  0
  4  5  1  0  0  0  0
  4  3  1  0  0  0  0
  5  1  2  0  0  0  0
  7  3  1  0  0  0  0
  8  9  1  0  0  0  0
  9 14  1  0  0  0  0
  9 10  2  0  0  0  0
 10 16  1  0  0  0  0
 11 10  1  0  0  0  0
 12 11  2  0  0  0  0
 13  8  2  0  0  0  0
 13 12  1  0  0  0  0
 15 12  1  0  0  0  0
 16 17  1  0  0  0  0
 16 19  1  0  0  0  0
 16 18  1  0  0  0  0
 20  4  1  0  0  0  0
 21 25  1  0  0  0  0
 21 20  2  0  0  0  0
 22 21  1  0  0  0  0
 23 22  2  0  0  0  0
 23 24  1  0  0  0  0
 24 20  1  0  0  0  0
 26 22  1  0  0  0  0
 27 23  1  0  0  0  0
 28 29  2  0  0  0  0
 29 30  1  0  0  0  0
 29 32  1  0  0  0  0
 29 27  1  0  0  0  0
 31 30  1  0  0  0  0
 32 33  1  0  0  0  0
M  END
>  <minimizedAffinity>
-6.37940311

>  <minimizedRMSD>
0.117145911

$$$$
