
 OpenBabel03272510293D

 26 27  0  0  0  0  0  0  0  0999 V2000
   37.1870   31.3130   49.1940 C   0  0  0  0  0  0  0  0  0  0  0  0
   37.3690   32.5630   49.7930 C   0  0  0  0  0  0  0  0  0  0  0  0
   38.3290   33.3790   49.1950 C   0  0  0  0  0  0  0  0  0  0  0  0
   39.0150   32.9270   48.0960 N   0  0  0  0  0  0  0  0  0  0  0  0
   38.7940   31.7030   47.5590 C   0  0  0  0  0  0  0  0  0  0  0  0
   37.8580   30.8690   48.1190 N   0  0  0  0  0  0  0  0  0  0  0  0
   36.8030   32.8620   50.6530 H   0  0  0  0  0  0  0  0  0  0  0  0
   38.5300   34.3620   49.5980 H   0  0  0  0  0  0  0  0  0  0  0  0
   36.1380   30.4230   49.7910 C   0  0  0  0  0  0  0  0  0  0  0  0
   36.1270   28.9910   49.6020 C   0  0  0  0  0  0  0  0  0  0  0  0
   36.6790   29.5230   50.9110 C   0  0  0  0  0  0  0  0  0  0  0  0
   35.2040   30.9940   50.0750 H   0  0  0  0  0  0  0  0  0  0  0  0
   36.8770   28.4820   48.9640 H   0  0  0  0  0  0  0  0  0  0  0  0
   35.1660   28.4410   49.6230 H   0  0  0  0  0  0  0  0  0  0  0  0
   36.0070   29.4020   51.7840 H   0  0  0  0  0  0  0  0  0  0  0  0
   37.7660   29.4870   51.0860 H   0  0  0  0  0  0  0  0  0  0  0  0
   39.5070   31.2260   46.3800 C   0  0  0  0  0  0  0  0  0  0  0  0
   40.4840   31.7470   46.2060 H   0  0  0  0  0  0  0  0  0  0  0  0
   39.7600   30.1640   46.4730 H   0  0  0  0  0  0  0  0  0  0  0  0
   38.7300   31.5440   45.2660 O   0  0  0  0  0  0  0  0  0  0  0  0
   40.4450   31.3050   43.3440 O   0  0  0  0  0  0  0  0  0  0  0  0
   39.1840   30.6850   43.8890 P   0  0  0  0  0  0  0  0  0  0  0  0
   39.3760   29.0320   44.1880 O   0  0  0  0  0  0  0  0  0  0  0  0
   40.1930   28.9490   44.7710 H   0  0  0  0  0  0  0  0  0  0  0  0
   37.9570   30.8150   42.7170 O   0  0  0  0  0  0  0  0  0  0  0  0
   37.1840   30.2970   43.0180 H   0  0  0  0  0  0  0  0  0  0  0  0
  1  9  1  0  0  0  0
  1  2  1  0  0  0  0
  2  7  1  0  0  0  0
  3  8  1  0  0  0  0
  3  2  2  0  0  0  0
  4  3  1  0  0  0  0
  5  4  2  0  0  0  0
  5  6  1  0  0  0  0
  6  1  2  0  0  0  0
  9 12  1  0  0  0  0
  9 11  1  0  0  0  0
 10 14  1  0  0  0  0
 10  9  1  0  0  0  0
 10 11  1  0  0  0  0
 11 16  1  0  0  0  0
 11 15  1  0  0  0  0
 13 10  1  0  0  0  0
 17 19  1  0  0  0  0
 17  5  1  0  0  0  0
 18 17  1  0  0  0  0
 20 17  1  0  0  0  0
 21 22  2  0  0  0  0
 22 23  1  0  0  0  0
 22 20  1  0  0  0  0
 23 24  1  0  0  0  0
 25 26  1  0  0  0  0
 25 22  1  0  0  0  0
M  END
>  <minimizedAffinity>
-4.92155647

>  <minimizedRMSD>
0.554120302

$$$$
