
 OpenBabel03272510223D

 34 36  0  0  0  0  0  0  0  0999 V2000
   35.2420   31.6970   32.1120 Br  0  0  0  0  0  0  0  0  0  0  0  0
   35.8770   29.9680   32.6150 C   0  0  0  0  0  0  0  0  0  0  0  0
   35.7380   29.5040   33.9270 C   0  0  0  0  0  0  0  0  0  0  0  0
   36.2170   28.2560   34.2100 C   0  0  0  0  0  0  0  0  0  0  0  0
   36.8270   27.4430   33.2630 C   0  0  0  0  0  0  0  0  0  0  0  0
   36.9490   27.9190   31.9980 C   0  0  0  0  0  0  0  0  0  0  0  0
   36.4740   29.1740   31.6850 C   0  0  0  0  0  0  0  0  0  0  0  0
   36.1050   27.9030   35.2360 H   0  0  0  0  0  0  0  0  0  0  0  0
   37.4100   27.3620   31.1830 H   0  0  0  0  0  0  0  0  0  0  0  0
   36.5720   29.5530   30.6760 H   0  0  0  0  0  0  0  0  0  0  0  0
   33.1400   30.9640   36.0250 C   0  0  0  0  0  0  0  0  0  0  0  0
   33.8730   31.9050   36.8300 C   0  0  0  0  0  0  0  0  0  0  0  0
   35.2340   32.0140   36.6330 C   0  0  0  0  0  0  0  0  0  0  0  0
   35.8170   31.2210   35.6820 N   0  0  0  0  0  0  0  0  0  0  0  0
   35.1010   30.3400   34.9360 C   0  0  0  0  0  0  0  0  0  0  0  0
   33.7680   30.2180   35.1130 N   0  0  0  0  0  0  0  0  0  0  0  0
   32.0720   30.8420   36.1430 H   0  0  0  0  0  0  0  0  0  0  0  0
   33.3170   32.4930   37.5620 H   0  0  0  0  0  0  0  0  0  0  0  0
   35.7950   32.7080   37.2210 H   0  0  0  0  0  0  0  0  0  0  0  0
   37.3320   26.1100   33.5890 C   0  0  0  0  0  0  0  0  0  0  0  0
   37.2340   25.0250   32.7270 C   0  0  0  0  0  0  0  0  0  0  0  0
   37.7280   23.7730   33.0850 C   0  0  0  0  0  0  0  0  0  0  0  0
   38.3070   23.6040   34.2710 N   0  0  0  0  0  0  0  0  0  0  0  0
   38.4040   24.6450   35.1050 C   0  0  0  0  0  0  0  0  0  0  0  0
   37.9290   25.8520   34.7640 N   0  0  0  0  0  0  0  0  0  0  0  0
   36.7590   25.2010   31.7730 H   0  0  0  0  0  0  0  0  0  0  0  0
   37.5860   23.0140   32.3170 H   0  0  0  0  0  0  0  0  0  0  0  0
   39.0200   24.3900   36.3240 O   0  0  0  0  0  0  0  0  0  0  0  0
   37.7160   24.3440   38.6750 O   0  0  0  0  0  0  0  0  0  0  0  0
   38.3570   23.5280   37.6020 P   0  0  0  0  0  0  0  0  0  0  0  0
   39.5650   22.5320   38.2840 O   0  0  0  0  0  0  0  0  0  0  0  0
   40.3980   22.5790   37.7480 H   0  0  0  0  0  0  0  0  0  0  0  0
   37.2140   22.4450   36.9310 O   0  0  0  0  0  0  0  0  0  0  0  0
   37.7320   21.7640   36.4010 H   0  0  0  0  0  0  0  0  0  0  0  0
  1  2  1  0  0  0  0
  2  3  1  0  0  0  0
  3  4  2  0  0  0  0
  3 15  1  0  0  0  0
  4  8  1  0  0  0  0
  5 20  1  0  0  0  0
  5  4  1  0  0  0  0
  6  5  2  0  0  0  0
  7  6  1  0  0  0  0
  7  2  2  0  0  0  0
  9  6  1  0  0  0  0
 10  7  1  0  0  0  0
 11 17  1  0  0  0  0
 11 12  1  0  0  0  0
 12 18  1  0  0  0  0
 13 12  2  0  0  0  0
 13 19  1  0  0  0  0
 14 13  1  0  0  0  0
 15 16  1  0  0  0  0
 15 14  2  0  0  0  0
 16 11  2  0  0  0  0
 20 25  1  0  0  0  0
 21 22  1  0  0  0  0
 21 20  2  0  0  0  0
 22 23  2  0  0  0  0
 23 24  1  0  0  0  0
 24 28  1  0  0  0  0
 25 24  2  0  0  0  0
 26 21  1  0  0  0  0
 27 22  1  0  0  0  0
 28 30  1  0  0  0  0
 30 31  1  0  0  0  0
 30 29  2  0  0  0  0
 32 31  1  0  0  0  0
 33 30  1  0  0  0  0
 34 33  1  0  0  0  0
M  END
>  <minimizedAffinity>
-6.47330427

$$$$

 OpenBabel03272510223D

 34 36  0  0  0  0  0  0  0  0999 V2000
   35.0870   31.7800   32.2270 Br  0  0  0  0  0  0  0  0  0  0  0  0
   35.7780   30.1120   32.8510 C   0  0  0  0  0  0  0  0  0  0  0  0
   35.6530   29.7370   34.1920 C   0  0  0  0  0  0  0  0  0  0  0  0
   36.1730   28.5290   34.5610 C   0  0  0  0  0  0  0  0  0  0  0  0
   36.8100   27.6720   33.6740 C   0  0  0  0  0  0  0  0  0  0  0  0
   36.9180   28.0620   32.3780 C   0  0  0  0  0  0  0  0  0  0  0  0
   36.4020   29.2760   31.9780 C   0  0  0  0  0  0  0  0  0  0  0  0
   36.0700   28.2450   35.6090 H   0  0  0  0  0  0  0  0  0  0  0  0
   37.3990   27.4650   31.6030 H   0  0  0  0  0  0  0  0  0  0  0  0
   36.4890   29.5860   30.9450 H   0  0  0  0  0  0  0  0  0  0  0  0
   32.9940   31.2940   36.1400 C   0  0  0  0  0  0  0  0  0  0  0  0
   33.7040   32.2740   36.9200 C   0  0  0  0  0  0  0  0  0  0  0  0
   35.0700   32.3750   36.7570 C   0  0  0  0  0  0  0  0  0  0  0  0
   35.6810   31.5380   35.8640 N   0  0  0  0  0  0  0  0  0  0  0  0
   34.9860   30.6210   35.1400 C   0  0  0  0  0  0  0  0  0  0  0  0
   33.6490   30.5050   35.2840 N   0  0  0  0  0  0  0  0  0  0  0  0
   31.9240   31.1770   36.2330 H   0  0  0  0  0  0  0  0  0  0  0  0
   33.1270   32.8960   37.6060 H   0  0  0  0  0  0  0  0  0  0  0  0
   35.6130   33.0970   37.3270 H   0  0  0  0  0  0  0  0  0  0  0  0
   37.3590   26.3830   34.0910 C   0  0  0  0  0  0  0  0  0  0  0  0
   37.8280   26.1320   35.3740 C   0  0  0  0  0  0  0  0  0  0  0  0
   38.3450   24.8870   35.7220 C   0  0  0  0  0  0  0  0  0  0  0  0
   38.3970   23.9140   34.8170 N   0  0  0  0  0  0  0  0  0  0  0  0
   37.9470   24.1500   33.5790 C   0  0  0  0  0  0  0  0  0  0  0  0
   37.4480   25.3480   33.2400 N   0  0  0  0  0  0  0  0  0  0  0  0
   37.7700   26.9460   36.0830 H   0  0  0  0  0  0  0  0  0  0  0  0
   38.6760   24.8280   36.7580 H   0  0  0  0  0  0  0  0  0  0  0  0
   38.0330   23.0860   32.6900 O   0  0  0  0  0  0  0  0  0  0  0  0
   37.2440   21.5740   30.6110 O   0  0  0  0  0  0  0  0  0  0  0  0
   37.1320   22.9010   31.2850 P   0  0  0  0  0  0  0  0  0  0  0  0
   37.5570   24.1390   30.1880 O   0  0  0  0  0  0  0  0  0  0  0  0
   38.1810   24.7820   30.6130 H   0  0  0  0  0  0  0  0  0  0  0  0
   35.5010   23.2110   31.6970 O   0  0  0  0  0  0  0  0  0  0  0  0
   35.4360   24.1910   31.9180 H   0  0  0  0  0  0  0  0  0  0  0  0
  1  2  1  0  0  0  0
  2  3  1  0  0  0  0
  3  4  2  0  0  0  0
  3 15  1  0  0  0  0
  4  8  1  0  0  0  0
  5 20  1  0  0  0  0
  5  4  1  0  0  0  0
  6  5  2  0  0  0  0
  7  6  1  0  0  0  0
  7  2  2  0  0  0  0
  9  6  1  0  0  0  0
 10  7  1  0  0  0  0
 11 17  1  0  0  0  0
 11 12  1  0  0  0  0
 12 18  1  0  0  0  0
 13 12  2  0  0  0  0
 13 19  1  0  0  0  0
 14 13  1  0  0  0  0
 15 16  1  0  0  0  0
 15 14  2  0  0  0  0
 16 11  2  0  0  0  0
 20 21  1  0  0  0  0
 21 22  2  0  0  0  0
 21 26  1  0  0  0  0
 22 27  1  0  0  0  0
 23 22  1  0  0  0  0
 24 23  2  0  0  0  0
 25 24  1  0  0  0  0
 25 20  2  0  0  0  0
 28 24  1  0  0  0  0
 29 30  2  0  0  0  0
 30 33  1  0  0  0  0
 30 28  1  0  0  0  0
 31 32  1  0  0  0  0
 31 30  1  0  0  0  0
 33 34  1  0  0  0  0
M  END
>  <minimizedAffinity>
-5.70136404

$$$$

 OpenBabel03272510223D

 34 36  0  0  0  0  0  0  0  0999 V2000
   36.5200   29.6340   30.8730 Br  0  0  0  0  0  0  0  0  0  0  0  0
   36.9910   28.3650   32.2200 C   0  0  0  0  0  0  0  0  0  0  0  0
   36.3700   28.3810   33.4730 C   0  0  0  0  0  0  0  0  0  0  0  0
   36.7620   27.4410   34.3840 C   0  0  0  0  0  0  0  0  0  0  0  0
   37.7350   26.4860   34.1200 C   0  0  0  0  0  0  0  0  0  0  0  0
   38.3220   26.4950   32.8960 C   0  0  0  0  0  0  0  0  0  0  0  0
   37.9460   27.4320   31.9590 C   0  0  0  0  0  0  0  0  0  0  0  0
   36.2720   27.4600   35.3580 H   0  0  0  0  0  0  0  0  0  0  0  0
   39.0950   25.7900   32.5900 H   0  0  0  0  0  0  0  0  0  0  0  0
   38.4140   27.4380   30.9830 H   0  0  0  0  0  0  0  0  0  0  0  0
   34.8050   31.4110   34.7580 C   0  0  0  0  0  0  0  0  0  0  0  0
   33.4340   31.2600   34.3440 C   0  0  0  0  0  0  0  0  0  0  0  0
   33.0840   30.1280   33.6390 C   0  0  0  0  0  0  0  0  0  0  0  0
   34.0580   29.2060   33.3680 N   0  0  0  0  0  0  0  0  0  0  0  0
   35.3450   29.3730   33.7700 C   0  0  0  0  0  0  0  0  0  0  0  0
   35.7090   30.4750   34.4610 N   0  0  0  0  0  0  0  0  0  0  0  0
   35.1280   32.2810   35.3120 H   0  0  0  0  0  0  0  0  0  0  0  0
   32.7310   32.0520   34.6100 H   0  0  0  0  0  0  0  0  0  0  0  0
   32.0720   29.9990   33.3250 H   0  0  0  0  0  0  0  0  0  0  0  0
   38.1390   25.4890   35.1110 C   0  0  0  0  0  0  0  0  0  0  0  0
   37.6690   25.4760   36.4180 C   0  0  0  0  0  0  0  0  0  0  0  0
   38.0860   24.5070   37.3250 C   0  0  0  0  0  0  0  0  0  0  0  0
   38.9510   23.5710   36.9430 N   0  0  0  0  0  0  0  0  0  0  0  0
   39.4070   23.5770   35.6860 C   0  0  0  0  0  0  0  0  0  0  0  0
   39.0070   24.5100   34.8090 N   0  0  0  0  0  0  0  0  0  0  0  0
   36.9680   26.2530   36.6910 H   0  0  0  0  0  0  0  0  0  0  0  0
   37.6400   24.6150   38.3130 H   0  0  0  0  0  0  0  0  0  0  0  0
   40.3060   22.5690   35.3620 O   0  0  0  0  0  0  0  0  0  0  0  0
   42.3240   20.8460   35.7970 O   0  0  0  0  0  0  0  0  0  0  0  0
   41.5100   21.9620   36.3620 P   0  0  0  0  0  0  0  0  0  0  0  0
   40.8080   21.4690   37.8380 O   0  0  0  0  0  0  0  0  0  0  0  0
   39.8470   21.7140   37.8650 H   0  0  0  0  0  0  0  0  0  0  0  0
   42.5260   23.2770   36.7690 O   0  0  0  0  0  0  0  0  0  0  0  0
   41.9880   23.8930   37.3570 H   0  0  0  0  0  0  0  0  0  0  0  0
  1  2  1  0  0  0  0
  2  3  1  0  0  0  0
  3 15  1  0  0  0  0
  3  4  2  0  0  0  0
  4  8  1  0  0  0  0
  5  4  1  0  0  0  0
  5 20  1  0  0  0  0
  6  5  2  0  0  0  0
  7  2  2  0  0  0  0
  7  6  1  0  0  0  0
  9  6  1  0  0  0  0
 10  7  1  0  0  0  0
 11 17  1  0  0  0  0
 12 18  1  0  0  0  0
 12 11  2  0  0  0  0
 13 12  1  0  0  0  0
 14 13  2  0  0  0  0
 14 15  1  0  0  0  0
 15 16  2  0  0  0  0
 16 11  1  0  0  0  0
 19 13  1  0  0  0  0
 20 21  1  0  0  0  0
 21 26  1  0  0  0  0
 21 22  2  0  0  0  0
 22 27  1  0  0  0  0
 23 22  1  0  0  0  0
 24 23  2  0  0  0  0
 25 20  2  0  0  0  0
 25 24  1  0  0  0  0
 28 24  1  0  0  0  0
 28 30  1  0  0  0  0
 29 30  2  0  0  0  0
 30 33  1  0  0  0  0
 30 31  1  0  0  0  0
 31 32  1  0  0  0  0
 33 34  1  0  0  0  0
M  END
>  <minimizedAffinity>
-5.48785543

$$$$

 OpenBabel03272510223D

 34 36  0  0  0  0  0  0  0  0999 V2000
   35.9710   30.3800   31.5980 Br  0  0  0  0  0  0  0  0  0  0  0  0
   36.5250   28.8200   32.5510 C   0  0  0  0  0  0  0  0  0  0  0  0
   36.2320   28.6650   33.9100 C   0  0  0  0  0  0  0  0  0  0  0  0
   36.6620   27.5220   34.5220 C   0  0  0  0  0  0  0  0  0  0  0  0
   37.3650   26.5240   33.8620 C   0  0  0  0  0  0  0  0  0  0  0  0
   37.6360   26.7010   32.5430 C   0  0  0  0  0  0  0  0  0  0  0  0
   37.2140   27.8450   31.9010 C   0  0  0  0  0  0  0  0  0  0  0  0
   36.4280   27.4100   35.5820 H   0  0  0  0  0  0  0  0  0  0  0  0
   38.1810   25.9790   31.9340 H   0  0  0  0  0  0  0  0  0  0  0  0
   37.4310   27.9850   30.8490 H   0  0  0  0  0  0  0  0  0  0  0  0
   33.4260   30.6160   35.1790 C   0  0  0  0  0  0  0  0  0  0  0  0
   34.0760   31.6390   35.9540 C   0  0  0  0  0  0  0  0  0  0  0  0
   35.4540   31.6340   36.0210 C   0  0  0  0  0  0  0  0  0  0  0  0
   36.1320   30.6550   35.3480 N   0  0  0  0  0  0  0  0  0  0  0  0
   35.4930   29.7000   34.6220 C   0  0  0  0  0  0  0  0  0  0  0  0
   34.1450   29.6870   34.5440 N   0  0  0  0  0  0  0  0  0  0  0  0
   32.3490   30.5780   35.0960 H   0  0  0  0  0  0  0  0  0  0  0  0
   33.4470   32.3770   36.4560 H   0  0  0  0  0  0  0  0  0  0  0  0
   35.9530   32.3860   36.5920 H   0  0  0  0  0  0  0  0  0  0  0  0
   37.8150   25.3070   34.5380 C   0  0  0  0  0  0  0  0  0  0  0  0
   38.3450   25.2990   35.8210 C   0  0  0  0  0  0  0  0  0  0  0  0
   38.7630   24.1140   36.4210 C   0  0  0  0  0  0  0  0  0  0  0  0
   38.6580   22.9640   35.7600 N   0  0  0  0  0  0  0  0  0  0  0  0
   38.1490   22.9660   34.5230 C   0  0  0  0  0  0  0  0  0  0  0  0
   37.7440   24.1060   33.9420 N   0  0  0  0  0  0  0  0  0  0  0  0
   38.4150   26.2520   36.3260 H   0  0  0  0  0  0  0  0  0  0  0  0
   39.1570   24.2510   37.4270 H   0  0  0  0  0  0  0  0  0  0  0  0
   38.0700   21.7280   33.8980 O   0  0  0  0  0  0  0  0  0  0  0  0
   37.0140   19.9520   32.1770 O   0  0  0  0  0  0  0  0  0  0  0  0
   36.7500   21.1370   33.0450 P   0  0  0  0  0  0  0  0  0  0  0  0
   36.0880   22.3990   32.1050 O   0  0  0  0  0  0  0  0  0  0  0  0
   36.5430   23.2580   32.3050 H   0  0  0  0  0  0  0  0  0  0  0  0
   35.5430   20.7590   34.1980 O   0  0  0  0  0  0  0  0  0  0  0  0
   35.2280   21.6320   34.5890 H   0  0  0  0  0  0  0  0  0  0  0  0
  1  2  1  0  0  0  0
  2  3  1  0  0  0  0
  3  4  2  0  0  0  0
  3 15  1  0  0  0  0
  4  8  1  0  0  0  0
  5  4  1  0  0  0  0
  5 20  1  0  0  0  0
  6  5  2  0  0  0  0
  7  6  1  0  0  0  0
  7  2  2  0  0  0  0
  9  6  1  0  0  0  0
 10  7  1  0  0  0  0
 11 12  1  0  0  0  0
 12 13  2  0  0  0  0
 12 18  1  0  0  0  0
 13 19  1  0  0  0  0
 14 13  1  0  0  0  0
 15 14  2  0  0  0  0
 16 15  1  0  0  0  0
 16 11  2  0  0  0  0
 17 11  1  0  0  0  0
 20 21  1  0  0  0  0
 21 26  1  0  0  0  0
 21 22  2  0  0  0  0
 22 27  1  0  0  0  0
 23 22  1  0  0  0  0
 24 23  2  0  0  0  0
 25 24  1  0  0  0  0
 25 20  2  0  0  0  0
 28 24  1  0  0  0  0
 29 30  2  0  0  0  0
 30 28  1  0  0  0  0
 30 33  1  0  0  0  0
 31 32  1  0  0  0  0
 31 30  1  0  0  0  0
 33 34  1  0  0  0  0
M  END
>  <minimizedAffinity>
-5.48591995

$$$$

 OpenBabel03272510223D

 34 36  0  0  0  0  0  0  0  0999 V2000
   38.0200   22.3010   32.4160 Br  0  0  0  0  0  0  0  0  0  0  0  0
   37.5350   24.1380   32.6110 C   0  0  0  0  0  0  0  0  0  0  0  0
   37.8920   24.8590   33.7550 C   0  0  0  0  0  0  0  0  0  0  0  0
   37.5080   26.1690   33.8210 C   0  0  0  0  0  0  0  0  0  0  0  0
   36.7900   26.8020   32.8150 C   0  0  0  0  0  0  0  0  0  0  0  0
   36.4570   26.0780   31.7170 C   0  0  0  0  0  0  0  0  0  0  0  0
   36.8310   24.7550   31.6240 C   0  0  0  0  0  0  0  0  0  0  0  0
   37.7910   26.7230   34.7170 H   0  0  0  0  0  0  0  0  0  0  0  0
   35.8950   26.4800   30.8730 H   0  0  0  0  0  0  0  0  0  0  0  0
   36.5640   24.1780   30.7480 H   0  0  0  0  0  0  0  0  0  0  0  0
   38.6070   23.1070   36.8700 C   0  0  0  0  0  0  0  0  0  0  0  0
   40.0420   22.9930   36.8470 C   0  0  0  0  0  0  0  0  0  0  0  0
   40.7240   23.5180   35.7690 C   0  0  0  0  0  0  0  0  0  0  0  0
   40.0010   24.1200   34.7760 N   0  0  0  0  0  0  0  0  0  0  0  0
   38.6460   24.2140   34.8220 C   0  0  0  0  0  0  0  0  0  0  0  0
   37.9590   23.7060   35.8680 N   0  0  0  0  0  0  0  0  0  0  0  0
   38.0290   22.7110   37.6930 H   0  0  0  0  0  0  0  0  0  0  0  0
   40.5280   22.4950   37.6880 H   0  0  0  0  0  0  0  0  0  0  0  0
   41.7890   23.4430   35.7360 H   0  0  0  0  0  0  0  0  0  0  0  0
   36.3900   28.2060   32.9070 C   0  0  0  0  0  0  0  0  0  0  0  0
   36.5090   29.1050   31.8550 C   0  0  0  0  0  0  0  0  0  0  0  0
   36.1170   30.4330   31.9940 C   0  0  0  0  0  0  0  0  0  0  0  0
   35.6190   30.8600   33.1510 N   0  0  0  0  0  0  0  0  0  0  0  0
   35.5020   30.0000   34.1680 C   0  0  0  0  0  0  0  0  0  0  0  0
   35.8790   28.7180   34.0390 N   0  0  0  0  0  0  0  0  0  0  0  0
   36.9180   28.7210   30.9310 H   0  0  0  0  0  0  0  0  0  0  0  0
   36.2650   31.0260   31.0920 H   0  0  0  0  0  0  0  0  0  0  0  0
   34.9740   30.5180   35.3440 O   0  0  0  0  0  0  0  0  0  0  0  0
   34.0600   33.0450   35.2800 O   0  0  0  0  0  0  0  0  0  0  0  0
   35.0770   32.1150   35.8510 P   0  0  0  0  0  0  0  0  0  0  0  0
   36.6440   32.7030   35.5150 O   0  0  0  0  0  0  0  0  0  0  0  0
   37.2230   31.9740   35.1720 H   0  0  0  0  0  0  0  0  0  0  0  0
   34.9620   32.1010   37.5580 O   0  0  0  0  0  0  0  0  0  0  0  0
   35.8010   31.6660   37.9050 H   0  0  0  0  0  0  0  0  0  0  0  0
  1  2  1  0  0  0  0
  2  3  1  0  0  0  0
  3  4  2  0  0  0  0
  3 15  1  0  0  0  0
  4  8  1  0  0  0  0
  5 20  1  0  0  0  0
  5  4  1  0  0  0  0
  6  5  2  0  0  0  0
  7  6  1  0  0  0  0
  7  2  2  0  0  0  0
  9  6  1  0  0  0  0
 10  7  1  0  0  0  0
 11 17  1  0  0  0  0
 12 11  1  0  0  0  0
 12 18  1  0  0  0  0
 13 12  2  0  0  0  0
 14 15  2  0  0  0  0
 14 13  1  0  0  0  0
 15 16  1  0  0  0  0
 16 11  2  0  0  0  0
 19 13  1  0  0  0  0
 20 25  1  0  0  0  0
 21 22  1  0  0  0  0
 21 20  2  0  0  0  0
 22 23  2  0  0  0  0
 23 24  1  0  0  0  0
 24 28  1  0  0  0  0
 25 24  2  0  0  0  0
 26 21  1  0  0  0  0
 27 22  1  0  0  0  0
 28 30  1  0  0  0  0
 29 30  2  0  0  0  0
 30 33  1  0  0  0  0
 31 30  1  0  0  0  0
 32 31  1  0  0  0  0
 33 34  1  0  0  0  0
M  END
>  <minimizedAffinity>
-5.41033173

$$$$

 OpenBabel03272510223D

 34 36  0  0  0  0  0  0  0  0999 V2000
   35.7310   32.7130   32.0330 Br  0  0  0  0  0  0  0  0  0  0  0  0
   35.8730   30.8090   32.0530 C   0  0  0  0  0  0  0  0  0  0  0  0
   35.5090   30.0710   33.1840 C   0  0  0  0  0  0  0  0  0  0  0  0
   35.6390   28.7130   33.1210 C   0  0  0  0  0  0  0  0  0  0  0  0
   36.1120   28.0460   31.9990 C   0  0  0  0  0  0  0  0  0  0  0  0
   36.4590   28.7870   30.9160 C   0  0  0  0  0  0  0  0  0  0  0  0
   36.3370   30.1590   30.9520 C   0  0  0  0  0  0  0  0  0  0  0  0
   35.3520   28.1460   34.0080 H   0  0  0  0  0  0  0  0  0  0  0  0
   36.8400   28.3610   29.9880 H   0  0  0  0  0  0  0  0  0  0  0  0
   36.6150   30.7480   30.0880 H   0  0  0  0  0  0  0  0  0  0  0  0
   35.4990   31.8140   36.3860 C   0  0  0  0  0  0  0  0  0  0  0  0
   34.0970   32.0370   36.6210 C   0  0  0  0  0  0  0  0  0  0  0  0
   33.1950   31.5850   35.6810 C   0  0  0  0  0  0  0  0  0  0  0  0
   33.6800   30.9490   34.5710 N   0  0  0  0  0  0  0  0  0  0  0  0
   35.0090   30.7520   34.3720 C   0  0  0  0  0  0  0  0  0  0  0  0
   35.9090   31.1870   35.2810 N   0  0  0  0  0  0  0  0  0  0  0  0
   36.2440   32.1500   37.0930 H   0  0  0  0  0  0  0  0  0  0  0  0
   33.8090   32.5550   37.5380 H   0  0  0  0  0  0  0  0  0  0  0  0
   32.1500   31.7410   35.8400 H   0  0  0  0  0  0  0  0  0  0  0  0
   36.2430   26.5900   31.9550 C   0  0  0  0  0  0  0  0  0  0  0  0
   35.4930   25.7810   31.1110 C   0  0  0  0  0  0  0  0  0  0  0  0
   35.6530   24.3980   31.1080 C   0  0  0  0  0  0  0  0  0  0  0  0
   36.5360   23.8310   31.9250 N   0  0  0  0  0  0  0  0  0  0  0  0
   37.2610   24.6050   32.7410 C   0  0  0  0  0  0  0  0  0  0  0  0
   37.1110   25.9380   32.7460 N   0  0  0  0  0  0  0  0  0  0  0  0
   34.7860   26.2770   30.4620 H   0  0  0  0  0  0  0  0  0  0  0  0
   35.0030   23.8860   30.3990 H   0  0  0  0  0  0  0  0  0  0  0  0
   38.1630   23.9420   33.5630 O   0  0  0  0  0  0  0  0  0  0  0  0
   38.2860   23.1700   36.1360 O   0  0  0  0  0  0  0  0  0  0  0  0
   38.4710   24.2960   35.1750 P   0  0  0  0  0  0  0  0  0  0  0  0
   37.4980   25.6180   35.6470 O   0  0  0  0  0  0  0  0  0  0  0  0
   37.0060   25.9840   34.8680 H   0  0  0  0  0  0  0  0  0  0  0  0
   40.0800   24.8750   35.2570 O   0  0  0  0  0  0  0  0  0  0  0  0
   40.0950   25.7670   34.7890 H   0  0  0  0  0  0  0  0  0  0  0  0
  1  2  1  0  0  0  0
  2  3  1  0  0  0  0
  3 15  1  0  0  0  0
  4  3  2  0  0  0  0
  4  8  1  0  0  0  0
  5  4  1  0  0  0  0
  6  7  1  0  0  0  0
  6  5  2  0  0  0  0
  7  2  2  0  0  0  0
  9  6  1  0  0  0  0
 10  7  1  0  0  0  0
 11 12  1  0  0  0  0
 11 17  1  0  0  0  0
 12 18  1  0  0  0  0
 13 19  1  0  0  0  0
 13 12  2  0  0  0  0
 14 13  1  0  0  0  0
 15 14  2  0  0  0  0
 15 16  1  0  0  0  0
 16 11  2  0  0  0  0
 20  5  1  0  0  0  0
 20 25  1  0  0  0  0
 21 20  2  0  0  0  0
 22 21  1  0  0  0  0
 22 23  2  0  0  0  0
 23 24  1  0  0  0  0
 24 25  2  0  0  0  0
 24 28  1  0  0  0  0
 26 21  1  0  0  0  0
 27 22  1  0  0  0  0
 28 30  1  0  0  0  0
 30 33  1  0  0  0  0
 30 31  1  0  0  0  0
 30 29  2  0  0  0  0
 32 31  1  0  0  0  0
 34 33  1  0  0  0  0
M  END
>  <minimizedAffinity>
-5.35797739

$$$$

 OpenBabel03272510223D

 34 36  0  0  0  0  0  0  0  0999 V2000
   37.2350   28.6290   31.3080 Br  0  0  0  0  0  0  0  0  0  0  0  0
   37.6310   27.4400   32.7500 C   0  0  0  0  0  0  0  0  0  0  0  0
   38.6500   26.4880   32.6390 C   0  0  0  0  0  0  0  0  0  0  0  0
   38.8720   25.6740   33.7130 C   0  0  0  0  0  0  0  0  0  0  0  0
   38.1410   25.7510   34.8910 C   0  0  0  0  0  0  0  0  0  0  0  0
   37.1580   26.6840   34.9700 C   0  0  0  0  0  0  0  0  0  0  0  0
   36.9120   27.5190   33.9020 C   0  0  0  0  0  0  0  0  0  0  0  0
   39.6690   24.9340   33.6170 H   0  0  0  0  0  0  0  0  0  0  0  0
   36.5280   26.8270   35.8480 H   0  0  0  0  0  0  0  0  0  0  0  0
   36.1280   28.2630   33.9670 H   0  0  0  0  0  0  0  0  0  0  0  0
   41.3150   27.0560   30.2180 C   0  0  0  0  0  0  0  0  0  0  0  0
   40.9200   26.2260   29.1100 C   0  0  0  0  0  0  0  0  0  0  0  0
   39.7540   25.4970   29.2220 C   0  0  0  0  0  0  0  0  0  0  0  0
   39.0340   25.5990   30.3810 N   0  0  0  0  0  0  0  0  0  0  0  0
   39.4300   26.3900   31.4120 C   0  0  0  0  0  0  0  0  0  0  0  0
   40.5670   27.1130   31.3230 N   0  0  0  0  0  0  0  0  0  0  0  0
   42.2190   27.6460   30.1780 H   0  0  0  0  0  0  0  0  0  0  0  0
   41.5620   26.2120   28.2280 H   0  0  0  0  0  0  0  0  0  0  0  0
   39.4450   24.8750   28.4100 H   0  0  0  0  0  0  0  0  0  0  0  0
   38.3980   24.8690   36.0280 C   0  0  0  0  0  0  0  0  0  0  0  0
   37.9390   25.1260   37.3130 C   0  0  0  0  0  0  0  0  0  0  0  0
   38.2130   24.2570   38.3650 C   0  0  0  0  0  0  0  0  0  0  0  0
   38.9260   23.1560   38.1450 N   0  0  0  0  0  0  0  0  0  0  0  0
   39.3720   22.9020   36.9100 C   0  0  0  0  0  0  0  0  0  0  0  0
   39.1100   23.7380   35.8940 N   0  0  0  0  0  0  0  0  0  0  0  0
   37.3620   26.0300   37.4530 H   0  0  0  0  0  0  0  0  0  0  0  0
   37.7930   24.5790   39.3170 H   0  0  0  0  0  0  0  0  0  0  0  0
   40.1090   21.7340   36.7580 O   0  0  0  0  0  0  0  0  0  0  0  0
   42.5250   22.9010   36.9360 O   0  0  0  0  0  0  0  0  0  0  0  0
   41.7840   21.6220   36.7340 P   0  0  0  0  0  0  0  0  0  0  0  0
   42.2690   20.9050   35.2620 O   0  0  0  0  0  0  0  0  0  0  0  0
   41.4780   20.6090   34.7420 H   0  0  0  0  0  0  0  0  0  0  0  0
   42.2230   20.4950   37.9450 O   0  0  0  0  0  0  0  0  0  0  0  0
   41.8990   19.5930   37.6370 H   0  0  0  0  0  0  0  0  0  0  0  0
  1  2  1  0  0  0  0
  2  7  1  0  0  0  0
  3  2  2  0  0  0  0
  3  4  1  0  0  0  0
  4  5  2  0  0  0  0
  5  6  1  0  0  0  0
  5 20  1  0  0  0  0
  6  9  1  0  0  0  0
  7 10  1  0  0  0  0
  7  6  2  0  0  0  0
  8  4  1  0  0  0  0
 11 16  1  0  0  0  0
 12 13  1  0  0  0  0
 12 11  2  0  0  0  0
 13 14  2  0  0  0  0
 14 15  1  0  0  0  0
 15  3  1  0  0  0  0
 16 15  2  0  0  0  0
 17 11  1  0  0  0  0
 18 12  1  0  0  0  0
 19 13  1  0  0  0  0
 20 21  1  0  0  0  0
 21 26  1  0  0  0  0
 21 22  2  0  0  0  0
 22 27  1  0  0  0  0
 23 22  1  0  0  0  0
 24 23  2  0  0  0  0
 25 20  2  0  0  0  0
 25 24  1  0  0  0  0
 28 24  1  0  0  0  0
 30 28  1  0  0  0  0
 30 29  2  0  0  0  0
 30 33  1  0  0  0  0
 31 30  1  0  0  0  0
 32 31  1  0  0  0  0
 34 33  1  0  0  0  0
M  END
>  <minimizedAffinity>
-5.33747864

$$$$

 OpenBabel03272510223D

 34 36  0  0  0  0  0  0  0  0999 V2000
   35.3630   32.0150   32.0820 Br  0  0  0  0  0  0  0  0  0  0  0  0
   35.8800   30.2140   32.4530 C   0  0  0  0  0  0  0  0  0  0  0  0
   35.6820   29.6540   33.7190 C   0  0  0  0  0  0  0  0  0  0  0  0
   36.0780   28.3600   33.9060 C   0  0  0  0  0  0  0  0  0  0  0  0
   36.6600   27.5910   32.9070 C   0  0  0  0  0  0  0  0  0  0  0  0
   36.8400   28.1600   31.6880 C   0  0  0  0  0  0  0  0  0  0  0  0
   36.4490   29.4640   31.4710 C   0  0  0  0  0  0  0  0  0  0  0  0
   35.9200   27.9320   34.8970 H   0  0  0  0  0  0  0  0  0  0  0  0
   37.2860   27.6430   30.8380 H   0  0  0  0  0  0  0  0  0  0  0  0
   36.5940   29.9170   30.4990 H   0  0  0  0  0  0  0  0  0  0  0  0
   35.3740   31.9070   36.5670 C   0  0  0  0  0  0  0  0  0  0  0  0
   33.9520   31.9400   36.7930 C   0  0  0  0  0  0  0  0  0  0  0  0
   33.1400   31.1910   35.9670 C   0  0  0  0  0  0  0  0  0  0  0  0
   33.7280   30.4560   34.9740 N   0  0  0  0  0  0  0  0  0  0  0  0
   35.0730   30.4430   34.7820 C   0  0  0  0  0  0  0  0  0  0  0  0
   35.8860   31.1690   35.5790 N   0  0  0  0  0  0  0  0  0  0  0  0
   36.0500   32.4770   37.1880 H   0  0  0  0  0  0  0  0  0  0  0  0
   33.5800   32.5580   37.6130 H   0  0  0  0  0  0  0  0  0  0  0  0
   32.0840   31.2030   36.1200 H   0  0  0  0  0  0  0  0  0  0  0  0
   37.0760   26.2070   33.1300 C   0  0  0  0  0  0  0  0  0  0  0  0
   37.8200   25.8010   34.2300 C   0  0  0  0  0  0  0  0  0  0  0  0
   38.1960   24.4700   34.3950 C   0  0  0  0  0  0  0  0  0  0  0  0
   37.8400   23.5640   33.4890 N   0  0  0  0  0  0  0  0  0  0  0  0
   37.1240   23.9480   32.4270 C   0  0  0  0  0  0  0  0  0  0  0  0
   36.7600   25.2300   32.2640 N   0  0  0  0  0  0  0  0  0  0  0  0
   38.0900   26.5650   34.9450 H   0  0  0  0  0  0  0  0  0  0  0  0
   38.7750   24.2910   35.3000 H   0  0  0  0  0  0  0  0  0  0  0  0
   36.7910   22.9470   31.5250 O   0  0  0  0  0  0  0  0  0  0  0  0
   36.0680   20.4610   30.7960 O   0  0  0  0  0  0  0  0  0  0  0  0
   36.6540   21.3100   31.8740 P   0  0  0  0  0  0  0  0  0  0  0  0
   35.7440   21.1250   33.3080 O   0  0  0  0  0  0  0  0  0  0  0  0
   35.5470   22.0090   33.7120 H   0  0  0  0  0  0  0  0  0  0  0  0
   38.2240   20.7540   32.2670 O   0  0  0  0  0  0  0  0  0  0  0  0
   38.4770   21.1850   33.1410 H   0  0  0  0  0  0  0  0  0  0  0  0
  1  2  1  0  0  0  0
  2  3  1  0  0  0  0
  3  4  2  0  0  0  0
  3 15  1  0  0  0  0
  4  8  1  0  0  0  0
  5 20  1  0  0  0  0
  5  4  1  0  0  0  0
  6  5  2  0  0  0  0
  7  6  1  0  0  0  0
  7  2  2  0  0  0  0
  9  6  1  0  0  0  0
 10  7  1  0  0  0  0
 11 12  1  0  0  0  0
 11 17  1  0  0  0  0
 12 18  1  0  0  0  0
 13 19  1  0  0  0  0
 13 12  2  0  0  0  0
 14 13  1  0  0  0  0
 15 14  2  0  0  0  0
 15 16  1  0  0  0  0
 16 11  2  0  0  0  0
 20 21  1  0  0  0  0
 21 22  2  0  0  0  0
 21 26  1  0  0  0  0
 22 27  1  0  0  0  0
 23 22  1  0  0  0  0
 24 23  2  0  0  0  0
 25 24  1  0  0  0  0
 25 20  2  0  0  0  0
 28 30  1  0  0  0  0
 28 24  1  0  0  0  0
 29 30  2  0  0  0  0
 30 33  1  0  0  0  0
 30 31  1  0  0  0  0
 31 32  1  0  0  0  0
 33 34  1  0  0  0  0
M  END
>  <minimizedAffinity>
-5.29626226

$$$$

 OpenBabel03272510223D

 34 36  0  0  0  0  0  0  0  0999 V2000
   34.2570   32.4410   32.2960 Br  0  0  0  0  0  0  0  0  0  0  0  0
   35.0880   30.7240   32.3920 C   0  0  0  0  0  0  0  0  0  0  0  0
   35.2060   30.0490   33.6110 C   0  0  0  0  0  0  0  0  0  0  0  0
   35.8130   28.8250   33.5990 C   0  0  0  0  0  0  0  0  0  0  0  0
   36.3090   28.2340   32.4450 C   0  0  0  0  0  0  0  0  0  0  0  0
   36.1810   28.9120   31.2760 C   0  0  0  0  0  0  0  0  0  0  0  0
   35.5730   30.1480   31.2600 C   0  0  0  0  0  0  0  0  0  0  0  0
   35.9010   28.3060   34.5550 H   0  0  0  0  0  0  0  0  0  0  0  0
   36.5360   28.5370   30.3160 H   0  0  0  0  0  0  0  0  0  0  0  0
   35.4720   30.6880   30.3270 H   0  0  0  0  0  0  0  0  0  0  0  0
   35.0970   32.0070   36.6840 C   0  0  0  0  0  0  0  0  0  0  0  0
   33.7490   31.7980   37.1450 C   0  0  0  0  0  0  0  0  0  0  0  0
   32.9170   30.9940   36.3940 C   0  0  0  0  0  0  0  0  0  0  0  0
   33.4150   30.4380   35.2480 N   0  0  0  0  0  0  0  0  0  0  0  0
   34.6920   30.6510   34.8350 C   0  0  0  0  0  0  0  0  0  0  0  0
   35.5230   31.4340   35.5550 N   0  0  0  0  0  0  0  0  0  0  0  0
   35.7860   32.6280   37.2380 H   0  0  0  0  0  0  0  0  0  0  0  0
   33.4460   32.2860   38.0730 H   0  0  0  0  0  0  0  0  0  0  0  0
   31.9140   30.8280   36.7210 H   0  0  0  0  0  0  0  0  0  0  0  0
   36.9550   26.9220   32.4550 C   0  0  0  0  0  0  0  0  0  0  0  0
   36.3550   25.7710   31.9600 C   0  0  0  0  0  0  0  0  0  0  0  0
   37.0110   24.5430   31.9960 C   0  0  0  0  0  0  0  0  0  0  0  0
   38.2340   24.4600   32.5130 N   0  0  0  0  0  0  0  0  0  0  0  0
   38.8170   25.5650   32.9920 C   0  0  0  0  0  0  0  0  0  0  0  0
   38.1880   26.7500   32.9580 N   0  0  0  0  0  0  0  0  0  0  0  0
   35.3610   25.8780   31.5480 H   0  0  0  0  0  0  0  0  0  0  0  0
   36.4270   23.7260   31.5750 H   0  0  0  0  0  0  0  0  0  0  0  0
   40.0930   25.4000   33.5140 O   0  0  0  0  0  0  0  0  0  0  0  0
   41.5800   27.6330   33.3470 O   0  0  0  0  0  0  0  0  0  0  0  0
   41.0170   26.5900   34.2530 P   0  0  0  0  0  0  0  0  0  0  0  0
   42.2830   25.8460   35.1260 O   0  0  0  0  0  0  0  0  0  0  0  0
   42.1840   24.8590   35.1090 H   0  0  0  0  0  0  0  0  0  0  0  0
   40.0270   27.3210   35.4420 O   0  0  0  0  0  0  0  0  0  0  0  0
   39.8720   26.6320   36.1590 H   0  0  0  0  0  0  0  0  0  0  0  0
  1  2  1  0  0  0  0
  2  3  1  0  0  0  0
  3 15  1  0  0  0  0
  4  3  2  0  0  0  0
  4  8  1  0  0  0  0
  5 20  1  0  0  0  0
  5  4  1  0  0  0  0
  6  5  2  0  0  0  0
  7  6  1  0  0  0  0
  7  2  2  0  0  0  0
  9  6  1  0  0  0  0
 10  7  1  0  0  0  0
 11 12  1  0  0  0  0
 11 17  1  0  0  0  0
 12 18  1  0  0  0  0
 13 19  1  0  0  0  0
 13 12  2  0  0  0  0
 14 13  1  0  0  0  0
 15 14  2  0  0  0  0
 15 16  1  0  0  0  0
 16 11  2  0  0  0  0
 20 25  1  0  0  0  0
 21 22  1  0  0  0  0
 21 20  2  0  0  0  0
 22 23  2  0  0  0  0
 23 24  1  0  0  0  0
 24 28  1  0  0  0  0
 25 24  2  0  0  0  0
 26 21  1  0  0  0  0
 27 22  1  0  0  0  0
 28 30  1  0  0  0  0
 29 30  2  0  0  0  0
 30 31  1  0  0  0  0
 30 33  1  0  0  0  0
 32 31  1  0  0  0  0
 33 34  1  0  0  0  0
M  END
>  <minimizedAffinity>
-5.27180815

$$$$
