
 OpenBabel03272508353D

 29 30  0  0  0  0  0  0  0  0999 V2000
   37.6700   27.1220   34.0580 C   0  0  0  0  0  0  0  0  0  0  0  0
   37.8070   27.5840   35.3540 C   0  0  0  0  0  0  0  0  0  0  0  0
   38.5110   26.6410   36.0750 C   0  0  0  0  0  0  0  0  0  0  0  0
   38.7850   25.6260   35.2030 N   0  0  0  0  0  0  0  0  0  0  0  0
   38.2790   25.9240   34.0010 N   0  0  0  0  0  0  0  0  0  0  0  0
   37.4450   28.5230   35.7880 H   0  0  0  0  0  0  0  0  0  0  0  0
   38.7660   26.7360   37.1220 H   0  0  0  0  0  0  0  0  0  0  0  0
   36.6350   28.6600   30.7840 C   0  0  0  0  0  0  0  0  0  0  0  0
   37.3600   27.8980   31.6900 C   0  0  0  0  0  0  0  0  0  0  0  0
   36.9740   27.8870   33.0420 C   0  0  0  0  0  0  0  0  0  0  0  0
   35.8960   28.6410   33.3720 N   0  0  0  0  0  0  0  0  0  0  0  0
   35.2120   29.3720   32.4660 C   0  0  0  0  0  0  0  0  0  0  0  0
   35.5850   29.3750   31.1890 N   0  0  0  0  0  0  0  0  0  0  0  0
   36.9270   28.6740   29.7330 H   0  0  0  0  0  0  0  0  0  0  0  0
   38.2090   27.3090   31.4120 H   0  0  0  0  0  0  0  0  0  0  0  0
   34.3790   29.9050   32.9400 H   0  0  0  0  0  0  0  0  0  0  0  0
   39.5200   24.4200   35.5590 C   0  0  0  0  0  0  0  0  0  0  0  0
   40.1170   24.5800   36.4560 H   0  0  0  0  0  0  0  0  0  0  0  0
   40.2000   24.0960   34.7500 H   0  0  0  0  0  0  0  0  0  0  0  0
   38.5250   23.2760   35.7330 C   0  0  0  0  0  0  0  0  0  0  0  0
   38.0300   23.0590   34.7720 H   0  0  0  0  0  0  0  0  0  0  0  0
   39.0290   22.3750   36.1400 H   0  0  0  0  0  0  0  0  0  0  0  0
   37.5390   23.5970   36.6900 O   0  0  0  0  0  0  0  0  0  0  0  0
   38.1450   24.5370   39.0350 O   0  0  0  0  0  0  0  0  0  0  0  0
   38.0880   23.2390   38.2520 P   0  0  0  0  0  0  0  0  0  0  0  0
   36.9290   22.2580   38.9730 O   0  0  0  0  0  0  0  0  0  0  0  0
   36.4240   22.7210   39.7060 H   0  0  0  0  0  0  0  0  0  0  0  0
   39.6260   22.5680   38.2600 O   0  0  0  0  0  0  0  0  0  0  0  0
   39.5790   21.5830   38.3180 H   0  0  0  0  0  0  0  0  0  0  0  0
  1  2  1  0  0  0  0
  2  6  1  0  0  0  0
  2  3  2  0  0  0  0
  3  7  1  0  0  0  0
  4 17  1  0  0  0  0
  4  3  1  0  0  0  0
  5  1  2  0  0  0  0
  5  4  1  0  0  0  0
  8 13  2  0  0  0  0
  8  9  1  0  0  0  0
  9 10  2  0  0  0  0
 10 11  1  0  0  0  0
 10  1  1  0  0  0  0
 12 16  1  0  0  0  0
 12 11  2  0  0  0  0
 13 12  1  0  0  0  0
 14  8  1  0  0  0  0
 15  9  1  0  0  0  0
 17 20  1  0  0  0  0
 17 18  1  0  0  0  0
 19 17  1  0  0  0  0
 20 22  1  0  0  0  0
 20 23  1  0  0  0  0
 21 20  1  0  0  0  0
 23 25  1  0  0  0  0
 25 28  1  0  0  0  0
 25 26  1  0  0  0  0
 25 24  2  0  0  0  0
 26 27  1  0  0  0  0
 28 29  1  0  0  0  0
M  END
>  <minimizedAffinity>
-4.77414036

$$$$

 OpenBabel03272508353D

 29 30  0  0  0  0  0  0  0  0999 V2000
   36.2000   28.5350   34.1810 C   0  0  0  0  0  0  0  0  0  0  0  0
   36.4790   28.3030   32.8470 C   0  0  0  0  0  0  0  0  0  0  0  0
   37.1520   27.1020   32.7520 C   0  0  0  0  0  0  0  0  0  0  0  0
   37.2700   26.6320   34.0280 N   0  0  0  0  0  0  0  0  0  0  0  0
   36.6970   27.4950   34.8750 N   0  0  0  0  0  0  0  0  0  0  0  0
   36.2330   28.9230   31.9770 H   0  0  0  0  0  0  0  0  0  0  0  0
   37.4980   26.6660   31.8240 H   0  0  0  0  0  0  0  0  0  0  0  0
   35.3220   31.8030   35.8250 C   0  0  0  0  0  0  0  0  0  0  0  0
   36.0720   30.6960   35.4550 C   0  0  0  0  0  0  0  0  0  0  0  0
   35.4940   29.7230   34.6190 C   0  0  0  0  0  0  0  0  0  0  0  0
   34.2140   29.9420   34.2290 N   0  0  0  0  0  0  0  0  0  0  0  0
   33.5100   31.0300   34.6070 C   0  0  0  0  0  0  0  0  0  0  0  0
   34.0670   31.9460   35.3970 N   0  0  0  0  0  0  0  0  0  0  0  0
   35.7620   32.5640   36.4720 H   0  0  0  0  0  0  0  0  0  0  0  0
   37.0810   30.5390   35.7730 H   0  0  0  0  0  0  0  0  0  0  0  0
   32.5000   31.0120   34.1810 H   0  0  0  0  0  0  0  0  0  0  0  0
   37.9220   25.3780   34.3790 C   0  0  0  0  0  0  0  0  0  0  0  0
   38.9140   25.3170   33.9320 H   0  0  0  0  0  0  0  0  0  0  0  0
   37.3410   24.5000   34.0410 H   0  0  0  0  0  0  0  0  0  0  0  0
   37.9750   25.2640   35.9000 C   0  0  0  0  0  0  0  0  0  0  0  0
   38.2290   26.2420   36.3420 H   0  0  0  0  0  0  0  0  0  0  0  0
   37.0150   24.8790   36.3000 H   0  0  0  0  0  0  0  0  0  0  0  0
   38.9390   24.3180   36.3080 O   0  0  0  0  0  0  0  0  0  0  0  0
   37.9120   24.4880   38.6890 O   0  0  0  0  0  0  0  0  0  0  0  0
   38.4000   23.4720   37.6730 P   0  0  0  0  0  0  0  0  0  0  0  0
   37.0770   22.5510   37.1960 O   0  0  0  0  0  0  0  0  0  0  0  0
   36.2090   22.8850   37.5740 H   0  0  0  0  0  0  0  0  0  0  0  0
   39.6140   22.5680   38.3960 O   0  0  0  0  0  0  0  0  0  0  0  0
   39.5730   21.6260   38.1010 H   0  0  0  0  0  0  0  0  0  0  0  0
  1 10  1  0  0  0  0
  1  5  2  0  0  0  0
  2  1  1  0  0  0  0
  3  2  2  0  0  0  0
  3  4  1  0  0  0  0
  4 17  1  0  0  0  0
  4  5  1  0  0  0  0
  6  2  1  0  0  0  0
  7  3  1  0  0  0  0
  8 14  1  0  0  0  0
  9 15  1  0  0  0  0
  9  8  1  0  0  0  0
 10  9  2  0  0  0  0
 11 12  2  0  0  0  0
 11 10  1  0  0  0  0
 12 13  1  0  0  0  0
 13  8  2  0  0  0  0
 16 12  1  0  0  0  0
 17 20  1  0  0  0  0
 18 17  1  0  0  0  0
 19 17  1  0  0  0  0
 20 22  1  0  0  0  0
 20 23  1  0  0  0  0
 20 21  1  0  0  0  0
 23 25  1  0  0  0  0
 25 28  1  0  0  0  0
 25 24  2  0  0  0  0
 26 27  1  0  0  0  0
 26 25  1  0  0  0  0
 29 28  1  0  0  0  0
M  END
>  <minimizedAffinity>
-4.74162149

$$$$

 OpenBabel03272508353D

 29 30  0  0  0  0  0  0  0  0999 V2000
   37.2540   21.7430   35.1470 C   0  0  0  0  0  0  0  0  0  0  0  0
   36.1070   21.0070   35.3760 C   0  0  0  0  0  0  0  0  0  0  0  0
   35.5940   20.6200   34.1550 C   0  0  0  0  0  0  0  0  0  0  0  0
   36.4390   21.1300   33.2110 N   0  0  0  0  0  0  0  0  0  0  0  0
   37.4280   21.7980   33.8140 N   0  0  0  0  0  0  0  0  0  0  0  0
   35.6410   20.7440   36.3330 H   0  0  0  0  0  0  0  0  0  0  0  0
   34.6950   20.0300   34.0280 H   0  0  0  0  0  0  0  0  0  0  0  0
   38.3010   23.5620   38.2700 C   0  0  0  0  0  0  0  0  0  0  0  0
   37.4760   23.0700   37.2680 C   0  0  0  0  0  0  0  0  0  0  0  0
   38.0370   22.2990   36.2340 C   0  0  0  0  0  0  0  0  0  0  0  0
   39.3750   22.0890   36.2910 N   0  0  0  0  0  0  0  0  0  0  0  0
   40.1510   22.5820   37.2800 C   0  0  0  0  0  0  0  0  0  0  0  0
   39.6110   23.3100   38.2540 N   0  0  0  0  0  0  0  0  0  0  0  0
   37.8750   24.1610   39.0770 H   0  0  0  0  0  0  0  0  0  0  0  0
   36.4210   23.2460   37.2390 H   0  0  0  0  0  0  0  0  0  0  0  0
   41.2000   22.2960   37.1370 H   0  0  0  0  0  0  0  0  0  0  0  0
   36.2620   20.9520   31.7760 C   0  0  0  0  0  0  0  0  0  0  0  0
   35.2470   20.6310   31.5470 H   0  0  0  0  0  0  0  0  0  0  0  0
   36.9590   20.1990   31.3640 H   0  0  0  0  0  0  0  0  0  0  0  0
   36.6180   22.2590   31.0750 C   0  0  0  0  0  0  0  0  0  0  0  0
   37.5490   22.6720   31.4990 H   0  0  0  0  0  0  0  0  0  0  0  0
   36.7080   22.1060   29.9800 H   0  0  0  0  0  0  0  0  0  0  0  0
   35.5900   23.2140   31.2200 O   0  0  0  0  0  0  0  0  0  0  0  0
   36.5040   25.3250   32.4290 O   0  0  0  0  0  0  0  0  0  0  0  0
   36.2060   24.7820   31.0430 P   0  0  0  0  0  0  0  0  0  0  0  0
   37.6660   24.6520   30.2210 O   0  0  0  0  0  0  0  0  0  0  0  0
   38.4610   24.8520   30.7980 H   0  0  0  0  0  0  0  0  0  0  0  0
   35.1180   25.8260   30.3070 O   0  0  0  0  0  0  0  0  0  0  0  0
   35.3090   25.9080   29.3420 H   0  0  0  0  0  0  0  0  0  0  0  0
  1  2  1  0  0  0  0
  1 10  1  0  0  0  0
  2  6  1  0  0  0  0
  3  2  2  0  0  0  0
  4  5  1  0  0  0  0
  4  3  1  0  0  0  0
  5  1  2  0  0  0  0
  7  3  1  0  0  0  0
  8 14  1  0  0  0  0
  9  8  2  0  0  0  0
 10 11  2  0  0  0  0
 10  9  1  0  0  0  0
 11 12  1  0  0  0  0
 12 13  2  0  0  0  0
 13  8  1  0  0  0  0
 15  9  1  0  0  0  0
 16 12  1  0  0  0  0
 17  4  1  0  0  0  0
 18 17  1  0  0  0  0
 19 17  1  0  0  0  0
 20 23  1  0  0  0  0
 20 21  1  0  0  0  0
 20 17  1  0  0  0  0
 22 20  1  0  0  0  0
 25 23  1  0  0  0  0
 25 24  2  0  0  0  0
 26 27  1  0  0  0  0
 26 25  1  0  0  0  0
 28 25  1  0  0  0  0
 29 28  1  0  0  0  0
M  END
>  <minimizedAffinity>
-4.68078661

$$$$

 OpenBabel03272508353D

 29 30  0  0  0  0  0  0  0  0999 V2000
   36.2510   23.3930   31.6180 C   0  0  0  0  0  0  0  0  0  0  0  0
   35.2860   24.2950   31.2100 C   0  0  0  0  0  0  0  0  0  0  0  0
   35.7800   25.5690   31.4050 C   0  0  0  0  0  0  0  0  0  0  0  0
   37.0320   25.4140   31.9280 N   0  0  0  0  0  0  0  0  0  0  0  0
   37.3040   24.1100   32.0500 N   0  0  0  0  0  0  0  0  0  0  0  0
   34.2910   24.0940   30.7960 H   0  0  0  0  0  0  0  0  0  0  0  0
   35.2380   26.4770   31.1740 H   0  0  0  0  0  0  0  0  0  0  0  0
   34.8840   19.9210   32.1010 C   0  0  0  0  0  0  0  0  0  0  0  0
   35.0120   21.2960   32.2330 C   0  0  0  0  0  0  0  0  0  0  0  0
   36.0410   21.9600   31.5400 C   0  0  0  0  0  0  0  0  0  0  0  0
   36.8530   21.1890   30.7760 N   0  0  0  0  0  0  0  0  0  0  0  0
   36.7030   19.8520   30.6680 C   0  0  0  0  0  0  0  0  0  0  0  0
   35.7250   19.2330   31.3270 N   0  0  0  0  0  0  0  0  0  0  0  0
   34.0890   19.3970   32.6330 H   0  0  0  0  0  0  0  0  0  0  0  0
   34.3620   21.8890   32.8410 H   0  0  0  0  0  0  0  0  0  0  0  0
   37.4610   19.4230   30.0020 H   0  0  0  0  0  0  0  0  0  0  0  0
   37.9100   26.5190   32.2850 C   0  0  0  0  0  0  0  0  0  0  0  0
   37.9580   27.2520   31.4800 H   0  0  0  0  0  0  0  0  0  0  0  0
   38.9400   26.1770   32.4970 H   0  0  0  0  0  0  0  0  0  0  0  0
   37.4130   27.1370   33.5880 C   0  0  0  0  0  0  0  0  0  0  0  0
   38.1460   27.8730   33.9590 H   0  0  0  0  0  0  0  0  0  0  0  0
   36.4140   27.5980   33.4500 H   0  0  0  0  0  0  0  0  0  0  0  0
   37.2190   26.1520   34.5790 O   0  0  0  0  0  0  0  0  0  0  0  0
   38.0820   25.2970   36.8760 O   0  0  0  0  0  0  0  0  0  0  0  0
   38.4660   26.2070   35.7240 P   0  0  0  0  0  0  0  0  0  0  0  0
   39.8360   25.5600   34.9970 O   0  0  0  0  0  0  0  0  0  0  0  0
   40.0950   24.6660   35.3720 H   0  0  0  0  0  0  0  0  0  0  0  0
   38.7070   27.7470   36.3450 O   0  0  0  0  0  0  0  0  0  0  0  0
   39.4490   28.2010   35.8790 H   0  0  0  0  0  0  0  0  0  0  0  0
  1  5  2  0  0  0  0
  2  3  2  0  0  0  0
  2  1  1  0  0  0  0
  3  4  1  0  0  0  0
  4  5  1  0  0  0  0
  4 17  1  0  0  0  0
  6  2  1  0  0  0  0
  7  3  1  0  0  0  0
  8  9  1  0  0  0  0
  8 14  1  0  0  0  0
  9 15  1  0  0  0  0
 10  1  1  0  0  0  0
 10  9  2  0  0  0  0
 11 10  1  0  0  0  0
 12 11  2  0  0  0  0
 12 13  1  0  0  0  0
 13  8  2  0  0  0  0
 16 12  1  0  0  0  0
 17 19  1  0  0  0  0
 17 20  1  0  0  0  0
 18 17  1  0  0  0  0
 20 21  1  0  0  0  0
 20 23  1  0  0  0  0
 22 20  1  0  0  0  0
 23 25  1  0  0  0  0
 25 28  1  0  0  0  0
 25 24  2  0  0  0  0
 26 27  1  0  0  0  0
 26 25  1  0  0  0  0
 29 28  1  0  0  0  0
M  END
>  <minimizedAffinity>
-4.57296419

$$$$

 OpenBabel03272508353D

 29 30  0  0  0  0  0  0  0  0999 V2000
   38.0620   25.3050   35.2810 C   0  0  0  0  0  0  0  0  0  0  0  0
   37.6740   26.5740   35.6690 C   0  0  0  0  0  0  0  0  0  0  0  0
   37.0750   27.1890   34.5880 C   0  0  0  0  0  0  0  0  0  0  0  0
   37.1130   26.2820   33.5680 N   0  0  0  0  0  0  0  0  0  0  0  0
   37.7040   25.1590   33.9930 N   0  0  0  0  0  0  0  0  0  0  0  0
   37.7920   27.0590   36.6450 H   0  0  0  0  0  0  0  0  0  0  0  0
   36.6730   28.1940   34.6010 H   0  0  0  0  0  0  0  0  0  0  0  0
   38.9460   23.2370   38.2980 C   0  0  0  0  0  0  0  0  0  0  0  0
   38.2470   24.1230   37.4900 C   0  0  0  0  0  0  0  0  0  0  0  0
   38.7250   24.3960   36.1950 C   0  0  0  0  0  0  0  0  0  0  0  0
   39.8620   23.7590   35.8220 N   0  0  0  0  0  0  0  0  0  0  0  0
   40.5200   22.9020   36.6320 C   0  0  0  0  0  0  0  0  0  0  0  0
   40.0590   22.6500   37.8550 N   0  0  0  0  0  0  0  0  0  0  0  0
   38.5820   23.0190   39.3030 H   0  0  0  0  0  0  0  0  0  0  0  0
   37.3500   24.6170   37.8010 H   0  0  0  0  0  0  0  0  0  0  0  0
   41.4110   22.4980   36.1380 H   0  0  0  0  0  0  0  0  0  0  0  0
   36.5810   26.5300   32.2350 C   0  0  0  0  0  0  0  0  0  0  0  0
   35.6130   26.0470   32.1070 H   0  0  0  0  0  0  0  0  0  0  0  0
   37.2560   26.1550   31.4440 H   0  0  0  0  0  0  0  0  0  0  0  0
   36.4990   28.0380   32.0150 C   0  0  0  0  0  0  0  0  0  0  0  0
   35.6130   28.2810   31.4050 H   0  0  0  0  0  0  0  0  0  0  0  0
   36.4820   28.5770   32.9840 H   0  0  0  0  0  0  0  0  0  0  0  0
   37.6500   28.5210   31.3570 O   0  0  0  0  0  0  0  0  0  0  0  0
   38.4140   30.1490   29.4820 O   0  0  0  0  0  0  0  0  0  0  0  0
   37.2240   29.3170   29.9240 P   0  0  0  0  0  0  0  0  0  0  0  0
   36.9660   28.1360   28.7570 O   0  0  0  0  0  0  0  0  0  0  0  0
   37.6760   28.1210   28.0490 H   0  0  0  0  0  0  0  0  0  0  0  0
   35.9200   30.3530   30.1220 O   0  0  0  0  0  0  0  0  0  0  0  0
   35.0800   29.9180   29.8380 H   0  0  0  0  0  0  0  0  0  0  0  0
  1  2  1  0  0  0  0
  1 10  1  0  0  0  0
  2  6  1  0  0  0  0
  3  7  1  0  0  0  0
  3  2  2  0  0  0  0
  4  5  1  0  0  0  0
  4  3  1  0  0  0  0
  5  1  2  0  0  0  0
  8 14  1  0  0  0  0
  9 15  1  0  0  0  0
  9  8  2  0  0  0  0
 10  9  1  0  0  0  0
 11 10  2  0  0  0  0
 11 12  1  0  0  0  0
 12 13  2  0  0  0  0
 13  8  1  0  0  0  0
 16 12  1  0  0  0  0
 17  4  1  0  0  0  0
 18 17  1  0  0  0  0
 19 17  1  0  0  0  0
 20 17  1  0  0  0  0
 20 22  1  0  0  0  0
 21 20  1  0  0  0  0
 23 20  1  0  0  0  0
 24 25  2  0  0  0  0
 25 28  1  0  0  0  0
 25 23  1  0  0  0  0
 26 25  1  0  0  0  0
 27 26  1  0  0  0  0
 29 28  1  0  0  0  0
M  END
>  <minimizedAffinity>
-4.56946278

$$$$

 OpenBabel03272508353D

 29 30  0  0  0  0  0  0  0  0999 V2000
   38.1000   23.7670   34.5400 C   0  0  0  0  0  0  0  0  0  0  0  0
   38.1270   25.0110   33.9380 C   0  0  0  0  0  0  0  0  0  0  0  0
   37.7540   24.8580   32.6180 C   0  0  0  0  0  0  0  0  0  0  0  0
   37.5110   23.5250   32.4460 N   0  0  0  0  0  0  0  0  0  0  0  0
   37.7190   22.8820   33.6010 N   0  0  0  0  0  0  0  0  0  0  0  0
   38.3870   25.9800   34.3790 H   0  0  0  0  0  0  0  0  0  0  0  0
   37.6870   25.6670   31.9030 H   0  0  0  0  0  0  0  0  0  0  0  0
   39.8500   22.7850   37.7230 C   0  0  0  0  0  0  0  0  0  0  0  0
   39.6010   22.9120   36.3640 C   0  0  0  0  0  0  0  0  0  0  0  0
   38.4410   23.5850   35.9370 C   0  0  0  0  0  0  0  0  0  0  0  0
   37.6300   24.0700   36.9090 N   0  0  0  0  0  0  0  0  0  0  0  0
   37.8990   23.9300   38.2250 C   0  0  0  0  0  0  0  0  0  0  0  0
   39.0000   23.2930   38.6170 N   0  0  0  0  0  0  0  0  0  0  0  0
   40.7470   22.2660   38.0630 H   0  0  0  0  0  0  0  0  0  0  0  0
   40.2530   22.5230   35.6100 H   0  0  0  0  0  0  0  0  0  0  0  0
   37.1180   24.3940   38.8380 H   0  0  0  0  0  0  0  0  0  0  0  0
   37.0880   22.9290   31.1860 C   0  0  0  0  0  0  0  0  0  0  0  0
   37.7910   22.1620   30.8640 H   0  0  0  0  0  0  0  0  0  0  0  0
   37.0090   23.6810   30.3790 H   0  0  0  0  0  0  0  0  0  0  0  0
   35.6780   22.3720   31.3590 C   0  0  0  0  0  0  0  0  0  0  0  0
   35.4080   22.3550   32.4280 H   0  0  0  0  0  0  0  0  0  0  0  0
   34.9470   22.9600   30.7680 H   0  0  0  0  0  0  0  0  0  0  0  0
   35.5800   21.0610   30.8460 O   0  0  0  0  0  0  0  0  0  0  0  0
   36.9150   19.2370   32.1280 O   0  0  0  0  0  0  0  0  0  0  0  0
   35.5650   19.9300   32.1070 P   0  0  0  0  0  0  0  0  0  0  0  0
   35.4090   20.7890   33.5430 O   0  0  0  0  0  0  0  0  0  0  0  0
   36.2430   20.7780   34.1000 H   0  0  0  0  0  0  0  0  0  0  0  0
   34.3880   18.7510   31.9050 O   0  0  0  0  0  0  0  0  0  0  0  0
   33.5780   18.9720   32.4250 H   0  0  0  0  0  0  0  0  0  0  0  0
  1 10  1  0  0  0  0
  2  6  1  0  0  0  0
  2  1  1  0  0  0  0
  3  2  2  0  0  0  0
  4  3  1  0  0  0  0
  4  5  1  0  0  0  0
  5  1  2  0  0  0  0
  7  3  1  0  0  0  0
  8 14  1  0  0  0  0
  8 13  1  0  0  0  0
  9  8  2  0  0  0  0
 10  9  1  0  0  0  0
 10 11  2  0  0  0  0
 11 12  1  0  0  0  0
 12 13  2  0  0  0  0
 12 16  1  0  0  0  0
 15  9  1  0  0  0  0
 17 20  1  0  0  0  0
 17  4  1  0  0  0  0
 18 17  1  0  0  0  0
 19 17  1  0  0  0  0
 20 21  1  0  0  0  0
 22 20  1  0  0  0  0
 23 20  1  0  0  0  0
 23 25  1  0  0  0  0
 25 24  2  0  0  0  0
 25 26  1  0  0  0  0
 26 27  1  0  0  0  0
 28 25  1  0  0  0  0
 28 29  1  0  0  0  0
M  END
>  <minimizedAffinity>
-4.54526711

$$$$

 OpenBabel03272508353D

 29 30  0  0  0  0  0  0  0  0999 V2000
   37.3830   26.7370   33.8770 C   0  0  0  0  0  0  0  0  0  0  0  0
   37.8190   27.2140   35.0990 C   0  0  0  0  0  0  0  0  0  0  0  0
   38.1890   26.1330   35.8740 C   0  0  0  0  0  0  0  0  0  0  0  0
   37.9680   25.0250   35.1070 N   0  0  0  0  0  0  0  0  0  0  0  0
   37.4870   25.3970   33.9160 N   0  0  0  0  0  0  0  0  0  0  0  0
   37.8840   28.2520   35.4460 H   0  0  0  0  0  0  0  0  0  0  0  0
   38.5700   26.2070   36.8840 H   0  0  0  0  0  0  0  0  0  0  0  0
   35.7640   29.5790   32.0160 C   0  0  0  0  0  0  0  0  0  0  0  0
   36.1630   28.7840   33.0810 C   0  0  0  0  0  0  0  0  0  0  0  0
   36.9220   27.6270   32.8290 C   0  0  0  0  0  0  0  0  0  0  0  0
   37.2150   27.3660   31.5310 N   0  0  0  0  0  0  0  0  0  0  0  0
   36.8120   28.1600   30.5160 C   0  0  0  0  0  0  0  0  0  0  0  0
   36.0940   29.2530   30.7660 N   0  0  0  0  0  0  0  0  0  0  0  0
   35.1760   30.4790   32.2030 H   0  0  0  0  0  0  0  0  0  0  0  0
   35.9220   29.0050   34.1000 H   0  0  0  0  0  0  0  0  0  0  0  0
   37.1550   27.7690   29.5510 H   0  0  0  0  0  0  0  0  0  0  0  0
   38.2300   23.6620   35.5500 C   0  0  0  0  0  0  0  0  0  0  0  0
   37.5420   22.9620   35.0770 H   0  0  0  0  0  0  0  0  0  0  0  0
   38.1260   23.5560   36.6460 H   0  0  0  0  0  0  0  0  0  0  0  0
   39.6860   23.3220   35.2470 C   0  0  0  0  0  0  0  0  0  0  0  0
   39.8750   23.4080   34.1640 H   0  0  0  0  0  0  0  0  0  0  0  0
   40.3710   23.9710   35.8290 H   0  0  0  0  0  0  0  0  0  0  0  0
   40.0000   22.0100   35.6600 O   0  0  0  0  0  0  0  0  0  0  0  0
   41.9690   23.1430   36.9210 O   0  0  0  0  0  0  0  0  0  0  0  0
   40.9390   22.0390   37.0700 P   0  0  0  0  0  0  0  0  0  0  0  0
   39.9180   22.4610   38.3370 O   0  0  0  0  0  0  0  0  0  0  0  0
   40.0970   23.3800   38.6960 H   0  0  0  0  0  0  0  0  0  0  0  0
   41.7630   20.6010   37.3290 O   0  0  0  0  0  0  0  0  0  0  0  0
   41.2720   20.0250   37.9640 H   0  0  0  0  0  0  0  0  0  0  0  0
  1  5  2  0  0  0  0
  1  2  1  0  0  0  0
  2  6  1  0  0  0  0
  2  3  2  0  0  0  0
  3  7  1  0  0  0  0
  4 17  1  0  0  0  0
  4  3  1  0  0  0  0
  5  4  1  0  0  0  0
  8 14  1  0  0  0  0
  8  9  1  0  0  0  0
  9 15  1  0  0  0  0
 10  9  2  0  0  0  0
 10  1  1  0  0  0  0
 11 10  1  0  0  0  0
 12 13  1  0  0  0  0
 12 11  2  0  0  0  0
 13  8  2  0  0  0  0
 16 12  1  0  0  0  0
 17 19  1  0  0  0  0
 18 17  1  0  0  0  0
 20 17  1  0  0  0  0
 20 23  1  0  0  0  0
 20 22  1  0  0  0  0
 21 20  1  0  0  0  0
 23 25  1  0  0  0  0
 24 25  2  0  0  0  0
 25 28  1  0  0  0  0
 25 26  1  0  0  0  0
 26 27  1  0  0  0  0
 28 29  1  0  0  0  0
M  END
>  <minimizedAffinity>
-4.53601456

$$$$

 OpenBabel03272508353D

 29 30  0  0  0  0  0  0  0  0999 V2000
   38.1930   27.2060   32.0150 C   0  0  0  0  0  0  0  0  0  0  0  0
   37.0110   26.6710   32.4920 C   0  0  0  0  0  0  0  0  0  0  0  0
   37.1860   26.3660   33.8270 C   0  0  0  0  0  0  0  0  0  0  0  0
   38.4690   26.7200   34.1310 N   0  0  0  0  0  0  0  0  0  0  0  0
   39.0620   27.2220   33.0420 N   0  0  0  0  0  0  0  0  0  0  0  0
   36.0710   26.4980   31.9550 H   0  0  0  0  0  0  0  0  0  0  0  0
   36.4230   25.9310   34.4590 H   0  0  0  0  0  0  0  0  0  0  0  0
   37.6830   28.9050   28.6970 C   0  0  0  0  0  0  0  0  0  0  0  0
   37.4690   28.5520   30.0220 C   0  0  0  0  0  0  0  0  0  0  0  0
   38.3390   27.6330   30.6370 C   0  0  0  0  0  0  0  0  0  0  0  0
   39.3470   27.1470   29.8720 N   0  0  0  0  0  0  0  0  0  0  0  0
   39.5290   27.5100   28.5840 C   0  0  0  0  0  0  0  0  0  0  0  0
   38.7010   28.3810   28.0120 N   0  0  0  0  0  0  0  0  0  0  0  0
   37.0140   29.6170   28.2120 H   0  0  0  0  0  0  0  0  0  0  0  0
   36.6670   28.9460   30.6110 H   0  0  0  0  0  0  0  0  0  0  0  0
   40.3990   27.0030   28.1520 H   0  0  0  0  0  0  0  0  0  0  0  0
   39.0670   26.5640   35.4500 C   0  0  0  0  0  0  0  0  0  0  0  0
   39.1490   27.5260   35.9550 H   0  0  0  0  0  0  0  0  0  0  0  0
   40.0790   26.1210   35.3950 H   0  0  0  0  0  0  0  0  0  0  0  0
   38.2330   25.5690   36.2500 C   0  0  0  0  0  0  0  0  0  0  0  0
   38.0910   25.9390   37.2800 H   0  0  0  0  0  0  0  0  0  0  0  0
   37.2600   25.3810   35.7520 H   0  0  0  0  0  0  0  0  0  0  0  0
   38.8580   24.3050   36.3050 O   0  0  0  0  0  0  0  0  0  0  0  0
   37.8840   24.4770   38.7080 O   0  0  0  0  0  0  0  0  0  0  0  0
   38.3720   23.4620   37.6910 P   0  0  0  0  0  0  0  0  0  0  0  0
   37.0620   22.5040   37.2560 O   0  0  0  0  0  0  0  0  0  0  0  0
   36.1950   22.8200   37.6510 H   0  0  0  0  0  0  0  0  0  0  0  0
   39.6250   22.5950   38.3940 O   0  0  0  0  0  0  0  0  0  0  0  0
   39.6000   21.6490   38.1100 H   0  0  0  0  0  0  0  0  0  0  0  0
  1  2  1  0  0  0  0
  1  5  2  0  0  0  0
  2  3  2  0  0  0  0
  3  4  1  0  0  0  0
  3  7  1  0  0  0  0
  4 17  1  0  0  0  0
  5  4  1  0  0  0  0
  6  2  1  0  0  0  0
  8  9  1  0  0  0  0
  9 15  1  0  0  0  0
  9 10  2  0  0  0  0
 10  1  1  0  0  0  0
 11 10  1  0  0  0  0
 12 11  2  0  0  0  0
 13 12  1  0  0  0  0
 13  8  2  0  0  0  0
 14  8  1  0  0  0  0
 16 12  1  0  0  0  0
 17 18  1  0  0  0  0
 17 20  1  0  0  0  0
 19 17  1  0  0  0  0
 20 23  1  0  0  0  0
 20 21  1  0  0  0  0
 22 20  1  0  0  0  0
 23 25  1  0  0  0  0
 25 28  1  0  0  0  0
 25 24  2  0  0  0  0
 26 27  1  0  0  0  0
 26 25  1  0  0  0  0
 29 28  1  0  0  0  0
M  END
>  <minimizedAffinity>
-4.52314758

$$$$

 OpenBabel03272508353D

 29 30  0  0  0  0  0  0  0  0999 V2000
   38.0990   25.8310   35.6370 C   0  0  0  0  0  0  0  0  0  0  0  0
   38.2030   27.1470   36.0490 C   0  0  0  0  0  0  0  0  0  0  0  0
   37.6010   27.9440   35.0960 C   0  0  0  0  0  0  0  0  0  0  0  0
   37.1460   27.0970   34.1270 N   0  0  0  0  0  0  0  0  0  0  0  0
   37.4480   25.8360   34.4600 N   0  0  0  0  0  0  0  0  0  0  0  0
   38.6670   27.5450   36.9590 H   0  0  0  0  0  0  0  0  0  0  0  0
   37.5330   29.0220   35.1560 H   0  0  0  0  0  0  0  0  0  0  0  0
   38.7160   23.3280   38.3780 C   0  0  0  0  0  0  0  0  0  0  0  0
   38.1410   24.3900   37.6940 C   0  0  0  0  0  0  0  0  0  0  0  0
   38.6360   24.7380   36.4240 C   0  0  0  0  0  0  0  0  0  0  0  0
   39.6650   23.9930   35.9490 N   0  0  0  0  0  0  0  0  0  0  0  0
   40.2030   22.9650   36.6390 C   0  0  0  0  0  0  0  0  0  0  0  0
   39.7260   22.6430   37.8400 N   0  0  0  0  0  0  0  0  0  0  0  0
   38.3380   23.0500   39.3630 H   0  0  0  0  0  0  0  0  0  0  0  0
   37.3300   24.9670   38.0850 H   0  0  0  0  0  0  0  0  0  0  0  0
   41.0200   22.4980   36.0770 H   0  0  0  0  0  0  0  0  0  0  0  0
   36.4420   27.5310   32.9290 C   0  0  0  0  0  0  0  0  0  0  0  0
   36.6430   28.5810   32.7190 H   0  0  0  0  0  0  0  0  0  0  0  0
   35.3470   27.4060   33.0240 H   0  0  0  0  0  0  0  0  0  0  0  0
   36.8520   26.6300   31.7680 C   0  0  0  0  0  0  0  0  0  0  0  0
   36.9800   27.2310   30.8520 H   0  0  0  0  0  0  0  0  0  0  0  0
   37.7750   26.0670   32.0130 H   0  0  0  0  0  0  0  0  0  0  0  0
   35.8800   25.6360   31.5250 O   0  0  0  0  0  0  0  0  0  0  0  0
   35.5390   23.1330   30.9160 O   0  0  0  0  0  0  0  0  0  0  0  0
   36.6170   24.1250   31.3110 P   0  0  0  0  0  0  0  0  0  0  0  0
   37.6770   24.2690   30.0150 O   0  0  0  0  0  0  0  0  0  0  0  0
   37.3710   23.7720   29.1990 H   0  0  0  0  0  0  0  0  0  0  0  0
   37.3480   23.5570   32.7090 O   0  0  0  0  0  0  0  0  0  0  0  0
   38.3160   23.7540   32.7040 H   0  0  0  0  0  0  0  0  0  0  0  0
  1  2  1  0  0  0  0
  1 10  1  0  0  0  0
  2  6  1  0  0  0  0
  3  7  1  0  0  0  0
  3  2  2  0  0  0  0
  4  5  1  0  0  0  0
  4  3  1  0  0  0  0
  5  1  2  0  0  0  0
  8 14  1  0  0  0  0
  9 15  1  0  0  0  0
  9  8  2  0  0  0  0
 10  9  1  0  0  0  0
 11 10  2  0  0  0  0
 11 12  1  0  0  0  0
 12 13  2  0  0  0  0
 13  8  1  0  0  0  0
 16 12  1  0  0  0  0
 17 19  1  0  0  0  0
 17  4  1  0  0  0  0
 18 17  1  0  0  0  0
 20 22  1  0  0  0  0
 20 17  1  0  0  0  0
 21 20  1  0  0  0  0
 23 20  1  0  0  0  0
 24 25  2  0  0  0  0
 25 23  1  0  0  0  0
 25 28  1  0  0  0  0
 26 25  1  0  0  0  0
 27 26  1  0  0  0  0
 29 28  1  0  0  0  0
M  END
>  <minimizedAffinity>
-4.50664234

$$$$
