
 OpenBabel03272508343D

 29 30  0  0  0  0  0  0  0  0999 V2000
   37.8770   31.2070   47.9730 C   0  0  0  0  0  0  0  0  0  0  0  0
   37.2120   31.1270   46.7640 C   0  0  0  0  0  0  0  0  0  0  0  0
   37.9540   31.8070   45.8190 C   0  0  0  0  0  0  0  0  0  0  0  0
   39.0520   32.2850   46.4740 N   0  0  0  0  0  0  0  0  0  0  0  0
   38.9980   31.9210   47.7600 N   0  0  0  0  0  0  0  0  0  0  0  0
   36.2630   30.6270   46.5360 H   0  0  0  0  0  0  0  0  0  0  0  0
   37.6730   31.9100   44.7800 H   0  0  0  0  0  0  0  0  0  0  0  0
   37.3610   30.1470   51.5460 C   0  0  0  0  0  0  0  0  0  0  0  0
   37.9280   30.7780   50.4470 C   0  0  0  0  0  0  0  0  0  0  0  0
   37.3550   30.5900   49.1760 C   0  0  0  0  0  0  0  0  0  0  0  0
   36.2660   29.7840   49.1150 N   0  0  0  0  0  0  0  0  0  0  0  0
   35.7380   29.1840   50.2040 C   0  0  0  0  0  0  0  0  0  0  0  0
   36.2870   29.3700   51.4020 N   0  0  0  0  0  0  0  0  0  0  0  0
   37.7980   30.2880   52.5360 H   0  0  0  0  0  0  0  0  0  0  0  0
   38.7880   31.4100   50.5140 H   0  0  0  0  0  0  0  0  0  0  0  0
   34.8630   28.5810   49.9340 H   0  0  0  0  0  0  0  0  0  0  0  0
   40.1050   33.0670   45.8390 C   0  0  0  0  0  0  0  0  0  0  0  0
   41.0230   33.0300   46.4240 H   0  0  0  0  0  0  0  0  0  0  0  0
   39.8170   34.1280   45.7210 H   0  0  0  0  0  0  0  0  0  0  0  0
   40.3120   32.5450   44.4200 C   0  0  0  0  0  0  0  0  0  0  0  0
   39.3420   32.4770   43.8990 H   0  0  0  0  0  0  0  0  0  0  0  0
   41.0240   33.1880   43.8650 H   0  0  0  0  0  0  0  0  0  0  0  0
   40.9130   31.2680   44.4280 O   0  0  0  0  0  0  0  0  0  0  0  0
   39.1890   29.6260   43.3880 O   0  0  0  0  0  0  0  0  0  0  0  0
   40.4580   30.3890   43.0540 P   0  0  0  0  0  0  0  0  0  0  0  0
   40.0830   31.5030   41.8530 O   0  0  0  0  0  0  0  0  0  0  0  0
   39.1020   31.5400   41.6440 H   0  0  0  0  0  0  0  0  0  0  0  0
   41.6190   29.2720   42.5860 O   0  0  0  0  0  0  0  0  0  0  0  0
   42.1840   29.6360   41.8620 H   0  0  0  0  0  0  0  0  0  0  0  0
  1 10  1  0  0  0  0
  2  1  1  0  0  0  0
  3  4  1  0  0  0  0
  3  2  2  0  0  0  0
  4  5  1  0  0  0  0
  5  1  2  0  0  0  0
  6  2  1  0  0  0  0
  7  3  1  0  0  0  0
  8 14  1  0  0  0  0
  9 15  1  0  0  0  0
  9  8  2  0  0  0  0
 10  9  1  0  0  0  0
 11 10  2  0  0  0  0
 11 12  1  0  0  0  0
 12 13  2  0  0  0  0
 13  8  1  0  0  0  0
 16 12  1  0  0  0  0
 17 18  1  0  0  0  0
 17  4  1  0  0  0  0
 19 17  1  0  0  0  0
 20 23  1  0  0  0  0
 20 17  1  0  0  0  0
 21 20  1  0  0  0  0
 22 20  1  0  0  0  0
 25 24  2  0  0  0  0
 25 23  1  0  0  0  0
 26 25  1  0  0  0  0
 27 26  1  0  0  0  0
 28 25  1  0  0  0  0
 29 28  1  0  0  0  0
M  END
>  <minimizedAffinity>
-5.3304143

>  <minimizedRMSD>
1.26759064

$$$$
