
 OpenBabel03272509243D

 22 22  0  0  0  0  0  0  0  0999 V2000
   38.1310   30.6740   47.6750 C   0  0  0  0  0  0  0  0  0  0  0  0
   37.5100   30.3310   46.8340 H   0  0  0  0  0  0  0  0  0  0  0  0
   39.1590   30.2240   47.6250 H   0  0  0  0  0  0  0  0  0  0  0  0
   37.3720   30.2330   51.3710 C   0  0  0  0  0  0  0  0  0  0  0  0
   38.0040   30.6460   50.1990 C   0  0  0  0  0  0  0  0  0  0  0  0
   37.5090   30.2690   48.9610 C   0  0  0  0  0  0  0  0  0  0  0  0
   36.3980   29.4920   48.9400 N   0  0  0  0  0  0  0  0  0  0  0  0
   35.7840   29.0900   50.0880 C   0  0  0  0  0  0  0  0  0  0  0  0
   36.2820   29.4670   51.2870 N   0  0  0  0  0  0  0  0  0  0  0  0
   37.7810   30.5420   52.3190 H   0  0  0  0  0  0  0  0  0  0  0  0
   38.8740   31.2560   50.2530 H   0  0  0  0  0  0  0  0  0  0  0  0
   34.9010   28.4680   49.9270 H   0  0  0  0  0  0  0  0  0  0  0  0
   38.2530   32.2060   47.6200 C   0  0  0  0  0  0  0  0  0  0  0  0
   38.3320   32.6370   48.6160 H   0  0  0  0  0  0  0  0  0  0  0  0
   37.4050   32.5820   47.0240 H   0  0  0  0  0  0  0  0  0  0  0  0
   39.4840   32.4790   46.9840 O   0  0  0  0  0  0  0  0  0  0  0  0
   40.0480   33.7590   44.8360 O   0  0  0  0  0  0  0  0  0  0  0  0
   39.2850   32.5620   45.3120 P   0  0  0  0  0  0  0  0  0  0  0  0
   37.6630   32.8190   44.9550 O   0  0  0  0  0  0  0  0  0  0  0  0
   37.2900   32.1300   44.3470 H   0  0  0  0  0  0  0  0  0  0  0  0
   39.8880   31.1540   44.6230 O   0  0  0  0  0  0  0  0  0  0  0  0
   40.6480   30.8370   45.1650 H   0  0  0  0  0  0  0  0  0  0  0  0
  1  6  1  0  0  0  0
  2  1  1  0  0  0  0
  3  1  1  0  0  0  0
  4 10  1  0  0  0  0
  5 11  1  0  0  0  0
  5  4  2  0  0  0  0
  6  5  1  0  0  0  0
  7  6  2  0  0  0  0
  7  8  1  0  0  0  0
  8  9  2  0  0  0  0
  9  4  1  0  0  0  0
 12  8  1  0  0  0  0
 13  1  1  0  0  0  0
 13 14  1  0  0  0  0
 15 13  1  0  0  0  0
 16 13  1  0  0  0  0
 17 18  2  0  0  0  0
 18 16  1  0  0  0  0
 19 18  1  0  0  0  0
 20 19  1  0  0  0  0
 21 22  1  0  0  0  0
 21 18  1  0  0  0  0
M  END
>  <minimizedAffinity>
-4.67957401

>  <minimizedRMSD>
0.988386214

$$$$
