
 OpenBabel03272510293D

 26 27  0  0  0  0  0  0  0  0999 V2000
   37.1850   31.3290   49.3020 C   0  0  0  0  0  0  0  0  0  0  0  0
   37.3880   32.6120   49.8200 C   0  0  0  0  0  0  0  0  0  0  0  0
   38.3210   33.3920   49.1360 C   0  0  0  0  0  0  0  0  0  0  0  0
   38.9610   32.8770   48.0380 N   0  0  0  0  0  0  0  0  0  0  0  0
   38.7210   31.6250   47.5820 C   0  0  0  0  0  0  0  0  0  0  0  0
   37.8110   30.8250   48.2280 N   0  0  0  0  0  0  0  0  0  0  0  0
   36.8570   32.9600   50.6830 H   0  0  0  0  0  0  0  0  0  0  0  0
   38.5360   34.3970   49.4740 H   0  0  0  0  0  0  0  0  0  0  0  0
   36.1630   30.4750   49.9920 C   0  0  0  0  0  0  0  0  0  0  0  0
   36.1240   29.0380   49.8560 C   0  0  0  0  0  0  0  0  0  0  0  0
   36.7600   29.6080   51.1100 C   0  0  0  0  0  0  0  0  0  0  0  0
   35.2550   31.0690   50.3110 H   0  0  0  0  0  0  0  0  0  0  0  0
   36.8290   28.4970   49.1930 H   0  0  0  0  0  0  0  0  0  0  0  0
   35.1600   28.5020   49.9550 H   0  0  0  0  0  0  0  0  0  0  0  0
   36.1410   29.5270   52.0250 H   0  0  0  0  0  0  0  0  0  0  0  0
   37.8550   29.5630   51.2210 H   0  0  0  0  0  0  0  0  0  0  0  0
   39.3870   31.0810   46.4040 C   0  0  0  0  0  0  0  0  0  0  0  0
   40.3200   31.6330   46.1210 H   0  0  0  0  0  0  0  0  0  0  0  0
   39.7040   30.0460   46.5720 H   0  0  0  0  0  0  0  0  0  0  0  0
   38.5250   31.2570   45.3210 O   0  0  0  0  0  0  0  0  0  0  0  0
   37.8850   32.8420   43.3780 O   0  0  0  0  0  0  0  0  0  0  0  0
   39.0460   32.4590   44.2630 P   0  0  0  0  0  0  0  0  0  0  0  0
   39.6880   33.8000   45.0680 O   0  0  0  0  0  0  0  0  0  0  0  0
   38.9130   34.2440   45.5300 H   0  0  0  0  0  0  0  0  0  0  0  0
   40.2980   31.8460   43.2890 O   0  0  0  0  0  0  0  0  0  0  0  0
   41.0940   31.7250   43.8450 H   0  0  0  0  0  0  0  0  0  0  0  0
  1  2  1  0  0  0  0
  1  9  1  0  0  0  0
  2  7  1  0  0  0  0
  3  8  1  0  0  0  0
  3  2  2  0  0  0  0
  4  3  1  0  0  0  0
  5  4  2  0  0  0  0
  5  6  1  0  0  0  0
  6  1  2  0  0  0  0
  9 12  1  0  0  0  0
  9 11  1  0  0  0  0
 10 14  1  0  0  0  0
 10  9  1  0  0  0  0
 10 11  1  0  0  0  0
 11 16  1  0  0  0  0
 11 15  1  0  0  0  0
 13 10  1  0  0  0  0
 17 19  1  0  0  0  0
 17  5  1  0  0  0  0
 18 17  1  0  0  0  0
 20 17  1  0  0  0  0
 21 22  2  0  0  0  0
 22 23  1  0  0  0  0
 22 20  1  0  0  0  0
 23 24  1  0  0  0  0
 25 26  1  0  0  0  0
 25 22  1  0  0  0  0
M  END
>  <minimizedAffinity>
-5.09252977

>  <minimizedRMSD>
1.06972015

$$$$
