
 OpenBabel03272506403D

 35 36  0  0  1  0  0  0  0  0999 V2000
   38.9210   25.1290   32.8570 O   0  0  0  0  0  0  0  0  0  0  0  0
   38.5620   25.8330   33.8210 C   0  0  0  0  0  0  0  0  0  0  0  0
   38.0180   27.1620   33.6310 C   0  0  2  0  0  0  0  0  0  0  0  0
   37.5300   27.4860   35.0810 C   0  0  0  0  0  0  0  0  0  0  0  0
   38.4920   26.6740   35.9180 C   0  0  0  0  0  0  0  0  0  0  0  0
   38.6420   25.4200   35.1830 N   0  0  0  0  0  0  0  0  0  0  0  0
   38.7100   27.9850   33.4260 H   0  0  0  0  0  0  0  0  0  0  0  0
   36.5290   27.0190   35.1740 H   0  0  0  0  0  0  0  0  0  0  0  0
   37.5580   28.5560   35.2770 H   0  0  0  0  0  0  0  0  0  0  0  0
   39.4650   27.2160   35.9040 H   0  0  0  0  0  0  0  0  0  0  0  0
   38.1610   26.5280   36.9420 H   0  0  0  0  0  0  0  0  0  0  0  0
   38.8210   24.1290   35.7800 C   0  0  0  0  0  0  0  0  0  0  0  0
   38.9110   23.3470   34.9690 H   0  0  0  0  0  0  0  0  0  0  0  0
   39.7680   24.0380   36.3450 H   0  0  0  0  0  0  0  0  0  0  0  0
   37.7750   23.8010   36.5900 O   0  0  0  0  0  0  0  0  0  0  0  0
   38.1270   24.6430   38.9870 O   0  0  0  0  0  0  0  0  0  0  0  0
   38.1480   23.3590   38.1500 P   0  0  0  0  0  0  0  0  0  0  0  0
   37.0350   22.3210   38.8640 O   0  0  0  0  0  0  0  0  0  0  0  0
   36.4300   22.7770   39.4990 H   0  0  0  0  0  0  0  0  0  0  0  0
   39.7030   22.7150   38.3190 O   0  0  0  0  0  0  0  0  0  0  0  0
   40.0680   22.9590   39.2130 H   0  0  0  0  0  0  0  0  0  0  0  0
   36.8390   27.1920   32.8190 O   0  0  0  0  0  0  0  0  0  0  0  0
   36.8120   28.1010   31.7630 C   0  0  0  0  0  0  0  0  0  0  0  0
   36.2790   29.3490   32.0340 C   0  0  0  0  0  0  0  0  0  0  0  0
   36.2360   30.2790   31.0090 C   0  0  0  0  0  0  0  0  0  0  0  0
   36.7180   29.9260   29.7820 N   0  0  0  0  0  0  0  0  0  0  0  0
   37.2310   28.7130   29.5370 C   0  0  0  0  0  0  0  0  0  0  0  0
   37.2680   27.8290   30.5230 N   0  0  0  0  0  0  0  0  0  0  0  0
   39.0990   28.0110   28.2540 C   0  0  0  0  0  0  0  0  0  0  0  0
   39.8890   27.9600   29.2470 O   0  0  0  0  0  0  0  0  0  0  0  0
   37.7250   28.3760   28.2440 N   0  0  0  0  0  0  0  0  0  0  0  0
   35.9090   29.5830   33.0250 H   0  0  0  0  0  0  0  0  0  0  0  0
   35.8180   31.2710   31.2040 H   0  0  0  0  0  0  0  0  0  0  0  0
   39.6060   27.7280   27.3330 H   0  0  0  0  0  0  0  0  0  0  0  0
   37.1510   28.3920   27.3950 H   0  0  0  0  0  0  0  0  0  0  0  0
  1  2  2  0  0  0  0
  2  6  1  0  0  0  0
  3  7  1  6  0  0  0
  3  2  1  0  0  0  0
  3  4  1  0  0  0  0
  4  8  1  0  0  0  0
  4  9  1  0  0  0  0
  4  5  1  0  0  0  0
  5 11  1  0  0  0  0
  6 12  1  0  0  0  0
  6  5  1  0  0  0  0
 10  5  1  0  0  0  0
 12 14  1  0  0  0  0
 12 15  1  0  0  0  0
 13 12  1  0  0  0  0
 15 17  1  0  0  0  0
 17 20  1  0  0  0  0
 17 18  1  0  0  0  0
 17 16  2  0  0  0  0
 18 19  1  0  0  0  0
 20 21  1  0  0  0  0
 22  3  1  0  0  0  0
 23 24  1  0  0  0  0
 23 22  1  0  0  0  0
 24 32  1  0  0  0  0
 25 33  1  0  0  0  0
 25 24  2  0  0  0  0
 26 25  1  0  0  0  0
 27 26  2  0  0  0  0
 27 28  1  0  0  0  0
 28 23  2  0  0  0  0
 29 30  2  0  0  0  0
 31 29  1  0  0  0  0
 31 27  1  0  0  0  0
 34 29  1  0  0  0  0
 35 31  1  0  0  0  0
M  END
>  <minimizedAffinity>
-5.5678153

$$$$

 OpenBabel03272506403D

 35 36  0  0  1  0  0  0  0  0999 V2000
   36.7300   25.7850   32.9350 O   0  0  0  0  0  0  0  0  0  0  0  0
   37.3750   26.2680   33.8860 C   0  0  0  0  0  0  0  0  0  0  0  0
   37.3530   27.6870   34.1770 C   0  0  2  0  0  0  0  0  0  0  0  0
   38.1010   27.7130   35.5510 C   0  0  0  0  0  0  0  0  0  0  0  0
   39.0090   26.5100   35.4290 C   0  0  0  0  0  0  0  0  0  0  0  0
   38.1840   25.4990   34.7720 N   0  0  0  0  0  0  0  0  0  0  0  0
   37.9640   28.3560   33.5640 H   0  0  0  0  0  0  0  0  0  0  0  0
   37.3340   27.4780   36.3150 H   0  0  0  0  0  0  0  0  0  0  0  0
   38.6230   28.6560   35.6970 H   0  0  0  0  0  0  0  0  0  0  0  0
   39.8350   26.8010   34.7410 H   0  0  0  0  0  0  0  0  0  0  0  0
   39.4150   26.1750   36.3790 H   0  0  0  0  0  0  0  0  0  0  0  0
   38.2460   24.0890   35.0270 C   0  0  0  0  0  0  0  0  0  0  0  0
   37.2170   23.7080   35.2950 H   0  0  0  0  0  0  0  0  0  0  0  0
   38.5280   23.4970   34.1360 H   0  0  0  0  0  0  0  0  0  0  0  0
   39.0980   23.8010   36.0520 O   0  0  0  0  0  0  0  0  0  0  0  0
   37.9770   24.5680   38.2270 O   0  0  0  0  0  0  0  0  0  0  0  0
   38.4080   23.3010   37.4800 P   0  0  0  0  0  0  0  0  0  0  0  0
   37.0150   22.3770   37.2940 O   0  0  0  0  0  0  0  0  0  0  0  0
   36.1860   22.8860   37.4650 H   0  0  0  0  0  0  0  0  0  0  0  0
   39.4830   22.4930   38.5070 O   0  0  0  0  0  0  0  0  0  0  0  0
   39.2430   22.6850   39.4550 H   0  0  0  0  0  0  0  0  0  0  0  0
   36.0440   28.1990   34.4490 O   0  0  0  0  0  0  0  0  0  0  0  0
   35.8290   29.5580   34.2240 C   0  0  0  0  0  0  0  0  0  0  0  0
   35.5800   29.9380   32.9170 C   0  0  0  0  0  0  0  0  0  0  0  0
   35.3620   31.2800   32.6560 C   0  0  0  0  0  0  0  0  0  0  0  0
   35.4020   32.1660   33.6940 N   0  0  0  0  0  0  0  0  0  0  0  0
   35.6460   31.7800   34.9540 C   0  0  0  0  0  0  0  0  0  0  0  0
   35.8540   30.4940   35.1950 N   0  0  0  0  0  0  0  0  0  0  0  0
   34.7230   32.4670   37.0280 C   0  0  0  0  0  0  0  0  0  0  0  0
   33.8770   31.5210   37.0790 O   0  0  0  0  0  0  0  0  0  0  0  0
   35.6830   32.7310   36.0140 N   0  0  0  0  0  0  0  0  0  0  0  0
   35.5570   29.1970   32.1270 H   0  0  0  0  0  0  0  0  0  0  0  0
   35.1630   31.6000   31.6290 H   0  0  0  0  0  0  0  0  0  0  0  0
   34.6410   33.1150   37.9000 H   0  0  0  0  0  0  0  0  0  0  0  0
   36.3350   33.5210   36.0460 H   0  0  0  0  0  0  0  0  0  0  0  0
  1  2  2  0  0  0  0
  2  3  1  0  0  0  0
  2  6  1  0  0  0  0
  3  7  1  6  0  0  0
  3 22  1  0  0  0  0
  3  4  1  0  0  0  0
  4  9  1  0  0  0  0
  4  8  1  0  0  0  0
  5  4  1  0  0  0  0
  5 11  1  0  0  0  0
  6 12  1  0  0  0  0
  6  5  1  0  0  0  0
 10  5  1  0  0  0  0
 12 13  1  0  0  0  0
 12 15  1  0  0  0  0
 14 12  1  0  0  0  0
 15 17  1  0  0  0  0
 17 16  2  0  0  0  0
 17 20  1  0  0  0  0
 18 19  1  0  0  0  0
 18 17  1  0  0  0  0
 20 21  1  0  0  0  0
 23 22  1  0  0  0  0
 23 28  1  0  0  0  0
 24 23  2  0  0  0  0
 25 24  1  0  0  0  0
 25 26  2  0  0  0  0
 26 27  1  0  0  0  0
 27 28  2  0  0  0  0
 27 31  1  0  0  0  0
 29 30  2  0  0  0  0
 29 34  1  0  0  0  0
 31 35  1  0  0  0  0
 31 29  1  0  0  0  0
 32 24  1  0  0  0  0
 33 25  1  0  0  0  0
M  END
>  <minimizedAffinity>
-5.51160383

$$$$

 OpenBabel03272506403D

 35 36  0  0  1  0  0  0  0  0999 V2000
   38.8260   25.1940   32.9210 O   0  0  0  0  0  0  0  0  0  0  0  0
   38.5280   25.9280   33.8820 C   0  0  0  0  0  0  0  0  0  0  0  0
   37.8560   27.1980   33.6900 C   0  0  2  0  0  0  0  0  0  0  0  0
   37.5200   27.5760   35.1710 C   0  0  0  0  0  0  0  0  0  0  0  0
   38.6390   26.8930   35.9240 C   0  0  0  0  0  0  0  0  0  0  0  0
   38.8030   25.6100   35.2440 N   0  0  0  0  0  0  0  0  0  0  0  0
   38.4480   28.0570   33.3580 H   0  0  0  0  0  0  0  0  0  0  0  0
   36.5800   27.0410   35.4120 H   0  0  0  0  0  0  0  0  0  0  0  0
   37.4830   28.6550   35.3040 H   0  0  0  0  0  0  0  0  0  0  0  0
   39.5550   27.5060   35.7600 H   0  0  0  0  0  0  0  0  0  0  0  0
   38.4460   26.7880   36.9870 H   0  0  0  0  0  0  0  0  0  0  0  0
   39.1590   24.3770   35.8830 C   0  0  0  0  0  0  0  0  0  0  0  0
   39.6030   23.6710   35.1200 H   0  0  0  0  0  0  0  0  0  0  0  0
   39.9590   24.4920   36.6380 H   0  0  0  0  0  0  0  0  0  0  0  0
   38.0760   23.7770   36.4550 O   0  0  0  0  0  0  0  0  0  0  0  0
   38.0800   24.6870   38.8530 O   0  0  0  0  0  0  0  0  0  0  0  0
   38.2070   23.3780   38.0650 P   0  0  0  0  0  0  0  0  0  0  0  0
   36.9850   22.3740   38.6340 O   0  0  0  0  0  0  0  0  0  0  0  0
   36.2990   22.8550   39.1590 H   0  0  0  0  0  0  0  0  0  0  0  0
   39.7100   22.7240   38.4810 O   0  0  0  0  0  0  0  0  0  0  0  0
   39.9420   22.9910   39.4130 H   0  0  0  0  0  0  0  0  0  0  0  0
   36.5910   27.0870   33.0310 O   0  0  0  0  0  0  0  0  0  0  0  0
   36.0920   28.2290   32.4060 C   0  0  0  0  0  0  0  0  0  0  0  0
   36.6730   28.5780   31.1990 C   0  0  0  0  0  0  0  0  0  0  0  0
   36.2030   29.7070   30.5490 C   0  0  0  0  0  0  0  0  0  0  0  0
   35.1940   30.4230   31.1240 N   0  0  0  0  0  0  0  0  0  0  0  0
   34.6430   30.0710   32.2930 C   0  0  0  0  0  0  0  0  0  0  0  0
   35.0980   28.9900   32.9090 N   0  0  0  0  0  0  0  0  0  0  0  0
   32.3990   30.0930   33.0590 C   0  0  0  0  0  0  0  0  0  0  0  0
   32.1860   28.8720   32.7820 O   0  0  0  0  0  0  0  0  0  0  0  0
   33.5910   30.8410   32.8670 N   0  0  0  0  0  0  0  0  0  0  0  0
   37.4720   27.9770   30.7820 H   0  0  0  0  0  0  0  0  0  0  0  0
   36.6500   29.9990   29.5930 H   0  0  0  0  0  0  0  0  0  0  0  0
   31.5130   30.5580   33.4910 H   0  0  0  0  0  0  0  0  0  0  0  0
   33.6840   31.8310   33.1180 H   0  0  0  0  0  0  0  0  0  0  0  0
  1  2  2  0  0  0  0
  2  6  1  0  0  0  0
  3  7  1  6  0  0  0
  3  2  1  0  0  0  0
  3  4  1  0  0  0  0
  4  9  1  0  0  0  0
  4  8  1  0  0  0  0
  4  5  1  0  0  0  0
  5 11  1  0  0  0  0
  6 12  1  0  0  0  0
  6  5  1  0  0  0  0
 10  5  1  0  0  0  0
 12 15  1  0  0  0  0
 12 14  1  0  0  0  0
 13 12  1  0  0  0  0
 15 17  1  0  0  0  0
 17 20  1  0  0  0  0
 17 18  1  0  0  0  0
 17 16  2  0  0  0  0
 18 19  1  0  0  0  0
 20 21  1  0  0  0  0
 22  3  1  0  0  0  0
 23 28  1  0  0  0  0
 23 22  1  0  0  0  0
 24 23  2  0  0  0  0
 25 26  2  0  0  0  0
 25 24  1  0  0  0  0
 26 27  1  0  0  0  0
 27 31  1  0  0  0  0
 27 28  2  0  0  0  0
 29 34  1  0  0  0  0
 30 29  2  0  0  0  0
 31 29  1  0  0  0  0
 31 35  1  0  0  0  0
 32 24  1  0  0  0  0
 33 25  1  0  0  0  0
M  END
>  <minimizedAffinity>
-5.44215679

$$$$

 OpenBabel03272506403D

 35 36  0  0  1  0  0  0  0  0999 V2000
   36.8280   25.9840   32.2150 O   0  0  0  0  0  0  0  0  0  0  0  0
   36.9170   26.7420   33.2000 C   0  0  0  0  0  0  0  0  0  0  0  0
   37.6330   26.3510   34.3980 C   0  0  2  0  0  0  0  0  0  0  0  0
   37.6390   27.7030   35.1860 C   0  0  0  0  0  0  0  0  0  0  0  0
   36.3710   28.3560   34.6850 C   0  0  0  0  0  0  0  0  0  0  0  0
   36.3430   28.0450   33.2580 N   0  0  0  0  0  0  0  0  0  0  0  0
   37.1420   25.6720   35.1010 H   0  0  0  0  0  0  0  0  0  0  0  0
   38.4950   28.2810   34.7840 H   0  0  0  0  0  0  0  0  0  0  0  0
   37.6620   27.5330   36.2600 H   0  0  0  0  0  0  0  0  0  0  0  0
   35.5240   27.8340   35.1830 H   0  0  0  0  0  0  0  0  0  0  0  0
   36.3240   29.4230   34.8870 H   0  0  0  0  0  0  0  0  0  0  0  0
   35.8370   28.9110   32.2330 C   0  0  0  0  0  0  0  0  0  0  0  0
   35.2640   28.3020   31.4730 H   0  0  0  0  0  0  0  0  0  0  0  0
   35.0940   29.6410   32.6070 H   0  0  0  0  0  0  0  0  0  0  0  0
   36.8430   29.5740   31.5940 O   0  0  0  0  0  0  0  0  0  0  0  0
   38.7120   28.7620   30.0370 O   0  0  0  0  0  0  0  0  0  0  0  0
   37.2100   29.0670   30.0530 P   0  0  0  0  0  0  0  0  0  0  0  0
   36.4440   27.6450   29.5870 O   0  0  0  0  0  0  0  0  0  0  0  0
   37.0360   26.8550   29.6220 H   0  0  0  0  0  0  0  0  0  0  0  0
   36.9600   30.2520   28.8710 O   0  0  0  0  0  0  0  0  0  0  0  0
   37.6320   30.1430   28.1440 H   0  0  0  0  0  0  0  0  0  0  0  0
   39.0110   26.0390   34.1700 O   0  0  0  0  0  0  0  0  0  0  0  0
   39.5790   25.0400   34.9580 C   0  0  0  0  0  0  0  0  0  0  0  0
   40.9380   24.8260   34.8020 C   0  0  0  0  0  0  0  0  0  0  0  0
   41.5370   23.8410   35.5690 C   0  0  0  0  0  0  0  0  0  0  0  0
   40.7670   23.1280   36.4410 N   0  0  0  0  0  0  0  0  0  0  0  0
   39.4520   23.3480   36.5790 C   0  0  0  0  0  0  0  0  0  0  0  0
   38.8870   24.2910   35.8410 N   0  0  0  0  0  0  0  0  0  0  0  0
   38.0430   23.3840   38.4850 C   0  0  0  0  0  0  0  0  0  0  0  0
   38.0990   24.6440   38.6280 O   0  0  0  0  0  0  0  0  0  0  0  0
   38.6760   22.5840   37.4960 N   0  0  0  0  0  0  0  0  0  0  0  0
   41.5080   25.4190   34.0970 H   0  0  0  0  0  0  0  0  0  0  0  0
   42.6110   23.6570   35.4600 H   0  0  0  0  0  0  0  0  0  0  0  0
   37.4160   22.9290   39.2520 H   0  0  0  0  0  0  0  0  0  0  0  0
   38.5810   21.5640   37.4480 H   0  0  0  0  0  0  0  0  0  0  0  0
  1  2  2  0  0  0  0
  2  6  1  0  0  0  0
  2  3  1  0  0  0  0
  3  7  1  1  0  0  0
  3  4  1  0  0  0  0
  4  9  1  0  0  0  0
  5 11  1  0  0  0  0
  5 10  1  0  0  0  0
  5  4  1  0  0  0  0
  6  5  1  0  0  0  0
  8  4  1  0  0  0  0
 12 14  1  0  0  0  0
 12  6  1  0  0  0  0
 13 12  1  0  0  0  0
 15 12  1  0  0  0  0
 16 17  2  0  0  0  0
 17 15  1  0  0  0  0
 18 19  1  0  0  0  0
 18 17  1  0  0  0  0
 20 17  1  0  0  0  0
 21 20  1  0  0  0  0
 22  3  1  0  0  0  0
 22 23  1  0  0  0  0
 23 28  1  0  0  0  0
 24 23  2  0  0  0  0
 24 25  1  0  0  0  0
 25 26  2  0  0  0  0
 26 27  1  0  0  0  0
 27 31  1  0  0  0  0
 28 27  2  0  0  0  0
 29 30  2  0  0  0  0
 29 34  1  0  0  0  0
 31 29  1  0  0  0  0
 32 24  1  0  0  0  0
 33 25  1  0  0  0  0
 35 31  1  0  0  0  0
M  END
>  <minimizedAffinity>
-5.23684168

$$$$

 OpenBabel03272506403D

 35 36  0  0  1  0  0  0  0  0999 V2000
   37.4330   27.8610   35.6030 O   0  0  0  0  0  0  0  0  0  0  0  0
   37.0660   27.7960   34.4140 C   0  0  0  0  0  0  0  0  0  0  0  0
   37.6130   26.8110   33.5020 C   0  0  2  0  0  0  0  0  0  0  0  0
   36.6730   27.0060   32.2670 C   0  0  0  0  0  0  0  0  0  0  0  0
   36.2910   28.4630   32.3980 C   0  0  0  0  0  0  0  0  0  0  0  0
   36.0910   28.6580   33.8320 N   0  0  0  0  0  0  0  0  0  0  0  0
   38.6040   26.9900   33.0740 H   0  0  0  0  0  0  0  0  0  0  0  0
   35.7680   26.4030   32.4800 H   0  0  0  0  0  0  0  0  0  0  0  0
   37.1840   26.7580   31.3390 H   0  0  0  0  0  0  0  0  0  0  0  0
   37.1770   29.0560   32.0760 H   0  0  0  0  0  0  0  0  0  0  0  0
   35.4230   28.7390   31.8080 H   0  0  0  0  0  0  0  0  0  0  0  0
   35.1170   29.5310   34.4200 C   0  0  0  0  0  0  0  0  0  0  0  0
   34.4670   29.9710   33.6080 H   0  0  0  0  0  0  0  0  0  0  0  0
   34.4030   29.0040   35.0800 H   0  0  0  0  0  0  0  0  0  0  0  0
   35.7070   30.5490   35.1090 O   0  0  0  0  0  0  0  0  0  0  0  0
   33.3040   31.0090   35.8800 O   0  0  0  0  0  0  0  0  0  0  0  0
   34.6900   31.6610   35.8130 P   0  0  0  0  0  0  0  0  0  0  0  0
   35.0890   32.0640   37.3960 O   0  0  0  0  0  0  0  0  0  0  0  0
   34.5150   31.6200   38.0670 H   0  0  0  0  0  0  0  0  0  0  0  0
   34.4990   33.0760   34.9060 O   0  0  0  0  0  0  0  0  0  0  0  0
   33.5770   33.4310   35.0350 H   0  0  0  0  0  0  0  0  0  0  0  0
   37.4090   25.4590   33.9240 O   0  0  0  0  0  0  0  0  0  0  0  0
   38.4490   24.8410   34.6160 C   0  0  0  0  0  0  0  0  0  0  0  0
   39.7280   25.0570   34.1340 C   0  0  0  0  0  0  0  0  0  0  0  0
   40.7870   24.4580   34.7970 C   0  0  0  0  0  0  0  0  0  0  0  0
   40.5250   23.6860   35.8900 N   0  0  0  0  0  0  0  0  0  0  0  0
   39.2790   23.4870   36.3440 C   0  0  0  0  0  0  0  0  0  0  0  0
   38.2720   24.0630   35.7040 N   0  0  0  0  0  0  0  0  0  0  0  0
   38.3910   23.3750   38.5400 C   0  0  0  0  0  0  0  0  0  0  0  0
   38.0260   24.5910   38.5630 O   0  0  0  0  0  0  0  0  0  0  0  0
   39.0390   22.6730   37.4880 N   0  0  0  0  0  0  0  0  0  0  0  0
   39.8860   25.6790   33.2620 H   0  0  0  0  0  0  0  0  0  0  0  0
   41.8060   24.6170   34.4300 H   0  0  0  0  0  0  0  0  0  0  0  0
   38.1450   22.8730   39.4750 H   0  0  0  0  0  0  0  0  0  0  0  0
   39.3040   21.6840   37.5470 H   0  0  0  0  0  0  0  0  0  0  0  0
  2  1  2  0  0  0  0
  3  7  1  6  0  0  0
  3 22  1  0  0  0  0
  3  2  1  0  0  0  0
  4  5  1  0  0  0  0
  4  8  1  0  0  0  0
  4  3  1  0  0  0  0
  5  6  1  0  0  0  0
  6  2  1  0  0  0  0
  6 12  1  0  0  0  0
  9  4  1  0  0  0  0
 10  5  1  0  0  0  0
 11  5  1  0  0  0  0
 12 14  1  0  0  0  0
 12 15  1  0  0  0  0
 13 12  1  0  0  0  0
 15 17  1  0  0  0  0
 17 16  2  0  0  0  0
 17 18  1  0  0  0  0
 18 19  1  0  0  0  0
 20 21  1  0  0  0  0
 20 17  1  0  0  0  0
 22 23  1  0  0  0  0
 23 28  1  0  0  0  0
 24 23  2  0  0  0  0
 24 25  1  0  0  0  0
 25 26  2  0  0  0  0
 26 27  1  0  0  0  0
 27 31  1  0  0  0  0
 28 27  2  0  0  0  0
 29 30  2  0  0  0  0
 29 34  1  0  0  0  0
 31 35  1  0  0  0  0
 31 29  1  0  0  0  0
 32 24  1  0  0  0  0
 33 25  1  0  0  0  0
M  END
>  <minimizedAffinity>
-5.21846628

$$$$

 OpenBabel03272506403D

 35 36  0  0  1  0  0  0  0  0999 V2000
   34.7940   24.9430   31.1540 O   0  0  0  0  0  0  0  0  0  0  0  0
   35.9490   24.4770   31.1900 C   0  0  0  0  0  0  0  0  0  0  0  0
   37.0990   25.3130   31.4730 C   0  0  2  0  0  0  0  0  0  0  0  0
   38.2160   24.2290   31.6270 C   0  0  0  0  0  0  0  0  0  0  0  0
   37.7040   23.1300   30.7240 C   0  0  0  0  0  0  0  0  0  0  0  0
   36.2630   23.1050   30.9640 N   0  0  0  0  0  0  0  0  0  0  0  0
   37.4940   25.9460   30.6720 H   0  0  0  0  0  0  0  0  0  0  0  0
   38.1400   23.8660   32.6720 H   0  0  0  0  0  0  0  0  0  0  0  0
   39.1900   24.6240   31.3460 H   0  0  0  0  0  0  0  0  0  0  0  0
   37.8880   23.4640   29.6780 H   0  0  0  0  0  0  0  0  0  0  0  0
   38.1800   22.1690   30.8970 H   0  0  0  0  0  0  0  0  0  0  0  0
   35.4440   21.9280   30.9550 C   0  0  0  0  0  0  0  0  0  0  0  0
   34.5160   22.1180   30.3400 H   0  0  0  0  0  0  0  0  0  0  0  0
   35.9250   21.0660   30.4550 H   0  0  0  0  0  0  0  0  0  0  0  0
   35.0670   21.5690   32.2150 O   0  0  0  0  0  0  0  0  0  0  0  0
   36.8470   19.7220   32.2090 O   0  0  0  0  0  0  0  0  0  0  0  0
   35.4200   20.0130   32.6860 P   0  0  0  0  0  0  0  0  0  0  0  0
   35.4300   19.7750   34.3500 O   0  0  0  0  0  0  0  0  0  0  0  0
   36.3410   19.7350   34.7310 H   0  0  0  0  0  0  0  0  0  0  0  0
   34.4350   18.8450   31.9590 O   0  0  0  0  0  0  0  0  0  0  0  0
   34.9580   18.0080   31.8230 H   0  0  0  0  0  0  0  0  0  0  0  0
   37.0330   25.9730   32.7420 O   0  0  0  0  0  0  0  0  0  0  0  0
   38.1650   25.9160   33.5520 C   0  0  0  0  0  0  0  0  0  0  0  0
   39.0790   26.9460   33.4120 C   0  0  0  0  0  0  0  0  0  0  0  0
   40.2170   26.9230   34.2010 C   0  0  0  0  0  0  0  0  0  0  0  0
   40.3870   25.8910   35.0770 N   0  0  0  0  0  0  0  0  0  0  0  0
   39.4920   24.9020   35.2000 C   0  0  0  0  0  0  0  0  0  0  0  0
   38.4070   24.9310   34.4410 N   0  0  0  0  0  0  0  0  0  0  0  0
   38.6670   23.7350   37.0920 C   0  0  0  0  0  0  0  0  0  0  0  0
   37.6320   24.4600   37.2140 O   0  0  0  0  0  0  0  0  0  0  0  0
   39.7010   23.8370   36.1230 N   0  0  0  0  0  0  0  0  0  0  0  0
   38.8990   27.7450   32.7020 H   0  0  0  0  0  0  0  0  0  0  0  0
   40.9510   27.7290   34.1050 H   0  0  0  0  0  0  0  0  0  0  0  0
   38.6990   22.9630   37.8610 H   0  0  0  0  0  0  0  0  0  0  0  0
   40.5110   23.2090   36.0910 H   0  0  0  0  0  0  0  0  0  0  0  0
  1  2  2  0  0  0  0
  2  3  1  0  0  0  0
  3  7  1  6  0  0  0
  3  4  1  0  0  0  0
  3 22  1  0  0  0  0
  4  8  1  0  0  0  0
  5 11  1  0  0  0  0
  5  6  1  0  0  0  0
  5  4  1  0  0  0  0
  6  2  1  0  0  0  0
  9  4  1  0  0  0  0
 10  5  1  0  0  0  0
 12  6  1  0  0  0  0
 12 15  1  0  0  0  0
 13 12  1  0  0  0  0
 14 12  1  0  0  0  0
 15 17  1  0  0  0  0
 16 17  2  0  0  0  0
 17 18  1  0  0  0  0
 18 19  1  0  0  0  0
 20 17  1  0  0  0  0
 21 20  1  0  0  0  0
 22 23  1  0  0  0  0
 23 28  1  0  0  0  0
 24 23  2  0  0  0  0
 24 25  1  0  0  0  0
 25 26  2  0  0  0  0
 26 27  1  0  0  0  0
 27 31  1  0  0  0  0
 28 27  2  0  0  0  0
 29 30  2  0  0  0  0
 29 34  1  0  0  0  0
 31 29  1  0  0  0  0
 32 24  1  0  0  0  0
 33 25  1  0  0  0  0
 35 31  1  0  0  0  0
M  END
>  <minimizedAffinity>
-5.11631823

$$$$

 OpenBabel03272506403D

 35 36  0  0  1  0  0  0  0  0999 V2000
   36.9330   27.5920   34.4320 O   0  0  0  0  0  0  0  0  0  0  0  0
   38.1290   27.2430   34.4360 C   0  0  0  0  0  0  0  0  0  0  0  0
   38.8320   26.9510   35.6700 C   0  0  2  0  0  0  0  0  0  0  0  0
   40.1650   26.3550   35.1090 C   0  0  0  0  0  0  0  0  0  0  0  0
   40.2840   27.0650   33.7790 C   0  0  0  0  0  0  0  0  0  0  0  0
   38.9190   27.0920   33.2600 N   0  0  0  0  0  0  0  0  0  0  0  0
   39.1860   27.7880   36.2790 H   0  0  0  0  0  0  0  0  0  0  0  0
   39.9540   25.2870   34.9010 H   0  0  0  0  0  0  0  0  0  0  0  0
   40.9950   26.5360   35.7890 H   0  0  0  0  0  0  0  0  0  0  0  0
   40.6050   28.1080   34.0010 H   0  0  0  0  0  0  0  0  0  0  0  0
   40.9880   26.5960   33.0980 H   0  0  0  0  0  0  0  0  0  0  0  0
   38.5600   26.9850   31.8760 C   0  0  0  0  0  0  0  0  0  0  0  0
   39.3950   26.4800   31.3070 H   0  0  0  0  0  0  0  0  0  0  0  0
   37.6840   26.3310   31.7030 H   0  0  0  0  0  0  0  0  0  0  0  0
   38.3300   28.2080   31.3200 O   0  0  0  0  0  0  0  0  0  0  0  0
   36.8170   29.8600   30.0700 O   0  0  0  0  0  0  0  0  0  0  0  0
   36.7770   28.5180   30.8110 P   0  0  0  0  0  0  0  0  0  0  0  0
   36.1690   27.4000   29.7130 O   0  0  0  0  0  0  0  0  0  0  0  0
   36.1770   27.7270   28.7810 H   0  0  0  0  0  0  0  0  0  0  0  0
   35.6740   28.7160   32.0790 O   0  0  0  0  0  0  0  0  0  0  0  0
   34.9770   29.3760   31.8120 H   0  0  0  0  0  0  0  0  0  0  0  0
   38.2390   25.8980   36.4360 O   0  0  0  0  0  0  0  0  0  0  0  0
   38.4840   24.5900   36.0230 C   0  0  0  0  0  0  0  0  0  0  0  0
   37.8780   24.1880   34.8460 C   0  0  0  0  0  0  0  0  0  0  0  0
   38.1000   22.8940   34.4040 C   0  0  0  0  0  0  0  0  0  0  0  0
   38.9020   22.0760   35.1450 N   0  0  0  0  0  0  0  0  0  0  0  0
   39.4810   22.4810   36.2830 C   0  0  0  0  0  0  0  0  0  0  0  0
   39.2630   23.7200   36.6990 N   0  0  0  0  0  0  0  0  0  0  0  0
   41.6370   22.0910   37.1920 C   0  0  0  0  0  0  0  0  0  0  0  0
   42.1290   23.1750   36.7510 O   0  0  0  0  0  0  0  0  0  0  0  0
   40.3120   21.6010   37.0350 N   0  0  0  0  0  0  0  0  0  0  0  0
   37.2500   24.8740   34.2910 H   0  0  0  0  0  0  0  0  0  0  0  0
   37.6290   22.5580   33.4750 H   0  0  0  0  0  0  0  0  0  0  0  0
   42.3790   21.5190   37.7470 H   0  0  0  0  0  0  0  0  0  0  0  0
   39.9890   20.7090   37.4240 H   0  0  0  0  0  0  0  0  0  0  0  0
  1  2  2  0  0  0  0
  2  3  1  0  0  0  0
  3  7  1  1  0  0  0
  3 22  1  0  0  0  0
  4  3  1  0  0  0  0
  4  9  1  0  0  0  0
  5 10  1  0  0  0  0
  5  4  1  0  0  0  0
  6  5  1  0  0  0  0
  6  2  1  0  0  0  0
  8  4  1  0  0  0  0
 11  5  1  0  0  0  0
 12  6  1  0  0  0  0
 13 12  1  0  0  0  0
 14 12  1  0  0  0  0
 15 12  1  0  0  0  0
 16 17  2  0  0  0  0
 17 15  1  0  0  0  0
 17 20  1  0  0  0  0
 18 17  1  0  0  0  0
 19 18  1  0  0  0  0
 21 20  1  0  0  0  0
 23 22  1  0  0  0  0
 23 28  1  0  0  0  0
 24 23  2  0  0  0  0
 25 24  1  0  0  0  0
 25 26  2  0  0  0  0
 26 27  1  0  0  0  0
 27 28  2  0  0  0  0
 27 31  1  0  0  0  0
 29 34  1  0  0  0  0
 30 29  2  0  0  0  0
 31 29  1  0  0  0  0
 31 35  1  0  0  0  0
 32 24  1  0  0  0  0
 33 25  1  0  0  0  0
M  END
>  <minimizedAffinity>
-5.09818077

$$$$

 OpenBabel03272506403D

 35 36  0  0  1  0  0  0  0  0999 V2000
   36.5590   27.4940   33.6640 O   0  0  0  0  0  0  0  0  0  0  0  0
   37.7350   27.1870   33.9410 C   0  0  0  0  0  0  0  0  0  0  0  0
   38.1310   26.8330   35.2900 C   0  0  2  0  0  0  0  0  0  0  0  0
   39.5890   26.3250   35.0390 C   0  0  0  0  0  0  0  0  0  0  0  0
   39.9920   27.1300   33.8250 C   0  0  0  0  0  0  0  0  0  0  0  0
   38.7940   27.1470   32.9880 N   0  0  0  0  0  0  0  0  0  0  0  0
   38.2840   27.6360   36.0160 H   0  0  0  0  0  0  0  0  0  0  0  0
   39.4890   25.2670   34.7220 H   0  0  0  0  0  0  0  0  0  0  0  0
   40.2180   26.4850   35.9130 H   0  0  0  0  0  0  0  0  0  0  0  0
   40.1950   28.1650   34.1810 H   0  0  0  0  0  0  0  0  0  0  0  0
   40.8630   26.7350   33.3110 H   0  0  0  0  0  0  0  0  0  0  0  0
   38.7880   27.1250   31.5540 C   0  0  0  0  0  0  0  0  0  0  0  0
   39.8240   26.8820   31.1760 H   0  0  0  0  0  0  0  0  0  0  0  0
   38.1540   26.3220   31.1340 H   0  0  0  0  0  0  0  0  0  0  0  0
   38.4030   28.3260   31.0360 O   0  0  0  0  0  0  0  0  0  0  0  0
   36.2800   29.5720   30.3160 O   0  0  0  0  0  0  0  0  0  0  0  0
   37.0950   28.3110   30.0070 P   0  0  0  0  0  0  0  0  0  0  0  0
   37.4920   28.4030   28.3770 O   0  0  0  0  0  0  0  0  0  0  0  0
   37.3530   29.3020   27.9930 H   0  0  0  0  0  0  0  0  0  0  0  0
   36.0510   27.0040   30.2580 O   0  0  0  0  0  0  0  0  0  0  0  0
   35.1160   27.2840   30.0590 H   0  0  0  0  0  0  0  0  0  0  0  0
   37.4230   25.7080   35.8220 O   0  0  0  0  0  0  0  0  0  0  0  0
   38.0960   24.4880   35.8580 C   0  0  0  0  0  0  0  0  0  0  0  0
   38.6000   24.0950   37.0850 C   0  0  0  0  0  0  0  0  0  0  0  0
   39.2740   22.8880   37.1600 C   0  0  0  0  0  0  0  0  0  0  0  0
   39.4120   22.1420   36.0250 N   0  0  0  0  0  0  0  0  0  0  0  0
   38.9180   22.5380   34.8440 C   0  0  0  0  0  0  0  0  0  0  0  0
   38.2740   23.6940   34.7820 N   0  0  0  0  0  0  0  0  0  0  0  0
   37.8430   21.3490   33.0960 C   0  0  0  0  0  0  0  0  0  0  0  0
   36.6700   21.6270   33.4920 O   0  0  0  0  0  0  0  0  0  0  0  0
   39.0800   21.7370   33.6780 N   0  0  0  0  0  0  0  0  0  0  0  0
   38.4640   24.7210   37.9590 H   0  0  0  0  0  0  0  0  0  0  0  0
   39.6800   22.5600   38.1220 H   0  0  0  0  0  0  0  0  0  0  0  0
   37.8190   20.7340   32.1980 H   0  0  0  0  0  0  0  0  0  0  0  0
   39.9930   21.4690   33.2960 H   0  0  0  0  0  0  0  0  0  0  0  0
  1  2  2  0  0  0  0
  2  3  1  0  0  0  0
  3 22  1  0  0  0  0
  3  7  1  1  0  0  0
  4  3  1  0  0  0  0
  4  9  1  0  0  0  0
  5 10  1  0  0  0  0
  5  4  1  0  0  0  0
  6  5  1  0  0  0  0
  6  2  1  0  0  0  0
  8  4  1  0  0  0  0
 11  5  1  0  0  0  0
 12  6  1  0  0  0  0
 13 12  1  0  0  0  0
 14 12  1  0  0  0  0
 15 12  1  0  0  0  0
 17 20  1  0  0  0  0
 17 16  2  0  0  0  0
 17 15  1  0  0  0  0
 18 17  1  0  0  0  0
 19 18  1  0  0  0  0
 21 20  1  0  0  0  0
 22 23  1  0  0  0  0
 23 24  1  0  0  0  0
 24 25  2  0  0  0  0
 24 32  1  0  0  0  0
 25 33  1  0  0  0  0
 26 25  1  0  0  0  0
 27 26  2  0  0  0  0
 28 27  1  0  0  0  0
 28 23  2  0  0  0  0
 29 30  2  0  0  0  0
 29 31  1  0  0  0  0
 31 27  1  0  0  0  0
 34 29  1  0  0  0  0
 35 31  1  0  0  0  0
M  END
>  <minimizedAffinity>
-5.05502892

$$$$

 OpenBabel03272506403D

 35 36  0  0  1  0  0  0  0  0999 V2000
   36.3630   27.9300   34.8620 O   0  0  0  0  0  0  0  0  0  0  0  0
   36.2930   28.2520   33.6600 C   0  0  0  0  0  0  0  0  0  0  0  0
   35.4340   29.3290   33.2090 C   0  0  2  0  0  0  0  0  0  0  0  0
   35.8930   29.4610   31.7200 C   0  0  0  0  0  0  0  0  0  0  0  0
   36.3400   28.0510   31.4090 C   0  0  0  0  0  0  0  0  0  0  0  0
   37.0310   27.6150   32.6200 N   0  0  0  0  0  0  0  0  0  0  0  0
   34.3620   29.1350   33.1080 H   0  0  0  0  0  0  0  0  0  0  0  0
   36.7980   30.1020   31.7390 H   0  0  0  0  0  0  0  0  0  0  0  0
   35.0850   29.8250   31.0890 H   0  0  0  0  0  0  0  0  0  0  0  0
   35.4160   27.4430   31.2840 H   0  0  0  0  0  0  0  0  0  0  0  0
   36.9580   27.9780   30.5190 H   0  0  0  0  0  0  0  0  0  0  0  0
   38.1740   26.7490   32.6530 C   0  0  0  0  0  0  0  0  0  0  0  0
   37.9190   25.8100   33.2260 H   0  0  0  0  0  0  0  0  0  0  0  0
   38.4710   26.3810   31.6530 H   0  0  0  0  0  0  0  0  0  0  0  0
   39.2410   27.3500   33.2520 O   0  0  0  0  0  0  0  0  0  0  0  0
   39.1750   25.3120   34.8070 O   0  0  0  0  0  0  0  0  0  0  0  0
   39.7050   26.7480   34.7320 P   0  0  0  0  0  0  0  0  0  0  0  0
   41.3690   26.6410   34.9480 O   0  0  0  0  0  0  0  0  0  0  0  0
   41.7150   25.7210   34.8460 H   0  0  0  0  0  0  0  0  0  0  0  0
   39.0210   27.5700   36.0430 O   0  0  0  0  0  0  0  0  0  0  0  0
   38.8700   26.9310   36.7920 H   0  0  0  0  0  0  0  0  0  0  0  0
   35.7320   30.5930   33.8120 O   0  0  0  0  0  0  0  0  0  0  0  0
   34.9810   30.9630   34.9260 C   0  0  0  0  0  0  0  0  0  0  0  0
   35.6090   31.7760   35.8530 C   0  0  0  0  0  0  0  0  0  0  0  0
   34.8940   32.1640   36.9740 C   0  0  0  0  0  0  0  0  0  0  0  0
   33.6080   31.7300   37.1150 N   0  0  0  0  0  0  0  0  0  0  0  0
   33.0150   30.9420   36.2070 C   0  0  0  0  0  0  0  0  0  0  0  0
   33.7060   30.5750   35.1380 N   0  0  0  0  0  0  0  0  0  0  0  0
   30.8120   30.9140   35.3290 C   0  0  0  0  0  0  0  0  0  0  0  0
   31.1050   31.5970   34.3000 O   0  0  0  0  0  0  0  0  0  0  0  0
   31.6710   30.5050   36.3850 N   0  0  0  0  0  0  0  0  0  0  0  0
   36.6320   32.0950   35.6970 H   0  0  0  0  0  0  0  0  0  0  0  0
   35.3730   32.8070   37.7190 H   0  0  0  0  0  0  0  0  0  0  0  0
   29.7560   30.6480   35.3360 H   0  0  0  0  0  0  0  0  0  0  0  0
   31.3560   29.9510   37.1880 H   0  0  0  0  0  0  0  0  0  0  0  0
  2  1  2  0  0  0  0
  3  7  1  1  0  0  0
  3  2  1  0  0  0  0
  3 22  1  0  0  0  0
  4  8  1  0  0  0  0
  4  3  1  0  0  0  0
  5  4  1  0  0  0  0
  5  6  1  0  0  0  0
  6 12  1  0  0  0  0
  6  2  1  0  0  0  0
  9  4  1  0  0  0  0
 10  5  1  0  0  0  0
 11  5  1  0  0  0  0
 12 13  1  0  0  0  0
 12 15  1  0  0  0  0
 14 12  1  0  0  0  0
 15 17  1  0  0  0  0
 17 16  2  0  0  0  0
 17 18  1  0  0  0  0
 17 20  1  0  0  0  0
 19 18  1  0  0  0  0
 20 21  1  0  0  0  0
 22 23  1  0  0  0  0
 23 28  2  0  0  0  0
 23 24  1  0  0  0  0
 24 25  2  0  0  0  0
 25 26  1  0  0  0  0
 25 33  1  0  0  0  0
 27 31  1  0  0  0  0
 27 26  2  0  0  0  0
 28 27  1  0  0  0  0
 29 34  1  0  0  0  0
 29 31  1  0  0  0  0
 30 29  2  0  0  0  0
 31 35  1  0  0  0  0
 32 24  1  0  0  0  0
M  END
>  <minimizedAffinity>
-5.018857

$$$$
