
 OpenBabel03272510293D

 26 27  0  0  0  0  0  0  0  0999 V2000
   37.3250   31.4010   49.3380 C   0  0  0  0  0  0  0  0  0  0  0  0
   37.6160   32.6580   49.8770 C   0  0  0  0  0  0  0  0  0  0  0  0
   38.5150   33.4310   49.1410 C   0  0  0  0  0  0  0  0  0  0  0  0
   39.0410   32.9340   47.9760 N   0  0  0  0  0  0  0  0  0  0  0  0
   38.7200   31.7070   47.5020 C   0  0  0  0  0  0  0  0  0  0  0  0
   37.8400   30.9150   48.1980 N   0  0  0  0  0  0  0  0  0  0  0  0
   37.1730   32.9930   50.7940 H   0  0  0  0  0  0  0  0  0  0  0  0
   38.7930   34.4160   49.4910 H   0  0  0  0  0  0  0  0  0  0  0  0
   36.3360   30.5580   50.0850 C   0  0  0  0  0  0  0  0  0  0  0  0
   36.2750   29.1210   49.9520 C   0  0  0  0  0  0  0  0  0  0  0  0
   36.9870   29.6840   51.1670 C   0  0  0  0  0  0  0  0  0  0  0  0
   35.4540   31.1600   50.4550 H   0  0  0  0  0  0  0  0  0  0  0  0
   36.9340   28.5730   49.2490 H   0  0  0  0  0  0  0  0  0  0  0  0
   35.3120   28.5940   50.1050 H   0  0  0  0  0  0  0  0  0  0  0  0
   36.4200   29.6080   52.1160 H   0  0  0  0  0  0  0  0  0  0  0  0
   38.0860   29.6280   51.2150 H   0  0  0  0  0  0  0  0  0  0  0  0
   39.2640   31.1830   46.2550 C   0  0  0  0  0  0  0  0  0  0  0  0
   40.3840   31.1800   46.2200 H   0  0  0  0  0  0  0  0  0  0  0  0
   38.9680   30.1400   46.1020 H   0  0  0  0  0  0  0  0  0  0  0  0
   38.8770   32.0530   45.2350 O   0  0  0  0  0  0  0  0  0  0  0  0
   37.8740   30.6080   43.3350 O   0  0  0  0  0  0  0  0  0  0  0  0
   37.4760   31.5480   44.4460 P   0  0  0  0  0  0  0  0  0  0  0  0
   36.3590   30.8380   45.4970 O   0  0  0  0  0  0  0  0  0  0  0  0
   36.7670   29.9650   45.7870 H   0  0  0  0  0  0  0  0  0  0  0  0
   36.6970   32.8990   43.7680 O   0  0  0  0  0  0  0  0  0  0  0  0
   36.3220   33.4390   44.4930 H   0  0  0  0  0  0  0  0  0  0  0  0
  1  2  1  0  0  0  0
  1  9  1  0  0  0  0
  2  7  1  0  0  0  0
  3  8  1  0  0  0  0
  3  2  2  0  0  0  0
  4  3  1  0  0  0  0
  5  4  2  0  0  0  0
  5  6  1  0  0  0  0
  6  1  2  0  0  0  0
  9 12  1  0  0  0  0
  9 11  1  0  0  0  0
 10  9  1  0  0  0  0
 10 14  1  0  0  0  0
 10 11  1  0  0  0  0
 11 16  1  0  0  0  0
 11 15  1  0  0  0  0
 13 10  1  0  0  0  0
 17  5  1  0  0  0  0
 18 17  1  0  0  0  0
 19 17  1  0  0  0  0
 20 17  1  0  0  0  0
 21 22  2  0  0  0  0
 22 20  1  0  0  0  0
 22 23  1  0  0  0  0
 23 24  1  0  0  0  0
 25 22  1  0  0  0  0
 25 26  1  0  0  0  0
M  END
>  <minimizedAffinity>
-5.0990057

>  <minimizedRMSD>
1.08994246

$$$$
