
 OpenBabel03272500583D

 33 34  0  0  0  0  0  0  0  0999 V2000
   38.3150   32.0310   47.4240 C   0  0  0  0  0  0  0  0  0  0  0  0
   38.8920   32.9820   48.2330 C   0  0  0  0  0  0  0  0  0  0  0  0
   38.4820   33.1390   49.5660 C   0  0  0  0  0  0  0  0  0  0  0  0
   37.4360   32.2690   50.0660 C   0  0  0  0  0  0  0  0  0  0  0  0
   36.9200   31.3590   49.2100 C   0  0  0  0  0  0  0  0  0  0  0  0
   37.3080   31.2060   47.9300 C   0  0  0  0  0  0  0  0  0  0  0  0
   39.6790   33.6500   47.8870 H   0  0  0  0  0  0  0  0  0  0  0  0
   38.9670   33.9030   50.1590 H   0  0  0  0  0  0  0  0  0  0  0  0
   37.2300   32.5060   51.0990 H   0  0  0  0  0  0  0  0  0  0  0  0
   36.1940   30.8120   49.7900 H   0  0  0  0  0  0  0  0  0  0  0  0
   40.0670   31.2770   45.8960 C   0  0  0  0  0  0  0  0  0  0  0  0
   38.8450   31.9680   46.0850 C   0  0  0  0  0  0  0  0  0  0  0  0
   38.3110   32.4980   44.9360 C   0  0  0  0  0  0  0  0  0  0  0  0
   38.9210   32.3540   43.7510 N   0  0  0  0  0  0  0  0  0  0  0  0
   40.0540   31.7100   43.5920 C   0  0  0  0  0  0  0  0  0  0  0  0
   40.6180   31.1760   44.6650 N   0  0  0  0  0  0  0  0  0  0  0  0
   40.5900   30.8100   46.7380 H   0  0  0  0  0  0  0  0  0  0  0  0
   37.3710   33.0310   45.0830 H   0  0  0  0  0  0  0  0  0  0  0  0
   40.4770   31.6420   42.5970 H   0  0  0  0  0  0  0  0  0  0  0  0
   35.3030   30.1010   47.3830 C   0  0  0  0  0  0  0  0  0  0  0  0
   34.7820   30.7640   48.3640 O   0  0  0  0  0  0  0  0  0  0  0  0
   36.7180   30.2800   47.1040 N   0  0  0  0  0  0  0  0  0  0  0  0
   37.2080   29.7480   46.3530 H   0  0  0  0  0  0  0  0  0  0  0  0
   34.5170   29.2550   46.6440 O   0  0  0  0  0  0  0  0  0  0  0  0
   33.1910   28.9510   46.9510 C   0  0  0  0  0  0  0  0  0  0  0  0
   32.1830   29.4840   46.2990 O   0  0  0  0  0  0  0  0  0  0  0  0
   32.6970   28.0800   47.9110 O   0  0  0  0  0  0  0  0  0  0  0  0
   30.7960   26.4730   48.7950 O   0  0  0  0  0  0  0  0  0  0  0  0
   31.0630   27.5640   47.7690 P   0  0  0  0  0  0  0  0  0  0  0  0
   30.0190   28.8470   48.2010 O   0  0  0  0  0  0  0  0  0  0  0  0
   29.1180   28.4830   48.3600 H   0  0  0  0  0  0  0  0  0  0  0  0
   30.6900   26.9540   46.2590 O   0  0  0  0  0  0  0  0  0  0  0  0
   30.6590   27.6130   45.5370 H   0  0  0  0  0  0  0  0  0  0  0  0
  1  6  2  0  0  0  0
  1  2  1  0  0  0  0
  2  3  2  0  0  0  0
  3  4  1  0  0  0  0
  3  8  1  0  0  0  0
  4  9  1  0  0  0  0
  5 10  1  0  0  0  0
  5  4  2  0  0  0  0
  6  5  1  0  0  0  0
  7  2  1  0  0  0  0
 11 12  1  0  0  0  0
 11 17  1  0  0  0  0
 12  1  1  0  0  0  0
 13 18  1  0  0  0  0
 13 12  2  0  0  0  0
 14 13  1  0  0  0  0
 15 14  2  0  0  0  0
 15 16  1  0  0  0  0
 16 11  2  0  0  0  0
 19 15  1  0  0  0  0
 20 21  2  0  0  0  0
 22 20  1  0  0  0  0
 22  6  1  0  0  0  0
 23 22  1  0  0  0  0
 24 25  1  0  0  0  0
 24 20  1  0  0  0  0
 25 27  1  0  0  0  0
 26 25  2  0  0  0  0
 29 27  1  0  0  0  0
 29 30  1  0  0  0  0
 29 28  2  0  0  0  0
 30 31  1  0  0  0  0
 32 29  1  0  0  0  0
 33 32  1  0  0  0  0
M  END
>  <minimizedAffinity>
-5.58386946

>  <minimizedRMSD>
2.33398867

$$$$
