
 OpenBabel03272507323D

 34 36  0  0  1  0  0  0  0  0999 V2000
   35.7620   29.0970   49.7330 C   0  0  0  0  0  0  0  0  0  0  0  0
   34.7180   29.5830   50.4850 C   0  0  0  0  0  0  0  0  0  0  0  0
   33.5360   29.0390   49.9630 C   0  0  0  0  0  0  0  0  0  0  0  0
   33.9460   28.2460   48.9140 C   0  0  0  0  0  0  0  0  0  0  0  0
   35.2550   28.3090   48.8140 O   0  0  0  0  0  0  0  0  0  0  0  0
   34.7340   30.2520   51.3220 H   0  0  0  0  0  0  0  0  0  0  0  0
   32.5220   29.1990   50.3000 H   0  0  0  0  0  0  0  0  0  0  0  0
   37.1450   29.4590   50.0020 C   0  0  0  0  0  0  0  0  0  0  0  0
   37.7660   28.8630   50.8920 O   0  0  0  0  0  0  0  0  0  0  0  0
   37.7120   30.5050   49.1990 C   0  0  0  0  0  0  0  0  0  0  0  0
   38.0490   31.6830   49.8470 C   0  0  0  0  0  0  0  0  0  0  0  0
   38.6010   32.7210   49.0900 C   0  0  0  0  0  0  0  0  0  0  0  0
   38.7800   32.5180   47.7410 N   0  0  0  0  0  0  0  0  0  0  0  0
   38.4420   31.3660   47.1490 C   0  0  0  0  0  0  0  0  0  0  0  0
   37.9120   30.3640   47.8660 N   0  0  0  0  0  0  0  0  0  0  0  0
   37.9120   31.8500   50.9090 H   0  0  0  0  0  0  0  0  0  0  0  0
   38.8770   33.6510   49.5570 H   0  0  0  0  0  0  0  0  0  0  0  0
   38.5790   31.2000   46.0860 H   0  0  0  0  0  0  0  0  0  0  0  0
   33.0680   27.4570   48.0500 C   0  0  0  0  0  0  0  0  0  0  0  0
   33.3320   26.2200   47.8820 O   0  0  0  0  0  0  0  0  0  0  0  0
   31.8890   28.0940   47.3710 C   0  0  1  0  0  0  0  0  0  0  0  0
   30.9180   26.9710   46.8280 C   0  0  0  0  0  0  0  0  0  0  0  0
   30.5380   27.9120   47.8990 C   0  0  1  0  0  0  0  0  0  0  0  0
   32.1310   28.7830   46.5170 H   0  0  0  0  0  0  0  0  0  0  0  0
   30.5000   27.1690   45.8260 H   0  0  0  0  0  0  0  0  0  0  0  0
   31.1970   25.9400   46.9950 H   0  0  0  0  0  0  0  0  0  0  0  0
   29.7670   28.6720   47.6590 H   0  0  0  0  0  0  0  0  0  0  0  0
   30.4720   27.5150   49.2300 O   0  0  0  0  0  0  0  0  0  0  0  0
   27.8260   27.2890   49.2610 O   0  0  0  0  0  0  0  0  0  0  0  0
   29.0090   27.8580   49.9780 P   0  0  0  0  0  0  0  0  0  0  0  0
   29.0560   27.0670   51.4960 O   0  0  0  0  0  0  0  0  0  0  0  0
   28.7760   26.1200   51.3990 H   0  0  0  0  0  0  0  0  0  0  0  0
   28.7960   29.5130   50.2520 O   0  0  0  0  0  0  0  0  0  0  0  0
   28.1040   29.8240   49.6160 H   0  0  0  0  0  0  0  0  0  0  0  0
  1  8  1  0  0  0  0
  1  2  2  0  0  0  0
  2  6  1  0  0  0  0
  3  7  1  0  0  0  0
  3  2  1  0  0  0  0
  4  3  2  0  0  0  0
  5  4  1  0  0  0  0
  5  1  1  0  0  0  0
  8  9  2  0  0  0  0
 10 11  1  0  0  0  0
 10  8  1  0  0  0  0
 11 16  1  0  0  0  0
 12 17  1  0  0  0  0
 12 11  2  0  0  0  0
 13 12  1  0  0  0  0
 14 13  2  0  0  0  0
 14 15  1  0  0  0  0
 15 10  2  0  0  0  0
 18 14  1  0  0  0  0
 19  4  1  0  0  0  0
 20 19  2  0  0  0  0
 21 24  1  6  0  0  0
 21 23  1  0  0  0  0
 21 19  1  0  0  0  0
 22 26  1  0  0  0  0
 22 21  1  0  0  0  0
 22 23  1  0  0  0  0
 23 27  1  6  0  0  0
 23 28  1  0  0  0  0
 25 22  1  0  0  0  0
 28 30  1  0  0  0  0
 29 30  2  0  0  0  0
 30 33  1  0  0  0  0
 30 31  1  0  0  0  0
 32 31  1  0  0  0  0
 34 33  1  0  0  0  0
M  END
>  <minimizedAffinity>
-6.02246237

>  <minimizedRMSD>
2.8273499

$$$$
