
 OpenBabel03272504163D

 22 22  0  0  0  0  0  0  0  0999 V2000
   38.2140   24.5430   34.2040 C   0  0  0  0  0  0  0  0  0  0  0  0
   38.3840   25.0520   35.5010 C   0  0  0  0  0  0  0  0  0  0  0  0
   37.8800   26.3140   35.7580 C   0  0  0  0  0  0  0  0  0  0  0  0
   37.2500   27.0060   34.7720 N   0  0  0  0  0  0  0  0  0  0  0  0
   37.1030   26.4820   33.5250 C   0  0  0  0  0  0  0  0  0  0  0  0
   37.5910   25.2460   33.2520 N   0  0  0  0  0  0  0  0  0  0  0  0
   38.0330   26.6610   36.7620 H   0  0  0  0  0  0  0  0  0  0  0  0
   36.5940   27.0660   32.7630 H   0  0  0  0  0  0  0  0  0  0  0  0
   38.6560   23.2930   33.7670 O   0  0  0  0  0  0  0  0  0  0  0  0
   36.8890   21.4690   34.6310 O   0  0  0  0  0  0  0  0  0  0  0  0
   37.5690   22.0200   33.4000 P   0  0  0  0  0  0  0  0  0  0  0  0
   36.4370   22.6580   32.3050 O   0  0  0  0  0  0  0  0  0  0  0  0
   35.5150   22.3320   32.5430 H   0  0  0  0  0  0  0  0  0  0  0  0
   38.4240   20.7410   32.6870 O   0  0  0  0  0  0  0  0  0  0  0  0
   38.9800   21.1490   31.9650 H   0  0  0  0  0  0  0  0  0  0  0  0
   39.0400   24.2050   36.3400 O   0  0  0  0  0  0  0  0  0  0  0  0
   37.9760   24.5300   38.7390 O   0  0  0  0  0  0  0  0  0  0  0  0
   38.4150   23.4930   37.7570 P   0  0  0  0  0  0  0  0  0  0  0  0
   39.6350   22.4880   38.3690 O   0  0  0  0  0  0  0  0  0  0  0  0
   39.2650   21.5820   38.4880 H   0  0  0  0  0  0  0  0  0  0  0  0
   37.0940   22.5320   37.2600 O   0  0  0  0  0  0  0  0  0  0  0  0
   36.4020   23.1330   36.8840 H   0  0  0  0  0  0  0  0  0  0  0  0
  1  2  1  0  0  0  0
  2  3  2  0  0  0  0
  2 16  1  0  0  0  0
  3  7  1  0  0  0  0
  4  3  1  0  0  0  0
  5  4  2  0  0  0  0
  6  5  1  0  0  0  0
  6  1  2  0  0  0  0
  8  5  1  0  0  0  0
  9  1  1  0  0  0  0
 11  9  1  0  0  0  0
 11 10  2  0  0  0  0
 12 13  1  0  0  0  0
 12 11  1  0  0  0  0
 14 11  1  0  0  0  0
 15 14  1  0  0  0  0
 16 18  1  0  0  0  0
 18 19  1  0  0  0  0
 18 17  2  0  0  0  0
 19 20  1  0  0  0  0
 21 18  1  0  0  0  0
 22 21  1  0  0  0  0
M  END
>  <minimizedAffinity>
-4.30534887

$$$$

 OpenBabel03272504163D

 22 22  0  0  0  0  0  0  0  0999 V2000
   37.8920   25.1460   34.5500 C   0  0  0  0  0  0  0  0  0  0  0  0
   38.5000   25.4830   35.7710 C   0  0  0  0  0  0  0  0  0  0  0  0
   38.4200   26.8030   36.1750 C   0  0  0  0  0  0  0  0  0  0  0  0
   37.7730   27.7120   35.3990 N   0  0  0  0  0  0  0  0  0  0  0  0
   37.1950   27.3510   34.2210 C   0  0  0  0  0  0  0  0  0  0  0  0
   37.2620   26.0610   33.8060 N   0  0  0  0  0  0  0  0  0  0  0  0
   38.8980   27.0130   37.1130 H   0  0  0  0  0  0  0  0  0  0  0  0
   36.6870   28.1060   33.6280 H   0  0  0  0  0  0  0  0  0  0  0  0
   37.8730   23.8690   33.9880 O   0  0  0  0  0  0  0  0  0  0  0  0
   38.0920   22.2140   31.8880 O   0  0  0  0  0  0  0  0  0  0  0  0
   37.7210   23.6190   32.2990 P   0  0  0  0  0  0  0  0  0  0  0  0
   36.1050   23.9680   31.9080 O   0  0  0  0  0  0  0  0  0  0  0  0
   35.7610   23.2870   31.2520 H   0  0  0  0  0  0  0  0  0  0  0  0
   38.7680   24.6720   31.4800 O   0  0  0  0  0  0  0  0  0  0  0  0
   38.6090   25.5780   31.8700 H   0  0  0  0  0  0  0  0  0  0  0  0
   39.0950   24.4310   36.3940 O   0  0  0  0  0  0  0  0  0  0  0  0
   37.7060   24.2620   38.6390 O   0  0  0  0  0  0  0  0  0  0  0  0
   38.4070   23.4450   37.6030 P   0  0  0  0  0  0  0  0  0  0  0  0
   39.6720   22.5180   38.2470 O   0  0  0  0  0  0  0  0  0  0  0  0
   39.4230   21.5660   38.1920 H   0  0  0  0  0  0  0  0  0  0  0  0
   37.3080   22.4110   36.8010 O   0  0  0  0  0  0  0  0  0  0  0  0
   36.5900   22.9720   36.4110 H   0  0  0  0  0  0  0  0  0  0  0  0
  1  2  1  0  0  0  0
  2  3  2  0  0  0  0
  2 16  1  0  0  0  0
  3  7  1  0  0  0  0
  4  3  1  0  0  0  0
  5  4  2  0  0  0  0
  6  5  1  0  0  0  0
  6  1  2  0  0  0  0
  8  5  1  0  0  0  0
  9  1  1  0  0  0  0
 10 11  2  0  0  0  0
 11  9  1  0  0  0  0
 12 11  1  0  0  0  0
 13 12  1  0  0  0  0
 14 15  1  0  0  0  0
 14 11  1  0  0  0  0
 16 18  1  0  0  0  0
 18 19  1  0  0  0  0
 18 17  2  0  0  0  0
 20 19  1  0  0  0  0
 21 18  1  0  0  0  0
 22 21  1  0  0  0  0
M  END
>  <minimizedAffinity>
-4.27815056

$$$$

 OpenBabel03272504163D

 22 22  0  0  0  0  0  0  0  0999 V2000
   39.5060   24.0930   35.7240 C   0  0  0  0  0  0  0  0  0  0  0  0
   38.2360   24.5750   36.0820 C   0  0  0  0  0  0  0  0  0  0  0  0
   37.7340   24.1870   37.3100 C   0  0  0  0  0  0  0  0  0  0  0  0
   38.4650   23.3710   38.1150 N   0  0  0  0  0  0  0  0  0  0  0  0
   39.6930   22.9220   37.7360 C   0  0  0  0  0  0  0  0  0  0  0  0
   40.2040   23.2900   36.5350 N   0  0  0  0  0  0  0  0  0  0  0  0
   36.7620   24.5800   37.5400 H   0  0  0  0  0  0  0  0  0  0  0  0
   40.2470   22.2710   38.4070 H   0  0  0  0  0  0  0  0  0  0  0  0
   40.1670   24.3790   34.5290 O   0  0  0  0  0  0  0  0  0  0  0  0
   42.3980   24.9430   33.1500 O   0  0  0  0  0  0  0  0  0  0  0  0
   41.7310   25.0810   34.4990 P   0  0  0  0  0  0  0  0  0  0  0  0
   41.5300   26.7140   34.9230 O   0  0  0  0  0  0  0  0  0  0  0  0
   42.1110   27.2900   34.3360 H   0  0  0  0  0  0  0  0  0  0  0  0
   42.7200   24.2940   35.6290 O   0  0  0  0  0  0  0  0  0  0  0  0
   42.1990   24.2670   36.4800 H   0  0  0  0  0  0  0  0  0  0  0  0
   37.6710   25.3760   35.1400 O   0  0  0  0  0  0  0  0  0  0  0  0
   36.6800   27.8040   34.7960 O   0  0  0  0  0  0  0  0  0  0  0  0
   37.9590   27.0420   34.9160 P   0  0  0  0  0  0  0  0  0  0  0  0
   38.9350   27.1810   33.5370 O   0  0  0  0  0  0  0  0  0  0  0  0
   39.7390   27.7010   33.7730 H   0  0  0  0  0  0  0  0  0  0  0  0
   38.8440   27.5560   36.2830 O   0  0  0  0  0  0  0  0  0  0  0  0
   38.2670   27.4440   37.0810 H   0  0  0  0  0  0  0  0  0  0  0  0
  1  2  2  0  0  0  0
  1  6  1  0  0  0  0
  2  3  1  0  0  0  0
  3  7  1  0  0  0  0
  3  4  2  0  0  0  0
  5  4  1  0  0  0  0
  5  8  1  0  0  0  0
  6  5  2  0  0  0  0
  9  1  1  0  0  0  0
 10 11  2  0  0  0  0
 11  9  1  0  0  0  0
 11 12  1  0  0  0  0
 11 14  1  0  0  0  0
 13 12  1  0  0  0  0
 14 15  1  0  0  0  0
 16  2  1  0  0  0  0
 17 18  2  0  0  0  0
 18 16  1  0  0  0  0
 18 21  1  0  0  0  0
 19 20  1  0  0  0  0
 19 18  1  0  0  0  0
 21 22  1  0  0  0  0
M  END
>  <minimizedAffinity>
-4.22625923

$$$$

 OpenBabel03272504163D

 22 22  0  0  0  0  0  0  0  0999 V2000
   37.0940   22.4030   32.6770 C   0  0  0  0  0  0  0  0  0  0  0  0
   37.8440   23.2870   33.4700 C   0  0  0  0  0  0  0  0  0  0  0  0
   37.6910   24.6400   33.2300 C   0  0  0  0  0  0  0  0  0  0  0  0
   36.8410   25.0640   32.2580 N   0  0  0  0  0  0  0  0  0  0  0  0
   36.1290   24.1790   31.5080 C   0  0  0  0  0  0  0  0  0  0  0  0
   36.2650   22.8480   31.7270 N   0  0  0  0  0  0  0  0  0  0  0  0
   38.2840   25.2750   33.8590 H   0  0  0  0  0  0  0  0  0  0  0  0
   35.4590   24.5570   30.7400 H   0  0  0  0  0  0  0  0  0  0  0  0
   37.1210   21.0120   32.7790 O   0  0  0  0  0  0  0  0  0  0  0  0
   35.8780   18.6340   32.7520 O   0  0  0  0  0  0  0  0  0  0  0  0
   35.7090   20.0940   33.1020 P   0  0  0  0  0  0  0  0  0  0  0  0
   35.3760   20.2970   34.7560 O   0  0  0  0  0  0  0  0  0  0  0  0
   35.0980   19.4160   35.1550 H   0  0  0  0  0  0  0  0  0  0  0  0
   34.4280   20.6890   32.1640 O   0  0  0  0  0  0  0  0  0  0  0  0
   34.4240   21.6780   32.2970 H   0  0  0  0  0  0  0  0  0  0  0  0
   38.6350   22.6630   34.3850 O   0  0  0  0  0  0  0  0  0  0  0  0
   38.3640   24.0930   36.5940 O   0  0  0  0  0  0  0  0  0  0  0  0
   38.4470   22.6920   36.0790 P   0  0  0  0  0  0  0  0  0  0  0  0
   39.7570   21.8340   36.7250 O   0  0  0  0  0  0  0  0  0  0  0  0
   39.4090   21.1250   37.3150 H   0  0  0  0  0  0  0  0  0  0  0  0
   37.0030   21.8410   36.4080 O   0  0  0  0  0  0  0  0  0  0  0  0
   36.2510   22.3440   36.0020 H   0  0  0  0  0  0  0  0  0  0  0  0
  1  9  1  0  0  0  0
  1  2  1  0  0  0  0
  2 16  1  0  0  0  0
  3  2  2  0  0  0  0
  3  7  1  0  0  0  0
  4  3  1  0  0  0  0
  5  6  1  0  0  0  0
  5  4  2  0  0  0  0
  6  1  2  0  0  0  0
  8  5  1  0  0  0  0
  9 11  1  0  0  0  0
 10 11  2  0  0  0  0
 11 12  1  0  0  0  0
 12 13  1  0  0  0  0
 14 15  1  0  0  0  0
 14 11  1  0  0  0  0
 16 18  1  0  0  0  0
 18 21  1  0  0  0  0
 18 17  2  0  0  0  0
 18 19  1  0  0  0  0
 19 20  1  0  0  0  0
 22 21  1  0  0  0  0
M  END
>  <minimizedAffinity>
-4.2063241

$$$$

 OpenBabel03272504163D

 22 22  0  0  0  0  0  0  0  0999 V2000
   38.4140   24.9880   35.3430 C   0  0  0  0  0  0  0  0  0  0  0  0
   38.1320   24.6600   34.0070 C   0  0  0  0  0  0  0  0  0  0  0  0
   37.4300   25.5890   33.2610 C   0  0  0  0  0  0  0  0  0  0  0  0
   37.0430   26.7610   33.8280 N   0  0  0  0  0  0  0  0  0  0  0  0
   37.3330   27.0470   35.1270 C   0  0  0  0  0  0  0  0  0  0  0  0
   38.0200   26.1490   35.8770 N   0  0  0  0  0  0  0  0  0  0  0  0
   37.2390   25.2950   32.2470 H   0  0  0  0  0  0  0  0  0  0  0  0
   37.0060   27.9940   35.5460 H   0  0  0  0  0  0  0  0  0  0  0  0
   39.1090   24.1760   36.2400 O   0  0  0  0  0  0  0  0  0  0  0  0
   37.0760   22.8150   37.3420 O   0  0  0  0  0  0  0  0  0  0  0  0
   38.3700   23.5320   37.6470 P   0  0  0  0  0  0  0  0  0  0  0  0
   39.5080   22.4810   38.3450 O   0  0  0  0  0  0  0  0  0  0  0  0
   39.0450   21.6460   38.6660 H   0  0  0  0  0  0  0  0  0  0  0  0
   38.0010   24.7970   38.7150 O   0  0  0  0  0  0  0  0  0  0  0  0
   38.8320   25.3450   38.7910 H   0  0  0  0  0  0  0  0  0  0  0  0
   38.6050   23.4410   33.6320 O   0  0  0  0  0  0  0  0  0  0  0  0
   36.6340   22.2970   32.2890 O   0  0  0  0  0  0  0  0  0  0  0  0
   37.6800   22.0420   33.3260 P   0  0  0  0  0  0  0  0  0  0  0  0
   37.0240   21.5620   34.8130 O   0  0  0  0  0  0  0  0  0  0  0  0
   37.2660   20.6210   34.9740 H   0  0  0  0  0  0  0  0  0  0  0  0
   38.7850   20.8530   32.7920 O   0  0  0  0  0  0  0  0  0  0  0  0
   39.1750   21.1620   31.9340 H   0  0  0  0  0  0  0  0  0  0  0  0
  1  6  1  0  0  0  0
  1  9  1  0  0  0  0
  2  1  2  0  0  0  0
  3  4  2  0  0  0  0
  3  2  1  0  0  0  0
  4  5  1  0  0  0  0
  5  8  1  0  0  0  0
  5  6  2  0  0  0  0
  7  3  1  0  0  0  0
  9 11  1  0  0  0  0
 10 11  2  0  0  0  0
 11 12  1  0  0  0  0
 11 14  1  0  0  0  0
 12 13  1  0  0  0  0
 14 15  1  0  0  0  0
 16  2  1  0  0  0  0
 17 18  2  0  0  0  0
 18 16  1  0  0  0  0
 18 19  1  0  0  0  0
 19 20  1  0  0  0  0
 21 18  1  0  0  0  0
 22 21  1  0  0  0  0
M  END
>  <minimizedAffinity>
-4.17261267

$$$$

 OpenBabel03272504163D

 22 22  0  0  0  0  0  0  0  0999 V2000
   38.5320   25.3020   35.5910 C   0  0  0  0  0  0  0  0  0  0  0  0
   37.8470   25.0530   34.3910 C   0  0  0  0  0  0  0  0  0  0  0  0
   37.2340   26.1290   33.7760 C   0  0  0  0  0  0  0  0  0  0  0  0
   37.3100   27.3640   34.3360 N   0  0  0  0  0  0  0  0  0  0  0  0
   37.9830   27.5700   35.5020 C   0  0  0  0  0  0  0  0  0  0  0  0
   38.5910   26.5280   36.1220 N   0  0  0  0  0  0  0  0  0  0  0  0
   36.7230   25.8900   32.8620 H   0  0  0  0  0  0  0  0  0  0  0  0
   38.0210   28.5720   35.9200 H   0  0  0  0  0  0  0  0  0  0  0  0
   39.2060   24.3410   36.3460 O   0  0  0  0  0  0  0  0  0  0  0  0
   37.7680   24.3350   38.6100 O   0  0  0  0  0  0  0  0  0  0  0  0
   38.4300   23.4450   37.5840 P   0  0  0  0  0  0  0  0  0  0  0  0
   37.2940   22.4470   36.8100 O   0  0  0  0  0  0  0  0  0  0  0  0
   36.4370   22.4350   37.3390 H   0  0  0  0  0  0  0  0  0  0  0  0
   39.5800   22.5080   38.4030 O   0  0  0  0  0  0  0  0  0  0  0  0
   40.1050   22.0360   37.6970 H   0  0  0  0  0  0  0  0  0  0  0  0
   37.8880   23.7510   33.9980 O   0  0  0  0  0  0  0  0  0  0  0  0
   38.1660   21.7210   32.3250 O   0  0  0  0  0  0  0  0  0  0  0  0
   37.8040   23.1690   32.3980 P   0  0  0  0  0  0  0  0  0  0  0  0
   38.8350   24.1480   31.4740 O   0  0  0  0  0  0  0  0  0  0  0  0
   38.3240   24.5130   30.7150 H   0  0  0  0  0  0  0  0  0  0  0  0
   36.1930   23.4170   31.8890 O   0  0  0  0  0  0  0  0  0  0  0  0
   35.6030   22.8560   32.4550 H   0  0  0  0  0  0  0  0  0  0  0  0
  1  6  1  0  0  0  0
  1  9  1  0  0  0  0
  2  1  2  0  0  0  0
  3  4  2  0  0  0  0
  3  2  1  0  0  0  0
  4  5  1  0  0  0  0
  5  8  1  0  0  0  0
  5  6  2  0  0  0  0
  7  3  1  0  0  0  0
  9 11  1  0  0  0  0
 11 14  1  0  0  0  0
 11 10  2  0  0  0  0
 12 13  1  0  0  0  0
 12 11  1  0  0  0  0
 15 14  1  0  0  0  0
 16  2  1  0  0  0  0
 17 18  2  0  0  0  0
 18 16  1  0  0  0  0
 19 18  1  0  0  0  0
 20 19  1  0  0  0  0
 21 18  1  0  0  0  0
 21 22  1  0  0  0  0
M  END
>  <minimizedAffinity>
-4.16980791

$$$$

 OpenBabel03272504163D

 22 22  0  0  0  0  0  0  0  0999 V2000
   39.8080   24.5760   35.0740 C   0  0  0  0  0  0  0  0  0  0  0  0
   38.7330   24.9300   35.9050 C   0  0  0  0  0  0  0  0  0  0  0  0
   38.4230   26.2740   36.0030 C   0  0  0  0  0  0  0  0  0  0  0  0
   39.1490   27.1890   35.3110 N   0  0  0  0  0  0  0  0  0  0  0  0
   40.1860   26.8120   34.5140 C   0  0  0  0  0  0  0  0  0  0  0  0
   40.5070   25.4990   34.4040 N   0  0  0  0  0  0  0  0  0  0  0  0
   37.5950   26.4950   36.6490 H   0  0  0  0  0  0  0  0  0  0  0  0
   40.7440   27.5730   33.9760 H   0  0  0  0  0  0  0  0  0  0  0  0
   40.2610   23.2740   34.8560 O   0  0  0  0  0  0  0  0  0  0  0  0
   42.0620   21.3000   35.0860 O   0  0  0  0  0  0  0  0  0  0  0  0
   41.8600   22.7900   35.2380 P   0  0  0  0  0  0  0  0  0  0  0  0
   42.8850   23.6590   34.1990 O   0  0  0  0  0  0  0  0  0  0  0  0
   43.6150   23.0550   33.8590 H   0  0  0  0  0  0  0  0  0  0  0  0
   42.1910   23.1770   36.8550 O   0  0  0  0  0  0  0  0  0  0  0  0
   41.9140   24.1290   36.9740 H   0  0  0  0  0  0  0  0  0  0  0  0
   38.1370   23.8670   36.5100 O   0  0  0  0  0  0  0  0  0  0  0  0
   38.0880   24.6470   39.0360 O   0  0  0  0  0  0  0  0  0  0  0  0
   38.2380   23.4470   38.1590 P   0  0  0  0  0  0  0  0  0  0  0  0
   39.7280   22.6670   38.3680 O   0  0  0  0  0  0  0  0  0  0  0  0
   39.5670   21.7900   38.7880 H   0  0  0  0  0  0  0  0  0  0  0  0
   36.9770   22.3300   38.4400 O   0  0  0  0  0  0  0  0  0  0  0  0
   36.1150   22.7970   38.2900 H   0  0  0  0  0  0  0  0  0  0  0  0
  1  2  1  0  0  0  0
  2  3  2  0  0  0  0
  2 16  1  0  0  0  0
  3  7  1  0  0  0  0
  4  3  1  0  0  0  0
  5  4  2  0  0  0  0
  6  5  1  0  0  0  0
  6  1  2  0  0  0  0
  8  5  1  0  0  0  0
  9  1  1  0  0  0  0
  9 11  1  0  0  0  0
 10 11  2  0  0  0  0
 11 14  1  0  0  0  0
 12 11  1  0  0  0  0
 13 12  1  0  0  0  0
 14 15  1  0  0  0  0
 16 18  1  0  0  0  0
 18 19  1  0  0  0  0
 18 21  1  0  0  0  0
 18 17  2  0  0  0  0
 19 20  1  0  0  0  0
 22 21  1  0  0  0  0
M  END
>  <minimizedAffinity>
-4.16169262

$$$$

 OpenBabel03272504163D

 22 22  0  0  0  0  0  0  0  0999 V2000
   38.3200   22.9290   34.5630 C   0  0  0  0  0  0  0  0  0  0  0  0
   38.2860   23.9310   33.5800 C   0  0  0  0  0  0  0  0  0  0  0  0
   37.4870   23.7060   32.4740 C   0  0  0  0  0  0  0  0  0  0  0  0
   36.7770   22.5520   32.3740 N   0  0  0  0  0  0  0  0  0  0  0  0
   36.8340   21.6010   33.3470 C   0  0  0  0  0  0  0  0  0  0  0  0
   37.6110   21.8020   34.4390 N   0  0  0  0  0  0  0  0  0  0  0  0
   37.4930   24.4980   31.7500 H   0  0  0  0  0  0  0  0  0  0  0  0
   36.2520   20.6910   33.2310 H   0  0  0  0  0  0  0  0  0  0  0  0
   39.0670   22.9850   35.7410 O   0  0  0  0  0  0  0  0  0  0  0  0
   38.0610   24.7030   37.5400 O   0  0  0  0  0  0  0  0  0  0  0  0
   38.3370   23.2420   37.2710 P   0  0  0  0  0  0  0  0  0  0  0  0
   36.9020   22.3330   37.2740 O   0  0  0  0  0  0  0  0  0  0  0  0
   36.1640   22.8670   37.7020 H   0  0  0  0  0  0  0  0  0  0  0  0
   39.3840   22.6990   38.4890 O   0  0  0  0  0  0  0  0  0  0  0  0
   39.6710   21.7820   38.2180 H   0  0  0  0  0  0  0  0  0  0  0  0
   39.0670   25.0070   33.8680 O   0  0  0  0  0  0  0  0  0  0  0  0
   39.5510   27.2010   35.2630 O   0  0  0  0  0  0  0  0  0  0  0  0
   38.5330   26.5390   34.3930 P   0  0  0  0  0  0  0  0  0  0  0  0
   37.0560   26.2890   35.1860 O   0  0  0  0  0  0  0  0  0  0  0  0
   36.3770   26.8750   34.7770 H   0  0  0  0  0  0  0  0  0  0  0  0
   38.2600   27.4540   32.9760 O   0  0  0  0  0  0  0  0  0  0  0  0
   39.1290   27.5690   32.5140 H   0  0  0  0  0  0  0  0  0  0  0  0
  1  9  1  0  0  0  0
  2 16  1  0  0  0  0
  2  1  2  0  0  0  0
  3  2  1  0  0  0  0
  4  3  2  0  0  0  0
  4  5  1  0  0  0  0
  5  6  2  0  0  0  0
  6  1  1  0  0  0  0
  7  3  1  0  0  0  0
  8  5  1  0  0  0  0
  9 11  1  0  0  0  0
 11 12  1  0  0  0  0
 11 10  2  0  0  0  0
 11 14  1  0  0  0  0
 12 13  1  0  0  0  0
 15 14  1  0  0  0  0
 16 18  1  0  0  0  0
 18 19  1  0  0  0  0
 18 17  2  0  0  0  0
 20 19  1  0  0  0  0
 21 18  1  0  0  0  0
 22 21  1  0  0  0  0
M  END
>  <minimizedAffinity>
-4.07395029

$$$$

 OpenBabel03272504163D

 22 22  0  0  0  0  0  0  0  0999 V2000
   38.2310   25.1280   34.8150 C   0  0  0  0  0  0  0  0  0  0  0  0
   37.4340   25.7550   33.8440 C   0  0  0  0  0  0  0  0  0  0  0  0
   37.1320   27.0900   34.0370 C   0  0  0  0  0  0  0  0  0  0  0  0
   37.6040   27.7400   35.1330 N   0  0  0  0  0  0  0  0  0  0  0  0
   38.3750   27.1010   36.0560 C   0  0  0  0  0  0  0  0  0  0  0  0
   38.6820   25.7920   35.8860 N   0  0  0  0  0  0  0  0  0  0  0  0
   36.5210   27.5260   33.2700 H   0  0  0  0  0  0  0  0  0  0  0  0
   38.7330   27.6550   36.9190 H   0  0  0  0  0  0  0  0  0  0  0  0
   38.6340   23.7920   34.7850 O   0  0  0  0  0  0  0  0  0  0  0  0
   37.1120   21.6500   35.3290 O   0  0  0  0  0  0  0  0  0  0  0  0
   38.0760   22.6460   35.9310 P   0  0  0  0  0  0  0  0  0  0  0  0
   39.4590   21.8710   36.5440 O   0  0  0  0  0  0  0  0  0  0  0  0
   39.2830   20.8840   36.6320 H   0  0  0  0  0  0  0  0  0  0  0  0
   37.2510   23.4520   37.1740 O   0  0  0  0  0  0  0  0  0  0  0  0
   37.8470   24.2000   37.4610 H   0  0  0  0  0  0  0  0  0  0  0  0
   37.0640   24.9310   32.8260 O   0  0  0  0  0  0  0  0  0  0  0  0
   37.4580   23.8530   30.4430 O   0  0  0  0  0  0  0  0  0  0  0  0
   37.3880   25.1580   31.1670 P   0  0  0  0  0  0  0  0  0  0  0  0
   38.8340   26.0360   31.0740 O   0  0  0  0  0  0  0  0  0  0  0  0
   38.6790   26.8390   30.5230 H   0  0  0  0  0  0  0  0  0  0  0  0
   36.1100   26.1170   30.5640 O   0  0  0  0  0  0  0  0  0  0  0  0
   35.2700   25.5980   30.6490 H   0  0  0  0  0  0  0  0  0  0  0  0
  1  6  1  0  0  0  0
  2  3  1  0  0  0  0
  2  1  2  0  0  0  0
  3  4  2  0  0  0  0
  4  5  1  0  0  0  0
  5  8  1  0  0  0  0
  6  5  2  0  0  0  0
  7  3  1  0  0  0  0
  9  1  1  0  0  0  0
  9 11  1  0  0  0  0
 10 11  2  0  0  0  0
 11 12  1  0  0  0  0
 11 14  1  0  0  0  0
 12 13  1  0  0  0  0
 14 15  1  0  0  0  0
 16  2  1  0  0  0  0
 17 18  2  0  0  0  0
 18 16  1  0  0  0  0
 19 18  1  0  0  0  0
 20 19  1  0  0  0  0
 21 22  1  0  0  0  0
 21 18  1  0  0  0  0
M  END
>  <minimizedAffinity>
-4.06927156

$$$$
