REMARK  Name = 
REMARK  6 active torsions:
REMARK  status: ('A' for Active; 'I' for Inactive)
REMARK    1  A    between atoms: C_3  and  C_9
REMARK    2  A    between atoms: C_5  and  O_14
REMARK    3  A    between atoms: O_14  and  C_15
REMARK    4  A    between atoms: C_15  and  C_16
REMARK    5  A    between atoms: C_16  and  C_17
REMARK    6  A    between atoms: C_21  and  C_35
REMARK                            x       y       z     vdW  Elec       q    Type
REMARK                         _______ _______ _______ _____ _____    ______ ____
ROOT
ATOM      1  C   UNL     1      37.337  30.180  51.507  0.00  0.00    +0.000 A 
ATOM      2  C   UNL     1      38.066  30.860  50.511  0.00  0.00    +0.000 A 
ATOM      3  C   UNL     1      37.712  30.655  49.196  0.00  0.00    +0.000 A 
ATOM      4  N   UNL     1      36.666  29.793  48.970  0.00  0.00    +0.000 NA
ATOM      5  C   UNL     1      35.995  29.163  49.930  0.00  0.00    +0.000 A 
ATOM      6  N   UNL     1      36.331  29.357  51.215  0.00  0.00    +0.000 NA
ATOM      7  H   UNL     1      37.639  30.363  52.530  0.00  0.00    +0.000 HD
ATOM      8  H   UNL     1      38.867  31.519  50.710  0.00  0.00    +0.000 HD
ENDROOT
BRANCH   3  11
ATOM      9  F   UNL     1      38.953  33.262  49.008  0.00  0.00    +0.000 F 
ATOM     10  C   UNL     1      38.921  32.474  47.940  0.00  0.00    +0.000 A 
ATOM     11  C   UNL     1      38.337  31.259  48.047  0.00  0.00    +0.000 A 
ATOM     12  C   UNL     1      38.366  30.522  46.857  0.00  0.00    +0.000 A 
ATOM     13  C   UNL     1      38.932  30.997  45.709  0.00  0.00    +0.000 A 
ATOM     14  C   UNL     1      39.510  32.231  45.651  0.00  0.00    +0.000 A 
ATOM     15  C   UNL     1      39.498  32.973  46.794  0.00  0.00    +0.000 A 
ATOM     16  H   UNL     1      37.917  29.520  46.837  0.00  0.00    +0.000 HD
ATOM     17  H   UNL     1      38.912  30.355  44.818  0.00  0.00    +0.000 HD
ATOM     18  H   UNL     1      39.946  32.566  44.720  0.00  0.00    +0.000 HD
ATOM     19  H   UNL     1      39.953  33.960  46.770  0.00  0.00    +0.000 HD
ENDBRANCH   3  11
BRANCH   5  20
ATOM     20  O   UNL     1      34.999  28.362  49.444  0.00  0.00    +0.000 OA
BRANCH  20  21
ATOM     21  C   UNL     1      34.447  28.654  48.169  0.00  0.00    +0.000 C 
ATOM     22  H   UNL     1      35.235  28.904  47.426  0.00  0.00    +0.000 HD
ATOM     23  H   UNL     1      33.803  29.554  48.274  0.00  0.00    +0.000 HD
BRANCH  21  24
ATOM     24  C   UNL     1      33.559  27.529  47.712  0.00  0.00    +0.000 C 
ATOM     25  H   UNL     1      33.891  27.248  46.692  0.00  0.00    +0.000 HD
ATOM     26  H   UNL     1      33.691  26.612  48.329  0.00  0.00    +0.000 HD
BRANCH  24  27
ATOM     27  C   UNL     1      32.128  27.899  47.700  0.00  0.00    +0.000 A 
ATOM     28  C   UNL     1      31.350  27.519  48.793  0.00  0.00    +0.000 A 
ATOM     29  C   UNL     1      30.017  27.816  48.873  0.00  0.00    +0.000 A 
ATOM     30  N   UNL     1      29.439  28.485  47.885  0.00  0.00    +0.000 NA
ATOM     31  C   UNL     1      30.200  28.859  46.811  0.00  0.00    +0.000 A 
ATOM     32  N   UNL     1      31.527  28.584  46.695  0.00  0.00    +0.000 NA
ATOM     33  H   UNL     1      31.819  26.968  49.609  0.00  0.00    +0.000 HD
ATOM     34  H   UNL     1      29.442  27.507  49.734  0.00  0.00    +0.000 HD
BRANCH  31  35
ATOM     35  C   UNL     1      29.642  29.617  45.647  0.00  0.00    +0.000 C 
ATOM     36  F   UNL     1      28.430  30.200  46.038  0.00  0.00    +0.000 F 
ATOM     37  F   UNL     1      29.449  28.824  44.548  0.00  0.00    +0.000 F 
ATOM     38  F   UNL     1      30.460  30.675  45.314  0.00  0.00    +0.000 F 
ENDBRANCH  31  35
ENDBRANCH  24  27
ENDBRANCH  21  24
ENDBRANCH  20  21
ENDBRANCH   5  20
TORSDOF 6
