
 OpenBabel03272502503D

 37 39  0  0  0  0  0  0  0  0999 V2000
   36.3240   30.2140   31.7850 C   0  0  0  0  0  0  0  0  0  0  0  0
   35.7390   30.9050   32.8440 C   0  0  0  0  0  0  0  0  0  0  0  0
   35.5610   30.2030   34.0340 C   0  0  0  0  0  0  0  0  0  0  0  0
   35.9580   28.9070   34.1000 N   0  0  0  0  0  0  0  0  0  0  0  0
   36.5200   28.2790   33.0460 C   0  0  0  0  0  0  0  0  0  0  0  0
   36.6940   28.9420   31.9080 N   0  0  0  0  0  0  0  0  0  0  0  0
   36.4740   30.7350   30.8500 H   0  0  0  0  0  0  0  0  0  0  0  0
   35.4200   31.9380   32.7990 H   0  0  0  0  0  0  0  0  0  0  0  0
   34.9550   30.8210   35.2240 C   0  0  0  0  0  0  0  0  0  0  0  0
   35.6560   31.5430   36.1590 C   0  0  0  0  0  0  0  0  0  0  0  0
   34.8410   31.9850   37.1360 N   0  0  0  0  0  0  0  0  0  0  0  0
   33.6130   31.5400   36.8190 C   0  0  0  0  0  0  0  0  0  0  0  0
   33.7110   30.8510   35.6770 N   0  0  0  0  0  0  0  0  0  0  0  0
   31.1920   31.7140   36.6440 C   0  0  0  0  0  0  0  0  0  0  0  0
   31.2960   31.5980   35.4130 O   0  0  0  0  0  0  0  0  0  0  0  0
   32.3610   31.6960   37.4760 N   0  0  0  0  0  0  0  0  0  0  0  0
   36.7320   31.7530   36.1480 H   0  0  0  0  0  0  0  0  0  0  0  0
   35.0400   32.5550   37.9880 H   0  0  0  0  0  0  0  0  0  0  0  0
   30.1900   31.8340   37.1150 H   0  0  0  0  0  0  0  0  0  0  0  0
   32.3160   31.7900   38.5110 H   0  0  0  0  0  0  0  0  0  0  0  0
   38.2400   27.7240   35.3940 Cl  0  0  0  0  0  0  0  0  0  0  0  0
   37.7260   26.5130   34.2540 C   0  0  0  0  0  0  0  0  0  0  0  0
   36.9250   26.8760   33.1930 C   0  0  0  0  0  0  0  0  0  0  0  0
   36.5030   25.9460   32.2780 C   0  0  0  0  0  0  0  0  0  0  0  0
   36.8660   24.6270   32.3880 C   0  0  0  0  0  0  0  0  0  0  0  0
   37.6640   24.2410   33.4380 C   0  0  0  0  0  0  0  0  0  0  0  0
   38.1900   22.5790   33.6790 Cl  0  0  0  0  0  0  0  0  0  0  0  0
   38.0630   25.2050   34.3300 C   0  0  0  0  0  0  0  0  0  0  0  0
   35.8660   26.2280   31.4320 H   0  0  0  0  0  0  0  0  0  0  0  0
   38.9340   24.7970   35.4810 C   0  0  0  0  0  0  0  0  0  0  0  0
   38.8120   23.4310   35.7360 F   0  0  0  0  0  0  0  0  0  0  0  0
   38.4810   25.3940   36.6640 F   0  0  0  0  0  0  0  0  0  0  0  0
   40.2420   25.1770   35.3300 F   0  0  0  0  0  0  0  0  0  0  0  0
   36.4300   23.5830   31.4170 C   0  0  0  0  0  0  0  0  0  0  0  0
   35.8160   22.5190   32.0050 F   0  0  0  0  0  0  0  0  0  0  0  0
   35.5540   24.1260   30.4990 F   0  0  0  0  0  0  0  0  0  0  0  0
   37.5420   23.1760   30.6680 F   0  0  0  0  0  0  0  0  0  0  0  0
  1  6  2  0  0  0  0
  1  2  1  0  0  0  0
  2  3  2  0  0  0  0
  3  4  1  0  0  0  0
  3  9  1  0  0  0  0
  5 23  1  0  0  0  0
  5  4  2  0  0  0  0
  6  5  1  0  0  0  0
  7  1  1  0  0  0  0
  8  2  1  0  0  0  0
  9 13  1  0  0  0  0
  9 10  2  0  0  0  0
 10 11  1  0  0  0  0
 11 18  1  0  0  0  0
 12 11  1  0  0  0  0
 12 16  1  0  0  0  0
 13 12  2  0  0  0  0
 14 19  1  0  0  0  0
 14 16  1  0  0  0  0
 15 14  2  0  0  0  0
 16 20  1  0  0  0  0
 17 10  1  0  0  0  0
 22 28  1  0  0  0  0
 22 21  1  0  0  0  0
 23 22  2  0  0  0  0
 24 25  2  0  0  0  0
 24 23  1  0  0  0  0
 25 26  1  0  0  0  0
 26 27  1  0  0  0  0
 26 28  2  0  0  0  0
 28 30  1  0  0  0  0
 29 24  1  0  0  0  0
 30 31  1  0  0  0  0
 30 32  1  0  0  0  0
 33 30  1  0  0  0  0
 34 35  1  0  0  0  0
 34 25  1  0  0  0  0
 36 34  1  0  0  0  0
 37 34  1  0  0  0  0
M  END
>  <minimizedAffinity>
-6.81890917

$$$$

 OpenBabel03272502503D

 37 39  0  0  0  0  0  0  0  0999 V2000
   36.0060   30.1960   31.4870 C   0  0  0  0  0  0  0  0  0  0  0  0
   35.4910   30.8780   32.5860 C   0  0  0  0  0  0  0  0  0  0  0  0
   35.5580   30.2310   33.8180 C   0  0  0  0  0  0  0  0  0  0  0  0
   36.1100   28.9930   33.8830 N   0  0  0  0  0  0  0  0  0  0  0  0
   36.5960   28.3710   32.7890 C   0  0  0  0  0  0  0  0  0  0  0  0
   36.5360   28.9820   31.6110 N   0  0  0  0  0  0  0  0  0  0  0  0
   35.9670   30.6750   30.5190 H   0  0  0  0  0  0  0  0  0  0  0  0
   35.0490   31.8650   32.5430 H   0  0  0  0  0  0  0  0  0  0  0  0
   35.0480   30.8450   35.0540 C   0  0  0  0  0  0  0  0  0  0  0  0
   35.8410   31.4530   35.9970 C   0  0  0  0  0  0  0  0  0  0  0  0
   35.1000   31.9230   37.0190 N   0  0  0  0  0  0  0  0  0  0  0  0
   33.8270   31.6110   36.7230 C   0  0  0  0  0  0  0  0  0  0  0  0
   33.8260   30.9710   35.5500 N   0  0  0  0  0  0  0  0  0  0  0  0
   31.4290   32.0200   36.6360 C   0  0  0  0  0  0  0  0  0  0  0  0
   31.4870   31.9530   35.3990 O   0  0  0  0  0  0  0  0  0  0  0  0
   32.6150   31.8520   37.4270 N   0  0  0  0  0  0  0  0  0  0  0  0
   36.9310   31.5620   35.9590 H   0  0  0  0  0  0  0  0  0  0  0  0
   35.3770   32.4310   37.8890 H   0  0  0  0  0  0  0  0  0  0  0  0
   30.4580   32.2100   37.1460 H   0  0  0  0  0  0  0  0  0  0  0  0
   32.6090   31.9010   38.4670 H   0  0  0  0  0  0  0  0  0  0  0  0
   35.2250   26.2460   31.2460 Cl  0  0  0  0  0  0  0  0  0  0  0  0
   36.6140   25.9730   32.2590 C   0  0  0  0  0  0  0  0  0  0  0  0
   37.1800   27.0330   32.9370 C   0  0  0  0  0  0  0  0  0  0  0  0
   38.2740   26.8510   33.7420 C   0  0  0  0  0  0  0  0  0  0  0  0
   38.8400   25.6110   33.9000 C   0  0  0  0  0  0  0  0  0  0  0  0
   38.2960   24.5390   33.2350 C   0  0  0  0  0  0  0  0  0  0  0  0
   38.9370   22.9060   33.3620 Cl  0  0  0  0  0  0  0  0  0  0  0  0
   37.2000   24.7670   32.4400 C   0  0  0  0  0  0  0  0  0  0  0  0
   38.7270   27.6880   34.2840 H   0  0  0  0  0  0  0  0  0  0  0  0
   36.5950   23.6060   31.7070 C   0  0  0  0  0  0  0  0  0  0  0  0
   37.4430   23.1640   30.6910 F   0  0  0  0  0  0  0  0  0  0  0  0
   35.4450   24.0160   31.0200 F   0  0  0  0  0  0  0  0  0  0  0  0
   36.2090   22.5860   32.5350 F   0  0  0  0  0  0  0  0  0  0  0  0
   40.0300   25.3680   34.7660 C   0  0  0  0  0  0  0  0  0  0  0  0
   39.7860   24.5080   35.7930 F   0  0  0  0  0  0  0  0  0  0  0  0
   41.0650   24.8500   34.0140 F   0  0  0  0  0  0  0  0  0  0  0  0
   40.5000   26.6010   35.2370 F   0  0  0  0  0  0  0  0  0  0  0  0
  1  6  2  0  0  0  0
  1  2  1  0  0  0  0
  2  3  2  0  0  0  0
  3  4  1  0  0  0  0
  3  9  1  0  0  0  0
  5 23  1  0  0  0  0
  5  4  2  0  0  0  0
  6  5  1  0  0  0  0
  7  1  1  0  0  0  0
  8  2  1  0  0  0  0
  9 13  1  0  0  0  0
  9 10  2  0  0  0  0
 10 11  1  0  0  0  0
 11 18  1  0  0  0  0
 12 11  1  0  0  0  0
 12 16  1  0  0  0  0
 13 12  2  0  0  0  0
 14 19  1  0  0  0  0
 14 16  1  0  0  0  0
 15 14  2  0  0  0  0
 16 20  1  0  0  0  0
 17 10  1  0  0  0  0
 21 22  1  0  0  0  0
 22 28  2  0  0  0  0
 22 23  1  0  0  0  0
 23 24  2  0  0  0  0
 24 25  1  0  0  0  0
 24 29  1  0  0  0  0
 25 34  1  0  0  0  0
 26 27  1  0  0  0  0
 26 25  2  0  0  0  0
 28 26  1  0  0  0  0
 30 28  1  0  0  0  0
 30 33  1  0  0  0  0
 31 30  1  0  0  0  0
 32 30  1  0  0  0  0
 34 37  1  0  0  0  0
 34 35  1  0  0  0  0
 36 34  1  0  0  0  0
M  END
>  <minimizedAffinity>
-6.52724838

$$$$

 OpenBabel03272502503D

 37 39  0  0  0  0  0  0  0  0999 V2000
   35.7910   23.7560   31.4150 C   0  0  0  0  0  0  0  0  0  0  0  0
   35.6120   25.0900   31.0550 C   0  0  0  0  0  0  0  0  0  0  0  0
   36.3880   26.0330   31.7260 C   0  0  0  0  0  0  0  0  0  0  0  0
   37.2610   25.6130   32.6760 N   0  0  0  0  0  0  0  0  0  0  0  0
   37.3990   24.3080   32.9900 C   0  0  0  0  0  0  0  0  0  0  0  0
   36.6620   23.4030   32.3560 N   0  0  0  0  0  0  0  0  0  0  0  0
   35.2010   23.0030   30.9110 H   0  0  0  0  0  0  0  0  0  0  0  0
   34.9190   25.4330   30.2990 H   0  0  0  0  0  0  0  0  0  0  0  0
   36.2930   27.4720   31.4370 C   0  0  0  0  0  0  0  0  0  0  0  0
   35.8460   28.4110   32.3350 C   0  0  0  0  0  0  0  0  0  0  0  0
   35.8670   29.6440   31.7940 N   0  0  0  0  0  0  0  0  0  0  0  0
   36.3310   29.4880   30.5420 C   0  0  0  0  0  0  0  0  0  0  0  0
   36.5760   28.1870   30.3580 N   0  0  0  0  0  0  0  0  0  0  0  0
   37.6260   30.1300   28.5840 C   0  0  0  0  0  0  0  0  0  0  0  0
   38.2870   29.0870   28.7090 O   0  0  0  0  0  0  0  0  0  0  0  0
   36.5680   30.4320   29.5050 N   0  0  0  0  0  0  0  0  0  0  0  0
   35.5090   28.2230   33.3610 H   0  0  0  0  0  0  0  0  0  0  0  0
   35.5990   30.5720   32.1920 H   0  0  0  0  0  0  0  0  0  0  0  0
   37.8460   30.8410   27.7560 H   0  0  0  0  0  0  0  0  0  0  0  0
   35.9900   31.2950   29.4350 H   0  0  0  0  0  0  0  0  0  0  0  0
   40.0640   23.5070   31.9740 Cl  0  0  0  0  0  0  0  0  0  0  0  0
   39.6330   23.5400   33.6600 C   0  0  0  0  0  0  0  0  0  0  0  0
   38.3630   23.9290   34.0300 C   0  0  0  0  0  0  0  0  0  0  0  0
   37.9930   23.9660   35.3490 C   0  0  0  0  0  0  0  0  0  0  0  0
   38.8730   23.6160   36.3430 C   0  0  0  0  0  0  0  0  0  0  0  0
   40.1450   23.2260   36.0000 C   0  0  0  0  0  0  0  0  0  0  0  0
   41.3550   22.7570   37.1870 Cl  0  0  0  0  0  0  0  0  0  0  0  0
   40.4720   23.2030   34.6670 C   0  0  0  0  0  0  0  0  0  0  0  0
   36.9860   24.2740   35.6500 H   0  0  0  0  0  0  0  0  0  0  0  0
   41.8570   22.7790   34.2780 C   0  0  0  0  0  0  0  0  0  0  0  0
   42.8020   23.7090   34.7140 F   0  0  0  0  0  0  0  0  0  0  0  0
   41.9950   22.7990   32.8840 F   0  0  0  0  0  0  0  0  0  0  0  0
   42.1660   21.5060   34.6800 F   0  0  0  0  0  0  0  0  0  0  0  0
   38.5130   23.6420   37.7900 C   0  0  0  0  0  0  0  0  0  0  0  0
   39.5200   23.2220   38.6050 F   0  0  0  0  0  0  0  0  0  0  0  0
   38.1650   24.9220   38.1680 F   0  0  0  0  0  0  0  0  0  0  0  0
   37.3560   22.8760   37.9770 F   0  0  0  0  0  0  0  0  0  0  0  0
  1  6  1  0  0  0  0
  2  1  2  0  0  0  0
  2  3  1  0  0  0  0
  3  4  2  0  0  0  0
  4  5  1  0  0  0  0
  5 23  1  0  0  0  0
  6  5  2  0  0  0  0
  7  1  1  0  0  0  0
  8  2  1  0  0  0  0
  9  3  1  0  0  0  0
  9 10  2  0  0  0  0
 10 17  1  0  0  0  0
 11 18  1  0  0  0  0
 11 10  1  0  0  0  0
 12 11  1  0  0  0  0
 13 12  2  0  0  0  0
 13  9  1  0  0  0  0
 14 15  2  0  0  0  0
 14 16  1  0  0  0  0
 16 12  1  0  0  0  0
 19 14  1  0  0  0  0
 20 16  1  0  0  0  0
 21 22  1  0  0  0  0
 22 23  2  0  0  0  0
 22 28  1  0  0  0  0
 23 24  1  0  0  0  0
 24 29  1  0  0  0  0
 24 25  2  0  0  0  0
 25 34  1  0  0  0  0
 26 25  1  0  0  0  0
 26 27  1  0  0  0  0
 28 26  2  0  0  0  0
 30 28  1  0  0  0  0
 30 33  1  0  0  0  0
 30 31  1  0  0  0  0
 32 30  1  0  0  0  0
 34 37  1  0  0  0  0
 34 36  1  0  0  0  0
 34 35  1  0  0  0  0
M  END
>  <minimizedAffinity>
-6.41274118

$$$$

 OpenBabel03272502503D

 37 39  0  0  0  0  0  0  0  0999 V2000
   36.1030   30.3650   30.8410 C   0  0  0  0  0  0  0  0  0  0  0  0
   34.8170   30.7420   31.2230 C   0  0  0  0  0  0  0  0  0  0  0  0
   34.1590   29.9120   32.1280 C   0  0  0  0  0  0  0  0  0  0  0  0
   34.7920   28.8010   32.5830 N   0  0  0  0  0  0  0  0  0  0  0  0
   36.0390   28.4770   32.1840 C   0  0  0  0  0  0  0  0  0  0  0  0
   36.6730   29.2630   31.3210 N   0  0  0  0  0  0  0  0  0  0  0  0
   36.6360   30.9910   30.1400 H   0  0  0  0  0  0  0  0  0  0  0  0
   34.3060   31.6250   30.8640 H   0  0  0  0  0  0  0  0  0  0  0  0
   32.7990   30.2000   32.6080 C   0  0  0  0  0  0  0  0  0  0  0  0
   31.9460   31.1000   32.0150 C   0  0  0  0  0  0  0  0  0  0  0  0
   30.7720   31.1550   32.6720 N   0  0  0  0  0  0  0  0  0  0  0  0
   30.8790   30.2840   33.6890 C   0  0  0  0  0  0  0  0  0  0  0  0
   32.0940   29.7310   33.6270 N   0  0  0  0  0  0  0  0  0  0  0  0
   30.0520   28.5790   35.2170 C   0  0  0  0  0  0  0  0  0  0  0  0
   30.9030   27.7970   34.7660 O   0  0  0  0  0  0  0  0  0  0  0  0
   29.9590   29.9190   34.7120 N   0  0  0  0  0  0  0  0  0  0  0  0
   32.1560   31.7080   31.1270 H   0  0  0  0  0  0  0  0  0  0  0  0
   29.9140   31.7240   32.4930 H   0  0  0  0  0  0  0  0  0  0  0  0
   29.3520   28.2500   36.0180 H   0  0  0  0  0  0  0  0  0  0  0  0
   29.2600   30.6050   35.0630 H   0  0  0  0  0  0  0  0  0  0  0  0
   35.3850   25.9970   30.7000 Cl  0  0  0  0  0  0  0  0  0  0  0  0
   36.4170   26.0510   32.1000 C   0  0  0  0  0  0  0  0  0  0  0  0
   36.6590   27.2590   32.7190 C   0  0  0  0  0  0  0  0  0  0  0  0
   37.4680   27.3350   33.8240 C   0  0  0  0  0  0  0  0  0  0  0  0
   38.0600   26.2130   34.3480 C   0  0  0  0  0  0  0  0  0  0  0  0
   37.8350   24.9990   33.7480 C   0  0  0  0  0  0  0  0  0  0  0  0
   38.5420   23.4970   34.3310 Cl  0  0  0  0  0  0  0  0  0  0  0  0
   37.0190   24.9690   32.6440 C   0  0  0  0  0  0  0  0  0  0  0  0
   37.6640   28.2910   34.3210 H   0  0  0  0  0  0  0  0  0  0  0  0
   36.7640   23.6490   31.9790 C   0  0  0  0  0  0  0  0  0  0  0  0
   35.3960   23.3830   31.9110 F   0  0  0  0  0  0  0  0  0  0  0  0
   37.2630   22.6060   32.7700 F   0  0  0  0  0  0  0  0  0  0  0  0
   37.3720   23.5330   30.7570 F   0  0  0  0  0  0  0  0  0  0  0  0
   38.9470   26.2500   35.5460 C   0  0  0  0  0  0  0  0  0  0  0  0
   40.2070   25.7950   35.3020 F   0  0  0  0  0  0  0  0  0  0  0  0
   39.0460   27.5410   36.0230 F   0  0  0  0  0  0  0  0  0  0  0  0
   38.3370   25.5240   36.5770 F   0  0  0  0  0  0  0  0  0  0  0  0
  1  2  2  0  0  0  0
  1  6  1  0  0  0  0
  2  3  1  0  0  0  0
  3  4  2  0  0  0  0
  3  9  1  0  0  0  0
  5  4  1  0  0  0  0
  5 23  1  0  0  0  0
  6  5  2  0  0  0  0
  7  1  1  0  0  0  0
  8  2  1  0  0  0  0
  9 13  1  0  0  0  0
 10  9  2  0  0  0  0
 10 11  1  0  0  0  0
 11 12  1  0  0  0  0
 12 16  1  0  0  0  0
 13 12  2  0  0  0  0
 14 19  1  0  0  0  0
 15 14  2  0  0  0  0
 16 20  1  0  0  0  0
 16 14  1  0  0  0  0
 17 10  1  0  0  0  0
 18 11  1  0  0  0  0
 21 22  1  0  0  0  0
 22 28  2  0  0  0  0
 22 23  1  0  0  0  0
 23 24  2  0  0  0  0
 24 29  1  0  0  0  0
 24 25  1  0  0  0  0
 25 34  1  0  0  0  0
 26 27  1  0  0  0  0
 26 25  2  0  0  0  0
 28 26  1  0  0  0  0
 30 28  1  0  0  0  0
 30 32  1  0  0  0  0
 31 30  1  0  0  0  0
 33 30  1  0  0  0  0
 34 36  1  0  0  0  0
 34 37  1  0  0  0  0
 35 34  1  0  0  0  0
M  END
>  <minimizedAffinity>
-6.37841368

$$$$

 OpenBabel03272502503D

 37 39  0  0  0  0  0  0  0  0999 V2000
   36.3360   22.8860   31.7430 C   0  0  0  0  0  0  0  0  0  0  0  0
   37.0780   22.4240   32.8270 C   0  0  0  0  0  0  0  0  0  0  0  0
   37.8060   23.3710   33.5430 C   0  0  0  0  0  0  0  0  0  0  0  0
   37.7560   24.6710   33.1560 N   0  0  0  0  0  0  0  0  0  0  0  0
   37.0220   25.0710   32.0970 C   0  0  0  0  0  0  0  0  0  0  0  0
   36.3250   24.1730   31.4090 N   0  0  0  0  0  0  0  0  0  0  0  0
   35.7620   22.1720   31.1700 H   0  0  0  0  0  0  0  0  0  0  0  0
   37.1230   21.3900   33.1420 H   0  0  0  0  0  0  0  0  0  0  0  0
   38.6290   23.0100   34.7080 C   0  0  0  0  0  0  0  0  0  0  0  0
   39.8950   22.4850   34.6240 C   0  0  0  0  0  0  0  0  0  0  0  0
   40.4030   22.2520   35.8500 N   0  0  0  0  0  0  0  0  0  0  0  0
   39.4510   22.6320   36.7190 C   0  0  0  0  0  0  0  0  0  0  0  0
   38.4070   23.0780   36.0120 N   0  0  0  0  0  0  0  0  0  0  0  0
   38.6330   23.6340   38.7810 C   0  0  0  0  0  0  0  0  0  0  0  0
   38.0170   24.4710   38.1020 O   0  0  0  0  0  0  0  0  0  0  0  0
   39.4200   22.6190   38.1410 N   0  0  0  0  0  0  0  0  0  0  0  0
   40.4530   22.2700   33.7050 H   0  0  0  0  0  0  0  0  0  0  0  0
   41.3260   21.8640   36.1470 H   0  0  0  0  0  0  0  0  0  0  0  0
   38.5800   23.6620   39.8930 H   0  0  0  0  0  0  0  0  0  0  0  0
   39.9510   21.9000   38.6740 H   0  0  0  0  0  0  0  0  0  0  0  0
   38.9940   25.8300   30.0190 Cl  0  0  0  0  0  0  0  0  0  0  0  0
   37.8990   26.9500   30.7790 C   0  0  0  0  0  0  0  0  0  0  0  0
   37.0180   26.4940   31.7370 C   0  0  0  0  0  0  0  0  0  0  0  0
   36.1420   27.3500   32.3530 C   0  0  0  0  0  0  0  0  0  0  0  0
   36.1150   28.6860   32.0380 C   0  0  0  0  0  0  0  0  0  0  0  0
   36.9830   29.1640   31.0860 C   0  0  0  0  0  0  0  0  0  0  0  0
   37.0370   30.8540   30.6020 Cl  0  0  0  0  0  0  0  0  0  0  0  0
   37.8420   28.2710   30.4950 C   0  0  0  0  0  0  0  0  0  0  0  0
   35.4400   26.9950   33.1150 H   0  0  0  0  0  0  0  0  0  0  0  0
   38.7950   28.7790   29.4540 C   0  0  0  0  0  0  0  0  0  0  0  0
   40.1160   28.5090   29.8150 F   0  0  0  0  0  0  0  0  0  0  0  0
   38.7490   30.1780   29.3990 F   0  0  0  0  0  0  0  0  0  0  0  0
   38.5060   28.3330   28.1910 F   0  0  0  0  0  0  0  0  0  0  0  0
   35.1800   29.6520   32.6830 C   0  0  0  0  0  0  0  0  0  0  0  0
   34.3320   30.2540   31.8030 F   0  0  0  0  0  0  0  0  0  0  0  0
   34.4170   29.0080   33.6360 F   0  0  0  0  0  0  0  0  0  0  0  0
   35.9310   30.5980   33.3920 F   0  0  0  0  0  0  0  0  0  0  0  0
  1  2  1  0  0  0  0
  2  8  1  0  0  0  0
  2  3  2  0  0  0  0
  3  9  1  0  0  0  0
  4  3  1  0  0  0  0
  5  4  2  0  0  0  0
  6  1  2  0  0  0  0
  6  5  1  0  0  0  0
  7  1  1  0  0  0  0
  9 13  1  0  0  0  0
 10  9  2  0  0  0  0
 10 11  1  0  0  0  0
 11 18  1  0  0  0  0
 11 12  1  0  0  0  0
 12 16  1  0  0  0  0
 13 12  2  0  0  0  0
 14 19  1  0  0  0  0
 15 14  2  0  0  0  0
 16 20  1  0  0  0  0
 16 14  1  0  0  0  0
 17 10  1  0  0  0  0
 21 22  1  0  0  0  0
 22 23  1  0  0  0  0
 23  5  1  0  0  0  0
 23 24  2  0  0  0  0
 24 29  1  0  0  0  0
 25 24  1  0  0  0  0
 25 34  1  0  0  0  0
 26 25  2  0  0  0  0
 27 26  1  0  0  0  0
 28 22  2  0  0  0  0
 28 26  1  0  0  0  0
 30 31  1  0  0  0  0
 30 28  1  0  0  0  0
 32 30  1  0  0  0  0
 33 30  1  0  0  0  0
 34 37  1  0  0  0  0
 34 36  1  0  0  0  0
 35 34  1  0  0  0  0
M  END
>  <minimizedAffinity>
-6.36201715

$$$$

 OpenBabel03272502503D

 37 39  0  0  0  0  0  0  0  0999 V2000
   35.6630   24.8780   31.1620 C   0  0  0  0  0  0  0  0  0  0  0  0
   36.5480   24.2050   32.0010 C   0  0  0  0  0  0  0  0  0  0  0  0
   37.3060   24.9830   32.8730 C   0  0  0  0  0  0  0  0  0  0  0  0
   37.1480   26.3300   32.8620 N   0  0  0  0  0  0  0  0  0  0  0  0
   36.2770   26.9380   32.0290 C   0  0  0  0  0  0  0  0  0  0  0  0
   35.5500   26.2030   31.1940 N   0  0  0  0  0  0  0  0  0  0  0  0
   35.0630   24.2990   30.4750 H   0  0  0  0  0  0  0  0  0  0  0  0
   36.6800   23.1310   32.0160 H   0  0  0  0  0  0  0  0  0  0  0  0
   38.2750   24.3910   33.8080 C   0  0  0  0  0  0  0  0  0  0  0  0
   39.6120   24.2300   33.5350 C   0  0  0  0  0  0  0  0  0  0  0  0
   40.2510   23.6610   34.5750 N   0  0  0  0  0  0  0  0  0  0  0  0
   39.3140   23.4580   35.5160 C   0  0  0  0  0  0  0  0  0  0  0  0
   38.1480   23.9010   35.0330 N   0  0  0  0  0  0  0  0  0  0  0  0
   38.4740   23.3840   37.7990 C   0  0  0  0  0  0  0  0  0  0  0  0
   37.6490   24.2610   37.4990 O   0  0  0  0  0  0  0  0  0  0  0  0
   39.3990   22.8930   36.8190 N   0  0  0  0  0  0  0  0  0  0  0  0
   40.1270   24.5130   32.6100 H   0  0  0  0  0  0  0  0  0  0  0  0
   41.2550   23.4010   34.7030 H   0  0  0  0  0  0  0  0  0  0  0  0
   38.5050   22.9700   38.8320 H   0  0  0  0  0  0  0  0  0  0  0  0
   40.1060   22.1590   37.0300 H   0  0  0  0  0  0  0  0  0  0  0  0
   37.2240   28.3310   29.5910 Cl  0  0  0  0  0  0  0  0  0  0  0  0
   36.5740   29.1430   30.9870 C   0  0  0  0  0  0  0  0  0  0  0  0
   36.1600   28.4000   32.0730 C   0  0  0  0  0  0  0  0  0  0  0  0
   35.6440   29.0100   33.1870 C   0  0  0  0  0  0  0  0  0  0  0  0
   35.5230   30.3750   33.2580 C   0  0  0  0  0  0  0  0  0  0  0  0
   35.9280   31.1360   32.1880 C   0  0  0  0  0  0  0  0  0  0  0  0
   35.8200   32.8920   32.1670 Cl  0  0  0  0  0  0  0  0  0  0  0  0
   36.4390   30.4850   31.0940 C   0  0  0  0  0  0  0  0  0  0  0  0
   35.3140   28.4260   34.0540 H   0  0  0  0  0  0  0  0  0  0  0  0
   36.8850   31.3030   29.9180 C   0  0  0  0  0  0  0  0  0  0  0  0
   35.8960   32.2130   29.5430 F   0  0  0  0  0  0  0  0  0  0  0  0
   37.0270   30.4880   28.7890 F   0  0  0  0  0  0  0  0  0  0  0  0
   38.0970   31.9120   30.1120 F   0  0  0  0  0  0  0  0  0  0  0  0
   34.9670   31.0790   34.4490 C   0  0  0  0  0  0  0  0  0  0  0  0
   35.8900   31.8280   35.1150 F   0  0  0  0  0  0  0  0  0  0  0  0
   33.9370   31.9130   34.0680 F   0  0  0  0  0  0  0  0  0  0  0  0
   34.3780   30.1300   35.2950 F   0  0  0  0  0  0  0  0  0  0  0  0
  1  6  2  0  0  0  0
  1  2  1  0  0  0  0
  2  8  1  0  0  0  0
  2  3  2  0  0  0  0
  3  9  1  0  0  0  0
  4  3  1  0  0  0  0
  5 23  1  0  0  0  0
  5  4  2  0  0  0  0
  6  5  1  0  0  0  0
  7  1  1  0  0  0  0
  9 13  1  0  0  0  0
 10  9  2  0  0  0  0
 10 11  1  0  0  0  0
 11 18  1  0  0  0  0
 11 12  1  0  0  0  0
 12 16  1  0  0  0  0
 13 12  2  0  0  0  0
 14 19  1  0  0  0  0
 15 14  2  0  0  0  0
 16 20  1  0  0  0  0
 16 14  1  0  0  0  0
 17 10  1  0  0  0  0
 21 22  1  0  0  0  0
 22 28  2  0  0  0  0
 22 23  1  0  0  0  0
 23 24  2  0  0  0  0
 24 25  1  0  0  0  0
 24 29  1  0  0  0  0
 25 34  1  0  0  0  0
 26 25  2  0  0  0  0
 27 26  1  0  0  0  0
 28 26  1  0  0  0  0
 30 33  1  0  0  0  0
 30 28  1  0  0  0  0
 31 30  1  0  0  0  0
 32 30  1  0  0  0  0
 34 35  1  0  0  0  0
 34 37  1  0  0  0  0
 36 34  1  0  0  0  0
M  END
>  <minimizedAffinity>
-6.20990181

$$$$

 OpenBabel03272502503D

 37 39  0  0  0  0  0  0  0  0999 V2000
   39.1570   22.6660   36.5970 C   0  0  0  0  0  0  0  0  0  0  0  0
   38.8310   24.0200   36.6040 C   0  0  0  0  0  0  0  0  0  0  0  0
   38.2180   24.5270   35.4590 C   0  0  0  0  0  0  0  0  0  0  0  0
   37.9760   23.6930   34.4170 N   0  0  0  0  0  0  0  0  0  0  0  0
   38.3110   22.3860   34.4570 C   0  0  0  0  0  0  0  0  0  0  0  0
   38.8960   21.8960   35.5440 N   0  0  0  0  0  0  0  0  0  0  0  0
   39.6340   22.2460   37.4710 H   0  0  0  0  0  0  0  0  0  0  0  0
   39.0200   24.6920   37.4300 H   0  0  0  0  0  0  0  0  0  0  0  0
   37.8250   25.9400   35.3430 C   0  0  0  0  0  0  0  0  0  0  0  0
   38.3140   26.9450   36.1420 C   0  0  0  0  0  0  0  0  0  0  0  0
   37.7740   28.1330   35.8060 N   0  0  0  0  0  0  0  0  0  0  0  0
   36.9360   27.8800   34.7870 C   0  0  0  0  0  0  0  0  0  0  0  0
   36.9860   26.5690   34.5330 N   0  0  0  0  0  0  0  0  0  0  0  0
   35.8490   28.3690   32.6650 C   0  0  0  0  0  0  0  0  0  0  0  0
   36.3570   27.3400   32.1950 O   0  0  0  0  0  0  0  0  0  0  0  0
   36.0950   28.7420   34.0290 N   0  0  0  0  0  0  0  0  0  0  0  0
   39.0450   26.8360   36.9520 H   0  0  0  0  0  0  0  0  0  0  0  0
   37.9220   29.0880   36.2020 H   0  0  0  0  0  0  0  0  0  0  0  0
   35.1960   29.0150   32.0350 H   0  0  0  0  0  0  0  0  0  0  0  0
   35.6880   29.5960   34.4610 H   0  0  0  0  0  0  0  0  0  0  0  0
   35.7670   20.8770   34.6260 Cl  0  0  0  0  0  0  0  0  0  0  0  0
   36.8570   20.8020   33.2710 C   0  0  0  0  0  0  0  0  0  0  0  0
   38.0180   21.5450   33.2910 C   0  0  0  0  0  0  0  0  0  0  0  0
   38.8970   21.5070   32.2390 C   0  0  0  0  0  0  0  0  0  0  0  0
   38.6500   20.7290   31.1360 C   0  0  0  0  0  0  0  0  0  0  0  0
   37.4990   19.9800   31.0920 C   0  0  0  0  0  0  0  0  0  0  0  0
   37.0790   18.9480   29.7300 Cl  0  0  0  0  0  0  0  0  0  0  0  0
   36.6480   20.0480   32.1670 C   0  0  0  0  0  0  0  0  0  0  0  0
   39.8210   22.0950   32.2480 H   0  0  0  0  0  0  0  0  0  0  0  0
   35.3880   19.2350   32.1330 C   0  0  0  0  0  0  0  0  0  0  0  0
   35.2860   18.5270   30.9350 F   0  0  0  0  0  0  0  0  0  0  0  0
   34.2700   20.0790   32.1120 F   0  0  0  0  0  0  0  0  0  0  0  0
   35.2390   18.4220   33.2250 F   0  0  0  0  0  0  0  0  0  0  0  0
   39.5770   20.6590   29.9700 C   0  0  0  0  0  0  0  0  0  0  0  0
   39.0020   21.0420   28.7960 F   0  0  0  0  0  0  0  0  0  0  0  0
   40.6750   21.4660   30.1880 F   0  0  0  0  0  0  0  0  0  0  0  0
   40.0890   19.3580   29.8830 F   0  0  0  0  0  0  0  0  0  0  0  0
  1  2  1  0  0  0  0
  1  7  1  0  0  0  0
  2  8  1  0  0  0  0
  3  2  2  0  0  0  0
  4  5  2  0  0  0  0
  4  3  1  0  0  0  0
  5  6  1  0  0  0  0
  6  1  2  0  0  0  0
  9  3  1  0  0  0  0
  9 10  2  0  0  0  0
 10 17  1  0  0  0  0
 11 10  1  0  0  0  0
 11 18  1  0  0  0  0
 12 11  1  0  0  0  0
 13 12  2  0  0  0  0
 13  9  1  0  0  0  0
 14 16  1  0  0  0  0
 15 14  2  0  0  0  0
 16 20  1  0  0  0  0
 16 12  1  0  0  0  0
 19 14  1  0  0  0  0
 22 23  1  0  0  0  0
 22 21  1  0  0  0  0
 23  5  1  0  0  0  0
 24 29  1  0  0  0  0
 24 23  2  0  0  0  0
 25 24  1  0  0  0  0
 26 25  2  0  0  0  0
 26 28  1  0  0  0  0
 27 26  1  0  0  0  0
 28 22  2  0  0  0  0
 30 28  1  0  0  0  0
 30 33  1  0  0  0  0
 31 30  1  0  0  0  0
 32 30  1  0  0  0  0
 34 36  1  0  0  0  0
 34 25  1  0  0  0  0
 35 34  1  0  0  0  0
 37 34  1  0  0  0  0
M  END
>  <minimizedAffinity>
-6.19809198

$$$$

 OpenBabel03272502503D

 37 39  0  0  0  0  0  0  0  0999 V2000
   36.9930   28.6960   30.0240 C   0  0  0  0  0  0  0  0  0  0  0  0
   36.1980   29.5880   30.7400 C   0  0  0  0  0  0  0  0  0  0  0  0
   35.7150   29.1530   31.9730 C   0  0  0  0  0  0  0  0  0  0  0  0
   36.0370   27.9070   32.4050 N   0  0  0  0  0  0  0  0  0  0  0  0
   36.8110   27.0780   31.6740 C   0  0  0  0  0  0  0  0  0  0  0  0
   37.2750   27.4860   30.4980 N   0  0  0  0  0  0  0  0  0  0  0  0
   37.3810   29.0080   29.0650 H   0  0  0  0  0  0  0  0  0  0  0  0
   35.9370   30.5830   30.4040 H   0  0  0  0  0  0  0  0  0  0  0  0
   34.8650   30.0010   32.8240 C   0  0  0  0  0  0  0  0  0  0  0  0
   33.4960   30.0550   32.7360 C   0  0  0  0  0  0  0  0  0  0  0  0
   32.9880   30.9170   33.6380 N   0  0  0  0  0  0  0  0  0  0  0  0
   34.0440   31.4140   34.3040 C   0  0  0  0  0  0  0  0  0  0  0  0
   35.1470   30.8530   33.7990 N   0  0  0  0  0  0  0  0  0  0  0  0
   35.2150   32.2130   36.2830 C   0  0  0  0  0  0  0  0  0  0  0  0
   36.0360   31.2940   36.1380 O   0  0  0  0  0  0  0  0  0  0  0  0
   34.1240   32.3610   35.3630 N   0  0  0  0  0  0  0  0  0  0  0  0
   32.8640   29.4890   32.0410 H   0  0  0  0  0  0  0  0  0  0  0  0
   32.0020   31.1940   33.8410 H   0  0  0  0  0  0  0  0  0  0  0  0
   35.3160   32.9320   37.1270 H   0  0  0  0  0  0  0  0  0  0  0  0
   33.4140   33.1170   35.4490 H   0  0  0  0  0  0  0  0  0  0  0  0
   38.9070   27.0300   33.7680 Cl  0  0  0  0  0  0  0  0  0  0  0  0
   38.0780   25.6150   33.1850 C   0  0  0  0  0  0  0  0  0  0  0  0
   37.1170   25.7450   32.2060 C   0  0  0  0  0  0  0  0  0  0  0  0
   36.4470   24.6490   31.7260 C   0  0  0  0  0  0  0  0  0  0  0  0
   36.7120   23.3900   32.2030 C   0  0  0  0  0  0  0  0  0  0  0  0
   37.6650   23.2350   33.1800 C   0  0  0  0  0  0  0  0  0  0  0  0
   38.0870   21.6700   33.8650 Cl  0  0  0  0  0  0  0  0  0  0  0  0
   38.3120   24.3590   33.6310 C   0  0  0  0  0  0  0  0  0  0  0  0
   35.6820   24.7460   30.9480 H   0  0  0  0  0  0  0  0  0  0  0  0
   39.3550   24.2040   34.6970 C   0  0  0  0  0  0  0  0  0  0  0  0
   40.4550   23.4920   34.2160 F   0  0  0  0  0  0  0  0  0  0  0  0
   38.8700   23.3970   35.7340 F   0  0  0  0  0  0  0  0  0  0  0  0
   39.7230   25.3920   35.2710 F   0  0  0  0  0  0  0  0  0  0  0  0
   36.0070   22.1720   31.7100 C   0  0  0  0  0  0  0  0  0  0  0  0
   35.2540   21.5590   32.6650 F   0  0  0  0  0  0  0  0  0  0  0  0
   35.1770   22.4980   30.6580 F   0  0  0  0  0  0  0  0  0  0  0  0
   36.9560   21.2930   31.1710 F   0  0  0  0  0  0  0  0  0  0  0  0
  1  6  2  0  0  0  0
  1  2  1  0  0  0  0
  2  3  2  0  0  0  0
  3  4  1  0  0  0  0
  3  9  1  0  0  0  0
  5 23  1  0  0  0  0
  5  4  2  0  0  0  0
  6  5  1  0  0  0  0
  7  1  1  0  0  0  0
  8  2  1  0  0  0  0
  9 13  1  0  0  0  0
 10  9  2  0  0  0  0
 10 11  1  0  0  0  0
 11 18  1  0  0  0  0
 11 12  1  0  0  0  0
 12 16  1  0  0  0  0
 13 12  2  0  0  0  0
 14 19  1  0  0  0  0
 15 14  2  0  0  0  0
 16 20  1  0  0  0  0
 16 14  1  0  0  0  0
 17 10  1  0  0  0  0
 22 28  1  0  0  0  0
 22 21  1  0  0  0  0
 23 22  2  0  0  0  0
 24 25  2  0  0  0  0
 24 23  1  0  0  0  0
 25 26  1  0  0  0  0
 26 28  2  0  0  0  0
 26 27  1  0  0  0  0
 28 30  1  0  0  0  0
 29 24  1  0  0  0  0
 30 33  1  0  0  0  0
 30 32  1  0  0  0  0
 31 30  1  0  0  0  0
 34 25  1  0  0  0  0
 34 35  1  0  0  0  0
 36 34  1  0  0  0  0
 37 34  1  0  0  0  0
M  END
>  <minimizedAffinity>
-6.17304087

$$$$

 OpenBabel03272502503D

 37 39  0  0  0  0  0  0  0  0999 V2000
   36.8980   28.9800   30.4980 C   0  0  0  0  0  0  0  0  0  0  0  0
   36.0150   29.7510   31.2500 C   0  0  0  0  0  0  0  0  0  0  0  0
   35.4940   29.1670   32.4030 C   0  0  0  0  0  0  0  0  0  0  0  0
   35.8660   27.9030   32.7280 N   0  0  0  0  0  0  0  0  0  0  0  0
   36.7250   27.1960   31.9660 C   0  0  0  0  0  0  0  0  0  0  0  0
   37.2270   27.7450   30.8660 N   0  0  0  0  0  0  0  0  0  0  0  0
   37.3170   29.4080   29.5980 H   0  0  0  0  0  0  0  0  0  0  0  0
   35.7130   30.7590   30.9980 H   0  0  0  0  0  0  0  0  0  0  0  0
   34.5510   29.8770   33.2820 C   0  0  0  0  0  0  0  0  0  0  0  0
   33.1970   29.6490   33.3050 C   0  0  0  0  0  0  0  0  0  0  0  0
   32.5890   30.4450   34.2060 N   0  0  0  0  0  0  0  0  0  0  0  0
   33.5660   31.1840   34.7600 C   0  0  0  0  0  0  0  0  0  0  0  0
   34.7210   30.8260   34.1910 N   0  0  0  0  0  0  0  0  0  0  0  0
   34.6860   32.3210   36.5970 C   0  0  0  0  0  0  0  0  0  0  0  0
   35.6660   31.5790   36.4270 O   0  0  0  0  0  0  0  0  0  0  0  0
   33.5250   32.1900   35.7650 N   0  0  0  0  0  0  0  0  0  0  0  0
   32.6470   28.9270   32.6910 H   0  0  0  0  0  0  0  0  0  0  0  0
   31.5840   30.5300   34.4770 H   0  0  0  0  0  0  0  0  0  0  0  0
   34.6980   33.0950   37.3970 H   0  0  0  0  0  0  0  0  0  0  0  0
   32.6830   32.7920   35.8750 H   0  0  0  0  0  0  0  0  0  0  0  0
   35.0880   25.0570   30.7320 Cl  0  0  0  0  0  0  0  0  0  0  0  0
   36.3780   24.7660   31.8630 C   0  0  0  0  0  0  0  0  0  0  0  0
   37.0810   25.8340   32.3810 C   0  0  0  0  0  0  0  0  0  0  0  0
   38.1030   25.6380   33.2740 C   0  0  0  0  0  0  0  0  0  0  0  0
   38.4570   24.3760   33.6810 C   0  0  0  0  0  0  0  0  0  0  0  0
   37.7730   23.2960   33.1790 C   0  0  0  0  0  0  0  0  0  0  0  0
   38.1400   21.6360   33.6290 Cl  0  0  0  0  0  0  0  0  0  0  0  0
   36.7570   23.5390   32.2880 C   0  0  0  0  0  0  0  0  0  0  0  0
   38.6650   26.4810   33.6900 H   0  0  0  0  0  0  0  0  0  0  0  0
   36.0010   22.3690   31.7310 C   0  0  0  0  0  0  0  0  0  0  0  0
   36.8710   21.4450   31.1520 F   0  0  0  0  0  0  0  0  0  0  0  0
   35.1970   22.7800   30.6600 F   0  0  0  0  0  0  0  0  0  0  0  0
   35.1620   21.7840   32.6420 F   0  0  0  0  0  0  0  0  0  0  0  0
   39.5620   24.1180   34.6500 C   0  0  0  0  0  0  0  0  0  0  0  0
   40.5620   23.3490   34.1370 F   0  0  0  0  0  0  0  0  0  0  0  0
   40.1140   25.3110   35.0680 F   0  0  0  0  0  0  0  0  0  0  0  0
   39.0190   23.5390   35.8040 F   0  0  0  0  0  0  0  0  0  0  0  0
  1  6  2  0  0  0  0
  1  2  1  0  0  0  0
  2  3  2  0  0  0  0
  3  4  1  0  0  0  0
  3  9  1  0  0  0  0
  5 23  1  0  0  0  0
  5  4  2  0  0  0  0
  6  5  1  0  0  0  0
  7  1  1  0  0  0  0
  8  2  1  0  0  0  0
  9 10  2  0  0  0  0
  9 13  1  0  0  0  0
 10 11  1  0  0  0  0
 11 18  1  0  0  0  0
 11 12  1  0  0  0  0
 12 16  1  0  0  0  0
 13 12  2  0  0  0  0
 14 19  1  0  0  0  0
 15 14  2  0  0  0  0
 16 20  1  0  0  0  0
 16 14  1  0  0  0  0
 17 10  1  0  0  0  0
 21 22  1  0  0  0  0
 22 28  2  0  0  0  0
 22 23  1  0  0  0  0
 23 24  2  0  0  0  0
 24 25  1  0  0  0  0
 24 29  1  0  0  0  0
 25 34  1  0  0  0  0
 26 27  1  0  0  0  0
 26 25  2  0  0  0  0
 28 26  1  0  0  0  0
 30 28  1  0  0  0  0
 30 33  1  0  0  0  0
 31 30  1  0  0  0  0
 32 30  1  0  0  0  0
 34 36  1  0  0  0  0
 34 37  1  0  0  0  0
 35 34  1  0  0  0  0
M  END
>  <minimizedAffinity>
-6.16786909

$$$$
