
 OpenBabel03272509533D

 38 40  0  0  0  0  0  0  0  0999 V2000
   37.1460   30.0150   51.2820 C   0  0  0  0  0  0  0  0  0  0  0  0
   37.9540   30.7870   50.4230 C   0  0  0  0  0  0  0  0  0  0  0  0
   37.7140   30.7140   49.0690 C   0  0  0  0  0  0  0  0  0  0  0  0
   36.6950   29.8820   48.6710 N   0  0  0  0  0  0  0  0  0  0  0  0
   35.9480   29.1630   49.5040 C   0  0  0  0  0  0  0  0  0  0  0  0
   36.1720   29.2280   50.8260 N   0  0  0  0  0  0  0  0  0  0  0  0
   37.3590   30.0950   52.3400 H   0  0  0  0  0  0  0  0  0  0  0  0
   38.7320   31.4200   50.7540 H   0  0  0  0  0  0  0  0  0  0  0  0
   38.8040   33.3920   49.1880 F   0  0  0  0  0  0  0  0  0  0  0  0
   38.9470   32.6750   48.0800 C   0  0  0  0  0  0  0  0  0  0  0  0
   38.4320   31.4260   48.0430 C   0  0  0  0  0  0  0  0  0  0  0  0
   38.6470   30.7720   46.8240 C   0  0  0  0  0  0  0  0  0  0  0  0
   39.3140   31.3520   45.7830 C   0  0  0  0  0  0  0  0  0  0  0  0
   39.8170   32.6170   45.8690 C   0  0  0  0  0  0  0  0  0  0  0  0
   39.6230   33.2800   47.0440 C   0  0  0  0  0  0  0  0  0  0  0  0
   38.2670   29.7500   46.6900 H   0  0  0  0  0  0  0  0  0  0  0  0
   39.4400   30.7700   44.8600 H   0  0  0  0  0  0  0  0  0  0  0  0
   40.3380   33.0360   45.0200 H   0  0  0  0  0  0  0  0  0  0  0  0
   40.0160   34.2900   47.1340 H   0  0  0  0  0  0  0  0  0  0  0  0
   35.0000   28.4180   48.8590 O   0  0  0  0  0  0  0  0  0  0  0  0
   34.2430   29.0240   47.8220 C   0  0  0  0  0  0  0  0  0  0  0  0
   34.8900   29.5730   47.1050 H   0  0  0  0  0  0  0  0  0  0  0  0
   33.5650   29.7720   48.2870 H   0  0  0  0  0  0  0  0  0  0  0  0
   33.3700   28.0020   47.1450 C   0  0  0  0  0  0  0  0  0  0  0  0
   33.4590   28.1730   46.0530 H   0  0  0  0  0  0  0  0  0  0  0  0
   33.7320   26.9630   47.3120 H   0  0  0  0  0  0  0  0  0  0  0  0
   31.9550   28.0920   47.5630 C   0  0  0  0  0  0  0  0  0  0  0  0
   31.6000   27.5130   48.7810 C   0  0  0  0  0  0  0  0  0  0  0  0
   30.3160   27.5450   49.2520 C   0  0  0  0  0  0  0  0  0  0  0  0
   29.3740   28.1430   48.5360 N   0  0  0  0  0  0  0  0  0  0  0  0
   29.7200   28.7120   47.3410 C   0  0  0  0  0  0  0  0  0  0  0  0
   30.9840   28.7020   46.8380 N   0  0  0  0  0  0  0  0  0  0  0  0
   32.3690   27.0190   49.3750 H   0  0  0  0  0  0  0  0  0  0  0  0
   30.0740   27.0860   50.2000 H   0  0  0  0  0  0  0  0  0  0  0  0
   28.7320   29.4100   46.4600 C   0  0  0  0  0  0  0  0  0  0  0  0
   28.0080   28.4420   45.7520 F   0  0  0  0  0  0  0  0  0  0  0  0
   29.3280   30.2810   45.5890 F   0  0  0  0  0  0  0  0  0  0  0  0
   27.7930   30.0830   47.2140 F   0  0  0  0  0  0  0  0  0  0  0  0
  1  7  1  0  0  0  0
  2  8  1  0  0  0  0
  2  1  2  0  0  0  0
  3  2  1  0  0  0  0
  4  3  2  0  0  0  0
  4  5  1  0  0  0  0
  5  6  2  0  0  0  0
  6  1  1  0  0  0  0
 10  9  1  0  0  0  0
 11 10  1  0  0  0  0
 11  3  1  0  0  0  0
 12 11  2  0  0  0  0
 13 14  2  0  0  0  0
 13 12  1  0  0  0  0
 14 15  1  0  0  0  0
 15 19  1  0  0  0  0
 15 10  2  0  0  0  0
 16 12  1  0  0  0  0
 17 13  1  0  0  0  0
 18 14  1  0  0  0  0
 20  5  1  0  0  0  0
 21 23  1  0  0  0  0
 21 20  1  0  0  0  0
 22 21  1  0  0  0  0
 24 26  1  0  0  0  0
 24 27  1  0  0  0  0
 24 21  1  0  0  0  0
 25 24  1  0  0  0  0
 27 28  1  0  0  0  0
 28 29  2  0  0  0  0
 28 33  1  0  0  0  0
 29 34  1  0  0  0  0
 30 29  1  0  0  0  0
 31 30  2  0  0  0  0
 32 31  1  0  0  0  0
 32 27  2  0  0  0  0
 35 38  1  0  0  0  0
 35 31  1  0  0  0  0
 36 35  1  0  0  0  0
 37 35  1  0  0  0  0
M  END
>  <minimizedAffinity>
-6.41837168

>  <minimizedRMSD>
0.750956059

$$$$
