
 OpenBabel03272508443D

 22 23  0  0  0  0  0  0  0  0999 V2000
   35.1190   29.6620   49.9350 C   0  0  0  0  0  0  0  0  0  0  0  0
   34.6000   29.3330   51.0240 O   0  0  0  0  0  0  0  0  0  0  0  0
   32.8840   28.1440   47.5090 C   0  0  0  0  0  0  0  0  0  0  0  0
   33.3000   28.6710   46.2920 C   0  0  0  0  0  0  0  0  0  0  0  0
   34.3690   29.5680   46.2900 C   0  0  0  0  0  0  0  0  0  0  0  0
   34.9300   29.8620   47.4920 N   0  0  0  0  0  0  0  0  0  0  0  0
   34.5110   29.3390   48.6580 C   0  0  0  0  0  0  0  0  0  0  0  0
   33.4760   28.4720   48.6540 N   0  0  0  0  0  0  0  0  0  0  0  0
   32.0600   27.4430   47.5760 H   0  0  0  0  0  0  0  0  0  0  0  0
   32.7510   28.3360   45.4360 H   0  0  0  0  0  0  0  0  0  0  0  0
   34.6760   29.9620   45.3540 H   0  0  0  0  0  0  0  0  0  0  0  0
   36.3920   30.4030   49.9650 C   0  0  0  0  0  0  0  0  0  0  0  0
   37.5260   29.9410   50.6170 C   0  0  0  0  0  0  0  0  0  0  0  0
   38.4420   30.9650   50.3660 C   0  0  0  0  0  0  0  0  0  0  0  0
   37.8420   31.9610   49.6020 C   0  0  0  0  0  0  0  0  0  0  0  0
   36.6150   31.5740   49.3910 O   0  0  0  0  0  0  0  0  0  0  0  0
   37.6070   29.0290   51.1540 H   0  0  0  0  0  0  0  0  0  0  0  0
   39.4740   30.9480   50.7350 H   0  0  0  0  0  0  0  0  0  0  0  0
   38.5600   33.1880   49.1660 C   0  0  0  0  0  0  0  0  0  0  0  0
   39.4920   33.5600   50.1250 F   0  0  0  0  0  0  0  0  0  0  0  0
   39.2680   32.9270   47.9930 F   0  0  0  0  0  0  0  0  0  0  0  0
   37.7130   34.2640   49.0030 F   0  0  0  0  0  0  0  0  0  0  0  0
  1 12  1  0  0  0  0
  1  2  2  0  0  0  0
  3  9  1  0  0  0  0
  3  8  1  0  0  0  0
  4  3  2  0  0  0  0
  5  4  1  0  0  0  0
  5  6  2  0  0  0  0
  6  7  1  0  0  0  0
  7  1  1  0  0  0  0
  8  7  2  0  0  0  0
 10  4  1  0  0  0  0
 11  5  1  0  0  0  0
 12 13  2  0  0  0  0
 13 17  1  0  0  0  0
 14 13  1  0  0  0  0
 14 18  1  0  0  0  0
 15 14  2  0  0  0  0
 16 15  1  0  0  0  0
 16 12  1  0  0  0  0
 19 15  1  0  0  0  0
 19 20  1  0  0  0  0
 21 19  1  0  0  0  0
 22 19  1  0  0  0  0
M  END
>  <minimizedAffinity>
-5.27068281

>  <minimizedRMSD>
1.40878999

$$$$
