
 OpenBabel03272510093D

 22 23  0  0  0  0  0  0  0  0999 V2000
   38.0140   31.1020   48.3450 C   0  0  0  0  0  0  0  0  0  0  0  0
   38.5950   32.3560   48.4500 C   0  0  0  0  0  0  0  0  0  0  0  0
   39.3060   32.9850   47.4550 C   0  0  0  0  0  0  0  0  0  0  0  0
   39.4670   32.3280   46.2420 C   0  0  0  0  0  0  0  0  0  0  0  0
   38.8880   31.0910   46.1530 C   0  0  0  0  0  0  0  0  0  0  0  0
   38.1980   30.5040   47.1470 N   0  0  0  0  0  0  0  0  0  0  0  0
   38.4580   32.8610   49.4140 H   0  0  0  0  0  0  0  0  0  0  0  0
   39.7220   33.9680   47.6350 H   0  0  0  0  0  0  0  0  0  0  0  0
   39.0020   30.5570   45.2100 H   0  0  0  0  0  0  0  0  0  0  0  0
   37.6650   30.5150   50.7610 C   0  0  0  0  0  0  0  0  0  0  0  0
   37.2740   30.4790   49.4170 C   0  0  0  0  0  0  0  0  0  0  0  0
   36.0970   29.7980   49.0830 C   0  0  0  0  0  0  0  0  0  0  0  0
   35.3930   29.2070   50.0930 N   0  0  0  0  0  0  0  0  0  0  0  0
   35.8100   29.2690   51.3830 C   0  0  0  0  0  0  0  0  0  0  0  0
   36.9300   29.9120   51.7250 N   0  0  0  0  0  0  0  0  0  0  0  0
   38.5860   31.0670   50.9010 H   0  0  0  0  0  0  0  0  0  0  0  0
   35.7290   29.7240   48.0710 H   0  0  0  0  0  0  0  0  0  0  0  0
   35.2280   28.7880   52.1670 H   0  0  0  0  0  0  0  0  0  0  0  0
   40.2300   32.9710   45.1350 C   0  0  0  0  0  0  0  0  0  0  0  0
   41.5710   32.6250   45.3050 F   0  0  0  0  0  0  0  0  0  0  0  0
   39.8310   32.5140   43.9040 F   0  0  0  0  0  0  0  0  0  0  0  0
   40.1050   34.3320   45.2360 F   0  0  0  0  0  0  0  0  0  0  0  0
  1  2  1  0  0  0  0
  1 11  1  0  0  0  0
  2  7  1  0  0  0  0
  3  8  1  0  0  0  0
  3  2  2  0  0  0  0
  4  3  1  0  0  0  0
  5  4  2  0  0  0  0
  5  6  1  0  0  0  0
  6  1  2  0  0  0  0
  9  5  1  0  0  0  0
 10 16  1  0  0  0  0
 10 15  1  0  0  0  0
 11 10  2  0  0  0  0
 12 11  1  0  0  0  0
 12 13  2  0  0  0  0
 13 14  1  0  0  0  0
 14 15  2  0  0  0  0
 14 18  1  0  0  0  0
 17 12  1  0  0  0  0
 19 22  1  0  0  0  0
 19 20  1  0  0  0  0
 19  4  1  0  0  0  0
 21 19  1  0  0  0  0
M  END
>  <minimizedAffinity>
-5.65706301

>  <minimizedRMSD>
1.72862041

$$$$
