
 OpenBabel03272503283D

 28 29  0  0  1  0  0  0  0  0999 V2000
   37.6120   22.8450   33.5450 N   0  0  0  0  0  0  0  0  0  0  0  0
   37.6130   21.4050   33.6170 C   0  0  0  0  0  0  0  0  0  0  0  0
   36.6130   21.0070   32.5590 C   0  0  2  0  0  0  0  0  0  0  0  0
   36.0200   22.3200   32.0320 C   0  0  0  0  0  0  0  0  0  0  0  0
   37.2690   23.1910   32.1980 C   0  0  0  0  0  0  0  0  0  0  0  0
   38.6470   21.0710   33.3680 H   0  0  0  0  0  0  0  0  0  0  0  0
   37.3090   20.9860   34.5810 H   0  0  0  0  0  0  0  0  0  0  0  0
   37.1440   20.5110   31.7280 H   0  0  0  0  0  0  0  0  0  0  0  0
   35.7760   22.1910   30.9670 H   0  0  0  0  0  0  0  0  0  0  0  0
   35.2190   22.7130   32.6640 H   0  0  0  0  0  0  0  0  0  0  0  0
   36.9360   24.2510   32.1710 H   0  0  0  0  0  0  0  0  0  0  0  0
   38.0150   22.9530   31.4350 H   0  0  0  0  0  0  0  0  0  0  0  0
   37.8970   23.7500   34.6080 C   0  0  0  0  0  0  0  0  0  0  0  0
   38.1310   25.0940   34.2590 C   0  0  0  0  0  0  0  0  0  0  0  0
   38.4110   25.9760   35.3190 C   0  0  0  0  0  0  0  0  0  0  0  0
   38.4300   25.4560   36.5960 N   0  0  0  0  0  0  0  0  0  0  0  0
   38.2010   24.1700   36.8890 C   0  0  0  0  0  0  0  0  0  0  0  0
   37.9330   23.3220   35.8750 N   0  0  0  0  0  0  0  0  0  0  0  0
   38.1130   25.4860   33.2620 H   0  0  0  0  0  0  0  0  0  0  0  0
   38.6050   27.0240   35.1650 H   0  0  0  0  0  0  0  0  0  0  0  0
   38.2620   23.7890   38.3160 C   0  0  0  0  0  0  0  0  0  0  0  0
   39.5240   23.2910   38.5770 F   0  0  0  0  0  0  0  0  0  0  0  0
   37.2840   22.9050   38.6980 F   0  0  0  0  0  0  0  0  0  0  0  0
   38.0310   24.9490   39.0650 F   0  0  0  0  0  0  0  0  0  0  0  0
   35.5590   20.0680   33.0710 C   0  0  0  0  0  0  0  0  0  0  0  0
   34.3960   20.3730   32.3730 F   0  0  0  0  0  0  0  0  0  0  0  0
   35.3520   20.3930   34.3870 F   0  0  0  0  0  0  0  0  0  0  0  0
   35.8900   18.7480   32.9460 F   0  0  0  0  0  0  0  0  0  0  0  0
  1  2  1  0  0  0  0
  1 13  1  0  0  0  0
  2  7  1  0  0  0  0
  3  8  1  6  0  0  0
  3 25  1  0  0  0  0
  3  2  1  0  0  0  0
  4  5  1  0  0  0  0
  4  3  1  0  0  0  0
  4 10  1  0  0  0  0
  5  1  1  0  0  0  0
  6  2  1  0  0  0  0
  9  4  1  0  0  0  0
 11  5  1  0  0  0  0
 12  5  1  0  0  0  0
 13 18  1  0  0  0  0
 14 13  2  0  0  0  0
 14 15  1  0  0  0  0
 15 16  2  0  0  0  0
 16 17  1  0  0  0  0
 17 21  1  0  0  0  0
 18 17  2  0  0  0  0
 19 14  1  0  0  0  0
 20 15  1  0  0  0  0
 21 22  1  0  0  0  0
 21 23  1  0  0  0  0
 21 24  1  0  0  0  0
 25 27  1  0  0  0  0
 26 25  1  0  0  0  0
 28 25  1  0  0  0  0
M  END
>  <minimizedAffinity>
-5.62488604

$$$$

 OpenBabel03272503283D

 28 29  0  0  1  0  0  0  0  0999 V2000
   37.7910   26.4490   34.3740 N   0  0  0  0  0  0  0  0  0  0  0  0
   37.7390   26.6650   32.9490 C   0  0  0  0  0  0  0  0  0  0  0  0
   36.8750   27.8960   32.8190 C   0  0  2  0  0  0  0  0  0  0  0  0
   36.3950   28.2200   34.2390 C   0  0  0  0  0  0  0  0  0  0  0  0
   37.6370   27.7320   34.9930 C   0  0  0  0  0  0  0  0  0  0  0  0
   38.7870   26.8480   32.6140 H   0  0  0  0  0  0  0  0  0  0  0  0
   37.2990   25.8480   32.3690 H   0  0  0  0  0  0  0  0  0  0  0  0
   37.4960   28.7370   32.4650 H   0  0  0  0  0  0  0  0  0  0  0  0
   36.2890   29.3100   34.3330 H   0  0  0  0  0  0  0  0  0  0  0  0
   35.5300   27.6250   34.5460 H   0  0  0  0  0  0  0  0  0  0  0  0
   37.3420   27.5880   36.0540 H   0  0  0  0  0  0  0  0  0  0  0  0
   38.4690   28.4290   34.8660 H   0  0  0  0  0  0  0  0  0  0  0  0
   37.9600   25.2010   35.0390 C   0  0  0  0  0  0  0  0  0  0  0  0
   38.0630   24.0530   34.2290 C   0  0  0  0  0  0  0  0  0  0  0  0
   38.2310   22.8270   34.8990 C   0  0  0  0  0  0  0  0  0  0  0  0
   38.2800   22.8520   36.2770 N   0  0  0  0  0  0  0  0  0  0  0  0
   38.1780   23.9660   37.0130 C   0  0  0  0  0  0  0  0  0  0  0  0
   38.0180   25.1430   36.3740 N   0  0  0  0  0  0  0  0  0  0  0  0
   38.0240   24.0470   33.1580 H   0  0  0  0  0  0  0  0  0  0  0  0
   38.3200   21.8890   34.3780 H   0  0  0  0  0  0  0  0  0  0  0  0
   38.2530   23.8050   38.4820 C   0  0  0  0  0  0  0  0  0  0  0  0
   37.9050   25.0070   39.0670 F   0  0  0  0  0  0  0  0  0  0  0  0
   39.4710   23.3600   38.9310 F   0  0  0  0  0  0  0  0  0  0  0  0
   37.3360   22.8070   38.8350 F   0  0  0  0  0  0  0  0  0  0  0  0
   35.7360   27.7140   31.8580 C   0  0  0  0  0  0  0  0  0  0  0  0
   35.5830   26.3410   31.6940 F   0  0  0  0  0  0  0  0  0  0  0  0
   36.1480   28.2340   30.6580 F   0  0  0  0  0  0  0  0  0  0  0  0
   34.5720   28.3040   32.2660 F   0  0  0  0  0  0  0  0  0  0  0  0
  1  5  1  0  0  0  0
  1 13  1  0  0  0  0
  2  1  1  0  0  0  0
  3  8  1  6  0  0  0
  3  2  1  0  0  0  0
  3  4  1  0  0  0  0
  4  9  1  0  0  0  0
  4 10  1  0  0  0  0
  4  5  1  0  0  0  0
  5 11  1  0  0  0  0
  6  2  1  0  0  0  0
  7  2  1  0  0  0  0
 12  5  1  0  0  0  0
 13 18  1  0  0  0  0
 14 15  1  0  0  0  0
 14 13  2  0  0  0  0
 15 16  2  0  0  0  0
 16 17  1  0  0  0  0
 17 21  1  0  0  0  0
 18 17  2  0  0  0  0
 19 14  1  0  0  0  0
 20 15  1  0  0  0  0
 21 24  1  0  0  0  0
 21 23  1  0  0  0  0
 21 22  1  0  0  0  0
 25 28  1  0  0  0  0
 25  3  1  0  0  0  0
 26 25  1  0  0  0  0
 27 25  1  0  0  0  0
M  END
>  <minimizedAffinity>
-5.51930761

$$$$

 OpenBabel03272503283D

 28 29  0  0  1  0  0  0  0  0999 V2000
   37.8490   26.3340   34.3750 N   0  0  0  0  0  0  0  0  0  0  0  0
   37.8800   26.5670   32.9530 C   0  0  0  0  0  0  0  0  0  0  0  0
   36.9850   27.7690   32.7800 C   0  0  2  0  0  0  0  0  0  0  0  0
   36.4040   28.0590   34.1700 C   0  0  0  0  0  0  0  0  0  0  0  0
   37.6120   27.6030   34.9960 C   0  0  0  0  0  0  0  0  0  0  0  0
   38.9410   26.7880   32.6870 H   0  0  0  0  0  0  0  0  0  0  0  0
   37.5070   25.7430   32.3370 H   0  0  0  0  0  0  0  0  0  0  0  0
   37.5980   28.6350   32.4760 H   0  0  0  0  0  0  0  0  0  0  0  0
   36.2560   29.1430   34.2680 H   0  0  0  0  0  0  0  0  0  0  0  0
   35.5430   27.4320   34.4140 H   0  0  0  0  0  0  0  0  0  0  0  0
   37.2550   27.4350   36.0350 H   0  0  0  0  0  0  0  0  0  0  0  0
   38.4260   28.3290   34.9310 H   0  0  0  0  0  0  0  0  0  0  0  0
   38.0180   25.0840   35.0360 C   0  0  0  0  0  0  0  0  0  0  0  0
   38.1490   23.9420   34.2220 C   0  0  0  0  0  0  0  0  0  0  0  0
   38.3160   22.7140   34.8890 C   0  0  0  0  0  0  0  0  0  0  0  0
   38.3370   22.7310   36.2670 N   0  0  0  0  0  0  0  0  0  0  0  0
   38.2100   23.8390   37.0080 C   0  0  0  0  0  0  0  0  0  0  0  0
   38.0500   25.0180   36.3720 N   0  0  0  0  0  0  0  0  0  0  0  0
   38.1310   23.9410   33.1510 H   0  0  0  0  0  0  0  0  0  0  0  0
   38.4250   21.7800   34.3640 H   0  0  0  0  0  0  0  0  0  0  0  0
   38.2570   23.6700   38.4760 C   0  0  0  0  0  0  0  0  0  0  0  0
   39.5590   23.3840   38.8370 F   0  0  0  0  0  0  0  0  0  0  0  0
   37.3830   22.7270   38.9560 F   0  0  0  0  0  0  0  0  0  0  0  0
   37.8480   24.8830   39.0450 F   0  0  0  0  0  0  0  0  0  0  0  0
   35.9160   27.5610   31.7460 C   0  0  0  0  0  0  0  0  0  0  0  0
   34.7930   28.2390   32.2080 F   0  0  0  0  0  0  0  0  0  0  0  0
   35.6250   26.2210   31.7490 F   0  0  0  0  0  0  0  0  0  0  0  0
   36.2740   27.9750   30.4930 F   0  0  0  0  0  0  0  0  0  0  0  0
  1  5  1  0  0  0  0
  1 13  1  0  0  0  0
  2  1  1  0  0  0  0
  3  8  1  6  0  0  0
  3  2  1  0  0  0  0
  3  4  1  0  0  0  0
  4  9  1  0  0  0  0
  4 10  1  0  0  0  0
  4  5  1  0  0  0  0
  5 11  1  0  0  0  0
  6  2  1  0  0  0  0
  7  2  1  0  0  0  0
 12  5  1  0  0  0  0
 13 18  1  0  0  0  0
 14 15  1  0  0  0  0
 14 13  2  0  0  0  0
 15 16  2  0  0  0  0
 16 17  1  0  0  0  0
 17 21  1  0  0  0  0
 18 17  2  0  0  0  0
 19 14  1  0  0  0  0
 20 15  1  0  0  0  0
 21 22  1  0  0  0  0
 21 23  1  0  0  0  0
 21 24  1  0  0  0  0
 25 27  1  0  0  0  0
 25 26  1  0  0  0  0
 25  3  1  0  0  0  0
 28 25  1  0  0  0  0
M  END
>  <minimizedAffinity>
-5.48529148

$$$$

 OpenBabel03272503283D

 28 29  0  0  1  0  0  0  0  0999 V2000
   38.3620   23.0160   34.2390 N   0  0  0  0  0  0  0  0  0  0  0  0
   38.2900   24.1160   35.1680 C   0  0  0  0  0  0  0  0  0  0  0  0
   39.0980   23.6270   36.3450 C   0  0  2  0  0  0  0  0  0  0  0  0
   39.4810   22.1790   36.0140 C   0  0  0  0  0  0  0  0  0  0  0  0
   39.5990   22.3400   34.4940 C   0  0  0  0  0  0  0  0  0  0  0  0
   38.7640   24.9920   34.6660 H   0  0  0  0  0  0  0  0  0  0  0  0
   37.2820   24.3800   35.5030 H   0  0  0  0  0  0  0  0  0  0  0  0
   40.0260   24.2200   36.4190 H   0  0  0  0  0  0  0  0  0  0  0  0
   40.4640   21.9660   36.4570 H   0  0  0  0  0  0  0  0  0  0  0  0
   38.6860   21.4620   36.2400 H   0  0  0  0  0  0  0  0  0  0  0  0
   39.5520   21.3220   34.0510 H   0  0  0  0  0  0  0  0  0  0  0  0
   40.5080   22.8850   34.2290 H   0  0  0  0  0  0  0  0  0  0  0  0
   37.3910   22.6680   33.2570 C   0  0  0  0  0  0  0  0  0  0  0  0
   37.0880   23.6390   32.2830 C   0  0  0  0  0  0  0  0  0  0  0  0
   36.1270   23.2810   31.3200 C   0  0  0  0  0  0  0  0  0  0  0  0
   35.5690   22.0220   31.4090 N   0  0  0  0  0  0  0  0  0  0  0  0
   35.8840   21.1250   32.3510 C   0  0  0  0  0  0  0  0  0  0  0  0
   36.8050   21.4650   33.2760 N   0  0  0  0  0  0  0  0  0  0  0  0
   37.5280   24.6140   32.2250 H   0  0  0  0  0  0  0  0  0  0  0  0
   35.8200   23.9470   30.5310 H   0  0  0  0  0  0  0  0  0  0  0  0
   35.1850   19.8230   32.2930 C   0  0  0  0  0  0  0  0  0  0  0  0
   33.8570   20.0570   31.9930 F   0  0  0  0  0  0  0  0  0  0  0  0
   35.3190   19.0690   33.4320 F   0  0  0  0  0  0  0  0  0  0  0  0
   35.7900   19.0740   31.2760 F   0  0  0  0  0  0  0  0  0  0  0  0
   38.3620   23.7390   37.6490 C   0  0  0  0  0  0  0  0  0  0  0  0
   37.1700   23.0420   37.4830 F   0  0  0  0  0  0  0  0  0  0  0  0
   38.0510   25.0650   37.8100 F   0  0  0  0  0  0  0  0  0  0  0  0
   39.0700   23.2750   38.7230 F   0  0  0  0  0  0  0  0  0  0  0  0
  1  5  1  0  0  0  0
  1  2  1  0  0  0  0
  2  7  1  0  0  0  0
  2  3  1  0  0  0  0
  3  8  1  1  0  0  0
  3 25  1  0  0  0  0
  4 10  1  0  0  0  0
  4  3  1  0  0  0  0
  4  9  1  0  0  0  0
  5  4  1  0  0  0  0
  6  2  1  0  0  0  0
 11  5  1  0  0  0  0
 12  5  1  0  0  0  0
 13 18  1  0  0  0  0
 13  1  1  0  0  0  0
 14 13  2  0  0  0  0
 15 16  2  0  0  0  0
 15 14  1  0  0  0  0
 16 17  1  0  0  0  0
 17 18  2  0  0  0  0
 19 14  1  0  0  0  0
 20 15  1  0  0  0  0
 21 17  1  0  0  0  0
 21 23  1  0  0  0  0
 22 21  1  0  0  0  0
 24 21  1  0  0  0  0
 25 27  1  0  0  0  0
 25 28  1  0  0  0  0
 26 25  1  0  0  0  0
M  END
>  <minimizedAffinity>
-5.39157724

$$$$

 OpenBabel03272503283D

 28 29  0  0  1  0  0  0  0  0999 V2000
   37.5140   23.0590   32.7910 N   0  0  0  0  0  0  0  0  0  0  0  0
   37.2780   21.9850   33.7240 C   0  0  0  0  0  0  0  0  0  0  0  0
   36.7860   20.8640   32.8420 C   0  0  2  0  0  0  0  0  0  0  0  0
   36.6720   21.4620   31.4330 C   0  0  0  0  0  0  0  0  0  0  0  0
   37.8380   22.4510   31.5350 C   0  0  0  0  0  0  0  0  0  0  0  0
   38.2600   21.7500   34.1980 H   0  0  0  0  0  0  0  0  0  0  0  0
   36.5330   22.1950   34.4970 H   0  0  0  0  0  0  0  0  0  0  0  0
   37.5470   20.0650   32.8150 H   0  0  0  0  0  0  0  0  0  0  0  0
   36.8950   20.6740   30.7000 H   0  0  0  0  0  0  0  0  0  0  0  0
   35.7410   22.0150   31.2770 H   0  0  0  0  0  0  0  0  0  0  0  0
   37.7030   23.2010   30.7250 H   0  0  0  0  0  0  0  0  0  0  0  0
   38.7970   21.9290   31.4860 H   0  0  0  0  0  0  0  0  0  0  0  0
   37.4390   24.4550   33.0640 C   0  0  0  0  0  0  0  0  0  0  0  0
   36.7690   25.2560   32.1190 C   0  0  0  0  0  0  0  0  0  0  0  0
   36.7020   26.6330   32.4030 C   0  0  0  0  0  0  0  0  0  0  0  0
   37.2910   27.0770   33.5680 N   0  0  0  0  0  0  0  0  0  0  0  0
   37.9190   26.2820   34.4430 C   0  0  0  0  0  0  0  0  0  0  0  0
   37.9850   24.9620   34.1750 N   0  0  0  0  0  0  0  0  0  0  0  0
   36.3150   24.9000   31.2170 H   0  0  0  0  0  0  0  0  0  0  0  0
   36.2140   27.3360   31.7490 H   0  0  0  0  0  0  0  0  0  0  0  0
   38.4920   26.9300   35.6420 C   0  0  0  0  0  0  0  0  0  0  0  0
   39.8460   27.1070   35.4330 F   0  0  0  0  0  0  0  0  0  0  0  0
   38.2480   26.2540   36.8110 F   0  0  0  0  0  0  0  0  0  0  0  0
   37.8550   28.1690   35.7870 F   0  0  0  0  0  0  0  0  0  0  0  0
   35.4930   20.2680   33.3170 C   0  0  0  0  0  0  0  0  0  0  0  0
   35.3200   20.7080   34.6250 F   0  0  0  0  0  0  0  0  0  0  0  0
   35.6780   18.9100   33.3550 F   0  0  0  0  0  0  0  0  0  0  0  0
   34.4190   20.5870   32.5330 F   0  0  0  0  0  0  0  0  0  0  0  0
  1 13  1  0  0  0  0
  1  2  1  0  0  0  0
  2  6  1  0  0  0  0
  2  7  1  0  0  0  0
  3  8  1  6  0  0  0
  3 25  1  0  0  0  0
  3  2  1  0  0  0  0
  4  5  1  0  0  0  0
  4  3  1  0  0  0  0
  5  1  1  0  0  0  0
  9  4  1  0  0  0  0
 10  4  1  0  0  0  0
 11  5  1  0  0  0  0
 12  5  1  0  0  0  0
 13 18  1  0  0  0  0
 14 15  1  0  0  0  0
 14 13  2  0  0  0  0
 15 16  2  0  0  0  0
 16 17  1  0  0  0  0
 17 21  1  0  0  0  0
 18 17  2  0  0  0  0
 19 14  1  0  0  0  0
 20 15  1  0  0  0  0
 21 24  1  0  0  0  0
 21 23  1  0  0  0  0
 22 21  1  0  0  0  0
 25 27  1  0  0  0  0
 25 26  1  0  0  0  0
 28 25  1  0  0  0  0
M  END
>  <minimizedAffinity>
-5.33499432

$$$$

 OpenBabel03272503283D

 28 29  0  0  1  0  0  0  0  0999 V2000
   38.2910   22.6900   35.3670 N   0  0  0  0  0  0  0  0  0  0  0  0
   38.0420   23.8750   36.1500 C   0  0  0  0  0  0  0  0  0  0  0  0
   39.0650   23.7790   37.2560 C   0  0  2  0  0  0  0  0  0  0  0  0
   39.7630   22.4260   37.0600 C   0  0  0  0  0  0  0  0  0  0  0  0
   39.6770   22.3700   35.5310 C   0  0  0  0  0  0  0  0  0  0  0  0
   38.2250   24.7470   35.4800 H   0  0  0  0  0  0  0  0  0  0  0  0
   37.0400   23.9440   36.5860 H   0  0  0  0  0  0  0  0  0  0  0  0
   39.8160   24.5760   37.1230 H   0  0  0  0  0  0  0  0  0  0  0  0
   40.8080   22.5210   37.3860 H   0  0  0  0  0  0  0  0  0  0  0  0
   39.2020   21.5890   37.4840 H   0  0  0  0  0  0  0  0  0  0  0  0
   39.8420   21.3120   35.2320 H   0  0  0  0  0  0  0  0  0  0  0  0
   40.3880   23.0640   35.0750 H   0  0  0  0  0  0  0  0  0  0  0  0
   37.3420   21.9740   34.5830 C   0  0  0  0  0  0  0  0  0  0  0  0
   36.4580   21.1200   35.2700 C   0  0  0  0  0  0  0  0  0  0  0  0
   35.5250   20.4200   34.4830 C   0  0  0  0  0  0  0  0  0  0  0  0
   35.5540   20.6270   33.1200 N   0  0  0  0  0  0  0  0  0  0  0  0
   36.4100   21.4500   32.5020 C   0  0  0  0  0  0  0  0  0  0  0  0
   37.3050   22.1230   33.2540 N   0  0  0  0  0  0  0  0  0  0  0  0
   36.4450   20.9670   36.3300 H   0  0  0  0  0  0  0  0  0  0  0  0
   34.8040   19.7400   34.9050 H   0  0  0  0  0  0  0  0  0  0  0  0
   36.2970   21.5500   31.0310 C   0  0  0  0  0  0  0  0  0  0  0  0
   35.3800   22.5390   30.7340 F   0  0  0  0  0  0  0  0  0  0  0  0
   35.9770   20.3650   30.4150 F   0  0  0  0  0  0  0  0  0  0  0  0
   37.5630   21.8960   30.5410 F   0  0  0  0  0  0  0  0  0  0  0  0
   38.4650   23.9190   38.6240 C   0  0  0  0  0  0  0  0  0  0  0  0
   37.4570   22.9640   38.7060 F   0  0  0  0  0  0  0  0  0  0  0  0
   37.8710   25.1550   38.6670 F   0  0  0  0  0  0  0  0  0  0  0  0
   39.3700   23.7830   39.6400 F   0  0  0  0  0  0  0  0  0  0  0  0
  1  5  1  0  0  0  0
  1  2  1  0  0  0  0
  2  7  1  0  0  0  0
  2  3  1  0  0  0  0
  3  8  1  6  0  0  0
  3 25  1  0  0  0  0
  4  3  1  0  0  0  0
  4  9  1  0  0  0  0
  4 10  1  0  0  0  0
  5  4  1  0  0  0  0
  6  2  1  0  0  0  0
 11  5  1  0  0  0  0
 12  5  1  0  0  0  0
 13 14  1  0  0  0  0
 13  1  1  0  0  0  0
 14 19  1  0  0  0  0
 15 20  1  0  0  0  0
 15 14  2  0  0  0  0
 16 15  1  0  0  0  0
 17 16  2  0  0  0  0
 17 18  1  0  0  0  0
 18 13  2  0  0  0  0
 21 17  1  0  0  0  0
 22 21  1  0  0  0  0
 23 21  1  0  0  0  0
 24 21  1  0  0  0  0
 25 27  1  0  0  0  0
 25 26  1  0  0  0  0
 25 28  1  0  0  0  0
M  END
>  <minimizedAffinity>
-5.3303771

$$$$

 OpenBabel03272503283D

 28 29  0  0  1  0  0  0  0  0999 V2000
   38.1580   24.6380   35.1620 N   0  0  0  0  0  0  0  0  0  0  0  0
   38.9590   24.8240   36.3460 C   0  0  0  0  0  0  0  0  0  0  0  0
   38.7420   23.5420   37.1140 C   0  0  2  0  0  0  0  0  0  0  0  0
   37.6970   22.7520   36.3160 C   0  0  0  0  0  0  0  0  0  0  0  0
   38.1030   23.2280   34.9170 C   0  0  0  0  0  0  0  0  0  0  0  0
   40.0150   24.9370   36.0050 H   0  0  0  0  0  0  0  0  0  0  0  0
   38.6770   25.6760   36.9730 H   0  0  0  0  0  0  0  0  0  0  0  0
   39.6810   22.9620   37.1210 H   0  0  0  0  0  0  0  0  0  0  0  0
   37.9050   21.6790   36.4340 H   0  0  0  0  0  0  0  0  0  0  0  0
   36.6710   23.0680   36.5220 H   0  0  0  0  0  0  0  0  0  0  0  0
   37.2500   23.0130   34.2370 H   0  0  0  0  0  0  0  0  0  0  0  0
   39.0380   22.7590   34.6010 H   0  0  0  0  0  0  0  0  0  0  0  0
   37.5380   25.6600   34.3870 C   0  0  0  0  0  0  0  0  0  0  0  0
   37.3850   26.9210   34.9950 C   0  0  0  0  0  0  0  0  0  0  0  0
   36.7720   27.9200   34.2170 C   0  0  0  0  0  0  0  0  0  0  0  0
   36.3770   27.5850   32.9390 N   0  0  0  0  0  0  0  0  0  0  0  0
   36.5400   26.3730   32.3950 C   0  0  0  0  0  0  0  0  0  0  0  0
   37.1280   25.4120   33.1380 N   0  0  0  0  0  0  0  0  0  0  0  0
   37.6970   27.1700   35.9890 H   0  0  0  0  0  0  0  0  0  0  0  0
   36.6060   28.9200   34.5830 H   0  0  0  0  0  0  0  0  0  0  0  0
   36.0550   26.1910   31.0090 C   0  0  0  0  0  0  0  0  0  0  0  0
   36.7480   25.1400   30.4430 F   0  0  0  0  0  0  0  0  0  0  0  0
   36.1380   27.3240   30.2380 F   0  0  0  0  0  0  0  0  0  0  0  0
   34.6890   25.8900   31.0850 F   0  0  0  0  0  0  0  0  0  0  0  0
   38.3200   23.7740   38.5360 C   0  0  0  0  0  0  0  0  0  0  0  0
   39.4440   23.5360   39.3180 F   0  0  0  0  0  0  0  0  0  0  0  0
   37.3930   22.8080   38.8320 F   0  0  0  0  0  0  0  0  0  0  0  0
   37.8050   25.0210   38.7610 F   0  0  0  0  0  0  0  0  0  0  0  0
  1  2  1  0  0  0  0
  2  7  1  0  0  0  0
  2  3  1  0  0  0  0
  3  8  1  1  0  0  0
  3 25  1  0  0  0  0
  4  9  1  0  0  0  0
  4 10  1  0  0  0  0
  4  3  1  0  0  0  0
  5  1  1  0  0  0  0
  5  4  1  0  0  0  0
  6  2  1  0  0  0  0
 11  5  1  0  0  0  0
 12  5  1  0  0  0  0
 13 14  1  0  0  0  0
 13  1  1  0  0  0  0
 14 19  1  0  0  0  0
 15 20  1  0  0  0  0
 15 14  2  0  0  0  0
 16 15  1  0  0  0  0
 17 16  2  0  0  0  0
 17 18  1  0  0  0  0
 18 13  2  0  0  0  0
 21 24  1  0  0  0  0
 21 17  1  0  0  0  0
 22 21  1  0  0  0  0
 23 21  1  0  0  0  0
 25 28  1  0  0  0  0
 25 27  1  0  0  0  0
 25 26  1  0  0  0  0
M  END
>  <minimizedAffinity>
-5.30566406

$$$$

 OpenBabel03272503283D

 28 29  0  0  1  0  0  0  0  0999 V2000
   37.4530   24.8780   32.9080 N   0  0  0  0  0  0  0  0  0  0  0  0
   37.8010   23.5820   32.3830 C   0  0  0  0  0  0  0  0  0  0  0  0
   36.7040   23.3080   31.3830 C   0  0  2  0  0  0  0  0  0  0  0  0
   35.7190   24.4770   31.5160 C   0  0  0  0  0  0  0  0  0  0  0  0
   36.7380   25.5650   31.8750 C   0  0  0  0  0  0  0  0  0  0  0  0
   38.7990   23.6900   31.8960 H   0  0  0  0  0  0  0  0  0  0  0  0
   37.8330   22.7720   33.1190 H   0  0  0  0  0  0  0  0  0  0  0  0
   37.1300   23.3310   30.3650 H   0  0  0  0  0  0  0  0  0  0  0  0
   35.2740   24.6740   30.5310 H   0  0  0  0  0  0  0  0  0  0  0  0
   35.0170   24.3530   32.3460 H   0  0  0  0  0  0  0  0  0  0  0  0
   36.1730   26.4090   32.3250 H   0  0  0  0  0  0  0  0  0  0  0  0
   37.3230   25.8550   30.9980 H   0  0  0  0  0  0  0  0  0  0  0  0
   37.7580   25.3790   34.2060 C   0  0  0  0  0  0  0  0  0  0  0  0
   37.9800   26.7660   34.3210 C   0  0  0  0  0  0  0  0  0  0  0  0
   38.2800   27.2460   35.6090 C   0  0  0  0  0  0  0  0  0  0  0  0
   38.3300   26.3310   36.6390 N   0  0  0  0  0  0  0  0  0  0  0  0
   38.1120   25.0180   36.4900 C   0  0  0  0  0  0  0  0  0  0  0  0
   37.8230   24.5540   35.2570 N   0  0  0  0  0  0  0  0  0  0  0  0
   37.9380   27.4670   33.5130 H   0  0  0  0  0  0  0  0  0  0  0  0
   38.4680   28.2880   35.8100 H   0  0  0  0  0  0  0  0  0  0  0  0
   38.2060   24.1830   37.7070 C   0  0  0  0  0  0  0  0  0  0  0  0
   38.0270   24.9990   38.8070 F   0  0  0  0  0  0  0  0  0  0  0  0
   39.3710   23.4630   37.7990 F   0  0  0  0  0  0  0  0  0  0  0  0
   37.1830   23.2300   37.6350 F   0  0  0  0  0  0  0  0  0  0  0  0
   36.0420   21.9770   31.5880 C   0  0  0  0  0  0  0  0  0  0  0  0
   37.0440   21.0210   31.4560 F   0  0  0  0  0  0  0  0  0  0  0  0
   35.1670   21.8100   30.5450 F   0  0  0  0  0  0  0  0  0  0  0  0
   35.3930   21.8630   32.7850 F   0  0  0  0  0  0  0  0  0  0  0  0
  1 13  1  0  0  0  0
  2  1  1  0  0  0  0
  2  7  1  0  0  0  0
  3  8  1  6  0  0  0
  3  4  1  0  0  0  0
  3 25  1  0  0  0  0
  3  2  1  0  0  0  0
  4  5  1  0  0  0  0
  4 10  1  0  0  0  0
  5 11  1  0  0  0  0
  5  1  1  0  0  0  0
  6  2  1  0  0  0  0
  9  4  1  0  0  0  0
 12  5  1  0  0  0  0
 13 14  2  0  0  0  0
 13 18  1  0  0  0  0
 14 15  1  0  0  0  0
 15 20  1  0  0  0  0
 15 16  2  0  0  0  0
 17 16  1  0  0  0  0
 17 21  1  0  0  0  0
 18 17  2  0  0  0  0
 19 14  1  0  0  0  0
 21 23  1  0  0  0  0
 21 22  1  0  0  0  0
 24 21  1  0  0  0  0
 25 28  1  0  0  0  0
 26 25  1  0  0  0  0
 27 25  1  0  0  0  0
M  END
>  <minimizedAffinity>
-5.3028698

$$$$

 OpenBabel03272503283D

 28 29  0  0  1  0  0  0  0  0999 V2000
   37.4270   22.5870   33.1260 N   0  0  0  0  0  0  0  0  0  0  0  0
   37.4540   21.1690   32.8650 C   0  0  0  0  0  0  0  0  0  0  0  0
   36.2510   20.9590   31.9780 C   0  0  2  0  0  0  0  0  0  0  0  0
   35.5470   22.3200   31.9030 C   0  0  0  0  0  0  0  0  0  0  0  0
   36.7970   23.2030   31.9980 C   0  0  0  0  0  0  0  0  0  0  0  0
   38.4120   20.9580   32.3340 H   0  0  0  0  0  0  0  0  0  0  0  0
   37.3710   20.5300   33.7500 H   0  0  0  0  0  0  0  0  0  0  0  0
   36.5920   20.6910   30.9640 H   0  0  0  0  0  0  0  0  0  0  0  0
   35.0790   22.4170   30.9130 H   0  0  0  0  0  0  0  0  0  0  0  0
   34.9000   22.5160   32.7620 H   0  0  0  0  0  0  0  0  0  0  0  0
   36.4570   24.2220   32.2850 H   0  0  0  0  0  0  0  0  0  0  0  0
   37.3600   23.1830   31.0610 H   0  0  0  0  0  0  0  0  0  0  0  0
   37.9300   23.2480   34.2830 C   0  0  0  0  0  0  0  0  0  0  0  0
   38.2530   22.4400   35.3920 C   0  0  0  0  0  0  0  0  0  0  0  0
   38.7480   23.1070   36.5280 C   0  0  0  0  0  0  0  0  0  0  0  0
   38.8750   24.4790   36.4610 N   0  0  0  0  0  0  0  0  0  0  0  0
   38.5570   25.2120   35.3880 C   0  0  0  0  0  0  0  0  0  0  0  0
   38.0820   24.5770   34.2970 N   0  0  0  0  0  0  0  0  0  0  0  0
   38.1510   21.3750   35.4310 H   0  0  0  0  0  0  0  0  0  0  0  0
   39.0260   22.5870   37.4290 H   0  0  0  0  0  0  0  0  0  0  0  0
   38.7570   26.6740   35.4940 C   0  0  0  0  0  0  0  0  0  0  0  0
   37.9610   27.2890   34.5480 F   0  0  0  0  0  0  0  0  0  0  0  0
   40.0680   27.0650   35.3810 F   0  0  0  0  0  0  0  0  0  0  0  0
   38.3640   27.0520   36.7840 F   0  0  0  0  0  0  0  0  0  0  0  0
   35.3410   19.8720   32.4720 C   0  0  0  0  0  0  0  0  0  0  0  0
   35.3420   19.9660   33.8600 F   0  0  0  0  0  0  0  0  0  0  0  0
   35.9340   18.6820   32.1350 F   0  0  0  0  0  0  0  0  0  0  0  0
   34.0740   19.9410   31.9640 F   0  0  0  0  0  0  0  0  0  0  0  0
  1 13  1  0  0  0  0
  2  1  1  0  0  0  0
  2  7  1  0  0  0  0
  3  8  1  6  0  0  0
  3 25  1  0  0  0  0
  3  2  1  0  0  0  0
  4  3  1  0  0  0  0
  4  5  1  0  0  0  0
  4 10  1  0  0  0  0
  5 11  1  0  0  0  0
  5  1  1  0  0  0  0
  6  2  1  0  0  0  0
  9  4  1  0  0  0  0
 12  5  1  0  0  0  0
 13 18  2  0  0  0  0
 13 14  1  0  0  0  0
 14 19  1  0  0  0  0
 14 15  2  0  0  0  0
 15 20  1  0  0  0  0
 16 15  1  0  0  0  0
 17 21  1  0  0  0  0
 17 16  2  0  0  0  0
 18 17  1  0  0  0  0
 21 24  1  0  0  0  0
 22 21  1  0  0  0  0
 23 21  1  0  0  0  0
 25 26  1  0  0  0  0
 27 25  1  0  0  0  0
 28 25  1  0  0  0  0
M  END
>  <minimizedAffinity>
-5.26452923

$$$$
