
 OpenBabel03272509003D

 23 24  0  0  0  0  0  0  0  0999 V2000
   38.3860   31.6780   48.8400 Cl  0  0  0  0  0  0  0  0  0  0  0  0
   37.1750   30.9610   47.8300 C   0  0  0  0  0  0  0  0  0  0  0  0
   37.3400   30.9490   46.4630 C   0  0  0  0  0  0  0  0  0  0  0  0
   36.4040   30.3940   45.6210 C   0  0  0  0  0  0  0  0  0  0  0  0
   35.2530   29.8250   46.1330 C   0  0  0  0  0  0  0  0  0  0  0  0
   35.0570   29.8210   47.5120 C   0  0  0  0  0  0  0  0  0  0  0  0
   33.6430   29.1330   48.2890 Cl  0  0  0  0  0  0  0  0  0  0  0  0
   36.0220   30.3870   48.3090 C   0  0  0  0  0  0  0  0  0  0  0  0
   36.5260   30.3820   44.5500 H   0  0  0  0  0  0  0  0  0  0  0  0
   34.4860   29.3760   45.5170 H   0  0  0  0  0  0  0  0  0  0  0  0
   39.6440   33.2770   44.8030 C   0  0  0  0  0  0  0  0  0  0  0  0
   40.8580   32.5910   44.8360 C   0  0  0  0  0  0  0  0  0  0  0  0
   40.8770   31.3050   45.4420 C   0  0  0  0  0  0  0  0  0  0  0  0
   39.7110   30.8270   45.9490 N   0  0  0  0  0  0  0  0  0  0  0  0
   38.5470   31.5430   45.8900 C   0  0  0  0  0  0  0  0  0  0  0  0
   38.5260   32.7550   45.3200 N   0  0  0  0  0  0  0  0  0  0  0  0
   39.6820   34.2520   44.3310 H   0  0  0  0  0  0  0  0  0  0  0  0
   41.7700   32.9650   44.4390 H   0  0  0  0  0  0  0  0  0  0  0  0
   41.7840   30.7190   45.5020 H   0  0  0  0  0  0  0  0  0  0  0  0
   35.8400   30.3990   49.7980 C   0  0  0  0  0  0  0  0  0  0  0  0
   36.6030   29.4250   50.4060 F   0  0  0  0  0  0  0  0  0  0  0  0
   36.3590   31.6140   50.2550 F   0  0  0  0  0  0  0  0  0  0  0  0
   34.5200   30.3690   50.1360 F   0  0  0  0  0  0  0  0  0  0  0  0
  2  8  1  0  0  0  0
  2  1  1  0  0  0  0
  3  2  2  0  0  0  0
  4  5  2  0  0  0  0
  4  3  1  0  0  0  0
  5  6  1  0  0  0  0
  6  7  1  0  0  0  0
  6  8  2  0  0  0  0
  8 20  1  0  0  0  0
  9  4  1  0  0  0  0
 10  5  1  0  0  0  0
 11 12  2  0  0  0  0
 11 16  1  0  0  0  0
 12 13  1  0  0  0  0
 13 19  1  0  0  0  0
 13 14  2  0  0  0  0
 15 14  1  0  0  0  0
 15  3  1  0  0  0  0
 16 15  2  0  0  0  0
 17 11  1  0  0  0  0
 18 12  1  0  0  0  0
 20 23  1  0  0  0  0
 20 22  1  0  0  0  0
 20 21  1  0  0  0  0
M  END
>  <minimizedAffinity>
-6.03445339

>  <minimizedRMSD>
3.27329183

$$$$
