REMARK  Name = 
REMARK  2 active torsions:
REMARK  status: ('A' for Active; 'I' for Inactive)
REMARK    1  A    between atoms: C_2  and  C_12
REMARK    2  A    between atoms: C_20  and  C_36
REMARK                            x       y       z     vdW  Elec       q    Type
REMARK                         _______ _______ _______ _____ _____    ______ ____
ROOT
ATOM      1  C   UNL     1      35.863  28.903  49.373  0.00  0.00    +0.000 A 
ATOM      2  C   UNL     1      35.857  30.107  48.556  0.00  0.00    +0.000 A 
ATOM      3  C   UNL     1      34.748  30.340  47.704  0.00  0.00    +0.000 A 
ATOM      4  N   UNL     1      33.767  29.424  47.677  0.00  0.00    +0.000 NA
ATOM      5  C   UNL     1      33.803  28.309  48.434  0.00  0.00    +0.000 A 
ATOM      6  N   UNL     1      34.831  28.052  49.274  0.00  0.00    +0.000 NA
ATOM      7  N   UNL     1      32.737  27.344  48.288  0.00  0.00    +0.000 N 
ATOM      8  C   UNL     1      31.366  27.637  48.551  0.00  0.00    +0.000 C 
ATOM      9  C   UNL     1      30.612  26.458  48.006  0.00  0.00    +0.000 C 
ATOM     10  C   UNL     1      31.614  25.616  47.235  0.00  0.00    +0.000 C 
ATOM     11  C   UNL     1      32.908  25.947  47.848  0.00  0.00    +0.000 C 
ATOM     12  H   UNL     1      36.727  28.798  50.008  0.00  0.00    +0.000 HD
ATOM     13  H   UNL     1      34.676  31.205  47.099  0.00  0.00    +0.000 HD
ATOM     14  H   UNL     1      31.050  28.599  48.058  0.00  0.00    +0.000 HD
ATOM     15  H   UNL     1      31.193  27.721  49.626  0.00  0.00    +0.000 HD
ATOM     16  H   UNL     1      30.177  25.839  48.813  0.00  0.00    +0.000 HD
ATOM     17  H   UNL     1      29.784  26.761  47.320  0.00  0.00    +0.000 HD
ATOM     18  H   UNL     1      31.370  24.537  47.303  0.00  0.00    +0.000 HD
ATOM     19  H   UNL     1      31.599  25.877  46.163  0.00  0.00    +0.000 HD
ATOM     20  H   UNL     1      33.706  25.929  47.086  0.00  0.00    +0.000 HD
ATOM     21  H   UNL     1      33.228  25.300  48.696  0.00  0.00    +0.000 HD
ENDROOT
BRANCH   2  22
ATOM     22  C   UNL     1      36.853  31.103  48.523  0.00  0.00    +0.000 A 
ATOM     23  N   UNL     1      36.797  31.968  49.546  0.00  0.00    +0.000 NA
ATOM     24  C   UNL     1      37.664  32.994  49.599  0.00  0.00    +0.000 A 
ATOM     25  N   UNL     1      38.626  33.228  48.663  0.00  0.00    +0.000 NA
ATOM     26  C   UNL     1      38.698  32.363  47.627  0.00  0.00    +0.000 A 
ATOM     27  C   UNL     1      39.655  32.479  46.643  0.00  0.00    +0.000 A 
ATOM     28  C   UNL     1      39.742  31.575  45.623  0.00  0.00    +0.000 A 
ATOM     29  C   UNL     1      38.833  30.548  45.620  0.00  0.00    +0.000 A 
ATOM     30  C   UNL     1      37.857  30.381  46.565  0.00  0.00    +0.000 A 
ATOM     31  C   UNL     1      37.811  31.307  47.565  0.00  0.00    +0.000 A 
ATOM     32  H   UNL     1      37.686  33.738  50.388  0.00  0.00    +0.000 HD
ATOM     33  H   UNL     1      40.304  33.334  46.765  0.00  0.00    +0.000 HD
ATOM     34  H   UNL     1      40.516  31.753  44.914  0.00  0.00    +0.000 HD
ATOM     35  H   UNL     1      39.039  29.915  44.736  0.00  0.00    +0.000 HD
BRANCH  30  36
ATOM     36  C   UNL     1      37.053  29.216  46.292  0.00  0.00    +0.000 C 
ATOM     37  F   UNL     1      37.145  28.414  45.259  0.00  0.00    +0.000 F 
ATOM     38  F   UNL     1      36.209  28.856  47.367  0.00  0.00    +0.000 F 
ATOM     39  F   UNL     1      35.828  29.654  45.649  0.00  0.00    +0.000 F 
ENDBRANCH  30  36
ENDBRANCH   2  22
TORSDOF 2
