
 OpenBabel03272510083D

 39 42  0  0  0  0  0  0  0  0999 V2000
   35.4200   28.2430   48.8880 C   0  0  0  0  0  0  0  0  0  0  0  0
   35.4570   29.6740   48.6300 C   0  0  0  0  0  0  0  0  0  0  0  0
   34.2300   30.3590   48.4470 C   0  0  0  0  0  0  0  0  0  0  0  0
   33.0930   29.6470   48.4990 N   0  0  0  0  0  0  0  0  0  0  0  0
   33.0870   28.3180   48.7270 C   0  0  0  0  0  0  0  0  0  0  0  0
   34.2310   27.6250   48.9240 N   0  0  0  0  0  0  0  0  0  0  0  0
   31.8210   27.6210   48.6960 N   0  0  0  0  0  0  0  0  0  0  0  0
   30.7390   27.9110   49.5790 C   0  0  0  0  0  0  0  0  0  0  0  0
   29.5690   27.1600   49.0100 C   0  0  0  0  0  0  0  0  0  0  0  0
   30.0060   26.6320   47.6550 C   0  0  0  0  0  0  0  0  0  0  0  0
   31.4690   26.5370   47.7610 C   0  0  0  0  0  0  0  0  0  0  0  0
   36.3870   27.7900   49.0340 H   0  0  0  0  0  0  0  0  0  0  0  0
   34.1890   31.4020   48.2730 H   0  0  0  0  0  0  0  0  0  0  0  0
   30.5390   29.0180   49.6340 H   0  0  0  0  0  0  0  0  0  0  0  0
   30.9590   27.5450   50.5850 H   0  0  0  0  0  0  0  0  0  0  0  0
   29.2810   26.3030   49.6470 H   0  0  0  0  0  0  0  0  0  0  0  0
   28.6700   27.8090   48.8770 H   0  0  0  0  0  0  0  0  0  0  0  0
   29.5280   25.6580   47.4290 H   0  0  0  0  0  0  0  0  0  0  0  0
   29.7060   27.3260   46.8510 H   0  0  0  0  0  0  0  0  0  0  0  0
   31.9370   26.7650   46.7880 H   0  0  0  0  0  0  0  0  0  0  0  0
   31.8720   25.5610   48.1150 H   0  0  0  0  0  0  0  0  0  0  0  0
   36.6080   30.4820   48.5490 C   0  0  0  0  0  0  0  0  0  0  0  0
   37.1520   30.7810   49.7380 N   0  0  0  0  0  0  0  0  0  0  0  0
   38.2260   31.5880   49.7950 C   0  0  0  0  0  0  0  0  0  0  0  0
   38.8230   32.1410   48.7020 N   0  0  0  0  0  0  0  0  0  0  0  0
   38.2890   31.8470   47.4960 C   0  0  0  0  0  0  0  0  0  0  0  0
   38.8320   32.3180   46.3210 C   0  0  0  0  0  0  0  0  0  0  0  0
   38.3070   31.9800   45.1070 C   0  0  0  0  0  0  0  0  0  0  0  0
   37.2120   31.1540   45.1080 C   0  0  0  0  0  0  0  0  0  0  0  0
   36.6240   30.6570   46.2400 C   0  0  0  0  0  0  0  0  0  0  0  0
   37.1860   31.0190   47.4290 C   0  0  0  0  0  0  0  0  0  0  0  0
   38.7250   31.8810   50.7130 H   0  0  0  0  0  0  0  0  0  0  0  0
   39.6890   32.9610   46.4640 H   0  0  0  0  0  0  0  0  0  0  0  0
   38.7990   32.3960   44.2600 H   0  0  0  0  0  0  0  0  0  0  0  0
   36.9150   30.9830   44.0560 H   0  0  0  0  0  0  0  0  0  0  0  0
   35.4920   29.8230   45.9230 C   0  0  0  0  0  0  0  0  0  0  0  0
   35.4220   28.5170   46.0010 F   0  0  0  0  0  0  0  0  0  0  0  0
   34.3120   30.5590   45.6670 F   0  0  0  0  0  0  0  0  0  0  0  0
   35.4950   29.5840   44.4920 F   0  0  0  0  0  0  0  0  0  0  0  0
  1  6  1  0  0  0  0
  1 12  1  0  0  0  0
  2  1  2  0  0  0  0
  3  4  2  0  0  0  0
  3  2  1  0  0  0  0
  4  5  1  0  0  0  0
  5  6  2  0  0  0  0
  7  5  1  0  0  0  0
  7  8  1  0  0  0  0
  8 14  1  0  0  0  0
  8 15  1  0  0  0  0
  9  8  1  0  0  0  0
  9 16  1  0  0  0  0
 10 11  1  0  0  0  0
 10  9  1  0  0  0  0
 11 21  1  0  0  0  0
 11  7  1  0  0  0  0
 13  3  1  0  0  0  0
 17  9  1  0  0  0  0
 18 10  1  0  0  0  0
 19 10  1  0  0  0  0
 20 11  1  0  0  0  0
 22  2  1  0  0  0  0
 22 23  1  0  0  0  0
 23 24  2  0  0  0  0
 24 32  1  0  0  0  0
 25 24  1  0  0  0  0
 26 25  2  0  0  0  0
 27 33  1  0  0  0  0
 27 26  1  0  0  0  0
 28 29  1  0  0  0  0
 28 27  2  0  0  0  0
 29 30  2  0  0  0  0
 30 31  1  0  0  0  0
 31 26  1  0  0  0  0
 31 22  2  0  0  0  0
 34 28  1  0  0  0  0
 35 29  1  0  0  0  0
 36 37  1  0  0  0  0
 36 30  1  0  0  0  0
 38 36  1  0  0  0  0
 39 36  1  0  0  0  0
M  END
>  <minimizedAffinity>
-4.5711627

>  <minimizedRMSD>
1.41490531

$$$$
