REMARK  Name = 
REMARK  6 active torsions:
REMARK  status: ('A' for Active; 'I' for Inactive)
REMARK    1  A    between atoms: C_1  and  O_6
REMARK    2  A    between atoms: C_2  and  S_7
REMARK    3  A    between atoms: C_5  and  O_14
REMARK    4  A    between atoms: S_7  and  C_12
REMARK    5  A    between atoms: O_14  and  C_17
REMARK    6  A    between atoms: C_21  and  C_34
REMARK                            x       y       z     vdW  Elec       q    Type
REMARK                         _______ _______ _______ _____ _____    ______ ____
ROOT
ATOM      1  C   UNL     1      32.166  28.526  47.426  0.00  0.00    +0.000 C 
ATOM      2  C   UNL     1      33.407  28.365  48.253  0.00  0.00    +0.000 C 
ATOM      3  O   UNL     1      33.807  27.065  48.166  0.00  0.00    +0.000 OA
ATOM      4  C   UNL     1      33.109  26.439  47.139  0.00  0.00    +0.000 C 
ATOM      5  C   UNL     1      32.506  27.522  46.280  0.00  0.00    +0.000 C 
ATOM      6  H   UNL     1      31.236  28.220  47.896  0.00  0.00    +0.000 HD
ATOM      7  H   UNL     1      33.236  28.731  49.282  0.00  0.00    +0.000 HD
ATOM      8  H   UNL     1      32.419  25.754  47.605  0.00  0.00    +0.000 HD
ATOM      9  H   UNL     1      33.824  25.805  46.552  0.00  0.00    +0.000 HD
ATOM     10  H   UNL     1      33.195  28.030  45.617  0.00  0.00    +0.000 HD
ENDROOT
BRANCH   1  11
ATOM     11  O   UNL     1      32.095  29.825  46.883  0.00  0.00    +0.000 OA
ATOM     12  H   UNL     1      31.230  30.242  47.027  0.00  0.00    +0.000 HD
ENDBRANCH   1  11
BRANCH   2  13
ATOM     13  S   UNL     1      34.716  29.413  47.499  0.00  0.00    +0.000 S 
BRANCH  13  18
ATOM     14  C   UNL     1      37.138  29.287  50.626  0.00  0.00    +0.000 A 
ATOM     15  C   UNL     1      37.639  30.587  50.759  0.00  0.00    +0.000 A 
ATOM     16  C   UNL     1      37.199  31.544  49.828  0.00  0.00    +0.000 A 
ATOM     17  N   UNL     1      36.325  31.163  48.864  0.00  0.00    +0.000 NA
ATOM     18  C   UNL     1      35.870  29.892  48.780  0.00  0.00    +0.000 A 
ATOM     19  N   UNL     1      36.269  28.936  49.659  0.00  0.00    +0.000 NA
ATOM     20  H   UNL     1      37.462  28.537  51.330  0.00  0.00    +0.000 HD
ATOM     21  H   UNL     1      38.338  30.863  51.540  0.00  0.00    +0.000 HD
ATOM     22  H   UNL     1      37.535  32.560  49.860  0.00  0.00    +0.000 HD
ENDBRANCH  13  18
ENDBRANCH   2  13
BRANCH   5  23
ATOM     23  O   UNL     1      31.363  27.040  45.691  0.00  0.00    +0.000 OA
BRANCH  23  26
ATOM     24 CL   UNL     1      29.883  29.113  44.212  0.00  0.00    +0.000 Cl
ATOM     25  C   UNL     1      29.335  28.123  45.544  0.00  0.00    +0.000 A 
ATOM     26  C   UNL     1      30.124  27.172  46.151  0.00  0.00    +0.000 A 
ATOM     27  C   UNL     1      29.567  26.425  47.192  0.00  0.00    +0.000 A 
ATOM     28  C   UNL     1      28.264  26.640  47.592  0.00  0.00    +0.000 A 
ATOM     29  C   UNL     1      27.464  27.595  46.987  0.00  0.00    +0.000 A 
ATOM     30  C   UNL     1      28.025  28.337  45.950  0.00  0.00    +0.000 A 
ATOM     31  H   UNL     1      30.101  25.657  47.723  0.00  0.00    +0.000 HD
ATOM     32  H   UNL     1      27.774  26.100  48.386  0.00  0.00    +0.000 HD
ATOM     33  H   UNL     1      26.443  27.773  47.290  0.00  0.00    +0.000 HD
BRANCH  30  34
ATOM     34  C   UNL     1      27.174  29.364  45.294  0.00  0.00    +0.000 C 
ATOM     35  F   UNL     1      25.908  29.418  45.847  0.00  0.00    +0.000 F 
ATOM     36  F   UNL     1      27.049  28.985  43.952  0.00  0.00    +0.000 F 
ATOM     37  F   UNL     1      27.776  30.593  45.273  0.00  0.00    +0.000 F 
ENDBRANCH  30  34
ENDBRANCH  23  26
ENDBRANCH   5  23
TORSDOF 6
