
 OpenBabel03272508313D

 27 28  0  0  1  0  0  0  0  0999 V2000
   39.4400   22.6610   35.7010 N   0  0  0  0  0  0  0  0  0  0  0  0
   40.8410   22.2700   35.4830 C   0  0  0  0  0  0  0  0  0  0  0  0
   41.5740   22.0400   36.7480 C   0  0  0  0  0  0  0  0  0  0  0  0
   40.6450   21.6700   37.7890 N   0  0  0  0  0  0  0  0  0  0  0  0
   39.9100   22.8870   38.0850 C   0  0  0  0  0  0  0  0  0  0  0  0
   38.8720   22.9830   36.9920 C   0  0  1  0  0  0  0  0  0  0  0  0
   40.7620   21.2920   34.9450 H   0  0  0  0  0  0  0  0  0  0  0  0
   41.3570   22.9780   34.8130 H   0  0  0  0  0  0  0  0  0  0  0  0
   42.4030   21.3400   36.6520 H   0  0  0  0  0  0  0  0  0  0  0  0
   42.0310   23.0250   37.0570 H   0  0  0  0  0  0  0  0  0  0  0  0
   41.1920   21.3690   38.6410 H   0  0  0  0  0  0  0  0  0  0  0  0
   40.6240   23.7250   38.0930 H   0  0  0  0  0  0  0  0  0  0  0  0
   39.3590   22.8020   39.0620 H   0  0  0  0  0  0  0  0  0  0  0  0
   38.1150   22.1980   37.2070 H   0  0  0  0  0  0  0  0  0  0  0  0
   37.5450   21.8210   34.3960 C   0  0  0  0  0  0  0  0  0  0  0  0
   38.6000   22.7200   34.5610 C   0  0  0  0  0  0  0  0  0  0  0  0
   38.7800   23.6640   33.5630 C   0  0  0  0  0  0  0  0  0  0  0  0
   37.9420   23.6810   32.4840 N   0  0  0  0  0  0  0  0  0  0  0  0
   36.9350   22.7780   32.3830 C   0  0  0  0  0  0  0  0  0  0  0  0
   36.7120   21.8280   33.3350 N   0  0  0  0  0  0  0  0  0  0  0  0
   37.3390   21.0490   35.1360 H   0  0  0  0  0  0  0  0  0  0  0  0
   39.5830   24.3860   33.6400 H   0  0  0  0  0  0  0  0  0  0  0  0
   36.2460   22.7560   31.5440 H   0  0  0  0  0  0  0  0  0  0  0  0
   38.1990   24.3450   37.0220 C   0  0  0  0  0  0  0  0  0  0  0  0
   38.1870   24.7520   38.3660 F   0  0  0  0  0  0  0  0  0  0  0  0
   38.9970   25.2310   36.3230 F   0  0  0  0  0  0  0  0  0  0  0  0
   36.9310   24.3460   36.5430 F   0  0  0  0  0  0  0  0  0  0  0  0
  1  6  1  0  0  0  0
  2  1  1  0  0  0  0
  2  3  1  0  0  0  0
  3 10  1  0  0  0  0
  3  4  1  0  0  0  0
  4  5  1  0  0  0  0
  4 11  1  0  0  0  0
  5 12  1  0  0  0  0
  5 13  1  0  0  0  0
  6 24  1  0  0  0  0
  6 14  1  1  0  0  0
  6  5  1  0  0  0  0
  7  2  1  0  0  0  0
  8  2  1  0  0  0  0
  9  3  1  0  0  0  0
 15 16  1  0  0  0  0
 15 21  1  0  0  0  0
 16  1  1  0  0  0  0
 17 22  1  0  0  0  0
 17 16  2  0  0  0  0
 18 17  1  0  0  0  0
 19 18  2  0  0  0  0
 19 20  1  0  0  0  0
 20 15  2  0  0  0  0
 23 19  1  0  0  0  0
 24 25  1  0  0  0  0
 26 24  1  0  0  0  0
 27 24  1  0  0  0  0
M  END
>  <minimizedAffinity>
-4.44306326

$$$$

 OpenBabel03272508313D

 27 28  0  0  1  0  0  0  0  0999 V2000
   38.3760   25.3250   34.1020 N   0  0  0  0  0  0  0  0  0  0  0  0
   39.1460   24.1120   33.7840 C   0  0  0  0  0  0  0  0  0  0  0  0
   39.2130   23.1640   34.9190 C   0  0  0  0  0  0  0  0  0  0  0  0
   38.0710   23.3550   35.7810 N   0  0  0  0  0  0  0  0  0  0  0  0
   38.3070   24.6270   36.4400 C   0  0  0  0  0  0  0  0  0  0  0  0
   37.8960   25.6670   35.4240 C   0  0  1  0  0  0  0  0  0  0  0  0
   38.5560   23.6310   32.9650 H   0  0  0  0  0  0  0  0  0  0  0  0
   40.1410   24.3620   33.3780 H   0  0  0  0  0  0  0  0  0  0  0  0
   39.3440   22.1270   34.6150 H   0  0  0  0  0  0  0  0  0  0  0  0
   40.1260   23.4300   35.5280 H   0  0  0  0  0  0  0  0  0  0  0  0
   38.0550   22.5810   36.5000 H   0  0  0  0  0  0  0  0  0  0  0  0
   39.3710   24.6770   36.7190 H   0  0  0  0  0  0  0  0  0  0  0  0
   37.6380   24.7530   37.3350 H   0  0  0  0  0  0  0  0  0  0  0  0
   36.7870   25.6360   35.3720 H   0  0  0  0  0  0  0  0  0  0  0  0
   36.7760   26.4490   32.6270 C   0  0  0  0  0  0  0  0  0  0  0  0
   38.0910   26.2090   33.0310 C   0  0  0  0  0  0  0  0  0  0  0  0
   39.0900   26.8720   32.3390 C   0  0  0  0  0  0  0  0  0  0  0  0
   38.7630   27.7150   31.3150 N   0  0  0  0  0  0  0  0  0  0  0  0
   37.4650   27.9060   30.9700 C   0  0  0  0  0  0  0  0  0  0  0  0
   36.4410   27.2780   31.6180 N   0  0  0  0  0  0  0  0  0  0  0  0
   35.9350   25.9650   33.1210 H   0  0  0  0  0  0  0  0  0  0  0  0
   40.1270   26.7230   32.6110 H   0  0  0  0  0  0  0  0  0  0  0  0
   37.1600   28.5670   30.1640 H   0  0  0  0  0  0  0  0  0  0  0  0
   38.3350   27.0490   35.8750 C   0  0  0  0  0  0  0  0  0  0  0  0
   38.2440   27.0550   37.2770 F   0  0  0  0  0  0  0  0  0  0  0  0
   39.6680   27.2040   35.5430 F   0  0  0  0  0  0  0  0  0  0  0  0
   37.5840   28.0590   35.3740 F   0  0  0  0  0  0  0  0  0  0  0  0
  1  6  1  0  0  0  0
  2  1  1  0  0  0  0
  2  3  1  0  0  0  0
  3 10  1  0  0  0  0
  3  4  1  0  0  0  0
  4  5  1  0  0  0  0
  4 11  1  0  0  0  0
  5 12  1  0  0  0  0
  5 13  1  0  0  0  0
  6 14  1  6  0  0  0
  6 24  1  0  0  0  0
  6  5  1  0  0  0  0
  7  2  1  0  0  0  0
  8  2  1  0  0  0  0
  9  3  1  0  0  0  0
 15 16  1  0  0  0  0
 15 21  1  0  0  0  0
 16  1  1  0  0  0  0
 17 22  1  0  0  0  0
 17 16  2  0  0  0  0
 18 17  1  0  0  0  0
 19 18  2  0  0  0  0
 19 20  1  0  0  0  0
 20 15  2  0  0  0  0
 23 19  1  0  0  0  0
 24 25  1  0  0  0  0
 26 24  1  0  0  0  0
 27 24  1  0  0  0  0
M  END
>  <minimizedAffinity>
-4.16404915

$$$$

 OpenBabel03272508313D

 27 28  0  0  1  0  0  0  0  0999 V2000
   38.3690   25.3080   34.1190 N   0  0  0  0  0  0  0  0  0  0  0  0
   39.1280   24.0860   33.8070 C   0  0  0  0  0  0  0  0  0  0  0  0
   39.1830   23.1410   34.9450 C   0  0  0  0  0  0  0  0  0  0  0  0
   38.0400   23.3460   35.8030 N   0  0  0  0  0  0  0  0  0  0  0  0
   38.2880   24.6180   36.4590 C   0  0  0  0  0  0  0  0  0  0  0  0
   37.8890   25.6580   35.4380 C   0  0  1  0  0  0  0  0  0  0  0  0
   38.5340   23.6090   32.9870 H   0  0  0  0  0  0  0  0  0  0  0  0
   40.1250   24.3250   33.4020 H   0  0  0  0  0  0  0  0  0  0  0  0
   39.3040   22.1020   34.6440 H   0  0  0  0  0  0  0  0  0  0  0  0
   40.0960   23.4000   35.5550 H   0  0  0  0  0  0  0  0  0  0  0  0
   38.0150   22.5740   36.5240 H   0  0  0  0  0  0  0  0  0  0  0  0
   39.3510   24.6580   36.7400 H   0  0  0  0  0  0  0  0  0  0  0  0
   37.6170   24.7530   37.3510 H   0  0  0  0  0  0  0  0  0  0  0  0
   36.7790   25.6380   35.3840 H   0  0  0  0  0  0  0  0  0  0  0  0
   39.1270   26.8190   32.3470 C   0  0  0  0  0  0  0  0  0  0  0  0
   38.0940   26.1910   33.0450 C   0  0  0  0  0  0  0  0  0  0  0  0
   36.8010   26.4710   32.6350 C   0  0  0  0  0  0  0  0  0  0  0  0
   36.5890   27.3280   31.5930 N   0  0  0  0  0  0  0  0  0  0  0  0
   37.6360   27.9070   30.9550 C   0  0  0  0  0  0  0  0  0  0  0  0
   38.9290   27.6670   31.3160 N   0  0  0  0  0  0  0  0  0  0  0  0
   40.1710   26.6500   32.6080 H   0  0  0  0  0  0  0  0  0  0  0  0
   35.9620   26.0100   33.1420 H   0  0  0  0  0  0  0  0  0  0  0  0
   37.5140   28.5930   30.1220 H   0  0  0  0  0  0  0  0  0  0  0  0
   38.3410   27.0370   35.8870 C   0  0  0  0  0  0  0  0  0  0  0  0
   38.2490   27.0480   37.2880 F   0  0  0  0  0  0  0  0  0  0  0  0
   39.6740   27.1800   35.5540 F   0  0  0  0  0  0  0  0  0  0  0  0
   37.5990   28.0540   35.3820 F   0  0  0  0  0  0  0  0  0  0  0  0
  1  6  1  0  0  0  0
  2  1  1  0  0  0  0
  2  3  1  0  0  0  0
  3 10  1  0  0  0  0
  3  4  1  0  0  0  0
  4  5  1  0  0  0  0
  4 11  1  0  0  0  0
  5 12  1  0  0  0  0
  5 13  1  0  0  0  0
  6 14  1  6  0  0  0
  6 24  1  0  0  0  0
  6  5  1  0  0  0  0
  7  2  1  0  0  0  0
  8  2  1  0  0  0  0
  9  3  1  0  0  0  0
 15 21  1  0  0  0  0
 15 16  1  0  0  0  0
 16  1  1  0  0  0  0
 17 16  2  0  0  0  0
 17 22  1  0  0  0  0
 18 17  1  0  0  0  0
 19 20  1  0  0  0  0
 19 18  2  0  0  0  0
 20 15  2  0  0  0  0
 23 19  1  0  0  0  0
 24 25  1  0  0  0  0
 26 24  1  0  0  0  0
 27 24  1  0  0  0  0
M  END
>  <minimizedAffinity>
-4.1571064

$$$$

 OpenBabel03272508313D

 27 28  0  0  1  0  0  0  0  0999 V2000
   33.0890   30.8100   36.1100 N   0  0  0  0  0  0  0  0  0  0  0  0
   34.4320   30.8590   35.5110 C   0  0  0  0  0  0  0  0  0  0  0  0
   35.2940   31.8940   36.1250 C   0  0  0  0  0  0  0  0  0  0  0  0
   34.8560   32.1540   37.4750 N   0  0  0  0  0  0  0  0  0  0  0  0
   33.5960   32.8620   37.3310 C   0  0  0  0  0  0  0  0  0  0  0  0
   32.5790   31.7790   37.0560 C   0  0  1  0  0  0  0  0  0  0  0  0
   34.8670   29.8570   35.7530 H   0  0  0  0  0  0  0  0  0  0  0  0
   34.3790   30.9440   34.4120 H   0  0  0  0  0  0  0  0  0  0  0  0
   36.3580   31.6710   36.0610 H   0  0  0  0  0  0  0  0  0  0  0  0
   35.1390   32.8500   35.5450 H   0  0  0  0  0  0  0  0  0  0  0  0
   35.5630   32.7820   37.9470 H   0  0  0  0  0  0  0  0  0  0  0  0
   33.7030   33.5890   36.5110 H   0  0  0  0  0  0  0  0  0  0  0  0
   33.2980   33.3620   38.2920 H   0  0  0  0  0  0  0  0  0  0  0  0
   32.4300   31.2350   38.0130 H   0  0  0  0  0  0  0  0  0  0  0  0
   31.8000   28.8030   36.6660 C   0  0  0  0  0  0  0  0  0  0  0  0
   32.2500   29.7330   35.7280 C   0  0  0  0  0  0  0  0  0  0  0  0
   31.8360   29.5520   34.4190 C   0  0  0  0  0  0  0  0  0  0  0  0
   31.0260   28.4990   34.1020 N   0  0  0  0  0  0  0  0  0  0  0  0
   30.6230   27.6290   35.0610 C   0  0  0  0  0  0  0  0  0  0  0  0
   31.0010   27.7600   36.3650 N   0  0  0  0  0  0  0  0  0  0  0  0
   32.0820   28.8770   37.7160 H   0  0  0  0  0  0  0  0  0  0  0  0
   32.1550   30.2450   33.6500 H   0  0  0  0  0  0  0  0  0  0  0  0
   29.9790   26.7790   34.8540 H   0  0  0  0  0  0  0  0  0  0  0  0
   31.2590   32.3930   36.6220 C   0  0  0  0  0  0  0  0  0  0  0  0
   31.1300   33.5980   37.3330 F   0  0  0  0  0  0  0  0  0  0  0  0
   31.3550   32.7090   35.2790 F   0  0  0  0  0  0  0  0  0  0  0  0
   30.1790   31.6120   36.8650 F   0  0  0  0  0  0  0  0  0  0  0  0
  1  6  1  0  0  0  0
  2  7  1  0  0  0  0
  2  1  1  0  0  0  0
  2  3  1  0  0  0  0
  3  4  1  0  0  0  0
  4 11  1  0  0  0  0
  5  4  1  0  0  0  0
  5 13  1  0  0  0  0
  6  5  1  0  0  0  0
  6 14  1  1  0  0  0
  8  2  1  0  0  0  0
  9  3  1  0  0  0  0
 10  3  1  0  0  0  0
 12  5  1  0  0  0  0
 15 21  1  0  0  0  0
 16  1  1  0  0  0  0
 16 15  2  0  0  0  0
 17 16  1  0  0  0  0
 18 17  2  0  0  0  0
 18 19  1  0  0  0  0
 19 20  2  0  0  0  0
 20 15  1  0  0  0  0
 22 17  1  0  0  0  0
 23 19  1  0  0  0  0
 24 27  1  0  0  0  0
 24  6  1  0  0  0  0
 24 25  1  0  0  0  0
 26 24  1  0  0  0  0
M  END
>  <minimizedAffinity>
-4.13920259

$$$$

 OpenBabel03272508313D

 27 28  0  0  1  0  0  0  0  0999 V2000
   39.2960   23.5020   35.7530 N   0  0  0  0  0  0  0  0  0  0  0  0
   40.4120   22.6770   36.2400 C   0  0  0  0  0  0  0  0  0  0  0  0
   40.3770   22.4760   37.7060 C   0  0  0  0  0  0  0  0  0  0  0  0
   39.0200   22.5980   38.1820 N   0  0  0  0  0  0  0  0  0  0  0  0
   38.7080   24.0120   38.0670 C   0  0  0  0  0  0  0  0  0  0  0  0
   38.3680   24.2100   36.6080 C   0  0  1  0  0  0  0  0  0  0  0  0
   40.2420   21.6850   35.7490 H   0  0  0  0  0  0  0  0  0  0  0  0
   41.3820   23.0630   35.8850 H   0  0  0  0  0  0  0  0  0  0  0  0
   40.8580   21.5550   38.0330 H   0  0  0  0  0  0  0  0  0  0  0  0
   40.9620   23.3190   38.1770 H   0  0  0  0  0  0  0  0  0  0  0  0
   38.9890   22.3100   39.1980 H   0  0  0  0  0  0  0  0  0  0  0  0
   39.5880   24.5850   38.3990 H   0  0  0  0  0  0  0  0  0  0  0  0
   37.7920   24.2770   38.6610 H   0  0  0  0  0  0  0  0  0  0  0  0
   37.3740   23.7410   36.4490 H   0  0  0  0  0  0  0  0  0  0  0  0
   37.9250   23.2320   33.7410 C   0  0  0  0  0  0  0  0  0  0  0  0
   39.1270   23.5980   34.3490 C   0  0  0  0  0  0  0  0  0  0  0  0
   40.1350   24.0560   33.5170 C   0  0  0  0  0  0  0  0  0  0  0  0
   39.9230   24.1320   32.1700 N   0  0  0  0  0  0  0  0  0  0  0  0
   38.7310   23.7610   31.6400 C   0  0  0  0  0  0  0  0  0  0  0  0
   37.7050   23.3020   32.4120 N   0  0  0  0  0  0  0  0  0  0  0  0
   37.0850   22.8610   34.3270 H   0  0  0  0  0  0  0  0  0  0  0  0
   41.0880   24.3550   33.9360 H   0  0  0  0  0  0  0  0  0  0  0  0
   38.5190   23.8050   30.5760 H   0  0  0  0  0  0  0  0  0  0  0  0
   38.2770   25.6920   36.2850 C   0  0  0  0  0  0  0  0  0  0  0  0
   37.1220   25.8560   35.5020 F   0  0  0  0  0  0  0  0  0  0  0  0
   38.0800   26.3770   37.4690 F   0  0  0  0  0  0  0  0  0  0  0  0
   39.3470   26.1770   35.6100 F   0  0  0  0  0  0  0  0  0  0  0  0
  1  2  1  0  0  0  0
  1  6  1  0  0  0  0
  2  3  1  0  0  0  0
  3  9  1  0  0  0  0
  3 10  1  0  0  0  0
  3  4  1  0  0  0  0
  4 11  1  0  0  0  0
  5  4  1  0  0  0  0
  5 12  1  0  0  0  0
  5 13  1  0  0  0  0
  6 14  1  6  0  0  0
  6  5  1  0  0  0  0
  7  2  1  0  0  0  0
  8  2  1  0  0  0  0
 15 21  1  0  0  0  0
 15 16  1  0  0  0  0
 16  1  1  0  0  0  0
 17 22  1  0  0  0  0
 17 16  2  0  0  0  0
 18 17  1  0  0  0  0
 19 18  2  0  0  0  0
 19 20  1  0  0  0  0
 20 15  2  0  0  0  0
 23 19  1  0  0  0  0
 24  6  1  0  0  0  0
 24 26  1  0  0  0  0
 25 24  1  0  0  0  0
 27 24  1  0  0  0  0
M  END
>  <minimizedAffinity>
-4.07937956

$$$$

 OpenBabel03272508313D

 27 28  0  0  1  0  0  0  0  0999 V2000
   38.9630   24.2310   36.2340 N   0  0  0  0  0  0  0  0  0  0  0  0
   37.8210   24.2070   37.1620 C   0  0  0  0  0  0  0  0  0  0  0  0
   38.0580   23.3400   38.3380 C   0  0  0  0  0  0  0  0  0  0  0  0
   39.4770   23.2360   38.5880 N   0  0  0  0  0  0  0  0  0  0  0  0
   39.9890   22.4170   37.5040 C   0  0  0  0  0  0  0  0  0  0  0  0
   40.1180   23.3650   36.3360 C   0  0  1  0  0  0  0  0  0  0  0  0
   37.7480   25.2640   37.5190 H   0  0  0  0  0  0  0  0  0  0  0  0
   36.8820   23.9660   36.6370 H   0  0  0  0  0  0  0  0  0  0  0  0
   37.4940   23.6370   39.2210 H   0  0  0  0  0  0  0  0  0  0  0  0
   37.7010   22.3030   38.0710 H   0  0  0  0  0  0  0  0  0  0  0  0
   39.6230   22.7390   39.5090 H   0  0  0  0  0  0  0  0  0  0  0  0
   39.2790   21.5940   37.3310 H   0  0  0  0  0  0  0  0  0  0  0  0
   41.0200   22.0330   37.7370 H   0  0  0  0  0  0  0  0  0  0  0  0
   40.9850   24.0240   36.5580 H   0  0  0  0  0  0  0  0  0  0  0  0
   37.9540   25.0800   34.1710 C   0  0  0  0  0  0  0  0  0  0  0  0
   38.9170   25.1730   35.1770 C   0  0  0  0  0  0  0  0  0  0  0  0
   39.8140   26.2250   35.0880 C   0  0  0  0  0  0  0  0  0  0  0  0
   39.7270   27.1080   34.0500 N   0  0  0  0  0  0  0  0  0  0  0  0
   38.7660   26.9620   33.1030 C   0  0  0  0  0  0  0  0  0  0  0  0
   37.8580   25.9460   33.1410 N   0  0  0  0  0  0  0  0  0  0  0  0
   37.2130   24.2820   34.1690 H   0  0  0  0  0  0  0  0  0  0  0  0
   40.5820   26.3450   35.8430 H   0  0  0  0  0  0  0  0  0  0  0  0
   38.6600   27.6410   32.2620 H   0  0  0  0  0  0  0  0  0  0  0  0
   40.3940   22.5930   35.0570 C   0  0  0  0  0  0  0  0  0  0  0  0
   41.2440   21.5320   35.4110 F   0  0  0  0  0  0  0  0  0  0  0  0
   39.2020   22.0460   34.6220 F   0  0  0  0  0  0  0  0  0  0  0  0
   40.9800   23.3290   34.0820 F   0  0  0  0  0  0  0  0  0  0  0  0
  1  6  1  0  0  0  0
  1  2  1  0  0  0  0
  2  7  1  0  0  0  0
  2  3  1  0  0  0  0
  3  4  1  0  0  0  0
  3  9  1  0  0  0  0
  4 11  1  0  0  0  0
  5 13  1  0  0  0  0
  5  4  1  0  0  0  0
  6 14  1  1  0  0  0
  6  5  1  0  0  0  0
  8  2  1  0  0  0  0
 10  3  1  0  0  0  0
 12  5  1  0  0  0  0
 15 16  1  0  0  0  0
 16  1  1  0  0  0  0
 17 16  2  0  0  0  0
 17 22  1  0  0  0  0
 18 17  1  0  0  0  0
 19 20  1  0  0  0  0
 19 18  2  0  0  0  0
 20 15  2  0  0  0  0
 21 15  1  0  0  0  0
 23 19  1  0  0  0  0
 24 25  1  0  0  0  0
 24  6  1  0  0  0  0
 26 24  1  0  0  0  0
 27 24  1  0  0  0  0
M  END
>  <minimizedAffinity>
-3.95653987

$$$$

 OpenBabel03272508313D

 27 28  0  0  1  0  0  0  0  0999 V2000
   38.8420   26.5180   32.9960 N   0  0  0  0  0  0  0  0  0  0  0  0
   39.8930   27.0910   32.1410 C   0  0  0  0  0  0  0  0  0  0  0  0
   41.1730   27.2810   32.8590 C   0  0  0  0  0  0  0  0  0  0  0  0
   41.2580   26.3490   33.9580 N   0  0  0  0  0  0  0  0  0  0  0  0
   40.2940   26.8300   34.9330 C   0  0  0  0  0  0  0  0  0  0  0  0
   38.9600   26.3340   34.4260 C   0  0  1  0  0  0  0  0  0  0  0  0
   40.0490   26.3110   31.3540 H   0  0  0  0  0  0  0  0  0  0  0  0
   39.5460   28.0080   31.6370 H   0  0  0  0  0  0  0  0  0  0  0  0
   42.0480   27.2500   32.2110 H   0  0  0  0  0  0  0  0  0  0  0  0
   41.1560   28.3150   33.3130 H   0  0  0  0  0  0  0  0  0  0  0  0
   42.2310   26.3960   34.3690 H   0  0  0  0  0  0  0  0  0  0  0  0
   40.3710   27.9270   34.9790 H   0  0  0  0  0  0  0  0  0  0  0  0
   40.4630   26.3590   35.9390 H   0  0  0  0  0  0  0  0  0  0  0  0
   38.9420   25.2380   34.6050 H   0  0  0  0  0  0  0  0  0  0  0  0
   36.8500   27.0400   31.6700 C   0  0  0  0  0  0  0  0  0  0  0  0
   37.6390   26.1190   32.3610 C   0  0  0  0  0  0  0  0  0  0  0  0
   37.1890   24.8090   32.3930 C   0  0  0  0  0  0  0  0  0  0  0  0
   36.0240   24.4750   31.7640 N   0  0  0  0  0  0  0  0  0  0  0  0
   35.3020   25.4180   31.1080 C   0  0  0  0  0  0  0  0  0  0  0  0
   35.6970   26.7220   31.0460 N   0  0  0  0  0  0  0  0  0  0  0  0
   37.1350   28.0890   31.6000 H   0  0  0  0  0  0  0  0  0  0  0  0
   37.7630   24.0540   32.9150 H   0  0  0  0  0  0  0  0  0  0  0  0
   34.3710   25.1970   30.5940 H   0  0  0  0  0  0  0  0  0  0  0  0
   37.8270   26.9840   35.2020 C   0  0  0  0  0  0  0  0  0  0  0  0
   36.8220   26.0110   35.3250 F   0  0  0  0  0  0  0  0  0  0  0  0
   38.2880   27.2710   36.4730 F   0  0  0  0  0  0  0  0  0  0  0  0
   37.3110   28.0870   34.6080 F   0  0  0  0  0  0  0  0  0  0  0  0
  1  6  1  0  0  0  0
  2  3  1  0  0  0  0
  2  1  1  0  0  0  0
  3 10  1  0  0  0  0
  3  4  1  0  0  0  0
  4 11  1  0  0  0  0
  4  5  1  0  0  0  0
  5 12  1  0  0  0  0
  5 13  1  0  0  0  0
  6 14  1  1  0  0  0
  6  5  1  0  0  0  0
  6 24  1  0  0  0  0
  7  2  1  0  0  0  0
  8  2  1  0  0  0  0
  9  3  1  0  0  0  0
 15 16  1  0  0  0  0
 16 17  2  0  0  0  0
 16  1  1  0  0  0  0
 17 22  1  0  0  0  0
 18 17  1  0  0  0  0
 19 18  2  0  0  0  0
 20 19  1  0  0  0  0
 20 15  2  0  0  0  0
 21 15  1  0  0  0  0
 23 19  1  0  0  0  0
 24 25  1  0  0  0  0
 24 26  1  0  0  0  0
 27 24  1  0  0  0  0
M  END
>  <minimizedAffinity>
-3.93985701

$$$$

 OpenBabel03272508313D

 27 28  0  0  1  0  0  0  0  0999 V2000
   38.4140   25.6560   33.8320 N   0  0  0  0  0  0  0  0  0  0  0  0
   37.1230   26.0910   33.2750 C   0  0  0  0  0  0  0  0  0  0  0  0
   37.2750   26.8900   32.0380 C   0  0  0  0  0  0  0  0  0  0  0  0
   38.5140   26.5430   31.3830 N   0  0  0  0  0  0  0  0  0  0  0  0
   39.5540   27.1010   32.2280 C   0  0  0  0  0  0  0  0  0  0  0  0
   39.7040   26.1070   33.3570 C   0  0  1  0  0  0  0  0  0  0  0  0
   36.6130   25.1320   33.0080 H   0  0  0  0  0  0  0  0  0  0  0  0
   36.5070   26.5980   34.0360 H   0  0  0  0  0  0  0  0  0  0  0  0
   36.4150   26.8330   31.3720 H   0  0  0  0  0  0  0  0  0  0  0  0
   37.3640   27.9730   32.3440 H   0  0  0  0  0  0  0  0  0  0  0  0
   38.5390   27.0090   30.4350 H   0  0  0  0  0  0  0  0  0  0  0  0
   39.2290   28.1000   32.5580 H   0  0  0  0  0  0  0  0  0  0  0  0
   40.5390   27.1420   31.6880 H   0  0  0  0  0  0  0  0  0  0  0  0
   40.2090   25.2150   32.9270 H   0  0  0  0  0  0  0  0  0  0  0  0
   37.8080   25.0740   36.1320 C   0  0  0  0  0  0  0  0  0  0  0  0
   38.3760   24.7300   34.9040 C   0  0  0  0  0  0  0  0  0  0  0  0
   38.8930   23.4500   34.7900 C   0  0  0  0  0  0  0  0  0  0  0  0
   38.8300   22.5940   35.8520 N   0  0  0  0  0  0  0  0  0  0  0  0
   38.2640   22.9890   37.0200 C   0  0  0  0  0  0  0  0  0  0  0  0
   37.7410   24.2380   37.1880 N   0  0  0  0  0  0  0  0  0  0  0  0
   37.3810   26.0620   36.3020 H   0  0  0  0  0  0  0  0  0  0  0  0
   39.3440   23.1310   33.8590 H   0  0  0  0  0  0  0  0  0  0  0  0
   38.1930   22.3420   37.8890 H   0  0  0  0  0  0  0  0  0  0  0  0
   40.5720   26.6880   34.4590 C   0  0  0  0  0  0  0  0  0  0  0  0
   41.4580   27.5820   33.8370 F   0  0  0  0  0  0  0  0  0  0  0  0
   39.7590   27.4220   35.3020 F   0  0  0  0  0  0  0  0  0  0  0  0
   41.2830   25.7620   35.1490 F   0  0  0  0  0  0  0  0  0  0  0  0
  1 16  1  0  0  0  0
  2  1  1  0  0  0  0
  2  8  1  0  0  0  0
  3 10  1  0  0  0  0
  3  2  1  0  0  0  0
  4  3  1  0  0  0  0
  4  5  1  0  0  0  0
  5 12  1  0  0  0  0
  5  6  1  0  0  0  0
  6 14  1  6  0  0  0
  6  1  1  0  0  0  0
  6 24  1  0  0  0  0
  7  2  1  0  0  0  0
  9  3  1  0  0  0  0
 11  4  1  0  0  0  0
 13  5  1  0  0  0  0
 15 21  1  0  0  0  0
 15 20  1  0  0  0  0
 16 15  2  0  0  0  0
 17 16  1  0  0  0  0
 17 18  2  0  0  0  0
 18 19  1  0  0  0  0
 19 20  2  0  0  0  0
 19 23  1  0  0  0  0
 22 17  1  0  0  0  0
 24 27  1  0  0  0  0
 24 26  1  0  0  0  0
 25 24  1  0  0  0  0
M  END
>  <minimizedAffinity>
-3.93948078

$$$$

 OpenBabel03272508313D

 27 28  0  0  1  0  0  0  0  0999 V2000
   38.8170   26.4830   33.0190 N   0  0  0  0  0  0  0  0  0  0  0  0
   39.8480   27.1010   32.1690 C   0  0  0  0  0  0  0  0  0  0  0  0
   41.1280   27.3090   32.8820 C   0  0  0  0  0  0  0  0  0  0  0  0
   41.2440   26.3570   33.9610 N   0  0  0  0  0  0  0  0  0  0  0  0
   40.2760   26.7930   34.9520 C   0  0  0  0  0  0  0  0  0  0  0  0
   38.9510   26.2740   34.4450 C   0  0  1  0  0  0  0  0  0  0  0  0
   40.0170   26.3410   31.3650 H   0  0  0  0  0  0  0  0  0  0  0  0
   39.4730   28.0190   31.6870 H   0  0  0  0  0  0  0  0  0  0  0  0
   41.9970   27.3130   32.2270 H   0  0  0  0  0  0  0  0  0  0  0  0
   41.0870   28.3320   33.3570 H   0  0  0  0  0  0  0  0  0  0  0  0
   42.2180   26.4200   34.3660 H   0  0  0  0  0  0  0  0  0  0  0  0
   40.3260   27.8900   35.0200 H   0  0  0  0  0  0  0  0  0  0  0  0
   40.4650   26.3060   35.9470 H   0  0  0  0  0  0  0  0  0  0  0  0
   38.9620   25.1740   34.6010 H   0  0  0  0  0  0  0  0  0  0  0  0
   37.2410   24.7240   32.3710 C   0  0  0  0  0  0  0  0  0  0  0  0
   37.6200   26.0680   32.3850 C   0  0  0  0  0  0  0  0  0  0  0  0
   36.7720   26.9630   31.7540 C   0  0  0  0  0  0  0  0  0  0  0  0
   35.6280   26.5130   31.1590 N   0  0  0  0  0  0  0  0  0  0  0  0
   35.3160   25.1930   31.1810 C   0  0  0  0  0  0  0  0  0  0  0  0
   36.1140   24.2680   31.7870 N   0  0  0  0  0  0  0  0  0  0  0  0
   37.8540   23.9590   32.8460 H   0  0  0  0  0  0  0  0  0  0  0  0
   37.0180   28.0180   31.7350 H   0  0  0  0  0  0  0  0  0  0  0  0
   34.4180   24.7930   30.7210 H   0  0  0  0  0  0  0  0  0  0  0  0
   37.8080   26.8790   35.2420 C   0  0  0  0  0  0  0  0  0  0  0  0
   38.3030   27.1000   36.5370 F   0  0  0  0  0  0  0  0  0  0  0  0
   37.5070   28.1110   34.6920 F   0  0  0  0  0  0  0  0  0  0  0  0
   36.7060   26.0920   35.3130 F   0  0  0  0  0  0  0  0  0  0  0  0
  1  6  1  0  0  0  0
  2  3  1  0  0  0  0
  2  1  1  0  0  0  0
  3 10  1  0  0  0  0
  3  4  1  0  0  0  0
  4 11  1  0  0  0  0
  4  5  1  0  0  0  0
  5 12  1  0  0  0  0
  5 13  1  0  0  0  0
  6 14  1  1  0  0  0
  6  5  1  0  0  0  0
  6 24  1  0  0  0  0
  7  2  1  0  0  0  0
  8  2  1  0  0  0  0
  9  3  1  0  0  0  0
 15 16  1  0  0  0  0
 15 21  1  0  0  0  0
 16  1  1  0  0  0  0
 17 16  2  0  0  0  0
 18 19  2  0  0  0  0
 18 17  1  0  0  0  0
 19 20  1  0  0  0  0
 20 15  2  0  0  0  0
 22 17  1  0  0  0  0
 23 19  1  0  0  0  0
 24 27  1  0  0  0  0
 24 25  1  0  0  0  0
 26 24  1  0  0  0  0
M  END
>  <minimizedAffinity>
-3.91536713

$$$$
