
 OpenBabel03272510233D

 26 28  0  0  0  0  0  0  0  0999 V2000
   36.2650   30.2240   46.2010 C   0  0  0  0  0  0  0  0  0  0  0  0
   37.1960   30.9150   46.9390 C   0  0  0  0  0  0  0  0  0  0  0  0
   38.0170   31.8410   46.3380 C   0  0  0  0  0  0  0  0  0  0  0  0
   37.8650   32.0430   44.9780 C   0  0  0  0  0  0  0  0  0  0  0  0
   38.5570   32.9000   44.1680 N   0  0  0  0  0  0  0  0  0  0  0  0
   38.0680   32.7530   42.9300 C   0  0  0  0  0  0  0  0  0  0  0  0
   37.0880   31.8320   42.9160 N   0  0  0  0  0  0  0  0  0  0  0  0
   36.9400   31.3720   44.1860 C   0  0  0  0  0  0  0  0  0  0  0  0
   36.1320   30.4480   44.8230 C   0  0  0  0  0  0  0  0  0  0  0  0
   35.5910   29.4870   46.6070 H   0  0  0  0  0  0  0  0  0  0  0  0
   38.7420   32.3780   46.9180 H   0  0  0  0  0  0  0  0  0  0  0  0
   39.3330   33.5580   44.4560 H   0  0  0  0  0  0  0  0  0  0  0  0
   35.3950   29.9050   44.2240 H   0  0  0  0  0  0  0  0  0  0  0  0
   38.0810   30.8980   50.6040 C   0  0  0  0  0  0  0  0  0  0  0  0
   38.0880   31.2510   49.2580 C   0  0  0  0  0  0  0  0  0  0  0  0
   37.2530   30.6070   48.3650 C   0  0  0  0  0  0  0  0  0  0  0  0
   36.4300   29.6250   48.8400 N   0  0  0  0  0  0  0  0  0  0  0  0
   36.4490   29.3020   50.1710 C   0  0  0  0  0  0  0  0  0  0  0  0
   37.2550   29.9240   51.0270 N   0  0  0  0  0  0  0  0  0  0  0  0
   38.7420   31.4180   51.2680 H   0  0  0  0  0  0  0  0  0  0  0  0
   38.7340   32.0190   48.9060 H   0  0  0  0  0  0  0  0  0  0  0  0
   35.7560   28.5080   50.4360 H   0  0  0  0  0  0  0  0  0  0  0  0
   38.5820   33.5330   41.7630 C   0  0  0  0  0  0  0  0  0  0  0  0
   39.5550   34.4290   42.0930 F   0  0  0  0  0  0  0  0  0  0  0  0
   37.5230   34.2120   41.1660 F   0  0  0  0  0  0  0  0  0  0  0  0
   39.0810   32.6890   40.7870 F   0  0  0  0  0  0  0  0  0  0  0  0
  1 10  1  0  0  0  0
  1  2  1  0  0  0  0
  2 16  1  0  0  0  0
  3 11  1  0  0  0  0
  3  2  2  0  0  0  0
  4  3  1  0  0  0  0
  5 12  1  0  0  0  0
  5  4  1  0  0  0  0
  6  5  1  0  0  0  0
  7  6  2  0  0  0  0
  7  8  1  0  0  0  0
  8  9  1  0  0  0  0
  8  4  2  0  0  0  0
  9  1  2  0  0  0  0
 13  9  1  0  0  0  0
 14 19  1  0  0  0  0
 14 20  1  0  0  0  0
 15 14  2  0  0  0  0
 16 17  2  0  0  0  0
 16 15  1  0  0  0  0
 17 18  1  0  0  0  0
 18 22  1  0  0  0  0
 18 19  2  0  0  0  0
 21 15  1  0  0  0  0
 23 24  1  0  0  0  0
 23  6  1  0  0  0  0
 25 23  1  0  0  0  0
 26 23  1  0  0  0  0
M  END
>  <minimizedAffinity>
-5.09533834

>  <minimizedRMSD>
2.28514266

$$$$
