
 OpenBabel03272506463D

 37 39  0  0  1  0  0  0  0  0999 V2000
   32.1140   28.5770   47.4470 C   0  0  2  0  0  0  0  0  0  0  0  0
   33.3680   28.2280   48.1940 C   0  0  1  0  0  0  0  0  0  0  0  0
   33.5930   26.8930   48.0400 O   0  0  0  0  0  0  0  0  0  0  0  0
   32.7660   26.4010   47.0360 C   0  0  0  0  0  0  0  0  0  0  0  0
   32.2600   27.5850   46.2500 C   0  0  1  0  0  0  0  0  0  0  0  0
   31.1800   28.3710   47.9610 H   0  0  0  0  0  0  0  0  0  0  0  0
   33.3010   28.5710   49.2420 H   0  0  0  0  0  0  0  0  0  0  0  0
   32.0210   25.7900   47.5190 H   0  0  0  0  0  0  0  0  0  0  0  0
   33.3620   25.7070   46.3870 H   0  0  0  0  0  0  0  0  0  0  0  0
   32.9710   28.0290   45.5650 H   0  0  0  0  0  0  0  0  0  0  0  0
   32.1800   29.8950   46.9530 O   0  0  0  0  0  0  0  0  0  0  0  0
   31.3840   30.4110   47.1610 H   0  0  0  0  0  0  0  0  0  0  0  0
   34.7560   29.1330   47.3990 S   0  0  0  0  0  0  0  0  0  0  0  0
   37.0330   29.3160   50.6300 C   0  0  0  0  0  0  0  0  0  0  0  0
   37.5250   30.6260   50.6630 C   0  0  0  0  0  0  0  0  0  0  0  0
   37.1270   31.4880   49.6270 C   0  0  0  0  0  0  0  0  0  0  0  0
   36.2990   31.0130   48.6640 N   0  0  0  0  0  0  0  0  0  0  0  0
   35.8500   29.7370   48.6800 C   0  0  0  0  0  0  0  0  0  0  0  0
   36.2100   28.8710   49.6620 N   0  0  0  0  0  0  0  0  0  0  0  0
   37.3260   28.6370   51.4160 H   0  0  0  0  0  0  0  0  0  0  0  0
   38.1870   30.9780   51.4450 H   0  0  0  0  0  0  0  0  0  0  0  0
   37.4600   32.5050   49.5780 H   0  0  0  0  0  0  0  0  0  0  0  0
   31.0350   27.2740   45.7140 O   0  0  0  0  0  0  0  0  0  0  0  0
   29.5740   29.6850   44.8590 Cl  0  0  0  0  0  0  0  0  0  0  0  0
   29.0880   28.4680   46.0160 C   0  0  0  0  0  0  0  0  0  0  0  0
   29.8600   27.3710   46.3260 C   0  0  0  0  0  0  0  0  0  0  0  0
   29.3540   26.4530   47.2500 C   0  0  0  0  0  0  0  0  0  0  0  0
   28.1160   26.6470   47.8270 C   0  0  0  0  0  0  0  0  0  0  0  0
   27.3330   27.7480   47.5210 C   0  0  0  0  0  0  0  0  0  0  0  0
   27.8430   28.6600   46.6000 C   0  0  0  0  0  0  0  0  0  0  0  0
   29.8790   25.5640   47.5520 H   0  0  0  0  0  0  0  0  0  0  0  0
   27.6680   25.9790   48.5450 H   0  0  0  0  0  0  0  0  0  0  0  0
   26.3630   27.9110   47.9650 H   0  0  0  0  0  0  0  0  0  0  0  0
   27.0100   29.8440   46.2640 C   0  0  0  0  0  0  0  0  0  0  0  0
   26.4800   29.7600   44.9910 F   0  0  0  0  0  0  0  0  0  0  0  0
   27.8590   30.9580   46.3100 F   0  0  0  0  0  0  0  0  0  0  0  0
   26.0460   30.0800   47.2050 F   0  0  0  0  0  0  0  0  0  0  0  0
  1  6  1  1  0  0  0
  1  2  1  0  0  0  0
  2  7  1  1  0  0  0
  3  2  1  0  0  0  0
  4  8  1  0  0  0  0
  4  3  1  0  0  0  0
  5 10  1  6  0  0  0
  5  4  1  0  0  0  0
  5  1  1  0  0  0  0
  9  4  1  0  0  0  0
 11 12  1  0  0  0  0
 11  1  1  0  0  0  0
 13  2  1  0  0  0  0
 13 18  1  0  0  0  0
 14 15  1  0  0  0  0
 14 20  1  0  0  0  0
 15 21  1  0  0  0  0
 16 15  2  0  0  0  0
 17 18  2  0  0  0  0
 17 16  1  0  0  0  0
 18 19  1  0  0  0  0
 19 14  2  0  0  0  0
 22 16  1  0  0  0  0
 23  5  1  0  0  0  0
 23 26  1  0  0  0  0
 24 25  1  0  0  0  0
 25 26  2  0  0  0  0
 25 30  1  0  0  0  0
 26 27  1  0  0  0  0
 27 31  1  0  0  0  0
 27 28  2  0  0  0  0
 28 32  1  0  0  0  0
 29 28  1  0  0  0  0
 29 33  1  0  0  0  0
 30 29  2  0  0  0  0
 34 36  1  0  0  0  0
 34 30  1  0  0  0  0
 34 37  1  0  0  0  0
 35 34  1  0  0  0  0
M  END
>  <minimizedAffinity>
-4.81574631

>  <minimizedRMSD>
0.658704162

$$$$
