
 OpenBabel03272508473D

 35 38  0  0  0  0  0  0  0  0999 V2000
   35.5990   29.7070   49.6430 C   0  0  0  0  0  0  0  0  0  0  0  0
   36.5800   29.5690   50.6140 C   0  0  0  0  0  0  0  0  0  0  0  0
   37.7090   30.0960   50.0000 C   0  0  0  0  0  0  0  0  0  0  0  0
   37.3890   30.5190   48.7310 C   0  0  0  0  0  0  0  0  0  0  0  0
   36.1120   30.2630   48.5680 O   0  0  0  0  0  0  0  0  0  0  0  0
   36.4890   29.1480   51.6170 H   0  0  0  0  0  0  0  0  0  0  0  0
   38.6960   30.1670   50.4490 H   0  0  0  0  0  0  0  0  0  0  0  0
   38.7510   32.4070   47.9770 C   0  0  0  0  0  0  0  0  0  0  0  0
   38.2730   31.1320   47.7470 C   0  0  0  0  0  0  0  0  0  0  0  0
   38.6110   30.4210   46.6130 C   0  0  0  0  0  0  0  0  0  0  0  0
   39.4530   30.9800   45.6560 C   0  0  0  0  0  0  0  0  0  0  0  0
   39.9530   30.5540   44.4780 N   0  0  0  0  0  0  0  0  0  0  0  0
   40.7090   31.5330   44.0060 N   0  0  0  0  0  0  0  0  0  0  0  0
   40.7040   32.5810   44.8580 C   0  0  0  0  0  0  0  0  0  0  0  0
   39.8950   32.2540   45.9450 C   0  0  0  0  0  0  0  0  0  0  0  0
   39.6030   33.0140   47.0450 C   0  0  0  0  0  0  0  0  0  0  0  0
   38.4770   32.9330   48.8590 H   0  0  0  0  0  0  0  0  0  0  0  0
   38.2110   29.4120   46.4680 H   0  0  0  0  0  0  0  0  0  0  0  0
   39.7100   29.6000   44.1170 H   0  0  0  0  0  0  0  0  0  0  0  0
   41.2650   33.4810   44.6460 H   0  0  0  0  0  0  0  0  0  0  0  0
   39.9990   33.9910   47.1730 H   0  0  0  0  0  0  0  0  0  0  0  0
   34.2100   29.2890   49.8150 C   0  0  0  0  0  0  0  0  0  0  0  0
   33.6210   29.6000   50.8660 O   0  0  0  0  0  0  0  0  0  0  0  0
   31.7620   27.1800   48.1150 C   0  0  0  0  0  0  0  0  0  0  0  0
   32.2770   27.0700   46.8190 C   0  0  0  0  0  0  0  0  0  0  0  0
   33.4530   27.7140   46.5340 C   0  0  0  0  0  0  0  0  0  0  0  0
   34.0620   28.4220   47.5060 N   0  0  0  0  0  0  0  0  0  0  0  0
   33.5590   28.5250   48.7550 C   0  0  0  0  0  0  0  0  0  0  0  0
   32.4020   27.8980   49.0580 N   0  0  0  0  0  0  0  0  0  0  0  0
   30.8350   26.6780   48.3550 H   0  0  0  0  0  0  0  0  0  0  0  0
   31.7790   26.5020   46.0590 H   0  0  0  0  0  0  0  0  0  0  0  0
   34.0010   27.5980   45.1580 C   0  0  0  0  0  0  0  0  0  0  0  0
   34.9160   28.6120   44.8700 F   0  0  0  0  0  0  0  0  0  0  0  0
   34.5790   26.3480   44.9430 F   0  0  0  0  0  0  0  0  0  0  0  0
   33.0110   27.7080   44.2020 F   0  0  0  0  0  0  0  0  0  0  0  0
  1 22  1  0  0  0  0
  1  2  2  0  0  0  0
  2  6  1  0  0  0  0
  3  7  1  0  0  0  0
  3  2  1  0  0  0  0
  4  3  2  0  0  0  0
  5  4  1  0  0  0  0
  5  1  1  0  0  0  0
  8 17  1  0  0  0  0
  9  8  1  0  0  0  0
  9  4  1  0  0  0  0
 10  9  2  0  0  0  0
 11 15  2  0  0  0  0
 11 10  1  0  0  0  0
 12 11  1  0  0  0  0
 13 12  1  0  0  0  0
 13 14  2  0  0  0  0
 14 15  1  0  0  0  0
 15 16  1  0  0  0  0
 16 21  1  0  0  0  0
 16  8  2  0  0  0  0
 18 10  1  0  0  0  0
 19 12  1  0  0  0  0
 20 14  1  0  0  0  0
 22 23  2  0  0  0  0
 24 30  1  0  0  0  0
 24 29  1  0  0  0  0
 25 24  2  0  0  0  0
 26 25  1  0  0  0  0
 26 27  2  0  0  0  0
 27 28  1  0  0  0  0
 28 29  2  0  0  0  0
 28 22  1  0  0  0  0
 31 25  1  0  0  0  0
 32 26  1  0  0  0  0
 33 32  1  0  0  0  0
 34 32  1  0  0  0  0
 35 32  1  0  0  0  0
M  END
>  <minimizedAffinity>
-6.4641242

>  <minimizedRMSD>
1.19280601

$$$$
