
     RDKit          3D

 39 42  0  0  0  0  0  0  0  0999 V2000
   35.8629   28.9029   49.3730 C   0  0  0  0  0  0  0  0  0  0  0  0
   35.8574   30.1073   48.5556 C   0  0  0  0  0  0  0  0  0  0  0  0
   34.7475   30.3404   47.7038 C   0  0  0  0  0  0  0  0  0  0  0  0
   33.7667   29.4241   47.6772 N   0  0  0  0  0  0  0  0  0  0  0  0
   33.8031   28.3094   48.4342 C   0  0  0  0  0  0  0  0  0  0  0  0
   34.8307   28.0519   49.2744 N   0  0  0  0  0  0  0  0  0  0  0  0
   32.7373   27.3439   48.2875 N   0  0  0  0  0  0  0  0  0  0  0  0
   31.3662   27.6375   48.5513 C   0  0  0  0  0  0  0  0  0  0  0  0
   30.6122   26.4582   48.0060 C   0  0  0  0  0  0  0  0  0  0  0  0
   31.6138   25.6160   47.2346 C   0  0  0  0  0  0  0  0  0  0  0  0
   32.9082   25.9471   47.8479 C   0  0  0  0  0  0  0  0  0  0  0  0
   36.8528   31.1028   48.5227 C   0  0  0  0  0  0  0  0  0  0  0  0
   36.7966   31.9681   49.5456 N   0  0  0  0  0  0  0  0  0  0  0  0
   37.6641   32.9943   49.5985 C   0  0  0  0  0  0  0  0  0  0  0  0
   38.6260   33.2284   48.6635 N   0  0  0  0  0  0  0  0  0  0  0  0
   38.6980   32.3633   47.6270 C   0  0  0  0  0  0  0  0  0  0  0  0
   39.6546   32.4790   46.6434 C   0  0  0  0  0  0  0  0  0  0  0  0
   39.7421   31.5754   45.6229 C   0  0  0  0  0  0  0  0  0  0  0  0
   38.8329   30.5484   45.6203 C   0  0  0  0  0  0  0  0  0  0  0  0
   37.8572   30.3806   46.5654 C   0  0  0  0  0  0  0  0  0  0  0  0
   37.8110   31.3069   47.5652 C   0  0  0  0  0  0  0  0  0  0  0  0
   36.7270   28.7981   50.0080 H   0  0  0  0  0  0  0  0  0  0  0  0
   34.6760   31.2049   47.0992 H   0  0  0  0  0  0  0  0  0  0  0  0
   31.0496   28.5992   48.0582 H   0  0  0  0  0  0  0  0  0  0  0  0
   31.1930   27.7212   49.6256 H   0  0  0  0  0  0  0  0  0  0  0  0
   30.1772   25.8394   48.8126 H   0  0  0  0  0  0  0  0  0  0  0  0
   29.7843   26.7606   47.3201 H   0  0  0  0  0  0  0  0  0  0  0  0
   31.3700   24.5365   47.3027 H   0  0  0  0  0  0  0  0  0  0  0  0
   31.5994   25.8771   46.1633 H   0  0  0  0  0  0  0  0  0  0  0  0
   33.7059   25.9286   47.0858 H   0  0  0  0  0  0  0  0  0  0  0  0
   33.2285   25.3001   48.6958 H   0  0  0  0  0  0  0  0  0  0  0  0
   37.6864   33.7379   50.3883 H   0  0  0  0  0  0  0  0  0  0  0  0
   40.3042   33.3336   46.7654 H   0  0  0  0  0  0  0  0  0  0  0  0
   40.5160   31.7528   44.9144 H   0  0  0  0  0  0  0  0  0  0  0  0
   39.0393   29.9146   44.7357 H   0  0  0  0  0  0  0  0  0  0  0  0
   37.0535   29.2164   46.2919 C   0  0  0  0  0  0  0  0  0  0  0  0
   35.8072   29.0113   46.6448 F   0  0  0  0  0  0  0  0  0  0  0  0
   37.6724   28.3068   45.4041 F   0  0  0  0  0  0  0  0  0  0  0  0
   37.3434   28.2192   47.3055 F   0  0  0  0  0  0  0  0  0  0  0  0
  2  1  2  0
  3  2  1  0
  4  3  2  0
  4  5  1  0
  5  6  2  0
  6  1  1  0
  7  5  1  0
  7  8  1  0
  9  8  1  0
 10 11  1  0
 10  9  1  0
 11  7  1  0
 12  2  1  0
 12 13  2  0
 13 14  1  0
 15 14  2  0
 16 15  1  0
 17 16  2  0
 18 17  1  0
 19 18  2  0
 19 20  1  0
 20 21  2  0
 21 16  1  0
 21 12  1  0
  1 22  1  0
  3 23  1  0
  8 24  1  0
  8 25  1  0
  9 26  1  0
  9 27  1  0
 10 28  1  0
 10 29  1  0
 11 30  1  0
 11 31  1  0
 14 32  1  0
 17 33  1  0
 18 34  1  0
 19 35  1  0
 36 37  1  0
 36 38  1  0
 36 39  1  0
 20 36  1  0
M  ISO  8  22  14  23  14  24  13  25  13  26  13  27  13  28  13  29  13
M  ISO  6  30  13  31  13  32  14  33  14  34  14  35  14
M  END
>  <DihAtoms>  (1) 
18,19,35,36

>  <DihDeg>  (1) 
116.82824428580228

$$$$
