
 OpenBabel03272510083D

 39 42  0  0  0  0  0  0  0  0999 V2000
   36.0060   28.8700   49.1630 C   0  0  0  0  0  0  0  0  0  0  0  0
   35.9020   30.2730   48.7910 C   0  0  0  0  0  0  0  0  0  0  0  0
   34.6290   30.7850   48.4350 C   0  0  0  0  0  0  0  0  0  0  0  0
   33.5850   29.9410   48.4360 N   0  0  0  0  0  0  0  0  0  0  0  0
   33.7100   28.6410   48.7700 C   0  0  0  0  0  0  0  0  0  0  0  0
   34.9000   28.1120   49.1340 N   0  0  0  0  0  0  0  0  0  0  0  0
   32.5450   27.7910   48.6750 N   0  0  0  0  0  0  0  0  0  0  0  0
   31.3500   28.0040   49.4230 C   0  0  0  0  0  0  0  0  0  0  0  0
   30.3430   27.0750   48.8070 C   0  0  0  0  0  0  0  0  0  0  0  0
   30.9800   26.5120   47.5490 C   0  0  0  0  0  0  0  0  0  0  0  0
   32.4240   26.6080   47.8030 C   0  0  0  0  0  0  0  0  0  0  0  0
   36.9990   28.5530   49.4380 H   0  0  0  0  0  0  0  0  0  0  0  0
   34.4840   31.8000   48.1730 H   0  0  0  0  0  0  0  0  0  0  0  0
   31.0160   29.0780   49.3660 H   0  0  0  0  0  0  0  0  0  0  0  0
   31.5030   27.7400   50.4720 H   0  0  0  0  0  0  0  0  0  0  0  0
   30.0910   26.2360   49.4820 H   0  0  0  0  0  0  0  0  0  0  0  0
   29.3930   27.5950   48.5350 H   0  0  0  0  0  0  0  0  0  0  0  0
   30.6460   25.4720   47.3590 H   0  0  0  0  0  0  0  0  0  0  0  0
   30.6880   27.1040   46.6650 H   0  0  0  0  0  0  0  0  0  0  0  0
   32.9630   26.8240   46.8650 H   0  0  0  0  0  0  0  0  0  0  0  0
   32.8990   25.7170   48.2740 H   0  0  0  0  0  0  0  0  0  0  0  0
   36.9520   31.2120   48.7560 C   0  0  0  0  0  0  0  0  0  0  0  0
   37.1940   31.8080   49.9330 N   0  0  0  0  0  0  0  0  0  0  0  0
   38.1400   32.7590   50.0150 C   0  0  0  0  0  0  0  0  0  0  0  0
   38.8960   33.1760   48.9610 N   0  0  0  0  0  0  0  0  0  0  0  0
   38.6670   32.5820   47.7680 C   0  0  0  0  0  0  0  0  0  0  0  0
   39.3970   32.8960   46.6430 C   0  0  0  0  0  0  0  0  0  0  0  0
   39.1820   32.2610   45.4530 C   0  0  0  0  0  0  0  0  0  0  0  0
   38.2060   31.2980   45.4280 C   0  0  0  0  0  0  0  0  0  0  0  0
   37.4440   30.9440   46.5090 C   0  0  0  0  0  0  0  0  0  0  0  0
   37.6970   31.6050   47.6750 C   0  0  0  0  0  0  0  0  0  0  0  0
   38.3970   33.2910   50.9250 H   0  0  0  0  0  0  0  0  0  0  0  0
   40.1300   33.6730   46.8020 H   0  0  0  0  0  0  0  0  0  0  0  0
   39.7980   32.5750   44.6450 H   0  0  0  0  0  0  0  0  0  0  0  0
   38.1600   30.8880   44.4010 H   0  0  0  0  0  0  0  0  0  0  0  0
   36.5000   29.9080   46.1720 C   0  0  0  0  0  0  0  0  0  0  0  0
   36.1000   29.5600   44.9730 F   0  0  0  0  0  0  0  0  0  0  0  0
   36.1300   29.1100   47.2780 F   0  0  0  0  0  0  0  0  0  0  0  0
   35.1630   30.4610   46.2920 F   0  0  0  0  0  0  0  0  0  0  0  0
  1 12  1  0  0  0  0
  2  1  2  0  0  0  0
  3  4  2  0  0  0  0
  3  2  1  0  0  0  0
  4  5  1  0  0  0  0
  5  6  2  0  0  0  0
  6  1  1  0  0  0  0
  7  5  1  0  0  0  0
  7  8  1  0  0  0  0
  8 15  1  0  0  0  0
  9  8  1  0  0  0  0
  9 16  1  0  0  0  0
 10 11  1  0  0  0  0
 10  9  1  0  0  0  0
 11 21  1  0  0  0  0
 11  7  1  0  0  0  0
 13  3  1  0  0  0  0
 14  8  1  0  0  0  0
 17  9  1  0  0  0  0
 18 10  1  0  0  0  0
 19 10  1  0  0  0  0
 20 11  1  0  0  0  0
 22  2  1  0  0  0  0
 22 23  1  0  0  0  0
 23 24  2  0  0  0  0
 24 32  1  0  0  0  0
 25 24  1  0  0  0  0
 26 25  2  0  0  0  0
 27 33  1  0  0  0  0
 27 26  1  0  0  0  0
 28 27  2  0  0  0  0
 29 28  1  0  0  0  0
 29 30  2  0  0  0  0
 30 31  1  0  0  0  0
 31 26  1  0  0  0  0
 31 22  2  0  0  0  0
 34 28  1  0  0  0  0
 35 29  1  0  0  0  0
 36 39  1  0  0  0  0
 36 30  1  0  0  0  0
 36 38  1  0  0  0  0
 37 36  1  0  0  0  0
M  END
>  <minimizedAffinity>
-4.9133153

>  <minimizedRMSD>
0.743934512

$$$$
