
 OpenBabel03272509493D

 28 29  0  0  0  0  0  0  0  0999 V2000
   33.9550   28.6190   48.6400 C   0  0  0  0  0  0  0  0  0  0  0  0
   33.3010   29.3490   49.2000 H   0  0  0  0  0  0  0  0  0  0  0  0
   34.3960   29.1750   47.8070 H   0  0  0  0  0  0  0  0  0  0  0  0
   33.0720   27.4740   48.2270 C   0  0  0  0  0  0  0  0  0  0  0  0
   33.1570   26.6530   48.9860 H   0  0  0  0  0  0  0  0  0  0  0  0
   33.4700   27.0060   47.2820 H   0  0  0  0  0  0  0  0  0  0  0  0
   31.6480   27.8670   48.1080 C   0  0  0  0  0  0  0  0  0  0  0  0
   30.8350   27.6220   49.1890 C   0  0  0  0  0  0  0  0  0  0  0  0
   29.5010   27.9400   49.2030 C   0  0  0  0  0  0  0  0  0  0  0  0
   28.9540   28.5120   48.1230 N   0  0  0  0  0  0  0  0  0  0  0  0
   29.7530   28.7520   47.0620 C   0  0  0  0  0  0  0  0  0  0  0  0
   31.0640   28.4460   47.0360 N   0  0  0  0  0  0  0  0  0  0  0  0
   31.2220   27.1580   50.1010 H   0  0  0  0  0  0  0  0  0  0  0  0
   28.8420   27.7480   50.0640 H   0  0  0  0  0  0  0  0  0  0  0  0
   29.3510   29.2120   46.1730 H   0  0  0  0  0  0  0  0  0  0  0  0
   34.9230   28.1700   49.5750 O   0  0  0  0  0  0  0  0  0  0  0  0
   37.2910   30.2180   51.3930 C   0  0  0  0  0  0  0  0  0  0  0  0
   37.9530   30.8450   50.3300 C   0  0  0  0  0  0  0  0  0  0  0  0
   37.5330   30.5170   49.0410 C   0  0  0  0  0  0  0  0  0  0  0  0
   36.5180   29.6170   48.9020 N   0  0  0  0  0  0  0  0  0  0  0  0
   35.9140   29.0410   49.9460 C   0  0  0  0  0  0  0  0  0  0  0  0
   36.3080   29.3480   51.1930 N   0  0  0  0  0  0  0  0  0  0  0  0
   37.6410   30.4940   52.3830 H   0  0  0  0  0  0  0  0  0  0  0  0
   38.7560   31.5560   50.4730 H   0  0  0  0  0  0  0  0  0  0  0  0
   38.1810   31.1370   47.8320 C   0  0  0  0  0  0  0  0  0  0  0  0
   37.1630   31.8670   47.2040 F   0  0  0  0  0  0  0  0  0  0  0  0
   39.2170   31.9740   48.2280 F   0  0  0  0  0  0  0  0  0  0  0  0
   38.6520   30.1250   47.0490 F   0  0  0  0  0  0  0  0  0  0  0  0
  1  2  1  0  0  0  0
  1 16  1  0  0  0  0
  3  1  1  0  0  0  0
  4  1  1  0  0  0  0
  4  5  1  0  0  0  0
  6  4  1  0  0  0  0
  7  4  1  0  0  0  0
  7  8  1  0  0  0  0
  8  9  2  0  0  0  0
  8 13  1  0  0  0  0
  9 14  1  0  0  0  0
 10  9  1  0  0  0  0
 11 10  2  0  0  0  0
 12 11  1  0  0  0  0
 12  7  2  0  0  0  0
 15 11  1  0  0  0  0
 16 21  1  0  0  0  0
 17 23  1  0  0  0  0
 18 24  1  0  0  0  0
 18 17  2  0  0  0  0
 19 18  1  0  0  0  0
 20 19  2  0  0  0  0
 20 21  1  0  0  0  0
 21 22  2  0  0  0  0
 22 17  1  0  0  0  0
 25 27  1  0  0  0  0
 25 19  1  0  0  0  0
 26 25  1  0  0  0  0
 28 25  1  0  0  0  0
M  END
>  <minimizedAffinity>
-5.17772245

>  <minimizedRMSD>
0.417461574

$$$$
