
 OpenBabel03272506243D

 26 27  0  0  0  0  0  0  0  0999 V2000
   39.4170   23.9260   35.5500 C   0  0  0  0  0  0  0  0  0  0  0  0
   40.7710   23.9950   35.2870 C   0  0  0  0  0  0  0  0  0  0  0  0
   41.7580   23.4380   36.0790 C   0  0  0  0  0  0  0  0  0  0  0  0
   41.3620   22.7420   37.2470 C   0  0  0  0  0  0  0  0  0  0  0  0
   40.0020   22.6780   37.5010 C   0  0  0  0  0  0  0  0  0  0  0  0
   39.0010   23.2360   36.7110 C   0  0  0  0  0  0  0  0  0  0  0  0
   41.1590   24.5080   34.4150 H   0  0  0  0  0  0  0  0  0  0  0  0
   42.8070   23.5020   35.8580 H   0  0  0  0  0  0  0  0  0  0  0  0
   42.0590   22.2740   37.9240 H   0  0  0  0  0  0  0  0  0  0  0  0
   39.7060   22.1470   38.3910 H   0  0  0  0  0  0  0  0  0  0  0  0
   38.0250   23.7770   33.5530 C   0  0  0  0  0  0  0  0  0  0  0  0
   38.5460   24.5670   34.6150 C   0  0  0  0  0  0  0  0  0  0  0  0
   38.1550   25.9080   34.6420 C   0  0  0  0  0  0  0  0  0  0  0  0
   37.3150   26.3680   33.6750 N   0  0  0  0  0  0  0  0  0  0  0  0
   36.8330   25.5850   32.6760 C   0  0  0  0  0  0  0  0  0  0  0  0
   37.2030   24.2650   32.6230 N   0  0  0  0  0  0  0  0  0  0  0  0
   38.2330   22.7420   33.3550 H   0  0  0  0  0  0  0  0  0  0  0  0
   36.1740   26.0300   31.9540 H   0  0  0  0  0  0  0  0  0  0  0  0
   38.6150   26.8580   35.6740 C   0  0  0  0  0  0  0  0  0  0  0  0
   38.0330   28.1090   35.4660 F   0  0  0  0  0  0  0  0  0  0  0  0
   38.4560   26.4830   36.9590 F   0  0  0  0  0  0  0  0  0  0  0  0
   39.9890   27.1350   35.4870 F   0  0  0  0  0  0  0  0  0  0  0  0
   37.5740   23.1500   37.0760 C   0  0  0  0  0  0  0  0  0  0  0  0
   37.5640   22.7390   38.4220 F   0  0  0  0  0  0  0  0  0  0  0  0
   36.9580   24.3870   37.0670 F   0  0  0  0  0  0  0  0  0  0  0  0
   36.8320   22.2380   36.4120 F   0  0  0  0  0  0  0  0  0  0  0  0
  1  6  1  0  0  0  0
  2  1  2  0  0  0  0
  2  3  1  0  0  0  0
  3  4  2  0  0  0  0
  4  5  1  0  0  0  0
  4  9  1  0  0  0  0
  5 10  1  0  0  0  0
  6 23  1  0  0  0  0
  6  5  2  0  0  0  0
  7  2  1  0  0  0  0
  8  3  1  0  0  0  0
 11 12  1  0  0  0  0
 12 13  2  0  0  0  0
 12  1  1  0  0  0  0
 13 19  1  0  0  0  0
 14 13  1  0  0  0  0
 15 14  2  0  0  0  0
 16 15  1  0  0  0  0
 16 11  2  0  0  0  0
 17 11  1  0  0  0  0
 18 15  1  0  0  0  0
 19 21  1  0  0  0  0
 20 19  1  0  0  0  0
 22 19  1  0  0  0  0
 23 24  1  0  0  0  0
 25 23  1  0  0  0  0
 26 23  1  0  0  0  0
M  END
>  <minimizedAffinity>
-5.65283298

$$$$

 OpenBabel03272506243D

 26 27  0  0  0  0  0  0  0  0999 V2000
   38.5400   24.5670   34.5660 C   0  0  0  0  0  0  0  0  0  0  0  0
   37.9910   23.7750   33.5760 C   0  0  0  0  0  0  0  0  0  0  0  0
   37.1400   24.2280   32.5860 C   0  0  0  0  0  0  0  0  0  0  0  0
   36.8020   25.6030   32.5740 C   0  0  0  0  0  0  0  0  0  0  0  0
   37.3580   26.3890   33.5700 C   0  0  0  0  0  0  0  0  0  0  0  0
   38.2140   25.9420   34.5720 C   0  0  0  0  0  0  0  0  0  0  0  0
   38.1990   22.7140   33.5130 H   0  0  0  0  0  0  0  0  0  0  0  0
   36.7220   23.5970   31.8240 H   0  0  0  0  0  0  0  0  0  0  0  0
   36.1470   26.0470   31.8410 H   0  0  0  0  0  0  0  0  0  0  0  0
   37.0970   27.4340   33.5570 H   0  0  0  0  0  0  0  0  0  0  0  0
   40.7980   23.9570   35.2580 C   0  0  0  0  0  0  0  0  0  0  0  0
   39.3990   23.9180   35.5070 C   0  0  0  0  0  0  0  0  0  0  0  0
   38.9910   23.2420   36.6600 C   0  0  0  0  0  0  0  0  0  0  0  0
   39.9370   22.6750   37.4590 N   0  0  0  0  0  0  0  0  0  0  0  0
   41.2660   22.7330   37.1920 C   0  0  0  0  0  0  0  0  0  0  0  0
   41.6940   23.3890   36.0660 N   0  0  0  0  0  0  0  0  0  0  0  0
   41.2930   24.4050   34.4150 H   0  0  0  0  0  0  0  0  0  0  0  0
   41.9440   22.2580   37.8770 H   0  0  0  0  0  0  0  0  0  0  0  0
   37.5740   23.1070   37.0530 C   0  0  0  0  0  0  0  0  0  0  0  0
   36.9450   24.3520   37.0070 F   0  0  0  0  0  0  0  0  0  0  0  0
   36.8420   22.1950   36.3840 F   0  0  0  0  0  0  0  0  0  0  0  0
   37.4910   22.7830   38.4270 F   0  0  0  0  0  0  0  0  0  0  0  0
   38.7350   26.8430   35.6180 C   0  0  0  0  0  0  0  0  0  0  0  0
   38.0780   28.0700   35.4060 F   0  0  0  0  0  0  0  0  0  0  0  0
   38.3600   26.4420   36.8870 F   0  0  0  0  0  0  0  0  0  0  0  0
   40.0540   27.1260   35.5740 F   0  0  0  0  0  0  0  0  0  0  0  0
  1  6  1  0  0  0  0
  1 12  1  0  0  0  0
  2  1  2  0  0  0  0
  3  2  1  0  0  0  0
  4  3  2  0  0  0  0
  4  5  1  0  0  0  0
  5  6  2  0  0  0  0
  6 23  1  0  0  0  0
  7  2  1  0  0  0  0
  8  3  1  0  0  0  0
  9  4  1  0  0  0  0
 10  5  1  0  0  0  0
 11 12  2  0  0  0  0
 11 16  1  0  0  0  0
 12 13  1  0  0  0  0
 13 19  1  0  0  0  0
 13 14  2  0  0  0  0
 15 14  1  0  0  0  0
 15 18  1  0  0  0  0
 16 15  2  0  0  0  0
 17 11  1  0  0  0  0
 19 22  1  0  0  0  0
 20 19  1  0  0  0  0
 21 19  1  0  0  0  0
 23 25  1  0  0  0  0
 24 23  1  0  0  0  0
 26 23  1  0  0  0  0
M  END
>  <minimizedAffinity>
-5.42856359

$$$$

 OpenBabel03272506243D

 26 27  0  0  0  0  0  0  0  0999 V2000
   38.8130   25.2020   35.3560 C   0  0  0  0  0  0  0  0  0  0  0  0
   38.8720   26.4750   35.8890 C   0  0  0  0  0  0  0  0  0  0  0  0
   38.1730   27.5650   35.4060 C   0  0  0  0  0  0  0  0  0  0  0  0
   37.3300   27.3730   34.2850 C   0  0  0  0  0  0  0  0  0  0  0  0
   37.2780   26.0930   33.7580 C   0  0  0  0  0  0  0  0  0  0  0  0
   37.9790   24.9900   34.2360 C   0  0  0  0  0  0  0  0  0  0  0  0
   39.4920   26.7070   36.7470 H   0  0  0  0  0  0  0  0  0  0  0  0
   38.2320   28.5490   35.8340 H   0  0  0  0  0  0  0  0  0  0  0  0
   36.7460   28.1630   33.8390 H   0  0  0  0  0  0  0  0  0  0  0  0
   36.6350   25.9530   32.9050 H   0  0  0  0  0  0  0  0  0  0  0  0
   40.8820   23.9120   35.4200 C   0  0  0  0  0  0  0  0  0  0  0  0
   39.6130   24.2010   35.9910 C   0  0  0  0  0  0  0  0  0  0  0  0
   39.2630   23.4700   37.1300 C   0  0  0  0  0  0  0  0  0  0  0  0
   40.1390   22.5480   37.6150 N   0  0  0  0  0  0  0  0  0  0  0  0
   41.3450   22.2990   37.0450 C   0  0  0  0  0  0  0  0  0  0  0  0
   41.7140   23.0000   35.9250 N   0  0  0  0  0  0  0  0  0  0  0  0
   41.3080   24.3500   34.5360 H   0  0  0  0  0  0  0  0  0  0  0  0
   41.9760   21.5540   37.4940 H   0  0  0  0  0  0  0  0  0  0  0  0
   37.9770   23.6480   37.8340 C   0  0  0  0  0  0  0  0  0  0  0  0
   37.9720   24.8630   38.5200 F   0  0  0  0  0  0  0  0  0  0  0  0
   36.8570   23.5310   37.0940 F   0  0  0  0  0  0  0  0  0  0  0  0
   37.8790   22.7120   38.8890 F   0  0  0  0  0  0  0  0  0  0  0  0
   37.8910   23.6650   33.5910 C   0  0  0  0  0  0  0  0  0  0  0  0
   36.8600   23.7870   32.6410 F   0  0  0  0  0  0  0  0  0  0  0  0
   39.0270   23.3640   32.8630 F   0  0  0  0  0  0  0  0  0  0  0  0
   37.5360   22.6290   34.3810 F   0  0  0  0  0  0  0  0  0  0  0  0
  1  2  1  0  0  0  0
  1 12  1  0  0  0  0
  2  7  1  0  0  0  0
  3  8  1  0  0  0  0
  3  2  2  0  0  0  0
  4  3  1  0  0  0  0
  5  6  1  0  0  0  0
  5  4  2  0  0  0  0
  6  1  2  0  0  0  0
  9  4  1  0  0  0  0
 10  5  1  0  0  0  0
 11 16  2  0  0  0  0
 11 12  1  0  0  0  0
 12 13  2  0  0  0  0
 13 14  1  0  0  0  0
 13 19  1  0  0  0  0
 15 18  1  0  0  0  0
 15 14  2  0  0  0  0
 16 15  1  0  0  0  0
 17 11  1  0  0  0  0
 19 20  1  0  0  0  0
 19 22  1  0  0  0  0
 21 19  1  0  0  0  0
 23  6  1  0  0  0  0
 23 26  1  0  0  0  0
 24 23  1  0  0  0  0
 25 23  1  0  0  0  0
M  END
>  <minimizedAffinity>
-5.37187243

$$$$

 OpenBabel03272506243D

 26 27  0  0  0  0  0  0  0  0999 V2000
   39.6720   24.1990   35.9360 C   0  0  0  0  0  0  0  0  0  0  0  0
   40.9050   23.9490   35.3680 C   0  0  0  0  0  0  0  0  0  0  0  0
   41.8370   23.0580   35.8670 C   0  0  0  0  0  0  0  0  0  0  0  0
   41.5120   22.3440   37.0450 C   0  0  0  0  0  0  0  0  0  0  0  0
   40.2730   22.6010   37.6070 C   0  0  0  0  0  0  0  0  0  0  0  0
   39.3290   23.4970   37.1130 C   0  0  0  0  0  0  0  0  0  0  0  0
   41.2320   24.4520   34.4660 H   0  0  0  0  0  0  0  0  0  0  0  0
   42.7930   22.8770   35.4110 H   0  0  0  0  0  0  0  0  0  0  0  0
   42.1750   21.6280   37.5070 H   0  0  0  0  0  0  0  0  0  0  0  0
   40.0310   22.0550   38.5040 H   0  0  0  0  0  0  0  0  0  0  0  0
   38.8740   26.4970   35.7570 C   0  0  0  0  0  0  0  0  0  0  0  0
   38.8420   25.1590   35.2770 C   0  0  0  0  0  0  0  0  0  0  0  0
   37.9930   24.9060   34.1960 C   0  0  0  0  0  0  0  0  0  0  0  0
   37.2660   25.9340   33.6770 N   0  0  0  0  0  0  0  0  0  0  0  0
   37.3220   27.2010   34.1590 C   0  0  0  0  0  0  0  0  0  0  0  0
   38.1450   27.4770   35.2220 N   0  0  0  0  0  0  0  0  0  0  0  0
   39.4410   26.8720   36.5890 H   0  0  0  0  0  0  0  0  0  0  0  0
   36.7140   27.9510   33.6890 H   0  0  0  0  0  0  0  0  0  0  0  0
   37.8430   23.5690   33.5880 C   0  0  0  0  0  0  0  0  0  0  0  0
   38.9720   23.2600   32.8280 F   0  0  0  0  0  0  0  0  0  0  0  0
   37.5560   22.5510   34.4230 F   0  0  0  0  0  0  0  0  0  0  0  0
   36.8250   23.6040   32.6070 F   0  0  0  0  0  0  0  0  0  0  0  0
   38.0430   23.7370   37.7970 C   0  0  0  0  0  0  0  0  0  0  0  0
   37.9920   22.7810   38.8290 F   0  0  0  0  0  0  0  0  0  0  0  0
   38.0110   24.9640   38.4320 F   0  0  0  0  0  0  0  0  0  0  0  0
   36.9230   23.5430   37.0670 F   0  0  0  0  0  0  0  0  0  0  0  0
  1  6  1  0  0  0  0
  2  3  1  0  0  0  0
  2  1  2  0  0  0  0
  3  4  2  0  0  0  0
  4  9  1  0  0  0  0
  4  5  1  0  0  0  0
  5 10  1  0  0  0  0
  6  5  2  0  0  0  0
  6 23  1  0  0  0  0
  7  2  1  0  0  0  0
  8  3  1  0  0  0  0
 11 17  1  0  0  0  0
 12 11  1  0  0  0  0
 12  1  1  0  0  0  0
 13 12  2  0  0  0  0
 14 15  2  0  0  0  0
 14 13  1  0  0  0  0
 15 16  1  0  0  0  0
 16 11  2  0  0  0  0
 18 15  1  0  0  0  0
 19 13  1  0  0  0  0
 19 21  1  0  0  0  0
 20 19  1  0  0  0  0
 22 19  1  0  0  0  0
 23 25  1  0  0  0  0
 23 24  1  0  0  0  0
 26 23  1  0  0  0  0
M  END
>  <minimizedAffinity>
-5.28422928

$$$$

 OpenBabel03272506243D

 26 27  0  0  0  0  0  0  0  0999 V2000
   38.8730   24.0990   35.8940 C   0  0  0  0  0  0  0  0  0  0  0  0
   37.9780   24.6190   36.8080 C   0  0  0  0  0  0  0  0  0  0  0  0
   37.9560   24.3080   38.1540 C   0  0  0  0  0  0  0  0  0  0  0  0
   38.9180   23.3900   38.6420 C   0  0  0  0  0  0  0  0  0  0  0  0
   39.8120   22.8750   37.7180 C   0  0  0  0  0  0  0  0  0  0  0  0
   39.8410   23.1820   36.3600 C   0  0  0  0  0  0  0  0  0  0  0  0
   37.2110   25.3260   36.5180 H   0  0  0  0  0  0  0  0  0  0  0  0
   37.2520   24.7220   38.8510 H   0  0  0  0  0  0  0  0  0  0  0  0
   38.9800   23.0880   39.6760 H   0  0  0  0  0  0  0  0  0  0  0  0
   40.5410   22.1780   38.0940 H   0  0  0  0  0  0  0  0  0  0  0  0
   37.9230   23.7600   33.6730 C   0  0  0  0  0  0  0  0  0  0  0  0
   38.7380   24.5390   34.5390 C   0  0  0  0  0  0  0  0  0  0  0  0
   39.3370   25.6700   33.9790 C   0  0  0  0  0  0  0  0  0  0  0  0
   39.1080   25.9550   32.6680 N   0  0  0  0  0  0  0  0  0  0  0  0
   38.3210   25.1900   31.8690 C   0  0  0  0  0  0  0  0  0  0  0  0
   37.7220   24.0720   32.3920 N   0  0  0  0  0  0  0  0  0  0  0  0
   37.4070   22.8490   33.9160 H   0  0  0  0  0  0  0  0  0  0  0  0
   38.1940   25.4890   30.8450 H   0  0  0  0  0  0  0  0  0  0  0  0
   40.2170   26.5760   34.7460 C   0  0  0  0  0  0  0  0  0  0  0  0
   39.4680   27.2890   35.6840 F   0  0  0  0  0  0  0  0  0  0  0  0
   41.2910   26.0210   35.3400 F   0  0  0  0  0  0  0  0  0  0  0  0
   40.6910   27.6050   33.9010 F   0  0  0  0  0  0  0  0  0  0  0  0
   40.8080   22.5580   35.4360 C   0  0  0  0  0  0  0  0  0  0  0  0
   41.6290   21.7560   36.2510 F   0  0  0  0  0  0  0  0  0  0  0  0
   40.1980   21.6840   34.5560 F   0  0  0  0  0  0  0  0  0  0  0  0
   41.6470   23.3910   34.7840 F   0  0  0  0  0  0  0  0  0  0  0  0
  1  6  2  0  0  0  0
  1  2  1  0  0  0  0
  2  3  2  0  0  0  0
  3  4  1  0  0  0  0
  3  8  1  0  0  0  0
  4  9  1  0  0  0  0
  5 10  1  0  0  0  0
  5  4  2  0  0  0  0
  6  5  1  0  0  0  0
  7  2  1  0  0  0  0
 11 17  1  0  0  0  0
 11 12  1  0  0  0  0
 12  1  1  0  0  0  0
 13 12  2  0  0  0  0
 13 19  1  0  0  0  0
 14 13  1  0  0  0  0
 15 16  1  0  0  0  0
 15 14  2  0  0  0  0
 16 11  2  0  0  0  0
 18 15  1  0  0  0  0
 19 21  1  0  0  0  0
 19 20  1  0  0  0  0
 22 19  1  0  0  0  0
 23 24  1  0  0  0  0
 23  6  1  0  0  0  0
 25 23  1  0  0  0  0
 26 23  1  0  0  0  0
M  END
>  <minimizedAffinity>
-5.18266535

$$$$

 OpenBabel03272506243D

 26 27  0  0  0  0  0  0  0  0999 V2000
   39.3370   24.6500   34.9090 C   0  0  0  0  0  0  0  0  0  0  0  0
   40.6850   24.3650   35.0090 C   0  0  0  0  0  0  0  0  0  0  0  0
   41.6990   25.2920   34.8590 C   0  0  0  0  0  0  0  0  0  0  0  0
   41.3410   26.6340   34.5840 C   0  0  0  0  0  0  0  0  0  0  0  0
   39.9870   26.9090   34.4860 C   0  0  0  0  0  0  0  0  0  0  0  0
   38.9590   25.9830   34.6350 C   0  0  0  0  0  0  0  0  0  0  0  0
   41.0440   23.3650   35.2160 H   0  0  0  0  0  0  0  0  0  0  0  0
   42.7430   25.0520   34.9400 H   0  0  0  0  0  0  0  0  0  0  0  0
   42.0620   27.4260   34.4530 H   0  0  0  0  0  0  0  0  0  0  0  0
   39.7210   27.9310   34.2780 H   0  0  0  0  0  0  0  0  0  0  0  0
   38.0080   22.8530   33.9310 C   0  0  0  0  0  0  0  0  0  0  0  0
   38.4330   23.5560   35.0920 C   0  0  0  0  0  0  0  0  0  0  0  0
   37.9220   23.1090   36.3120 C   0  0  0  0  0  0  0  0  0  0  0  0
   37.0680   22.0480   36.3190 N   0  0  0  0  0  0  0  0  0  0  0  0
   36.6840   21.3980   35.1910 C   0  0  0  0  0  0  0  0  0  0  0  0
   37.1680   21.8180   33.9780 N   0  0  0  0  0  0  0  0  0  0  0  0
   38.2720   23.0680   32.9120 H   0  0  0  0  0  0  0  0  0  0  0  0
   36.0060   20.5700   35.2880 H   0  0  0  0  0  0  0  0  0  0  0  0
   38.2620   23.7370   37.6050 C   0  0  0  0  0  0  0  0  0  0  0  0
   39.5530   23.3720   37.9890 F   0  0  0  0  0  0  0  0  0  0  0  0
   38.1180   25.0750   37.6860 F   0  0  0  0  0  0  0  0  0  0  0  0
   37.4750   23.1690   38.6320 F   0  0  0  0  0  0  0  0  0  0  0  0
   37.5390   26.3560   34.4790 C   0  0  0  0  0  0  0  0  0  0  0  0
   37.5410   27.7560   34.3350 F   0  0  0  0  0  0  0  0  0  0  0  0
   36.9970   25.8670   33.3050 F   0  0  0  0  0  0  0  0  0  0  0  0
   36.7270   26.1000   35.5270 F   0  0  0  0  0  0  0  0  0  0  0  0
  1  2  1  0  0  0  0
  1 12  1  0  0  0  0
  2  7  1  0  0  0  0
  3  8  1  0  0  0  0
  3  2  2  0  0  0  0
  4  3  1  0  0  0  0
  5  4  2  0  0  0  0
  5  6  1  0  0  0  0
  6  1  2  0  0  0  0
  9  4  1  0  0  0  0
 10  5  1  0  0  0  0
 11 16  2  0  0  0  0
 11 12  1  0  0  0  0
 12 13  2  0  0  0  0
 13 14  1  0  0  0  0
 13 19  1  0  0  0  0
 15 18  1  0  0  0  0
 15 14  2  0  0  0  0
 16 15  1  0  0  0  0
 17 11  1  0  0  0  0
 19 21  1  0  0  0  0
 19 20  1  0  0  0  0
 19 22  1  0  0  0  0
 23  6  1  0  0  0  0
 23 26  1  0  0  0  0
 24 23  1  0  0  0  0
 25 23  1  0  0  0  0
M  END
>  <minimizedAffinity>
-5.15065908

$$$$

 OpenBabel03272506243D

 26 27  0  0  0  0  0  0  0  0999 V2000
   38.7390   26.3870   33.0030 C   0  0  0  0  0  0  0  0  0  0  0  0
   39.8080   26.6460   32.1680 C   0  0  0  0  0  0  0  0  0  0  0  0
   41.0640   27.0360   32.5940 C   0  0  0  0  0  0  0  0  0  0  0  0
   41.2820   27.1800   33.9850 C   0  0  0  0  0  0  0  0  0  0  0  0
   40.2040   26.9180   34.8140 C   0  0  0  0  0  0  0  0  0  0  0  0
   38.9350   26.5260   34.3950 C   0  0  0  0  0  0  0  0  0  0  0  0
   39.7270   26.5590   31.0920 H   0  0  0  0  0  0  0  0  0  0  0  0
   41.8850   27.2330   31.9290 H   0  0  0  0  0  0  0  0  0  0  0  0
   42.2280   27.4780   34.4110 H   0  0  0  0  0  0  0  0  0  0  0  0
   40.3750   27.0290   35.8720 H   0  0  0  0  0  0  0  0  0  0  0  0
   37.2360   24.6060   32.2840 C   0  0  0  0  0  0  0  0  0  0  0  0
   37.5140   25.9980   32.3770 C   0  0  0  0  0  0  0  0  0  0  0  0
   36.5540   26.8600   31.8420 C   0  0  0  0  0  0  0  0  0  0  0  0
   35.4340   26.3300   31.2790 N   0  0  0  0  0  0  0  0  0  0  0  0
   35.1990   24.9960   31.2080 C   0  0  0  0  0  0  0  0  0  0  0  0
   36.1250   24.1250   31.7230 N   0  0  0  0  0  0  0  0  0  0  0  0
   37.8630   23.7980   32.6130 H   0  0  0  0  0  0  0  0  0  0  0  0
   34.2880   24.6630   30.7460 H   0  0  0  0  0  0  0  0  0  0  0  0
   36.6990   28.3300   31.8550 C   0  0  0  0  0  0  0  0  0  0  0  0
   36.7120   28.7980   33.1700 F   0  0  0  0  0  0  0  0  0  0  0  0
   37.7420   28.8430   31.1730 F   0  0  0  0  0  0  0  0  0  0  0  0
   35.5270   28.9280   31.3380 F   0  0  0  0  0  0  0  0  0  0  0  0
   37.8300   26.3000   35.3470 C   0  0  0  0  0  0  0  0  0  0  0  0
   37.7140   24.9010   35.4480 F   0  0  0  0  0  0  0  0  0  0  0  0
   38.1420   26.7360   36.6210 F   0  0  0  0  0  0  0  0  0  0  0  0
   36.6090   26.7390   34.9730 F   0  0  0  0  0  0  0  0  0  0  0  0
  1  6  1  0  0  0  0
  2  3  1  0  0  0  0
  2  1  2  0  0  0  0
  3  4  2  0  0  0  0
  4  9  1  0  0  0  0
  4  5  1  0  0  0  0
  5 10  1  0  0  0  0
  6  5  2  0  0  0  0
  6 23  1  0  0  0  0
  7  2  1  0  0  0  0
  8  3  1  0  0  0  0
 11 12  1  0  0  0  0
 11 17  1  0  0  0  0
 12  1  1  0  0  0  0
 13 19  1  0  0  0  0
 13 12  2  0  0  0  0
 14 13  1  0  0  0  0
 15 14  2  0  0  0  0
 15 16  1  0  0  0  0
 16 11  2  0  0  0  0
 18 15  1  0  0  0  0
 19 20  1  0  0  0  0
 21 19  1  0  0  0  0
 22 19  1  0  0  0  0
 23 24  1  0  0  0  0
 23 25  1  0  0  0  0
 26 23  1  0  0  0  0
M  END
>  <minimizedAffinity>
-5.12536192

$$$$

 OpenBabel03272506243D

 26 27  0  0  0  0  0  0  0  0999 V2000
   39.3540   23.9590   35.5130 C   0  0  0  0  0  0  0  0  0  0  0  0
   38.7590   23.4610   36.6550 C   0  0  0  0  0  0  0  0  0  0  0  0
   39.4260   22.7920   37.6640 C   0  0  0  0  0  0  0  0  0  0  0  0
   40.8220   22.5990   37.5270 C   0  0  0  0  0  0  0  0  0  0  0  0
   41.4090   23.1020   36.3780 C   0  0  0  0  0  0  0  0  0  0  0  0
   40.7460   23.7760   35.3560 C   0  0  0  0  0  0  0  0  0  0  0  0
   37.6970   23.5660   36.8390 H   0  0  0  0  0  0  0  0  0  0  0  0
   38.9460   22.4120   38.5470 H   0  0  0  0  0  0  0  0  0  0  0  0
   41.4270   22.0910   38.2620 H   0  0  0  0  0  0  0  0  0  0  0  0
   42.4710   22.9530   36.2780 H   0  0  0  0  0  0  0  0  0  0  0  0
   37.9570   23.8440   33.5160 C   0  0  0  0  0  0  0  0  0  0  0  0
   38.4980   24.6210   34.5780 C   0  0  0  0  0  0  0  0  0  0  0  0
   38.1390   25.9710   34.6050 C   0  0  0  0  0  0  0  0  0  0  0  0
   37.3090   26.4510   33.6390 N   0  0  0  0  0  0  0  0  0  0  0  0
   36.8090   25.6800   32.6400 C   0  0  0  0  0  0  0  0  0  0  0  0
   37.1470   24.3510   32.5860 N   0  0  0  0  0  0  0  0  0  0  0  0
   38.1400   22.8040   33.3180 H   0  0  0  0  0  0  0  0  0  0  0  0
   36.1610   26.1410   31.9180 H   0  0  0  0  0  0  0  0  0  0  0  0
   38.6220   26.9090   35.6380 C   0  0  0  0  0  0  0  0  0  0  0  0
   38.2170   26.4790   36.9030 F   0  0  0  0  0  0  0  0  0  0  0  0
   39.9430   27.1780   35.6440 F   0  0  0  0  0  0  0  0  0  0  0  0
   37.9450   28.1440   35.5140 F   0  0  0  0  0  0  0  0  0  0  0  0
   41.4450   24.2490   34.1450 C   0  0  0  0  0  0  0  0  0  0  0  0
   42.8100   24.0200   34.3970 F   0  0  0  0  0  0  0  0  0  0  0  0
   41.1430   23.4820   33.0360 F   0  0  0  0  0  0  0  0  0  0  0  0
   41.3440   25.5660   33.8630 F   0  0  0  0  0  0  0  0  0  0  0  0
  1  2  1  0  0  0  0
  2  7  1  0  0  0  0
  2  3  2  0  0  0  0
  3  8  1  0  0  0  0
  4  3  1  0  0  0  0
  4  9  1  0  0  0  0
  5  4  2  0  0  0  0
  6  1  2  0  0  0  0
  6  5  1  0  0  0  0
 10  5  1  0  0  0  0
 11 12  1  0  0  0  0
 12 13  2  0  0  0  0
 12  1  1  0  0  0  0
 13 19  1  0  0  0  0
 14 13  1  0  0  0  0
 15 14  2  0  0  0  0
 16 15  1  0  0  0  0
 16 11  2  0  0  0  0
 17 11  1  0  0  0  0
 18 15  1  0  0  0  0
 19 21  1  0  0  0  0
 19 20  1  0  0  0  0
 22 19  1  0  0  0  0
 23 24  1  0  0  0  0
 23  6  1  0  0  0  0
 25 23  1  0  0  0  0
 26 23  1  0  0  0  0
M  END
>  <minimizedAffinity>
-4.99036551

$$$$

 OpenBabel03272506243D

 26 27  0  0  0  0  0  0  0  0999 V2000
   37.3940   21.2110   31.5840 C   0  0  0  0  0  0  0  0  0  0  0  0
   38.4100   20.9410   30.6880 C   0  0  0  0  0  0  0  0  0  0  0  0
   38.3590   19.9640   29.7110 C   0  0  0  0  0  0  0  0  0  0  0  0
   37.1840   19.1790   29.6130 C   0  0  0  0  0  0  0  0  0  0  0  0
   36.1720   19.4590   30.5160 C   0  0  0  0  0  0  0  0  0  0  0  0
   36.2140   20.4390   31.5030 C   0  0  0  0  0  0  0  0  0  0  0  0
   39.3400   21.4940   30.6940 H   0  0  0  0  0  0  0  0  0  0  0  0
   39.1590   19.7670   29.0220 H   0  0  0  0  0  0  0  0  0  0  0  0
   37.0530   18.3960   28.8830 H   0  0  0  0  0  0  0  0  0  0  0  0
   35.2810   18.8590   30.4370 H   0  0  0  0  0  0  0  0  0  0  0  0
   38.1040   21.8920   33.8160 C   0  0  0  0  0  0  0  0  0  0  0  0
   37.6310   22.2600   32.5270 C   0  0  0  0  0  0  0  0  0  0  0  0
   37.4390   23.6260   32.3020 C   0  0  0  0  0  0  0  0  0  0  0  0
   37.7130   24.5030   33.3070 N   0  0  0  0  0  0  0  0  0  0  0  0
   38.1660   24.1170   34.5260 C   0  0  0  0  0  0  0  0  0  0  0  0
   38.3610   22.7810   34.7760 N   0  0  0  0  0  0  0  0  0  0  0  0
   38.2850   20.8960   34.1790 H   0  0  0  0  0  0  0  0  0  0  0  0
   38.3570   24.8760   35.2620 H   0  0  0  0  0  0  0  0  0  0  0  0
   36.9460   24.1670   31.0200 C   0  0  0  0  0  0  0  0  0  0  0  0
   36.6640   25.5280   31.1520 F   0  0  0  0  0  0  0  0  0  0  0  0
   37.7190   23.9600   29.9360 F   0  0  0  0  0  0  0  0  0  0  0  0
   35.6720   23.6260   30.7340 F   0  0  0  0  0  0  0  0  0  0  0  0
   35.1010   20.6470   32.4500 C   0  0  0  0  0  0  0  0  0  0  0  0
   34.0320   19.8940   31.9300 F   0  0  0  0  0  0  0  0  0  0  0  0
   35.3640   20.1010   33.6920 F   0  0  0  0  0  0  0  0  0  0  0  0
   34.6330   21.9080   32.5680 F   0  0  0  0  0  0  0  0  0  0  0  0
  1 12  1  0  0  0  0
  2  7  1  0  0  0  0
  2  1  2  0  0  0  0
  3  2  1  0  0  0  0
  4  3  2  0  0  0  0
  4  5  1  0  0  0  0
  5  6  2  0  0  0  0
  6  1  1  0  0  0  0
  6 23  1  0  0  0  0
  8  3  1  0  0  0  0
  9  4  1  0  0  0  0
 10  5  1  0  0  0  0
 11 17  1  0  0  0  0
 11 16  1  0  0  0  0
 12 11  2  0  0  0  0
 13 12  1  0  0  0  0
 13 14  2  0  0  0  0
 14 15  1  0  0  0  0
 15 16  2  0  0  0  0
 15 18  1  0  0  0  0
 19 20  1  0  0  0  0
 19 13  1  0  0  0  0
 21 19  1  0  0  0  0
 22 19  1  0  0  0  0
 23 26  1  0  0  0  0
 23 25  1  0  0  0  0
 24 23  1  0  0  0  0
M  END
>  <minimizedAffinity>
-4.91653633

$$$$
