
 OpenBabel03262520563D

 41 43  0  0  1  0  0  0  0  0999 V2000
   35.6490   30.2190   47.1870 C   0  0  0  0  0  0  0  0  0  0  0  0
   34.7880   30.7210   46.7260 H   0  0  0  0  0  0  0  0  0  0  0  0
   35.4520   29.1200   47.2340 H   0  0  0  0  0  0  0  0  0  0  0  0
   35.9320   30.8210   48.4330 N   0  0  0  0  0  0  0  0  0  0  0  0
   34.8340   30.7670   49.3680 C   0  0  0  0  0  0  0  0  0  0  0  0
   34.8250   29.6200   50.2930 C   0  0  0  0  0  0  0  0  0  0  0  0
   36.1260   29.2090   50.7490 N   0  0  0  0  0  0  0  0  0  0  0  0
   37.0250   29.0900   49.5850 C   0  0  0  0  0  0  0  0  0  0  0  0
   37.1380   30.5400   49.0940 C   0  0  2  0  0  0  0  0  0  0  0  0
   33.9280   30.6180   48.7030 H   0  0  0  0  0  0  0  0  0  0  0  0
   34.6170   31.7330   49.8710 H   0  0  0  0  0  0  0  0  0  0  0  0
   34.3750   28.6930   49.8280 H   0  0  0  0  0  0  0  0  0  0  0  0
   34.1910   29.8250   51.1710 H   0  0  0  0  0  0  0  0  0  0  0  0
   36.0550   28.3420   51.2880 H   0  0  0  0  0  0  0  0  0  0  0  0
   36.6660   28.4010   48.8290 H   0  0  0  0  0  0  0  0  0  0  0  0
   38.0220   28.7830   49.9610 H   0  0  0  0  0  0  0  0  0  0  0  0
   38.0080   30.6120   48.4660 H   0  0  0  0  0  0  0  0  0  0  0  0
   37.2530   31.1890   50.4400 C   0  0  0  0  0  0  0  0  0  0  0  0
   36.5550   32.3100   50.4340 F   0  0  0  0  0  0  0  0  0  0  0  0
   38.6480   31.3310   50.5770 F   0  0  0  0  0  0  0  0  0  0  0  0
   37.0250   30.6260   51.6200 F   0  0  0  0  0  0  0  0  0  0  0  0
   36.8450   30.3750   46.2800 C   0  0  0  0  0  0  0  0  0  0  0  0
   37.3860   29.3970   46.3010 H   0  0  0  0  0  0  0  0  0  0  0  0
   37.5670   31.1200   46.6140 H   0  0  0  0  0  0  0  0  0  0  0  0
   36.3240   30.6270   44.5530 S   0  0  0  0  0  0  0  0  0  0  0  0
   38.6030   29.5930   43.2400 C   0  0  2  0  0  0  0  0  0  0  0  0
   37.6050   29.6540   42.1780 C   0  0  0  0  0  0  0  0  0  0  0  0
   37.1460   29.3730   43.5560 C   0  0  2  0  0  0  0  0  0  0  0  0
   39.2710   28.7340   43.3910 H   0  0  0  0  0  0  0  0  0  0  0  0
   37.4100   30.6820   41.7580 H   0  0  0  0  0  0  0  0  0  0  0  0
   37.5370   28.8880   41.3790 H   0  0  0  0  0  0  0  0  0  0  0  0
   36.8620   28.2940   43.7200 H   0  0  0  0  0  0  0  0  0  0  0  0
   39.6070   33.1700   43.7260 C   0  0  0  0  0  0  0  0  0  0  0  0
   40.4310   33.0290   44.8710 C   0  0  0  0  0  0  0  0  0  0  0  0
   40.6070   31.7500   45.4370 C   0  0  0  0  0  0  0  0  0  0  0  0
   39.9840   30.6810   44.8860 N   0  0  0  0  0  0  0  0  0  0  0  0
   39.2020   30.8680   43.7830 C   0  0  0  0  0  0  0  0  0  0  0  0
   38.9880   32.0790   43.1770 N   0  0  0  0  0  0  0  0  0  0  0  0
   39.4630   34.1210   43.2850 H   0  0  0  0  0  0  0  0  0  0  0  0
   40.8740   33.9420   45.2300 H   0  0  0  0  0  0  0  0  0  0  0  0
   41.2870   31.8130   46.2570 H   0  0  0  0  0  0  0  0  0  0  0  0
  1  3  1  0  0  0  0
  1  4  1  0  0  0  0
  2  1  1  0  0  0  0
  4  9  1  0  0  0  0
  4  5  1  0  0  0  0
  5 11  1  0  0  0  0
  5  6  1  0  0  0  0
  6  7  1  0  0  0  0
  6 13  1  0  0  0  0
  7 14  1  0  0  0  0
  8 16  1  0  0  0  0
  8  7  1  0  0  0  0
  9 17  1  6  0  0  0
  9  8  1  0  0  0  0
  9 18  1  0  0  0  0
 10  5  1  0  0  0  0
 12  6  1  0  0  0  0
 15  8  1  0  0  0  0
 18 20  1  0  0  0  0
 18 21  1  0  0  0  0
 19 18  1  0  0  0  0
 22 23  1  0  0  0  0
 22 24  1  0  0  0  0
 22  1  1  0  0  0  0
 25 22  1  0  0  0  0
 26 29  1  1  0  0  0
 26 28  1  0  0  0  0
 26 37  1  0  0  0  0
 27 26  1  0  0  0  0
 27 28  1  0  0  0  0
 28 32  1  1  0  0  0
 28 25  1  0  0  0  0
 30 27  1  0  0  0  0
 31 27  1  0  0  0  0
 33 34  1  0  0  0  0
 34 40  1  0  0  0  0
 34 35  2  0  0  0  0
 35 41  1  0  0  0  0
 36 35  1  0  0  0  0
 37 36  2  0  0  0  0
 38 33  2  0  0  0  0
 38 37  1  0  0  0  0
 39 33  1  0  0  0  0
M  END
>  <minimizedAffinity>
-5.2983737

>  <minimizedRMSD>
1.82315505

$$$$
