
 OpenBabel03262523193D

 25 26  0  0  1  0  0  0  0  0999 V2000
   39.6020   32.7630   46.8770 C   0  0  0  0  0  0  0  0  0  0  0  0
   39.8880   32.2130   45.6210 C   0  0  0  0  0  0  0  0  0  0  0  0
   39.1950   31.0490   45.2400 C   0  0  0  0  0  0  0  0  0  0  0  0
   38.2870   30.5220   46.1100 N   0  0  0  0  0  0  0  0  0  0  0  0
   38.0460   31.0930   47.3160 C   0  0  0  0  0  0  0  0  0  0  0  0
   38.6910   32.2040   47.7090 N   0  0  0  0  0  0  0  0  0  0  0  0
   37.0730   30.4670   48.1650 N   0  0  0  0  0  0  0  0  0  0  0  0
   35.6700   30.3020   47.7860 C   0  0  0  0  0  0  0  0  0  0  0  0
   35.1200   29.3640   48.7970 C   0  0  0  0  0  0  0  0  0  0  0  0
   36.2790   28.9070   49.6470 C   0  0  0  0  0  0  0  0  0  0  0  0
   37.3430   29.9270   49.4820 C   0  0  2  0  0  0  0  0  0  0  0  0
   40.1310   33.6580   47.1750 H   0  0  0  0  0  0  0  0  0  0  0  0
   40.6020   32.6230   44.9310 H   0  0  0  0  0  0  0  0  0  0  0  0
   39.3590   30.5620   44.2840 H   0  0  0  0  0  0  0  0  0  0  0  0
   35.6240   29.9380   46.7420 H   0  0  0  0  0  0  0  0  0  0  0  0
   35.1780   31.2880   47.8380 H   0  0  0  0  0  0  0  0  0  0  0  0
   34.7330   28.4520   48.2680 H   0  0  0  0  0  0  0  0  0  0  0  0
   34.2920   29.8010   49.3720 H   0  0  0  0  0  0  0  0  0  0  0  0
   36.6000   27.8660   49.3890 H   0  0  0  0  0  0  0  0  0  0  0  0
   35.9320   28.8680   50.7090 H   0  0  0  0  0  0  0  0  0  0  0  0
   38.3190   29.3850   49.4180 H   0  0  0  0  0  0  0  0  0  0  0  0
   37.4670   30.9270   50.5690 C   0  0  0  0  0  0  0  0  0  0  0  0
   38.8120   31.3200   50.5940 F   0  0  0  0  0  0  0  0  0  0  0  0
   36.7260   32.0320   50.2840 F   0  0  0  0  0  0  0  0  0  0  0  0
   37.1410   30.4890   51.8110 F   0  0  0  0  0  0  0  0  0  0  0  0
  1 12  1  0  0  0  0
  1  6  1  0  0  0  0
  2  1  2  0  0  0  0
  3  2  1  0  0  0  0
  3  4  2  0  0  0  0
  4  5  1  0  0  0  0
  5  6  2  0  0  0  0
  5  7  1  0  0  0  0
  7 11  1  0  0  0  0
  8 16  1  0  0  0  0
  8  7  1  0  0  0  0
  8  9  1  0  0  0  0
  9 18  1  0  0  0  0
  9 10  1  0  0  0  0
 10 20  1  0  0  0  0
 11 21  1  6  0  0  0
 11 10  1  0  0  0  0
 11 22  1  0  0  0  0
 13  2  1  0  0  0  0
 14  3  1  0  0  0  0
 15  8  1  0  0  0  0
 17  9  1  0  0  0  0
 19 10  1  0  0  0  0
 22 23  1  0  0  0  0
 22 25  1  0  0  0  0
 24 22  1  0  0  0  0
M  END
>  <minimizedAffinity>
-6.01526928

>  <minimizedRMSD>
2.32338452

$$$$
