
 OpenBabel03262521293D

 28 29  0  0  1  0  0  0  0  0999 V2000
   37.3290   22.0170   33.3590 N   0  0  0  0  0  0  0  0  0  0  0  0
   36.6270   22.9680   32.5550 C   0  0  0  0  0  0  0  0  0  0  0  0
   36.4460   22.2280   31.2200 C   0  0  0  0  0  0  0  0  0  0  0  0
   37.0800   20.8680   31.4310 C   0  0  0  0  0  0  0  0  0  0  0  0
   36.9290   20.7000   32.9110 C   0  0  2  0  0  0  0  0  0  0  0  0
   37.3310   23.8060   32.3360 H   0  0  0  0  0  0  0  0  0  0  0  0
   35.6580   23.2920   32.9720 H   0  0  0  0  0  0  0  0  0  0  0  0
   36.9860   22.7070   30.3970 H   0  0  0  0  0  0  0  0  0  0  0  0
   35.3700   22.1750   31.0250 H   0  0  0  0  0  0  0  0  0  0  0  0
   38.1420   20.8580   31.1510 H   0  0  0  0  0  0  0  0  0  0  0  0
   36.5100   20.0870   30.8760 H   0  0  0  0  0  0  0  0  0  0  0  0
   37.6540   19.9290   33.2330 H   0  0  0  0  0  0  0  0  0  0  0  0
   38.2540   22.2740   34.4060 C   0  0  0  0  0  0  0  0  0  0  0  0
   39.5970   22.0000   34.1430 C   0  0  0  0  0  0  0  0  0  0  0  0
   40.5740   22.2220   35.1080 C   0  0  0  0  0  0  0  0  0  0  0  0
   40.1240   22.7210   36.3090 N   0  0  0  0  0  0  0  0  0  0  0  0
   38.8180   22.9770   36.5340 C   0  0  0  0  0  0  0  0  0  0  0  0
   37.8830   22.7520   35.5750 N   0  0  0  0  0  0  0  0  0  0  0  0
   39.9660   21.6060   33.1990 H   0  0  0  0  0  0  0  0  0  0  0  0
   41.6130   22.0280   34.9560 H   0  0  0  0  0  0  0  0  0  0  0  0
   38.4090   23.5160   37.8610 C   0  0  0  0  0  0  0  0  0  0  0  0
   37.2910   22.8730   38.3510 F   0  0  0  0  0  0  0  0  0  0  0  0
   39.5050   23.3160   38.6950 F   0  0  0  0  0  0  0  0  0  0  0  0
   38.1620   24.8630   37.7060 F   0  0  0  0  0  0  0  0  0  0  0  0
   35.5480   20.2980   33.3390 C   0  0  0  0  0  0  0  0  0  0  0  0
   34.6290   20.6270   32.3340 F   0  0  0  0  0  0  0  0  0  0  0  0
   35.1900   20.8330   34.5340 F   0  0  0  0  0  0  0  0  0  0  0  0
   35.4860   18.9210   33.5120 F   0  0  0  0  0  0  0  0  0  0  0  0
  1 13  1  0  0  0  0
  2  7  1  0  0  0  0
  2  1  1  0  0  0  0
  3  4  1  0  0  0  0
  3  2  1  0  0  0  0
  4  5  1  0  0  0  0
  5 12  1  1  0  0  0
  5 25  1  0  0  0  0
  5  1  1  0  0  0  0
  6  2  1  0  0  0  0
  8  3  1  0  0  0  0
  9  3  1  0  0  0  0
 10  4  1  0  0  0  0
 11  4  1  0  0  0  0
 13 18  1  0  0  0  0
 14 13  2  0  0  0  0
 14 15  1  0  0  0  0
 15 16  2  0  0  0  0
 16 17  1  0  0  0  0
 17 21  1  0  0  0  0
 18 17  2  0  0  0  0
 19 14  1  0  0  0  0
 20 15  1  0  0  0  0
 21 22  1  0  0  0  0
 21 23  1  0  0  0  0
 24 21  1  0  0  0  0
 25 28  1  0  0  0  0
 25 27  1  0  0  0  0
 26 25  1  0  0  0  0
M  END
>  <minimizedAffinity>
-5.30645561

$$$$

 OpenBabel03262521293D

 28 29  0  0  1  0  0  0  0  0999 V2000
   39.0240   25.8610   34.1980 N   0  0  0  0  0  0  0  0  0  0  0  0
   39.9910   26.8650   34.5140 C   0  0  0  0  0  0  0  0  0  0  0  0
   40.5370   27.2670   33.1350 C   0  0  0  0  0  0  0  0  0  0  0  0
   39.7700   26.4180   32.1410 C   0  0  0  0  0  0  0  0  0  0  0  0
   38.4960   26.1730   32.8880 C   0  0  2  0  0  0  0  0  0  0  0  0
   40.8400   26.3610   35.0340 H   0  0  0  0  0  0  0  0  0  0  0  0
   39.5850   27.7350   35.0560 H   0  0  0  0  0  0  0  0  0  0  0  0
   41.5960   27.0200   33.0140 H   0  0  0  0  0  0  0  0  0  0  0  0
   40.3530   28.3400   33.0160 H   0  0  0  0  0  0  0  0  0  0  0  0
   40.2780   25.4670   31.9290 H   0  0  0  0  0  0  0  0  0  0  0  0
   39.5840   26.9940   31.2040 H   0  0  0  0  0  0  0  0  0  0  0  0
   38.0090   25.2900   32.4300 H   0  0  0  0  0  0  0  0  0  0  0  0
   38.6300   24.7500   34.9920 C   0  0  0  0  0  0  0  0  0  0  0  0
   38.2600   23.5890   34.3110 C   0  0  0  0  0  0  0  0  0  0  0  0
   37.8610   22.4510   35.0050 C   0  0  0  0  0  0  0  0  0  0  0  0
   37.8600   22.5570   36.3770 N   0  0  0  0  0  0  0  0  0  0  0  0
   38.2250   23.6940   37.0070 C   0  0  0  0  0  0  0  0  0  0  0  0
   38.6110   24.7930   36.3070 N   0  0  0  0  0  0  0  0  0  0  0  0
   38.2550   23.4910   33.2290 H   0  0  0  0  0  0  0  0  0  0  0  0
   37.5680   21.5390   34.5320 H   0  0  0  0  0  0  0  0  0  0  0  0
   38.1980   23.7320   38.4960 C   0  0  0  0  0  0  0  0  0  0  0  0
   37.8200   24.9720   38.9690 F   0  0  0  0  0  0  0  0  0  0  0  0
   37.2830   22.7550   38.8740 F   0  0  0  0  0  0  0  0  0  0  0  0
   39.4600   23.4090   38.9440 F   0  0  0  0  0  0  0  0  0  0  0  0
   37.5460   27.3340   32.8670 C   0  0  0  0  0  0  0  0  0  0  0  0
   37.9760   28.2770   31.9240 F   0  0  0  0  0  0  0  0  0  0  0  0
   37.3770   27.8970   34.0900 F   0  0  0  0  0  0  0  0  0  0  0  0
   36.2840   26.9100   32.4720 F   0  0  0  0  0  0  0  0  0  0  0  0
  1  2  1  0  0  0  0
  1 13  1  0  0  0  0
  2  6  1  0  0  0  0
  2  7  1  0  0  0  0
  3  2  1  0  0  0  0
  4  5  1  0  0  0  0
  4  3  1  0  0  0  0
  5 12  1  6  0  0  0
  5  1  1  0  0  0  0
  8  3  1  0  0  0  0
  9  3  1  0  0  0  0
 10  4  1  0  0  0  0
 11  4  1  0  0  0  0
 13 18  1  0  0  0  0
 14 13  2  0  0  0  0
 14 15  1  0  0  0  0
 15 16  2  0  0  0  0
 16 17  1  0  0  0  0
 17 21  1  0  0  0  0
 18 17  2  0  0  0  0
 19 14  1  0  0  0  0
 20 15  1  0  0  0  0
 21 23  1  0  0  0  0
 21 24  1  0  0  0  0
 21 22  1  0  0  0  0
 25  5  1  0  0  0  0
 25 27  1  0  0  0  0
 26 25  1  0  0  0  0
 28 25  1  0  0  0  0
M  END
>  <minimizedAffinity>
-5.22415781

$$$$

 OpenBabel03262521293D

 28 29  0  0  1  0  0  0  0  0999 V2000
   37.7940   25.4560   33.7140 N   0  0  0  0  0  0  0  0  0  0  0  0
   37.0750   26.6620   33.9830 C   0  0  0  0  0  0  0  0  0  0  0  0
   37.6200   27.6340   32.9240 C   0  0  0  0  0  0  0  0  0  0  0  0
   38.6230   26.8280   32.1250 C   0  0  0  0  0  0  0  0  0  0  0  0
   38.0880   25.4400   32.2980 C   0  0  2  0  0  0  0  0  0  0  0  0
   37.4370   27.0580   34.9620 H   0  0  0  0  0  0  0  0  0  0  0  0
   35.9790   26.5650   33.9150 H   0  0  0  0  0  0  0  0  0  0  0  0
   38.1670   28.4730   33.3670 H   0  0  0  0  0  0  0  0  0  0  0  0
   36.7670   27.9730   32.3290 H   0  0  0  0  0  0  0  0  0  0  0  0
   39.6380   26.9010   32.5370 H   0  0  0  0  0  0  0  0  0  0  0  0
   38.6000   27.1380   31.0530 H   0  0  0  0  0  0  0  0  0  0  0  0
   38.9110   24.7370   32.0670 H   0  0  0  0  0  0  0  0  0  0  0  0
   38.1700   24.4420   34.6360 C   0  0  0  0  0  0  0  0  0  0  0  0
   38.6760   23.2580   34.0980 C   0  0  0  0  0  0  0  0  0  0  0  0
   39.0710   22.2100   34.9230 C   0  0  0  0  0  0  0  0  0  0  0  0
   38.9270   22.4270   36.2740 N   0  0  0  0  0  0  0  0  0  0  0  0
   38.4340   23.5840   36.7650 C   0  0  0  0  0  0  0  0  0  0  0  0
   38.0560   24.5930   35.9380 N   0  0  0  0  0  0  0  0  0  0  0  0
   38.7950   23.0730   33.0340 H   0  0  0  0  0  0  0  0  0  0  0  0
   39.4640   21.2850   34.5610 H   0  0  0  0  0  0  0  0  0  0  0  0
   38.3080   23.7440   38.2410 C   0  0  0  0  0  0  0  0  0  0  0  0
   38.0030   25.0430   38.5900 F   0  0  0  0  0  0  0  0  0  0  0  0
   37.2900   22.8750   38.6210 F   0  0  0  0  0  0  0  0  0  0  0  0
   39.5050   23.3600   38.8060 F   0  0  0  0  0  0  0  0  0  0  0  0
   36.9070   25.1310   31.4270 C   0  0  0  0  0  0  0  0  0  0  0  0
   36.5460   26.2720   30.7000 F   0  0  0  0  0  0  0  0  0  0  0  0
   35.8540   24.6340   32.1250 F   0  0  0  0  0  0  0  0  0  0  0  0
   37.2400   24.1480   30.5040 F   0  0  0  0  0  0  0  0  0  0  0  0
  1  2  1  0  0  0  0
  1 13  1  0  0  0  0
  2  6  1  0  0  0  0
  3  8  1  0  0  0  0
  3  2  1  0  0  0  0
  4  5  1  0  0  0  0
  4 10  1  0  0  0  0
  4  3  1  0  0  0  0
  5 12  1  6  0  0  0
  5  1  1  0  0  0  0
  7  2  1  0  0  0  0
  9  3  1  0  0  0  0
 11  4  1  0  0  0  0
 13 18  1  0  0  0  0
 14 13  2  0  0  0  0
 14 15  1  0  0  0  0
 15 16  2  0  0  0  0
 16 17  1  0  0  0  0
 17 21  1  0  0  0  0
 18 17  2  0  0  0  0
 19 14  1  0  0  0  0
 20 15  1  0  0  0  0
 21 22  1  0  0  0  0
 21 23  1  0  0  0  0
 21 24  1  0  0  0  0
 25 27  1  0  0  0  0
 25  5  1  0  0  0  0
 26 25  1  0  0  0  0
 28 25  1  0  0  0  0
M  END
>  <minimizedAffinity>
-5.1750927

$$$$

 OpenBabel03262521293D

 28 29  0  0  1  0  0  0  0  0999 V2000
   38.5460   24.9370   33.8300 N   0  0  0  0  0  0  0  0  0  0  0  0
   39.1730   24.9750   32.5460 C   0  0  0  0  0  0  0  0  0  0  0  0
   38.0170   25.3460   31.6050 C   0  0  0  0  0  0  0  0  0  0  0  0
   36.8070   25.5010   32.5050 C   0  0  0  0  0  0  0  0  0  0  0  0
   37.4530   25.8850   33.8000 C   0  0  2  0  0  0  0  0  0  0  0  0
   39.4500   23.9270   32.2770 H   0  0  0  0  0  0  0  0  0  0  0  0
   40.0060   25.6940   32.4660 H   0  0  0  0  0  0  0  0  0  0  0  0
   37.7820   24.5480   30.8920 H   0  0  0  0  0  0  0  0  0  0  0  0
   38.2990   26.2740   31.0990 H   0  0  0  0  0  0  0  0  0  0  0  0
   36.2510   24.5610   32.6180 H   0  0  0  0  0  0  0  0  0  0  0  0
   36.1480   26.3170   32.1260 H   0  0  0  0  0  0  0  0  0  0  0  0
   36.7230   25.6820   34.6070 H   0  0  0  0  0  0  0  0  0  0  0  0
   38.8970   24.1340   34.9490 C   0  0  0  0  0  0  0  0  0  0  0  0
   39.7570   23.0610   34.7090 C   0  0  0  0  0  0  0  0  0  0  0  0
   40.1560   22.2210   35.7440 C   0  0  0  0  0  0  0  0  0  0  0  0
   39.6500   22.5230   36.9870 N   0  0  0  0  0  0  0  0  0  0  0  0
   38.8200   23.5680   37.1880 C   0  0  0  0  0  0  0  0  0  0  0  0
   38.4440   24.3750   36.1610 N   0  0  0  0  0  0  0  0  0  0  0  0
   40.1640   22.8120   33.7330 H   0  0  0  0  0  0  0  0  0  0  0  0
   40.8110   21.3880   35.6120 H   0  0  0  0  0  0  0  0  0  0  0  0
   38.3130   23.8310   38.5640 C   0  0  0  0  0  0  0  0  0  0  0  0
   37.7940   25.1030   38.6830 F   0  0  0  0  0  0  0  0  0  0  0  0
   37.3310   22.8700   38.7850 F   0  0  0  0  0  0  0  0  0  0  0  0
   39.3640   23.6550   39.4360 F   0  0  0  0  0  0  0  0  0  0  0  0
   37.8820   27.3210   33.8630 C   0  0  0  0  0  0  0  0  0  0  0  0
   37.5170   27.9740   32.6790 F   0  0  0  0  0  0  0  0  0  0  0  0
   39.2070   27.4640   34.1200 F   0  0  0  0  0  0  0  0  0  0  0  0
   37.2270   27.9680   34.9030 F   0  0  0  0  0  0  0  0  0  0  0  0
  1 13  1  0  0  0  0
  2  1  1  0  0  0  0
  3  4  1  0  0  0  0
  3  2  1  0  0  0  0
  4 10  1  0  0  0  0
  4  5  1  0  0  0  0
  5  1  1  0  0  0  0
  5 25  1  0  0  0  0
  5 12  1  1  0  0  0
  6  2  1  0  0  0  0
  7  2  1  0  0  0  0
  8  3  1  0  0  0  0
  9  3  1  0  0  0  0
 11  4  1  0  0  0  0
 13 18  1  0  0  0  0
 14 13  2  0  0  0  0
 14 15  1  0  0  0  0
 15 16  2  0  0  0  0
 16 17  1  0  0  0  0
 17 21  1  0  0  0  0
 18 17  2  0  0  0  0
 19 14  1  0  0  0  0
 20 15  1  0  0  0  0
 21 22  1  0  0  0  0
 21 23  1  0  0  0  0
 21 24  1  0  0  0  0
 25 27  1  0  0  0  0
 25 28  1  0  0  0  0
 26 25  1  0  0  0  0
M  END
>  <minimizedAffinity>
-5.10946465

$$$$

 OpenBabel03262521293D

 28 29  0  0  1  0  0  0  0  0999 V2000
   37.9340   22.7010   33.4560 N   0  0  0  0  0  0  0  0  0  0  0  0
   39.0040   22.1190   32.7070 C   0  0  0  0  0  0  0  0  0  0  0  0
   38.4390   20.7480   32.3040 C   0  0  0  0  0  0  0  0  0  0  0  0
   37.0400   20.7090   32.8840 C   0  0  0  0  0  0  0  0  0  0  0  0
   36.7000   22.1660   32.9250 C   0  0  2  0  0  0  0  0  0  0  0  0
   39.8340   21.9000   33.4200 H   0  0  0  0  0  0  0  0  0  0  0  0
   39.3130   22.7030   31.8240 H   0  0  0  0  0  0  0  0  0  0  0  0
   38.9930   19.9170   32.7540 H   0  0  0  0  0  0  0  0  0  0  0  0
   38.4540   20.7020   31.2110 H   0  0  0  0  0  0  0  0  0  0  0  0
   37.0210   20.2820   33.8960 H   0  0  0  0  0  0  0  0  0  0  0  0
   36.3550   20.1540   32.2000 H   0  0  0  0  0  0  0  0  0  0  0  0
   35.8660   22.2920   33.6430 H   0  0  0  0  0  0  0  0  0  0  0  0
   38.0260   23.6300   34.5290 C   0  0  0  0  0  0  0  0  0  0  0  0
   38.0270   24.9840   34.1910 C   0  0  0  0  0  0  0  0  0  0  0  0
   38.1120   25.9650   35.1740 C   0  0  0  0  0  0  0  0  0  0  0  0
   38.1920   25.5070   36.4690 N   0  0  0  0  0  0  0  0  0  0  0  0
   38.1880   24.1900   36.7640 C   0  0  0  0  0  0  0  0  0  0  0  0
   38.1040   23.2500   35.7870 N   0  0  0  0  0  0  0  0  0  0  0  0
   37.9640   25.3590   33.1730 H   0  0  0  0  0  0  0  0  0  0  0  0
   38.1170   27.0120   34.9670 H   0  0  0  0  0  0  0  0  0  0  0  0
   38.2780   23.7720   38.1920 C   0  0  0  0  0  0  0  0  0  0  0  0
   39.5040   23.2120   38.4830 F   0  0  0  0  0  0  0  0  0  0  0  0
   38.0730   24.9340   38.9300 F   0  0  0  0  0  0  0  0  0  0  0  0
   37.2660   22.8680   38.4260 F   0  0  0  0  0  0  0  0  0  0  0  0
   36.3040   22.7360   31.5950 C   0  0  0  0  0  0  0  0  0  0  0  0
   35.9130   21.7010   30.7370 F   0  0  0  0  0  0  0  0  0  0  0  0
   37.2780   23.5000   31.0390 F   0  0  0  0  0  0  0  0  0  0  0  0
   35.2080   23.5770   31.7450 F   0  0  0  0  0  0  0  0  0  0  0  0
  1 13  1  0  0  0  0
  2  6  1  0  0  0  0
  2  1  1  0  0  0  0
  3  2  1  0  0  0  0
  3  8  1  0  0  0  0
  3  4  1  0  0  0  0
  4  5  1  0  0  0  0
  4 10  1  0  0  0  0
  5  1  1  0  0  0  0
  5 12  1  1  0  0  0
  7  2  1  0  0  0  0
  9  3  1  0  0  0  0
 11  4  1  0  0  0  0
 13 18  1  0  0  0  0
 14 13  2  0  0  0  0
 14 15  1  0  0  0  0
 15 16  2  0  0  0  0
 16 17  1  0  0  0  0
 17 21  1  0  0  0  0
 18 17  2  0  0  0  0
 19 14  1  0  0  0  0
 20 15  1  0  0  0  0
 21 24  1  0  0  0  0
 21 22  1  0  0  0  0
 21 23  1  0  0  0  0
 25 28  1  0  0  0  0
 25  5  1  0  0  0  0
 26 25  1  0  0  0  0
 27 25  1  0  0  0  0
M  END
>  <minimizedAffinity>
-5.05166817

$$$$

 OpenBabel03262521293D

 28 29  0  0  1  0  0  0  0  0999 V2000
   38.5360   23.6020   35.2260 N   0  0  0  0  0  0  0  0  0  0  0  0
   38.7020   22.1830   35.1900 C   0  0  0  0  0  0  0  0  0  0  0  0
   40.0180   21.9680   35.9550 C   0  0  0  0  0  0  0  0  0  0  0  0
   40.4650   23.3540   36.3730 C   0  0  0  0  0  0  0  0  0  0  0  0
   39.1540   24.0750   36.4460 C   0  0  2  0  0  0  0  0  0  0  0  0
   38.9230   21.8970   34.1340 H   0  0  0  0  0  0  0  0  0  0  0  0
   37.8740   21.6140   35.6460 H   0  0  0  0  0  0  0  0  0  0  0  0
   40.8100   21.5570   35.3210 H   0  0  0  0  0  0  0  0  0  0  0  0
   39.7950   21.3130   36.8030 H   0  0  0  0  0  0  0  0  0  0  0  0
   41.1190   23.8230   35.6260 H   0  0  0  0  0  0  0  0  0  0  0  0
   40.9590   23.3150   37.3730 H   0  0  0  0  0  0  0  0  0  0  0  0
   39.3700   25.1590   36.3930 H   0  0  0  0  0  0  0  0  0  0  0  0
   37.8950   24.4290   34.2640 C   0  0  0  0  0  0  0  0  0  0  0  0
   37.8260   25.7930   34.5520 C   0  0  0  0  0  0  0  0  0  0  0  0
   37.2180   26.6790   33.6680 C   0  0  0  0  0  0  0  0  0  0  0  0
   36.7040   26.1200   32.5210 N   0  0  0  0  0  0  0  0  0  0  0  0
   36.7860   24.7960   32.2710 C   0  0  0  0  0  0  0  0  0  0  0  0
   37.3850   23.9510   33.1490 N   0  0  0  0  0  0  0  0  0  0  0  0
   38.2280   26.2480   35.4530 H   0  0  0  0  0  0  0  0  0  0  0  0
   37.1400   27.7300   33.8420 H   0  0  0  0  0  0  0  0  0  0  0  0
   36.2050   24.2650   31.0050 C   0  0  0  0  0  0  0  0  0  0  0  0
   35.3070   25.1500   30.4450 F   0  0  0  0  0  0  0  0  0  0  0  0
   37.2900   24.0550   30.1610 F   0  0  0  0  0  0  0  0  0  0  0  0
   35.5860   23.0710   31.3010 F   0  0  0  0  0  0  0  0  0  0  0  0
   38.3670   23.7810   37.6890 C   0  0  0  0  0  0  0  0  0  0  0  0
   39.1530   23.0380   38.5790 F   0  0  0  0  0  0  0  0  0  0  0  0
   37.1880   23.1600   37.4300 F   0  0  0  0  0  0  0  0  0  0  0  0
   38.0330   24.9660   38.3310 F   0  0  0  0  0  0  0  0  0  0  0  0
  1  5  1  0  0  0  0
  2  1  1  0  0  0  0
  2  7  1  0  0  0  0
  2  3  1  0  0  0  0
  3  4  1  0  0  0  0
  3  9  1  0  0  0  0
  4  5  1  0  0  0  0
  4 11  1  0  0  0  0
  5 12  1  6  0  0  0
  5 25  1  0  0  0  0
  6  2  1  0  0  0  0
  8  3  1  0  0  0  0
 10  4  1  0  0  0  0
 13 14  1  0  0  0  0
 13  1  1  0  0  0  0
 14 19  1  0  0  0  0
 15 20  1  0  0  0  0
 15 14  2  0  0  0  0
 16 15  1  0  0  0  0
 17 16  2  0  0  0  0
 17 18  1  0  0  0  0
 18 13  2  0  0  0  0
 21 24  1  0  0  0  0
 21 17  1  0  0  0  0
 22 21  1  0  0  0  0
 23 21  1  0  0  0  0
 25 28  1  0  0  0  0
 25 26  1  0  0  0  0
 27 25  1  0  0  0  0
M  END
>  <minimizedAffinity>
-5.04753685

$$$$

 OpenBabel03262521293D

 28 29  0  0  1  0  0  0  0  0999 V2000
   38.3300   23.3420   35.4670 N   0  0  0  0  0  0  0  0  0  0  0  0
   38.4470   24.7500   35.6850 C   0  0  0  0  0  0  0  0  0  0  0  0
   38.0580   24.9060   37.1630 C   0  0  0  0  0  0  0  0  0  0  0  0
   37.7650   23.5000   37.6470 C   0  0  0  0  0  0  0  0  0  0  0  0
   38.6200   22.6890   36.7250 C   0  0  2  0  0  0  0  0  0  0  0  0
   37.6310   25.2480   35.1090 H   0  0  0  0  0  0  0  0  0  0  0  0
   39.4520   25.1600   35.4870 H   0  0  0  0  0  0  0  0  0  0  0  0
   37.1390   25.4860   37.2960 H   0  0  0  0  0  0  0  0  0  0  0  0
   38.9090   25.3680   37.6730 H   0  0  0  0  0  0  0  0  0  0  0  0
   36.7070   23.2310   37.5240 H   0  0  0  0  0  0  0  0  0  0  0  0
   38.0900   23.3820   38.7080 H   0  0  0  0  0  0  0  0  0  0  0  0
   38.2320   21.6530   36.7390 H   0  0  0  0  0  0  0  0  0  0  0  0
   37.9910   22.6710   34.2600 C   0  0  0  0  0  0  0  0  0  0  0  0
   38.6640   23.0730   33.1060 C   0  0  0  0  0  0  0  0  0  0  0  0
   38.4000   22.4730   31.8790 C   0  0  0  0  0  0  0  0  0  0  0  0
   37.4480   21.4790   31.8940 N   0  0  0  0  0  0  0  0  0  0  0  0
   36.8140   21.1120   33.0270 C   0  0  0  0  0  0  0  0  0  0  0  0
   37.0900   21.7130   34.2140 N   0  0  0  0  0  0  0  0  0  0  0  0
   39.4180   23.8560   33.0810 H   0  0  0  0  0  0  0  0  0  0  0  0
   38.8870   22.7450   30.9680 H   0  0  0  0  0  0  0  0  0  0  0  0
   35.7940   20.0270   32.9630 C   0  0  0  0  0  0  0  0  0  0  0  0
   36.2980   18.8880   32.3710 F   0  0  0  0  0  0  0  0  0  0  0  0
   35.4310   19.7830   34.2830 F   0  0  0  0  0  0  0  0  0  0  0  0
   34.7190   20.5080   32.2480 F   0  0  0  0  0  0  0  0  0  0  0  0
   40.0740   22.6820   37.0940 C   0  0  0  0  0  0  0  0  0  0  0  0
   40.2260   23.1140   38.4170 F   0  0  0  0  0  0  0  0  0  0  0  0
   40.8370   23.4150   36.2420 F   0  0  0  0  0  0  0  0  0  0  0  0
   40.5770   21.3890   37.0270 F   0  0  0  0  0  0  0  0  0  0  0  0
  1  2  1  0  0  0  0
  1  5  1  0  0  0  0
  2  3  1  0  0  0  0
  3  8  1  0  0  0  0
  3  4  1  0  0  0  0
  3  9  1  0  0  0  0
  4 11  1  0  0  0  0
  5 12  1  6  0  0  0
  5 25  1  0  0  0  0
  5  4  1  0  0  0  0
  6  2  1  0  0  0  0
  7  2  1  0  0  0  0
 10  4  1  0  0  0  0
 13  1  1  0  0  0  0
 14 13  2  0  0  0  0
 15 16  2  0  0  0  0
 15 14  1  0  0  0  0
 16 17  1  0  0  0  0
 17 18  2  0  0  0  0
 18 13  1  0  0  0  0
 19 14  1  0  0  0  0
 20 15  1  0  0  0  0
 21 17  1  0  0  0  0
 21 23  1  0  0  0  0
 22 21  1  0  0  0  0
 24 21  1  0  0  0  0
 25 26  1  0  0  0  0
 27 25  1  0  0  0  0
 28 25  1  0  0  0  0
M  END
>  <minimizedAffinity>
-5.00737381

$$$$

 OpenBabel03262521293D

 28 29  0  0  1  0  0  0  0  0999 V2000
   37.7280   23.1450   32.6920 N   0  0  0  0  0  0  0  0  0  0  0  0
   38.0700   23.7050   31.4210 C   0  0  0  0  0  0  0  0  0  0  0  0
   38.2510   22.4640   30.5330 C   0  0  0  0  0  0  0  0  0  0  0  0
   37.9620   21.2830   31.4380 C   0  0  0  0  0  0  0  0  0  0  0  0
   37.0360   21.9000   32.4380 C   0  0  2  0  0  0  0  0  0  0  0  0
   39.0880   24.1540   31.5150 H   0  0  0  0  0  0  0  0  0  0  0  0
   37.3130   24.3910   31.0060 H   0  0  0  0  0  0  0  0  0  0  0  0
   39.2810   22.3480   30.1780 H   0  0  0  0  0  0  0  0  0  0  0  0
   37.5430   22.5550   29.7040 H   0  0  0  0  0  0  0  0  0  0  0  0
   38.8680   20.9090   31.9340 H   0  0  0  0  0  0  0  0  0  0  0  0
   37.4540   20.4730   30.8630 H   0  0  0  0  0  0  0  0  0  0  0  0
   37.0360   21.2510   33.3340 H   0  0  0  0  0  0  0  0  0  0  0  0
   38.0000   23.6780   33.9810 C   0  0  0  0  0  0  0  0  0  0  0  0
   38.0630   22.7690   35.0380 C   0  0  0  0  0  0  0  0  0  0  0  0
   38.3260   23.1990   36.3350 C   0  0  0  0  0  0  0  0  0  0  0  0
   38.5140   24.5540   36.4880 N   0  0  0  0  0  0  0  0  0  0  0  0
   38.4470   25.4080   35.4460 C   0  0  0  0  0  0  0  0  0  0  0  0
   38.1900   24.9640   34.1880 N   0  0  0  0  0  0  0  0  0  0  0  0
   37.9170   21.6980   34.9310 H   0  0  0  0  0  0  0  0  0  0  0  0
   38.3840   22.5440   37.1770 H   0  0  0  0  0  0  0  0  0  0  0  0
   38.6620   26.8620   35.6920 C   0  0  0  0  0  0  0  0  0  0  0  0
   38.3340   27.2150   36.9840 F   0  0  0  0  0  0  0  0  0  0  0  0
   40.0140   27.0830   35.4430 F   0  0  0  0  0  0  0  0  0  0  0  0
   37.8870   27.5560   34.7890 F   0  0  0  0  0  0  0  0  0  0  0  0
   35.6300   22.0670   31.9430 C   0  0  0  0  0  0  0  0  0  0  0  0
   35.3120   23.4300   31.8780 F   0  0  0  0  0  0  0  0  0  0  0  0
   34.7250   21.3810   32.6870 F   0  0  0  0  0  0  0  0  0  0  0  0
   35.5150   21.5600   30.6550 F   0  0  0  0  0  0  0  0  0  0  0  0
  1 13  1  0  0  0  0
  2  6  1  0  0  0  0
  2  1  1  0  0  0  0
  3  2  1  0  0  0  0
  3  4  1  0  0  0  0
  4 10  1  0  0  0  0
  4  5  1  0  0  0  0
  5  1  1  0  0  0  0
  5 12  1  1  0  0  0
  7  2  1  0  0  0  0
  8  3  1  0  0  0  0
  9  3  1  0  0  0  0
 11  4  1  0  0  0  0
 13 18  2  0  0  0  0
 13 14  1  0  0  0  0
 14 15  2  0  0  0  0
 15 16  1  0  0  0  0
 15 20  1  0  0  0  0
 17 21  1  0  0  0  0
 17 16  2  0  0  0  0
 18 17  1  0  0  0  0
 19 14  1  0  0  0  0
 21 22  1  0  0  0  0
 23 21  1  0  0  0  0
 24 21  1  0  0  0  0
 25  5  1  0  0  0  0
 25 27  1  0  0  0  0
 26 25  1  0  0  0  0
 28 25  1  0  0  0  0
M  END
>  <minimizedAffinity>
-4.95163774

$$$$

 OpenBabel03262521293D

 28 29  0  0  1  0  0  0  0  0999 V2000
   38.4150   25.3830   33.6790 N   0  0  0  0  0  0  0  0  0  0  0  0
   39.4390   24.6750   34.3820 C   0  0  0  0  0  0  0  0  0  0  0  0
   40.5760   25.7060   34.4680 C   0  0  0  0  0  0  0  0  0  0  0  0
   40.0380   26.9480   33.7870 C   0  0  0  0  0  0  0  0  0  0  0  0
   38.5660   26.7850   34.0020 C   0  0  2  0  0  0  0  0  0  0  0  0
   39.8180   23.8730   33.7040 H   0  0  0  0  0  0  0  0  0  0  0  0
   39.1430   24.3170   35.3820 H   0  0  0  0  0  0  0  0  0  0  0  0
   41.4660   25.3980   33.9100 H   0  0  0  0  0  0  0  0  0  0  0  0
   40.7940   25.8570   35.5300 H   0  0  0  0  0  0  0  0  0  0  0  0
   40.2700   26.9660   32.7140 H   0  0  0  0  0  0  0  0  0  0  0  0
   40.4220   27.8630   34.2970 H   0  0  0  0  0  0  0  0  0  0  0  0
   38.0510   27.4260   33.2600 H   0  0  0  0  0  0  0  0  0  0  0  0
   37.4210   24.8480   32.8160 C   0  0  0  0  0  0  0  0  0  0  0  0
   36.7190   25.7570   32.0230 C   0  0  0  0  0  0  0  0  0  0  0  0
   35.7280   25.3250   31.1470 C   0  0  0  0  0  0  0  0  0  0  0  0
   35.5020   23.9680   31.1250 N   0  0  0  0  0  0  0  0  0  0  0  0
   36.1980   23.1130   31.9040 C   0  0  0  0  0  0  0  0  0  0  0  0
   37.1610   23.5590   32.7510 N   0  0  0  0  0  0  0  0  0  0  0  0
   36.8880   26.8310   32.0310 H   0  0  0  0  0  0  0  0  0  0  0  0
   35.1630   25.9800   30.5210 H   0  0  0  0  0  0  0  0  0  0  0  0
   35.8950   21.6560   31.8230 C   0  0  0  0  0  0  0  0  0  0  0  0
   36.9680   20.8880   32.2230 F   0  0  0  0  0  0  0  0  0  0  0  0
   34.8020   21.4600   32.6630 F   0  0  0  0  0  0  0  0  0  0  0  0
   35.5560   21.3720   30.5190 F   0  0  0  0  0  0  0  0  0  0  0  0
   38.1080   27.1520   35.3820 C   0  0  0  0  0  0  0  0  0  0  0  0
   39.2140   27.5090   36.1650 F   0  0  0  0  0  0  0  0  0  0  0  0
   37.3780   26.1720   35.9730 F   0  0  0  0  0  0  0  0  0  0  0  0
   37.2720   28.2600   35.3280 F   0  0  0  0  0  0  0  0  0  0  0  0
  1  5  1  0  0  0  0
  1  2  1  0  0  0  0
  2  3  1  0  0  0  0
  2  7  1  0  0  0  0
  3  9  1  0  0  0  0
  4  5  1  0  0  0  0
  4 11  1  0  0  0  0
  4  3  1  0  0  0  0
  5 12  1  6  0  0  0
  5 25  1  0  0  0  0
  6  2  1  0  0  0  0
  8  3  1  0  0  0  0
 10  4  1  0  0  0  0
 13  1  1  0  0  0  0
 14 19  1  0  0  0  0
 14 13  2  0  0  0  0
 15 14  1  0  0  0  0
 16 15  2  0  0  0  0
 16 17  1  0  0  0  0
 17 18  2  0  0  0  0
 18 13  1  0  0  0  0
 20 15  1  0  0  0  0
 21 17  1  0  0  0  0
 21 22  1  0  0  0  0
 21 23  1  0  0  0  0
 24 21  1  0  0  0  0
 25 27  1  0  0  0  0
 25 26  1  0  0  0  0
 28 25  1  0  0  0  0
M  END
>  <minimizedAffinity>
-4.93857813

$$$$
