
 OpenBabel03272508463D

 22 23  0  0  0  0  0  0  0  0999 V2000
   38.3090   22.9230   33.5450 C   0  0  0  0  0  0  0  0  0  0  0  0
   39.3740   22.9820   32.8920 O   0  0  0  0  0  0  0  0  0  0  0  0
   35.5920   21.8610   31.3820 C   0  0  0  0  0  0  0  0  0  0  0  0
   34.9670   20.8490   32.0990 C   0  0  0  0  0  0  0  0  0  0  0  0
   35.4780   20.5140   33.3540 C   0  0  0  0  0  0  0  0  0  0  0  0
   36.5620   21.2110   33.7840 N   0  0  0  0  0  0  0  0  0  0  0  0
   37.1520   22.1870   33.0720 C   0  0  0  0  0  0  0  0  0  0  0  0
   36.6520   22.5080   31.8590 N   0  0  0  0  0  0  0  0  0  0  0  0
   35.2420   22.1680   30.4020 H   0  0  0  0  0  0  0  0  0  0  0  0
   34.1230   20.4000   31.6180 H   0  0  0  0  0  0  0  0  0  0  0  0
   34.9910   19.7390   33.8900 H   0  0  0  0  0  0  0  0  0  0  0  0
   38.2420   23.6300   34.8360 C   0  0  0  0  0  0  0  0  0  0  0  0
   38.1230   25.0080   34.9440 C   0  0  0  0  0  0  0  0  0  0  0  0
   38.1010   25.1890   36.3280 C   0  0  0  0  0  0  0  0  0  0  0  0
   38.2030   23.9590   36.9700 C   0  0  0  0  0  0  0  0  0  0  0  0
   38.2850   23.0590   36.0280 O   0  0  0  0  0  0  0  0  0  0  0  0
   38.0700   25.6930   34.1350 H   0  0  0  0  0  0  0  0  0  0  0  0
   38.0150   26.1750   36.8020 H   0  0  0  0  0  0  0  0  0  0  0  0
   38.2060   23.8160   38.4500 C   0  0  0  0  0  0  0  0  0  0  0  0
   39.4670   23.4390   38.8880 F   0  0  0  0  0  0  0  0  0  0  0  0
   37.9240   25.0480   39.0410 F   0  0  0  0  0  0  0  0  0  0  0  0
   37.3300   22.8460   38.8870 F   0  0  0  0  0  0  0  0  0  0  0  0
  1 12  1  0  0  0  0
  2  1  2  0  0  0  0
  3  8  2  0  0  0  0
  3  4  1  0  0  0  0
  4  5  2  0  0  0  0
  5  6  1  0  0  0  0
  5 11  1  0  0  0  0
  7  1  1  0  0  0  0
  7  6  2  0  0  0  0
  8  7  1  0  0  0  0
  9  3  1  0  0  0  0
 10  4  1  0  0  0  0
 12 13  2  0  0  0  0
 12 16  1  0  0  0  0
 13 14  1  0  0  0  0
 14 18  1  0  0  0  0
 14 15  2  0  0  0  0
 15 19  1  0  0  0  0
 16 15  1  0  0  0  0
 17 13  1  0  0  0  0
 19 22  1  0  0  0  0
 19 20  1  0  0  0  0
 19 21  1  0  0  0  0
M  END
>  <minimizedAffinity>
-5.08824635

$$$$

 OpenBabel03272508463D

 22 23  0  0  0  0  0  0  0  0999 V2000
   38.4250   24.9560   33.2030 C   0  0  0  0  0  0  0  0  0  0  0  0
   39.5480   24.7200   32.7030 O   0  0  0  0  0  0  0  0  0  0  0  0
   35.4890   23.9650   31.3110 C   0  0  0  0  0  0  0  0  0  0  0  0
   34.9510   25.1680   30.8710 C   0  0  0  0  0  0  0  0  0  0  0  0
   35.5990   26.3520   31.2240 C   0  0  0  0  0  0  0  0  0  0  0  0
   36.7220   26.2380   31.9810 N   0  0  0  0  0  0  0  0  0  0  0  0
   37.2260   25.0620   32.3960 C   0  0  0  0  0  0  0  0  0  0  0  0
   36.5940   23.9200   32.0510 N   0  0  0  0  0  0  0  0  0  0  0  0
   35.0320   23.0120   31.0700 H   0  0  0  0  0  0  0  0  0  0  0  0
   34.0610   25.0840   30.2820 H   0  0  0  0  0  0  0  0  0  0  0  0
   35.1770   27.2630   30.8810 H   0  0  0  0  0  0  0  0  0  0  0  0
   38.3350   25.1290   34.6640 C   0  0  0  0  0  0  0  0  0  0  0  0
   38.2870   26.3710   35.2810 C   0  0  0  0  0  0  0  0  0  0  0  0
   38.2070   26.0210   36.6300 C   0  0  0  0  0  0  0  0  0  0  0  0
   38.2110   24.6360   36.7620 C   0  0  0  0  0  0  0  0  0  0  0  0
   38.2880   24.1510   35.5530 O   0  0  0  0  0  0  0  0  0  0  0  0
   38.3110   27.3120   34.7890 H   0  0  0  0  0  0  0  0  0  0  0  0
   38.1530   26.7600   37.4380 H   0  0  0  0  0  0  0  0  0  0  0  0
   38.1340   23.9490   38.0790 C   0  0  0  0  0  0  0  0  0  0  0  0
   39.3600   23.3790   38.3900 F   0  0  0  0  0  0  0  0  0  0  0  0
   37.8550   24.8800   39.0790 F   0  0  0  0  0  0  0  0  0  0  0  0
   37.2100   22.9250   38.0850 F   0  0  0  0  0  0  0  0  0  0  0  0
  1 12  1  0  0  0  0
  2  1  2  0  0  0  0
  3  8  1  0  0  0  0
  4  5  1  0  0  0  0
  4  3  2  0  0  0  0
  5  6  2  0  0  0  0
  6  7  1  0  0  0  0
  7  1  1  0  0  0  0
  8  7  2  0  0  0  0
  9  3  1  0  0  0  0
 10  4  1  0  0  0  0
 11  5  1  0  0  0  0
 12 13  2  0  0  0  0
 12 16  1  0  0  0  0
 13 14  1  0  0  0  0
 14 15  2  0  0  0  0
 14 18  1  0  0  0  0
 15 19  1  0  0  0  0
 16 15  1  0  0  0  0
 17 13  1  0  0  0  0
 19 22  1  0  0  0  0
 19 20  1  0  0  0  0
 19 21  1  0  0  0  0
M  END
>  <minimizedAffinity>
-5.04843712

$$$$

 OpenBabel03272508463D

 22 23  0  0  0  0  0  0  0  0999 V2000
   38.5280   22.6330   34.6320 C   0  0  0  0  0  0  0  0  0  0  0  0
   39.3880   22.9780   33.7920 O   0  0  0  0  0  0  0  0  0  0  0  0
   39.8150   22.7680   38.0250 C   0  0  0  0  0  0  0  0  0  0  0  0
   38.9150   23.5880   38.6940 C   0  0  0  0  0  0  0  0  0  0  0  0
   37.8390   24.1130   37.9770 C   0  0  0  0  0  0  0  0  0  0  0  0
   37.7510   23.7790   36.6630 N   0  0  0  0  0  0  0  0  0  0  0  0
   38.6340   22.9820   36.0360 C   0  0  0  0  0  0  0  0  0  0  0  0
   39.6730   22.4770   36.7350 N   0  0  0  0  0  0  0  0  0  0  0  0
   40.6700   22.3290   38.5260 H   0  0  0  0  0  0  0  0  0  0  0  0
   39.1280   23.7530   39.7300 H   0  0  0  0  0  0  0  0  0  0  0  0
   37.1600   24.7390   38.5010 H   0  0  0  0  0  0  0  0  0  0  0  0
   37.3720   21.8470   34.1650 C   0  0  0  0  0  0  0  0  0  0  0  0
   36.5440   21.1320   35.0180 C   0  0  0  0  0  0  0  0  0  0  0  0
   35.6250   20.5730   34.1280 C   0  0  0  0  0  0  0  0  0  0  0  0
   35.9280   20.9610   32.8270 C   0  0  0  0  0  0  0  0  0  0  0  0
   36.9840   21.7230   32.9070 O   0  0  0  0  0  0  0  0  0  0  0  0
   36.6430   21.0690   36.0740 H   0  0  0  0  0  0  0  0  0  0  0  0
   34.7990   19.9270   34.4480 H   0  0  0  0  0  0  0  0  0  0  0  0
   35.1310   20.5290   31.6480 C   0  0  0  0  0  0  0  0  0  0  0  0
   35.1030   21.5400   30.6970 F   0  0  0  0  0  0  0  0  0  0  0  0
   35.7390   19.4260   31.0480 F   0  0  0  0  0  0  0  0  0  0  0  0
   33.8190   20.2550   31.9710 F   0  0  0  0  0  0  0  0  0  0  0  0
  1  7  1  0  0  0  0
  2  1  2  0  0  0  0
  3  9  1  0  0  0  0
  3  4  1  0  0  0  0
  4 10  1  0  0  0  0
  5 11  1  0  0  0  0
  5  4  2  0  0  0  0
  6  5  1  0  0  0  0
  7  6  2  0  0  0  0
  7  8  1  0  0  0  0
  8  3  2  0  0  0  0
 12  1  1  0  0  0  0
 12 13  2  0  0  0  0
 13 17  1  0  0  0  0
 14 18  1  0  0  0  0
 14 13  1  0  0  0  0
 15 16  1  0  0  0  0
 15 14  2  0  0  0  0
 16 12  1  0  0  0  0
 19 22  1  0  0  0  0
 19 15  1  0  0  0  0
 20 19  1  0  0  0  0
 21 19  1  0  0  0  0
M  END
>  <minimizedAffinity>
-4.89524317

$$$$

 OpenBabel03272508463D

 22 23  0  0  0  0  0  0  0  0999 V2000
   37.7720   24.7940   33.6100 C   0  0  0  0  0  0  0  0  0  0  0  0
   37.8210   24.0050   32.6400 O   0  0  0  0  0  0  0  0  0  0  0  0
   36.0930   27.6730   32.1690 C   0  0  0  0  0  0  0  0  0  0  0  0
   36.0090   28.5750   33.2220 C   0  0  0  0  0  0  0  0  0  0  0  0
   36.5360   28.2000   34.4590 C   0  0  0  0  0  0  0  0  0  0  0  0
   37.0980   26.9660   34.5410 N   0  0  0  0  0  0  0  0  0  0  0  0
   37.1680   26.1090   33.5070 C   0  0  0  0  0  0  0  0  0  0  0  0
   36.6570   26.4770   32.3130 N   0  0  0  0  0  0  0  0  0  0  0  0
   35.7030   27.9060   31.1840 H   0  0  0  0  0  0  0  0  0  0  0  0
   35.5350   29.5070   32.9910 H   0  0  0  0  0  0  0  0  0  0  0  0
   36.4650   28.8990   35.2540 H   0  0  0  0  0  0  0  0  0  0  0  0
   38.3490   24.3580   34.8930 C   0  0  0  0  0  0  0  0  0  0  0  0
   39.6270   23.8310   35.0130 C   0  0  0  0  0  0  0  0  0  0  0  0
   39.7090   23.5780   36.3830 C   0  0  0  0  0  0  0  0  0  0  0  0
   38.5220   23.9500   37.0060 C   0  0  0  0  0  0  0  0  0  0  0  0
   37.7420   24.4100   36.0670 O   0  0  0  0  0  0  0  0  0  0  0  0
   40.3160   23.6840   34.2190 H   0  0  0  0  0  0  0  0  0  0  0  0
   40.5970   23.1480   36.8610 H   0  0  0  0  0  0  0  0  0  0  0  0
   38.2960   23.8050   38.4690 C   0  0  0  0  0  0  0  0  0  0  0  0
   37.8440   25.0040   39.0010 F   0  0  0  0  0  0  0  0  0  0  0  0
   37.2990   22.8580   38.7000 F   0  0  0  0  0  0  0  0  0  0  0  0
   39.4510   23.4830   39.1500 F   0  0  0  0  0  0  0  0  0  0  0  0
  1 12  1  0  0  0  0
  2  1  2  0  0  0  0
  3  8  2  0  0  0  0
  3  4  1  0  0  0  0
  4  5  2  0  0  0  0
  5  6  1  0  0  0  0
  5 11  1  0  0  0  0
  7  1  1  0  0  0  0
  7  6  2  0  0  0  0
  8  7  1  0  0  0  0
  9  3  1  0  0  0  0
 10  4  1  0  0  0  0
 12 13  2  0  0  0  0
 12 16  1  0  0  0  0
 13 14  1  0  0  0  0
 14 18  1  0  0  0  0
 14 15  2  0  0  0  0
 15 19  1  0  0  0  0
 16 15  1  0  0  0  0
 17 13  1  0  0  0  0
 19 21  1  0  0  0  0
 19 20  1  0  0  0  0
 19 22  1  0  0  0  0
M  END
>  <minimizedAffinity>
-4.88121939

$$$$

 OpenBabel03272508463D

 22 23  0  0  0  0  0  0  0  0999 V2000
   38.1790   24.2930   36.5500 C   0  0  0  0  0  0  0  0  0  0  0  0
   37.2020   23.8110   37.1660 O   0  0  0  0  0  0  0  0  0  0  0  0
   40.8970   22.0580   37.4460 C   0  0  0  0  0  0  0  0  0  0  0  0
   41.8820   22.3330   36.5060 C   0  0  0  0  0  0  0  0  0  0  0  0
   41.6210   23.3040   35.5380 C   0  0  0  0  0  0  0  0  0  0  0  0
   40.4090   23.9150   35.5880 N   0  0  0  0  0  0  0  0  0  0  0  0
   39.4690   23.6330   36.5080 C   0  0  0  0  0  0  0  0  0  0  0  0
   39.7280   22.6930   37.4430 N   0  0  0  0  0  0  0  0  0  0  0  0
   41.0400   21.3160   38.2230 H   0  0  0  0  0  0  0  0  0  0  0  0
   42.7830   21.7630   36.6050 H   0  0  0  0  0  0  0  0  0  0  0  0
   42.3830   23.5040   34.8260 H   0  0  0  0  0  0  0  0  0  0  0  0
   37.9960   25.5750   35.8480 C   0  0  0  0  0  0  0  0  0  0  0  0
   38.3920   26.7950   36.3770 C   0  0  0  0  0  0  0  0  0  0  0  0
   38.0180   27.6840   35.3670 C   0  0  0  0  0  0  0  0  0  0  0  0
   37.4340   26.9870   34.3140 C   0  0  0  0  0  0  0  0  0  0  0  0
   37.4470   25.7270   34.6540 O   0  0  0  0  0  0  0  0  0  0  0  0
   38.8570   26.9430   37.3200 H   0  0  0  0  0  0  0  0  0  0  0  0
   38.1770   28.7670   35.4330 H   0  0  0  0  0  0  0  0  0  0  0  0
   36.9290   27.6530   33.0840 C   0  0  0  0  0  0  0  0  0  0  0  0
   37.9920   28.0130   32.2680 F   0  0  0  0  0  0  0  0  0  0  0  0
   36.1430   26.7610   32.3550 F   0  0  0  0  0  0  0  0  0  0  0  0
   36.2340   28.8120   33.3600 F   0  0  0  0  0  0  0  0  0  0  0  0
  1  2  2  0  0  0  0
  3  9  1  0  0  0  0
  4 10  1  0  0  0  0
  4  3  2  0  0  0  0
  5  6  2  0  0  0  0
  5  4  1  0  0  0  0
  6  7  1  0  0  0  0
  7  1  1  0  0  0  0
  7  8  2  0  0  0  0
  8  3  1  0  0  0  0
 11  5  1  0  0  0  0
 12 13  2  0  0  0  0
 12  1  1  0  0  0  0
 13 17  1  0  0  0  0
 14 18  1  0  0  0  0
 14 13  1  0  0  0  0
 15 16  1  0  0  0  0
 15 14  2  0  0  0  0
 16 12  1  0  0  0  0
 19 22  1  0  0  0  0
 19 15  1  0  0  0  0
 20 19  1  0  0  0  0
 21 19  1  0  0  0  0
M  END
>  <minimizedAffinity>
-4.72217655

$$$$

 OpenBabel03272508463D

 22 23  0  0  0  0  0  0  0  0999 V2000
   38.2380   26.4520   35.2090 C   0  0  0  0  0  0  0  0  0  0  0  0
   38.5360   27.5700   35.6850 O   0  0  0  0  0  0  0  0  0  0  0  0
   40.1380   23.4650   36.0210 C   0  0  0  0  0  0  0  0  0  0  0  0
   39.3980   22.8600   37.0300 C   0  0  0  0  0  0  0  0  0  0  0  0
   38.2210   23.4800   37.4500 C   0  0  0  0  0  0  0  0  0  0  0  0
   37.8820   24.6420   36.8340 N   0  0  0  0  0  0  0  0  0  0  0  0
   38.6130   25.2100   35.8590 C   0  0  0  0  0  0  0  0  0  0  0  0
   39.7510   24.6060   35.4560 N   0  0  0  0  0  0  0  0  0  0  0  0
   41.0600   23.0330   35.6510 H   0  0  0  0  0  0  0  0  0  0  0  0
   39.8040   21.9460   37.4100 H   0  0  0  0  0  0  0  0  0  0  0  0
   37.6670   23.0070   38.2220 H   0  0  0  0  0  0  0  0  0  0  0  0
   37.4810   26.4110   33.9460 C   0  0  0  0  0  0  0  0  0  0  0  0
   37.0310   27.5480   33.2920 C   0  0  0  0  0  0  0  0  0  0  0  0
   36.3890   27.0060   32.1770 C   0  0  0  0  0  0  0  0  0  0  0  0
   36.4760   25.6170   32.2070 C   0  0  0  0  0  0  0  0  0  0  0  0
   37.1410   25.3150   33.2890 O   0  0  0  0  0  0  0  0  0  0  0  0
   37.1740   28.5490   33.6140 H   0  0  0  0  0  0  0  0  0  0  0  0
   35.8970   27.6190   31.4120 H   0  0  0  0  0  0  0  0  0  0  0  0
   35.8890   24.7470   31.1550 C   0  0  0  0  0  0  0  0  0  0  0  0
   35.1670   23.7150   31.7380 F   0  0  0  0  0  0  0  0  0  0  0  0
   34.9900   25.4840   30.3830 F   0  0  0  0  0  0  0  0  0  0  0  0
   36.8510   24.1560   30.3630 F   0  0  0  0  0  0  0  0  0  0  0  0
  1  2  2  0  0  0  0
  1  7  1  0  0  0  0
  3  4  1  0  0  0  0
  4 10  1  0  0  0  0
  4  5  2  0  0  0  0
  5 11  1  0  0  0  0
  6  5  1  0  0  0  0
  7  6  2  0  0  0  0
  8  7  1  0  0  0  0
  8  3  2  0  0  0  0
  9  3  1  0  0  0  0
 12  1  1  0  0  0  0
 13 17  1  0  0  0  0
 13 12  2  0  0  0  0
 14 15  2  0  0  0  0
 14 13  1  0  0  0  0
 15 16  1  0  0  0  0
 16 12  1  0  0  0  0
 18 14  1  0  0  0  0
 19 20  1  0  0  0  0
 19 15  1  0  0  0  0
 21 19  1  0  0  0  0
 22 19  1  0  0  0  0
M  END
>  <minimizedAffinity>
-4.71687794

$$$$

 OpenBabel03272508463D

 22 23  0  0  0  0  0  0  0  0999 V2000
   38.7430   23.9170   34.4280 C   0  0  0  0  0  0  0  0  0  0  0  0
   39.4950   24.7250   33.8380 O   0  0  0  0  0  0  0  0  0  0  0  0
   39.8280   22.8080   37.7110 C   0  0  0  0  0  0  0  0  0  0  0  0
   38.9000   23.3680   38.5790 C   0  0  0  0  0  0  0  0  0  0  0  0
   37.8740   24.1460   38.0390 C   0  0  0  0  0  0  0  0  0  0  0  0
   37.8600   24.2980   36.6890 N   0  0  0  0  0  0  0  0  0  0  0  0
   38.7700   23.7460   35.8680 C   0  0  0  0  0  0  0  0  0  0  0  0
   39.7600   22.9940   36.3950 N   0  0  0  0  0  0  0  0  0  0  0  0
   40.6470   22.1940   38.0680 H   0  0  0  0  0  0  0  0  0  0  0  0
   39.0520   23.1510   39.6160 H   0  0  0  0  0  0  0  0  0  0  0  0
   37.1720   24.5680   38.7140 H   0  0  0  0  0  0  0  0  0  0  0  0
   37.8040   23.1210   33.6190 C   0  0  0  0  0  0  0  0  0  0  0  0
   37.3920   23.4900   32.3470 C   0  0  0  0  0  0  0  0  0  0  0  0
   36.5300   22.4450   32.0070 C   0  0  0  0  0  0  0  0  0  0  0  0
   36.4640   21.5260   33.0490 C   0  0  0  0  0  0  0  0  0  0  0  0
   37.2460   21.9800   33.9900 O   0  0  0  0  0  0  0  0  0  0  0  0
   37.6940   24.3640   31.8240 H   0  0  0  0  0  0  0  0  0  0  0  0
   36.0020   22.3940   31.0470 H   0  0  0  0  0  0  0  0  0  0  0  0
   35.6290   20.2970   32.9910 C   0  0  0  0  0  0  0  0  0  0  0  0
   36.2900   19.3070   32.2780 F   0  0  0  0  0  0  0  0  0  0  0  0
   35.4290   19.8030   34.2810 F   0  0  0  0  0  0  0  0  0  0  0  0
   34.4260   20.5080   32.3510 F   0  0  0  0  0  0  0  0  0  0  0  0
  1  7  1  0  0  0  0
  2  1  2  0  0  0  0
  3  9  1  0  0  0  0
  3  4  1  0  0  0  0
  4 10  1  0  0  0  0
  5  4  2  0  0  0  0
  5 11  1  0  0  0  0
  6  5  1  0  0  0  0
  7  8  1  0  0  0  0
  7  6  2  0  0  0  0
  8  3  2  0  0  0  0
 12 16  1  0  0  0  0
 12  1  1  0  0  0  0
 13 12  2  0  0  0  0
 14 13  1  0  0  0  0
 14 15  2  0  0  0  0
 15 16  1  0  0  0  0
 17 13  1  0  0  0  0
 18 14  1  0  0  0  0
 19 15  1  0  0  0  0
 19 21  1  0  0  0  0
 20 19  1  0  0  0  0
 22 19  1  0  0  0  0
M  END
>  <minimizedAffinity>
-4.67796326

$$$$

 OpenBabel03272508463D

 22 23  0  0  0  0  0  0  0  0999 V2000
   38.9460   26.6940   34.1980 C   0  0  0  0  0  0  0  0  0  0  0  0
   40.0930   27.1890   34.2590 O   0  0  0  0  0  0  0  0  0  0  0  0
   35.9290   28.3700   33.0670 C   0  0  0  0  0  0  0  0  0  0  0  0
   35.9570   28.2160   31.6860 C   0  0  0  0  0  0  0  0  0  0  0  0
   37.0290   27.5250   31.1180 C   0  0  0  0  0  0  0  0  0  0  0  0
   37.9750   27.0490   31.9680 N   0  0  0  0  0  0  0  0  0  0  0  0
   37.9280   27.2090   33.3030 C   0  0  0  0  0  0  0  0  0  0  0  0
   36.8890   27.8780   33.8460 N   0  0  0  0  0  0  0  0  0  0  0  0
   35.1240   28.8950   33.5670 H   0  0  0  0  0  0  0  0  0  0  0  0
   35.1330   28.6520   31.1600 H   0  0  0  0  0  0  0  0  0  0  0  0
   37.0370   27.4160   30.0630 H   0  0  0  0  0  0  0  0  0  0  0  0
   38.6330   25.5500   35.0720 C   0  0  0  0  0  0  0  0  0  0  0  0
   38.3220   24.2870   34.5890 C   0  0  0  0  0  0  0  0  0  0  0  0
   38.1120   23.5700   35.7690 C   0  0  0  0  0  0  0  0  0  0  0  0
   38.2980   24.4010   36.8690 C   0  0  0  0  0  0  0  0  0  0  0  0
   38.6090   25.5760   36.3940 O   0  0  0  0  0  0  0  0  0  0  0  0
   38.2740   24.0060   33.5670 H   0  0  0  0  0  0  0  0  0  0  0  0
   37.8400   22.5080   35.7830 H   0  0  0  0  0  0  0  0  0  0  0  0
   38.1470   23.9320   38.2720 C   0  0  0  0  0  0  0  0  0  0  0  0
   39.3510   23.4210   38.7350 F   0  0  0  0  0  0  0  0  0  0  0  0
   37.8210   25.0090   39.0960 F   0  0  0  0  0  0  0  0  0  0  0  0
   37.2170   22.9200   38.3910 F   0  0  0  0  0  0  0  0  0  0  0  0
  1  2  2  0  0  0  0
  1 12  1  0  0  0  0
  3  9  1  0  0  0  0
  3  8  1  0  0  0  0
  4  3  2  0  0  0  0
  5  4  1  0  0  0  0
  5  6  2  0  0  0  0
  6  7  1  0  0  0  0
  7  8  2  0  0  0  0
  7  1  1  0  0  0  0
 10  4  1  0  0  0  0
 11  5  1  0  0  0  0
 12 16  1  0  0  0  0
 13 12  2  0  0  0  0
 13 14  1  0  0  0  0
 14 18  1  0  0  0  0
 14 15  2  0  0  0  0
 15 19  1  0  0  0  0
 16 15  1  0  0  0  0
 17 13  1  0  0  0  0
 19 22  1  0  0  0  0
 19 20  1  0  0  0  0
 19 21  1  0  0  0  0
M  END
>  <minimizedAffinity>
-4.64482117

$$$$

 OpenBabel03272508463D

 22 23  0  0  0  0  0  0  0  0999 V2000
   37.8230   23.6410   33.4550 C   0  0  0  0  0  0  0  0  0  0  0  0
   37.4880   22.6730   32.7370 O   0  0  0  0  0  0  0  0  0  0  0  0
   38.7420   27.1020   32.8500 C   0  0  0  0  0  0  0  0  0  0  0  0
   37.6560   27.6230   32.1590 C   0  0  0  0  0  0  0  0  0  0  0  0
   36.5780   26.7790   31.8870 C   0  0  0  0  0  0  0  0  0  0  0  0
   36.6730   25.4960   32.3250 N   0  0  0  0  0  0  0  0  0  0  0  0
   37.7350   25.0140   32.9940 C   0  0  0  0  0  0  0  0  0  0  0  0
   38.7750   25.8350   33.2530 N   0  0  0  0  0  0  0  0  0  0  0  0
   39.6090   27.7070   33.0920 H   0  0  0  0  0  0  0  0  0  0  0  0
   37.7380   28.6540   31.8850 H   0  0  0  0  0  0  0  0  0  0  0  0
   35.7550   27.1900   31.3580 H   0  0  0  0  0  0  0  0  0  0  0  0
   38.3210   23.3630   34.8140 C   0  0  0  0  0  0  0  0  0  0  0  0
   39.4120   22.5460   35.0710 C   0  0  0  0  0  0  0  0  0  0  0  0
   39.4880   22.5950   36.4650 C   0  0  0  0  0  0  0  0  0  0  0  0
   38.4760   23.4080   36.9670 C   0  0  0  0  0  0  0  0  0  0  0  0
   37.8070   23.8420   35.9340 O   0  0  0  0  0  0  0  0  0  0  0  0
   39.9970   22.0410   34.3430 H   0  0  0  0  0  0  0  0  0  0  0  0
   40.2480   22.0550   37.0420 H   0  0  0  0  0  0  0  0  0  0  0  0
   38.2910   23.6630   38.4200 C   0  0  0  0  0  0  0  0  0  0  0  0
   39.4770   23.4280   39.1000 F   0  0  0  0  0  0  0  0  0  0  0  0
   37.9660   25.0050   38.6240 F   0  0  0  0  0  0  0  0  0  0  0  0
   37.3420   22.8360   38.9820 F   0  0  0  0  0  0  0  0  0  0  0  0
  1 12  1  0  0  0  0
  2  1  2  0  0  0  0
  3  9  1  0  0  0  0
  3  8  1  0  0  0  0
  4  3  2  0  0  0  0
  5  4  1  0  0  0  0
  5  6  2  0  0  0  0
  6  7  1  0  0  0  0
  7  8  2  0  0  0  0
  7  1  1  0  0  0  0
 10  4  1  0  0  0  0
 11  5  1  0  0  0  0
 12 13  2  0  0  0  0
 12 16  1  0  0  0  0
 13 14  1  0  0  0  0
 14 15  2  0  0  0  0
 14 18  1  0  0  0  0
 15 19  1  0  0  0  0
 16 15  1  0  0  0  0
 17 13  1  0  0  0  0
 19 21  1  0  0  0  0
 19 22  1  0  0  0  0
 19 20  1  0  0  0  0
M  END
>  <minimizedAffinity>
-4.6348815

$$$$
