
 OpenBabel03272510333D

 23 24  0  0  0  0  0  0  0  0999 V2000
   35.9690   30.3330   48.6970 C   0  0  0  0  0  0  0  0  0  0  0  0
   35.0580   30.2810   47.6560 C   0  0  0  0  0  0  0  0  0  0  0  0
   33.9890   29.4070   47.6860 C   0  0  0  0  0  0  0  0  0  0  0  0
   33.8580   28.5810   48.7950 C   0  0  0  0  0  0  0  0  0  0  0  0
   34.7540   28.6190   49.8410 C   0  0  0  0  0  0  0  0  0  0  0  0
   35.8300   29.5110   49.7930 C   0  0  0  0  0  0  0  0  0  0  0  0
   35.1680   30.9280   46.7940 H   0  0  0  0  0  0  0  0  0  0  0  0
   33.2630   29.3330   46.9050 H   0  0  0  0  0  0  0  0  0  0  0  0
   33.0440   27.8730   48.8830 H   0  0  0  0  0  0  0  0  0  0  0  0
   34.6240   27.9640   50.6890 H   0  0  0  0  0  0  0  0  0  0  0  0
   38.0080   33.2830   49.2880 C   0  0  0  0  0  0  0  0  0  0  0  0
   39.0760   33.1680   48.3990 C   0  0  0  0  0  0  0  0  0  0  0  0
   39.0830   32.0310   47.5740 C   0  0  0  0  0  0  0  0  0  0  0  0
   38.0760   31.1260   47.6820 N   0  0  0  0  0  0  0  0  0  0  0  0
   37.0560   31.2820   48.5660 C   0  0  0  0  0  0  0  0  0  0  0  0
   37.0470   32.3660   49.3530 N   0  0  0  0  0  0  0  0  0  0  0  0
   37.9540   34.1470   49.9510 H   0  0  0  0  0  0  0  0  0  0  0  0
   39.8590   33.9050   48.3370 H   0  0  0  0  0  0  0  0  0  0  0  0
   39.8900   31.8790   46.8540 H   0  0  0  0  0  0  0  0  0  0  0  0
   36.7740   29.5390   50.9210 C   0  0  0  0  0  0  0  0  0  0  0  0
   37.9610   28.9190   50.6250 F   0  0  0  0  0  0  0  0  0  0  0  0
   36.9070   30.8370   51.3630 F   0  0  0  0  0  0  0  0  0  0  0  0
   36.2590   28.8150   52.0110 F   0  0  0  0  0  0  0  0  0  0  0  0
  1  6  1  0  0  0  0
  2  3  1  0  0  0  0
  2  1  2  0  0  0  0
  3  4  2  0  0  0  0
  4  9  1  0  0  0  0
  4  5  1  0  0  0  0
  5 10  1  0  0  0  0
  6  5  2  0  0  0  0
  6 20  1  0  0  0  0
  7  2  1  0  0  0  0
  8  3  1  0  0  0  0
 11 16  1  0  0  0  0
 11 17  1  0  0  0  0
 12 11  2  0  0  0  0
 13 14  2  0  0  0  0
 13 12  1  0  0  0  0
 14 15  1  0  0  0  0
 15  1  1  0  0  0  0
 15 16  2  0  0  0  0
 18 12  1  0  0  0  0
 19 13  1  0  0  0  0
 20 22  1  0  0  0  0
 20 23  1  0  0  0  0
 21 20  1  0  0  0  0
M  END
>  <minimizedAffinity>
-5.78982687

>  <minimizedRMSD>
0.377518177

$$$$
