
 OpenBabel03272502343D

 31 32  0  0  1  0  0  0  0  0999 V2000
   37.7210   30.5760   48.8200 C   0  0  2  0  0  0  0  0  0  0  0  0
   38.2640   29.6060   48.7750 H   0  0  0  0  0  0  0  0  0  0  0  0
   38.4870   31.7050   48.2640 C   0  0  0  0  0  0  0  0  0  0  0  0
   38.6320   32.7840   49.1780 C   0  0  0  0  0  0  0  0  0  0  0  0
   39.3070   33.9440   48.8830 C   0  0  0  0  0  0  0  0  0  0  0  0
   39.9060   34.1260   47.6240 C   0  0  0  0  0  0  0  0  0  0  0  0
   39.7170   33.0260   46.7950 C   0  0  0  0  0  0  0  0  0  0  0  0
   39.0640   31.8840   47.0560 N   0  0  0  0  0  0  0  0  0  0  0  0
   38.2630   32.8850   50.2080 H   0  0  0  0  0  0  0  0  0  0  0  0
   39.4530   34.7980   49.5300 H   0  0  0  0  0  0  0  0  0  0  0  0
   40.4570   34.9410   47.2290 H   0  0  0  0  0  0  0  0  0  0  0  0
   40.1240   33.0160   45.7810 H   0  0  0  0  0  0  0  0  0  0  0  0
   35.5900   29.5380   48.4740 C   0  0  0  0  0  0  0  0  0  0  0  0
   36.4410   30.4160   48.0490 C   0  0  0  0  0  0  0  0  0  0  0  0
   32.8340   29.8070   45.9810 C   0  0  0  0  0  0  0  0  0  0  0  0
   34.0320   29.9810   46.6540 C   0  0  0  0  0  0  0  0  0  0  0  0
   34.3290   29.3120   47.8130 C   0  0  0  0  0  0  0  0  0  0  0  0
   33.3900   28.4610   48.2830 N   0  0  0  0  0  0  0  0  0  0  0  0
   32.2280   28.2800   47.6450 C   0  0  0  0  0  0  0  0  0  0  0  0
   31.9430   28.9400   46.5070 N   0  0  0  0  0  0  0  0  0  0  0  0
   32.5620   30.3110   45.0710 H   0  0  0  0  0  0  0  0  0  0  0  0
   34.6620   30.6840   46.1530 H   0  0  0  0  0  0  0  0  0  0  0  0
   31.2710   27.3180   48.2550 C   0  0  0  0  0  0  0  0  0  0  0  0
   30.0680   27.3530   47.5650 F   0  0  0  0  0  0  0  0  0  0  0  0
   30.9990   27.8330   49.5290 F   0  0  0  0  0  0  0  0  0  0  0  0
   31.7730   26.0350   48.3280 F   0  0  0  0  0  0  0  0  0  0  0  0
   37.2690   31.0630   50.5190 S   0  0  0  0  0  0  0  0  0  0  0  0
   37.1350   29.6380   51.5820 C   0  0  0  0  0  0  0  0  0  0  0  0
   37.7910   29.7950   52.7930 F   0  0  0  0  0  0  0  0  0  0  0  0
   35.8180   29.2540   51.7570 F   0  0  0  0  0  0  0  0  0  0  0  0
   37.7530   28.5730   50.8920 F   0  0  0  0  0  0  0  0  0  0  0  0
  1  2  1  6  0  0  0
  1 27  1  0  0  0  0
  3  1  1  0  0  0  0
  3  4  1  0  0  0  0
  4  9  1  0  0  0  0
  5  4  2  0  0  0  0
  5 10  1  0  0  0  0
  6  5  1  0  0  0  0
  7  8  1  0  0  0  0
  7  6  2  0  0  0  0
  8  3  2  0  0  0  0
 11  6  1  0  0  0  0
 12  7  1  0  0  0  0
 14 13  2  0  0  0  0
 14  1  1  0  0  0  0
 15 20  2  0  0  0  0
 15 16  1  0  0  0  0
 16 17  2  0  0  0  0
 17 18  1  0  0  0  0
 17 13  1  0  0  0  0
 19 23  1  0  0  0  0
 19 18  2  0  0  0  0
 20 19  1  0  0  0  0
 21 15  1  0  0  0  0
 22 16  1  0  0  0  0
 23 26  1  0  0  0  0
 23 25  1  0  0  0  0
 24 23  1  0  0  0  0
 27 28  1  0  0  0  0
 28 30  1  0  0  0  0
 28 29  1  0  0  0  0
 31 28  1  0  0  0  0
M  END
>  <minimizedAffinity>
-6.29914045

>  <minimizedRMSD>
1.14899302

$$$$
