
 OpenBabel03272507013D

 41 43  0  0  1  0  0  0  0  0999 V2000
   35.2260   30.2650   49.6420 C   0  0  2  0  0  0  0  0  0  0  0  0
   36.2300   30.9810   48.8070 C   0  0  0  0  0  0  0  0  0  0  0  0
   37.6140   30.3850   48.9090 C   0  0  2  0  0  0  0  0  0  0  0  0
   38.0610   30.4430   50.3390 C   0  0  0  0  0  0  0  0  0  0  0  0
   37.1210   29.6880   51.2160 C   0  0  0  0  0  0  0  0  0  0  0  0
   35.8370   29.2790   50.5960 C   0  0  0  0  0  0  0  0  0  0  0  0
   34.6010   30.9460   50.2940 H   0  0  0  0  0  0  0  0  0  0  0  0
   36.2850   32.0290   49.2500 H   0  0  0  0  0  0  0  0  0  0  0  0
   36.0510   31.0720   47.7400 H   0  0  0  0  0  0  0  0  0  0  0  0
   37.5670   29.3410   48.5900 H   0  0  0  0  0  0  0  0  0  0  0  0
   37.9060   31.4750   50.6980 H   0  0  0  0  0  0  0  0  0  0  0  0
   39.0900   30.0760   50.4900 H   0  0  0  0  0  0  0  0  0  0  0  0
   36.8800   30.1630   52.1890 H   0  0  0  0  0  0  0  0  0  0  0  0
   37.6240   28.7220   51.5250 H   0  0  0  0  0  0  0  0  0  0  0  0
   35.9750   28.3210   50.0200 H   0  0  0  0  0  0  0  0  0  0  0  0
   35.0980   29.0390   51.3840 H   0  0  0  0  0  0  0  0  0  0  0  0
   38.5490   31.0990   48.1130 N   0  0  1  0  0  0  0  0  0  0  0  0
   38.5730   30.5300   46.7570 C   0  0  0  0  0  0  0  0  0  0  0  0
   39.6900   31.3440   46.1310 C   0  0  0  0  0  0  0  0  0  0  0  0
   39.4030   32.6900   46.7150 C   0  0  0  0  0  0  0  0  0  0  0  0
   38.5420   32.4450   47.9890 C   0  0  2  0  0  0  0  0  0  0  0  0
   37.6260   30.7120   46.2270 H   0  0  0  0  0  0  0  0  0  0  0  0
   38.8890   29.4910   46.8450 H   0  0  0  0  0  0  0  0  0  0  0  0
   40.6740   30.9290   46.3110 H   0  0  0  0  0  0  0  0  0  0  0  0
   39.4220   31.3990   45.0420 H   0  0  0  0  0  0  0  0  0  0  0  0
   40.3840   33.1300   46.9650 H   0  0  0  0  0  0  0  0  0  0  0  0
   38.9140   33.3810   46.0330 H   0  0  0  0  0  0  0  0  0  0  0  0
   37.5090   32.8130   47.6460 H   0  0  0  0  0  0  0  0  0  0  0  0
   39.0350   33.4830   48.9060 C   0  0  0  0  0  0  0  0  0  0  0  0
   39.7940   34.4930   48.3450 F   0  0  0  0  0  0  0  0  0  0  0  0
   37.8840   34.3160   49.2560 F   0  0  0  0  0  0  0  0  0  0  0  0
   39.3580   33.1330   50.1860 F   0  0  0  0  0  0  0  0  0  0  0  0
   34.2400   29.5180   48.8250 C   0  0  0  0  0  0  0  0  0  0  0  0
   34.0970   29.9760   47.5130 C   0  0  0  0  0  0  0  0  0  0  0  0
   33.1830   29.2890   46.6950 C   0  0  0  0  0  0  0  0  0  0  0  0
   32.4860   28.2190   47.2170 N   0  0  0  0  0  0  0  0  0  0  0  0
   32.6650   27.8160   48.5030 C   0  0  0  0  0  0  0  0  0  0  0  0
   33.5250   28.4630   49.2700 N   0  0  0  0  0  0  0  0  0  0  0  0
   34.4740   30.7450   46.8710 H   0  0  0  0  0  0  0  0  0  0  0  0
   32.8890   29.4260   45.6820 H   0  0  0  0  0  0  0  0  0  0  0  0
   32.1270   26.9860   48.9170 H   0  0  0  0  0  0  0  0  0  0  0  0
  1  7  1  1  0  0  0
  1  6  1  0  0  0  0
  2  3  1  0  0  0  0
  2  8  1  0  0  0  0
  2  1  1  0  0  0  0
  3 10  1  6  0  0  0
  3  4  1  0  0  0  0
  4 12  1  0  0  0  0
  4 11  1  0  0  0  0
  4  5  1  0  0  0  0
  5 14  1  0  0  0  0
  5 13  1  0  0  0  0
  6  5  1  0  0  0  0
  6 16  1  0  0  0  0
  9  2  1  0  0  0  0
 15  6  1  0  0  0  0
 17 18  1  6  0  0  0
 17  3  1  0  0  0  0
 18 23  1  0  0  0  0
 19 24  1  0  0  0  0
 19 20  1  0  0  0  0
 19 18  1  0  0  0  0
 20 26  1  0  0  0  0
 20 21  1  0  0  0  0
 21 28  1  6  0  0  0
 21 17  1  0  0  0  0
 21 29  1  0  0  0  0
 22 18  1  0  0  0  0
 25 19  1  0  0  0  0
 27 20  1  0  0  0  0
 29 31  1  0  0  0  0
 29 32  1  0  0  0  0
 30 29  1  0  0  0  0
 33 38  1  0  0  0  0
 33  1  1  0  0  0  0
 34 33  2  0  0  0  0
 35 36  2  0  0  0  0
 35 34  1  0  0  0  0
 36 37  1  0  0  0  0
 37 41  1  0  0  0  0
 37 38  2  0  0  0  0
 39 34  1  0  0  0  0
 40 35  1  0  0  0  0
M  END
>  <minimizedAffinity>
-7.16402054

>  <minimizedRMSD>
0.294395238

$$$$
