
     RDKit          3D

 38 40  0  0  0  0  0  0  0  0999 V2000
   37.3368   30.1799   51.5070 C   0  0  0  0  0  0  0  0  0  0  0  0
   38.0658   30.8605   50.5105 C   0  0  0  0  0  0  0  0  0  0  0  0
   37.7122   30.6551   49.1960 C   0  0  0  0  0  0  0  0  0  0  0  0
   36.6661   29.7932   48.9698 N   0  0  0  0  0  0  0  0  0  0  0  0
   35.9947   29.1634   49.9301 C   0  0  0  0  0  0  0  0  0  0  0  0
   36.3314   29.3567   51.2152 N   0  0  0  0  0  0  0  0  0  0  0  0
   38.9531   33.2623   49.0075 F   0  0  0  0  0  0  0  0  0  0  0  0
   38.9209   32.4736   47.9403 C   0  0  0  0  0  0  0  0  0  0  0  0
   38.3372   31.2591   48.0468 C   0  0  0  0  0  0  0  0  0  0  0  0
   38.3657   30.5218   46.8569 C   0  0  0  0  0  0  0  0  0  0  0  0
   38.9316   30.9967   45.7092 C   0  0  0  0  0  0  0  0  0  0  0  0
   39.5096   32.2309   45.6509 C   0  0  0  0  0  0  0  0  0  0  0  0
   39.4977   32.9731   46.7936 C   0  0  0  0  0  0  0  0  0  0  0  0
   34.9994   28.3622   49.4436 O   0  0  0  0  0  0  0  0  0  0  0  0
   34.4466   28.6538   48.1693 C   0  0  0  0  0  0  0  0  0  0  0  0
   33.5586   27.5289   47.7123 C   0  0  0  0  0  0  0  0  0  0  0  0
   32.1281   27.8993   47.6999 C   0  0  0  0  0  0  0  0  0  0  0  0
   31.3498   27.5192   48.7933 C   0  0  0  0  0  0  0  0  0  0  0  0
   30.0173   27.8160   48.8730 C   0  0  0  0  0  0  0  0  0  0  0  0
   29.4387   28.4854   47.8853 N   0  0  0  0  0  0  0  0  0  0  0  0
   30.2002   28.8594   46.8114 C   0  0  0  0  0  0  0  0  0  0  0  0
   31.5267   28.5835   46.6951 N   0  0  0  0  0  0  0  0  0  0  0  0
   37.6391   30.3625   52.5299 H   0  0  0  0  0  0  0  0  0  0  0  0
   38.8670   31.5187   50.7103 H   0  0  0  0  0  0  0  0  0  0  0  0
   37.9170   29.5197   46.8367 H   0  0  0  0  0  0  0  0  0  0  0  0
   38.9124   30.3549   44.8179 H   0  0  0  0  0  0  0  0  0  0  0  0
   39.9461   32.5665   44.7199 H   0  0  0  0  0  0  0  0  0  0  0  0
   39.9528   33.9601   46.7702 H   0  0  0  0  0  0  0  0  0  0  0  0
   35.2348   28.9039   47.4259 H   0  0  0  0  0  0  0  0  0  0  0  0
   33.8030   29.5542   48.2740 H   0  0  0  0  0  0  0  0  0  0  0  0
   33.8913   27.2485   46.6919 H   0  0  0  0  0  0  0  0  0  0  0  0
   33.6912   26.6120   48.3292 H   0  0  0  0  0  0  0  0  0  0  0  0
   31.8187   26.9685   49.6093 H   0  0  0  0  0  0  0  0  0  0  0  0
   29.4417   27.5070   49.7345 H   0  0  0  0  0  0  0  0  0  0  0  0
   29.6416   29.6171   45.6471 C   0  0  0  0  0  0  0  0  0  0  0  0
   28.2445   29.6075   45.7417 F   0  0  0  0  0  0  0  0  0  0  0  0
   30.0352   29.0961   44.4441 F   0  0  0  0  0  0  0  0  0  0  0  0
   29.9988   30.9472   45.7118 F   0  0  0  0  0  0  0  0  0  0  0  0
  2  1  2  0
  3  2  1  0
  4  3  2  0
  4  5  1  0
  5  6  2  0
  6  1  1  0
  8  9  2  0
  8  7  1  0
  9  3  1  0
 10  9  1  0
 11 10  2  0
 12 11  1  0
 12 13  2  0
 13  8  1  0
 14  5  1  0
 15 14  1  0
 16 15  1  0
 17 16  1  0
 17 18  2  0
 18 19  1  0
 20 19  2  0
 21 20  1  0
 22 21  2  0
 22 17  1  0
  1 23  1  0
  2 24  1  0
 10 25  1  0
 11 26  1  0
 12 27  1  0
 13 28  1  0
 15 29  1  0
 15 30  1  0
 16 31  1  0
 16 32  1  0
 18 33  1  0
 19 34  1  0
 35 36  1  0
 35 37  1  0
 35 38  1  0
 21 35  1  0
M  ISO  8  23  14  24  14  25  14  26  14  27  14  28  14  29   8  30   8
M  ISO  4  31   8  32   8  33  14  34  14
M  END
>  <DihAtoms>  (1) 
19,20,34,35

>  <DihDeg>  (1) 
33.197916106930016

$$$$
