REMARK  Name = 
REMARK  2 active torsions:
REMARK  status: ('A' for Active; 'I' for Inactive)
REMARK    1  A    between atoms: C_5  and  C_9
REMARK    2  A    between atoms: C_11  and  C_20
REMARK                            x       y       z     vdW  Elec       q    Type
REMARK                         _______ _______ _______ _____ _____    ______ ____
ROOT
ATOM      1 BR   UNL     1      37.274  29.348  51.050  0.00  0.00    +0.000 Br
ATOM      2  C   UNL     1      35.954  29.309  49.664  0.00  0.00    +0.000 A 
ATOM      3  C   UNL     1      36.002  30.216  48.629  0.00  0.00    +0.000 A 
ATOM      4  C   UNL     1      35.015  30.139  47.653  0.00  0.00    +0.000 A 
ATOM      5  C   UNL     1      34.004  29.189  47.696  0.00  0.00    +0.000 A 
ATOM      6  C   UNL     1      33.993  28.305  48.743  0.00  0.00    +0.000 A 
ATOM      7  C   UNL     1      34.970  28.373  49.721  0.00  0.00    +0.000 A 
ATOM      8  H   UNL     1      35.039  30.846  46.832  0.00  0.00    +0.000 HD
ATOM      9  H   UNL     1      33.198  27.582  48.748  0.00  0.00    +0.000 HD
ATOM     10  H   UNL     1      34.883  27.635  50.510  0.00  0.00    +0.000 HD
ENDROOT
BRANCH   3  15
ATOM     11  C   UNL     1      37.971  33.173  49.421  0.00  0.00    +0.000 A 
ATOM     12  C   UNL     1      39.013  33.159  48.458  0.00  0.00    +0.000 A 
ATOM     13  C   UNL     1      39.023  32.118  47.536  0.00  0.00    +0.000 A 
ATOM     14  N   UNL     1      38.039  31.172  47.606  0.00  0.00    +0.000 NA
ATOM     15  C   UNL     1      37.053  31.227  48.555  0.00  0.00    +0.000 A 
ATOM     16  N   UNL     1      37.027  32.224  49.452  0.00  0.00    +0.000 NA
ATOM     17  H   UNL     1      37.899  33.953  50.170  0.00  0.00    +0.000 HD
ATOM     18  H   UNL     1      39.742  33.932  48.469  0.00  0.00    +0.000 HD
ATOM     19  H   UNL     1      39.795  32.061  46.781  0.00  0.00    +0.000 HD
ENDBRANCH   3  15
BRANCH   5  20
ATOM     20  C   UNL     1      32.997  29.195  46.599  0.00  0.00    +0.000 C 
ATOM     21  F   UNL     1      32.572  30.497  46.424  0.00  0.00    +0.000 F 
ATOM     22  F   UNL     1      33.545  28.651  45.452  0.00  0.00    +0.000 F 
ATOM     23  F   UNL     1      31.903  28.404  46.903  0.00  0.00    +0.000 F 
ENDBRANCH   5  20
TORSDOF 2
