
 OpenBabel03272509503D

 28 29  0  0  0  0  0  0  0  0999 V2000
   33.7000   28.5820   48.6830 C   0  0  0  0  0  0  0  0  0  0  0  0
   33.0560   29.4390   49.0340 H   0  0  0  0  0  0  0  0  0  0  0  0
   34.2660   28.9520   47.8220 H   0  0  0  0  0  0  0  0  0  0  0  0
   32.7720   27.4400   48.3730 C   0  0  0  0  0  0  0  0  0  0  0  0
   32.9120   26.6360   49.1420 H   0  0  0  0  0  0  0  0  0  0  0  0
   33.0820   26.9460   47.4090 H   0  0  0  0  0  0  0  0  0  0  0  0
   31.3480   27.8490   48.3670 C   0  0  0  0  0  0  0  0  0  0  0  0
   30.6540   27.7350   49.5490 C   0  0  0  0  0  0  0  0  0  0  0  0
   29.3330   28.0810   49.6720 C   0  0  0  0  0  0  0  0  0  0  0  0
   28.6780   28.5510   48.6030 N   0  0  0  0  0  0  0  0  0  0  0  0
   29.3590   28.6630   47.4430 C   0  0  0  0  0  0  0  0  0  0  0  0
   30.6560   28.3280   47.3090 N   0  0  0  0  0  0  0  0  0  0  0  0
   31.1330   27.3580   50.4580 H   0  0  0  0  0  0  0  0  0  0  0  0
   28.7690   27.9930   50.6140 H   0  0  0  0  0  0  0  0  0  0  0  0
   28.8670   29.0370   46.5590 H   0  0  0  0  0  0  0  0  0  0  0  0
   34.5300   28.2460   49.7820 O   0  0  0  0  0  0  0  0  0  0  0  0
   37.1610   30.1390   51.3960 C   0  0  0  0  0  0  0  0  0  0  0  0
   37.7060   30.8080   50.2920 C   0  0  0  0  0  0  0  0  0  0  0  0
   37.1230   30.5590   49.0500 C   0  0  0  0  0  0  0  0  0  0  0  0
   36.0720   29.6910   48.9910 N   0  0  0  0  0  0  0  0  0  0  0  0
   35.5840   29.0730   50.0720 C   0  0  0  0  0  0  0  0  0  0  0  0
   36.1360   29.3040   51.2740 N   0  0  0  0  0  0  0  0  0  0  0  0
   37.6370   30.3540   52.3470 H   0  0  0  0  0  0  0  0  0  0  0  0
   38.5400   31.4920   50.3710 H   0  0  0  0  0  0  0  0  0  0  0  0
   37.6350   31.2290   47.8030 C   0  0  0  0  0  0  0  0  0  0  0  0
   36.6000   31.1060   46.8670 F   0  0  0  0  0  0  0  0  0  0  0  0
   37.9100   32.5670   48.0640 F   0  0  0  0  0  0  0  0  0  0  0  0
   38.7660   30.5740   47.4150 F   0  0  0  0  0  0  0  0  0  0  0  0
  1  2  1  0  0  0  0
  1 16  1  0  0  0  0
  3  1  1  0  0  0  0
  4  1  1  0  0  0  0
  4  5  1  0  0  0  0
  6  4  1  0  0  0  0
  7  4  1  0  0  0  0
  7  8  1  0  0  0  0
  8  9  2  0  0  0  0
  8 13  1  0  0  0  0
  9 14  1  0  0  0  0
 10  9  1  0  0  0  0
 11 10  2  0  0  0  0
 12 11  1  0  0  0  0
 12  7  2  0  0  0  0
 15 11  1  0  0  0  0
 16 21  1  0  0  0  0
 17 23  1  0  0  0  0
 18 24  1  0  0  0  0
 18 17  2  0  0  0  0
 19 18  1  0  0  0  0
 20 19  2  0  0  0  0
 20 21  1  0  0  0  0
 21 22  2  0  0  0  0
 22 17  1  0  0  0  0
 25 27  1  0  0  0  0
 25 19  1  0  0  0  0
 26 25  1  0  0  0  0
 28 25  1  0  0  0  0
M  END
>  <minimizedAffinity>
-5.1822114

>  <minimizedRMSD>
0.413909554

$$$$
