
 OpenBabel03262520163D

 13 13  0  0  0  0  0  0  0  0999 V2000
   36.6560   29.4940   51.4410 C   0  0  0  0  0  0  0  0  0  0  0  0
   37.4510   30.5690   50.9640 C   0  0  0  0  0  0  0  0  0  0  0  0
   36.9410   31.3320   49.9010 C   0  0  0  0  0  0  0  0  0  0  0  0
   35.7230   30.9920   49.3990 N   0  0  0  0  0  0  0  0  0  0  0  0
   34.9950   29.9650   49.8750 C   0  0  0  0  0  0  0  0  0  0  0  0
   35.4680   29.2270   50.8910 N   0  0  0  0  0  0  0  0  0  0  0  0
   37.0070   28.8700   52.2670 H   0  0  0  0  0  0  0  0  0  0  0  0
   38.3910   30.7590   51.4210 H   0  0  0  0  0  0  0  0  0  0  0  0
   34.0420   29.8290   49.3590 H   0  0  0  0  0  0  0  0  0  0  0  0
   37.7490   32.4650   49.3770 C   0  0  0  0  0  0  0  0  0  0  0  0
   38.9870   32.3360   49.9470 F   0  0  0  0  0  0  0  0  0  0  0  0
   37.8880   32.4320   48.0080 F   0  0  0  0  0  0  0  0  0  0  0  0
   37.2170   33.6950   49.7550 F   0  0  0  0  0  0  0  0  0  0  0  0
  1  7  1  0  0  0  0
  2  8  1  0  0  0  0
  2  1  1  0  0  0  0
  3  2  2  0  0  0  0
  4  5  2  0  0  0  0
  4  3  1  0  0  0  0
  5  6  1  0  0  0  0
  6  1  2  0  0  0  0
  9  5  1  0  0  0  0
 10 13  1  0  0  0  0
 10  3  1  0  0  0  0
 10 11  1  0  0  0  0
 12 10  1  0  0  0  0
M  END
>  <minimizedAffinity>
-4.21658564

>  <minimizedRMSD>
1.8854115

$$$$
