
 OpenBabel03272504363D

 25 26  0  0  0  0  0  0  0  0999 V2000
   38.7580   30.9750   49.8150 Cl  0  0  0  0  0  0  0  0  0  0  0  0
   37.3450   30.4960   48.8990 C   0  0  0  0  0  0  0  0  0  0  0  0
   37.2900   30.7710   47.5490 C   0  0  0  0  0  0  0  0  0  0  0  0
   36.1930   30.3990   46.8350 C   0  0  0  0  0  0  0  0  0  0  0  0
   35.1510   29.7550   47.4740 C   0  0  0  0  0  0  0  0  0  0  0  0
   35.2250   29.4910   48.8150 C   0  0  0  0  0  0  0  0  0  0  0  0
   36.3350   29.8570   49.5780 C   0  0  0  0  0  0  0  0  0  0  0  0
   36.1090   30.5960   45.7690 H   0  0  0  0  0  0  0  0  0  0  0  0
   34.2470   29.4340   46.9530 H   0  0  0  0  0  0  0  0  0  0  0  0
   34.4150   28.9840   49.3390 H   0  0  0  0  0  0  0  0  0  0  0  0
   39.7750   33.2860   46.4970 C   0  0  0  0  0  0  0  0  0  0  0  0
   40.5210   32.5500   45.5410 C   0  0  0  0  0  0  0  0  0  0  0  0
   40.1420   31.2370   45.3020 C   0  0  0  0  0  0  0  0  0  0  0  0
   39.0890   30.7210   45.9840 N   0  0  0  0  0  0  0  0  0  0  0  0
   38.3960   31.4510   46.8920 C   0  0  0  0  0  0  0  0  0  0  0  0
   38.7500   32.7020   47.1260 N   0  0  0  0  0  0  0  0  0  0  0  0
   40.0500   34.3160   46.7030 H   0  0  0  0  0  0  0  0  0  0  0  0
   41.3480   32.9910   45.0210 H   0  0  0  0  0  0  0  0  0  0  0  0
   40.9040   30.5200   44.3390 N   0  0  0  0  0  0  0  0  0  0  0  0
   41.5650   29.9060   44.8820 H   0  0  0  0  0  0  0  0  0  0  0  0
   40.8850   30.5330   43.3080 H   0  0  0  0  0  0  0  0  0  0  0  0
   36.4580   29.5910   51.0390 C   0  0  0  0  0  0  0  0  0  0  0  0
   35.2780   29.1440   51.5540 F   0  0  0  0  0  0  0  0  0  0  0  0
   36.8740   30.7820   51.6380 F   0  0  0  0  0  0  0  0  0  0  0  0
   37.4730   28.6800   51.3160 F   0  0  0  0  0  0  0  0  0  0  0  0
  2  7  1  0  0  0  0
  2  1  1  0  0  0  0
  3  2  2  0  0  0  0
  4  5  2  0  0  0  0
  4  3  1  0  0  0  0
  5  6  1  0  0  0  0
  6 10  1  0  0  0  0
  6  7  2  0  0  0  0
  7 22  1  0  0  0  0
  8  4  1  0  0  0  0
  9  5  1  0  0  0  0
 11 17  1  0  0  0  0
 11 16  1  0  0  0  0
 12 11  2  0  0  0  0
 13 12  1  0  0  0  0
 13 14  2  0  0  0  0
 14 15  1  0  0  0  0
 15 16  2  0  0  0  0
 15  3  1  0  0  0  0
 18 12  1  0  0  0  0
 19 20  1  0  0  0  0
 19 13  1  0  0  0  0
 21 19  1  0  0  0  0
 22 25  1  0  0  0  0
 22 23  1  0  0  0  0
 22 24  1  0  0  0  0
M  END
>  <minimizedAffinity>
-6.53808022

>  <minimizedRMSD>
2.67379022

$$$$
