
 OpenBabel03272510083D

 39 42  0  0  0  0  0  0  0  0999 V2000
   36.0000   28.7910   49.0410 C   0  0  0  0  0  0  0  0  0  0  0  0
   35.9280   30.2140   48.7460 C   0  0  0  0  0  0  0  0  0  0  0  0
   34.6600   30.7810   48.4620 C   0  0  0  0  0  0  0  0  0  0  0  0
   33.5900   29.9700   48.4570 N   0  0  0  0  0  0  0  0  0  0  0  0
   33.6860   28.6520   48.7210 C   0  0  0  0  0  0  0  0  0  0  0  0
   34.8700   28.0690   49.0140 N   0  0  0  0  0  0  0  0  0  0  0  0
   32.4920   27.8430   48.6250 N   0  0  0  0  0  0  0  0  0  0  0  0
   31.3300   28.0530   49.4250 C   0  0  0  0  0  0  0  0  0  0  0  0
   30.2740   27.1880   48.8000 C   0  0  0  0  0  0  0  0  0  0  0  0
   30.8490   26.6710   47.4920 C   0  0  0  0  0  0  0  0  0  0  0  0
   32.3030   26.7110   47.6990 C   0  0  0  0  0  0  0  0  0  0  0  0
   36.9910   28.4300   49.2640 H   0  0  0  0  0  0  0  0  0  0  0  0
   34.5390   31.8120   48.2570 H   0  0  0  0  0  0  0  0  0  0  0  0
   31.0290   29.1380   49.4350 H   0  0  0  0  0  0  0  0  0  0  0  0
   31.5110   27.7300   50.4530 H   0  0  0  0  0  0  0  0  0  0  0  0
   30.0180   26.3220   49.4400 H   0  0  0  0  0  0  0  0  0  0  0  0
   29.3310   27.7500   48.5890 H   0  0  0  0  0  0  0  0  0  0  0  0
   30.4750   25.6530   47.2620 H   0  0  0  0  0  0  0  0  0  0  0  0
   30.5450   27.3170   46.6510 H   0  0  0  0  0  0  0  0  0  0  0  0
   32.8150   26.9590   46.7540 H   0  0  0  0  0  0  0  0  0  0  0  0
   32.7650   25.7830   48.1070 H   0  0  0  0  0  0  0  0  0  0  0  0
   37.0050   31.1210   48.7200 C   0  0  0  0  0  0  0  0  0  0  0  0
   37.4000   31.5370   49.9320 N   0  0  0  0  0  0  0  0  0  0  0  0
   38.3880   32.4430   50.0360 C   0  0  0  0  0  0  0  0  0  0  0  0
   39.0390   32.9860   48.9700 N   0  0  0  0  0  0  0  0  0  0  0  0
   38.6560   32.5740   47.7410 C   0  0  0  0  0  0  0  0  0  0  0  0
   39.2700   33.0260   46.5940 C   0  0  0  0  0  0  0  0  0  0  0  0
   38.8990   32.5710   45.3600 C   0  0  0  0  0  0  0  0  0  0  0  0
   37.8870   31.6470   45.3140 C   0  0  0  0  0  0  0  0  0  0  0  0
   37.2360   31.1630   46.4160 C   0  0  0  0  0  0  0  0  0  0  0  0
   37.6420   31.6440   47.6260 C   0  0  0  0  0  0  0  0  0  0  0  0
   38.7650   32.8340   50.9750 H   0  0  0  0  0  0  0  0  0  0  0  0
   40.0480   33.7540   46.7740 H   0  0  0  0  0  0  0  0  0  0  0  0
   39.4350   32.9820   44.5380 H   0  0  0  0  0  0  0  0  0  0  0  0
   37.7120   31.3890   44.2520 H   0  0  0  0  0  0  0  0  0  0  0  0
   36.2180   30.2100   46.0500 C   0  0  0  0  0  0  0  0  0  0  0  0
   35.0860   29.9820   46.6690 F   0  0  0  0  0  0  0  0  0  0  0  0
   36.4450   29.6070   44.7910 F   0  0  0  0  0  0  0  0  0  0  0  0
   36.5960   28.9170   46.5900 F   0  0  0  0  0  0  0  0  0  0  0  0
  1 12  1  0  0  0  0
  2  1  2  0  0  0  0
  3  2  1  0  0  0  0
  4  3  2  0  0  0  0
  4  5  1  0  0  0  0
  5  6  2  0  0  0  0
  6  1  1  0  0  0  0
  7  5  1  0  0  0  0
  7  8  1  0  0  0  0
  8 14  1  0  0  0  0
  8 15  1  0  0  0  0
  9  8  1  0  0  0  0
  9 16  1  0  0  0  0
 10 11  1  0  0  0  0
 10  9  1  0  0  0  0
 11 21  1  0  0  0  0
 11  7  1  0  0  0  0
 13  3  1  0  0  0  0
 17  9  1  0  0  0  0
 18 10  1  0  0  0  0
 19 10  1  0  0  0  0
 20 11  1  0  0  0  0
 22  2  1  0  0  0  0
 22 23  1  0  0  0  0
 23 24  2  0  0  0  0
 24 32  1  0  0  0  0
 25 24  1  0  0  0  0
 26 25  2  0  0  0  0
 27 33  1  0  0  0  0
 27 26  1  0  0  0  0
 28 27  2  0  0  0  0
 29 28  1  0  0  0  0
 29 30  2  0  0  0  0
 30 31  1  0  0  0  0
 31 26  1  0  0  0  0
 31 22  2  0  0  0  0
 34 28  1  0  0  0  0
 35 29  1  0  0  0  0
 36 30  1  0  0  0  0
 36 39  1  0  0  0  0
 36 37  1  0  0  0  0
 38 36  1  0  0  0  0
M  END
>  <minimizedAffinity>
-4.13701057

>  <minimizedRMSD>
0.986082792

$$$$
