
 OpenBabel03272510183D

 23 24  0  0  0  0  0  0  0  0999 V2000
   40.6370   21.6220   33.2990 Br  0  0  0  0  0  0  0  0  0  0  0  0
   39.9140   22.2630   34.9520 C   0  0  0  0  0  0  0  0  0  0  0  0
   38.6040   22.6790   35.0260 C   0  0  0  0  0  0  0  0  0  0  0  0
   38.1370   23.1360   36.2530 C   0  0  0  0  0  0  0  0  0  0  0  0
   38.9430   23.1810   37.3820 C   0  0  0  0  0  0  0  0  0  0  0  0
   40.2410   22.7570   37.2650 C   0  0  0  0  0  0  0  0  0  0  0  0
   40.7170   22.3020   36.0480 C   0  0  0  0  0  0  0  0  0  0  0  0
   37.1080   23.4670   36.3270 H   0  0  0  0  0  0  0  0  0  0  0  0
   40.8400   22.8040   38.1560 H   0  0  0  0  0  0  0  0  0  0  0  0
   41.7540   21.9870   36.0480 H   0  0  0  0  0  0  0  0  0  0  0  0
   36.1730   21.4680   32.6030 C   0  0  0  0  0  0  0  0  0  0  0  0
   36.0650   22.5280   31.6660 C   0  0  0  0  0  0  0  0  0  0  0  0
   36.8430   23.6610   31.8830 C   0  0  0  0  0  0  0  0  0  0  0  0
   37.6600   23.6930   32.9780 N   0  0  0  0  0  0  0  0  0  0  0  0
   37.7300   22.6440   33.8560 C   0  0  0  0  0  0  0  0  0  0  0  0
   36.9880   21.5440   33.6620 N   0  0  0  0  0  0  0  0  0  0  0  0
   35.5980   20.5550   32.4970 H   0  0  0  0  0  0  0  0  0  0  0  0
   35.4060   22.4270   30.8390 H   0  0  0  0  0  0  0  0  0  0  0  0
   36.7980   24.4970   31.1990 H   0  0  0  0  0  0  0  0  0  0  0  0
   38.3420   23.6880   38.6460 C   0  0  0  0  0  0  0  0  0  0  0  0
   37.3380   22.8150   39.0150 F   0  0  0  0  0  0  0  0  0  0  0  0
   39.3210   23.8190   39.6140 F   0  0  0  0  0  0  0  0  0  0  0  0
   37.8010   24.9510   38.4860 F   0  0  0  0  0  0  0  0  0  0  0  0
  1  2  1  0  0  0  0
  2  3  2  0  0  0  0
  2  7  1  0  0  0  0
  3  4  1  0  0  0  0
  4  8  1  0  0  0  0
  4  5  2  0  0  0  0
  5 20  1  0  0  0  0
  6  5  1  0  0  0  0
  6  9  1  0  0  0  0
  7  6  2  0  0  0  0
 10  7  1  0  0  0  0
 11 16  1  0  0  0  0
 12 13  1  0  0  0  0
 12 11  2  0  0  0  0
 13 14  2  0  0  0  0
 14 15  1  0  0  0  0
 15  3  1  0  0  0  0
 16 15  2  0  0  0  0
 17 11  1  0  0  0  0
 18 12  1  0  0  0  0
 19 13  1  0  0  0  0
 20 21  1  0  0  0  0
 20 22  1  0  0  0  0
 23 20  1  0  0  0  0
M  END
>  <minimizedAffinity>
-5.02945757

$$$$

 OpenBabel03272510183D

 23 24  0  0  0  0  0  0  0  0999 V2000
   38.1170   24.9720   32.3470 Br  0  0  0  0  0  0  0  0  0  0  0  0
   38.1440   24.6180   34.2280 C   0  0  0  0  0  0  0  0  0  0  0  0
   38.1450   23.3220   34.6940 C   0  0  0  0  0  0  0  0  0  0  0  0
   38.1630   23.1280   36.0710 C   0  0  0  0  0  0  0  0  0  0  0  0
   38.1810   24.1870   36.9670 C   0  0  0  0  0  0  0  0  0  0  0  0
   38.1790   25.4610   36.4620 C   0  0  0  0  0  0  0  0  0  0  0  0
   38.1600   25.6660   35.0930 C   0  0  0  0  0  0  0  0  0  0  0  0
   38.1640   22.1140   36.4530 H   0  0  0  0  0  0  0  0  0  0  0  0
   38.1930   26.2590   37.1810 H   0  0  0  0  0  0  0  0  0  0  0  0
   38.1610   26.7050   34.7840 H   0  0  0  0  0  0  0  0  0  0  0  0
   36.8740   20.6200   32.6120 C   0  0  0  0  0  0  0  0  0  0  0  0
   38.0410   20.0430   32.0500 C   0  0  0  0  0  0  0  0  0  0  0  0
   39.2670   20.5990   32.4000 C   0  0  0  0  0  0  0  0  0  0  0  0
   39.2820   21.6620   33.2590 N   0  0  0  0  0  0  0  0  0  0  0  0
   38.1280   22.1860   33.7770 C   0  0  0  0  0  0  0  0  0  0  0  0
   36.9370   21.6630   33.4500 N   0  0  0  0  0  0  0  0  0  0  0  0
   35.8850   20.2400   32.3850 H   0  0  0  0  0  0  0  0  0  0  0  0
   37.9460   19.2160   31.3890 H   0  0  0  0  0  0  0  0  0  0  0  0
   40.1870   20.1960   31.9990 H   0  0  0  0  0  0  0  0  0  0  0  0
   38.1990   23.8680   38.4210 C   0  0  0  0  0  0  0  0  0  0  0  0
   37.9250   25.0310   39.1120 F   0  0  0  0  0  0  0  0  0  0  0  0
   37.2960   22.8560   38.6930 F   0  0  0  0  0  0  0  0  0  0  0  0
   39.4330   23.3870   38.8250 F   0  0  0  0  0  0  0  0  0  0  0  0
  1  2  1  0  0  0  0
  2  3  2  0  0  0  0
  2  7  1  0  0  0  0
  3  4  1  0  0  0  0
  4  8  1  0  0  0  0
  4  5  2  0  0  0  0
  5 20  1  0  0  0  0
  6  5  1  0  0  0  0
  6  9  1  0  0  0  0
  7  6  2  0  0  0  0
 10  7  1  0  0  0  0
 11 16  1  0  0  0  0
 12 13  1  0  0  0  0
 12 11  2  0  0  0  0
 13 14  2  0  0  0  0
 14 15  1  0  0  0  0
 15  3  1  0  0  0  0
 16 15  2  0  0  0  0
 17 11  1  0  0  0  0
 18 12  1  0  0  0  0
 19 13  1  0  0  0  0
 20 22  1  0  0  0  0
 20 23  1  0  0  0  0
 20 21  1  0  0  0  0
M  END
>  <minimizedAffinity>
-4.97656488

$$$$

 OpenBabel03272510183D

 23 24  0  0  0  0  0  0  0  0999 V2000
   39.0510   25.0770   33.7420 Br  0  0  0  0  0  0  0  0  0  0  0  0
   37.9430   23.5510   33.4170 C   0  0  0  0  0  0  0  0  0  0  0  0
   37.7380   22.6140   34.4050 C   0  0  0  0  0  0  0  0  0  0  0  0
   36.9240   21.5270   34.1090 C   0  0  0  0  0  0  0  0  0  0  0  0
   36.3260   21.3660   32.8670 C   0  0  0  0  0  0  0  0  0  0  0  0
   36.5560   22.3210   31.9110 C   0  0  0  0  0  0  0  0  0  0  0  0
   37.3650   23.4070   32.1950 C   0  0  0  0  0  0  0  0  0  0  0  0
   36.7530   20.7810   34.8770 H   0  0  0  0  0  0  0  0  0  0  0  0
   36.0800   22.1680   30.9600 H   0  0  0  0  0  0  0  0  0  0  0  0
   37.4910   24.1120   31.3800 H   0  0  0  0  0  0  0  0  0  0  0  0
   38.1620   23.5100   37.9070 C   0  0  0  0  0  0  0  0  0  0  0  0
   39.4650   23.0460   38.2240 C   0  0  0  0  0  0  0  0  0  0  0  0
   40.1900   22.4240   37.2140 C   0  0  0  0  0  0  0  0  0  0  0  0
   39.6140   22.2920   35.9810 N   0  0  0  0  0  0  0  0  0  0  0  0
   38.3520   22.7550   35.7220 C   0  0  0  0  0  0  0  0  0  0  0  0
   37.6380   23.3590   36.6850 N   0  0  0  0  0  0  0  0  0  0  0  0
   37.5400   24.0050   38.6440 H   0  0  0  0  0  0  0  0  0  0  0  0
   39.8430   23.1870   39.2080 H   0  0  0  0  0  0  0  0  0  0  0  0
   41.1880   22.0520   37.4030 H   0  0  0  0  0  0  0  0  0  0  0  0
   35.4730   20.1630   32.6560 C   0  0  0  0  0  0  0  0  0  0  0  0
   35.4320   19.4630   33.8440 F   0  0  0  0  0  0  0  0  0  0  0  0
   34.2200   20.5460   32.2150 F   0  0  0  0  0  0  0  0  0  0  0  0
   35.9840   19.3400   31.6680 F   0  0  0  0  0  0  0  0  0  0  0  0
  2  1  1  0  0  0  0
  2  3  1  0  0  0  0
  3 15  1  0  0  0  0
  4  3  2  0  0  0  0
  4  8  1  0  0  0  0
  5  4  1  0  0  0  0
  6  7  1  0  0  0  0
  6  5  2  0  0  0  0
  7  2  2  0  0  0  0
  9  6  1  0  0  0  0
 10  7  1  0  0  0  0
 11 12  1  0  0  0  0
 11 17  1  0  0  0  0
 12 18  1  0  0  0  0
 13 19  1  0  0  0  0
 13 12  2  0  0  0  0
 14 13  1  0  0  0  0
 15 14  2  0  0  0  0
 15 16  1  0  0  0  0
 16 11  2  0  0  0  0
 20  5  1  0  0  0  0
 20 21  1  0  0  0  0
 22 20  1  0  0  0  0
 23 20  1  0  0  0  0
M  END
>  <minimizedAffinity>
-4.86260509

$$$$

 OpenBabel03272510183D

 23 24  0  0  0  0  0  0  0  0999 V2000
   38.4980   27.2440   35.9010 Br  0  0  0  0  0  0  0  0  0  0  0  0
   37.8430   26.2570   34.3970 C   0  0  0  0  0  0  0  0  0  0  0  0
   38.0250   24.8940   34.3240 C   0  0  0  0  0  0  0  0  0  0  0  0
   37.5280   24.2320   33.2070 C   0  0  0  0  0  0  0  0  0  0  0  0
   36.8660   24.8990   32.1860 C   0  0  0  0  0  0  0  0  0  0  0  0
   36.7060   26.2550   32.2970 C   0  0  0  0  0  0  0  0  0  0  0  0
   37.1980   26.9240   33.4040 C   0  0  0  0  0  0  0  0  0  0  0  0
   37.6630   23.1590   33.1350 H   0  0  0  0  0  0  0  0  0  0  0  0
   36.1900   26.7420   31.4900 H   0  0  0  0  0  0  0  0  0  0  0  0
   37.0250   27.9940   33.4090 H   0  0  0  0  0  0  0  0  0  0  0  0
   38.6020   23.1440   37.4630 C   0  0  0  0  0  0  0  0  0  0  0  0
   39.9740   22.7850   37.4080 C   0  0  0  0  0  0  0  0  0  0  0  0
   40.6910   23.1560   36.2760 C   0  0  0  0  0  0  0  0  0  0  0  0
   40.0430   23.8390   35.2860 N   0  0  0  0  0  0  0  0  0  0  0  0
   38.7160   24.1640   35.3830 C   0  0  0  0  0  0  0  0  0  0  0  0
   38.0090   23.8150   36.4680 N   0  0  0  0  0  0  0  0  0  0  0  0
   37.9810   22.8890   38.3140 H   0  0  0  0  0  0  0  0  0  0  0  0
   40.4060   22.2530   38.2210 H   0  0  0  0  0  0  0  0  0  0  0  0
   41.7400   22.9070   36.1850 H   0  0  0  0  0  0  0  0  0  0  0  0
   36.3740   24.0930   31.0340 C   0  0  0  0  0  0  0  0  0  0  0  0
   35.2420   24.7100   30.5410 F   0  0  0  0  0  0  0  0  0  0  0  0
   37.3730   23.9660   30.0860 F   0  0  0  0  0  0  0  0  0  0  0  0
   36.0510   22.8010   31.4130 F   0  0  0  0  0  0  0  0  0  0  0  0
  2  1  1  0  0  0  0
  3  2  1  0  0  0  0
  3 15  1  0  0  0  0
  4  3  2  0  0  0  0
  5  6  2  0  0  0  0
  5  4  1  0  0  0  0
  6  7  1  0  0  0  0
  7 10  1  0  0  0  0
  7  2  2  0  0  0  0
  8  4  1  0  0  0  0
  9  6  1  0  0  0  0
 11 17  1  0  0  0  0
 12 11  1  0  0  0  0
 12 18  1  0  0  0  0
 13 12  2  0  0  0  0
 14 15  2  0  0  0  0
 14 13  1  0  0  0  0
 15 16  1  0  0  0  0
 16 11  2  0  0  0  0
 19 13  1  0  0  0  0
 20 23  1  0  0  0  0
 20  5  1  0  0  0  0
 21 20  1  0  0  0  0
 22 20  1  0  0  0  0
M  END
>  <minimizedAffinity>
-4.81882429

$$$$

 OpenBabel03272510183D

 23 24  0  0  0  0  0  0  0  0999 V2000
   38.4930   27.1600   35.9380 Br  0  0  0  0  0  0  0  0  0  0  0  0
   37.8890   26.1340   34.4400 C   0  0  0  0  0  0  0  0  0  0  0  0
   38.1140   24.7760   34.3880 C   0  0  0  0  0  0  0  0  0  0  0  0
   37.6520   24.0840   33.2730 C   0  0  0  0  0  0  0  0  0  0  0  0
   36.9840   24.7170   32.2340 C   0  0  0  0  0  0  0  0  0  0  0  0
   36.7800   26.0690   32.3260 C   0  0  0  0  0  0  0  0  0  0  0  0
   37.2360   26.7680   33.4300 C   0  0  0  0  0  0  0  0  0  0  0  0
   37.8220   23.0160   33.2180 H   0  0  0  0  0  0  0  0  0  0  0  0
   36.2600   26.5290   31.5060 H   0  0  0  0  0  0  0  0  0  0  0  0
   37.0310   27.8320   33.4170 H   0  0  0  0  0  0  0  0  0  0  0  0
   40.7920   23.1580   36.2470 C   0  0  0  0  0  0  0  0  0  0  0  0
   40.1780   22.7730   37.4670 C   0  0  0  0  0  0  0  0  0  0  0  0
   38.8320   23.0790   37.6340 C   0  0  0  0  0  0  0  0  0  0  0  0
   38.1780   23.7290   36.6260 N   0  0  0  0  0  0  0  0  0  0  0  0
   38.8130   24.0820   35.4650 C   0  0  0  0  0  0  0  0  0  0  0  0
   40.1110   23.7940   35.2850 N   0  0  0  0  0  0  0  0  0  0  0  0
   41.8370   22.9530   36.0460 H   0  0  0  0  0  0  0  0  0  0  0  0
   40.7560   22.2700   38.2030 H   0  0  0  0  0  0  0  0  0  0  0  0
   38.3170   22.8070   38.5450 H   0  0  0  0  0  0  0  0  0  0  0  0
   36.5320   23.8810   31.0870 C   0  0  0  0  0  0  0  0  0  0  0  0
   35.3000   24.3530   30.6820 F   0  0  0  0  0  0  0  0  0  0  0  0
   37.4770   23.9140   30.0790 F   0  0  0  0  0  0  0  0  0  0  0  0
   36.4070   22.5490   31.4410 F   0  0  0  0  0  0  0  0  0  0  0  0
  2  1  1  0  0  0  0
  3  2  1  0  0  0  0
  3 15  1  0  0  0  0
  4  3  2  0  0  0  0
  5  6  2  0  0  0  0
  5  4  1  0  0  0  0
  6  7  1  0  0  0  0
  7  2  2  0  0  0  0
  8  4  1  0  0  0  0
  9  6  1  0  0  0  0
 10  7  1  0  0  0  0
 11 12  1  0  0  0  0
 12 13  2  0  0  0  0
 12 18  1  0  0  0  0
 13 19  1  0  0  0  0
 14 13  1  0  0  0  0
 15 14  2  0  0  0  0
 16 15  1  0  0  0  0
 16 11  2  0  0  0  0
 17 11  1  0  0  0  0
 20 23  1  0  0  0  0
 20  5  1  0  0  0  0
 21 20  1  0  0  0  0
 22 20  1  0  0  0  0
M  END
>  <minimizedAffinity>
-4.80886364

$$$$

 OpenBabel03272510183D

 23 24  0  0  0  0  0  0  0  0999 V2000
   38.0980   25.0200   32.9170 Br  0  0  0  0  0  0  0  0  0  0  0  0
   37.1820   23.3550   32.6870 C   0  0  0  0  0  0  0  0  0  0  0  0
   37.3790   22.3220   33.5760 C   0  0  0  0  0  0  0  0  0  0  0  0
   36.6870   21.1370   33.3550 C   0  0  0  0  0  0  0  0  0  0  0  0
   35.8200   20.9740   32.2840 C   0  0  0  0  0  0  0  0  0  0  0  0
   35.6520   22.0270   31.4230 C   0  0  0  0  0  0  0  0  0  0  0  0
   36.3370   23.2110   31.6320 C   0  0  0  0  0  0  0  0  0  0  0  0
   36.8310   20.3140   34.0460 H   0  0  0  0  0  0  0  0  0  0  0  0
   34.9750   21.8700   30.6040 H   0  0  0  0  0  0  0  0  0  0  0  0
   36.1430   23.9890   30.9030 H   0  0  0  0  0  0  0  0  0  0  0  0
   40.4370   22.2480   35.5480 C   0  0  0  0  0  0  0  0  0  0  0  0
   40.0310   22.7090   36.8270 C   0  0  0  0  0  0  0  0  0  0  0  0
   38.6920   23.0430   36.9960 C   0  0  0  0  0  0  0  0  0  0  0  0
   37.8450   22.9110   35.9310 N   0  0  0  0  0  0  0  0  0  0  0  0
   38.2840   22.4620   34.7130 C   0  0  0  0  0  0  0  0  0  0  0  0
   39.5720   22.1350   34.5330 N   0  0  0  0  0  0  0  0  0  0  0  0
   41.4640   21.9690   35.3440 H   0  0  0  0  0  0  0  0  0  0  0  0
   40.7500   22.7830   37.6060 H   0  0  0  0  0  0  0  0  0  0  0  0
   38.3310   23.3990   37.9510 H   0  0  0  0  0  0  0  0  0  0  0  0
   35.1290   19.6620   32.1410 C   0  0  0  0  0  0  0  0  0  0  0  0
   33.7900   19.9130   31.9180 F   0  0  0  0  0  0  0  0  0  0  0  0
   35.7140   18.9290   31.1250 F   0  0  0  0  0  0  0  0  0  0  0  0
   35.2560   18.8890   33.2820 F   0  0  0  0  0  0  0  0  0  0  0  0
  2  1  1  0  0  0  0
  2  3  1  0  0  0  0
  3 15  1  0  0  0  0
  4  3  2  0  0  0  0
  4  8  1  0  0  0  0
  5  4  1  0  0  0  0
  6  7  1  0  0  0  0
  6  5  2  0  0  0  0
  7  2  2  0  0  0  0
  9  6  1  0  0  0  0
 10  7  1  0  0  0  0
 11 12  1  0  0  0  0
 12 13  2  0  0  0  0
 12 18  1  0  0  0  0
 13 19  1  0  0  0  0
 14 13  1  0  0  0  0
 15 14  2  0  0  0  0
 16 15  1  0  0  0  0
 16 11  2  0  0  0  0
 17 11  1  0  0  0  0
 20  5  1  0  0  0  0
 20 23  1  0  0  0  0
 21 20  1  0  0  0  0
 22 20  1  0  0  0  0
M  END
>  <minimizedAffinity>
-4.79925871

$$$$

 OpenBabel03272510183D

 23 24  0  0  0  0  0  0  0  0999 V2000
   40.1990   23.0400   32.6860 Br  0  0  0  0  0  0  0  0  0  0  0  0
   39.6080   23.2980   34.4880 C   0  0  0  0  0  0  0  0  0  0  0  0
   38.7670   24.3410   34.8040 C   0  0  0  0  0  0  0  0  0  0  0  0
   38.3730   24.4770   36.1310 C   0  0  0  0  0  0  0  0  0  0  0  0
   38.7980   23.6050   37.1230 C   0  0  0  0  0  0  0  0  0  0  0  0
   39.6350   22.5800   36.7660 C   0  0  0  0  0  0  0  0  0  0  0  0
   40.0340   22.4350   35.4480 C   0  0  0  0  0  0  0  0  0  0  0  0
   37.7110   25.2940   36.3950 H   0  0  0  0  0  0  0  0  0  0  0  0
   39.9460   21.9210   37.5560 H   0  0  0  0  0  0  0  0  0  0  0  0
   40.6950   21.5970   35.2580 H   0  0  0  0  0  0  0  0  0  0  0  0
   38.6470   27.2580   32.6320 C   0  0  0  0  0  0  0  0  0  0  0  0
   37.4660   27.0690   31.8680 C   0  0  0  0  0  0  0  0  0  0  0  0
   36.7160   25.9250   32.1170 C   0  0  0  0  0  0  0  0  0  0  0  0
   37.1520   25.0510   33.0720 N   0  0  0  0  0  0  0  0  0  0  0  0
   38.3010   25.2750   33.7840 C   0  0  0  0  0  0  0  0  0  0  0  0
   39.0370   26.3740   33.5580 N   0  0  0  0  0  0  0  0  0  0  0  0
   39.2810   28.1270   32.4930 H   0  0  0  0  0  0  0  0  0  0  0  0
   37.1930   27.7960   31.1430 H   0  0  0  0  0  0  0  0  0  0  0  0
   35.8070   25.7340   31.5630 H   0  0  0  0  0  0  0  0  0  0  0  0
   38.3160   23.8420   38.5110 C   0  0  0  0  0  0  0  0  0  0  0  0
   37.8540   25.1410   38.5800 F   0  0  0  0  0  0  0  0  0  0  0  0
   37.3490   22.9100   38.8410 F   0  0  0  0  0  0  0  0  0  0  0  0
   39.3280   23.6770   39.4410 F   0  0  0  0  0  0  0  0  0  0  0  0
  1  2  1  0  0  0  0
  2  3  2  0  0  0  0
  2  7  1  0  0  0  0
  3  4  1  0  0  0  0
  4  8  1  0  0  0  0
  4  5  2  0  0  0  0
  5 20  1  0  0  0  0
  6  5  1  0  0  0  0
  6  9  1  0  0  0  0
  7  6  2  0  0  0  0
 10  7  1  0  0  0  0
 11 16  1  0  0  0  0
 12 13  1  0  0  0  0
 12 11  2  0  0  0  0
 13 14  2  0  0  0  0
 14 15  1  0  0  0  0
 15  3  1  0  0  0  0
 16 15  2  0  0  0  0
 17 11  1  0  0  0  0
 18 12  1  0  0  0  0
 19 13  1  0  0  0  0
 20 21  1  0  0  0  0
 20 22  1  0  0  0  0
 20 23  1  0  0  0  0
M  END
>  <minimizedAffinity>
-4.77698898

$$$$

 OpenBabel03272510183D

 23 24  0  0  0  0  0  0  0  0999 V2000
   40.3320   25.0430   32.1520 Br  0  0  0  0  0  0  0  0  0  0  0  0
   39.6900   24.6490   33.9130 C   0  0  0  0  0  0  0  0  0  0  0  0
   38.4390   25.0670   34.3090 C   0  0  0  0  0  0  0  0  0  0  0  0
   38.0300   24.7530   35.5990 C   0  0  0  0  0  0  0  0  0  0  0  0
   38.8340   24.0420   36.4790 C   0  0  0  0  0  0  0  0  0  0  0  0
   40.0720   23.6450   36.0450 C   0  0  0  0  0  0  0  0  0  0  0  0
   40.4910   23.9540   34.7630 C   0  0  0  0  0  0  0  0  0  0  0  0
   37.0480   25.0750   35.9260 H   0  0  0  0  0  0  0  0  0  0  0  0
   40.6710   23.0980   36.7490 H   0  0  0  0  0  0  0  0  0  0  0  0
   41.4830   23.6000   34.5050 H   0  0  0  0  0  0  0  0  0  0  0  0
   36.0360   25.7660   31.6660 C   0  0  0  0  0  0  0  0  0  0  0  0
   35.9110   27.1800   31.6820 C   0  0  0  0  0  0  0  0  0  0  0  0
   36.6680   27.8820   32.6140 C   0  0  0  0  0  0  0  0  0  0  0  0
   37.4820   27.1810   33.4580 N   0  0  0  0  0  0  0  0  0  0  0  0
   37.5690   25.8150   33.4060 C   0  0  0  0  0  0  0  0  0  0  0  0
   36.8470   25.1210   32.5140 N   0  0  0  0  0  0  0  0  0  0  0  0
   35.4780   25.1540   30.9680 H   0  0  0  0  0  0  0  0  0  0  0  0
   35.2560   27.6520   30.9920 H   0  0  0  0  0  0  0  0  0  0  0  0
   36.6100   28.9610   32.6670 H   0  0  0  0  0  0  0  0  0  0  0  0
   38.2970   23.7600   37.8390 C   0  0  0  0  0  0  0  0  0  0  0  0
   37.1680   22.9800   37.6920 F   0  0  0  0  0  0  0  0  0  0  0  0
   39.2700   23.1550   38.6140 F   0  0  0  0  0  0  0  0  0  0  0  0
   37.9550   24.9220   38.5070 F   0  0  0  0  0  0  0  0  0  0  0  0
  1  2  1  0  0  0  0
  2  3  2  0  0  0  0
  2  7  1  0  0  0  0
  3  4  1  0  0  0  0
  4  8  1  0  0  0  0
  4  5  2  0  0  0  0
  5 20  1  0  0  0  0
  6  5  1  0  0  0  0
  6  9  1  0  0  0  0
  7  6  2  0  0  0  0
 10  7  1  0  0  0  0
 11 12  2  0  0  0  0
 11 16  1  0  0  0  0
 12 13  1  0  0  0  0
 13 19  1  0  0  0  0
 13 14  2  0  0  0  0
 15 14  1  0  0  0  0
 15  3  1  0  0  0  0
 16 15  2  0  0  0  0
 17 11  1  0  0  0  0
 18 12  1  0  0  0  0
 20 23  1  0  0  0  0
 20 22  1  0  0  0  0
 21 20  1  0  0  0  0
M  END
>  <minimizedAffinity>
-4.7038002

$$$$

 OpenBabel03272510183D

 23 24  0  0  0  0  0  0  0  0999 V2000
   39.0320   23.7330   29.8490 Br  0  0  0  0  0  0  0  0  0  0  0  0
   37.8080   22.4990   30.6510 C   0  0  0  0  0  0  0  0  0  0  0  0
   36.8090   22.9500   31.4840 C   0  0  0  0  0  0  0  0  0  0  0  0
   35.9510   22.0050   32.0380 C   0  0  0  0  0  0  0  0  0  0  0  0
   36.0770   20.6480   31.7760 C   0  0  0  0  0  0  0  0  0  0  0  0
   37.0850   20.2420   30.9410 C   0  0  0  0  0  0  0  0  0  0  0  0
   37.9450   21.1730   30.3850 C   0  0  0  0  0  0  0  0  0  0  0  0
   35.1600   22.3440   32.6960 H   0  0  0  0  0  0  0  0  0  0  0  0
   37.1550   19.1860   30.7580 H   0  0  0  0  0  0  0  0  0  0  0  0
   38.7110   20.7620   29.7380 H   0  0  0  0  0  0  0  0  0  0  0  0
   37.1750   26.1620   33.1560 C   0  0  0  0  0  0  0  0  0  0  0  0
   36.3840   27.0460   32.3770 C   0  0  0  0  0  0  0  0  0  0  0  0
   35.7260   26.5160   31.2720 C   0  0  0  0  0  0  0  0  0  0  0  0
   35.8750   25.1860   30.9970 N   0  0  0  0  0  0  0  0  0  0  0  0
   36.6500   24.3710   31.7790 C   0  0  0  0  0  0  0  0  0  0  0  0
   37.2920   24.8640   32.8490 N   0  0  0  0  0  0  0  0  0  0  0  0
   37.7150   26.5030   34.0310 H   0  0  0  0  0  0  0  0  0  0  0  0
   36.3190   28.0690   32.6570 H   0  0  0  0  0  0  0  0  0  0  0  0
   35.1110   27.1470   30.6460 H   0  0  0  0  0  0  0  0  0  0  0  0
   35.1050   19.7230   32.4220 C   0  0  0  0  0  0  0  0  0  0  0  0
   35.2340   19.8640   33.7890 F   0  0  0  0  0  0  0  0  0  0  0  0
   33.8260   19.9940   31.9720 F   0  0  0  0  0  0  0  0  0  0  0  0
   35.3500   18.4040   32.0820 F   0  0  0  0  0  0  0  0  0  0  0  0
  1  2  1  0  0  0  0
  2  3  1  0  0  0  0
  3 15  1  0  0  0  0
  3  4  2  0  0  0  0
  4  8  1  0  0  0  0
  5  4  1  0  0  0  0
  5 20  1  0  0  0  0
  6  5  2  0  0  0  0
  7  2  2  0  0  0  0
  7  6  1  0  0  0  0
  9  6  1  0  0  0  0
 10  7  1  0  0  0  0
 11 17  1  0  0  0  0
 12 18  1  0  0  0  0
 12 11  2  0  0  0  0
 13 12  1  0  0  0  0
 14 13  2  0  0  0  0
 14 15  1  0  0  0  0
 15 16  2  0  0  0  0
 16 11  1  0  0  0  0
 19 13  1  0  0  0  0
 20 21  1  0  0  0  0
 22 20  1  0  0  0  0
 23 20  1  0  0  0  0
M  END
>  <minimizedAffinity>
-4.63914394

$$$$
