
 OpenBabel03272509003D

 23 24  0  0  0  0  0  0  0  0999 V2000
   38.3460   31.7190   48.8400 Cl  0  0  0  0  0  0  0  0  0  0  0  0
   37.1520   30.9810   47.8250 C   0  0  0  0  0  0  0  0  0  0  0  0
   37.3340   30.9510   46.4600 C   0  0  0  0  0  0  0  0  0  0  0  0
   36.4120   30.3800   45.6150 C   0  0  0  0  0  0  0  0  0  0  0  0
   35.2580   29.8100   46.1200 C   0  0  0  0  0  0  0  0  0  0  0  0
   35.0450   29.8240   47.4970 C   0  0  0  0  0  0  0  0  0  0  0  0
   33.6260   29.1370   48.2650 Cl  0  0  0  0  0  0  0  0  0  0  0  0
   35.9970   30.4060   48.2970 C   0  0  0  0  0  0  0  0  0  0  0  0
   36.5470   30.3540   44.5450 H   0  0  0  0  0  0  0  0  0  0  0  0
   34.5010   29.3480   45.5010 H   0  0  0  0  0  0  0  0  0  0  0  0
   39.6480   33.2800   44.8160 C   0  0  0  0  0  0  0  0  0  0  0  0
   40.8610   32.5940   44.8540 C   0  0  0  0  0  0  0  0  0  0  0  0
   40.8760   31.3060   45.4570 C   0  0  0  0  0  0  0  0  0  0  0  0
   39.7070   30.8290   45.9570 N   0  0  0  0  0  0  0  0  0  0  0  0
   38.5440   31.5460   45.8940 C   0  0  0  0  0  0  0  0  0  0  0  0
   38.5270   32.7590   45.3260 N   0  0  0  0  0  0  0  0  0  0  0  0
   39.6890   34.2570   44.3460 H   0  0  0  0  0  0  0  0  0  0  0  0
   41.7750   32.9670   44.4610 H   0  0  0  0  0  0  0  0  0  0  0  0
   41.7820   30.7190   45.5200 H   0  0  0  0  0  0  0  0  0  0  0  0
   35.7960   30.4370   49.7840 C   0  0  0  0  0  0  0  0  0  0  0  0
   34.4590   30.4870   50.1120 F   0  0  0  0  0  0  0  0  0  0  0  0
   36.2490   29.2080   50.2730 F   0  0  0  0  0  0  0  0  0  0  0  0
   36.5530   31.4090   50.3670 F   0  0  0  0  0  0  0  0  0  0  0  0
  2  8  1  0  0  0  0
  2  1  1  0  0  0  0
  3  2  2  0  0  0  0
  4  5  2  0  0  0  0
  4  3  1  0  0  0  0
  5  6  1  0  0  0  0
  6  7  1  0  0  0  0
  6  8  2  0  0  0  0
  8 20  1  0  0  0  0
  9  4  1  0  0  0  0
 10  5  1  0  0  0  0
 11 12  2  0  0  0  0
 11 16  1  0  0  0  0
 12 13  1  0  0  0  0
 13 19  1  0  0  0  0
 13 14  2  0  0  0  0
 15 14  1  0  0  0  0
 15  3  1  0  0  0  0
 16 15  2  0  0  0  0
 17 11  1  0  0  0  0
 18 12  1  0  0  0  0
 20 21  1  0  0  0  0
 20 22  1  0  0  0  0
 20 23  1  0  0  0  0
M  END
>  <minimizedAffinity>
-6.02996349

>  <minimizedRMSD>
3.26425529

$$$$
