
 OpenBabel03272510233D

 26 28  0  0  0  0  0  0  0  0999 V2000
   35.8840   30.0960   46.8960 C   0  0  0  0  0  0  0  0  0  0  0  0
   36.8390   30.5650   47.7670 C   0  0  0  0  0  0  0  0  0  0  0  0
   37.8890   31.3270   47.3090 C   0  0  0  0  0  0  0  0  0  0  0  0
   37.9390   31.5960   45.9540 C   0  0  0  0  0  0  0  0  0  0  0  0
   38.8750   32.3230   45.2700 N   0  0  0  0  0  0  0  0  0  0  0  0
   38.5160   32.3140   43.9800 C   0  0  0  0  0  0  0  0  0  0  0  0
   37.3840   31.6070   43.8100 N   0  0  0  0  0  0  0  0  0  0  0  0
   37.0020   31.1470   45.0310 C   0  0  0  0  0  0  0  0  0  0  0  0
   35.9610   30.3840   45.5260 C   0  0  0  0  0  0  0  0  0  0  0  0
   35.0370   29.4950   47.1860 H   0  0  0  0  0  0  0  0  0  0  0  0
   38.6300   31.6910   47.9930 H   0  0  0  0  0  0  0  0  0  0  0  0
   39.7250   32.8050   45.6760 H   0  0  0  0  0  0  0  0  0  0  0  0
   35.2070   30.0160   44.8220 H   0  0  0  0  0  0  0  0  0  0  0  0
   37.3570   30.1110   51.4740 C   0  0  0  0  0  0  0  0  0  0  0  0
   37.5970   30.4850   50.1560 C   0  0  0  0  0  0  0  0  0  0  0  0
   36.6660   30.2090   49.1720 C   0  0  0  0  0  0  0  0  0  0  0  0
   35.5150   29.5660   49.5320 N   0  0  0  0  0  0  0  0  0  0  0  0
   35.3100   29.2120   50.8400 C   0  0  0  0  0  0  0  0  0  0  0  0
   36.2100   29.4790   51.7830 N   0  0  0  0  0  0  0  0  0  0  0  0
   38.1010   30.3410   52.2090 H   0  0  0  0  0  0  0  0  0  0  0  0
   38.4990   30.9850   49.8930 H   0  0  0  0  0  0  0  0  0  0  0  0
   34.3640   28.7060   51.0100 H   0  0  0  0  0  0  0  0  0  0  0  0
   39.3050   33.0110   42.9200 C   0  0  0  0  0  0  0  0  0  0  0  0
   40.1580   32.1880   42.2440 F   0  0  0  0  0  0  0  0  0  0  0  0
   40.0360   34.0440   43.5000 F   0  0  0  0  0  0  0  0  0  0  0  0
   38.4670   33.6160   42.0010 F   0  0  0  0  0  0  0  0  0  0  0  0
  1 10  1  0  0  0  0
  1  2  1  0  0  0  0
  2 16  1  0  0  0  0
  3  2  2  0  0  0  0
  3 11  1  0  0  0  0
  4  3  1  0  0  0  0
  5 12  1  0  0  0  0
  5  4  1  0  0  0  0
  6  5  1  0  0  0  0
  7  6  2  0  0  0  0
  7  8  1  0  0  0  0
  8  9  1  0  0  0  0
  8  4  2  0  0  0  0
  9  1  2  0  0  0  0
 13  9  1  0  0  0  0
 14 19  1  0  0  0  0
 14 20  1  0  0  0  0
 15 14  2  0  0  0  0
 16 17  2  0  0  0  0
 16 15  1  0  0  0  0
 17 18  1  0  0  0  0
 18 22  1  0  0  0  0
 18 19  2  0  0  0  0
 21 15  1  0  0  0  0
 23 25  1  0  0  0  0
 23  6  1  0  0  0  0
 24 23  1  0  0  0  0
 26 23  1  0  0  0  0
M  END
>  <minimizedAffinity>
-5.38723755

>  <minimizedRMSD>
1.70675457

$$$$
