
 OpenBabel03272502203D

 23 24  0  0  0  0  0  0  0  0999 V2000
   38.7190   23.0130   36.8730 C   0  0  0  0  0  0  0  0  0  0  0  0
   40.0950   22.7650   36.6890 C   0  0  0  0  0  0  0  0  0  0  0  0
   40.4750   22.2280   35.4510 C   0  0  0  0  0  0  0  0  0  0  0  0
   39.5180   21.9740   34.5020 N   0  0  0  0  0  0  0  0  0  0  0  0
   38.1990   22.2360   34.7380 C   0  0  0  0  0  0  0  0  0  0  0  0
   37.8160   22.7540   35.9240 N   0  0  0  0  0  0  0  0  0  0  0  0
   40.8170   22.9730   37.4480 H   0  0  0  0  0  0  0  0  0  0  0  0
   41.5140   22.0140   35.2460 H   0  0  0  0  0  0  0  0  0  0  0  0
   38.1480   24.3250   32.4060 Br  0  0  0  0  0  0  0  0  0  0  0  0
   37.0250   22.8060   32.6450 C   0  0  0  0  0  0  0  0  0  0  0  0
   37.1770   21.9720   33.7410 C   0  0  0  0  0  0  0  0  0  0  0  0
   36.3260   20.8860   33.8520 C   0  0  0  0  0  0  0  0  0  0  0  0
   35.3360   20.5960   32.9240 C   0  0  0  0  0  0  0  0  0  0  0  0
   35.2110   21.4430   31.8480 C   0  0  0  0  0  0  0  0  0  0  0  0
   36.0550   22.5350   31.7210 C   0  0  0  0  0  0  0  0  0  0  0  0
   36.4030   20.1960   34.6990 H   0  0  0  0  0  0  0  0  0  0  0  0
   34.6740   19.7550   33.0080 H   0  0  0  0  0  0  0  0  0  0  0  0
   34.4750   21.3280   31.0490 H   0  0  0  0  0  0  0  0  0  0  0  0
   35.9560   23.2080   30.8660 H   0  0  0  0  0  0  0  0  0  0  0  0
   38.3530   23.5840   38.1990 C   0  0  0  0  0  0  0  0  0  0  0  0
   39.4260   23.5330   39.0600 F   0  0  0  0  0  0  0  0  0  0  0  0
   37.2830   22.8920   38.7730 F   0  0  0  0  0  0  0  0  0  0  0  0
   37.9660   24.9020   38.1320 F   0  0  0  0  0  0  0  0  0  0  0  0
  1 20  1  0  0  0  0
  2  1  1  0  0  0  0
  2  7  1  0  0  0  0
  3  2  2  0  0  0  0
  4  5  2  0  0  0  0
  4  3  1  0  0  0  0
  5  6  1  0  0  0  0
  6  1  2  0  0  0  0
  8  3  1  0  0  0  0
  9 10  1  0  0  0  0
 10 11  1  0  0  0  0
 11 12  2  0  0  0  0
 11  5  1  0  0  0  0
 12 16  1  0  0  0  0
 13 17  1  0  0  0  0
 13 12  1  0  0  0  0
 14 13  2  0  0  0  0
 15 14  1  0  0  0  0
 15 10  2  0  0  0  0
 18 14  1  0  0  0  0
 19 15  1  0  0  0  0
 20 22  1  0  0  0  0
 20 21  1  0  0  0  0
 23 20  1  0  0  0  0
M  END
>  <minimizedAffinity>
-5.27940226

$$$$

 OpenBabel03272502203D

 23 24  0  0  0  0  0  0  0  0999 V2000
   38.7930   23.6700   37.0180 C   0  0  0  0  0  0  0  0  0  0  0  0
   39.6280   22.5600   36.7760 C   0  0  0  0  0  0  0  0  0  0  0  0
   40.0700   22.3840   35.4560 C   0  0  0  0  0  0  0  0  0  0  0  0
   39.6790   23.2740   34.4880 N   0  0  0  0  0  0  0  0  0  0  0  0
   38.8680   24.3310   34.7840 C   0  0  0  0  0  0  0  0  0  0  0  0
   38.4330   24.5160   36.0490 N   0  0  0  0  0  0  0  0  0  0  0  0
   39.9150   21.8830   37.5510 H   0  0  0  0  0  0  0  0  0  0  0  0
   40.7120   21.5530   35.2030 H   0  0  0  0  0  0  0  0  0  0  0  0
   40.8660   26.7070   34.3800 Br  0  0  0  0  0  0  0  0  0  0  0  0
   39.2240   26.3880   33.4710 C   0  0  0  0  0  0  0  0  0  0  0  0
   38.4470   25.2800   33.7680 C   0  0  0  0  0  0  0  0  0  0  0  0
   37.2660   25.1090   33.0690 C   0  0  0  0  0  0  0  0  0  0  0  0
   36.8250   25.9910   32.0900 C   0  0  0  0  0  0  0  0  0  0  0  0
   37.6190   27.0800   31.8190 C   0  0  0  0  0  0  0  0  0  0  0  0
   38.8050   27.2650   32.5100 C   0  0  0  0  0  0  0  0  0  0  0  0
   36.6150   24.2510   33.2650 H   0  0  0  0  0  0  0  0  0  0  0  0
   35.9090   25.8610   31.5470 H   0  0  0  0  0  0  0  0  0  0  0  0
   37.3880   27.8460   31.0760 H   0  0  0  0  0  0  0  0  0  0  0  0
   39.4360   28.1320   32.2940 H   0  0  0  0  0  0  0  0  0  0  0  0
   38.3440   23.8240   38.4300 C   0  0  0  0  0  0  0  0  0  0  0  0
   37.3360   22.9310   38.7180 F   0  0  0  0  0  0  0  0  0  0  0  0
   37.8810   25.1200   38.6780 F   0  0  0  0  0  0  0  0  0  0  0  0
   39.3460   23.5930   39.3430 F   0  0  0  0  0  0  0  0  0  0  0  0
  1 20  1  0  0  0  0
  2  1  1  0  0  0  0
  2  7  1  0  0  0  0
  3  2  2  0  0  0  0
  4  5  2  0  0  0  0
  4  3  1  0  0  0  0
  5  6  1  0  0  0  0
  6  1  2  0  0  0  0
  8  3  1  0  0  0  0
 10 11  1  0  0  0  0
 10  9  1  0  0  0  0
 11  5  1  0  0  0  0
 12 16  1  0  0  0  0
 12 11  2  0  0  0  0
 13 12  1  0  0  0  0
 14 13  2  0  0  0  0
 14 15  1  0  0  0  0
 15 10  2  0  0  0  0
 17 13  1  0  0  0  0
 18 14  1  0  0  0  0
 19 15  1  0  0  0  0
 20 22  1  0  0  0  0
 20 21  1  0  0  0  0
 20 23  1  0  0  0  0
M  END
>  <minimizedAffinity>
-5.0097785

$$$$

 OpenBabel03272502203D

 23 24  0  0  0  0  0  0  0  0999 V2000
   38.8490   23.4840   36.6960 C   0  0  0  0  0  0  0  0  0  0  0  0
   40.1910   23.0750   36.5610 C   0  0  0  0  0  0  0  0  0  0  0  0
   40.6540   22.8660   35.2540 C   0  0  0  0  0  0  0  0  0  0  0  0
   39.8030   23.0610   34.1960 N   0  0  0  0  0  0  0  0  0  0  0  0
   38.5120   23.4580   34.3900 C   0  0  0  0  0  0  0  0  0  0  0  0
   38.0490   23.6650   35.6420 N   0  0  0  0  0  0  0  0  0  0  0  0
   40.8300   22.9310   37.4050 H   0  0  0  0  0  0  0  0  0  0  0  0
   41.6730   22.5520   35.0810 H   0  0  0  0  0  0  0  0  0  0  0  0
   38.2680   26.4540   33.5140 Br  0  0  0  0  0  0  0  0  0  0  0  0
   37.3830   24.9390   32.7720 C   0  0  0  0  0  0  0  0  0  0  0  0
   37.6010   23.6680   33.2780 C   0  0  0  0  0  0  0  0  0  0  0  0
   36.9260   22.6120   32.6920 C   0  0  0  0  0  0  0  0  0  0  0  0
   36.0470   22.7670   31.6270 C   0  0  0  0  0  0  0  0  0  0  0  0
   35.8530   24.0410   31.1490 C   0  0  0  0  0  0  0  0  0  0  0  0
   36.5220   25.1090   31.7250 C   0  0  0  0  0  0  0  0  0  0  0  0
   37.0620   21.5880   33.0520 H   0  0  0  0  0  0  0  0  0  0  0  0
   35.5220   21.9510   31.1710 H   0  0  0  0  0  0  0  0  0  0  0  0
   35.1910   24.2990   30.3200 H   0  0  0  0  0  0  0  0  0  0  0  0
   36.3680   26.1220   31.3450 H   0  0  0  0  0  0  0  0  0  0  0  0
   38.3930   23.6980   38.0980 C   0  0  0  0  0  0  0  0  0  0  0  0
   39.4090   23.4210   38.9850 F   0  0  0  0  0  0  0  0  0  0  0  0
   37.2950   22.8880   38.4050 F   0  0  0  0  0  0  0  0  0  0  0  0
   37.9970   24.9920   38.3460 F   0  0  0  0  0  0  0  0  0  0  0  0
  1 20  1  0  0  0  0
  2  1  1  0  0  0  0
  2  7  1  0  0  0  0
  3  2  2  0  0  0  0
  4  5  2  0  0  0  0
  4  3  1  0  0  0  0
  5  6  1  0  0  0  0
  6  1  2  0  0  0  0
  8  3  1  0  0  0  0
 10 11  1  0  0  0  0
 10  9  1  0  0  0  0
 11  5  1  0  0  0  0
 12 16  1  0  0  0  0
 12 11  2  0  0  0  0
 13 12  1  0  0  0  0
 14 13  2  0  0  0  0
 14 15  1  0  0  0  0
 15 10  2  0  0  0  0
 17 13  1  0  0  0  0
 18 14  1  0  0  0  0
 19 15  1  0  0  0  0
 20 23  1  0  0  0  0
 20 22  1  0  0  0  0
 20 21  1  0  0  0  0
M  END
>  <minimizedAffinity>
-4.94262695

$$$$

 OpenBabel03272502203D

 23 24  0  0  0  0  0  0  0  0999 V2000
   40.0640   22.2450   36.8560 C   0  0  0  0  0  0  0  0  0  0  0  0
   39.5820   23.0340   37.9210 C   0  0  0  0  0  0  0  0  0  0  0  0
   38.2450   23.4460   37.8410 C   0  0  0  0  0  0  0  0  0  0  0  0
   37.4870   23.0760   36.7590 N   0  0  0  0  0  0  0  0  0  0  0  0
   38.0100   22.3100   35.7570 C   0  0  0  0  0  0  0  0  0  0  0  0
   39.2960   21.9030   35.8190 N   0  0  0  0  0  0  0  0  0  0  0  0
   40.1970   23.3060   38.7510 H   0  0  0  0  0  0  0  0  0  0  0  0
   37.8130   24.0520   38.6230 H   0  0  0  0  0  0  0  0  0  0  0  0
   38.6250   23.9680   33.1730 Br  0  0  0  0  0  0  0  0  0  0  0  0
   37.3730   22.5490   33.3860 C   0  0  0  0  0  0  0  0  0  0  0  0
   37.2180   21.9110   34.6060 C   0  0  0  0  0  0  0  0  0  0  0  0
   36.2900   20.8890   34.6910 C   0  0  0  0  0  0  0  0  0  0  0  0
   35.5130   20.4750   33.6170 C   0  0  0  0  0  0  0  0  0  0  0  0
   35.6900   21.1280   32.4200 C   0  0  0  0  0  0  0  0  0  0  0  0
   36.6160   22.1540   32.3190 C   0  0  0  0  0  0  0  0  0  0  0  0
   36.1290   20.3530   35.6310 H   0  0  0  0  0  0  0  0  0  0  0  0
   34.7920   19.6830   33.6800 H   0  0  0  0  0  0  0  0  0  0  0  0
   35.1440   20.9010   31.5030 H   0  0  0  0  0  0  0  0  0  0  0  0
   36.7570   22.6730   31.3670 H   0  0  0  0  0  0  0  0  0  0  0  0
   41.4890   21.8250   36.9770 C   0  0  0  0  0  0  0  0  0  0  0  0
   42.3120   22.9260   37.0600 F   0  0  0  0  0  0  0  0  0  0  0  0
   41.8850   21.0490   35.8840 F   0  0  0  0  0  0  0  0  0  0  0  0
   41.7340   21.0650   38.0970 F   0  0  0  0  0  0  0  0  0  0  0  0
  1 20  1  0  0  0  0
  1  2  1  0  0  0  0
  2  7  1  0  0  0  0
  3  2  2  0  0  0  0
  3  8  1  0  0  0  0
  4  3  1  0  0  0  0
  5  6  1  0  0  0  0
  5  4  2  0  0  0  0
  6  1  2  0  0  0  0
  9 10  1  0  0  0  0
 10 11  1  0  0  0  0
 11 12  2  0  0  0  0
 11  5  1  0  0  0  0
 12 16  1  0  0  0  0
 13 17  1  0  0  0  0
 13 12  1  0  0  0  0
 14 13  2  0  0  0  0
 15 14  1  0  0  0  0
 15 10  2  0  0  0  0
 18 14  1  0  0  0  0
 19 15  1  0  0  0  0
 20 21  1  0  0  0  0
 20 23  1  0  0  0  0
 22 20  1  0  0  0  0
M  END
>  <minimizedAffinity>
-4.93107414

$$$$

 OpenBabel03272502203D

 23 24  0  0  0  0  0  0  0  0999 V2000
   38.8730   23.5880   36.5610 C   0  0  0  0  0  0  0  0  0  0  0  0
   40.2200   23.2150   36.3810 C   0  0  0  0  0  0  0  0  0  0  0  0
   40.6680   23.1040   35.0570 C   0  0  0  0  0  0  0  0  0  0  0  0
   39.7990   23.3550   34.0260 N   0  0  0  0  0  0  0  0  0  0  0  0
   38.5030   23.7130   34.2630 C   0  0  0  0  0  0  0  0  0  0  0  0
   38.0550   23.8250   35.5320 N   0  0  0  0  0  0  0  0  0  0  0  0
   40.8740   23.0260   37.2040 H   0  0  0  0  0  0  0  0  0  0  0  0
   41.6900   22.8230   34.8490 H   0  0  0  0  0  0  0  0  0  0  0  0
   37.3780   21.1270   32.9030 Br  0  0  0  0  0  0  0  0  0  0  0  0
   36.9870   22.9410   32.4770 C   0  0  0  0  0  0  0  0  0  0  0  0
   37.5730   23.9820   33.1800 C   0  0  0  0  0  0  0  0  0  0  0  0
   37.2450   25.2760   32.8180 C   0  0  0  0  0  0  0  0  0  0  0  0
   36.3610   25.5780   31.7900 C   0  0  0  0  0  0  0  0  0  0  0  0
   35.7960   24.5240   31.1130 C   0  0  0  0  0  0  0  0  0  0  0  0
   36.1150   23.2210   31.4630 C   0  0  0  0  0  0  0  0  0  0  0  0
   37.6800   26.1330   33.3410 H   0  0  0  0  0  0  0  0  0  0  0  0
   36.1050   26.5810   31.5070 H   0  0  0  0  0  0  0  0  0  0  0  0
   35.0890   24.6240   30.2870 H   0  0  0  0  0  0  0  0  0  0  0  0
   35.6660   22.3830   30.9240 H   0  0  0  0  0  0  0  0  0  0  0  0
   38.4330   23.6960   37.9810 C   0  0  0  0  0  0  0  0  0  0  0  0
   39.4620   23.3620   38.8320 F   0  0  0  0  0  0  0  0  0  0  0  0
   37.3440   22.8590   38.2410 F   0  0  0  0  0  0  0  0  0  0  0  0
   38.0330   24.9660   38.3270 F   0  0  0  0  0  0  0  0  0  0  0  0
  1 20  1  0  0  0  0
  2  1  1  0  0  0  0
  2  7  1  0  0  0  0
  3  2  2  0  0  0  0
  4  5  2  0  0  0  0
  4  3  1  0  0  0  0
  5  6  1  0  0  0  0
  6  1  2  0  0  0  0
  8  3  1  0  0  0  0
 10  9  1  0  0  0  0
 10 11  1  0  0  0  0
 11  5  1  0  0  0  0
 12 11  2  0  0  0  0
 12 16  1  0  0  0  0
 13 12  1  0  0  0  0
 14 15  1  0  0  0  0
 14 13  2  0  0  0  0
 15 10  2  0  0  0  0
 17 13  1  0  0  0  0
 18 14  1  0  0  0  0
 19 15  1  0  0  0  0
 20 22  1  0  0  0  0
 20 23  1  0  0  0  0
 20 21  1  0  0  0  0
M  END
>  <minimizedAffinity>
-4.90209627

$$$$

 OpenBabel03272502203D

 23 24  0  0  0  0  0  0  0  0999 V2000
   38.5340   24.3640   36.2760 C   0  0  0  0  0  0  0  0  0  0  0  0
   39.8320   24.0340   35.8360 C   0  0  0  0  0  0  0  0  0  0  0  0
   40.2590   24.6300   34.6410 C   0  0  0  0  0  0  0  0  0  0  0  0
   39.4170   25.4820   33.9720 N   0  0  0  0  0  0  0  0  0  0  0  0
   38.1690   25.7630   34.4480 C   0  0  0  0  0  0  0  0  0  0  0  0
   37.7420   25.1980   35.5980 N   0  0  0  0  0  0  0  0  0  0  0  0
   40.4650   23.3670   36.3790 H   0  0  0  0  0  0  0  0  0  0  0  0
   41.2430   24.4210   34.2490 H   0  0  0  0  0  0  0  0  0  0  0  0
   37.2490   24.6980   31.6510 Br  0  0  0  0  0  0  0  0  0  0  0  0
   36.7710   26.3350   32.4980 C   0  0  0  0  0  0  0  0  0  0  0  0
   37.2680   26.6630   33.7490 C   0  0  0  0  0  0  0  0  0  0  0  0
   36.8800   27.8680   34.3060 C   0  0  0  0  0  0  0  0  0  0  0  0
   36.0220   28.7580   33.6740 C   0  0  0  0  0  0  0  0  0  0  0  0
   35.5460   28.4030   32.4340 C   0  0  0  0  0  0  0  0  0  0  0  0
   35.9250   27.1990   31.8620 C   0  0  0  0  0  0  0  0  0  0  0  0
   37.2440   28.1750   35.2920 H   0  0  0  0  0  0  0  0  0  0  0  0
   35.7190   29.6940   34.1030 H   0  0  0  0  0  0  0  0  0  0  0  0
   34.8670   29.0110   31.8320 H   0  0  0  0  0  0  0  0  0  0  0  0
   35.5470   26.9180   30.8760 H   0  0  0  0  0  0  0  0  0  0  0  0
   38.1150   23.7120   37.5490 C   0  0  0  0  0  0  0  0  0  0  0  0
   37.0390   22.8800   37.3350 F   0  0  0  0  0  0  0  0  0  0  0  0
   37.7660   24.6590   38.5150 F   0  0  0  0  0  0  0  0  0  0  0  0
   39.1050   22.9380   38.1090 F   0  0  0  0  0  0  0  0  0  0  0  0
  1 20  1  0  0  0  0
  2  1  1  0  0  0  0
  2  7  1  0  0  0  0
  3  2  2  0  0  0  0
  4  5  2  0  0  0  0
  4  3  1  0  0  0  0
  5  6  1  0  0  0  0
  6  1  2  0  0  0  0
  8  3  1  0  0  0  0
  9 10  1  0  0  0  0
 10 11  1  0  0  0  0
 11 12  2  0  0  0  0
 11  5  1  0  0  0  0
 12 16  1  0  0  0  0
 13 17  1  0  0  0  0
 13 12  1  0  0  0  0
 14 13  2  0  0  0  0
 15 14  1  0  0  0  0
 15 10  2  0  0  0  0
 18 14  1  0  0  0  0
 19 15  1  0  0  0  0
 20 23  1  0  0  0  0
 20 22  1  0  0  0  0
 21 20  1  0  0  0  0
M  END
>  <minimizedAffinity>
-4.88836432

$$$$

 OpenBabel03272502203D

 23 24  0  0  0  0  0  0  0  0999 V2000
   40.0800   22.9430   36.7940 C   0  0  0  0  0  0  0  0  0  0  0  0
   39.3160   22.9690   37.9790 C   0  0  0  0  0  0  0  0  0  0  0  0
   38.0850   23.6370   37.9180 C   0  0  0  0  0  0  0  0  0  0  0  0
   37.6910   24.2210   36.7400 N   0  0  0  0  0  0  0  0  0  0  0  0
   38.4750   24.1630   35.6240 C   0  0  0  0  0  0  0  0  0  0  0  0
   39.6630   23.5230   35.6660 N   0  0  0  0  0  0  0  0  0  0  0  0
   39.6500   22.5050   38.8820 H   0  0  0  0  0  0  0  0  0  0  0  0
   37.4520   23.6930   38.7900 H   0  0  0  0  0  0  0  0  0  0  0  0
   38.6070   27.2910   35.6580 Br  0  0  0  0  0  0  0  0  0  0  0  0
   38.0720   26.1560   34.2260 C   0  0  0  0  0  0  0  0  0  0  0  0
   38.0690   24.7780   34.3720 C   0  0  0  0  0  0  0  0  0  0  0  0
   37.6680   24.0120   33.2920 C   0  0  0  0  0  0  0  0  0  0  0  0
   37.2730   24.5560   32.0770 C   0  0  0  0  0  0  0  0  0  0  0  0
   37.2880   25.9260   31.9650 C   0  0  0  0  0  0  0  0  0  0  0  0
   37.6860   26.7080   33.0380 C   0  0  0  0  0  0  0  0  0  0  0  0
   37.6480   22.9190   33.3540 H   0  0  0  0  0  0  0  0  0  0  0  0
   36.9620   23.9650   31.2380 H   0  0  0  0  0  0  0  0  0  0  0  0
   37.0010   26.4790   31.0680 H   0  0  0  0  0  0  0  0  0  0  0  0
   37.6970   27.7970   32.9480 H   0  0  0  0  0  0  0  0  0  0  0  0
   41.3810   22.2250   36.8980 C   0  0  0  0  0  0  0  0  0  0  0  0
   41.6100   21.4750   35.7660 F   0  0  0  0  0  0  0  0  0  0  0  0
   41.4080   21.3800   38.0110 F   0  0  0  0  0  0  0  0  0  0  0  0
   42.4560   23.0720   37.0320 F   0  0  0  0  0  0  0  0  0  0  0  0
  1 20  1  0  0  0  0
  1  2  1  0  0  0  0
  2  7  1  0  0  0  0
  3  2  2  0  0  0  0
  3  8  1  0  0  0  0
  4  3  1  0  0  0  0
  5  6  1  0  0  0  0
  5  4  2  0  0  0  0
  6  1  2  0  0  0  0
 10 11  1  0  0  0  0
 10  9  1  0  0  0  0
 11  5  1  0  0  0  0
 12 16  1  0  0  0  0
 12 11  2  0  0  0  0
 13 12  1  0  0  0  0
 14 13  2  0  0  0  0
 14 15  1  0  0  0  0
 15 10  2  0  0  0  0
 17 13  1  0  0  0  0
 18 14  1  0  0  0  0
 19 15  1  0  0  0  0
 20 23  1  0  0  0  0
 20 22  1  0  0  0  0
 21 20  1  0  0  0  0
M  END
>  <minimizedAffinity>
-4.88291168

$$$$

 OpenBabel03272502203D

 23 24  0  0  0  0  0  0  0  0999 V2000
   38.1470   23.9650   36.8680 C   0  0  0  0  0  0  0  0  0  0  0  0
   38.1640   25.3130   36.4570 C   0  0  0  0  0  0  0  0  0  0  0  0
   38.1090   25.5480   35.0760 C   0  0  0  0  0  0  0  0  0  0  0  0
   38.0430   24.4850   34.2110 N   0  0  0  0  0  0  0  0  0  0  0  0
   38.0290   23.1990   34.6700 C   0  0  0  0  0  0  0  0  0  0  0  0
   38.0810   22.9550   35.9970 N   0  0  0  0  0  0  0  0  0  0  0  0
   38.2160   26.1200   37.1540 H   0  0  0  0  0  0  0  0  0  0  0  0
   38.1190   26.5580   34.6940 H   0  0  0  0  0  0  0  0  0  0  0  0
   40.8150   22.3170   33.5450 Br  0  0  0  0  0  0  0  0  0  0  0  0
   39.1090   21.5540   33.1820 C   0  0  0  0  0  0  0  0  0  0  0  0
   37.9600   22.0650   33.7650 C   0  0  0  0  0  0  0  0  0  0  0  0
   36.7530   21.4630   33.4570 C   0  0  0  0  0  0  0  0  0  0  0  0
   36.6410   20.3780   32.5980 C   0  0  0  0  0  0  0  0  0  0  0  0
   37.7990   19.8940   32.0370 C   0  0  0  0  0  0  0  0  0  0  0  0
   39.0160   20.4860   32.3350 C   0  0  0  0  0  0  0  0  0  0  0  0
   35.8160   21.8280   33.8890 H   0  0  0  0  0  0  0  0  0  0  0  0
   35.7060   19.9090   32.3570 H   0  0  0  0  0  0  0  0  0  0  0  0
   37.8480   19.0490   31.3470 H   0  0  0  0  0  0  0  0  0  0  0  0
   39.9360   20.1020   31.8880 H   0  0  0  0  0  0  0  0  0  0  0  0
   38.2070   23.7540   38.3420 C   0  0  0  0  0  0  0  0  0  0  0  0
   37.3000   22.7940   38.7310 F   0  0  0  0  0  0  0  0  0  0  0  0
   37.9350   24.9370   39.0360 F   0  0  0  0  0  0  0  0  0  0  0  0
   39.4400   23.3280   38.7760 F   0  0  0  0  0  0  0  0  0  0  0  0
  1 20  1  0  0  0  0
  2  1  1  0  0  0  0
  2  7  1  0  0  0  0
  3  2  2  0  0  0  0
  4  5  2  0  0  0  0
  4  3  1  0  0  0  0
  5  6  1  0  0  0  0
  6  1  2  0  0  0  0
  8  3  1  0  0  0  0
 10  9  1  0  0  0  0
 10 11  1  0  0  0  0
 11  5  1  0  0  0  0
 12 11  2  0  0  0  0
 12 16  1  0  0  0  0
 13 12  1  0  0  0  0
 14 15  1  0  0  0  0
 14 13  2  0  0  0  0
 15 10  2  0  0  0  0
 17 13  1  0  0  0  0
 18 14  1  0  0  0  0
 19 15  1  0  0  0  0
 20 21  1  0  0  0  0
 20 23  1  0  0  0  0
 20 22  1  0  0  0  0
M  END
>  <minimizedAffinity>
-4.84334898

$$$$

 OpenBabel03272502203D

 23 24  0  0  0  0  0  0  0  0999 V2000
   36.5720   28.0470   33.4280 C   0  0  0  0  0  0  0  0  0  0  0  0
   36.7190   28.5090   32.1040 C   0  0  0  0  0  0  0  0  0  0  0  0
   36.1910   29.7770   31.8210 C   0  0  0  0  0  0  0  0  0  0  0  0
   35.5710   30.4890   32.8160 N   0  0  0  0  0  0  0  0  0  0  0  0
   35.4590   29.9890   34.0810 C   0  0  0  0  0  0  0  0  0  0  0  0
   35.9620   28.7700   34.3720 N   0  0  0  0  0  0  0  0  0  0  0  0
   37.2070   27.9310   31.3510 H   0  0  0  0  0  0  0  0  0  0  0  0
   36.2710   30.1900   30.8260 H   0  0  0  0  0  0  0  0  0  0  0  0
   32.3840   29.4390   34.2910 Br  0  0  0  0  0  0  0  0  0  0  0  0
   33.4440   30.6000   35.3660 C   0  0  0  0  0  0  0  0  0  0  0  0
   34.8050   30.7330   35.1430 C   0  0  0  0  0  0  0  0  0  0  0  0
   35.5150   31.5940   35.9600 C   0  0  0  0  0  0  0  0  0  0  0  0
   34.9310   32.3240   36.9870 C   0  0  0  0  0  0  0  0  0  0  0  0
   33.5790   32.1690   37.1820 C   0  0  0  0  0  0  0  0  0  0  0  0
   32.8530   31.3110   36.3720 C   0  0  0  0  0  0  0  0  0  0  0  0
   36.5920   31.7360   35.8270 H   0  0  0  0  0  0  0  0  0  0  0  0
   35.4790   32.9930   37.6220 H   0  0  0  0  0  0  0  0  0  0  0  0
   33.0000   32.6840   37.9520 H   0  0  0  0  0  0  0  0  0  0  0  0
   31.7790   31.1880   36.5270 H   0  0  0  0  0  0  0  0  0  0  0  0
   37.1440   26.6970   33.6920 C   0  0  0  0  0  0  0  0  0  0  0  0
   38.5040   26.6990   33.4790 F   0  0  0  0  0  0  0  0  0  0  0  0
   36.5610   25.7280   32.8710 F   0  0  0  0  0  0  0  0  0  0  0  0
   36.9500   26.2720   34.9860 F   0  0  0  0  0  0  0  0  0  0  0  0
  1 20  1  0  0  0  0
  1  6  1  0  0  0  0
  2  1  2  0  0  0  0
  3  2  1  0  0  0  0
  3  4  2  0  0  0  0
  4  5  1  0  0  0  0
  5  6  2  0  0  0  0
  5 11  1  0  0  0  0
  7  2  1  0  0  0  0
  8  3  1  0  0  0  0
  9 10  1  0  0  0  0
 10 15  1  0  0  0  0
 11 10  2  0  0  0  0
 11 12  1  0  0  0  0
 12 13  2  0  0  0  0
 13 14  1  0  0  0  0
 13 17  1  0  0  0  0
 14 18  1  0  0  0  0
 15 19  1  0  0  0  0
 15 14  2  0  0  0  0
 16 12  1  0  0  0  0
 20 23  1  0  0  0  0
 21 20  1  0  0  0  0
 22 20  1  0  0  0  0
M  END
>  <minimizedAffinity>
-4.81784678

$$$$
