
 OpenBabel03272506493D

 37 39  0  0  1  0  0  0  0  0999 V2000
   37.9700   24.6880   31.9860 C   0  0  2  0  0  0  0  0  0  0  0  0
   37.4400   23.7990   30.9000 C   0  0  1  0  0  0  0  0  0  0  0  0
   38.1940   22.6640   30.8780 O   0  0  0  0  0  0  0  0  0  0  0  0
   38.9760   22.6110   32.0270 C   0  0  0  0  0  0  0  0  0  0  0  0
   38.3930   23.5910   33.0130 C   0  0  1  0  0  0  0  0  0  0  0  0
   38.8420   25.2850   31.7310 H   0  0  0  0  0  0  0  0  0  0  0  0
   37.3950   24.3460   29.9410 H   0  0  0  0  0  0  0  0  0  0  0  0
   39.9940   22.7870   31.7170 H   0  0  0  0  0  0  0  0  0  0  0  0
   38.9530   21.5650   32.4300 H   0  0  0  0  0  0  0  0  0  0  0  0
   37.4880   23.2690   33.5120 H   0  0  0  0  0  0  0  0  0  0  0  0
   36.9330   25.4590   32.5480 O   0  0  0  0  0  0  0  0  0  0  0  0
   37.1600   26.4020   32.6070 H   0  0  0  0  0  0  0  0  0  0  0  0
   35.7220   23.3310   31.3570 S   0  0  0  0  0  0  0  0  0  0  0  0
   35.8360   19.3800   31.1510 C   0  0  0  0  0  0  0  0  0  0  0  0
   35.6860   18.9360   32.4700 C   0  0  0  0  0  0  0  0  0  0  0  0
   35.5430   19.9170   33.4660 C   0  0  0  0  0  0  0  0  0  0  0  0
   35.5590   21.2240   33.1030 N   0  0  0  0  0  0  0  0  0  0  0  0
   35.7060   21.6000   31.8120 C   0  0  0  0  0  0  0  0  0  0  0  0
   35.8460   20.6850   30.8180 N   0  0  0  0  0  0  0  0  0  0  0  0
   35.9460   18.6440   30.3700 H   0  0  0  0  0  0  0  0  0  0  0  0
   35.6780   17.8840   32.7310 H   0  0  0  0  0  0  0  0  0  0  0  0
   35.4250   19.6610   34.4990 H   0  0  0  0  0  0  0  0  0  0  0  0
   39.3940   24.0460   33.8360 O   0  0  0  0  0  0  0  0  0  0  0  0
   37.6160   25.0360   35.9660 Cl  0  0  0  0  0  0  0  0  0  0  0  0
   38.9750   23.9440   36.0990 C   0  0  0  0  0  0  0  0  0  0  0  0
   39.7290   23.5440   35.0190 C   0  0  0  0  0  0  0  0  0  0  0  0
   40.7780   22.6490   35.2470 C   0  0  0  0  0  0  0  0  0  0  0  0
   41.0410   22.1850   36.5200 C   0  0  0  0  0  0  0  0  0  0  0  0
   40.2870   22.5830   37.6110 C   0  0  0  0  0  0  0  0  0  0  0  0
   39.2440   23.4760   37.3780 C   0  0  0  0  0  0  0  0  0  0  0  0
   41.4180   22.2750   34.4690 H   0  0  0  0  0  0  0  0  0  0  0  0
   41.8320   21.4950   36.7650 H   0  0  0  0  0  0  0  0  0  0  0  0
   40.4820   22.2270   38.6120 H   0  0  0  0  0  0  0  0  0  0  0  0
   38.4290   23.9090   38.5430 C   0  0  0  0  0  0  0  0  0  0  0  0
   38.0870   25.2470   38.4660 F   0  0  0  0  0  0  0  0  0  0  0  0
   39.2240   23.7260   39.6810 F   0  0  0  0  0  0  0  0  0  0  0  0
   37.3330   23.1120   38.7300 F   0  0  0  0  0  0  0  0  0  0  0  0
  1  6  1  6  0  0  0
  1 11  1  0  0  0  0
  1  5  1  0  0  0  0
  2  7  1  6  0  0  0
  2 13  1  0  0  0  0
  2  1  1  0  0  0  0
  3  2  1  0  0  0  0
  3  4  1  0  0  0  0
  4  9  1  0  0  0  0
  4  5  1  0  0  0  0
  5 10  1  1  0  0  0
  5 23  1  0  0  0  0
  8  4  1  0  0  0  0
 11 12  1  0  0  0  0
 13 18  1  0  0  0  0
 14 15  1  0  0  0  0
 15 21  1  0  0  0  0
 15 16  2  0  0  0  0
 16 22  1  0  0  0  0
 17 16  1  0  0  0  0
 18 17  2  0  0  0  0
 19 14  2  0  0  0  0
 19 18  1  0  0  0  0
 20 14  1  0  0  0  0
 23 26  1  0  0  0  0
 24 25  1  0  0  0  0
 25 30  1  0  0  0  0
 26 27  1  0  0  0  0
 26 25  2  0  0  0  0
 27 28  2  0  0  0  0
 28 32  1  0  0  0  0
 28 29  1  0  0  0  0
 29 33  1  0  0  0  0
 30 29  2  0  0  0  0
 30 34  1  0  0  0  0
 31 27  1  0  0  0  0
 34 37  1  0  0  0  0
 34 36  1  0  0  0  0
 35 34  1  0  0  0  0
M  END
>  <minimizedAffinity>
-5.98485804

$$$$

 OpenBabel03272506493D

 37 39  0  0  1  0  0  0  0  0999 V2000
   37.6340   24.5900   31.6460 C   0  0  2  0  0  0  0  0  0  0  0  0
   37.2490   23.5380   30.6480 C   0  0  1  0  0  0  0  0  0  0  0  0
   38.1130   22.4920   30.7820 O   0  0  0  0  0  0  0  0  0  0  0  0
   38.8390   22.6460   31.9580 C   0  0  0  0  0  0  0  0  0  0  0  0
   38.1130   23.6600   32.8050 C   0  0  1  0  0  0  0  0  0  0  0  0
   38.4530   25.2430   31.3590 H   0  0  0  0  0  0  0  0  0  0  0  0
   37.1970   23.9700   29.6310 H   0  0  0  0  0  0  0  0  0  0  0  0
   39.8480   22.8930   31.6700 H   0  0  0  0  0  0  0  0  0  0  0  0
   38.9000   21.6530   32.4750 H   0  0  0  0  0  0  0  0  0  0  0  0
   37.2210   23.3010   33.3030 H   0  0  0  0  0  0  0  0  0  0  0  0
   36.4980   25.3040   32.0780 O   0  0  0  0  0  0  0  0  0  0  0  0
   36.6270   26.2660   32.0390 H   0  0  0  0  0  0  0  0  0  0  0  0
   35.5660   22.9440   31.0880 S   0  0  0  0  0  0  0  0  0  0  0  0
   36.0520   19.0170   31.0450 C   0  0  0  0  0  0  0  0  0  0  0  0
   35.8710   18.6070   32.3710 C   0  0  0  0  0  0  0  0  0  0  0  0
   35.5850   19.6050   33.3190 C   0  0  0  0  0  0  0  0  0  0  0  0
   35.5000   20.8930   32.9060 N   0  0  0  0  0  0  0  0  0  0  0  0
   35.6830   21.2370   31.6100 C   0  0  0  0  0  0  0  0  0  0  0  0
   35.9610   20.3050   30.6610 N   0  0  0  0  0  0  0  0  0  0  0  0
   36.2710   18.2680   30.3010 H   0  0  0  0  0  0  0  0  0  0  0  0
   35.9450   17.5690   32.6730 H   0  0  0  0  0  0  0  0  0  0  0  0
   35.4330   19.3740   34.3530 H   0  0  0  0  0  0  0  0  0  0  0  0
   39.0220   24.3030   33.6090 O   0  0  0  0  0  0  0  0  0  0  0  0
   38.8170   22.5240   35.9480 Cl  0  0  0  0  0  0  0  0  0  0  0  0
   38.6180   24.2590   35.8770 C   0  0  0  0  0  0  0  0  0  0  0  0
   38.7500   24.9860   34.7150 C   0  0  0  0  0  0  0  0  0  0  0  0
   38.5920   26.3720   34.7880 C   0  0  0  0  0  0  0  0  0  0  0  0
   38.3130   26.9860   35.9920 C   0  0  0  0  0  0  0  0  0  0  0  0
   38.1780   26.2610   37.1650 C   0  0  0  0  0  0  0  0  0  0  0  0
   38.3370   24.8790   37.0860 C   0  0  0  0  0  0  0  0  0  0  0  0
   38.6810   27.0250   33.9380 H   0  0  0  0  0  0  0  0  0  0  0  0
   38.1790   28.0480   36.1180 H   0  0  0  0  0  0  0  0  0  0  0  0
   37.9610   26.7290   38.1140 H   0  0  0  0  0  0  0  0  0  0  0  0
   38.1950   24.0930   38.3400 C   0  0  0  0  0  0  0  0  0  0  0  0
   37.1430   23.1970   38.2710 F   0  0  0  0  0  0  0  0  0  0  0  0
   37.9200   25.0110   39.3610 F   0  0  0  0  0  0  0  0  0  0  0  0
   39.3630   23.4830   38.7000 F   0  0  0  0  0  0  0  0  0  0  0  0
  1  6  1  6  0  0  0
  1 11  1  0  0  0  0
  1  5  1  0  0  0  0
  2  7  1  6  0  0  0
  2  3  1  0  0  0  0
  2 13  1  0  0  0  0
  2  1  1  0  0  0  0
  3  4  1  0  0  0  0
  4  9  1  0  0  0  0
  4  5  1  0  0  0  0
  5 10  1  1  0  0  0
  5 23  1  0  0  0  0
  8  4  1  0  0  0  0
 12 11  1  0  0  0  0
 13 18  1  0  0  0  0
 14 15  1  0  0  0  0
 15 21  1  0  0  0  0
 15 16  2  0  0  0  0
 16 22  1  0  0  0  0
 17 16  1  0  0  0  0
 18 17  2  0  0  0  0
 19 14  2  0  0  0  0
 19 18  1  0  0  0  0
 20 14  1  0  0  0  0
 23 26  1  0  0  0  0
 25 24  1  0  0  0  0
 25 30  1  0  0  0  0
 26 27  1  0  0  0  0
 26 25  2  0  0  0  0
 27 28  2  0  0  0  0
 28 32  1  0  0  0  0
 28 29  1  0  0  0  0
 29 33  1  0  0  0  0
 30 29  2  0  0  0  0
 30 34  1  0  0  0  0
 31 27  1  0  0  0  0
 34 37  1  0  0  0  0
 34 36  1  0  0  0  0
 35 34  1  0  0  0  0
M  END
>  <minimizedAffinity>
-5.49913406

$$$$

 OpenBabel03272506493D

 37 39  0  0  1  0  0  0  0  0999 V2000
   40.5910   24.1650   32.2030 C   0  0  2  0  0  0  0  0  0  0  0  0
   40.0970   25.0930   31.1320 C   0  0  1  0  0  0  0  0  0  0  0  0
   38.7590   24.8850   30.9780 O   0  0  0  0  0  0  0  0  0  0  0  0
   38.2890   24.1180   32.0390 C   0  0  0  0  0  0  0  0  0  0  0  0
   39.3330   24.1680   33.1270 C   0  0  1  0  0  0  0  0  0  0  0  0
   40.7960   23.1450   31.8930 H   0  0  0  0  0  0  0  0  0  0  0  0
   40.6950   24.9730   30.2110 H   0  0  0  0  0  0  0  0  0  0  0  0
   38.0580   23.1440   31.6390 H   0  0  0  0  0  0  0  0  0  0  0  0
   37.3150   24.5470   32.3900 H   0  0  0  0  0  0  0  0  0  0  0  0
   39.3690   25.0880   33.6970 H   0  0  0  0  0  0  0  0  0  0  0  0
   41.6680   24.7440   32.9040 O   0  0  0  0  0  0  0  0  0  0  0  0
   42.4250   24.1410   32.9870 H   0  0  0  0  0  0  0  0  0  0  0  0
   40.3390   26.8130   31.7340 S   0  0  0  0  0  0  0  0  0  0  0  0
   39.1120   27.1640   35.4800 C   0  0  0  0  0  0  0  0  0  0  0  0
   37.7440   27.4450   35.3970 C   0  0  0  0  0  0  0  0  0  0  0  0
   37.1820   27.5280   34.1110 C   0  0  0  0  0  0  0  0  0  0  0  0
   37.9830   27.3350   33.0350 N   0  0  0  0  0  0  0  0  0  0  0  0
   39.3010   27.0650   33.1700 C   0  0  0  0  0  0  0  0  0  0  0  0
   39.8850   26.9750   34.3930 N   0  0  0  0  0  0  0  0  0  0  0  0
   39.5640   27.0950   36.4570 H   0  0  0  0  0  0  0  0  0  0  0  0
   37.1280   27.5950   36.2760 H   0  0  0  0  0  0  0  0  0  0  0  0
   36.1430   27.7400   33.9610 H   0  0  0  0  0  0  0  0  0  0  0  0
   39.2620   23.0140   33.8670 O   0  0  0  0  0  0  0  0  0  0  0  0
   37.4040   24.0360   35.9120 Cl  0  0  0  0  0  0  0  0  0  0  0  0
   38.9660   23.2830   36.1360 C   0  0  0  0  0  0  0  0  0  0  0  0
   39.7420   22.8330   35.0920 C   0  0  0  0  0  0  0  0  0  0  0  0
   40.9630   22.2260   35.3970 C   0  0  0  0  0  0  0  0  0  0  0  0
   41.3690   22.0850   36.7090 C   0  0  0  0  0  0  0  0  0  0  0  0
   40.5940   22.5350   37.7640 C   0  0  0  0  0  0  0  0  0  0  0  0
   39.3780   23.1400   37.4540 C   0  0  0  0  0  0  0  0  0  0  0  0
   41.6350   21.8380   34.6530 H   0  0  0  0  0  0  0  0  0  0  0  0
   42.2960   21.6270   37.0130 H   0  0  0  0  0  0  0  0  0  0  0  0
   40.8990   22.4300   38.7940 H   0  0  0  0  0  0  0  0  0  0  0  0
   38.5390   23.6260   38.5800 C   0  0  0  0  0  0  0  0  0  0  0  0
   37.4170   22.8380   38.7660 F   0  0  0  0  0  0  0  0  0  0  0  0
   38.1140   24.9160   38.2380 F   0  0  0  0  0  0  0  0  0  0  0  0
   39.2580   23.7700   39.7330 F   0  0  0  0  0  0  0  0  0  0  0  0
  1  6  1  6  0  0  0
  1 11  1  0  0  0  0
  1  5  1  0  0  0  0
  2  7  1  6  0  0  0
  2 13  1  0  0  0  0
  2  1  1  0  0  0  0
  3  2  1  0  0  0  0
  3  4  1  0  0  0  0
  4  9  1  0  0  0  0
  4  5  1  0  0  0  0
  5 10  1  1  0  0  0
  5 23  1  0  0  0  0
  8  4  1  0  0  0  0
 11 12  1  0  0  0  0
 13 18  1  0  0  0  0
 14 20  1  0  0  0  0
 15 14  1  0  0  0  0
 15 21  1  0  0  0  0
 16 15  2  0  0  0  0
 17 18  2  0  0  0  0
 17 16  1  0  0  0  0
 18 19  1  0  0  0  0
 19 14  2  0  0  0  0
 22 16  1  0  0  0  0
 23 26  1  0  0  0  0
 24 25  1  0  0  0  0
 25 30  1  0  0  0  0
 26 27  1  0  0  0  0
 26 25  2  0  0  0  0
 27 28  2  0  0  0  0
 28 32  1  0  0  0  0
 28 29  1  0  0  0  0
 29 33  1  0  0  0  0
 30 29  2  0  0  0  0
 30 34  1  0  0  0  0
 31 27  1  0  0  0  0
 34 35  1  0  0  0  0
 34 37  1  0  0  0  0
 36 34  1  0  0  0  0
M  END
>  <minimizedAffinity>
-5.47241306

$$$$

 OpenBabel03272506493D

 37 39  0  0  1  0  0  0  0  0999 V2000
   37.8020   24.8900   32.1700 C   0  0  2  0  0  0  0  0  0  0  0  0
   37.3740   24.0350   31.0140 C   0  0  1  0  0  0  0  0  0  0  0  0
   38.1820   22.9380   30.9780 O   0  0  0  0  0  0  0  0  0  0  0  0
   38.9030   22.8610   32.1640 C   0  0  0  0  0  0  0  0  0  0  0  0
   38.2210   23.7610   33.1640 C   0  0  1  0  0  0  0  0  0  0  0  0
   38.6550   25.5380   31.9950 H   0  0  0  0  0  0  0  0  0  0  0  0
   37.3540   24.6290   30.0810 H   0  0  0  0  0  0  0  0  0  0  0  0
   39.9260   23.0990   31.9220 H   0  0  0  0  0  0  0  0  0  0  0  0
   38.9080   21.7950   32.5130 H   0  0  0  0  0  0  0  0  0  0  0  0
   37.3070   23.3720   33.5950 H   0  0  0  0  0  0  0  0  0  0  0  0
   36.7000   25.5820   32.7110 O   0  0  0  0  0  0  0  0  0  0  0  0
   36.8770   26.5300   32.8290 H   0  0  0  0  0  0  0  0  0  0  0  0
   35.6580   23.4660   31.3490 S   0  0  0  0  0  0  0  0  0  0  0  0
   35.5740   20.0380   33.3250 C   0  0  0  0  0  0  0  0  0  0  0  0
   35.7650   19.0470   32.3550 C   0  0  0  0  0  0  0  0  0  0  0  0
   35.9260   19.4720   31.0250 C   0  0  0  0  0  0  0  0  0  0  0  0
   35.8890   20.8000   30.7550 N   0  0  0  0  0  0  0  0  0  0  0  0
   35.7030   21.7180   31.7300 C   0  0  0  0  0  0  0  0  0  0  0  0
   35.5430   21.3510   33.0280 N   0  0  0  0  0  0  0  0  0  0  0  0
   35.4490   19.7350   34.3520 H   0  0  0  0  0  0  0  0  0  0  0  0
   35.7890   17.9920   32.6000 H   0  0  0  0  0  0  0  0  0  0  0  0
   36.0760   18.7770   30.2240 H   0  0  0  0  0  0  0  0  0  0  0  0
   39.1530   24.2160   34.0630 O   0  0  0  0  0  0  0  0  0  0  0  0
   41.6560   22.6670   34.1680 Cl  0  0  0  0  0  0  0  0  0  0  0  0
   40.5130   22.9800   35.4530 C   0  0  0  0  0  0  0  0  0  0  0  0
   39.3740   23.7340   35.2810 C   0  0  0  0  0  0  0  0  0  0  0  0
   38.5470   23.9350   36.3890 C   0  0  0  0  0  0  0  0  0  0  0  0
   38.8710   23.3910   37.6150 C   0  0  0  0  0  0  0  0  0  0  0  0
   40.0140   22.6300   37.7960 C   0  0  0  0  0  0  0  0  0  0  0  0
   40.8340   22.4330   36.6870 C   0  0  0  0  0  0  0  0  0  0  0  0
   37.6410   24.5130   36.3570 H   0  0  0  0  0  0  0  0  0  0  0  0
   38.2790   23.5070   38.5080 H   0  0  0  0  0  0  0  0  0  0  0  0
   40.2790   22.1990   38.7490 H   0  0  0  0  0  0  0  0  0  0  0  0
   42.0640   21.6190   36.8710 C   0  0  0  0  0  0  0  0  0  0  0  0
   42.1590   20.6070   35.9320 F   0  0  0  0  0  0  0  0  0  0  0  0
   41.9720   21.0310   38.1390 F   0  0  0  0  0  0  0  0  0  0  0  0
   43.1920   22.3900   36.9050 F   0  0  0  0  0  0  0  0  0  0  0  0
  1  6  1  6  0  0  0
  1 11  1  0  0  0  0
  1  5  1  0  0  0  0
  2  7  1  6  0  0  0
  2 13  1  0  0  0  0
  2  1  1  0  0  0  0
  3  2  1  0  0  0  0
  3  4  1  0  0  0  0
  4  9  1  0  0  0  0
  4  5  1  0  0  0  0
  5 10  1  1  0  0  0
  5 23  1  0  0  0  0
  8  4  1  0  0  0  0
 11 12  1  0  0  0  0
 13 18  1  0  0  0  0
 14 20  1  0  0  0  0
 15 21  1  0  0  0  0
 15 14  2  0  0  0  0
 16 15  1  0  0  0  0
 17 16  2  0  0  0  0
 17 18  1  0  0  0  0
 18 19  2  0  0  0  0
 19 14  1  0  0  0  0
 22 16  1  0  0  0  0
 23 26  1  0  0  0  0
 24 25  1  0  0  0  0
 25 30  1  0  0  0  0
 26 25  2  0  0  0  0
 26 27  1  0  0  0  0
 27 28  2  0  0  0  0
 28 29  1  0  0  0  0
 28 32  1  0  0  0  0
 29 33  1  0  0  0  0
 30 34  1  0  0  0  0
 30 29  2  0  0  0  0
 31 27  1  0  0  0  0
 34 37  1  0  0  0  0
 34 36  1  0  0  0  0
 35 34  1  0  0  0  0
M  END
>  <minimizedAffinity>
-5.42911959

$$$$

 OpenBabel03272506493D

 37 39  0  0  1  0  0  0  0  0999 V2000
   37.2830   24.8670   30.7950 C   0  0  2  0  0  0  0  0  0  0  0  0
   37.4030   23.3920   31.0360 C   0  0  1  0  0  0  0  0  0  0  0  0
   38.3170   23.1990   32.0290 O   0  0  0  0  0  0  0  0  0  0  0  0
   38.5880   24.4160   32.6440 C   0  0  0  0  0  0  0  0  0  0  0  0
   37.4850   25.3700   32.2590 C   0  0  1  0  0  0  0  0  0  0  0  0
   38.0470   25.3110   30.1630 H   0  0  0  0  0  0  0  0  0  0  0  0
   37.6230   22.8620   30.0910 H   0  0  0  0  0  0  0  0  0  0  0  0
   39.5880   24.6940   32.3550 H   0  0  0  0  0  0  0  0  0  0  0  0
   38.6200   24.2590   33.7540 H   0  0  0  0  0  0  0  0  0  0  0  0
   36.5420   25.2250   32.7700 H   0  0  0  0  0  0  0  0  0  0  0  0
   35.9780   25.1990   30.3790 O   0  0  0  0  0  0  0  0  0  0  0  0
   35.9710   25.7610   29.5870 H   0  0  0  0  0  0  0  0  0  0  0  0
   35.7730   22.7950   31.6420 S   0  0  0  0  0  0  0  0  0  0  0  0
   35.4240   19.0950   33.0010 C   0  0  0  0  0  0  0  0  0  0  0  0
   35.8920   18.2750   31.9680 C   0  0  0  0  0  0  0  0  0  0  0  0
   36.3360   18.9100   30.7950 C   0  0  0  0  0  0  0  0  0  0  0  0
   36.2870   20.2630   30.7260 N   0  0  0  0  0  0  0  0  0  0  0  0
   35.8260   21.0100   31.7550 C   0  0  0  0  0  0  0  0  0  0  0  0
   35.3890   20.4380   32.9070 N   0  0  0  0  0  0  0  0  0  0  0  0
   35.0800   18.6290   33.9110 H   0  0  0  0  0  0  0  0  0  0  0  0
   35.9190   17.1950   32.0510 H   0  0  0  0  0  0  0  0  0  0  0  0
   36.7070   18.3550   29.9580 H   0  0  0  0  0  0  0  0  0  0  0  0
   37.9780   26.6520   32.2760 O   0  0  0  0  0  0  0  0  0  0  0  0
   36.7600   27.5080   34.8180 Cl  0  0  0  0  0  0  0  0  0  0  0  0
   36.6460   28.2620   33.2450 C   0  0  0  0  0  0  0  0  0  0  0  0
   37.2750   27.7680   32.1250 C   0  0  0  0  0  0  0  0  0  0  0  0
   37.1290   28.4720   30.9270 C   0  0  0  0  0  0  0  0  0  0  0  0
   36.3760   29.6270   30.8780 C   0  0  0  0  0  0  0  0  0  0  0  0
   35.7390   30.1300   32.0000 C   0  0  0  0  0  0  0  0  0  0  0  0
   35.8880   29.4240   33.1920 C   0  0  0  0  0  0  0  0  0  0  0  0
   37.5860   28.1690   30.0010 H   0  0  0  0  0  0  0  0  0  0  0  0
   36.2230   30.2170   29.9890 H   0  0  0  0  0  0  0  0  0  0  0  0
   35.1480   31.0330   31.9760 H   0  0  0  0  0  0  0  0  0  0  0  0
   35.2090   29.9560   34.4020 C   0  0  0  0  0  0  0  0  0  0  0  0
   34.2280   29.0970   34.8640 F   0  0  0  0  0  0  0  0  0  0  0  0
   34.5960   31.1570   34.0240 F   0  0  0  0  0  0  0  0  0  0  0  0
   36.0970   30.2920   35.3850 F   0  0  0  0  0  0  0  0  0  0  0  0
  1  6  1  6  0  0  0
  1  2  1  0  0  0  0
  1  5  1  0  0  0  0
  2  7  1  6  0  0  0
  2 13  1  0  0  0  0
  2  3  1  0  0  0  0
  3  4  1  0  0  0  0
  4  9  1  0  0  0  0
  5 23  1  0  0  0  0
  5  4  1  0  0  0  0
  5 10  1  1  0  0  0
  8  4  1  0  0  0  0
 11  1  1  0  0  0  0
 12 11  1  0  0  0  0
 13 18  1  0  0  0  0
 14 20  1  0  0  0  0
 15 21  1  0  0  0  0
 15 14  2  0  0  0  0
 16 15  1  0  0  0  0
 17 16  2  0  0  0  0
 17 18  1  0  0  0  0
 18 19  2  0  0  0  0
 19 14  1  0  0  0  0
 22 16  1  0  0  0  0
 25 24  1  0  0  0  0
 26 23  1  0  0  0  0
 26 25  2  0  0  0  0
 27 26  1  0  0  0  0
 28 27  2  0  0  0  0
 28 29  1  0  0  0  0
 29 30  2  0  0  0  0
 30 25  1  0  0  0  0
 30 34  1  0  0  0  0
 31 27  1  0  0  0  0
 32 28  1  0  0  0  0
 33 29  1  0  0  0  0
 34 35  1  0  0  0  0
 34 37  1  0  0  0  0
 36 34  1  0  0  0  0
M  END
>  <minimizedAffinity>
-5.41701555

$$$$

 OpenBabel03272506493D

 37 39  0  0  1  0  0  0  0  0999 V2000
   37.9200   27.5450   34.2630 C   0  0  2  0  0  0  0  0  0  0  0  0
   36.9150   28.2200   33.3780 C   0  0  1  0  0  0  0  0  0  0  0  0
   36.5430   27.3370   32.4090 O   0  0  0  0  0  0  0  0  0  0  0  0
   36.9970   26.0670   32.7490 C   0  0  0  0  0  0  0  0  0  0  0  0
   37.3480   26.0930   34.2150 C   0  0  1  0  0  0  0  0  0  0  0  0
   38.9430   27.5310   33.8990 H   0  0  0  0  0  0  0  0  0  0  0  0
   37.3140   29.1810   33.0030 H   0  0  0  0  0  0  0  0  0  0  0  0
   37.7970   25.8300   32.0660 H   0  0  0  0  0  0  0  0  0  0  0  0
   36.1820   25.3260   32.5390 H   0  0  0  0  0  0  0  0  0  0  0  0
   36.5080   26.0680   34.8970 H   0  0  0  0  0  0  0  0  0  0  0  0
   37.8230   28.0260   35.5840 O   0  0  0  0  0  0  0  0  0  0  0  0
   38.6860   28.2790   35.9520 H   0  0  0  0  0  0  0  0  0  0  0  0
   35.4350   28.5930   34.4030 S   0  0  0  0  0  0  0  0  0  0  0  0
   36.1470   32.1910   35.8880 C   0  0  0  0  0  0  0  0  0  0  0  0
   35.3110   33.0580   35.1750 C   0  0  0  0  0  0  0  0  0  0  0  0
   34.4900   32.4900   34.1860 C   0  0  0  0  0  0  0  0  0  0  0  0
   34.5490   31.1520   33.9780 N   0  0  0  0  0  0  0  0  0  0  0  0
   35.3750   30.3570   34.6960 C   0  0  0  0  0  0  0  0  0  0  0  0
   36.1850   30.8640   35.6610 N   0  0  0  0  0  0  0  0  0  0  0  0
   36.7860   32.6060   36.6520 H   0  0  0  0  0  0  0  0  0  0  0  0
   35.2850   34.1250   35.3630 H   0  0  0  0  0  0  0  0  0  0  0  0
   33.8220   33.0840   33.5960 H   0  0  0  0  0  0  0  0  0  0  0  0
   38.3330   25.1660   34.4540 O   0  0  0  0  0  0  0  0  0  0  0  0
   40.8350   23.6150   34.3550 Cl  0  0  0  0  0  0  0  0  0  0  0  0
   39.6920   23.7580   35.6700 C   0  0  0  0  0  0  0  0  0  0  0  0
   38.5540   24.5290   35.5990 C   0  0  0  0  0  0  0  0  0  0  0  0
   37.7280   24.5840   36.7240 C   0  0  0  0  0  0  0  0  0  0  0  0
   38.0520   23.8840   37.8680 C   0  0  0  0  0  0  0  0  0  0  0  0
   39.1950   23.1060   37.9470 C   0  0  0  0  0  0  0  0  0  0  0  0
   40.0140   23.0540   36.8220 C   0  0  0  0  0  0  0  0  0  0  0  0
   36.8220   25.1630   36.7680 H   0  0  0  0  0  0  0  0  0  0  0  0
   37.4600   23.8830   38.7690 H   0  0  0  0  0  0  0  0  0  0  0  0
   39.4600   22.5530   38.8360 H   0  0  0  0  0  0  0  0  0  0  0  0
   41.2430   22.2220   36.8970 C   0  0  0  0  0  0  0  0  0  0  0  0
   41.3300   21.3310   35.8420 F   0  0  0  0  0  0  0  0  0  0  0  0
   41.1580   21.4850   38.0850 F   0  0  0  0  0  0  0  0  0  0  0  0
   42.3730   22.9820   37.0180 F   0  0  0  0  0  0  0  0  0  0  0  0
  1  6  1  6  0  0  0
  1 11  1  0  0  0  0
  2  7  1  6  0  0  0
  2  1  1  0  0  0  0
  2 13  1  0  0  0  0
  3  4  1  0  0  0  0
  3  2  1  0  0  0  0
  4  5  1  0  0  0  0
  5  1  1  0  0  0  0
  5 23  1  0  0  0  0
  5 10  1  1  0  0  0
  8  4  1  0  0  0  0
  9  4  1  0  0  0  0
 11 12  1  0  0  0  0
 13 18  1  0  0  0  0
 14 20  1  0  0  0  0
 15 21  1  0  0  0  0
 15 14  2  0  0  0  0
 16 15  1  0  0  0  0
 17 16  2  0  0  0  0
 17 18  1  0  0  0  0
 18 19  2  0  0  0  0
 19 14  1  0  0  0  0
 22 16  1  0  0  0  0
 23 26  1  0  0  0  0
 24 25  1  0  0  0  0
 25 30  1  0  0  0  0
 26 25  2  0  0  0  0
 26 27  1  0  0  0  0
 27 31  1  0  0  0  0
 27 28  2  0  0  0  0
 28 29  1  0  0  0  0
 28 32  1  0  0  0  0
 29 33  1  0  0  0  0
 30 34  1  0  0  0  0
 30 29  2  0  0  0  0
 34 37  1  0  0  0  0
 34 36  1  0  0  0  0
 35 34  1  0  0  0  0
M  END
>  <minimizedAffinity>
-5.3957634

$$$$

 OpenBabel03272506493D

 37 39  0  0  1  0  0  0  0  0999 V2000
   37.7800   27.4020   33.1240 C   0  0  2  0  0  0  0  0  0  0  0  0
   38.6430   26.5610   34.0180 C   0  0  1  0  0  0  0  0  0  0  0  0
   38.6850   27.1540   35.2440 O   0  0  0  0  0  0  0  0  0  0  0  0
   37.7070   28.1400   35.3100 C   0  0  0  0  0  0  0  0  0  0  0  0
   36.7390   27.8900   34.1800 C   0  0  1  0  0  0  0  0  0  0  0  0
   38.2580   28.2680   32.6760 H   0  0  0  0  0  0  0  0  0  0  0  0
   39.6290   26.3870   33.5510 H   0  0  0  0  0  0  0  0  0  0  0  0
   38.2210   29.0880   35.3020 H   0  0  0  0  0  0  0  0  0  0  0  0
   37.1960   28.0750   36.3060 H   0  0  0  0  0  0  0  0  0  0  0  0
   36.0460   27.0720   34.3330 H   0  0  0  0  0  0  0  0  0  0  0  0
   37.1170   26.5990   32.1730 O   0  0  0  0  0  0  0  0  0  0  0  0
   37.2050   26.9430   31.2700 H   0  0  0  0  0  0  0  0  0  0  0  0
   37.8200   24.9270   34.2060 S   0  0  0  0  0  0  0  0  0  0  0  0
   37.8960   23.8960   38.0250 C   0  0  0  0  0  0  0  0  0  0  0  0
   39.0600   23.1340   38.1800 C   0  0  0  0  0  0  0  0  0  0  0  0
   39.8550   22.9350   37.0380 C   0  0  0  0  0  0  0  0  0  0  0  0
   39.4580   23.4830   35.8630 N   0  0  0  0  0  0  0  0  0  0  0  0
   38.3230   24.2130   35.7670 C   0  0  0  0  0  0  0  0  0  0  0  0
   37.5260   24.4300   36.8460 N   0  0  0  0  0  0  0  0  0  0  0  0
   37.2710   24.0610   38.8890 H   0  0  0  0  0  0  0  0  0  0  0  0
   39.3520   22.7070   39.1330 H   0  0  0  0  0  0  0  0  0  0  0  0
   40.7600   22.3650   37.0720 H   0  0  0  0  0  0  0  0  0  0  0  0
   36.1750   29.0830   33.8020 O   0  0  0  0  0  0  0  0  0  0  0  0
   36.0680   31.1890   35.8590 Cl  0  0  0  0  0  0  0  0  0  0  0  0
   34.7460   30.4480   34.9870 C   0  0  0  0  0  0  0  0  0  0  0  0
   34.9260   29.4720   34.0330 C   0  0  0  0  0  0  0  0  0  0  0  0
   33.7940   28.9720   33.3850 C   0  0  0  0  0  0  0  0  0  0  0  0
   32.5370   29.4490   33.6980 C   0  0  0  0  0  0  0  0  0  0  0  0
   32.3480   30.4300   34.6570 C   0  0  0  0  0  0  0  0  0  0  0  0
   33.4810   30.9250   35.2990 C   0  0  0  0  0  0  0  0  0  0  0  0
   33.8330   28.2140   32.6230 H   0  0  0  0  0  0  0  0  0  0  0  0
   31.6250   29.1070   33.2370 H   0  0  0  0  0  0  0  0  0  0  0  0
   31.3710   30.8120   34.9110 H   0  0  0  0  0  0  0  0  0  0  0  0
   33.2880   31.9790   36.3300 C   0  0  0  0  0  0  0  0  0  0  0  0
   31.9520   32.2940   36.5020 F   0  0  0  0  0  0  0  0  0  0  0  0
   33.9490   33.1220   35.8650 F   0  0  0  0  0  0  0  0  0  0  0  0
   33.8940   31.6590   37.5130 F   0  0  0  0  0  0  0  0  0  0  0  0
  1  6  1  6  0  0  0
  1  2  1  0  0  0  0
  1  5  1  0  0  0  0
  2  7  1  6  0  0  0
  2 13  1  0  0  0  0
  2  3  1  0  0  0  0
  3  4  1  0  0  0  0
  4  9  1  0  0  0  0
  5 10  1  1  0  0  0
  5  4  1  0  0  0  0
  8  4  1  0  0  0  0
 11  1  1  0  0  0  0
 12 11  1  0  0  0  0
 13 18  1  0  0  0  0
 14 15  1  0  0  0  0
 14 20  1  0  0  0  0
 15 21  1  0  0  0  0
 16 22  1  0  0  0  0
 16 15  2  0  0  0  0
 17 16  1  0  0  0  0
 18 17  2  0  0  0  0
 18 19  1  0  0  0  0
 19 14  2  0  0  0  0
 23 26  1  0  0  0  0
 23  5  1  0  0  0  0
 25 30  1  0  0  0  0
 25 24  1  0  0  0  0
 26 25  2  0  0  0  0
 27 28  2  0  0  0  0
 27 26  1  0  0  0  0
 28 29  1  0  0  0  0
 29 33  1  0  0  0  0
 29 30  2  0  0  0  0
 30 34  1  0  0  0  0
 31 27  1  0  0  0  0
 32 28  1  0  0  0  0
 34 35  1  0  0  0  0
 34 37  1  0  0  0  0
 36 34  1  0  0  0  0
M  END
>  <minimizedAffinity>
-5.17815971

$$$$

 OpenBabel03272506493D

 37 39  0  0  1  0  0  0  0  0999 V2000
   37.0860   27.9740   32.9310 C   0  0  2  0  0  0  0  0  0  0  0  0
   36.2130   29.0850   32.4280 C   0  0  1  0  0  0  0  0  0  0  0  0
   35.9600   28.8590   31.1080 O   0  0  0  0  0  0  0  0  0  0  0  0
   36.3490   27.5640   30.7830 C   0  0  0  0  0  0  0  0  0  0  0  0
   36.5070   26.8030   32.0750 C   0  0  1  0  0  0  0  0  0  0  0  0
   38.1480   28.0690   32.7220 H   0  0  0  0  0  0  0  0  0  0  0  0
   36.6690   30.0660   32.6520 H   0  0  0  0  0  0  0  0  0  0  0  0
   37.2280   27.6500   30.1640 H   0  0  0  0  0  0  0  0  0  0  0  0
   35.5590   27.1030   30.1340 H   0  0  0  0  0  0  0  0  0  0  0  0
   35.5850   26.4970   32.5530 H   0  0  0  0  0  0  0  0  0  0  0  0
   36.8250   27.7120   34.2910 O   0  0  0  0  0  0  0  0  0  0  0  0
   37.6350   27.6710   34.8250 H   0  0  0  0  0  0  0  0  0  0  0  0
   34.6180   28.9910   33.3360 S   0  0  0  0  0  0  0  0  0  0  0  0
   35.9010   31.5940   36.0270 C   0  0  0  0  0  0  0  0  0  0  0  0
   34.7590   31.9880   36.7350 C   0  0  0  0  0  0  0  0  0  0  0  0
   33.5350   31.4130   36.3520 C   0  0  0  0  0  0  0  0  0  0  0  0
   33.5240   30.5200   35.3310 N   0  0  0  0  0  0  0  0  0  0  0  0
   34.6570   30.1730   34.6800 C   0  0  0  0  0  0  0  0  0  0  0  0
   35.8610   30.7040   35.0170 N   0  0  0  0  0  0  0  0  0  0  0  0
   36.8510   32.0230   36.3040 H   0  0  0  0  0  0  0  0  0  0  0  0
   34.7980   32.7050   37.5460 H   0  0  0  0  0  0  0  0  0  0  0  0
   32.6160   31.6620   36.8420 H   0  0  0  0  0  0  0  0  0  0  0  0
   37.4400   25.8120   31.8990 O   0  0  0  0  0  0  0  0  0  0  0  0
   35.7110   23.6920   30.8080 Cl  0  0  0  0  0  0  0  0  0  0  0  0
   36.7700   23.6280   32.1970 C   0  0  0  0  0  0  0  0  0  0  0  0
   37.5430   24.6920   32.6050 C   0  0  0  0  0  0  0  0  0  0  0  0
   38.3690   24.5130   33.7180 C   0  0  0  0  0  0  0  0  0  0  0  0
   38.4030   23.3040   34.3800 C   0  0  0  0  0  0  0  0  0  0  0  0
   37.6280   22.2290   33.9770 C   0  0  0  0  0  0  0  0  0  0  0  0
   36.8060   22.4130   32.8670 C   0  0  0  0  0  0  0  0  0  0  0  0
   39.0130   25.2820   34.1080 H   0  0  0  0  0  0  0  0  0  0  0  0
   39.0170   23.0990   35.2430 H   0  0  0  0  0  0  0  0  0  0  0  0
   37.6460   21.2770   34.4860 H   0  0  0  0  0  0  0  0  0  0  0  0
   35.9710   21.2660   32.4260 C   0  0  0  0  0  0  0  0  0  0  0  0
   34.6190   21.5510   32.5020 F   0  0  0  0  0  0  0  0  0  0  0  0
   36.2440   20.2090   33.3030 F   0  0  0  0  0  0  0  0  0  0  0  0
   36.3280   20.8150   31.1860 F   0  0  0  0  0  0  0  0  0  0  0  0
  1  6  1  6  0  0  0
  1 11  1  0  0  0  0
  2  7  1  1  0  0  0
  2  1  1  0  0  0  0
  2 13  1  0  0  0  0
  3  2  1  0  0  0  0
  4  3  1  0  0  0  0
  4  5  1  0  0  0  0
  5 10  1  1  0  0  0
  5  1  1  0  0  0  0
  8  4  1  0  0  0  0
  9  4  1  0  0  0  0
 11 12  1  0  0  0  0
 13 18  1  0  0  0  0
 14 20  1  0  0  0  0
 14 15  1  0  0  0  0
 15 21  1  0  0  0  0
 16 15  2  0  0  0  0
 16 22  1  0  0  0  0
 17 16  1  0  0  0  0
 18 19  1  0  0  0  0
 18 17  2  0  0  0  0
 19 14  2  0  0  0  0
 23  5  1  0  0  0  0
 23 26  1  0  0  0  0
 24 25  1  0  0  0  0
 25 26  2  0  0  0  0
 25 30  1  0  0  0  0
 26 27  1  0  0  0  0
 27 31  1  0  0  0  0
 27 28  2  0  0  0  0
 28 32  1  0  0  0  0
 29 28  1  0  0  0  0
 29 33  1  0  0  0  0
 30 29  2  0  0  0  0
 34 35  1  0  0  0  0
 34 30  1  0  0  0  0
 34 36  1  0  0  0  0
 37 34  1  0  0  0  0
M  END
>  <minimizedAffinity>
-5.14442921

$$$$

 OpenBabel03272506493D

 37 39  0  0  1  0  0  0  0  0999 V2000
   37.8560   24.6730   31.4690 C   0  0  2  0  0  0  0  0  0  0  0  0
   37.7020   23.3160   32.0880 C   0  0  1  0  0  0  0  0  0  0  0  0
   37.8500   23.4460   33.4370 O   0  0  0  0  0  0  0  0  0  0  0  0
   37.8020   24.7950   33.7740 C   0  0  0  0  0  0  0  0  0  0  0  0
   37.2060   25.5310   32.6000 C   0  0  1  0  0  0  0  0  0  0  0  0
   38.8750   25.0140   31.3130 H   0  0  0  0  0  0  0  0  0  0  0  0
   38.3910   22.5940   31.6120 H   0  0  0  0  0  0  0  0  0  0  0  0
   38.8020   25.0780   34.0620 H   0  0  0  0  0  0  0  0  0  0  0  0
   37.1710   24.9140   34.6930 H   0  0  0  0  0  0  0  0  0  0  0  0
   36.1330   25.4340   32.4850 H   0  0  0  0  0  0  0  0  0  0  0  0
   37.0650   24.7830   30.3070 O   0  0  0  0  0  0  0  0  0  0  0  0
   37.5620   25.1340   29.5510 H   0  0  0  0  0  0  0  0  0  0  0  0
   35.9840   22.7470   31.7590 S   0  0  0  0  0  0  0  0  0  0  0  0
   35.4370   19.0050   32.9230 C   0  0  0  0  0  0  0  0  0  0  0  0
   35.9090   18.2160   31.8670 C   0  0  0  0  0  0  0  0  0  0  0  0
   36.4200   18.8860   30.7420 C   0  0  0  0  0  0  0  0  0  0  0  0
   36.4290   20.2420   30.7390 N   0  0  0  0  0  0  0  0  0  0  0  0
   35.9610   20.9580   31.7860 C   0  0  0  0  0  0  0  0  0  0  0  0
   35.4590   20.3510   32.8930 N   0  0  0  0  0  0  0  0  0  0  0  0
   35.0410   18.5110   33.7960 H   0  0  0  0  0  0  0  0  0  0  0  0
   35.8890   17.1330   31.8980 H   0  0  0  0  0  0  0  0  0  0  0  0
   36.8000   18.3570   29.8930 H   0  0  0  0  0  0  0  0  0  0  0  0
   37.6900   26.8150   32.5860 O   0  0  0  0  0  0  0  0  0  0  0  0
   39.0240   27.8050   30.1540 Cl  0  0  0  0  0  0  0  0  0  0  0  0
   37.6130   28.4470   30.9610 C   0  0  0  0  0  0  0  0  0  0  0  0
   37.0730   27.8850   32.0960 C   0  0  0  0  0  0  0  0  0  0  0  0
   35.9280   28.4740   32.6380 C   0  0  0  0  0  0  0  0  0  0  0  0
   35.3620   29.5850   32.0470 C   0  0  0  0  0  0  0  0  0  0  0  0
   35.9000   30.1570   30.9060 C   0  0  0  0  0  0  0  0  0  0  0  0
   37.0410   29.5650   30.3700 C   0  0  0  0  0  0  0  0  0  0  0  0
   35.4310   28.1040   33.5180 H   0  0  0  0  0  0  0  0  0  0  0  0
   34.4810   30.0870   32.4130 H   0  0  0  0  0  0  0  0  0  0  0  0
   35.4670   31.0250   30.4340 H   0  0  0  0  0  0  0  0  0  0  0  0
   37.6260   30.1710   29.1450 C   0  0  0  0  0  0  0  0  0  0  0  0
   38.8870   30.6900   29.3770 F   0  0  0  0  0  0  0  0  0  0  0  0
   36.7810   31.2260   28.7760 F   0  0  0  0  0  0  0  0  0  0  0  0
   37.6160   29.3060   28.0870 F   0  0  0  0  0  0  0  0  0  0  0  0
  1  6  1  6  0  0  0
  1  2  1  0  0  0  0
  1  5  1  0  0  0  0
  2  7  1  6  0  0  0
  2  3  1  0  0  0  0
  3  4  1  0  0  0  0
  4  8  1  0  0  0  0
  4  9  1  0  0  0  0
  5 10  1  6  0  0  0
  5  4  1  0  0  0  0
 11  1  1  0  0  0  0
 12 11  1  0  0  0  0
 13 18  1  0  0  0  0
 13  2  1  0  0  0  0
 14 20  1  0  0  0  0
 15 21  1  0  0  0  0
 15 14  2  0  0  0  0
 16 15  1  0  0  0  0
 17 16  2  0  0  0  0
 17 18  1  0  0  0  0
 18 19  2  0  0  0  0
 19 14  1  0  0  0  0
 22 16  1  0  0  0  0
 23  5  1  0  0  0  0
 24 25  1  0  0  0  0
 25 26  1  0  0  0  0
 26 23  1  0  0  0  0
 26 27  2  0  0  0  0
 27 31  1  0  0  0  0
 28 32  1  0  0  0  0
 28 27  1  0  0  0  0
 29 28  2  0  0  0  0
 30 29  1  0  0  0  0
 30 25  2  0  0  0  0
 33 29  1  0  0  0  0
 34 35  1  0  0  0  0
 34 30  1  0  0  0  0
 36 34  1  0  0  0  0
 37 34  1  0  0  0  0
M  END
>  <minimizedAffinity>
-5.09849834

$$$$
