
 OpenBabel03262523003D

 33 36  0  0  0  0  0  0  0  0999 V2000
   37.2780   26.5190   34.4120 C   0  0  0  0  0  0  0  0  0  0  0  0
   36.8660   26.6560   33.0890 C   0  0  0  0  0  0  0  0  0  0  0  0
   36.3220   27.9040   32.9380 C   0  0  0  0  0  0  0  0  0  0  0  0
   36.4040   28.5150   34.1590 N   0  0  0  0  0  0  0  0  0  0  0  0
   36.9770   27.6570   34.9970 N   0  0  0  0  0  0  0  0  0  0  0  0
   35.6810   30.7360   33.4060 N   0  0  0  0  0  0  0  0  0  0  0  0
   35.9350   29.8350   34.3920 C   0  0  0  0  0  0  0  0  0  0  0  0
   35.6490   30.4610   35.5560 N   0  0  0  0  0  0  0  0  0  0  0  0
   35.2290   31.7190   35.3140 C   0  0  0  0  0  0  0  0  0  0  0  0
   34.8160   32.7890   36.0670 C   0  0  0  0  0  0  0  0  0  0  0  0
   34.4570   33.9340   35.4430 N   0  0  0  0  0  0  0  0  0  0  0  0
   34.4920   34.0590   34.1120 C   0  0  0  0  0  0  0  0  0  0  0  0
   34.8920   33.0290   33.3550 N   0  0  0  0  0  0  0  0  0  0  0  0
   35.2520   31.8880   33.9500 C   0  0  0  0  0  0  0  0  0  0  0  0
   36.9580   25.9130   32.3170 H   0  0  0  0  0  0  0  0  0  0  0  0
   35.9220   28.2690   32.0020 H   0  0  0  0  0  0  0  0  0  0  0  0
   35.8000   30.5710   32.3610 H   0  0  0  0  0  0  0  0  0  0  0  0
   34.2040   34.9770   33.5990 H   0  0  0  0  0  0  0  0  0  0  0  0
   39.1510   23.3810   34.6840 C   0  0  0  0  0  0  0  0  0  0  0  0
   39.0740   23.1160   36.0990 C   0  0  0  0  0  0  0  0  0  0  0  0
   38.3820   24.0250   36.9120 C   0  0  0  0  0  0  0  0  0  0  0  0
   37.8160   25.1130   36.3250 N   0  0  0  0  0  0  0  0  0  0  0  0
   37.9100   25.3300   34.9790 C   0  0  0  0  0  0  0  0  0  0  0  0
   38.5610   24.4780   34.2040 N   0  0  0  0  0  0  0  0  0  0  0  0
   39.6710   22.7100   34.0340 H   0  0  0  0  0  0  0  0  0  0  0  0
   39.5450   22.2420   36.4820 H   0  0  0  0  0  0  0  0  0  0  0  0
   38.2910   23.7700   38.3700 C   0  0  0  0  0  0  0  0  0  0  0  0
   39.5410   23.3080   38.7500 F   0  0  0  0  0  0  0  0  0  0  0  0
   37.3340   22.8360   38.6570 F   0  0  0  0  0  0  0  0  0  0  0  0
   38.0870   24.9620   39.0480 F   0  0  0  0  0  0  0  0  0  0  0  0
   34.7870   32.6280   37.4840 N   0  0  0  0  0  0  0  0  0  0  0  0
   35.7740   32.6010   37.8170 H   0  0  0  0  0  0  0  0  0  0  0  0
   34.0040   32.5420   38.1690 H   0  0  0  0  0  0  0  0  0  0  0  0
  1 23  1  0  0  0  0
  1  5  2  0  0  0  0
  2  1  1  0  0  0  0
  3  2  2  0  0  0  0
  3  4  1  0  0  0  0
  4  7  1  0  0  0  0
  4  5  1  0  0  0  0
  6 14  1  0  0  0  0
  6  7  1  0  0  0  0
  7  8  2  0  0  0  0
  9  8  1  0  0  0  0
  9 10  1  0  0  0  0
 10 31  1  0  0  0  0
 11 10  2  0  0  0  0
 12 11  1  0  0  0  0
 13 14  1  0  0  0  0
 13 12  2  0  0  0  0
 14  9  2  0  0  0  0
 15  2  1  0  0  0  0
 16  3  1  0  0  0  0
 17  6  1  0  0  0  0
 18 12  1  0  0  0  0
 19 20  1  0  0  0  0
 20 26  1  0  0  0  0
 20 21  2  0  0  0  0
 21 27  1  0  0  0  0
 22 21  1  0  0  0  0
 23 22  2  0  0  0  0
 24 19  2  0  0  0  0
 24 23  1  0  0  0  0
 25 19  1  0  0  0  0
 27 29  1  0  0  0  0
 27 28  1  0  0  0  0
 27 30  1  0  0  0  0
 31 32  1  0  0  0  0
 31 33  1  0  0  0  0
M  END
>  <minimizedAffinity>
-6.52697182

$$$$

 OpenBabel03262523003D

 33 36  0  0  0  0  0  0  0  0999 V2000
   38.0850   25.8050   33.7330 C   0  0  0  0  0  0  0  0  0  0  0  0
   38.9780   26.3480   32.8120 C   0  0  0  0  0  0  0  0  0  0  0  0
   38.3810   27.4330   32.2270 C   0  0  0  0  0  0  0  0  0  0  0  0
   37.1380   27.5440   32.7890 N   0  0  0  0  0  0  0  0  0  0  0  0
   37.0100   26.5600   33.6730 N   0  0  0  0  0  0  0  0  0  0  0  0
   36.5670   29.7040   31.7720 N   0  0  0  0  0  0  0  0  0  0  0  0
   36.2180   28.5650   32.4270 C   0  0  0  0  0  0  0  0  0  0  0  0
   34.8840   28.6400   32.6300 N   0  0  0  0  0  0  0  0  0  0  0  0
   34.4030   29.7920   32.1200 C   0  0  0  0  0  0  0  0  0  0  0  0
   33.1770   30.4000   32.0270 C   0  0  0  0  0  0  0  0  0  0  0  0
   33.0830   31.6050   31.4190 N   0  0  0  0  0  0  0  0  0  0  0  0
   34.1500   32.2250   30.9030 C   0  0  0  0  0  0  0  0  0  0  0  0
   35.3580   31.6520   30.9810 N   0  0  0  0  0  0  0  0  0  0  0  0
   35.4740   30.4620   31.5780 C   0  0  0  0  0  0  0  0  0  0  0  0
   39.9660   25.9820   32.5970 H   0  0  0  0  0  0  0  0  0  0  0  0
   38.8600   28.0400   31.4710 H   0  0  0  0  0  0  0  0  0  0  0  0
   37.5480   29.9690   31.4560 H   0  0  0  0  0  0  0  0  0  0  0  0
   34.0860   33.1960   30.4110 H   0  0  0  0  0  0  0  0  0  0  0  0
   38.9670   22.3970   34.7530 C   0  0  0  0  0  0  0  0  0  0  0  0
   38.8110   22.4700   36.1840 C   0  0  0  0  0  0  0  0  0  0  0  0
   38.4090   23.6890   36.7500 C   0  0  0  0  0  0  0  0  0  0  0  0
   38.1850   24.7420   35.9210 N   0  0  0  0  0  0  0  0  0  0  0  0
   38.3430   24.6340   34.5680 C   0  0  0  0  0  0  0  0  0  0  0  0
   38.7220   23.4890   34.0240 N   0  0  0  0  0  0  0  0  0  0  0  0
   39.2720   21.4850   34.2860 H   0  0  0  0  0  0  0  0  0  0  0  0
   39.0060   21.6010   36.7640 H   0  0  0  0  0  0  0  0  0  0  0  0
   38.2420   23.7840   38.2210 C   0  0  0  0  0  0  0  0  0  0  0  0
   39.4670   23.4260   38.7630 F   0  0  0  0  0  0  0  0  0  0  0  0
   37.2620   22.9430   38.6700 F   0  0  0  0  0  0  0  0  0  0  0  0
   38.0180   25.1020   38.5880 F   0  0  0  0  0  0  0  0  0  0  0  0
   32.0560   29.7160   32.5850 N   0  0  0  0  0  0  0  0  0  0  0  0
   32.1490   29.7550   33.6220 H   0  0  0  0  0  0  0  0  0  0  0  0
   31.2380   29.2320   32.1530 H   0  0  0  0  0  0  0  0  0  0  0  0
  1 23  1  0  0  0  0
  2  1  1  0  0  0  0
  3  4  1  0  0  0  0
  3  2  2  0  0  0  0
  4  5  1  0  0  0  0
  5  1  2  0  0  0  0
  6  7  1  0  0  0  0
  7  8  2  0  0  0  0
  7  4  1  0  0  0  0
  9  8  1  0  0  0  0
 10  9  1  0  0  0  0
 10 31  1  0  0  0  0
 11 10  2  0  0  0  0
 12 13  2  0  0  0  0
 12 11  1  0  0  0  0
 13 14  1  0  0  0  0
 14  6  1  0  0  0  0
 14  9  2  0  0  0  0
 15  2  1  0  0  0  0
 16  3  1  0  0  0  0
 17  6  1  0  0  0  0
 18 12  1  0  0  0  0
 19 20  1  0  0  0  0
 20 21  2  0  0  0  0
 20 26  1  0  0  0  0
 21 27  1  0  0  0  0
 22 21  1  0  0  0  0
 23 22  2  0  0  0  0
 24 23  1  0  0  0  0
 24 19  2  0  0  0  0
 25 19  1  0  0  0  0
 27 30  1  0  0  0  0
 27 29  1  0  0  0  0
 27 28  1  0  0  0  0
 31 32  1  0  0  0  0
 33 31  1  0  0  0  0
M  END
>  <minimizedAffinity>
-6.31210136

$$$$

 OpenBabel03262523003D

 33 36  0  0  0  0  0  0  0  0999 V2000
   37.0190   27.6720   33.6430 C   0  0  0  0  0  0  0  0  0  0  0  0
   38.0210   27.5820   32.6810 C   0  0  0  0  0  0  0  0  0  0  0  0
   38.8760   26.5760   33.0460 C   0  0  0  0  0  0  0  0  0  0  0  0
   38.3950   26.0630   34.2200 N   0  0  0  0  0  0  0  0  0  0  0  0
   37.2960   26.7430   34.5320 N   0  0  0  0  0  0  0  0  0  0  0  0
   39.9350   24.1570   34.3410 N   0  0  0  0  0  0  0  0  0  0  0  0
   39.0260   24.9930   34.9090 C   0  0  0  0  0  0  0  0  0  0  0  0
   38.8870   24.5850   36.1900 N   0  0  0  0  0  0  0  0  0  0  0  0
   39.6820   23.5210   36.4250 C   0  0  0  0  0  0  0  0  0  0  0  0
   39.9580   22.7070   37.4940 C   0  0  0  0  0  0  0  0  0  0  0  0
   40.8510   21.7020   37.3430 N   0  0  0  0  0  0  0  0  0  0  0  0
   41.4760   21.4750   36.1820 C   0  0  0  0  0  0  0  0  0  0  0  0
   41.2230   22.2560   35.1240 N   0  0  0  0  0  0  0  0  0  0  0  0
   40.3440   23.2550   35.2500 C   0  0  0  0  0  0  0  0  0  0  0  0
   38.1100   28.1930   31.8010 H   0  0  0  0  0  0  0  0  0  0  0  0
   39.7460   26.2950   32.4680 H   0  0  0  0  0  0  0  0  0  0  0  0
   40.2800   24.1960   33.3350 H   0  0  0  0  0  0  0  0  0  0  0  0
   42.1970   20.6670   36.0500 H   0  0  0  0  0  0  0  0  0  0  0  0
   34.0140   29.4720   32.5670 C   0  0  0  0  0  0  0  0  0  0  0  0
   33.8520   30.4330   33.6290 C   0  0  0  0  0  0  0  0  0  0  0  0
   34.7810   30.4290   34.6800 C   0  0  0  0  0  0  0  0  0  0  0  0
   35.7900   29.5190   34.6450 N   0  0  0  0  0  0  0  0  0  0  0  0
   35.9110   28.6230   33.6200 C   0  0  0  0  0  0  0  0  0  0  0  0
   35.0390   28.6180   32.6250 N   0  0  0  0  0  0  0  0  0  0  0  0
   33.3240   29.4440   31.7500 H   0  0  0  0  0  0  0  0  0  0  0  0
   33.0350   31.1120   33.5840 H   0  0  0  0  0  0  0  0  0  0  0  0
   34.6320   31.4110   35.7820 C   0  0  0  0  0  0  0  0  0  0  0  0
   35.8440   31.4090   36.4540 F   0  0  0  0  0  0  0  0  0  0  0  0
   33.6200   31.0590   36.6320 F   0  0  0  0  0  0  0  0  0  0  0  0
   34.4690   32.6860   35.2620 F   0  0  0  0  0  0  0  0  0  0  0  0
   39.2780   22.9720   38.7200 N   0  0  0  0  0  0  0  0  0  0  0  0
   38.2830   22.6960   38.5930 H   0  0  0  0  0  0  0  0  0  0  0  0
   39.5980   23.3620   39.6340 H   0  0  0  0  0  0  0  0  0  0  0  0
  1  5  2  0  0  0  0
  2  3  2  0  0  0  0
  2  1  1  0  0  0  0
  3  4  1  0  0  0  0
  4  5  1  0  0  0  0
  4  7  1  0  0  0  0
  6  7  1  0  0  0  0
  6 14  1  0  0  0  0
  7  8  2  0  0  0  0
  8  9  1  0  0  0  0
  9 10  1  0  0  0  0
 10 31  1  0  0  0  0
 11 10  2  0  0  0  0
 12 11  1  0  0  0  0
 13 14  1  0  0  0  0
 13 12  2  0  0  0  0
 14  9  2  0  0  0  0
 15  2  1  0  0  0  0
 16  3  1  0  0  0  0
 17  6  1  0  0  0  0
 18 12  1  0  0  0  0
 19 24  2  0  0  0  0
 19 20  1  0  0  0  0
 20 21  2  0  0  0  0
 21 27  1  0  0  0  0
 22 21  1  0  0  0  0
 23  1  1  0  0  0  0
 23 22  2  0  0  0  0
 24 23  1  0  0  0  0
 25 19  1  0  0  0  0
 26 20  1  0  0  0  0
 27 28  1  0  0  0  0
 27 29  1  0  0  0  0
 30 27  1  0  0  0  0
 31 33  1  0  0  0  0
 32 31  1  0  0  0  0
M  END
>  <minimizedAffinity>
-6.26590252

$$$$

 OpenBabel03262523003D

 33 36  0  0  0  0  0  0  0  0999 V2000
   37.6970   26.0330   34.1040 C   0  0  0  0  0  0  0  0  0  0  0  0
   37.0210   27.1460   34.5960 C   0  0  0  0  0  0  0  0  0  0  0  0
   36.9840   28.0950   33.6090 C   0  0  0  0  0  0  0  0  0  0  0  0
   37.6330   27.5590   32.5300 N   0  0  0  0  0  0  0  0  0  0  0  0
   38.0360   26.3400   32.8710 N   0  0  0  0  0  0  0  0  0  0  0  0
   37.0640   29.3490   30.9490 N   0  0  0  0  0  0  0  0  0  0  0  0
   37.7970   28.2600   31.3040 C   0  0  0  0  0  0  0  0  0  0  0  0
   38.6520   28.0300   30.2830 N   0  0  0  0  0  0  0  0  0  0  0  0
   38.4650   28.9450   29.3100 C   0  0  0  0  0  0  0  0  0  0  0  0
   39.0130   29.2120   28.0810 C   0  0  0  0  0  0  0  0  0  0  0  0
   38.5460   30.2600   27.3640 N   0  0  0  0  0  0  0  0  0  0  0  0
   37.5640   31.0480   27.8160 C   0  0  0  0  0  0  0  0  0  0  0  0
   37.0130   30.8080   29.0130 N   0  0  0  0  0  0  0  0  0  0  0  0
   37.4580   29.7780   29.7370 C   0  0  0  0  0  0  0  0  0  0  0  0
   36.5980   27.2460   35.5800 H   0  0  0  0  0  0  0  0  0  0  0  0
   36.5130   29.0610   33.7290 H   0  0  0  0  0  0  0  0  0  0  0  0
   36.2950   29.8020   31.5280 H   0  0  0  0  0  0  0  0  0  0  0  0
   37.1810   31.8950   27.2460 H   0  0  0  0  0  0  0  0  0  0  0  0
   38.3720   22.5110   34.8600 C   0  0  0  0  0  0  0  0  0  0  0  0
   38.4210   22.5250   36.3010 C   0  0  0  0  0  0  0  0  0  0  0  0
   38.2220   23.7450   36.9630 C   0  0  0  0  0  0  0  0  0  0  0  0
   37.9910   24.8550   36.2140 N   0  0  0  0  0  0  0  0  0  0  0  0
   37.9510   24.8030   34.8500 C   0  0  0  0  0  0  0  0  0  0  0  0
   38.1380   23.6560   34.2150 N   0  0  0  0  0  0  0  0  0  0  0  0
   38.5200   21.6000   34.3210 H   0  0  0  0  0  0  0  0  0  0  0  0
   38.6080   21.6130   36.8150 H   0  0  0  0  0  0  0  0  0  0  0  0
   38.2690   23.7800   38.4460 C   0  0  0  0  0  0  0  0  0  0  0  0
   37.3870   22.8000   38.8740 F   0  0  0  0  0  0  0  0  0  0  0  0
   37.8900   25.0020   38.9300 F   0  0  0  0  0  0  0  0  0  0  0  0
   39.5270   23.4020   38.8890 F   0  0  0  0  0  0  0  0  0  0  0  0
   40.0590   28.3560   27.6240 N   0  0  0  0  0  0  0  0  0  0  0  0
   39.6310   27.4370   27.3850 H   0  0  0  0  0  0  0  0  0  0  0  0
   41.0860   28.4990   27.5040 H   0  0  0  0  0  0  0  0  0  0  0  0
  1  2  1  0  0  0  0
  1 23  1  0  0  0  0
  2 15  1  0  0  0  0
  3 16  1  0  0  0  0
  3  2  2  0  0  0  0
  4  5  1  0  0  0  0
  4  3  1  0  0  0  0
  5  1  2  0  0  0  0
  6  7  1  0  0  0  0
  6 17  1  0  0  0  0
  7  4  1  0  0  0  0
  8  7  2  0  0  0  0
  9 14  1  0  0  0  0
  9  8  1  0  0  0  0
 10  9  2  0  0  0  0
 11 12  2  0  0  0  0
 11 10  1  0  0  0  0
 12 13  1  0  0  0  0
 13 14  2  0  0  0  0
 14  6  1  0  0  0  0
 18 12  1  0  0  0  0
 19 20  1  0  0  0  0
 20 26  1  0  0  0  0
 20 21  2  0  0  0  0
 21 27  1  0  0  0  0
 22 21  1  0  0  0  0
 23 22  2  0  0  0  0
 24 23  1  0  0  0  0
 24 19  2  0  0  0  0
 25 19  1  0  0  0  0
 27 28  1  0  0  0  0
 27 30  1  0  0  0  0
 27 29  1  0  0  0  0
 31 10  1  0  0  0  0
 32 31  1  0  0  0  0
 33 31  1  0  0  0  0
M  END
>  <minimizedAffinity>
-6.21827888

$$$$

 OpenBabel03262523003D

 33 36  0  0  0  0  0  0  0  0999 V2000
   37.9100   25.2760   35.0660 C   0  0  0  0  0  0  0  0  0  0  0  0
   37.9690   24.8660   33.7360 C   0  0  0  0  0  0  0  0  0  0  0  0
   37.4300   25.8570   32.9590 C   0  0  0  0  0  0  0  0  0  0  0  0
   37.0480   26.8570   33.8130 N   0  0  0  0  0  0  0  0  0  0  0  0
   37.3530   26.4670   35.0460 N   0  0  0  0  0  0  0  0  0  0  0  0
   36.4850   28.5000   32.0790 N   0  0  0  0  0  0  0  0  0  0  0  0
   36.4430   28.0610   33.3650 C   0  0  0  0  0  0  0  0  0  0  0  0
   35.7340   28.9830   34.0550 N   0  0  0  0  0  0  0  0  0  0  0  0
   35.3420   29.9760   33.2310 C   0  0  0  0  0  0  0  0  0  0  0  0
   34.6270   31.1400   33.3510 C   0  0  0  0  0  0  0  0  0  0  0  0
   34.4300   31.9090   32.2560 N   0  0  0  0  0  0  0  0  0  0  0  0
   34.9120   31.5700   31.0550 C   0  0  0  0  0  0  0  0  0  0  0  0
   35.6140   30.4390   30.9120 N   0  0  0  0  0  0  0  0  0  0  0  0
   35.8210   29.6640   31.9810 C   0  0  0  0  0  0  0  0  0  0  0  0
   38.3690   23.9350   33.3780 H   0  0  0  0  0  0  0  0  0  0  0  0
   37.3540   25.7940   31.8830 H   0  0  0  0  0  0  0  0  0  0  0  0
   36.9660   28.0100   31.2660 H   0  0  0  0  0  0  0  0  0  0  0  0
   34.7590   32.1830   30.1650 H   0  0  0  0  0  0  0  0  0  0  0  0
   38.1210   23.8150   38.4200 C   0  0  0  0  0  0  0  0  0  0  0  0
   39.3230   23.0260   38.3210 C   0  0  0  0  0  0  0  0  0  0  0  0
   40.0200   23.0230   37.1050 C   0  0  0  0  0  0  0  0  0  0  0  0
   39.5280   23.7640   36.0770 N   0  0  0  0  0  0  0  0  0  0  0  0
   38.3850   24.5000   36.2090 C   0  0  0  0  0  0  0  0  0  0  0  0
   37.7200   24.5100   37.3530 N   0  0  0  0  0  0  0  0  0  0  0  0
   37.5630   23.8410   39.3320 H   0  0  0  0  0  0  0  0  0  0  0  0
   39.6430   22.4730   39.1710 H   0  0  0  0  0  0  0  0  0  0  0  0
   41.2610   22.2170   36.9830 C   0  0  0  0  0  0  0  0  0  0  0  0
   41.1700   21.5680   35.7620 F   0  0  0  0  0  0  0  0  0  0  0  0
   41.3670   21.3060   37.9970 F   0  0  0  0  0  0  0  0  0  0  0  0
   42.3630   23.0540   36.9050 F   0  0  0  0  0  0  0  0  0  0  0  0
   34.1240   31.4760   34.6430 N   0  0  0  0  0  0  0  0  0  0  0  0
   34.9350   31.7540   35.2330 H   0  0  0  0  0  0  0  0  0  0  0  0
   33.1600   31.4850   35.0450 H   0  0  0  0  0  0  0  0  0  0  0  0
  1 23  1  0  0  0  0
  2  1  1  0  0  0  0
  3  2  2  0  0  0  0
  3  4  1  0  0  0  0
  4  5  1  0  0  0  0
  5  1  2  0  0  0  0
  6  7  1  0  0  0  0
  7  4  1  0  0  0  0
  7  8  2  0  0  0  0
  9 10  1  0  0  0  0
  9  8  1  0  0  0  0
 10 31  1  0  0  0  0
 11 10  2  0  0  0  0
 12 11  1  0  0  0  0
 13 12  2  0  0  0  0
 13 14  1  0  0  0  0
 14  6  1  0  0  0  0
 14  9  2  0  0  0  0
 15  2  1  0  0  0  0
 16  3  1  0  0  0  0
 17  6  1  0  0  0  0
 18 12  1  0  0  0  0
 19 25  1  0  0  0  0
 20 19  1  0  0  0  0
 20 26  1  0  0  0  0
 21 20  2  0  0  0  0
 22 23  2  0  0  0  0
 22 21  1  0  0  0  0
 23 24  1  0  0  0  0
 24 19  2  0  0  0  0
 27 21  1  0  0  0  0
 27 29  1  0  0  0  0
 28 27  1  0  0  0  0
 30 27  1  0  0  0  0
 31 33  1  0  0  0  0
 31 32  1  0  0  0  0
M  END
>  <minimizedAffinity>
-6.16640329

$$$$

 OpenBabel03262523003D

 33 36  0  0  0  0  0  0  0  0999 V2000
   35.7010   29.3600   33.7150 C   0  0  0  0  0  0  0  0  0  0  0  0
   36.2910   29.0800   32.4850 C   0  0  0  0  0  0  0  0  0  0  0  0
   36.9610   27.8900   32.5940 C   0  0  0  0  0  0  0  0  0  0  0  0
   36.7770   27.4550   33.8780 N   0  0  0  0  0  0  0  0  0  0  0  0
   36.0260   28.3580   34.5010 N   0  0  0  0  0  0  0  0  0  0  0  0
   37.7900   25.2420   33.5680 N   0  0  0  0  0  0  0  0  0  0  0  0
   37.3300   26.2410   34.3670 C   0  0  0  0  0  0  0  0  0  0  0  0
   37.5190   25.8250   35.6390 N   0  0  0  0  0  0  0  0  0  0  0  0
   38.0790   24.5980   35.6450 C   0  0  0  0  0  0  0  0  0  0  0  0
   38.4870   23.7000   36.5980 C   0  0  0  0  0  0  0  0  0  0  0  0
   39.0260   22.5230   36.2060 N   0  0  0  0  0  0  0  0  0  0  0  0
   39.1740   22.2050   34.9150 C   0  0  0  0  0  0  0  0  0  0  0  0
   38.7830   23.0650   33.9660 N   0  0  0  0  0  0  0  0  0  0  0  0
   38.2480   24.2340   34.3310 C   0  0  0  0  0  0  0  0  0  0  0  0
   36.2320   29.6900   31.6020 H   0  0  0  0  0  0  0  0  0  0  0  0
   37.5090   27.4400   31.7780 H   0  0  0  0  0  0  0  0  0  0  0  0
   37.7920   25.2410   32.5040 H   0  0  0  0  0  0  0  0  0  0  0  0
   39.6080   21.2590   34.5880 H   0  0  0  0  0  0  0  0  0  0  0  0
   33.6830   32.3870   33.2700 C   0  0  0  0  0  0  0  0  0  0  0  0
   33.3930   32.7480   34.6350 C   0  0  0  0  0  0  0  0  0  0  0  0
   33.9000   31.9390   35.6620 C   0  0  0  0  0  0  0  0  0  0  0  0
   34.6420   30.8530   35.3200 N   0  0  0  0  0  0  0  0  0  0  0  0
   34.8960   30.5420   34.0140 C   0  0  0  0  0  0  0  0  0  0  0  0
   34.4220   31.2990   33.0380 N   0  0  0  0  0  0  0  0  0  0  0  0
   33.3120   32.9800   32.4610 H   0  0  0  0  0  0  0  0  0  0  0  0
   32.8040   33.6140   34.8200 H   0  0  0  0  0  0  0  0  0  0  0  0
   33.6120   32.2950   37.0730 C   0  0  0  0  0  0  0  0  0  0  0  0
   34.8010   32.7870   37.5870 F   0  0  0  0  0  0  0  0  0  0  0  0
   33.2020   31.2050   37.7900 F   0  0  0  0  0  0  0  0  0  0  0  0
   32.6990   33.3360   37.1220 F   0  0  0  0  0  0  0  0  0  0  0  0
   38.3170   24.0650   37.9670 N   0  0  0  0  0  0  0  0  0  0  0  0
   37.2980   24.0310   38.1770 H   0  0  0  0  0  0  0  0  0  0  0  0
   38.9940   24.3330   38.7150 H   0  0  0  0  0  0  0  0  0  0  0  0
  1 23  1  0  0  0  0
  1  5  2  0  0  0  0
  2  3  2  0  0  0  0
  2  1  1  0  0  0  0
  3  4  1  0  0  0  0
  4  7  1  0  0  0  0
  4  5  1  0  0  0  0
  6 14  1  0  0  0  0
  6  7  1  0  0  0  0
  7  8  2  0  0  0  0
  8  9  1  0  0  0  0
  9 10  1  0  0  0  0
 10 31  1  0  0  0  0
 11 10  2  0  0  0  0
 12 11  1  0  0  0  0
 13 14  1  0  0  0  0
 13 12  2  0  0  0  0
 14  9  2  0  0  0  0
 15  2  1  0  0  0  0
 16  3  1  0  0  0  0
 17  6  1  0  0  0  0
 18 12  1  0  0  0  0
 19 20  1  0  0  0  0
 20 26  1  0  0  0  0
 20 21  2  0  0  0  0
 21 27  1  0  0  0  0
 22 21  1  0  0  0  0
 23 22  2  0  0  0  0
 24 19  2  0  0  0  0
 24 23  1  0  0  0  0
 25 19  1  0  0  0  0
 27 30  1  0  0  0  0
 27 28  1  0  0  0  0
 27 29  1  0  0  0  0
 31 32  1  0  0  0  0
 31 33  1  0  0  0  0
M  END
>  <minimizedAffinity>
-5.89959717

$$$$

 OpenBabel03262523003D

 33 36  0  0  0  0  0  0  0  0999 V2000
   39.6350   24.0350   33.7390 C   0  0  0  0  0  0  0  0  0  0  0  0
   39.8910   23.4110   32.5210 C   0  0  0  0  0  0  0  0  0  0  0  0
   39.5550   24.2800   31.5160 C   0  0  0  0  0  0  0  0  0  0  0  0
   39.0990   25.4190   32.1230 N   0  0  0  0  0  0  0  0  0  0  0  0
   39.1660   25.2260   33.4370 N   0  0  0  0  0  0  0  0  0  0  0  0
   38.9420   26.7740   30.0840 N   0  0  0  0  0  0  0  0  0  0  0  0
   38.6550   26.5550   31.3940 C   0  0  0  0  0  0  0  0  0  0  0  0
   37.9010   27.6020   31.7960 N   0  0  0  0  0  0  0  0  0  0  0  0
   37.7180   28.4600   30.7720 C   0  0  0  0  0  0  0  0  0  0  0  0
   37.0680   29.6530   30.5820 C   0  0  0  0  0  0  0  0  0  0  0  0
   37.1080   30.2380   29.3630 N   0  0  0  0  0  0  0  0  0  0  0  0
   37.7630   29.6900   28.3330 C   0  0  0  0  0  0  0  0  0  0  0  0
   38.4060   28.5260   28.4940 N   0  0  0  0  0  0  0  0  0  0  0  0
   38.3800   27.9300   29.6900 C   0  0  0  0  0  0  0  0  0  0  0  0
   40.2850   22.4200   32.3880 H   0  0  0  0  0  0  0  0  0  0  0  0
   39.6570   24.0440   30.4670 H   0  0  0  0  0  0  0  0  0  0  0  0
   39.5210   26.1410   29.4540 H   0  0  0  0  0  0  0  0  0  0  0  0
   37.8020   30.1540   27.3470 H   0  0  0  0  0  0  0  0  0  0  0  0
   41.0070   21.9290   36.4060 C   0  0  0  0  0  0  0  0  0  0  0  0
   40.2360   22.3600   37.5450 C   0  0  0  0  0  0  0  0  0  0  0  0
   39.2710   23.3600   37.3580 C   0  0  0  0  0  0  0  0  0  0  0  0
   39.1090   23.8740   36.1100 N   0  0  0  0  0  0  0  0  0  0  0  0
   39.8590   23.4400   35.0550 C   0  0  0  0  0  0  0  0  0  0  0  0
   40.7720   22.4970   35.2210 N   0  0  0  0  0  0  0  0  0  0  0  0
   41.7510   21.1690   36.5110 H   0  0  0  0  0  0  0  0  0  0  0  0
   40.4230   21.9080   38.4890 H   0  0  0  0  0  0  0  0  0  0  0  0
   38.4670   23.8170   38.5180 C   0  0  0  0  0  0  0  0  0  0  0  0
   37.5030   22.8420   38.7160 F   0  0  0  0  0  0  0  0  0  0  0  0
   37.8750   25.0250   38.2720 F   0  0  0  0  0  0  0  0  0  0  0  0
   39.2520   23.8350   39.6610 F   0  0  0  0  0  0  0  0  0  0  0  0
   36.3770   30.2140   31.6970 N   0  0  0  0  0  0  0  0  0  0  0  0
   37.0940   30.5560   32.3700 H   0  0  0  0  0  0  0  0  0  0  0  0
   35.3620   30.3230   31.9160 H   0  0  0  0  0  0  0  0  0  0  0  0
  1 23  1  0  0  0  0
  2  1  1  0  0  0  0
  3  4  1  0  0  0  0
  3  2  2  0  0  0  0
  4  5  1  0  0  0  0
  5  1  2  0  0  0  0
  6  7  1  0  0  0  0
  7  8  2  0  0  0  0
  7  4  1  0  0  0  0
  9  8  1  0  0  0  0
 10  9  1  0  0  0  0
 10 31  1  0  0  0  0
 11 10  2  0  0  0  0
 12 13  2  0  0  0  0
 12 11  1  0  0  0  0
 13 14  1  0  0  0  0
 14  6  1  0  0  0  0
 14  9  2  0  0  0  0
 15  2  1  0  0  0  0
 16  3  1  0  0  0  0
 17  6  1  0  0  0  0
 18 12  1  0  0  0  0
 19 25  1  0  0  0  0
 19 20  1  0  0  0  0
 20 26  1  0  0  0  0
 21 20  2  0  0  0  0
 21 27  1  0  0  0  0
 22 21  1  0  0  0  0
 23 24  1  0  0  0  0
 23 22  2  0  0  0  0
 24 19  2  0  0  0  0
 27 28  1  0  0  0  0
 27 30  1  0  0  0  0
 29 27  1  0  0  0  0
 31 33  1  0  0  0  0
 31 32  1  0  0  0  0
M  END
>  <minimizedAffinity>
-5.89268064

$$$$

 OpenBabel03262523003D

 33 36  0  0  0  0  0  0  0  0999 V2000
   36.5520   28.1550   32.6660 C   0  0  0  0  0  0  0  0  0  0  0  0
   37.6940   27.9230   31.9040 C   0  0  0  0  0  0  0  0  0  0  0  0
   38.4500   26.9750   32.5430 C   0  0  0  0  0  0  0  0  0  0  0  0
   37.7690   26.6380   33.6810 N   0  0  0  0  0  0  0  0  0  0  0  0
   36.6540   27.3610   33.7090 N   0  0  0  0  0  0  0  0  0  0  0  0
   39.2150   24.7610   34.3200 N   0  0  0  0  0  0  0  0  0  0  0  0
   38.2500   25.6730   34.6070 C   0  0  0  0  0  0  0  0  0  0  0  0
   37.8920   25.4530   35.8920 N   0  0  0  0  0  0  0  0  0  0  0  0
   38.6080   24.4300   36.4020 C   0  0  0  0  0  0  0  0  0  0  0  0
   38.6830   23.7750   37.6050 C   0  0  0  0  0  0  0  0  0  0  0  0
   39.5590   22.7540   37.7460 N   0  0  0  0  0  0  0  0  0  0  0  0
   40.3580   22.3610   36.7470 C   0  0  0  0  0  0  0  0  0  0  0  0
   40.3030   22.9840   35.5630 N   0  0  0  0  0  0  0  0  0  0  0  0
   39.4440   23.9950   35.4010 C   0  0  0  0  0  0  0  0  0  0  0  0
   37.9430   28.4030   30.9740 H   0  0  0  0  0  0  0  0  0  0  0  0
   39.3930   26.6110   32.1620 H   0  0  0  0  0  0  0  0  0  0  0  0
   39.7200   24.6540   33.3890 H   0  0  0  0  0  0  0  0  0  0  0  0
   41.0680   21.5390   36.8500 H   0  0  0  0  0  0  0  0  0  0  0  0
   34.7830   31.0020   31.1850 C   0  0  0  0  0  0  0  0  0  0  0  0
   33.4590   30.8390   31.7300 C   0  0  0  0  0  0  0  0  0  0  0  0
   33.2180   29.7560   32.5870 C   0  0  0  0  0  0  0  0  0  0  0  0
   34.2470   28.9120   32.8630 N   0  0  0  0  0  0  0  0  0  0  0  0
   35.4900   29.0990   32.3270 C   0  0  0  0  0  0  0  0  0  0  0  0
   35.7270   30.1180   31.5170 N   0  0  0  0  0  0  0  0  0  0  0  0
   35.0030   31.8160   30.5270 H   0  0  0  0  0  0  0  0  0  0  0  0
   32.7070   31.5430   31.4640 H   0  0  0  0  0  0  0  0  0  0  0  0
   31.8610   29.5710   33.1580 C   0  0  0  0  0  0  0  0  0  0  0  0
   31.9800   29.8520   34.5090 F   0  0  0  0  0  0  0  0  0  0  0  0
   31.4120   28.2920   32.9770 F   0  0  0  0  0  0  0  0  0  0  0  0
   30.9930   30.5160   32.6320 F   0  0  0  0  0  0  0  0  0  0  0  0
   37.8200   24.2150   38.6520 N   0  0  0  0  0  0  0  0  0  0  0  0
   36.8510   23.9290   38.4020 H   0  0  0  0  0  0  0  0  0  0  0  0
   37.9980   24.7300   39.5430 H   0  0  0  0  0  0  0  0  0  0  0  0
  1  5  2  0  0  0  0
  2  3  2  0  0  0  0
  2  1  1  0  0  0  0
  3  4  1  0  0  0  0
  4  5  1  0  0  0  0
  4  7  1  0  0  0  0
  6  7  1  0  0  0  0
  6 14  1  0  0  0  0
  7  8  2  0  0  0  0
  8  9  1  0  0  0  0
  9 10  1  0  0  0  0
 10 11  2  0  0  0  0
 10 31  1  0  0  0  0
 12 18  1  0  0  0  0
 12 11  1  0  0  0  0
 13 12  2  0  0  0  0
 14 13  1  0  0  0  0
 14  9  2  0  0  0  0
 15  2  1  0  0  0  0
 16  3  1  0  0  0  0
 17  6  1  0  0  0  0
 19 24  2  0  0  0  0
 19 20  1  0  0  0  0
 20 21  2  0  0  0  0
 21 22  1  0  0  0  0
 21 27  1  0  0  0  0
 23  1  1  0  0  0  0
 23 22  2  0  0  0  0
 24 23  1  0  0  0  0
 25 19  1  0  0  0  0
 26 20  1  0  0  0  0
 27 28  1  0  0  0  0
 29 27  1  0  0  0  0
 30 27  1  0  0  0  0
 31 33  1  0  0  0  0
 32 31  1  0  0  0  0
M  END
>  <minimizedAffinity>
-5.84934235

$$$$

 OpenBabel03262523003D

 33 36  0  0  0  0  0  0  0  0999 V2000
   38.1930   25.7210   35.1020 C   0  0  0  0  0  0  0  0  0  0  0  0
   37.1590   26.6500   35.1860 C   0  0  0  0  0  0  0  0  0  0  0  0
   37.1340   27.3680   34.0200 C   0  0  0  0  0  0  0  0  0  0  0  0
   38.1440   26.8780   33.2380 N   0  0  0  0  0  0  0  0  0  0  0  0
   38.7410   25.9060   33.9210 N   0  0  0  0  0  0  0  0  0  0  0  0
   37.5590   28.1320   31.2120 N   0  0  0  0  0  0  0  0  0  0  0  0
   38.4270   27.3820   31.9410 C   0  0  0  0  0  0  0  0  0  0  0  0
   39.5390   27.2500   31.1830 N   0  0  0  0  0  0  0  0  0  0  0  0
   39.3780   27.8950   30.0100 C   0  0  0  0  0  0  0  0  0  0  0  0
   40.1310   28.1040   28.8820 C   0  0  0  0  0  0  0  0  0  0  0  0
   39.6110   28.8340   27.8690 N   0  0  0  0  0  0  0  0  0  0  0  0
   38.3830   29.3600   27.9300 C   0  0  0  0  0  0  0  0  0  0  0  0
   37.6280   29.1690   29.0200 N   0  0  0  0  0  0  0  0  0  0  0  0
   38.1220   28.4510   30.0330 C   0  0  0  0  0  0  0  0  0  0  0  0
   36.4940   26.7810   36.0200 H   0  0  0  0  0  0  0  0  0  0  0  0
   36.4220   28.1580   33.8240 H   0  0  0  0  0  0  0  0  0  0  0  0
   36.5810   28.4270   31.5120 H   0  0  0  0  0  0  0  0  0  0  0  0
   37.9540   29.9500   27.1190 H   0  0  0  0  0  0  0  0  0  0  0  0
   38.0830   23.7470   38.1870 C   0  0  0  0  0  0  0  0  0  0  0  0
   39.2770   22.9480   38.0670 C   0  0  0  0  0  0  0  0  0  0  0  0
   40.0790   23.1150   36.9280 C   0  0  0  0  0  0  0  0  0  0  0  0
   39.6910   24.0230   35.9940 N   0  0  0  0  0  0  0  0  0  0  0  0
   38.5520   24.7620   36.1430 C   0  0  0  0  0  0  0  0  0  0  0  0
   37.7890   24.6120   37.2140 N   0  0  0  0  0  0  0  0  0  0  0  0
   37.4470   23.6470   39.0410 H   0  0  0  0  0  0  0  0  0  0  0  0
   39.5110   22.2590   38.8420 H   0  0  0  0  0  0  0  0  0  0  0  0
   41.3120   22.3020   36.7860 C   0  0  0  0  0  0  0  0  0  0  0  0
   41.1920   21.6460   35.5710 F   0  0  0  0  0  0  0  0  0  0  0  0
   41.4350   21.3960   37.8030 F   0  0  0  0  0  0  0  0  0  0  0  0
   42.4170   23.1320   36.6800 F   0  0  0  0  0  0  0  0  0  0  0  0
   41.4380   27.5330   28.8440 N   0  0  0  0  0  0  0  0  0  0  0  0
   41.3270   26.5020   28.7430 H   0  0  0  0  0  0  0  0  0  0  0  0
   42.3930   27.9510   28.8960 H   0  0  0  0  0  0  0  0  0  0  0  0
  1  2  1  0  0  0  0
  1 23  1  0  0  0  0
  2 15  1  0  0  0  0
  3  2  2  0  0  0  0
  4  5  1  0  0  0  0
  4  3  1  0  0  0  0
  5  1  2  0  0  0  0
  6 17  1  0  0  0  0
  6  7  1  0  0  0  0
  7  4  1  0  0  0  0
  8  7  2  0  0  0  0
  9 14  1  0  0  0  0
  9  8  1  0  0  0  0
 10  9  2  0  0  0  0
 11 12  2  0  0  0  0
 11 10  1  0  0  0  0
 12 13  1  0  0  0  0
 13 14  2  0  0  0  0
 14  6  1  0  0  0  0
 16  3  1  0  0  0  0
 18 12  1  0  0  0  0
 19 25  1  0  0  0  0
 20 19  1  0  0  0  0
 20 26  1  0  0  0  0
 21 20  2  0  0  0  0
 22 23  2  0  0  0  0
 22 21  1  0  0  0  0
 23 24  1  0  0  0  0
 24 19  2  0  0  0  0
 27 21  1  0  0  0  0
 27 29  1  0  0  0  0
 28 27  1  0  0  0  0
 30 27  1  0  0  0  0
 31 10  1  0  0  0  0
 31 33  1  0  0  0  0
 32 31  1  0  0  0  0
M  END
>  <minimizedAffinity>
-5.745152

$$$$
