
 OpenBabel03272506473D

 37 39  0  0  1  0  0  0  0  0999 V2000
   32.2720   28.4210   47.2740 C   0  0  2  0  0  0  0  0  0  0  0  0
   33.4720   28.3480   48.1710 C   0  0  1  0  0  0  0  0  0  0  0  0
   33.9950   27.0930   48.0750 O   0  0  0  0  0  0  0  0  0  0  0  0
   33.4190   26.4380   46.9920 C   0  0  0  0  0  0  0  0  0  0  0  0
   32.7690   27.4890   46.1260 C   0  0  1  0  0  0  0  0  0  0  0  0
   31.3490   28.0180   47.6790 H   0  0  0  0  0  0  0  0  0  0  0  0
   33.2090   28.6650   49.1960 H   0  0  0  0  0  0  0  0  0  0  0  0
   32.7690   25.6800   47.3970 H   0  0  0  0  0  0  0  0  0  0  0  0
   34.2220   25.8900   46.4330 H   0  0  0  0  0  0  0  0  0  0  0  0
   33.4460   28.0770   45.5190 H   0  0  0  0  0  0  0  0  0  0  0  0
   32.1130   29.7250   46.7610 O   0  0  0  0  0  0  0  0  0  0  0  0
   31.2060   30.0570   46.8630 H   0  0  0  0  0  0  0  0  0  0  0  0
   34.7210   29.5330   47.5250 S   0  0  0  0  0  0  0  0  0  0  0  0
   37.1310   29.2310   50.6490 C   0  0  0  0  0  0  0  0  0  0  0  0
   37.5940   30.5300   50.8860 C   0  0  0  0  0  0  0  0  0  0  0  0
   37.1320   31.5440   50.0290 C   0  0  0  0  0  0  0  0  0  0  0  0
   36.2740   31.2150   49.0320 N   0  0  0  0  0  0  0  0  0  0  0  0
   35.8550   29.9430   48.8470 C   0  0  0  0  0  0  0  0  0  0  0  0
   36.2760   28.9320   49.6520 N   0  0  0  0  0  0  0  0  0  0  0  0
   37.4720   28.4370   51.2950 H   0  0  0  0  0  0  0  0  0  0  0  0
   38.2820   30.7630   51.6910 H   0  0  0  0  0  0  0  0  0  0  0  0
   37.4400   32.5630   50.1420 H   0  0  0  0  0  0  0  0  0  0  0  0
   31.7120   26.9230   45.4560 O   0  0  0  0  0  0  0  0  0  0  0  0
   30.2070   28.8920   43.8640 Cl  0  0  0  0  0  0  0  0  0  0  0  0
   29.6300   27.8620   45.1530 C   0  0  0  0  0  0  0  0  0  0  0  0
   30.4350   26.9670   45.8200 C   0  0  0  0  0  0  0  0  0  0  0  0
   29.8550   26.1790   46.8180 C   0  0  0  0  0  0  0  0  0  0  0  0
   28.5130   26.3010   47.1170 C   0  0  0  0  0  0  0  0  0  0  0  0
   27.6960   27.2000   46.4510 C   0  0  0  0  0  0  0  0  0  0  0  0
   28.2810   27.9820   45.4580 C   0  0  0  0  0  0  0  0  0  0  0  0
   30.3990   25.4490   47.3900 H   0  0  0  0  0  0  0  0  0  0  0  0
   28.0030   25.7260   47.8730 H   0  0  0  0  0  0  0  0  0  0  0  0
   26.6450   27.3050   46.6750 H   0  0  0  0  0  0  0  0  0  0  0  0
   27.4120   28.9490   44.7370 C   0  0  0  0  0  0  0  0  0  0  0  0
   26.1080   28.9100   45.1890 F   0  0  0  0  0  0  0  0  0  0  0  0
   27.4190   28.5670   43.3890 F   0  0  0  0  0  0  0  0  0  0  0  0
   27.9240   30.2170   44.7600 F   0  0  0  0  0  0  0  0  0  0  0  0
  1  6  1  1  0  0  0
  1  2  1  0  0  0  0
  2  7  1  1  0  0  0
  3  2  1  0  0  0  0
  4  8  1  0  0  0  0
  4  3  1  0  0  0  0
  5 10  1  6  0  0  0
  5  4  1  0  0  0  0
  5  1  1  0  0  0  0
  9  4  1  0  0  0  0
 11 12  1  0  0  0  0
 11  1  1  0  0  0  0
 13  2  1  0  0  0  0
 13 18  1  0  0  0  0
 14 15  1  0  0  0  0
 14 20  1  0  0  0  0
 15 21  1  0  0  0  0
 16 22  1  0  0  0  0
 16 15  2  0  0  0  0
 17 16  1  0  0  0  0
 18 17  2  0  0  0  0
 18 19  1  0  0  0  0
 19 14  2  0  0  0  0
 23 26  1  0  0  0  0
 23  5  1  0  0  0  0
 24 25  1  0  0  0  0
 25 30  2  0  0  0  0
 25 26  1  0  0  0  0
 26 27  2  0  0  0  0
 27 28  1  0  0  0  0
 27 31  1  0  0  0  0
 28 32  1  0  0  0  0
 29 33  1  0  0  0  0
 29 28  2  0  0  0  0
 30 29  1  0  0  0  0
 34 37  1  0  0  0  0
 34 35  1  0  0  0  0
 34 30  1  0  0  0  0
 36 34  1  0  0  0  0
M  END
>  <minimizedAffinity>
-4.74069166

>  <minimizedRMSD>
0.559491098

$$$$
