
 OpenBabel03272509533D

 38 40  0  0  0  0  0  0  0  0999 V2000
   37.3290   30.1780   51.5080 C   0  0  0  0  0  0  0  0  0  0  0  0
   38.0570   30.8570   50.5120 C   0  0  0  0  0  0  0  0  0  0  0  0
   37.7040   30.6510   49.1970 C   0  0  0  0  0  0  0  0  0  0  0  0
   36.6580   29.7890   48.9710 N   0  0  0  0  0  0  0  0  0  0  0  0
   35.9880   29.1590   49.9310 C   0  0  0  0  0  0  0  0  0  0  0  0
   36.3230   29.3540   51.2160 N   0  0  0  0  0  0  0  0  0  0  0  0
   37.6300   30.3610   52.5310 H   0  0  0  0  0  0  0  0  0  0  0  0
   38.8580   31.5170   50.7100 H   0  0  0  0  0  0  0  0  0  0  0  0
   38.9480   33.2570   49.0090 F   0  0  0  0  0  0  0  0  0  0  0  0
   38.9140   32.4700   47.9410 C   0  0  0  0  0  0  0  0  0  0  0  0
   38.3290   31.2550   48.0470 C   0  0  0  0  0  0  0  0  0  0  0  0
   38.3550   30.5190   46.8570 C   0  0  0  0  0  0  0  0  0  0  0  0
   38.9210   30.9940   45.7090 C   0  0  0  0  0  0  0  0  0  0  0  0
   39.5010   32.2270   45.6510 C   0  0  0  0  0  0  0  0  0  0  0  0
   39.4910   32.9680   46.7940 C   0  0  0  0  0  0  0  0  0  0  0  0
   37.9050   29.5180   46.8370 H   0  0  0  0  0  0  0  0  0  0  0  0
   38.8990   30.3520   44.8170 H   0  0  0  0  0  0  0  0  0  0  0  0
   39.9360   32.5620   44.7200 H   0  0  0  0  0  0  0  0  0  0  0  0
   39.9470   33.9550   46.7700 H   0  0  0  0  0  0  0  0  0  0  0  0
   34.9920   28.3570   49.4460 O   0  0  0  0  0  0  0  0  0  0  0  0
   34.4370   28.6500   48.1720 C   0  0  0  0  0  0  0  0  0  0  0  0
   35.2240   28.8970   47.4270 H   0  0  0  0  0  0  0  0  0  0  0  0
   33.7970   29.5530   48.2790 H   0  0  0  0  0  0  0  0  0  0  0  0
   33.5440   27.5280   47.7190 C   0  0  0  0  0  0  0  0  0  0  0  0
   33.8380   27.2800   46.6790 H   0  0  0  0  0  0  0  0  0  0  0  0
   33.7100   26.5960   48.3030 H   0  0  0  0  0  0  0  0  0  0  0  0
   32.1090   27.8820   47.7740 C   0  0  0  0  0  0  0  0  0  0  0  0
   31.3760   27.4480   48.8780 C   0  0  0  0  0  0  0  0  0  0  0  0
   30.0440   27.7270   49.0180 C   0  0  0  0  0  0  0  0  0  0  0  0
   29.4230   28.4290   48.0800 N   0  0  0  0  0  0  0  0  0  0  0  0
   30.1410   28.8560   46.9960 C   0  0  0  0  0  0  0  0  0  0  0  0
   31.4650   28.6010   46.8210 N   0  0  0  0  0  0  0  0  0  0  0  0
   31.8800   26.8700   49.6520 H   0  0  0  0  0  0  0  0  0  0  0  0
   29.5040   27.3760   49.8860 H   0  0  0  0  0  0  0  0  0  0  0  0
   29.5330   29.6540   45.8850 C   0  0  0  0  0  0  0  0  0  0  0  0
   30.4460   30.6420   45.4990 F   0  0  0  0  0  0  0  0  0  0  0  0
   28.3420   30.2280   46.2420 F   0  0  0  0  0  0  0  0  0  0  0  0
   29.3490   28.8730   44.7640 F   0  0  0  0  0  0  0  0  0  0  0  0
  1  7  1  0  0  0  0
  2  8  1  0  0  0  0
  2  1  2  0  0  0  0
  3  2  1  0  0  0  0
  4  3  2  0  0  0  0
  4  5  1  0  0  0  0
  5  6  2  0  0  0  0
  6  1  1  0  0  0  0
 10 11  1  0  0  0  0
 10  9  1  0  0  0  0
 11  3  1  0  0  0  0
 12 11  2  0  0  0  0
 13 12  1  0  0  0  0
 14 13  2  0  0  0  0
 14 15  1  0  0  0  0
 15 10  2  0  0  0  0
 16 12  1  0  0  0  0
 17 13  1  0  0  0  0
 18 14  1  0  0  0  0
 19 15  1  0  0  0  0
 20  5  1  0  0  0  0
 21 23  1  0  0  0  0
 21 20  1  0  0  0  0
 22 21  1  0  0  0  0
 24 27  1  0  0  0  0
 24 21  1  0  0  0  0
 24 26  1  0  0  0  0
 25 24  1  0  0  0  0
 27 28  1  0  0  0  0
 28 29  2  0  0  0  0
 28 33  1  0  0  0  0
 29 34  1  0  0  0  0
 30 29  1  0  0  0  0
 31 30  2  0  0  0  0
 32 31  1  0  0  0  0
 32 27  2  0  0  0  0
 35 37  1  0  0  0  0
 35 31  1  0  0  0  0
 36 35  1  0  0  0  0
 38 35  1  0  0  0  0
M  END
>  <minimizedAffinity>
-6.40970993

>  <minimizedRMSD>
0.171569407

$$$$
