
 OpenBabel03272508553D

 33 35  0  0  1  0  0  0  0  0999 V2000
   37.8330   26.5500   34.5630 C   0  0  0  0  0  0  0  0  0  0  0  0
   38.4940   27.5290   35.0210 O   0  0  0  0  0  0  0  0  0  0  0  0
   36.8940   26.7450   33.4970 N   0  0  0  0  0  0  0  0  0  0  0  0
   36.2060   26.0240   33.1870 H   0  0  0  0  0  0  0  0  0  0  0  0
   38.0110   25.2000   35.1140 C   0  0  0  0  0  0  0  0  0  0  0  0
   38.1640   24.1620   34.2360 C   0  0  0  0  0  0  0  0  0  0  0  0
   38.3380   22.8860   34.7510 C   0  0  0  0  0  0  0  0  0  0  0  0
   38.3450   22.7360   36.1100 C   0  0  0  0  0  0  0  0  0  0  0  0
   38.1920   23.7810   37.0020 C   0  0  0  0  0  0  0  0  0  0  0  0
   38.0290   24.9780   36.4340 N   0  0  0  0  0  0  0  0  0  0  0  0
   38.1640   24.2310   33.1560 H   0  0  0  0  0  0  0  0  0  0  0  0
   38.4680   21.9940   34.1290 H   0  0  0  0  0  0  0  0  0  0  0  0
   38.4820   21.7340   36.5190 H   0  0  0  0  0  0  0  0  0  0  0  0
   38.1950   23.6550   38.4620 C   0  0  0  0  0  0  0  0  0  0  0  0
   37.2910   22.7330   38.9300 F   0  0  0  0  0  0  0  0  0  0  0  0
   39.4720   23.4080   38.9510 F   0  0  0  0  0  0  0  0  0  0  0  0
   37.8300   24.8920   38.9710 F   0  0  0  0  0  0  0  0  0  0  0  0
   36.0880   28.1910   31.6420 C   0  0  2  0  0  0  0  0  0  0  0  0
   35.5610   28.7820   32.8810 C   0  0  0  0  0  0  0  0  0  0  0  0
   36.9140   28.0310   32.8150 C   0  0  1  0  0  0  0  0  0  0  0  0
   35.4690   27.3580   31.2510 H   0  0  0  0  0  0  0  0  0  0  0  0
   34.7350   28.2780   33.4200 H   0  0  0  0  0  0  0  0  0  0  0  0
   35.5840   29.8710   33.0760 H   0  0  0  0  0  0  0  0  0  0  0  0
   37.7670   28.7180   33.0360 H   0  0  0  0  0  0  0  0  0  0  0  0
   36.8550   31.1480   29.5450 C   0  0  0  0  0  0  0  0  0  0  0  0
   37.5850   30.5640   28.4590 C   0  0  0  0  0  0  0  0  0  0  0  0
   37.7850   29.1320   28.4830 C   0  0  0  0  0  0  0  0  0  0  0  0
   37.2830   28.4090   29.5180 N   0  0  0  0  0  0  0  0  0  0  0  0
   36.5970   29.0460   30.5190 C   0  0  0  0  0  0  0  0  0  0  0  0
   36.3650   30.4060   30.5650 N   0  0  0  0  0  0  0  0  0  0  0  0
   36.7390   32.2090   29.4710 H   0  0  0  0  0  0  0  0  0  0  0  0
   37.9610   31.1670   27.6670 H   0  0  0  0  0  0  0  0  0  0  0  0
   38.3290   28.7130   27.6670 H   0  0  0  0  0  0  0  0  0  0  0  0
  1  2  2  0  0  0  0
  1  5  1  0  0  0  0
  3  1  1  0  0  0  0
  4  3  1  0  0  0  0
  5 10  1  0  0  0  0
  6  7  1  0  0  0  0
  6  5  2  0  0  0  0
  7  8  2  0  0  0  0
  8 13  1  0  0  0  0
  8  9  1  0  0  0  0
  9 14  1  0  0  0  0
 10  9  2  0  0  0  0
 11  6  1  0  0  0  0
 12  7  1  0  0  0  0
 14 15  1  0  0  0  0
 14 16  1  0  0  0  0
 14 17  1  0  0  0  0
 18 21  1  6  0  0  0
 18 20  1  0  0  0  0
 18 19  1  0  0  0  0
 19 23  1  0  0  0  0
 19 22  1  0  0  0  0
 20 19  1  0  0  0  0
 20 24  1  1  0  0  0
 20  3  1  0  0  0  0
 25 30  1  0  0  0  0
 26 27  1  0  0  0  0
 26 25  2  0  0  0  0
 27 28  2  0  0  0  0
 28 29  1  0  0  0  0
 29 30  2  0  0  0  0
 29 18  1  0  0  0  0
 31 25  1  0  0  0  0
 32 26  1  0  0  0  0
 33 27  1  0  0  0  0
M  END
>  <minimizedAffinity>
-5.68566465

$$$$

 OpenBabel03272508553D

 33 35  0  0  1  0  0  0  0  0999 V2000
   35.6980   25.0520   31.1650 C   0  0  0  0  0  0  0  0  0  0  0  0
   34.4620   25.2330   30.9500 O   0  0  0  0  0  0  0  0  0  0  0  0
   36.5750   26.1720   31.3440 N   0  0  0  0  0  0  0  0  0  0  0  0
   37.6150   26.1010   31.3620 H   0  0  0  0  0  0  0  0  0  0  0  0
   36.2560   23.6950   31.2330 C   0  0  0  0  0  0  0  0  0  0  0  0
   37.5100   23.4890   30.7250 C   0  0  0  0  0  0  0  0  0  0  0  0
   38.0440   22.2100   30.7920 C   0  0  0  0  0  0  0  0  0  0  0  0
   37.2860   21.2250   31.3600 C   0  0  0  0  0  0  0  0  0  0  0  0
   36.0190   21.4270   31.8740 C   0  0  0  0  0  0  0  0  0  0  0  0
   35.5720   22.6810   31.7750 N   0  0  0  0  0  0  0  0  0  0  0  0
   38.1460   24.2350   30.2660 H   0  0  0  0  0  0  0  0  0  0  0  0
   39.0370   21.9490   30.4120 H   0  0  0  0  0  0  0  0  0  0  0  0
   37.7020   20.2180   31.4140 H   0  0  0  0  0  0  0  0  0  0  0  0
   35.1810   20.3940   32.4900 C   0  0  0  0  0  0  0  0  0  0  0  0
   35.1970   20.4290   33.8630 F   0  0  0  0  0  0  0  0  0  0  0  0
   33.8830   20.4260   31.9960 F   0  0  0  0  0  0  0  0  0  0  0  0
   35.7030   19.1700   32.0990 F   0  0  0  0  0  0  0  0  0  0  0  0
   36.3420   28.2670   32.6610 C   0  0  2  0  0  0  0  0  0  0  0  0
   36.9680   28.6520   31.3870 C   0  0  0  0  0  0  0  0  0  0  0  0
   35.9610   27.4810   31.5120 C   0  0  1  0  0  0  0  0  0  0  0  0
   37.0640   27.8860   33.4110 H   0  0  0  0  0  0  0  0  0  0  0  0
   38.0250   28.3830   31.1940 H   0  0  0  0  0  0  0  0  0  0  0  0
   36.6520   29.5450   30.8160 H   0  0  0  0  0  0  0  0  0  0  0  0
   35.0270   27.6900   30.9360 H   0  0  0  0  0  0  0  0  0  0  0  0
   34.7030   30.6490   34.9790 C   0  0  0  0  0  0  0  0  0  0  0  0
   33.3720   30.7140   34.4500 C   0  0  0  0  0  0  0  0  0  0  0  0
   33.0760   29.9080   33.2870 C   0  0  0  0  0  0  0  0  0  0  0  0
   34.0550   29.1330   32.7500 N   0  0  0  0  0  0  0  0  0  0  0  0
   35.3020   29.1280   33.3170 C   0  0  0  0  0  0  0  0  0  0  0  0
   35.6600   29.8690   34.4260 N   0  0  0  0  0  0  0  0  0  0  0  0
   34.8600   31.2670   35.8390 H   0  0  0  0  0  0  0  0  0  0  0  0
   32.6350   31.3350   34.9010 H   0  0  0  0  0  0  0  0  0  0  0  0
   32.0820   29.9680   32.9060 H   0  0  0  0  0  0  0  0  0  0  0  0
  1  5  1  0  0  0  0
  1  3  1  0  0  0  0
  2  1  2  0  0  0  0
  3  4  1  0  0  0  0
  3 20  1  0  0  0  0
  5 10  1  0  0  0  0
  6  7  1  0  0  0  0
  6  5  2  0  0  0  0
  7  8  2  0  0  0  0
  8 13  1  0  0  0  0
  8  9  1  0  0  0  0
  9 14  1  0  0  0  0
 10  9  2  0  0  0  0
 11  6  1  0  0  0  0
 12  7  1  0  0  0  0
 14 15  1  0  0  0  0
 16 14  1  0  0  0  0
 17 14  1  0  0  0  0
 18 29  1  0  0  0  0
 18 21  1  1  0  0  0
 19 20  1  0  0  0  0
 19 18  1  0  0  0  0
 20 24  1  6  0  0  0
 20 18  1  0  0  0  0
 22 19  1  0  0  0  0
 23 19  1  0  0  0  0
 25 31  1  0  0  0  0
 26 32  1  0  0  0  0
 26 25  1  0  0  0  0
 27 26  2  0  0  0  0
 28 27  1  0  0  0  0
 28 29  2  0  0  0  0
 29 30  1  0  0  0  0
 30 25  2  0  0  0  0
 33 27  1  0  0  0  0
M  END
>  <minimizedAffinity>
-5.34708452

$$$$

 OpenBabel03272508553D

 33 35  0  0  1  0  0  0  0  0999 V2000
   37.1770   26.3050   34.3020 C   0  0  0  0  0  0  0  0  0  0  0  0
   36.7550   27.3440   34.8930 O   0  0  0  0  0  0  0  0  0  0  0  0
   36.8430   26.0660   32.9280 N   0  0  0  0  0  0  0  0  0  0  0  0
   37.0180   25.1640   32.4340 H   0  0  0  0  0  0  0  0  0  0  0  0
   38.0120   25.3260   35.0100 C   0  0  0  0  0  0  0  0  0  0  0  0
   39.0190   24.7150   34.3130 C   0  0  0  0  0  0  0  0  0  0  0  0
   39.8140   23.7940   34.9780 C   0  0  0  0  0  0  0  0  0  0  0  0
   39.5460   23.5450   36.2950 C   0  0  0  0  0  0  0  0  0  0  0  0
   38.5310   24.1590   37.0050 C   0  0  0  0  0  0  0  0  0  0  0  0
   37.8090   25.0330   36.3000 N   0  0  0  0  0  0  0  0  0  0  0  0
   39.2680   24.8780   33.2720 H   0  0  0  0  0  0  0  0  0  0  0  0
   40.6410   23.2550   34.5050 H   0  0  0  0  0  0  0  0  0  0  0  0
   40.1690   22.8210   36.8230 H   0  0  0  0  0  0  0  0  0  0  0  0
   38.2180   23.9160   38.4160 C   0  0  0  0  0  0  0  0  0  0  0  0
   37.8280   25.0480   39.0880 F   0  0  0  0  0  0  0  0  0  0  0  0
   37.2920   22.8910   38.5660 F   0  0  0  0  0  0  0  0  0  0  0  0
   39.3850   23.4600   39.0120 F   0  0  0  0  0  0  0  0  0  0  0  0
   37.0870   28.1550   31.6030 C   0  0  2  0  0  0  0  0  0  0  0  0
   36.5560   27.1440   30.6780 C   0  0  0  0  0  0  0  0  0  0  0  0
   36.2240   27.1580   32.1910 C   0  0  1  0  0  0  0  0  0  0  0  0
   38.1890   28.1120   31.7230 H   0  0  0  0  0  0  0  0  0  0  0  0
   37.2170   26.3300   30.3190 H   0  0  0  0  0  0  0  0  0  0  0  0
   35.7360   27.3610   29.9680 H   0  0  0  0  0  0  0  0  0  0  0  0
   35.1360   27.3450   32.3630 H   0  0  0  0  0  0  0  0  0  0  0  0
   36.3920   31.5980   30.4210 C   0  0  0  0  0  0  0  0  0  0  0  0
   35.6940   32.1630   31.5380 C   0  0  0  0  0  0  0  0  0  0  0  0
   35.4890   31.3190   32.6930 C   0  0  0  0  0  0  0  0  0  0  0  0
   35.9580   30.0430   32.6750 N   0  0  0  0  0  0  0  0  0  0  0  0
   36.6150   29.5790   31.5660 C   0  0  0  0  0  0  0  0  0  0  0  0
   36.8500   30.3240   30.4270 N   0  0  0  0  0  0  0  0  0  0  0  0
   36.5140   32.2710   29.5970 H   0  0  0  0  0  0  0  0  0  0  0  0
   35.3440   33.1670   31.5110 H   0  0  0  0  0  0  0  0  0  0  0  0
   34.9680   31.7540   33.5150 H   0  0  0  0  0  0  0  0  0  0  0  0
  1  2  2  0  0  0  0
  1  5  1  0  0  0  0
  3  1  1  0  0  0  0
  4  3  1  0  0  0  0
  5 10  1  0  0  0  0
  6  7  1  0  0  0  0
  6  5  2  0  0  0  0
  7  8  2  0  0  0  0
  8 13  1  0  0  0  0
  8  9  1  0  0  0  0
  9 14  1  0  0  0  0
 10  9  2  0  0  0  0
 11  6  1  0  0  0  0
 12  7  1  0  0  0  0
 14 16  1  0  0  0  0
 14 17  1  0  0  0  0
 14 15  1  0  0  0  0
 18 21  1  1  0  0  0
 18 20  1  0  0  0  0
 19 18  1  0  0  0  0
 19 20  1  0  0  0  0
 20 24  1  1  0  0  0
 20  3  1  0  0  0  0
 22 19  1  0  0  0  0
 23 19  1  0  0  0  0
 25 30  2  0  0  0  0
 25 26  1  0  0  0  0
 26 27  2  0  0  0  0
 27 33  1  0  0  0  0
 28 27  1  0  0  0  0
 29 18  1  0  0  0  0
 29 28  2  0  0  0  0
 30 29  1  0  0  0  0
 31 25  1  0  0  0  0
 32 26  1  0  0  0  0
M  END
>  <minimizedAffinity>
-5.33123827

$$$$

 OpenBabel03272508553D

 33 35  0  0  1  0  0  0  0  0999 V2000
   37.8300   25.0490   35.0650 C   0  0  0  0  0  0  0  0  0  0  0  0
   37.2130   26.1450   35.2200 O   0  0  0  0  0  0  0  0  0  0  0  0
   37.9660   24.4720   33.7590 N   0  0  0  0  0  0  0  0  0  0  0  0
   38.3150   23.5050   33.5830 H   0  0  0  0  0  0  0  0  0  0  0  0
   38.4150   24.3480   36.2160 C   0  0  0  0  0  0  0  0  0  0  0  0
   37.7770   24.4480   37.4220 C   0  0  0  0  0  0  0  0  0  0  0  0
   38.3230   23.7830   38.5100 C   0  0  0  0  0  0  0  0  0  0  0  0
   39.4710   23.0650   38.3180 C   0  0  0  0  0  0  0  0  0  0  0  0
   40.1190   22.9610   37.1010 C   0  0  0  0  0  0  0  0  0  0  0  0
   39.5360   23.6260   36.1010 N   0  0  0  0  0  0  0  0  0  0  0  0
   36.8700   25.0030   37.6240 H   0  0  0  0  0  0  0  0  0  0  0  0
   37.8860   23.8030   39.5140 H   0  0  0  0  0  0  0  0  0  0  0  0
   39.9030   22.5410   39.1700 H   0  0  0  0  0  0  0  0  0  0  0  0
   41.3480   22.2000   36.8600 C   0  0  0  0  0  0  0  0  0  0  0  0
   41.3190   21.4780   35.6930 F   0  0  0  0  0  0  0  0  0  0  0  0
   42.4740   23.0120   36.9270 F   0  0  0  0  0  0  0  0  0  0  0  0
   41.4720   21.2970   37.9060 F   0  0  0  0  0  0  0  0  0  0  0  0
   38.4660   26.3900   32.2590 C   0  0  2  0  0  0  0  0  0  0  0  0
   38.5750   25.1810   31.4290 C   0  0  0  0  0  0  0  0  0  0  0  0
   37.5930   25.2980   32.6210 C   0  0  1  0  0  0  0  0  0  0  0  0
   39.3850   26.6130   32.8380 H   0  0  0  0  0  0  0  0  0  0  0  0
   39.4410   24.5030   31.5600 H   0  0  0  0  0  0  0  0  0  0  0  0
   38.1460   25.1190   30.4110 H   0  0  0  0  0  0  0  0  0  0  0  0
   36.5320   25.2500   32.2750 H   0  0  0  0  0  0  0  0  0  0  0  0
   36.3380   29.4090   31.9680 C   0  0  0  0  0  0  0  0  0  0  0  0
   36.7960   29.9810   30.7360 C   0  0  0  0  0  0  0  0  0  0  0  0
   37.8440   29.2840   30.0260 C   0  0  0  0  0  0  0  0  0  0  0  0
   38.3460   28.1320   30.5460 N   0  0  0  0  0  0  0  0  0  0  0  0
   37.8530   27.6530   31.7310 C   0  0  0  0  0  0  0  0  0  0  0  0
   36.8540   28.2610   32.4650 N   0  0  0  0  0  0  0  0  0  0  0  0
   35.5620   29.9700   32.4470 H   0  0  0  0  0  0  0  0  0  0  0  0
   36.3750   30.8850   30.3640 H   0  0  0  0  0  0  0  0  0  0  0  0
   38.1730   29.7210   29.1110 H   0  0  0  0  0  0  0  0  0  0  0  0
  1  2  2  0  0  0  0
  1  5  1  0  0  0  0
  3  1  1  0  0  0  0
  4  3  1  0  0  0  0
  5  6  1  0  0  0  0
  6 11  1  0  0  0  0
  6  7  2  0  0  0  0
  7 12  1  0  0  0  0
  8  7  1  0  0  0  0
  8 13  1  0  0  0  0
  9  8  2  0  0  0  0
 10  5  2  0  0  0  0
 10  9  1  0  0  0  0
 14 16  1  0  0  0  0
 14  9  1  0  0  0  0
 14 17  1  0  0  0  0
 15 14  1  0  0  0  0
 18 20  1  0  0  0  0
 18 21  1  1  0  0  0
 19 22  1  0  0  0  0
 19 18  1  0  0  0  0
 19 20  1  0  0  0  0
 20 24  1  6  0  0  0
 20  3  1  0  0  0  0
 23 19  1  0  0  0  0
 25 31  1  0  0  0  0
 25 30  1  0  0  0  0
 26 25  2  0  0  0  0
 27 28  2  0  0  0  0
 27 26  1  0  0  0  0
 28 29  1  0  0  0  0
 29 18  1  0  0  0  0
 29 30  2  0  0  0  0
 32 26  1  0  0  0  0
 33 27  1  0  0  0  0
M  END
>  <minimizedAffinity>
-5.28853321

$$$$

 OpenBabel03272508553D

 33 35  0  0  1  0  0  0  0  0999 V2000
   37.5530   25.4900   33.6200 C   0  0  0  0  0  0  0  0  0  0  0  0
   37.0070   24.8940   32.6450 O   0  0  0  0  0  0  0  0  0  0  0  0
   37.3660   26.9000   33.8040 N   0  0  0  0  0  0  0  0  0  0  0  0
   37.9110   27.4770   34.4820 H   0  0  0  0  0  0  0  0  0  0  0  0
   38.3870   24.7540   34.5800 C   0  0  0  0  0  0  0  0  0  0  0  0
   39.5480   24.1920   34.1240 C   0  0  0  0  0  0  0  0  0  0  0  0
   40.3420   23.5000   35.0280 C   0  0  0  0  0  0  0  0  0  0  0  0
   39.9180   23.4160   36.3250 C   0  0  0  0  0  0  0  0  0  0  0  0
   38.7450   23.9820   36.7910 C   0  0  0  0  0  0  0  0  0  0  0  0
   38.0350   24.6310   35.8650 N   0  0  0  0  0  0  0  0  0  0  0  0
   39.9240   24.2300   33.1100 H   0  0  0  0  0  0  0  0  0  0  0  0
   41.2860   23.0170   34.7580 H   0  0  0  0  0  0  0  0  0  0  0  0
   40.5380   22.8730   37.0380 H   0  0  0  0  0  0  0  0  0  0  0  0
   38.2620   23.9110   38.1720 C   0  0  0  0  0  0  0  0  0  0  0  0
   37.9170   25.1350   38.6900 F   0  0  0  0  0  0  0  0  0  0  0  0
   37.2290   22.9920   38.3080 F   0  0  0  0  0  0  0  0  0  0  0  0
   39.3090   23.4160   38.9370 F   0  0  0  0  0  0  0  0  0  0  0  0
   36.2060   28.9840   33.1030 C   0  0  2  0  0  0  0  0  0  0  0  0
   36.9420   28.5080   31.9230 C   0  0  0  0  0  0  0  0  0  0  0  0
   36.3520   27.5520   32.9890 C   0  0  1  0  0  0  0  0  0  0  0  0
   36.8280   29.5760   33.8040 H   0  0  0  0  0  0  0  0  0  0  0  0
   38.0450   28.6010   31.8910 H   0  0  0  0  0  0  0  0  0  0  0  0
   36.4950   28.4900   30.9110 H   0  0  0  0  0  0  0  0  0  0  0  0
   35.5500   26.9080   32.5540 H   0  0  0  0  0  0  0  0  0  0  0  0
   33.2690   30.8150   31.7800 C   0  0  0  0  0  0  0  0  0  0  0  0
   32.2930   30.5990   32.8070 C   0  0  0  0  0  0  0  0  0  0  0  0
   32.6940   29.8140   33.9540 C   0  0  0  0  0  0  0  0  0  0  0  0
   33.9590   29.3220   34.0120 N   0  0  0  0  0  0  0  0  0  0  0  0
   34.8320   29.5750   32.9860 C   0  0  0  0  0  0  0  0  0  0  0  0
   34.5230   30.3140   31.8610 N   0  0  0  0  0  0  0  0  0  0  0  0
   32.9140   31.4020   30.9590 H   0  0  0  0  0  0  0  0  0  0  0  0
   31.3120   31.0020   32.7230 H   0  0  0  0  0  0  0  0  0  0  0  0
   31.9570   29.6630   34.7090 H   0  0  0  0  0  0  0  0  0  0  0  0
  1  3  1  0  0  0  0
  1  5  1  0  0  0  0
  2  1  2  0  0  0  0
  3  4  1  0  0  0  0
  5 10  1  0  0  0  0
  6  5  2  0  0  0  0
  6  7  1  0  0  0  0
  7  8  2  0  0  0  0
  8  9  1  0  0  0  0
  8 13  1  0  0  0  0
  9 14  1  0  0  0  0
 10  9  2  0  0  0  0
 11  6  1  0  0  0  0
 12  7  1  0  0  0  0
 14 16  1  0  0  0  0
 14 15  1  0  0  0  0
 14 17  1  0  0  0  0
 18 21  1  1  0  0  0
 19 20  1  0  0  0  0
 19 18  1  0  0  0  0
 20 24  1  6  0  0  0
 20 18  1  0  0  0  0
 20  3  1  0  0  0  0
 22 19  1  0  0  0  0
 23 19  1  0  0  0  0
 25 30  2  0  0  0  0
 25 26  1  0  0  0  0
 26 27  2  0  0  0  0
 27 28  1  0  0  0  0
 27 33  1  0  0  0  0
 29 18  1  0  0  0  0
 29 28  2  0  0  0  0
 30 29  1  0  0  0  0
 31 25  1  0  0  0  0
 32 26  1  0  0  0  0
M  END
>  <minimizedAffinity>
-5.26173925

$$$$

 OpenBabel03272508553D

 33 35  0  0  1  0  0  0  0  0999 V2000
   37.9080   25.2680   33.8850 C   0  0  0  0  0  0  0  0  0  0  0  0
   37.1070   26.1910   34.2190 O   0  0  0  0  0  0  0  0  0  0  0  0
   38.1740   25.0040   32.5010 N   0  0  0  0  0  0  0  0  0  0  0  0
   38.6890   24.1640   32.1560 H   0  0  0  0  0  0  0  0  0  0  0  0
   38.5790   24.4500   34.9050 C   0  0  0  0  0  0  0  0  0  0  0  0
   39.6260   23.6620   34.5130 C   0  0  0  0  0  0  0  0  0  0  0  0
   40.2650   22.8930   35.4730 C   0  0  0  0  0  0  0  0  0  0  0  0
   39.8110   22.9620   36.7610 C   0  0  0  0  0  0  0  0  0  0  0  0
   38.7540   23.7570   37.1640 C   0  0  0  0  0  0  0  0  0  0  0  0
   38.1890   24.4690   36.1860 N   0  0  0  0  0  0  0  0  0  0  0  0
   40.0190   23.5730   33.5080 H   0  0  0  0  0  0  0  0  0  0  0  0
   41.1100   22.2320   35.2550 H   0  0  0  0  0  0  0  0  0  0  0  0
   40.3110   22.3590   37.5190 H   0  0  0  0  0  0  0  0  0  0  0  0
   38.2440   23.8560   38.5340 C   0  0  0  0  0  0  0  0  0  0  0  0
   37.7570   25.1020   38.8430 F   0  0  0  0  0  0  0  0  0  0  0  0
   37.3110   22.8630   38.8060 F   0  0  0  0  0  0  0  0  0  0  0  0
   39.3160   23.6070   39.3790 F   0  0  0  0  0  0  0  0  0  0  0  0
   38.4140   27.2160   31.3940 C   0  0  2  0  0  0  0  0  0  0  0  0
   38.6720   26.2080   30.3550 C   0  0  0  0  0  0  0  0  0  0  0  0
   37.6900   25.9740   31.5310 C   0  0  1  0  0  0  0  0  0  0  0  0
   39.3000   27.4420   32.0200 H   0  0  0  0  0  0  0  0  0  0  0  0
   39.6180   25.6330   30.3720 H   0  0  0  0  0  0  0  0  0  0  0  0
   38.2470   26.2830   29.3360 H   0  0  0  0  0  0  0  0  0  0  0  0
   36.6420   25.8570   31.1630 H   0  0  0  0  0  0  0  0  0  0  0  0
   35.9760   29.9910   31.6850 C   0  0  0  0  0  0  0  0  0  0  0  0
   36.2860   30.7840   30.5330 C   0  0  0  0  0  0  0  0  0  0  0  0
   37.3470   30.3190   29.6680 C   0  0  0  0  0  0  0  0  0  0  0  0
   37.9980   29.1670   29.9770 N   0  0  0  0  0  0  0  0  0  0  0  0
   37.6400   28.4680   31.0990 C   0  0  0  0  0  0  0  0  0  0  0  0
   36.6390   28.8470   31.9710 N   0  0  0  0  0  0  0  0  0  0  0  0
   35.1830   30.3860   32.2850 H   0  0  0  0  0  0  0  0  0  0  0  0
   35.7510   31.6810   30.3270 H   0  0  0  0  0  0  0  0  0  0  0  0
   37.5650   30.9210   28.8150 H   0  0  0  0  0  0  0  0  0  0  0  0
  1  2  2  0  0  0  0
  1  5  1  0  0  0  0
  3  1  1  0  0  0  0
  4  3  1  0  0  0  0
  5 10  1  0  0  0  0
  6  5  2  0  0  0  0
  6  7  1  0  0  0  0
  7  8  2  0  0  0  0
  8  9  1  0  0  0  0
  8 13  1  0  0  0  0
  9 14  1  0  0  0  0
 10  9  2  0  0  0  0
 11  6  1  0  0  0  0
 12  7  1  0  0  0  0
 14 16  1  0  0  0  0
 14 15  1  0  0  0  0
 14 17  1  0  0  0  0
 18 20  1  0  0  0  0
 18 21  1  1  0  0  0
 19 22  1  0  0  0  0
 19 18  1  0  0  0  0
 19 20  1  0  0  0  0
 20 24  1  6  0  0  0
 20  3  1  0  0  0  0
 23 19  1  0  0  0  0
 25 30  1  0  0  0  0
 25 31  1  0  0  0  0
 26 25  2  0  0  0  0
 27 28  2  0  0  0  0
 27 26  1  0  0  0  0
 28 29  1  0  0  0  0
 29 18  1  0  0  0  0
 29 30  2  0  0  0  0
 32 26  1  0  0  0  0
 33 27  1  0  0  0  0
M  END
>  <minimizedAffinity>
-5.23250437

$$$$

 OpenBabel03272508553D

 33 35  0  0  1  0  0  0  0  0999 V2000
   37.2360   26.0890   33.8040 C   0  0  0  0  0  0  0  0  0  0  0  0
   36.6960   25.6310   32.7530 O   0  0  0  0  0  0  0  0  0  0  0  0
   36.9560   27.4270   34.2390 N   0  0  0  0  0  0  0  0  0  0  0  0
   37.4850   27.9160   34.9930 H   0  0  0  0  0  0  0  0  0  0  0  0
   38.1580   25.2630   34.5950 C   0  0  0  0  0  0  0  0  0  0  0  0
   39.3150   24.8410   34.0010 C   0  0  0  0  0  0  0  0  0  0  0  0
   40.1910   24.0650   34.7460 C   0  0  0  0  0  0  0  0  0  0  0  0
   39.8480   23.7630   36.0340 C   0  0  0  0  0  0  0  0  0  0  0  0
   38.6810   24.1870   36.6400 C   0  0  0  0  0  0  0  0  0  0  0  0
   37.8880   24.9290   35.8630 N   0  0  0  0  0  0  0  0  0  0  0  0
   39.6290   25.0520   32.9870 H   0  0  0  0  0  0  0  0  0  0  0  0
   41.1400   23.6810   34.3570 H   0  0  0  0  0  0  0  0  0  0  0  0
   40.5340   23.1540   36.6230 H   0  0  0  0  0  0  0  0  0  0  0  0
   38.2830   23.8830   38.0170 C   0  0  0  0  0  0  0  0  0  0  0  0
   37.9650   25.0000   38.7500 F   0  0  0  0  0  0  0  0  0  0  0  0
   37.2640   22.9400   38.0600 F   0  0  0  0  0  0  0  0  0  0  0  0
   39.3760   23.2840   38.6260 F   0  0  0  0  0  0  0  0  0  0  0  0
   35.4460   29.3980   34.1280 C   0  0  2  0  0  0  0  0  0  0  0  0
   36.3010   29.4690   32.9340 C   0  0  0  0  0  0  0  0  0  0  0  0
   35.8660   28.1300   33.5800 C   0  0  1  0  0  0  0  0  0  0  0  0
   35.9190   29.8220   35.0360 H   0  0  0  0  0  0  0  0  0  0  0  0
   37.3670   29.7520   33.0390 H   0  0  0  0  0  0  0  0  0  0  0  0
   35.9020   29.7110   31.9300 H   0  0  0  0  0  0  0  0  0  0  0  0
   35.2170   27.5400   32.8870 H   0  0  0  0  0  0  0  0  0  0  0  0
   32.0470   30.4590   35.1520 C   0  0  0  0  0  0  0  0  0  0  0  0
   31.3370   30.4340   33.9070 C   0  0  0  0  0  0  0  0  0  0  0  0
   32.0720   30.0340   32.7280 C   0  0  0  0  0  0  0  0  0  0  0  0
   33.3850   29.7040   32.8450 N   0  0  0  0  0  0  0  0  0  0  0  0
   33.9890   29.7540   34.0730 C   0  0  0  0  0  0  0  0  0  0  0  0
   33.3550   30.1250   35.2420 N   0  0  0  0  0  0  0  0  0  0  0  0
   31.4500   30.7620   35.9870 H   0  0  0  0  0  0  0  0  0  0  0  0
   30.3080   30.7010   33.8590 H   0  0  0  0  0  0  0  0  0  0  0  0
   31.5300   30.0210   31.8100 H   0  0  0  0  0  0  0  0  0  0  0  0
  1  3  1  0  0  0  0
  1  5  1  0  0  0  0
  2  1  2  0  0  0  0
  3  4  1  0  0  0  0
  5 10  1  0  0  0  0
  6  5  2  0  0  0  0
  6  7  1  0  0  0  0
  7  8  2  0  0  0  0
  8 13  1  0  0  0  0
  8  9  1  0  0  0  0
  9 14  1  0  0  0  0
 10  9  2  0  0  0  0
 11  6  1  0  0  0  0
 12  7  1  0  0  0  0
 14 16  1  0  0  0  0
 14 17  1  0  0  0  0
 14 15  1  0  0  0  0
 18 21  1  1  0  0  0
 19 22  1  0  0  0  0
 19 20  1  0  0  0  0
 19 18  1  0  0  0  0
 20 24  1  6  0  0  0
 20 18  1  0  0  0  0
 20  3  1  0  0  0  0
 23 19  1  0  0  0  0
 25 30  1  0  0  0  0
 25 31  1  0  0  0  0
 26 25  2  0  0  0  0
 27 28  2  0  0  0  0
 27 26  1  0  0  0  0
 28 29  1  0  0  0  0
 29 18  1  0  0  0  0
 29 30  2  0  0  0  0
 32 26  1  0  0  0  0
 33 27  1  0  0  0  0
M  END
>  <minimizedAffinity>
-5.15577602

$$$$

 OpenBabel03272508553D

 33 35  0  0  1  0  0  0  0  0999 V2000
   36.8410   26.7280   32.9720 C   0  0  0  0  0  0  0  0  0  0  0  0
   37.1370   26.2600   34.1120 O   0  0  0  0  0  0  0  0  0  0  0  0
   36.9980   25.9240   31.7950 N   0  0  0  0  0  0  0  0  0  0  0  0
   36.9290   26.2950   30.8220 H   0  0  0  0  0  0  0  0  0  0  0  0
   36.3340   28.1000   32.8320 C   0  0  0  0  0  0  0  0  0  0  0  0
   36.1390   28.5880   31.5690 C   0  0  0  0  0  0  0  0  0  0  0  0
   35.6560   29.8810   31.4320 C   0  0  0  0  0  0  0  0  0  0  0  0
   35.4030   30.5980   32.5680 C   0  0  0  0  0  0  0  0  0  0  0  0
   35.5980   30.1100   33.8460 C   0  0  0  0  0  0  0  0  0  0  0  0
   36.0640   28.8600   33.9000 N   0  0  0  0  0  0  0  0  0  0  0  0
   36.3250   28.0610   30.6420 H   0  0  0  0  0  0  0  0  0  0  0  0
   35.4690   30.3580   30.4640 H   0  0  0  0  0  0  0  0  0  0  0  0
   35.0230   31.6150   32.4640 H   0  0  0  0  0  0  0  0  0  0  0  0
   35.3370   30.8510   35.0840 C   0  0  0  0  0  0  0  0  0  0  0  0
   34.1630   30.4870   35.6960 F   0  0  0  0  0  0  0  0  0  0  0  0
   36.4120   30.7770   35.9610 F   0  0  0  0  0  0  0  0  0  0  0  0
   35.2270   32.1890   34.7340 F   0  0  0  0  0  0  0  0  0  0  0  0
   36.4550   23.5580   31.2610 C   0  0  2  0  0  0  0  0  0  0  0  0
   37.7940   23.8050   30.7090 C   0  0  0  0  0  0  0  0  0  0  0  0
   37.2670   24.5070   31.9850 C   0  0  1  0  0  0  0  0  0  0  0  0
   35.6330   23.8880   30.5940 H   0  0  0  0  0  0  0  0  0  0  0  0
   37.9060   24.4330   29.8030 H   0  0  0  0  0  0  0  0  0  0  0  0
   38.6270   23.0840   30.8230 H   0  0  0  0  0  0  0  0  0  0  0  0
   37.8630   24.2110   32.8830 H   0  0  0  0  0  0  0  0  0  0  0  0
   36.2740   20.8250   33.7560 C   0  0  0  0  0  0  0  0  0  0  0  0
   35.4050   19.8850   33.1100 C   0  0  0  0  0  0  0  0  0  0  0  0
   34.9050   20.2320   31.7990 C   0  0  0  0  0  0  0  0  0  0  0  0
   35.2720   21.4160   31.2400 N   0  0  0  0  0  0  0  0  0  0  0  0
   36.1070   22.2580   31.9260 C   0  0  0  0  0  0  0  0  0  0  0  0
   36.6240   21.9970   33.1790 N   0  0  0  0  0  0  0  0  0  0  0  0
   36.6110   20.5120   34.7230 H   0  0  0  0  0  0  0  0  0  0  0  0
   35.1430   18.9690   33.5830 H   0  0  0  0  0  0  0  0  0  0  0  0
   34.2610   19.5230   31.3310 H   0  0  0  0  0  0  0  0  0  0  0  0
  1  2  2  0  0  0  0
  3 20  1  0  0  0  0
  3  1  1  0  0  0  0
  4  3  1  0  0  0  0
  5  1  1  0  0  0  0
  5 10  1  0  0  0  0
  6  5  2  0  0  0  0
  7  6  1  0  0  0  0
  7  8  2  0  0  0  0
  8  9  1  0  0  0  0
  9 10  2  0  0  0  0
  9 14  1  0  0  0  0
 11  6  1  0  0  0  0
 12  7  1  0  0  0  0
 13  8  1  0  0  0  0
 14 15  1  0  0  0  0
 14 16  1  0  0  0  0
 17 14  1  0  0  0  0
 18 21  1  6  0  0  0
 18 29  1  0  0  0  0
 18 20  1  0  0  0  0
 19 23  1  0  0  0  0
 19 18  1  0  0  0  0
 19 20  1  0  0  0  0
 20 24  1  1  0  0  0
 22 19  1  0  0  0  0
 25 31  1  0  0  0  0
 26 32  1  0  0  0  0
 26 25  2  0  0  0  0
 27 26  1  0  0  0  0
 28 27  2  0  0  0  0
 28 29  1  0  0  0  0
 29 30  2  0  0  0  0
 30 25  1  0  0  0  0
 33 27  1  0  0  0  0
M  END
>  <minimizedAffinity>
-5.11970186

$$$$

 OpenBabel03272508553D

 33 35  0  0  1  0  0  0  0  0999 V2000
   36.9680   26.5720   32.7260 C   0  0  0  0  0  0  0  0  0  0  0  0
   37.0480   26.0580   33.8810 O   0  0  0  0  0  0  0  0  0  0  0  0
   37.3050   25.8020   31.5640 N   0  0  0  0  0  0  0  0  0  0  0  0
   37.4170   26.2070   30.6090 H   0  0  0  0  0  0  0  0  0  0  0  0
   36.5320   27.9640   32.5530 C   0  0  0  0  0  0  0  0  0  0  0  0
   36.5500   28.4920   31.2910 C   0  0  0  0  0  0  0  0  0  0  0  0
   36.1340   29.8050   31.1220 C   0  0  0  0  0  0  0  0  0  0  0  0
   35.7310   30.5000   32.2280 C   0  0  0  0  0  0  0  0  0  0  0  0
   35.7100   29.9720   33.5050 C   0  0  0  0  0  0  0  0  0  0  0  0
   36.1230   28.7050   33.5900 N   0  0  0  0  0  0  0  0  0  0  0  0
   36.8610   27.9830   30.3880 H   0  0  0  0  0  0  0  0  0  0  0  0
   36.1140   30.3130   30.1530 H   0  0  0  0  0  0  0  0  0  0  0  0
   35.4030   31.5320   32.0990 H   0  0  0  0  0  0  0  0  0  0  0  0
   35.2830   30.6880   34.7100 C   0  0  0  0  0  0  0  0  0  0  0  0
   35.1020   32.0340   34.5060 F   0  0  0  0  0  0  0  0  0  0  0  0
   34.1590   30.1040   35.2820 F   0  0  0  0  0  0  0  0  0  0  0  0
   36.2990   30.5420   35.6440 F   0  0  0  0  0  0  0  0  0  0  0  0
   36.5830   23.4740   31.0790 C   0  0  2  0  0  0  0  0  0  0  0  0
   37.8970   23.6370   30.4400 C   0  0  0  0  0  0  0  0  0  0  0  0
   37.4980   24.3710   31.7440 C   0  0  1  0  0  0  0  0  0  0  0  0
   35.7430   23.8540   30.4640 H   0  0  0  0  0  0  0  0  0  0  0  0
   37.9890   24.2550   29.5260 H   0  0  0  0  0  0  0  0  0  0  0  0
   38.6890   22.8650   30.5040 H   0  0  0  0  0  0  0  0  0  0  0  0
   38.1310   24.0400   32.6030 H   0  0  0  0  0  0  0  0  0  0  0  0
   35.2260   20.0820   31.6980 C   0  0  0  0  0  0  0  0  0  0  0  0
   35.5560   19.8740   33.0770 C   0  0  0  0  0  0  0  0  0  0  0  0
   36.2470   20.9410   33.7660 C   0  0  0  0  0  0  0  0  0  0  0  0
   36.5500   22.0800   33.0900 N   0  0  0  0  0  0  0  0  0  0  0  0
   36.1990   22.1990   31.7710 C   0  0  0  0  0  0  0  0  0  0  0  0
   35.5390   21.2260   31.0470 N   0  0  0  0  0  0  0  0  0  0  0  0
   34.7160   19.2580   31.2440 H   0  0  0  0  0  0  0  0  0  0  0  0
   35.3000   18.9660   33.5690 H   0  0  0  0  0  0  0  0  0  0  0  0
   36.4850   20.7710   34.7910 H   0  0  0  0  0  0  0  0  0  0  0  0
  1  2  2  0  0  0  0
  3 20  1  0  0  0  0
  3  1  1  0  0  0  0
  4  3  1  0  0  0  0
  5  1  1  0  0  0  0
  5 10  1  0  0  0  0
  6  5  2  0  0  0  0
  7  6  1  0  0  0  0
  7  8  2  0  0  0  0
  8  9  1  0  0  0  0
  9 10  2  0  0  0  0
  9 14  1  0  0  0  0
 11  6  1  0  0  0  0
 12  7  1  0  0  0  0
 13  8  1  0  0  0  0
 14 16  1  0  0  0  0
 14 17  1  0  0  0  0
 15 14  1  0  0  0  0
 18 21  1  6  0  0  0
 18 20  1  0  0  0  0
 18 29  1  0  0  0  0
 19 23  1  0  0  0  0
 19 18  1  0  0  0  0
 19 20  1  0  0  0  0
 20 24  1  1  0  0  0
 22 19  1  0  0  0  0
 25 26  1  0  0  0  0
 26 32  1  0  0  0  0
 26 27  2  0  0  0  0
 27 33  1  0  0  0  0
 28 27  1  0  0  0  0
 29 28  2  0  0  0  0
 30 25  2  0  0  0  0
 30 29  1  0  0  0  0
 31 25  1  0  0  0  0
M  END
>  <minimizedAffinity>
-5.05170965

$$$$
