
 OpenBabel03272506073D

 25 26  0  0  0  0  0  0  0  0999 V2000
   38.2560   26.0570   34.0840 C   0  0  0  0  0  0  0  0  0  0  0  0
   37.6880   25.8230   33.1660 H   0  0  0  0  0  0  0  0  0  0  0  0
   39.2980   26.2580   33.7480 H   0  0  0  0  0  0  0  0  0  0  0  0
   38.2330   24.8500   34.9820 C   0  0  0  0  0  0  0  0  0  0  0  0
   38.2040   23.5400   34.3720 C   0  0  0  0  0  0  0  0  0  0  0  0
   38.1820   22.4900   35.7990 S   0  0  0  0  0  0  0  0  0  0  0  0
   38.2160   23.9200   37.0150 C   0  0  0  0  0  0  0  0  0  0  0  0
   38.2350   24.8690   36.2870 N   0  0  0  0  0  0  0  0  0  0  0  0
   38.1970   23.3190   33.3370 H   0  0  0  0  0  0  0  0  0  0  0  0
   38.2140   23.7660   38.4960 C   0  0  0  0  0  0  0  0  0  0  0  0
   39.4950   23.4530   38.9600 F   0  0  0  0  0  0  0  0  0  0  0  0
   37.2940   22.8000   38.8260 F   0  0  0  0  0  0  0  0  0  0  0  0
   37.8530   24.9760   39.0190 F   0  0  0  0  0  0  0  0  0  0  0  0
   37.7270   27.2540   34.7810 C   0  0  0  0  0  0  0  0  0  0  0  0
   37.1500   26.9280   35.6830 H   0  0  0  0  0  0  0  0  0  0  0  0
   38.4920   27.9720   35.1200 H   0  0  0  0  0  0  0  0  0  0  0  0
   35.5640   28.2210   31.9140 C   0  0  0  0  0  0  0  0  0  0  0  0
   34.7920   29.2640   32.4540 C   0  0  0  0  0  0  0  0  0  0  0  0
   35.0250   29.6180   33.7900 C   0  0  0  0  0  0  0  0  0  0  0  0
   35.9750   28.9390   34.4760 N   0  0  0  0  0  0  0  0  0  0  0  0
   36.6870   27.9470   33.9120 C   0  0  0  0  0  0  0  0  0  0  0  0
   36.4870   27.5900   32.6480 N   0  0  0  0  0  0  0  0  0  0  0  0
   35.3710   27.9600   30.8790 H   0  0  0  0  0  0  0  0  0  0  0  0
   34.0460   29.7760   31.8640 H   0  0  0  0  0  0  0  0  0  0  0  0
   34.4460   30.4210   34.2380 H   0  0  0  0  0  0  0  0  0  0  0  0
  1 14  1  0  0  0  0
  1  4  1  0  0  0  0
  2  1  1  0  0  0  0
  3  1  1  0  0  0  0
  4  8  1  0  0  0  0
  5  4  2  0  0  0  0
  5  6  1  0  0  0  0
  6  7  1  0  0  0  0
  7 10  1  0  0  0  0
  8  7  2  0  0  0  0
  9  5  1  0  0  0  0
 10 12  1  0  0  0  0
 10 11  1  0  0  0  0
 10 13  1  0  0  0  0
 14 16  1  0  0  0  0
 14 15  1  0  0  0  0
 17 18  2  0  0  0  0
 17 22  1  0  0  0  0
 18 19  1  0  0  0  0
 19 25  1  0  0  0  0
 19 20  2  0  0  0  0
 21 20  1  0  0  0  0
 21 14  1  0  0  0  0
 22 21  2  0  0  0  0
 23 17  1  0  0  0  0
 24 18  1  0  0  0  0
M  END
>  <minimizedAffinity>
-4.81776285

$$$$

 OpenBabel03272506073D

 25 26  0  0  0  0  0  0  0  0999 V2000
   37.9780   26.0930   34.1010 C   0  0  0  0  0  0  0  0  0  0  0  0
   37.3260   25.8340   33.2470 H   0  0  0  0  0  0  0  0  0  0  0  0
   38.9680   26.3410   33.6570 H   0  0  0  0  0  0  0  0  0  0  0  0
   38.1050   24.8840   34.9890 C   0  0  0  0  0  0  0  0  0  0  0  0
   38.2430   23.5870   34.3680 C   0  0  0  0  0  0  0  0  0  0  0  0
   38.3500   22.5300   35.7860 S   0  0  0  0  0  0  0  0  0  0  0  0
   38.1990   23.9420   37.0140 C   0  0  0  0  0  0  0  0  0  0  0  0
   38.1000   24.8920   36.2940 N   0  0  0  0  0  0  0  0  0  0  0  0
   38.2680   23.3760   33.3310 H   0  0  0  0  0  0  0  0  0  0  0  0
   38.2120   23.7760   38.4930 C   0  0  0  0  0  0  0  0  0  0  0  0
   37.3000   22.7940   38.8880 F   0  0  0  0  0  0  0  0  0  0  0  0
   37.9380   24.9960   39.0650 F   0  0  0  0  0  0  0  0  0  0  0  0
   39.4670   23.3560   38.8330 F   0  0  0  0  0  0  0  0  0  0  0  0
   37.4730   27.2640   34.8580 C   0  0  0  0  0  0  0  0  0  0  0  0
   36.8070   26.9060   35.6840 H   0  0  0  0  0  0  0  0  0  0  0  0
   38.2520   27.8960   35.3130 H   0  0  0  0  0  0  0  0  0  0  0  0
   35.0640   29.8340   33.6650 C   0  0  0  0  0  0  0  0  0  0  0  0
   34.9240   29.5110   32.3050 C   0  0  0  0  0  0  0  0  0  0  0  0
   35.6570   28.4200   31.8190 C   0  0  0  0  0  0  0  0  0  0  0  0
   36.4500   27.7450   32.6850 N   0  0  0  0  0  0  0  0  0  0  0  0
   36.5500   28.0950   33.9790 C   0  0  0  0  0  0  0  0  0  0  0  0
   35.8670   29.1260   34.4670 N   0  0  0  0  0  0  0  0  0  0  0  0
   34.4900   30.6810   34.0250 H   0  0  0  0  0  0  0  0  0  0  0  0
   34.2760   30.0810   31.6550 H   0  0  0  0  0  0  0  0  0  0  0  0
   35.5710   28.1430   30.7720 H   0  0  0  0  0  0  0  0  0  0  0  0
  1 14  1  0  0  0  0
  1  4  1  0  0  0  0
  2  1  1  0  0  0  0
  3  1  1  0  0  0  0
  4  8  1  0  0  0  0
  5  4  2  0  0  0  0
  5  6  1  0  0  0  0
  6  7  1  0  0  0  0
  7 10  1  0  0  0  0
  8  7  2  0  0  0  0
  9  5  1  0  0  0  0
 10 13  1  0  0  0  0
 10 11  1  0  0  0  0
 10 12  1  0  0  0  0
 14 16  1  0  0  0  0
 14 15  1  0  0  0  0
 17 23  1  0  0  0  0
 17 22  1  0  0  0  0
 18 17  2  0  0  0  0
 19 18  1  0  0  0  0
 19 20  2  0  0  0  0
 20 21  1  0  0  0  0
 21 22  2  0  0  0  0
 21 14  1  0  0  0  0
 24 18  1  0  0  0  0
 25 19  1  0  0  0  0
M  END
>  <minimizedAffinity>
-4.81154919

$$$$

 OpenBabel03272506073D

 25 26  0  0  0  0  0  0  0  0999 V2000
   38.1660   27.2100   34.7040 C   0  0  0  0  0  0  0  0  0  0  0  0
   38.8300   27.2470   33.8220 H   0  0  0  0  0  0  0  0  0  0  0  0
   38.6060   27.9220   35.4390 H   0  0  0  0  0  0  0  0  0  0  0  0
   38.1930   25.8150   35.2660 C   0  0  0  0  0  0  0  0  0  0  0  0
   38.2180   24.7030   34.3440 C   0  0  0  0  0  0  0  0  0  0  0  0
   38.2400   23.3250   35.4580 S   0  0  0  0  0  0  0  0  0  0  0  0
   38.2140   24.3990   36.9970 C   0  0  0  0  0  0  0  0  0  0  0  0
   38.1940   25.5020   36.5340 N   0  0  0  0  0  0  0  0  0  0  0  0
   38.2200   24.7510   33.2870 H   0  0  0  0  0  0  0  0  0  0  0  0
   38.2200   23.8750   38.3900 C   0  0  0  0  0  0  0  0  0  0  0  0
   39.4830   23.3810   38.7260 F   0  0  0  0  0  0  0  0  0  0  0  0
   37.2450   22.9110   38.4900 F   0  0  0  0  0  0  0  0  0  0  0  0
   37.9400   24.9300   39.2120 F   0  0  0  0  0  0  0  0  0  0  0  0
   36.7820   27.6330   34.3820 C   0  0  0  0  0  0  0  0  0  0  0  0
   36.1080   26.7380   34.4160 H   0  0  0  0  0  0  0  0  0  0  0  0
   36.3560   28.3910   35.0590 H   0  0  0  0  0  0  0  0  0  0  0  0
   36.0680   29.6210   31.3220 C   0  0  0  0  0  0  0  0  0  0  0  0
   36.6140   28.8200   30.3040 C   0  0  0  0  0  0  0  0  0  0  0  0
   37.2170   27.6140   30.6840 C   0  0  0  0  0  0  0  0  0  0  0  0
   37.2370   27.2930   31.9990 N   0  0  0  0  0  0  0  0  0  0  0  0
   36.7000   28.0960   32.9350 C   0  0  0  0  0  0  0  0  0  0  0  0
   36.1220   29.2460   32.6040 N   0  0  0  0  0  0  0  0  0  0  0  0
   35.6040   30.5520   31.0110 H   0  0  0  0  0  0  0  0  0  0  0  0
   36.5720   29.1200   29.2680 H   0  0  0  0  0  0  0  0  0  0  0  0
   37.6490   26.9700   29.9220 H   0  0  0  0  0  0  0  0  0  0  0  0
  1  4  1  0  0  0  0
  1  3  1  0  0  0  0
  2  1  1  0  0  0  0
  4  8  1  0  0  0  0
  5  4  2  0  0  0  0
  5  6  1  0  0  0  0
  6  7  1  0  0  0  0
  7 10  1  0  0  0  0
  8  7  2  0  0  0  0
  9  5  1  0  0  0  0
 10 12  1  0  0  0  0
 10 11  1  0  0  0  0
 10 13  1  0  0  0  0
 14 15  1  0  0  0  0
 14  1  1  0  0  0  0
 14 16  1  0  0  0  0
 17 22  1  0  0  0  0
 18 19  1  0  0  0  0
 18 17  2  0  0  0  0
 19 20  2  0  0  0  0
 20 21  1  0  0  0  0
 21 14  1  0  0  0  0
 22 21  2  0  0  0  0
 23 17  1  0  0  0  0
 24 18  1  0  0  0  0
 25 19  1  0  0  0  0
M  END
>  <minimizedAffinity>
-4.81073809

$$$$

 OpenBabel03272506073D

 25 26  0  0  0  0  0  0  0  0999 V2000
   39.2880   22.1920   33.7440 C   0  0  0  0  0  0  0  0  0  0  0  0
   39.1210   21.1150   33.5600 H   0  0  0  0  0  0  0  0  0  0  0  0
   40.1610   22.4700   33.1120 H   0  0  0  0  0  0  0  0  0  0  0  0
   39.6280   22.3820   35.1970 C   0  0  0  0  0  0  0  0  0  0  0  0
   40.9170   21.9270   35.6670 C   0  0  0  0  0  0  0  0  0  0  0  0
   40.8360   22.3590   37.3830 S   0  0  0  0  0  0  0  0  0  0  0  0
   39.1100   23.0860   37.2550 C   0  0  0  0  0  0  0  0  0  0  0  0
   38.8560   22.9290   36.0970 N   0  0  0  0  0  0  0  0  0  0  0  0
   41.6750   21.4610   35.0950 H   0  0  0  0  0  0  0  0  0  0  0  0
   38.3600   23.6800   38.3950 C   0  0  0  0  0  0  0  0  0  0  0  0
   37.3010   22.8500   38.7750 F   0  0  0  0  0  0  0  0  0  0  0  0
   37.9270   24.9300   38.0210 F   0  0  0  0  0  0  0  0  0  0  0  0
   39.2330   23.7660   39.4430 F   0  0  0  0  0  0  0  0  0  0  0  0
   38.1180   23.0150   33.3540 C   0  0  0  0  0  0  0  0  0  0  0  0
   37.7060   23.5200   34.2650 H   0  0  0  0  0  0  0  0  0  0  0  0
   38.3280   23.7990   32.6090 H   0  0  0  0  0  0  0  0  0  0  0  0
   35.4740   21.4150   31.2850 C   0  0  0  0  0  0  0  0  0  0  0  0
   34.9390   20.4570   32.1640 C   0  0  0  0  0  0  0  0  0  0  0  0
   35.4930   20.3760   33.4490 C   0  0  0  0  0  0  0  0  0  0  0  0
   36.5040   21.2200   33.7650 N   0  0  0  0  0  0  0  0  0  0  0  0
   36.9800   22.1190   32.8870 C   0  0  0  0  0  0  0  0  0  0  0  0
   36.4750   22.2190   31.6610 N   0  0  0  0  0  0  0  0  0  0  0  0
   35.0340   21.4650   30.2950 H   0  0  0  0  0  0  0  0  0  0  0  0
   34.1310   19.8070   31.8630 H   0  0  0  0  0  0  0  0  0  0  0  0
   35.1020   19.6470   34.1530 H   0  0  0  0  0  0  0  0  0  0  0  0
  1  4  1  0  0  0  0
  2  1  1  0  0  0  0
  3  1  1  0  0  0  0
  4  5  2  0  0  0  0
  4  8  1  0  0  0  0
  5  6  1  0  0  0  0
  7  6  1  0  0  0  0
  7 10  1  0  0  0  0
  8  7  2  0  0  0  0
  9  5  1  0  0  0  0
 10 11  1  0  0  0  0
 10 13  1  0  0  0  0
 12 10  1  0  0  0  0
 14  1  1  0  0  0  0
 14 15  1  0  0  0  0
 16 14  1  0  0  0  0
 17 22  2  0  0  0  0
 17 18  1  0  0  0  0
 18 19  2  0  0  0  0
 19 20  1  0  0  0  0
 19 25  1  0  0  0  0
 21 14  1  0  0  0  0
 21 20  2  0  0  0  0
 22 21  1  0  0  0  0
 23 17  1  0  0  0  0
 24 18  1  0  0  0  0
M  END
>  <minimizedAffinity>
-4.71711588

$$$$

 OpenBabel03272506073D

 25 26  0  0  0  0  0  0  0  0999 V2000
   38.6060   22.8110   33.5090 C   0  0  0  0  0  0  0  0  0  0  0  0
   38.7220   21.7770   33.8800 H   0  0  0  0  0  0  0  0  0  0  0  0
   39.5570   23.0470   32.9800 H   0  0  0  0  0  0  0  0  0  0  0  0
   38.4390   23.7270   34.6910 C   0  0  0  0  0  0  0  0  0  0  0  0
   38.2690   25.1410   34.4460 C   0  0  0  0  0  0  0  0  0  0  0  0
   38.1220   25.7670   36.0970 S   0  0  0  0  0  0  0  0  0  0  0  0
   38.3050   24.0770   36.8950 C   0  0  0  0  0  0  0  0  0  0  0  0
   38.4350   23.3630   35.9440 N   0  0  0  0  0  0  0  0  0  0  0  0
   38.2450   25.6270   33.5060 H   0  0  0  0  0  0  0  0  0  0  0  0
   38.2770   23.8320   38.3630 C   0  0  0  0  0  0  0  0  0  0  0  0
   37.9570   25.0040   39.0530 F   0  0  0  0  0  0  0  0  0  0  0  0
   39.5010   23.3300   38.7380 F   0  0  0  0  0  0  0  0  0  0  0  0
   37.2890   22.9160   38.5930 F   0  0  0  0  0  0  0  0  0  0  0  0
   37.4730   22.9430   32.5630 C   0  0  0  0  0  0  0  0  0  0  0  0
   36.7440   23.6920   32.9660 H   0  0  0  0  0  0  0  0  0  0  0  0
   37.7500   23.2680   31.5460 H   0  0  0  0  0  0  0  0  0  0  0  0
   35.4570   19.9740   33.5370 C   0  0  0  0  0  0  0  0  0  0  0  0
   35.2690   19.3180   32.3080 C   0  0  0  0  0  0  0  0  0  0  0  0
   35.8350   19.9040   31.1680 C   0  0  0  0  0  0  0  0  0  0  0  0
   36.5260   21.0590   31.3170 N   0  0  0  0  0  0  0  0  0  0  0  0
   36.6760   21.6470   32.5160 C   0  0  0  0  0  0  0  0  0  0  0  0
   36.1500   21.1150   33.6150 N   0  0  0  0  0  0  0  0  0  0  0  0
   35.0120   19.5070   34.4090 H   0  0  0  0  0  0  0  0  0  0  0  0
   34.7090   18.3970   32.2420 H   0  0  0  0  0  0  0  0  0  0  0  0
   35.7090   19.4220   30.2020 H   0  0  0  0  0  0  0  0  0  0  0  0
  1  2  1  0  0  0  0
  1  4  1  0  0  0  0
  3  1  1  0  0  0  0
  4  8  1  0  0  0  0
  5  4  2  0  0  0  0
  5  6  1  0  0  0  0
  6  7  1  0  0  0  0
  7 10  1  0  0  0  0
  8  7  2  0  0  0  0
  9  5  1  0  0  0  0
 10 13  1  0  0  0  0
 10 12  1  0  0  0  0
 10 11  1  0  0  0  0
 14 15  1  0  0  0  0
 14  1  1  0  0  0  0
 16 14  1  0  0  0  0
 17 22  1  0  0  0  0
 17 23  1  0  0  0  0
 18 17  2  0  0  0  0
 19 20  2  0  0  0  0
 19 18  1  0  0  0  0
 20 21  1  0  0  0  0
 21 14  1  0  0  0  0
 21 22  2  0  0  0  0
 24 18  1  0  0  0  0
 25 19  1  0  0  0  0
M  END
>  <minimizedAffinity>
-4.65733385

$$$$

 OpenBabel03272506073D

 25 26  0  0  0  0  0  0  0  0999 V2000
   38.3820   26.7130   34.6280 C   0  0  0  0  0  0  0  0  0  0  0  0
   38.7690   27.7410   34.7540 H   0  0  0  0  0  0  0  0  0  0  0  0
   39.2740   26.0820   34.4140 H   0  0  0  0  0  0  0  0  0  0  0  0
   37.4490   26.6950   33.4470 C   0  0  0  0  0  0  0  0  0  0  0  0
   36.9850   27.9570   32.9180 C   0  0  0  0  0  0  0  0  0  0  0  0
   35.9480   27.4180   31.5860 S   0  0  0  0  0  0  0  0  0  0  0  0
   36.2640   25.5940   31.9030 C   0  0  0  0  0  0  0  0  0  0  0  0
   37.0070   25.6270   32.8410 N   0  0  0  0  0  0  0  0  0  0  0  0
   37.2290   28.9240   33.2710 H   0  0  0  0  0  0  0  0  0  0  0  0
   35.6720   24.4860   31.1050 C   0  0  0  0  0  0  0  0  0  0  0  0
   35.0490   23.5560   31.9410 F   0  0  0  0  0  0  0  0  0  0  0  0
   36.6710   23.9160   30.3530 F   0  0  0  0  0  0  0  0  0  0  0  0
   34.7200   25.0430   30.2990 F   0  0  0  0  0  0  0  0  0  0  0  0
   37.7100   26.2130   35.8510 C   0  0  0  0  0  0  0  0  0  0  0  0
   37.8210   26.9720   36.6670 H   0  0  0  0  0  0  0  0  0  0  0  0
   36.6330   26.0050   35.7400 H   0  0  0  0  0  0  0  0  0  0  0  0
   40.0570   23.3510   36.2130 C   0  0  0  0  0  0  0  0  0  0  0  0
   39.6780   22.8010   37.4490 C   0  0  0  0  0  0  0  0  0  0  0  0
   38.6250   23.4200   38.1380 C   0  0  0  0  0  0  0  0  0  0  0  0
   38.0400   24.5030   37.5740 N   0  0  0  0  0  0  0  0  0  0  0  0
   38.4420   24.9910   36.3870 C   0  0  0  0  0  0  0  0  0  0  0  0
   39.4370   24.4250   35.7120 N   0  0  0  0  0  0  0  0  0  0  0  0
   40.8730   22.8600   35.6930 H   0  0  0  0  0  0  0  0  0  0  0  0
   40.1770   21.9340   37.8570 H   0  0  0  0  0  0  0  0  0  0  0  0
   38.3070   23.0190   39.0960 H   0  0  0  0  0  0  0  0  0  0  0  0
  1  2  1  0  0  0  0
  1 14  1  0  0  0  0
  3  1  1  0  0  0  0
  4  1  1  0  0  0  0
  5  9  1  0  0  0  0
  5  4  2  0  0  0  0
  6  7  1  0  0  0  0
  6  5  1  0  0  0  0
  7  8  2  0  0  0  0
  8  4  1  0  0  0  0
 10  7  1  0  0  0  0
 10 11  1  0  0  0  0
 12 10  1  0  0  0  0
 13 10  1  0  0  0  0
 14 21  1  0  0  0  0
 14 15  1  0  0  0  0
 16 14  1  0  0  0  0
 17 18  1  0  0  0  0
 18 24  1  0  0  0  0
 18 19  2  0  0  0  0
 19 25  1  0  0  0  0
 20 19  1  0  0  0  0
 21 20  2  0  0  0  0
 22 17  2  0  0  0  0
 22 21  1  0  0  0  0
 23 17  1  0  0  0  0
M  END
>  <minimizedAffinity>
-4.63195992

$$$$

 OpenBabel03272506073D

 25 26  0  0  0  0  0  0  0  0999 V2000
   39.0010   23.8630   33.6790 C   0  0  0  0  0  0  0  0  0  0  0  0
   39.6600   24.2630   32.8870 H   0  0  0  0  0  0  0  0  0  0  0  0
   39.5960   23.0760   34.1930 H   0  0  0  0  0  0  0  0  0  0  0  0
   37.7920   23.2470   33.0290 C   0  0  0  0  0  0  0  0  0  0  0  0
   37.1490   23.9640   31.9530 C   0  0  0  0  0  0  0  0  0  0  0  0
   35.8230   22.8630   31.5410 S   0  0  0  0  0  0  0  0  0  0  0  0
   36.2930   21.5970   32.8450 C   0  0  0  0  0  0  0  0  0  0  0  0
   37.2540   22.1010   33.3500 N   0  0  0  0  0  0  0  0  0  0  0  0
   37.4330   24.9020   31.5520 H   0  0  0  0  0  0  0  0  0  0  0  0
   35.5630   20.3230   33.0840 C   0  0  0  0  0  0  0  0  0  0  0  0
   36.3370   19.2290   32.6890 F   0  0  0  0  0  0  0  0  0  0  0  0
   34.3670   20.3800   32.4080 F   0  0  0  0  0  0  0  0  0  0  0  0
   35.3510   20.2340   34.4310 F   0  0  0  0  0  0  0  0  0  0  0  0
   38.6100   24.9030   34.6610 C   0  0  0  0  0  0  0  0  0  0  0  0
   39.3770   25.7190   34.6550 H   0  0  0  0  0  0  0  0  0  0  0  0
   37.6300   25.3710   34.4800 H   0  0  0  0  0  0  0  0  0  0  0  0
   37.9550   24.2380   38.2610 C   0  0  0  0  0  0  0  0  0  0  0  0
   38.9180   23.2630   38.5700 C   0  0  0  0  0  0  0  0  0  0  0  0
   39.7750   22.8500   37.5410 C   0  0  0  0  0  0  0  0  0  0  0  0
   39.6250   23.4120   36.3180 N   0  0  0  0  0  0  0  0  0  0  0  0
   38.6860   24.3420   36.0740 C   0  0  0  0  0  0  0  0  0  0  0  0
   37.8590   24.7530   37.0310 N   0  0  0  0  0  0  0  0  0  0  0  0
   37.3000   24.5470   39.0690 H   0  0  0  0  0  0  0  0  0  0  0  0
   38.9980   22.8450   39.5630 H   0  0  0  0  0  0  0  0  0  0  0  0
   40.5320   22.0980   37.7470 H   0  0  0  0  0  0  0  0  0  0  0  0
  1  3  1  0  0  0  0
  1 14  1  0  0  0  0
  2  1  1  0  0  0  0
  4  8  1  0  0  0  0
  4  1  1  0  0  0  0
  5  4  2  0  0  0  0
  6  5  1  0  0  0  0
  6  7  1  0  0  0  0
  7 10  1  0  0  0  0
  7  8  2  0  0  0  0
  9  5  1  0  0  0  0
 10 13  1  0  0  0  0
 11 10  1  0  0  0  0
 12 10  1  0  0  0  0
 14 21  1  0  0  0  0
 15 14  1  0  0  0  0
 16 14  1  0  0  0  0
 17 18  1  0  0  0  0
 17 23  1  0  0  0  0
 18 24  1  0  0  0  0
 19 25  1  0  0  0  0
 19 18  2  0  0  0  0
 20 19  1  0  0  0  0
 21 20  2  0  0  0  0
 21 22  1  0  0  0  0
 22 17  2  0  0  0  0
M  END
>  <minimizedAffinity>
-4.62271214

$$$$

 OpenBabel03272506073D

 25 26  0  0  0  0  0  0  0  0999 V2000
   40.3550   25.1520   34.2250 C   0  0  0  0  0  0  0  0  0  0  0  0
   40.0980   24.9760   33.1650 H   0  0  0  0  0  0  0  0  0  0  0  0
   41.4210   24.8470   34.3270 H   0  0  0  0  0  0  0  0  0  0  0  0
   39.4880   24.2700   35.0810 C   0  0  0  0  0  0  0  0  0  0  0  0
   38.8050   23.1610   34.4550 C   0  0  0  0  0  0  0  0  0  0  0  0
   37.9420   22.4580   35.8330 S   0  0  0  0  0  0  0  0  0  0  0  0
   38.5980   23.7220   37.0580 C   0  0  0  0  0  0  0  0  0  0  0  0
   39.2850   24.4120   36.3620 N   0  0  0  0  0  0  0  0  0  0  0  0
   38.8420   22.8840   33.4340 H   0  0  0  0  0  0  0  0  0  0  0  0
   38.2630   23.7410   38.5080 C   0  0  0  0  0  0  0  0  0  0  0  0
   37.7570   24.9890   38.8800 F   0  0  0  0  0  0  0  0  0  0  0  0
   39.3950   23.4120   39.2140 F   0  0  0  0  0  0  0  0  0  0  0  0
   37.2850   22.8070   38.7010 F   0  0  0  0  0  0  0  0  0  0  0  0
   40.2150   26.5780   34.6070 C   0  0  0  0  0  0  0  0  0  0  0  0
   40.1670   26.6550   35.7230 H   0  0  0  0  0  0  0  0  0  0  0  0
   41.0310   27.2340   34.2660 H   0  0  0  0  0  0  0  0  0  0  0  0
   36.7440   27.9140   34.5730 C   0  0  0  0  0  0  0  0  0  0  0  0
   36.4870   28.0570   33.1980 C   0  0  0  0  0  0  0  0  0  0  0  0
   37.5060   27.6940   32.3070 C   0  0  0  0  0  0  0  0  0  0  0  0
   38.6700   27.2290   32.8210 N   0  0  0  0  0  0  0  0  0  0  0  0
   38.8660   27.1120   34.1450 C   0  0  0  0  0  0  0  0  0  0  0  0
   37.9180   27.4490   35.0140 N   0  0  0  0  0  0  0  0  0  0  0  0
   35.9450   28.2000   35.2480 H   0  0  0  0  0  0  0  0  0  0  0  0
   35.5400   28.4330   32.8390 H   0  0  0  0  0  0  0  0  0  0  0  0
   37.3400   27.7910   31.2380 H   0  0  0  0  0  0  0  0  0  0  0  0
  1  3  1  0  0  0  0
  1 14  1  0  0  0  0
  1  4  1  0  0  0  0
  2  1  1  0  0  0  0
  4  8  1  0  0  0  0
  5  4  2  0  0  0  0
  5  6  1  0  0  0  0
  6  7  1  0  0  0  0
  7 10  1  0  0  0  0
  8  7  2  0  0  0  0
  9  5  1  0  0  0  0
 10 13  1  0  0  0  0
 10 11  1  0  0  0  0
 10 12  1  0  0  0  0
 14 15  1  0  0  0  0
 16 14  1  0  0  0  0
 17 22  1  0  0  0  0
 17 23  1  0  0  0  0
 18 17  2  0  0  0  0
 19 20  2  0  0  0  0
 19 18  1  0  0  0  0
 20 21  1  0  0  0  0
 21 14  1  0  0  0  0
 21 22  2  0  0  0  0
 24 18  1  0  0  0  0
 25 19  1  0  0  0  0
M  END
>  <minimizedAffinity>
-4.59285784

$$$$

 OpenBabel03272506073D

 25 26  0  0  0  0  0  0  0  0999 V2000
   38.3970   26.6660   34.2810 C   0  0  0  0  0  0  0  0  0  0  0  0
   38.9430   27.5650   34.6220 H   0  0  0  0  0  0  0  0  0  0  0  0
   37.3190   26.8990   34.4280 H   0  0  0  0  0  0  0  0  0  0  0  0
   38.7930   25.5060   35.1520 C   0  0  0  0  0  0  0  0  0  0  0  0
   39.7770   24.5740   34.6520 C   0  0  0  0  0  0  0  0  0  0  0  0
   39.8930   23.4290   35.9990 S   0  0  0  0  0  0  0  0  0  0  0  0
   38.6260   24.3330   37.0490 C   0  0  0  0  0  0  0  0  0  0  0  0
   38.3240   25.2510   36.3430 N   0  0  0  0  0  0  0  0  0  0  0  0
   40.2700   24.6100   33.7150 H   0  0  0  0  0  0  0  0  0  0  0  0
   38.1970   23.9020   38.4070 C   0  0  0  0  0  0  0  0  0  0  0  0
   37.6090   24.9650   39.0990 F   0  0  0  0  0  0  0  0  0  0  0  0
   39.2950   23.4020   39.0660 F   0  0  0  0  0  0  0  0  0  0  0  0
   37.2540   22.9290   38.2350 F   0  0  0  0  0  0  0  0  0  0  0  0
   38.6430   26.3710   32.8490 C   0  0  0  0  0  0  0  0  0  0  0  0
   38.8320   27.3310   32.3040 H   0  0  0  0  0  0  0  0  0  0  0  0
   39.4980   25.7050   32.6500 H   0  0  0  0  0  0  0  0  0  0  0  0
   36.0010   24.0820   31.5780 C   0  0  0  0  0  0  0  0  0  0  0  0
   35.0720   24.9740   31.0150 C   0  0  0  0  0  0  0  0  0  0  0  0
   35.3660   26.3420   31.0800 C   0  0  0  0  0  0  0  0  0  0  0  0
   36.5200   26.7220   31.6770 N   0  0  0  0  0  0  0  0  0  0  0  0
   37.3760   25.8280   32.2020 C   0  0  0  0  0  0  0  0  0  0  0  0
   37.1230   24.5240   32.1550 N   0  0  0  0  0  0  0  0  0  0  0  0
   35.7580   23.0270   31.5190 H   0  0  0  0  0  0  0  0  0  0  0  0
   34.1640   24.6200   30.5480 H   0  0  0  0  0  0  0  0  0  0  0  0
   34.6690   27.0590   30.6530 H   0  0  0  0  0  0  0  0  0  0  0  0
  1  3  1  0  0  0  0
  1  2  1  0  0  0  0
  1  4  1  0  0  0  0
  4  8  1  0  0  0  0
  5  4  2  0  0  0  0
  5  6  1  0  0  0  0
  6  7  1  0  0  0  0
  7 10  1  0  0  0  0
  8  7  2  0  0  0  0
  9  5  1  0  0  0  0
 10 12  1  0  0  0  0
 10 11  1  0  0  0  0
 13 10  1  0  0  0  0
 14  1  1  0  0  0  0
 15 14  1  0  0  0  0
 16 14  1  0  0  0  0
 17 22  1  0  0  0  0
 18 19  1  0  0  0  0
 18 17  2  0  0  0  0
 19 20  2  0  0  0  0
 20 21  1  0  0  0  0
 21 14  1  0  0  0  0
 22 21  2  0  0  0  0
 23 17  1  0  0  0  0
 24 18  1  0  0  0  0
 25 19  1  0  0  0  0
M  END
>  <minimizedAffinity>
-4.57796621

$$$$
