
 OpenBabel03272502153D

 37 39  0  0  1  0  0  0  0  0999 V2000
   36.8540   27.7290   33.7450 C   0  0  0  0  0  0  0  0  0  0  0  0
   36.8420   27.8420   32.3590 C   0  0  0  0  0  0  0  0  0  0  0  0
   36.2860   28.9360   31.6730 C   0  0  0  0  0  0  0  0  0  0  0  0
   35.7370   29.9250   32.4380 N   0  0  0  0  0  0  0  0  0  0  0  0
   35.7510   29.8130   33.7680 C   0  0  0  0  0  0  0  0  0  0  0  0
   36.2860   28.7610   34.3990 N   0  0  0  0  0  0  0  0  0  0  0  0
   37.2840   27.0420   31.7800 H   0  0  0  0  0  0  0  0  0  0  0  0
   36.3060   28.9650   30.6030 H   0  0  0  0  0  0  0  0  0  0  0  0
   35.1540   30.8920   34.5720 C   0  0  2  0  0  0  0  0  0  0  0  0
   35.9650   31.3170   35.7590 C   0  0  0  0  0  0  0  0  0  0  0  0
   34.9060   31.8990   36.7100 C   0  0  0  0  0  0  0  0  0  0  0  0
   33.5670   31.5410   36.1060 C   0  0  0  0  0  0  0  0  0  0  0  0
   33.9290   30.3220   35.2760 C   0  0  1  0  0  0  0  0  0  0  0  0
   34.8680   31.7660   33.9580 H   0  0  0  0  0  0  0  0  0  0  0  0
   36.7110   32.0930   35.5050 H   0  0  0  0  0  0  0  0  0  0  0  0
   36.4380   30.4190   36.2090 H   0  0  0  0  0  0  0  0  0  0  0  0
   34.9960   31.3720   37.6740 H   0  0  0  0  0  0  0  0  0  0  0  0
   35.0320   32.9810   36.8470 H   0  0  0  0  0  0  0  0  0  0  0  0
   32.7930   31.3250   36.8430 H   0  0  0  0  0  0  0  0  0  0  0  0
   33.2980   32.3730   35.4130 H   0  0  0  0  0  0  0  0  0  0  0  0
   34.2700   29.5100   35.9190 H   0  0  0  0  0  0  0  0  0  0  0  0
   32.8470   29.8750   34.3540 C   0  0  0  0  0  0  0  0  0  0  0  0
   33.0490   28.8460   34.0340 H   0  0  0  0  0  0  0  0  0  0  0  0
   32.8060   30.5850   33.5010 H   0  0  0  0  0  0  0  0  0  0  0  0
   31.8720   29.9330   34.8510 H   0  0  0  0  0  0  0  0  0  0  0  0
   37.6380   25.3500   33.8490 C   0  0  0  0  0  0  0  0  0  0  0  0
   37.4280   26.6020   34.4120 C   0  0  0  0  0  0  0  0  0  0  0  0
   37.8120   26.7560   35.7300 C   0  0  0  0  0  0  0  0  0  0  0  0
   38.3620   25.7090   36.3970 N   0  0  0  0  0  0  0  0  0  0  0  0
   38.5430   24.5100   35.8000 C   0  0  0  0  0  0  0  0  0  0  0  0
   38.1790   24.3470   34.5320 N   0  0  0  0  0  0  0  0  0  0  0  0
   37.3420   25.2120   32.8140 H   0  0  0  0  0  0  0  0  0  0  0  0
   37.7120   27.6690   36.3030 H   0  0  0  0  0  0  0  0  0  0  0  0
   39.1500   23.3990   36.5810 C   0  0  0  0  0  0  0  0  0  0  0  0
   38.8140   23.4740   37.9130 F   0  0  0  0  0  0  0  0  0  0  0  0
   38.6740   22.2160   36.0500 F   0  0  0  0  0  0  0  0  0  0  0  0
   40.5310   23.4350   36.5230 F   0  0  0  0  0  0  0  0  0  0  0  0
  1  6  1  0  0  0  0
  1 27  1  0  0  0  0
  2  1  2  0  0  0  0
  3  2  1  0  0  0  0
  3  4  2  0  0  0  0
  4  5  1  0  0  0  0
  5  6  2  0  0  0  0
  5  9  1  0  0  0  0
  7  2  1  0  0  0  0
  8  3  1  0  0  0  0
  9 14  1  6  0  0  0
  9 13  1  0  0  0  0
  9 10  1  0  0  0  0
 10 16  1  0  0  0  0
 10 11  1  0  0  0  0
 11 18  1  0  0  0  0
 11 17  1  0  0  0  0
 12 11  1  0  0  0  0
 12 19  1  0  0  0  0
 13 21  1  1  0  0  0
 13 12  1  0  0  0  0
 15 10  1  0  0  0  0
 20 12  1  0  0  0  0
 22 25  1  0  0  0  0
 22 13  1  0  0  0  0
 23 22  1  0  0  0  0
 24 22  1  0  0  0  0
 26 27  2  0  0  0  0
 26 31  1  0  0  0  0
 27 28  1  0  0  0  0
 28 33  1  0  0  0  0
 28 29  2  0  0  0  0
 30 29  1  0  0  0  0
 30 34  1  0  0  0  0
 31 30  2  0  0  0  0
 32 26  1  0  0  0  0
 34 35  1  0  0  0  0
 36 34  1  0  0  0  0
 37 34  1  0  0  0  0
M  END
>  <minimizedAffinity>
-5.79483461

$$$$

 OpenBabel03272502153D

 37 39  0  0  1  0  0  0  0  0999 V2000
   35.3020   29.3500   32.4570 C   0  0  0  0  0  0  0  0  0  0  0  0
   35.8330   30.1910   31.4850 C   0  0  0  0  0  0  0  0  0  0  0  0
   36.5140   29.7280   30.3450 C   0  0  0  0  0  0  0  0  0  0  0  0
   36.6420   28.3750   30.2140 N   0  0  0  0  0  0  0  0  0  0  0  0
   36.1310   27.5710   31.1490 C   0  0  0  0  0  0  0  0  0  0  0  0
   35.4870   28.0350   32.2260 N   0  0  0  0  0  0  0  0  0  0  0  0
   35.7160   31.2580   31.6170 H   0  0  0  0  0  0  0  0  0  0  0  0
   36.9020   30.4260   29.6320 H   0  0  0  0  0  0  0  0  0  0  0  0
   36.2810   26.1160   30.9860 C   0  0  2  0  0  0  0  0  0  0  0  0
   34.9930   25.3500   30.9390 C   0  0  0  0  0  0  0  0  0  0  0  0
   35.4080   23.9480   31.4150 C   0  0  0  0  0  0  0  0  0  0  0  0
   36.8250   24.0870   31.9250 C   0  0  0  0  0  0  0  0  0  0  0  0
   36.8730   25.5630   32.2760 C   0  0  1  0  0  0  0  0  0  0  0  0
   36.9260   25.8530   30.1280 H   0  0  0  0  0  0  0  0  0  0  0  0
   34.5730   25.2930   29.9180 H   0  0  0  0  0  0  0  0  0  0  0  0
   34.2790   25.8080   31.6550 H   0  0  0  0  0  0  0  0  0  0  0  0
   34.7640   23.6810   32.2690 H   0  0  0  0  0  0  0  0  0  0  0  0
   35.3180   23.2030   30.6140 H   0  0  0  0  0  0  0  0  0  0  0  0
   37.0510   23.4500   32.7800 H   0  0  0  0  0  0  0  0  0  0  0  0
   37.4960   23.9100   31.0510 H   0  0  0  0  0  0  0  0  0  0  0  0
   36.1710   25.7880   33.0800 H   0  0  0  0  0  0  0  0  0  0  0  0
   38.2410   26.0670   32.5860 C   0  0  0  0  0  0  0  0  0  0  0  0
   38.1610   27.0220   33.1190 H   0  0  0  0  0  0  0  0  0  0  0  0
   38.7990   26.1600   31.6300 H   0  0  0  0  0  0  0  0  0  0  0  0
   38.7890   25.3380   33.1930 H   0  0  0  0  0  0  0  0  0  0  0  0
   33.2760   29.6390   33.9040 C   0  0  0  0  0  0  0  0  0  0  0  0
   34.6150   29.8520   33.6060 C   0  0  0  0  0  0  0  0  0  0  0  0
   35.3320   30.6160   34.5070 C   0  0  0  0  0  0  0  0  0  0  0  0
   34.7150   31.1100   35.6110 N   0  0  0  0  0  0  0  0  0  0  0  0
   33.4070   30.8710   35.8530 C   0  0  0  0  0  0  0  0  0  0  0  0
   32.7040   30.1390   34.9960 N   0  0  0  0  0  0  0  0  0  0  0  0
   32.6970   29.0410   33.2080 H   0  0  0  0  0  0  0  0  0  0  0  0
   36.3810   30.8670   34.4100 H   0  0  0  0  0  0  0  0  0  0  0  0
   32.7850   31.4390   37.0790 C   0  0  0  0  0  0  0  0  0  0  0  0
   33.6100   32.3570   37.6880 F   0  0  0  0  0  0  0  0  0  0  0  0
   31.6110   32.0580   36.6950 F   0  0  0  0  0  0  0  0  0  0  0  0
   32.5310   30.4570   38.0180 F   0  0  0  0  0  0  0  0  0  0  0  0
  1 27  1  0  0  0  0
  2  7  1  0  0  0  0
  2  1  2  0  0  0  0
  3  2  1  0  0  0  0
  4  3  2  0  0  0  0
  4  5  1  0  0  0  0
  5  6  2  0  0  0  0
  6  1  1  0  0  0  0
  8  3  1  0  0  0  0
  9 14  1  6  0  0  0
  9  5  1  0  0  0  0
  9 13  1  0  0  0  0
 10  9  1  0  0  0  0
 10 11  1  0  0  0  0
 10 16  1  0  0  0  0
 11 12  1  0  0  0  0
 11 17  1  0  0  0  0
 12 13  1  0  0  0  0
 12 19  1  0  0  0  0
 13 22  1  0  0  0  0
 13 21  1  1  0  0  0
 15 10  1  0  0  0  0
 18 11  1  0  0  0  0
 20 12  1  0  0  0  0
 22 23  1  0  0  0  0
 22 25  1  0  0  0  0
 24 22  1  0  0  0  0
 26 31  1  0  0  0  0
 27 26  2  0  0  0  0
 27 28  1  0  0  0  0
 28 29  2  0  0  0  0
 29 30  1  0  0  0  0
 30 34  1  0  0  0  0
 31 30  2  0  0  0  0
 32 26  1  0  0  0  0
 33 28  1  0  0  0  0
 34 35  1  0  0  0  0
 34 37  1  0  0  0  0
 36 34  1  0  0  0  0
M  END
>  <minimizedAffinity>
-5.59921122

$$$$

 OpenBabel03272502153D

 37 39  0  0  1  0  0  0  0  0999 V2000
   38.4820   24.6640   35.8810 C   0  0  0  0  0  0  0  0  0  0  0  0
   37.9670   24.5010   37.1630 C   0  0  0  0  0  0  0  0  0  0  0  0
   38.5310   23.6420   38.1230 C   0  0  0  0  0  0  0  0  0  0  0  0
   39.6430   22.9450   37.7460 N   0  0  0  0  0  0  0  0  0  0  0  0
   40.1340   23.1040   36.5150 C   0  0  0  0  0  0  0  0  0  0  0  0
   39.5800   23.9280   35.6180 N   0  0  0  0  0  0  0  0  0  0  0  0
   37.0850   25.0660   37.4320 H   0  0  0  0  0  0  0  0  0  0  0  0
   38.0880   23.5590   39.0940 H   0  0  0  0  0  0  0  0  0  0  0  0
   41.3340   22.3430   36.1320 C   0  0  2  0  0  0  0  0  0  0  0  0
   41.6330   21.1570   36.9980 C   0  0  0  0  0  0  0  0  0  0  0  0
   43.1490   20.9770   36.8260 C   0  0  0  0  0  0  0  0  0  0  0  0
   43.6300   22.2030   36.0830 C   0  0  0  0  0  0  0  0  0  0  0  0
   42.5500   23.2100   36.4370 C   0  0  1  0  0  0  0  0  0  0  0  0
   41.3280   22.0580   35.0630 H   0  0  0  0  0  0  0  0  0  0  0  0
   41.1030   20.2460   36.6640 H   0  0  0  0  0  0  0  0  0  0  0  0
   41.3900   21.4140   38.0520 H   0  0  0  0  0  0  0  0  0  0  0  0
   43.6040   20.9870   37.8300 H   0  0  0  0  0  0  0  0  0  0  0  0
   43.3920   20.0430   36.3010 H   0  0  0  0  0  0  0  0  0  0  0  0
   44.6230   22.5400   36.3820 H   0  0  0  0  0  0  0  0  0  0  0  0
   43.5510   21.9670   34.9950 H   0  0  0  0  0  0  0  0  0  0  0  0
   42.5480   23.4070   37.5100 H   0  0  0  0  0  0  0  0  0  0  0  0
   42.6160   24.4710   35.6460 C   0  0  0  0  0  0  0  0  0  0  0  0
   42.0290   25.2460   36.1540 H   0  0  0  0  0  0  0  0  0  0  0  0
   42.2400   24.2560   34.6230 H   0  0  0  0  0  0  0  0  0  0  0  0
   43.6560   24.7970   35.5310 H   0  0  0  0  0  0  0  0  0  0  0  0
   37.4230   26.8280   35.1900 C   0  0  0  0  0  0  0  0  0  0  0  0
   37.8850   25.5450   34.9270 C   0  0  0  0  0  0  0  0  0  0  0  0
   37.7500   25.0970   33.6270 C   0  0  0  0  0  0  0  0  0  0  0  0
   37.1890   25.9060   32.6910 N   0  0  0  0  0  0  0  0  0  0  0  0
   36.7550   27.1470   33.0030 C   0  0  0  0  0  0  0  0  0  0  0  0
   36.8780   27.5920   34.2490 N   0  0  0  0  0  0  0  0  0  0  0  0
   37.5210   27.1960   36.2060 H   0  0  0  0  0  0  0  0  0  0  0  0
   38.0620   24.1240   33.2710 H   0  0  0  0  0  0  0  0  0  0  0  0
   36.1480   27.9880   31.9360 C   0  0  0  0  0  0  0  0  0  0  0  0
   36.2100   27.3710   30.7080 F   0  0  0  0  0  0  0  0  0  0  0  0
   34.8270   28.1980   32.2810 F   0  0  0  0  0  0  0  0  0  0  0  0
   36.8120   29.1930   31.8030 F   0  0  0  0  0  0  0  0  0  0  0  0
  1  2  1  0  0  0  0
  2  7  1  0  0  0  0
  2  3  2  0  0  0  0
  3  8  1  0  0  0  0
  4  3  1  0  0  0  0
  5  4  2  0  0  0  0
  6  1  2  0  0  0  0
  6  5  1  0  0  0  0
  9 14  1  6  0  0  0
  9 13  1  0  0  0  0
  9  5  1  0  0  0  0
  9 10  1  0  0  0  0
 10 16  1  0  0  0  0
 11 10  1  0  0  0  0
 11 17  1  0  0  0  0
 12 19  1  0  0  0  0
 12 13  1  0  0  0  0
 12 11  1  0  0  0  0
 13 21  1  1  0  0  0
 15 10  1  0  0  0  0
 18 11  1  0  0  0  0
 20 12  1  0  0  0  0
 22 23  1  0  0  0  0
 22 13  1  0  0  0  0
 24 22  1  0  0  0  0
 25 22  1  0  0  0  0
 26 32  1  0  0  0  0
 27 26  1  0  0  0  0
 27  1  1  0  0  0  0
 28 27  2  0  0  0  0
 29 30  2  0  0  0  0
 29 28  1  0  0  0  0
 30 31  1  0  0  0  0
 31 26  2  0  0  0  0
 33 28  1  0  0  0  0
 34 36  1  0  0  0  0
 34 30  1  0  0  0  0
 35 34  1  0  0  0  0
 37 34  1  0  0  0  0
M  END
>  <minimizedAffinity>
-5.58766842

$$$$

 OpenBabel03272502153D

 37 39  0  0  1  0  0  0  0  0999 V2000
   37.4370   25.0830   33.0840 C   0  0  0  0  0  0  0  0  0  0  0  0
   36.6860   24.3590   32.1640 C   0  0  0  0  0  0  0  0  0  0  0  0
   35.8760   24.9560   31.1810 C   0  0  0  0  0  0  0  0  0  0  0  0
   35.8480   26.3210   31.1540 N   0  0  0  0  0  0  0  0  0  0  0  0
   36.5700   27.0120   32.0400 C   0  0  0  0  0  0  0  0  0  0  0  0
   37.3330   26.4210   32.9660 N   0  0  0  0  0  0  0  0  0  0  0  0
   36.7280   23.2790   32.2100 H   0  0  0  0  0  0  0  0  0  0  0  0
   35.3210   24.3440   30.5000 H   0  0  0  0  0  0  0  0  0  0  0  0
   36.5240   28.4820   31.9920 C   0  0  2  0  0  0  0  0  0  0  0  0
   35.1520   29.0750   32.1140 C   0  0  0  0  0  0  0  0  0  0  0  0
   35.2990   30.4330   31.4090 C   0  0  0  0  0  0  0  0  0  0  0  0
   36.6520   30.4040   30.7330 C   0  0  0  0  0  0  0  0  0  0  0  0
   36.8740   28.9110   30.5720 C   0  0  1  0  0  0  0  0  0  0  0  0
   37.2200   28.9490   32.7130 H   0  0  0  0  0  0  0  0  0  0  0  0
   34.8500   29.2270   33.1670 H   0  0  0  0  0  0  0  0  0  0  0  0
   34.4330   28.4290   31.5660 H   0  0  0  0  0  0  0  0  0  0  0  0
   34.5280   30.4860   30.6230 H   0  0  0  0  0  0  0  0  0  0  0  0
   35.1950   31.2700   32.1110 H   0  0  0  0  0  0  0  0  0  0  0  0
   36.6810   30.9320   29.7800 H   0  0  0  0  0  0  0  0  0  0  0  0
   37.3870   30.7920   31.4770 H   0  0  0  0  0  0  0  0  0  0  0  0
   36.1230   28.4820   29.9070 H   0  0  0  0  0  0  0  0  0  0  0  0
   38.2550   28.5470   30.1470 C   0  0  0  0  0  0  0  0  0  0  0  0
   38.2540   27.5220   29.7570 H   0  0  0  0  0  0  0  0  0  0  0  0
   38.9280   28.6680   31.0220 H   0  0  0  0  0  0  0  0  0  0  0  0
   38.6160   29.2430   29.3820 H   0  0  0  0  0  0  0  0  0  0  0  0
   39.1950   23.4580   33.8270 C   0  0  0  0  0  0  0  0  0  0  0  0
   38.2500   24.4450   34.0720 C   0  0  0  0  0  0  0  0  0  0  0  0
   38.0950   24.8350   35.3880 C   0  0  0  0  0  0  0  0  0  0  0  0
   38.8500   24.2540   36.3560 N   0  0  0  0  0  0  0  0  0  0  0  0
   39.7570   23.2960   36.0600 C   0  0  0  0  0  0  0  0  0  0  0  0
   39.9180   22.9110   34.7990 N   0  0  0  0  0  0  0  0  0  0  0  0
   39.3300   23.1400   32.7980 H   0  0  0  0  0  0  0  0  0  0  0  0
   37.4010   25.5910   35.7340 H   0  0  0  0  0  0  0  0  0  0  0  0
   40.5560   22.6950   37.1620 C   0  0  0  0  0  0  0  0  0  0  0  0
   41.8600   23.1340   37.1400 F   0  0  0  0  0  0  0  0  0  0  0  0
   39.9630   23.0710   38.3520 F   0  0  0  0  0  0  0  0  0  0  0  0
   40.6050   21.3180   37.0580 F   0  0  0  0  0  0  0  0  0  0  0  0
  1 27  1  0  0  0  0
  2  7  1  0  0  0  0
  2  1  2  0  0  0  0
  3  2  1  0  0  0  0
  4  3  2  0  0  0  0
  4  5  1  0  0  0  0
  5  6  2  0  0  0  0
  6  1  1  0  0  0  0
  8  3  1  0  0  0  0
  9  5  1  0  0  0  0
  9 10  1  0  0  0  0
  9 14  1  1  0  0  0
 10 15  1  0  0  0  0
 11 18  1  0  0  0  0
 11 10  1  0  0  0  0
 12 11  1  0  0  0  0
 12 20  1  0  0  0  0
 13 21  1  6  0  0  0
 13 12  1  0  0  0  0
 13  9  1  0  0  0  0
 16 10  1  0  0  0  0
 17 11  1  0  0  0  0
 19 12  1  0  0  0  0
 22 13  1  0  0  0  0
 22 24  1  0  0  0  0
 23 22  1  0  0  0  0
 25 22  1  0  0  0  0
 26 27  2  0  0  0  0
 26 31  1  0  0  0  0
 27 28  1  0  0  0  0
 28 33  1  0  0  0  0
 28 29  2  0  0  0  0
 30 29  1  0  0  0  0
 30 34  1  0  0  0  0
 31 30  2  0  0  0  0
 32 26  1  0  0  0  0
 34 36  1  0  0  0  0
 35 34  1  0  0  0  0
 37 34  1  0  0  0  0
M  END
>  <minimizedAffinity>
-5.45776081

$$$$

 OpenBabel03272502153D

 37 39  0  0  1  0  0  0  0  0999 V2000
   38.2220   25.1770   32.9410 C   0  0  0  0  0  0  0  0  0  0  0  0
   38.2380   24.1590   31.9930 C   0  0  0  0  0  0  0  0  0  0  0  0
   38.2430   24.3900   30.6060 C   0  0  0  0  0  0  0  0  0  0  0  0
   38.2330   25.6930   30.2000 N   0  0  0  0  0  0  0  0  0  0  0  0
   38.2170   26.6670   31.1130 C   0  0  0  0  0  0  0  0  0  0  0  0
   38.2130   26.4230   32.4290 N   0  0  0  0  0  0  0  0  0  0  0  0
   38.2460   23.1360   32.3450 H   0  0  0  0  0  0  0  0  0  0  0  0
   38.2550   23.5640   29.9250 H   0  0  0  0  0  0  0  0  0  0  0  0
   38.2070   28.0650   30.6520 C   0  0  2  0  0  0  0  0  0  0  0  0
   37.0520   28.4290   29.7680 C   0  0  0  0  0  0  0  0  0  0  0  0
   37.5990   29.6130   28.9550 C   0  0  0  0  0  0  0  0  0  0  0  0
   39.0800   29.6720   29.2560 C   0  0  0  0  0  0  0  0  0  0  0  0
   39.3590   28.2380   29.6700 C   0  0  1  0  0  0  0  0  0  0  0  0
   38.3060   28.7840   31.4860 H   0  0  0  0  0  0  0  0  0  0  0  0
   36.1630   28.7460   30.3450 H   0  0  0  0  0  0  0  0  0  0  0  0
   36.8270   27.5700   29.1010 H   0  0  0  0  0  0  0  0  0  0  0  0
   37.4790   29.3680   27.8860 H   0  0  0  0  0  0  0  0  0  0  0  0
   37.0810   30.5490   29.1980 H   0  0  0  0  0  0  0  0  0  0  0  0
   39.6910   29.9840   28.4090 H   0  0  0  0  0  0  0  0  0  0  0  0
   39.1960   30.3270   30.1520 H   0  0  0  0  0  0  0  0  0  0  0  0
   39.1810   27.5580   28.8360 H   0  0  0  0  0  0  0  0  0  0  0  0
   40.7080   28.0320   30.2680 C   0  0  0  0  0  0  0  0  0  0  0  0
   40.9510   26.9630   30.2500 H   0  0  0  0  0  0  0  0  0  0  0  0
   40.6950   28.4470   31.2980 H   0  0  0  0  0  0  0  0  0  0  0  0
   41.4630   28.6020   29.7150 H   0  0  0  0  0  0  0  0  0  0  0  0
   38.1730   25.8660   35.3500 C   0  0  0  0  0  0  0  0  0  0  0  0
   38.2160   24.9090   34.3450 C   0  0  0  0  0  0  0  0  0  0  0  0
   38.2560   23.5900   34.7530 C   0  0  0  0  0  0  0  0  0  0  0  0
   38.2500   23.2950   36.0790 N   0  0  0  0  0  0  0  0  0  0  0  0
   38.2070   24.2670   37.0160 C   0  0  0  0  0  0  0  0  0  0  0  0
   38.1680   25.5410   36.6390 N   0  0  0  0  0  0  0  0  0  0  0  0
   38.1410   26.9070   35.0480 H   0  0  0  0  0  0  0  0  0  0  0  0
   38.2920   22.7360   34.0890 H   0  0  0  0  0  0  0  0  0  0  0  0
   38.2040   23.8840   38.4540 C   0  0  0  0  0  0  0  0  0  0  0  0
   39.4300   23.4050   38.8530 F   0  0  0  0  0  0  0  0  0  0  0  0
   37.8920   25.0180   39.1800 F   0  0  0  0  0  0  0  0  0  0  0  0
   37.2890   22.8790   38.7070 F   0  0  0  0  0  0  0  0  0  0  0  0
  1 27  1  0  0  0  0
  2  7  1  0  0  0  0
  2  1  2  0  0  0  0
  3  2  1  0  0  0  0
  4  3  2  0  0  0  0
  4  5  1  0  0  0  0
  5  6  2  0  0  0  0
  6  1  1  0  0  0  0
  8  3  1  0  0  0  0
  9  5  1  0  0  0  0
  9 14  1  1  0  0  0
 10 15  1  0  0  0  0
 10  9  1  0  0  0  0
 11 18  1  0  0  0  0
 11 12  1  0  0  0  0
 11 10  1  0  0  0  0
 12 13  1  0  0  0  0
 12 20  1  0  0  0  0
 13 21  1  6  0  0  0
 13 22  1  0  0  0  0
 13  9  1  0  0  0  0
 16 10  1  0  0  0  0
 17 11  1  0  0  0  0
 19 12  1  0  0  0  0
 22 24  1  0  0  0  0
 23 22  1  0  0  0  0
 25 22  1  0  0  0  0
 26 31  1  0  0  0  0
 27 28  1  0  0  0  0
 27 26  2  0  0  0  0
 28 29  2  0  0  0  0
 29 30  1  0  0  0  0
 30 34  1  0  0  0  0
 31 30  2  0  0  0  0
 32 26  1  0  0  0  0
 33 28  1  0  0  0  0
 34 37  1  0  0  0  0
 34 35  1  0  0  0  0
 34 36  1  0  0  0  0
M  END
>  <minimizedAffinity>
-5.4421525

$$$$

 OpenBabel03272502153D

 37 39  0  0  1  0  0  0  0  0999 V2000
   38.1460   23.2240   32.9750 C   0  0  0  0  0  0  0  0  0  0  0  0
   38.1720   24.2790   32.0700 C   0  0  0  0  0  0  0  0  0  0  0  0
   38.1490   24.1050   30.6740 C   0  0  0  0  0  0  0  0  0  0  0  0
   38.0960   22.8200   30.2160 N   0  0  0  0  0  0  0  0  0  0  0  0
   38.0710   21.8100   31.0890 C   0  0  0  0  0  0  0  0  0  0  0  0
   38.0940   22.0010   32.4130 N   0  0  0  0  0  0  0  0  0  0  0  0
   38.2140   25.2860   32.4630 H   0  0  0  0  0  0  0  0  0  0  0  0
   38.1720   24.9580   30.0280 H   0  0  0  0  0  0  0  0  0  0  0  0
   38.0150   20.4340   30.5720 C   0  0  2  0  0  0  0  0  0  0  0  0
   38.6570   20.2360   29.2320 C   0  0  0  0  0  0  0  0  0  0  0  0
   37.9230   19.0060   28.6750 C   0  0  0  0  0  0  0  0  0  0  0  0
   36.7680   18.7510   29.6180 C   0  0  0  0  0  0  0  0  0  0  0  0
   36.5630   20.1300   30.2200 C   0  0  1  0  0  0  0  0  0  0  0  0
   38.3920   19.6940   31.3020 H   0  0  0  0  0  0  0  0  0  0  0  0
   39.7400   20.0270   29.3100 H   0  0  0  0  0  0  0  0  0  0  0  0
   38.4520   21.1280   28.6020 H   0  0  0  0  0  0  0  0  0  0  0  0
   37.5050   19.2810   27.6930 H   0  0  0  0  0  0  0  0  0  0  0  0
   38.5910   18.1390   28.5830 H   0  0  0  0  0  0  0  0  0  0  0  0
   35.8700   18.3770   29.1260 H   0  0  0  0  0  0  0  0  0  0  0  0
   37.1520   18.0720   30.4150 H   0  0  0  0  0  0  0  0  0  0  0  0
   36.2590   20.8410   29.4500 H   0  0  0  0  0  0  0  0  0  0  0  0
   35.6340   20.1510   31.3840 C   0  0  0  0  0  0  0  0  0  0  0  0
   35.2990   21.1800   31.5590 H   0  0  0  0  0  0  0  0  0  0  0  0
   36.1690   19.7240   32.2590 H   0  0  0  0  0  0  0  0  0  0  0  0
   34.7740   19.4980   31.1990 H   0  0  0  0  0  0  0  0  0  0  0  0
   38.1890   24.6700   35.0230 C   0  0  0  0  0  0  0  0  0  0  0  0
   38.1710   23.4340   34.3890 C   0  0  0  0  0  0  0  0  0  0  0  0
   38.1770   22.3230   35.2100 C   0  0  0  0  0  0  0  0  0  0  0  0
   38.2000   22.4810   36.5580 N   0  0  0  0  0  0  0  0  0  0  0  0
   38.2170   23.7090   37.1220 C   0  0  0  0  0  0  0  0  0  0  0  0
   38.2110   24.7880   36.3470 N   0  0  0  0  0  0  0  0  0  0  0  0
   38.1840   25.5540   34.3940 H   0  0  0  0  0  0  0  0  0  0  0  0
   38.1650   21.2970   34.8640 H   0  0  0  0  0  0  0  0  0  0  0  0
   38.2420   23.8210   38.6060 C   0  0  0  0  0  0  0  0  0  0  0  0
   37.8640   25.0760   39.0250 F   0  0  0  0  0  0  0  0  0  0  0  0
   37.3590   22.8830   39.1030 F   0  0  0  0  0  0  0  0  0  0  0  0
   39.5120   23.6070   39.1080 F   0  0  0  0  0  0  0  0  0  0  0  0
  1 27  1  0  0  0  0
  2  7  1  0  0  0  0
  2  1  2  0  0  0  0
  3  2  1  0  0  0  0
  4  3  2  0  0  0  0
  4  5  1  0  0  0  0
  5  6  2  0  0  0  0
  6  1  1  0  0  0  0
  8  3  1  0  0  0  0
  9  5  1  0  0  0  0
  9 14  1  1  0  0  0
 10 15  1  0  0  0  0
 10  9  1  0  0  0  0
 11 10  1  0  0  0  0
 11 12  1  0  0  0  0
 12 13  1  0  0  0  0
 12 20  1  0  0  0  0
 13 21  1  6  0  0  0
 13  9  1  0  0  0  0
 13 22  1  0  0  0  0
 16 10  1  0  0  0  0
 17 11  1  0  0  0  0
 18 11  1  0  0  0  0
 19 12  1  0  0  0  0
 22 23  1  0  0  0  0
 22 24  1  0  0  0  0
 25 22  1  0  0  0  0
 26 31  1  0  0  0  0
 27 26  2  0  0  0  0
 27 28  1  0  0  0  0
 28 29  2  0  0  0  0
 29 30  1  0  0  0  0
 30 34  1  0  0  0  0
 31 30  2  0  0  0  0
 32 26  1  0  0  0  0
 33 28  1  0  0  0  0
 34 35  1  0  0  0  0
 34 36  1  0  0  0  0
 34 37  1  0  0  0  0
M  END
>  <minimizedAffinity>
-5.38050413

$$$$

 OpenBabel03272502153D

 37 39  0  0  1  0  0  0  0  0999 V2000
   37.9680   24.2810   30.6410 C   0  0  0  0  0  0  0  0  0  0  0  0
   39.0400   24.2870   29.7560 C   0  0  0  0  0  0  0  0  0  0  0  0
   39.7320   25.4530   29.3830 C   0  0  0  0  0  0  0  0  0  0  0  0
   39.3050   26.6250   29.9370 N   0  0  0  0  0  0  0  0  0  0  0  0
   38.2740   26.6150   30.7870 C   0  0  0  0  0  0  0  0  0  0  0  0
   37.6310   25.4920   31.1270 N   0  0  0  0  0  0  0  0  0  0  0  0
   39.3560   23.3430   29.3330 H   0  0  0  0  0  0  0  0  0  0  0  0
   40.5510   25.3940   28.6960 H   0  0  0  0  0  0  0  0  0  0  0  0
   37.8310   27.8900   31.3720 C   0  0  2  0  0  0  0  0  0  0  0  0
   37.0240   27.7610   32.6290 C   0  0  0  0  0  0  0  0  0  0  0  0
   36.1920   29.0540   32.6390 C   0  0  0  0  0  0  0  0  0  0  0  0
   36.4030   29.6920   31.2840 C   0  0  0  0  0  0  0  0  0  0  0  0
   36.7820   28.4870   30.4410 C   0  0  1  0  0  0  0  0  0  0  0  0
   38.6650   28.6020   31.5110 H   0  0  0  0  0  0  0  0  0  0  0  0
   37.6570   27.7120   33.5340 H   0  0  0  0  0  0  0  0  0  0  0  0
   36.3610   26.8740   32.5390 H   0  0  0  0  0  0  0  0  0  0  0  0
   35.1300   28.7680   32.7180 H   0  0  0  0  0  0  0  0  0  0  0  0
   36.4780   29.7160   33.4670 H   0  0  0  0  0  0  0  0  0  0  0  0
   35.5240   30.2080   30.8970 H   0  0  0  0  0  0  0  0  0  0  0  0
   37.2970   30.3520   31.3800 H   0  0  0  0  0  0  0  0  0  0  0  0
   35.9520   27.7810   30.3890 H   0  0  0  0  0  0  0  0  0  0  0  0
   37.2940   28.8340   29.0850 C   0  0  0  0  0  0  0  0  0  0  0  0
   37.2480   27.9450   28.4450 H   0  0  0  0  0  0  0  0  0  0  0  0
   38.3280   29.2250   29.1970 H   0  0  0  0  0  0  0  0  0  0  0  0
   36.7030   29.6470   28.6500 H   0  0  0  0  0  0  0  0  0  0  0  0
   37.7490   21.7870   30.7800 C   0  0  0  0  0  0  0  0  0  0  0  0
   37.2840   23.0770   31.0000 C   0  0  0  0  0  0  0  0  0  0  0  0
   36.0550   23.1910   31.6220 C   0  0  0  0  0  0  0  0  0  0  0  0
   35.3760   22.0710   31.9790 N   0  0  0  0  0  0  0  0  0  0  0  0
   35.8760   20.8380   31.7400 C   0  0  0  0  0  0  0  0  0  0  0  0
   37.0560   20.7120   31.1440 N   0  0  0  0  0  0  0  0  0  0  0  0
   38.7130   21.6800   30.2930 H   0  0  0  0  0  0  0  0  0  0  0  0
   35.5650   24.1260   31.8590 H   0  0  0  0  0  0  0  0  0  0  0  0
   35.0860   19.6460   32.1540 C   0  0  0  0  0  0  0  0  0  0  0  0
   33.7430   19.8200   31.9100 F   0  0  0  0  0  0  0  0  0  0  0  0
   35.5530   18.5710   31.4240 F   0  0  0  0  0  0  0  0  0  0  0  0
   35.2100   19.4040   33.5090 F   0  0  0  0  0  0  0  0  0  0  0  0
  1 27  1  0  0  0  0
  1  6  1  0  0  0  0
  2  1  2  0  0  0  0
  3  2  1  0  0  0  0
  3  4  2  0  0  0  0
  4  5  1  0  0  0  0
  5  6  2  0  0  0  0
  5  9  1  0  0  0  0
  7  2  1  0  0  0  0
  8  3  1  0  0  0  0
  9 14  1  1  0  0  0
  9 10  1  0  0  0  0
 10 11  1  0  0  0  0
 10 15  1  0  0  0  0
 11 17  1  0  0  0  0
 11 18  1  0  0  0  0
 12 20  1  0  0  0  0
 12 11  1  0  0  0  0
 13 21  1  6  0  0  0
 13 12  1  0  0  0  0
 13  9  1  0  0  0  0
 16 10  1  0  0  0  0
 19 12  1  0  0  0  0
 22 24  1  0  0  0  0
 22 13  1  0  0  0  0
 23 22  1  0  0  0  0
 25 22  1  0  0  0  0
 26 27  2  0  0  0  0
 26 31  1  0  0  0  0
 27 28  1  0  0  0  0
 28 33  1  0  0  0  0
 28 29  2  0  0  0  0
 30 29  1  0  0  0  0
 30 34  1  0  0  0  0
 31 30  2  0  0  0  0
 32 26  1  0  0  0  0
 34 37  1  0  0  0  0
 35 34  1  0  0  0  0
 36 34  1  0  0  0  0
M  END
>  <minimizedAffinity>
-5.34271765

$$$$

 OpenBabel03272502153D

 37 39  0  0  1  0  0  0  0  0999 V2000
   37.3630   24.7970   32.1530 C   0  0  0  0  0  0  0  0  0  0  0  0
   38.7110   25.0850   32.3430 C   0  0  0  0  0  0  0  0  0  0  0  0
   39.2410   26.3870   32.2980 C   0  0  0  0  0  0  0  0  0  0  0  0
   38.3590   27.4010   32.0540 N   0  0  0  0  0  0  0  0  0  0  0  0
   37.0660   27.1200   31.8720 C   0  0  0  0  0  0  0  0  0  0  0  0
   36.5850   25.8720   31.9200 N   0  0  0  0  0  0  0  0  0  0  0  0
   39.3850   24.2610   32.5340 H   0  0  0  0  0  0  0  0  0  0  0  0
   40.2880   26.5450   32.4510 H   0  0  0  0  0  0  0  0  0  0  0  0
   36.1350   28.2290   31.6110 C   0  0  2  0  0  0  0  0  0  0  0  0
   36.5100   29.1110   30.4590 C   0  0  0  0  0  0  0  0  0  0  0  0
   35.8270   30.4430   30.8060 C   0  0  0  0  0  0  0  0  0  0  0  0
   35.3300   30.2950   32.2270 C   0  0  0  0  0  0  0  0  0  0  0  0
   36.2630   29.2220   32.7600 C   0  0  1  0  0  0  0  0  0  0  0  0
   35.0880   27.8870   31.5190 H   0  0  0  0  0  0  0  0  0  0  0  0
   36.1280   28.7300   29.4940 H   0  0  0  0  0  0  0  0  0  0  0  0
   37.6140   29.2330   30.4470 H   0  0  0  0  0  0  0  0  0  0  0  0
   36.6010   31.2290   30.7970 H   0  0  0  0  0  0  0  0  0  0  0  0
   35.0220   30.6850   30.1000 H   0  0  0  0  0  0  0  0  0  0  0  0
   35.3790   31.2140   32.8110 H   0  0  0  0  0  0  0  0  0  0  0  0
   34.3010   29.8670   32.1600 H   0  0  0  0  0  0  0  0  0  0  0  0
   37.2930   29.5810   32.7670 H   0  0  0  0  0  0  0  0  0  0  0  0
   35.8620   28.6770   34.0880 C   0  0  0  0  0  0  0  0  0  0  0  0
   36.7180   28.1600   34.5380 H   0  0  0  0  0  0  0  0  0  0  0  0
   34.9910   28.0040   33.9350 H   0  0  0  0  0  0  0  0  0  0  0  0
   35.5170   29.4830   34.7440 H   0  0  0  0  0  0  0  0  0  0  0  0
   37.2810   22.4690   33.0770 C   0  0  0  0  0  0  0  0  0  0  0  0
   36.8560   23.4620   32.2040 C   0  0  0  0  0  0  0  0  0  0  0  0
   35.8560   23.1140   31.3170 C   0  0  0  0  0  0  0  0  0  0  0  0
   35.3470   21.8550   31.3360 N   0  0  0  0  0  0  0  0  0  0  0  0
   35.7990   20.9270   32.2080 C   0  0  0  0  0  0  0  0  0  0  0  0
   36.7600   21.2460   33.0670 N   0  0  0  0  0  0  0  0  0  0  0  0
   38.0660   22.7240   33.7810 H   0  0  0  0  0  0  0  0  0  0  0  0
   35.4220   23.7780   30.5800 H   0  0  0  0  0  0  0  0  0  0  0  0
   35.2030   19.5630   32.1820 C   0  0  0  0  0  0  0  0  0  0  0  0
   35.7920   18.7720   31.2220 F   0  0  0  0  0  0  0  0  0  0  0  0
   35.4050   19.0030   33.4290 F   0  0  0  0  0  0  0  0  0  0  0  0
   33.8550   19.6060   31.8810 F   0  0  0  0  0  0  0  0  0  0  0  0
  1 27  1  0  0  0  0
  1  2  1  0  0  0  0
  2  7  1  0  0  0  0
  3  2  2  0  0  0  0
  3  8  1  0  0  0  0
  4  3  1  0  0  0  0
  5  6  1  0  0  0  0
  5  4  2  0  0  0  0
  6  1  2  0  0  0  0
  9 14  1  6  0  0  0
  9  5  1  0  0  0  0
  9 13  1  0  0  0  0
 10 11  1  0  0  0  0
 10  9  1  0  0  0  0
 11 12  1  0  0  0  0
 12 13  1  0  0  0  0
 12 19  1  0  0  0  0
 13 21  1  1  0  0  0
 13 22  1  0  0  0  0
 15 10  1  0  0  0  0
 16 10  1  0  0  0  0
 17 11  1  0  0  0  0
 18 11  1  0  0  0  0
 20 12  1  0  0  0  0
 22 23  1  0  0  0  0
 22 25  1  0  0  0  0
 24 22  1  0  0  0  0
 26 32  1  0  0  0  0
 27 26  2  0  0  0  0
 28 29  2  0  0  0  0
 28 27  1  0  0  0  0
 29 30  1  0  0  0  0
 30 31  2  0  0  0  0
 31 26  1  0  0  0  0
 33 28  1  0  0  0  0
 34 30  1  0  0  0  0
 34 36  1  0  0  0  0
 35 34  1  0  0  0  0
 37 34  1  0  0  0  0
M  END
>  <minimizedAffinity>
-5.32698441

$$$$

 OpenBabel03272502153D

 37 39  0  0  1  0  0  0  0  0999 V2000
   37.0670   27.3180   34.0000 C   0  0  0  0  0  0  0  0  0  0  0  0
   37.4540   27.6460   32.7050 C   0  0  0  0  0  0  0  0  0  0  0  0
   36.8780   28.6940   31.9650 C   0  0  0  0  0  0  0  0  0  0  0  0
   35.8910   29.4090   32.5790 N   0  0  0  0  0  0  0  0  0  0  0  0
   35.5220   29.0910   33.8220 C   0  0  0  0  0  0  0  0  0  0  0  0
   36.0850   28.0880   34.5070 N   0  0  0  0  0  0  0  0  0  0  0  0
   38.2380   27.0600   32.2450 H   0  0  0  0  0  0  0  0  0  0  0  0
   37.2190   28.8970   30.9710 H   0  0  0  0  0  0  0  0  0  0  0  0
   34.4550   29.8760   34.4630 C   0  0  2  0  0  0  0  0  0  0  0  0
   33.3120   30.2400   33.5650 C   0  0  0  0  0  0  0  0  0  0  0  0
   32.7450   31.5080   34.2240 C   0  0  0  0  0  0  0  0  0  0  0  0
   33.7440   31.9030   35.2880 C   0  0  0  0  0  0  0  0  0  0  0  0
   35.0150   31.2630   34.7580 C   0  0  1  0  0  0  0  0  0  0  0  0
   34.0890   29.4070   35.3950 H   0  0  0  0  0  0  0  0  0  0  0  0
   32.5360   29.4530   33.5290 H   0  0  0  0  0  0  0  0  0  0  0  0
   33.7110   30.4730   32.5550 H   0  0  0  0  0  0  0  0  0  0  0  0
   32.7290   32.3030   33.4600 H   0  0  0  0  0  0  0  0  0  0  0  0
   31.7390   31.3410   34.6300 H   0  0  0  0  0  0  0  0  0  0  0  0
   33.8470   32.9800   35.4190 H   0  0  0  0  0  0  0  0  0  0  0  0
   33.4420   31.3700   36.2210 H   0  0  0  0  0  0  0  0  0  0  0  0
   35.2990   31.7100   33.8050 H   0  0  0  0  0  0  0  0  0  0  0  0
   36.1460   31.2720   35.7280 C   0  0  0  0  0  0  0  0  0  0  0  0
   37.0840   31.0900   35.1890 H   0  0  0  0  0  0  0  0  0  0  0  0
   35.9440   30.5000   36.5010 H   0  0  0  0  0  0  0  0  0  0  0  0
   36.1910   32.2320   36.2550 H   0  0  0  0  0  0  0  0  0  0  0  0
   37.9080   26.2270   36.0950 C   0  0  0  0  0  0  0  0  0  0  0  0
   37.6710   26.2450   34.7270 C   0  0  0  0  0  0  0  0  0  0  0  0
   38.0570   25.1210   34.0220 C   0  0  0  0  0  0  0  0  0  0  0  0
   38.6330   24.0800   34.6760 N   0  0  0  0  0  0  0  0  0  0  0  0
   38.8410   24.1170   36.0110 C   0  0  0  0  0  0  0  0  0  0  0  0
   38.4750   25.1900   36.7030 N   0  0  0  0  0  0  0  0  0  0  0  0
   37.6110   27.1020   36.6650 H   0  0  0  0  0  0  0  0  0  0  0  0
   37.9370   24.9880   32.9540 H   0  0  0  0  0  0  0  0  0  0  0  0
   39.4770   22.9470   36.6740 C   0  0  0  0  0  0  0  0  0  0  0  0
   39.1110   21.7640   36.0750 F   0  0  0  0  0  0  0  0  0  0  0  0
   40.8450   23.1110   36.5730 F   0  0  0  0  0  0  0  0  0  0  0  0
   39.0970   22.8490   38.0000 F   0  0  0  0  0  0  0  0  0  0  0  0
  1  6  1  0  0  0  0
  1 27  1  0  0  0  0
  2  1  2  0  0  0  0
  3  4  2  0  0  0  0
  3  2  1  0  0  0  0
  4  5  1  0  0  0  0
  5  9  1  0  0  0  0
  5  6  2  0  0  0  0
  7  2  1  0  0  0  0
  8  3  1  0  0  0  0
  9 13  1  0  0  0  0
  9 14  1  1  0  0  0
 10 11  1  0  0  0  0
 10  9  1  0  0  0  0
 11 18  1  0  0  0  0
 11 12  1  0  0  0  0
 12 19  1  0  0  0  0
 12 20  1  0  0  0  0
 13 21  1  6  0  0  0
 13 12  1  0  0  0  0
 13 22  1  0  0  0  0
 15 10  1  0  0  0  0
 16 10  1  0  0  0  0
 17 11  1  0  0  0  0
 22 25  1  0  0  0  0
 22 24  1  0  0  0  0
 23 22  1  0  0  0  0
 26 32  1  0  0  0  0
 26 31  1  0  0  0  0
 27 26  2  0  0  0  0
 28 29  2  0  0  0  0
 28 27  1  0  0  0  0
 29 30  1  0  0  0  0
 30 34  1  0  0  0  0
 30 31  2  0  0  0  0
 33 28  1  0  0  0  0
 34 37  1  0  0  0  0
 35 34  1  0  0  0  0
 36 34  1  0  0  0  0
M  END
>  <minimizedAffinity>
-5.31976461

$$$$
