
 OpenBabel03262522593D

 33 36  0  0  0  0  0  0  0  0999 V2000
   34.7940   29.0780   48.6820 C   0  0  0  0  0  0  0  0  0  0  0  0
   34.6920   28.4970   47.4210 C   0  0  0  0  0  0  0  0  0  0  0  0
   33.4320   27.9770   47.2900 C   0  0  0  0  0  0  0  0  0  0  0  0
   32.7780   28.2400   48.4630 N   0  0  0  0  0  0  0  0  0  0  0  0
   33.6240   28.8920   49.2540 N   0  0  0  0  0  0  0  0  0  0  0  0
   30.5630   27.4910   47.7180 N   0  0  0  0  0  0  0  0  0  0  0  0
   31.4340   27.8460   48.7000 C   0  0  0  0  0  0  0  0  0  0  0  0
   30.7550   27.7370   49.8640 N   0  0  0  0  0  0  0  0  0  0  0  0
   29.4920   27.3280   49.6260 C   0  0  0  0  0  0  0  0  0  0  0  0
   28.3810   27.0510   50.3810 C   0  0  0  0  0  0  0  0  0  0  0  0
   27.2480   26.6470   49.7620 N   0  0  0  0  0  0  0  0  0  0  0  0
   27.1750   26.5090   48.4340 C   0  0  0  0  0  0  0  0  0  0  0  0
   28.2470   26.7730   47.6750 N   0  0  0  0  0  0  0  0  0  0  0  0
   29.3770   27.1740   48.2650 C   0  0  0  0  0  0  0  0  0  0  0  0
   35.4670   28.4640   46.6760 H   0  0  0  0  0  0  0  0  0  0  0  0
   33.0880   27.4680   46.4000 H   0  0  0  0  0  0  0  0  0  0  0  0
   30.7720   27.4650   46.6750 H   0  0  0  0  0  0  0  0  0  0  0  0
   26.2670   26.1840   47.9250 H   0  0  0  0  0  0  0  0  0  0  0  0
   37.3980   30.1980   51.0050 C   0  0  0  0  0  0  0  0  0  0  0  0
   38.2210   31.0160   50.1490 C   0  0  0  0  0  0  0  0  0  0  0  0
   37.8530   31.1540   48.8030 C   0  0  0  0  0  0  0  0  0  0  0  0
   36.7370   30.5100   48.3700 N   0  0  0  0  0  0  0  0  0  0  0  0
   35.9820   29.7430   49.2110 C   0  0  0  0  0  0  0  0  0  0  0  0
   36.3210   29.6060   50.4830 N   0  0  0  0  0  0  0  0  0  0  0  0
   37.6480   30.0690   52.0360 H   0  0  0  0  0  0  0  0  0  0  0  0
   39.0790   31.4870   50.5640 H   0  0  0  0  0  0  0  0  0  0  0  0
   38.6870   31.9920   47.9070 C   0  0  0  0  0  0  0  0  0  0  0  0
   37.8070   32.5740   47.0080 F   0  0  0  0  0  0  0  0  0  0  0  0
   39.6160   31.2410   47.2410 F   0  0  0  0  0  0  0  0  0  0  0  0
   39.2610   33.0290   48.6260 F   0  0  0  0  0  0  0  0  0  0  0  0
   28.4870   27.2060   51.7950 N   0  0  0  0  0  0  0  0  0  0  0  0
   28.5370   28.2270   51.9960 H   0  0  0  0  0  0  0  0  0  0  0  0
   28.5190   26.5190   52.5800 H   0  0  0  0  0  0  0  0  0  0  0  0
  1 23  1  0  0  0  0
  1  5  2  0  0  0  0
  2  1  1  0  0  0  0
  3  2  2  0  0  0  0
  3  4  1  0  0  0  0
  4  7  1  0  0  0  0
  4  5  1  0  0  0  0
  6 14  1  0  0  0  0
  6  7  1  0  0  0  0
  7  8  2  0  0  0  0
  9  8  1  0  0  0  0
  9 10  1  0  0  0  0
 10 31  1  0  0  0  0
 11 10  2  0  0  0  0
 12 11  1  0  0  0  0
 13 14  1  0  0  0  0
 13 12  2  0  0  0  0
 14  9  2  0  0  0  0
 15  2  1  0  0  0  0
 16  3  1  0  0  0  0
 17  6  1  0  0  0  0
 18 12  1  0  0  0  0
 19 25  1  0  0  0  0
 20 26  1  0  0  0  0
 20 19  2  0  0  0  0
 21 20  1  0  0  0  0
 22 21  2  0  0  0  0
 22 23  1  0  0  0  0
 23 24  2  0  0  0  0
 24 19  1  0  0  0  0
 27 30  1  0  0  0  0
 27 21  1  0  0  0  0
 28 27  1  0  0  0  0
 29 27  1  0  0  0  0
 31 32  1  0  0  0  0
 31 33  1  0  0  0  0
M  END
>  <minimizedAffinity>
-7.35873652

>  <minimizedRMSD>
0.662048519

$$$$
