
 OpenBabel03262522353D

 22 23  0  0  0  0  0  0  0  0999 V2000
   38.5140   31.4180   47.9570 C   0  0  0  0  0  0  0  0  0  0  0  0
   38.9840   32.7040   48.0710 C   0  0  0  0  0  0  0  0  0  0  0  0
   39.6580   33.3680   47.0720 C   0  0  0  0  0  0  0  0  0  0  0  0
   39.8960   32.7440   45.8770 C   0  0  0  0  0  0  0  0  0  0  0  0
   39.4180   31.4620   45.7870 C   0  0  0  0  0  0  0  0  0  0  0  0
   38.7600   30.8090   46.7570 N   0  0  0  0  0  0  0  0  0  0  0  0
   38.8060   33.2200   49.0140 H   0  0  0  0  0  0  0  0  0  0  0  0
   39.9910   34.3760   47.2490 H   0  0  0  0  0  0  0  0  0  0  0  0
   40.4210   33.2190   45.0580 H   0  0  0  0  0  0  0  0  0  0  0  0
   37.2830   30.1890   51.2910 C   0  0  0  0  0  0  0  0  0  0  0  0
   38.0470   30.9340   50.3800 C   0  0  0  0  0  0  0  0  0  0  0  0
   37.8010   30.7190   49.0150 C   0  0  0  0  0  0  0  0  0  0  0  0
   36.8520   29.8140   48.6550 N   0  0  0  0  0  0  0  0  0  0  0  0
   36.1400   29.1180   49.5730 C   0  0  0  0  0  0  0  0  0  0  0  0
   36.3530   29.3040   50.8740 N   0  0  0  0  0  0  0  0  0  0  0  0
   37.5020   30.3830   52.3290 H   0  0  0  0  0  0  0  0  0  0  0  0
   38.7950   31.6480   50.6590 H   0  0  0  0  0  0  0  0  0  0  0  0
   35.3900   28.4030   49.2620 H   0  0  0  0  0  0  0  0  0  0  0  0
   39.6070   30.6560   44.5320 C   0  0  0  0  0  0  0  0  0  0  0  0
   38.7860   31.2780   43.5800 F   0  0  0  0  0  0  0  0  0  0  0  0
   39.2550   29.3430   44.6940 F   0  0  0  0  0  0  0  0  0  0  0  0
   40.9160   30.8160   44.1230 F   0  0  0  0  0  0  0  0  0  0  0  0
  1  2  1  0  0  0  0
  1 12  1  0  0  0  0
  2  7  1  0  0  0  0
  3  8  1  0  0  0  0
  3  2  2  0  0  0  0
  4  3  1  0  0  0  0
  5  4  2  0  0  0  0
  5  6  1  0  0  0  0
  6  1  2  0  0  0  0
  9  4  1  0  0  0  0
 10 16  1  0  0  0  0
 11 17  1  0  0  0  0
 11 10  2  0  0  0  0
 12 11  1  0  0  0  0
 13 12  2  0  0  0  0
 13 14  1  0  0  0  0
 14 15  2  0  0  0  0
 15 10  1  0  0  0  0
 18 14  1  0  0  0  0
 19 21  1  0  0  0  0
 19  5  1  0  0  0  0
 20 19  1  0  0  0  0
 22 19  1  0  0  0  0
M  END
>  <minimizedAffinity>
-5.49876308

>  <minimizedRMSD>
0.482764244

$$$$
