
 OpenBabel03272500333D

 39 41  0  0  1  0  0  0  0  0999 V2000
   38.5330   24.7620   34.1000 C   0  0  1  0  0  0  0  0  0  0  0  0
   39.4210   25.7030   33.4230 C   0  0  0  0  0  0  0  0  0  0  0  0
   40.3570   26.1600   34.5430 C   0  0  0  0  0  0  0  0  0  0  0  0
   39.4830   27.1450   35.3190 C   0  0  0  0  0  0  0  0  0  0  0  0
   38.2250   26.5930   35.8130 C   0  0  0  0  0  0  0  0  0  0  0  0
   37.8670   25.2150   35.3780 C   0  0  2  0  0  0  0  0  0  0  0  0
   39.0580   23.8540   34.4610 H   0  0  0  0  0  0  0  0  0  0  0  0
   39.1920   26.7310   33.2200 H   0  0  0  0  0  0  0  0  0  0  0  0
   40.0530   25.1950   32.6720 H   0  0  0  0  0  0  0  0  0  0  0  0
   40.7510   25.3440   35.1220 H   0  0  0  0  0  0  0  0  0  0  0  0
   41.2210   26.7290   34.1390 H   0  0  0  0  0  0  0  0  0  0  0  0
   39.3010   27.9710   34.5640 H   0  0  0  0  0  0  0  0  0  0  0  0
   40.1350   27.5960   36.0610 H   0  0  0  0  0  0  0  0  0  0  0  0
   38.2430   26.6190   36.9220 H   0  0  0  0  0  0  0  0  0  0  0  0
   37.3990   27.3270   35.5630 H   0  0  0  0  0  0  0  0  0  0  0  0
   36.7740   25.2050   35.1830 H   0  0  0  0  0  0  0  0  0  0  0  0
   38.1640   21.7480   33.9400 Cl  0  0  0  0  0  0  0  0  0  0  0  0
   37.3350   22.8980   32.9210 C   0  0  0  0  0  0  0  0  0  0  0  0
   36.4930   22.3310   32.0050 C   0  0  0  0  0  0  0  0  0  0  0  0
   35.7460   23.1820   31.2040 C   0  0  0  0  0  0  0  0  0  0  0  0
   35.8960   24.5490   31.3840 C   0  0  0  0  0  0  0  0  0  0  0  0
   36.7720   25.0290   32.3380 C   0  0  0  0  0  0  0  0  0  0  0  0
   37.5220   24.2360   33.1380 C   0  0  0  0  0  0  0  0  0  0  0  0
   35.0670   22.7620   30.4630 H   0  0  0  0  0  0  0  0  0  0  0  0
   35.2810   25.1370   30.7250 H   0  0  0  0  0  0  0  0  0  0  0  0
   36.7330   26.0980   32.3490 H   0  0  0  0  0  0  0  0  0  0  0  0
   35.2490   18.9480   32.6200 C   0  0  0  0  0  0  0  0  0  0  0  0
   36.0080   18.1380   31.7920 C   0  0  0  0  0  0  0  0  0  0  0  0
   36.9670   18.7760   30.9960 C   0  0  0  0  0  0  0  0  0  0  0  0
   37.1010   20.1350   31.0760 N   0  0  0  0  0  0  0  0  0  0  0  0
   36.3400   20.8690   31.8970 C   0  0  0  0  0  0  0  0  0  0  0  0
   35.4080   20.2680   32.6730 N   0  0  0  0  0  0  0  0  0  0  0  0
   34.4930   18.5030   33.2570 H   0  0  0  0  0  0  0  0  0  0  0  0
   35.8560   17.0660   31.7720 H   0  0  0  0  0  0  0  0  0  0  0  0
   37.5850   18.1890   30.3310 H   0  0  0  0  0  0  0  0  0  0  0  0
   38.0330   24.2630   36.5570 C   0  0  0  0  0  0  0  0  0  0  0  0
   39.3020   23.6490   36.3590 F   0  0  0  0  0  0  0  0  0  0  0  0
   38.1600   24.8640   37.7740 F   0  0  0  0  0  0  0  0  0  0  0  0
   37.0870   23.3010   36.6510 F   0  0  0  0  0  0  0  0  0  0  0  0
  1  7  1  1  0  0  0
  1  6  1  0  0  0  0
  2  1  1  0  0  0  0
  2  3  1  0  0  0  0
  3 10  1  0  0  0  0
  3  4  1  0  0  0  0
  4  5  1  0  0  0  0
  4 13  1  0  0  0  0
  5 14  1  0  0  0  0
  6 16  1  6  0  0  0
  6  5  1  0  0  0  0
  6 36  1  0  0  0  0
  8  2  1  0  0  0  0
  9  2  1  0  0  0  0
 11  3  1  0  0  0  0
 12  4  1  0  0  0  0
 15  5  1  0  0  0  0
 18 23  1  0  0  0  0
 18 17  1  0  0  0  0
 19 18  2  0  0  0  0
 20 21  2  0  0  0  0
 20 19  1  0  0  0  0
 21 22  1  0  0  0  0
 22 26  1  0  0  0  0
 22 23  2  0  0  0  0
 23  1  1  0  0  0  0
 24 20  1  0  0  0  0
 25 21  1  0  0  0  0
 27 32  1  0  0  0  0
 27 33  1  0  0  0  0
 28 27  2  0  0  0  0
 29 30  2  0  0  0  0
 29 28  1  0  0  0  0
 30 31  1  0  0  0  0
 31 19  1  0  0  0  0
 31 32  2  0  0  0  0
 34 28  1  0  0  0  0
 35 29  1  0  0  0  0
 36 39  1  0  0  0  0
 36 38  1  0  0  0  0
 37 36  1  0  0  0  0
M  END
>  <minimizedAffinity>
-5.92739058

$$$$

 OpenBabel03272500333D

 39 41  0  0  1  0  0  0  0  0999 V2000
   38.8920   24.7970   33.9890 C   0  0  1  0  0  0  0  0  0  0  0  0
   40.2000   24.3620   33.5050 C   0  0  0  0  0  0  0  0  0  0  0  0
   41.1690   25.0270   34.4840 C   0  0  0  0  0  0  0  0  0  0  0  0
   41.1830   26.4750   33.9960 C   0  0  0  0  0  0  0  0  0  0  0  0
   39.8760   27.1230   33.9560 C   0  0  0  0  0  0  0  0  0  0  0  0
   38.6840   26.2740   34.2290 C   0  0  2  0  0  0  0  0  0  0  0  0
   38.6470   24.3970   34.9940 H   0  0  0  0  0  0  0  0  0  0  0  0
   40.7380   24.8120   32.6940 H   0  0  0  0  0  0  0  0  0  0  0  0
   40.3320   23.2710   33.6220 H   0  0  0  0  0  0  0  0  0  0  0  0
   40.8850   24.8920   35.5120 H   0  0  0  0  0  0  0  0  0  0  0  0
   42.1980   24.6260   34.3670 H   0  0  0  0  0  0  0  0  0  0  0  0
   41.6320   26.3890   32.9590 H   0  0  0  0  0  0  0  0  0  0  0  0
   41.9500   26.9750   34.5830 H   0  0  0  0  0  0  0  0  0  0  0  0
   39.8810   27.9670   34.6780 H   0  0  0  0  0  0  0  0  0  0  0  0
   39.7790   27.6530   32.9580 H   0  0  0  0  0  0  0  0  0  0  0  0
   37.8840   26.5960   33.5300 H   0  0  0  0  0  0  0  0  0  0  0  0
   38.3760   21.8010   34.0820 Cl  0  0  0  0  0  0  0  0  0  0  0  0
   37.5590   22.9100   33.0080 C   0  0  0  0  0  0  0  0  0  0  0  0
   36.6540   22.3170   32.1730 C   0  0  0  0  0  0  0  0  0  0  0  0
   35.9140   23.1400   31.3370 C   0  0  0  0  0  0  0  0  0  0  0  0
   36.1360   24.5080   31.4020 C   0  0  0  0  0  0  0  0  0  0  0  0
   37.0730   25.0150   32.2810 C   0  0  0  0  0  0  0  0  0  0  0  0
   37.8180   24.2500   33.1110 C   0  0  0  0  0  0  0  0  0  0  0  0
   35.1850   22.6990   30.6580 H   0  0  0  0  0  0  0  0  0  0  0  0
   35.5210   25.0740   30.7230 H   0  0  0  0  0  0  0  0  0  0  0  0
   37.0850   26.0830   32.2090 H   0  0  0  0  0  0  0  0  0  0  0  0
   36.9700   18.7790   31.3070 C   0  0  0  0  0  0  0  0  0  0  0  0
   36.0480   18.1340   32.1150 C   0  0  0  0  0  0  0  0  0  0  0  0
   35.3040   18.9400   32.9850 C   0  0  0  0  0  0  0  0  0  0  0  0
   35.5220   20.2910   32.9920 N   0  0  0  0  0  0  0  0  0  0  0  0
   36.4280   20.8610   32.1870 C   0  0  0  0  0  0  0  0  0  0  0  0
   37.1560   20.0960   31.3400 N   0  0  0  0  0  0  0  0  0  0  0  0
   37.5720   18.2000   30.6150 H   0  0  0  0  0  0  0  0  0  0  0  0
   35.9200   17.0610   32.0650 H   0  0  0  0  0  0  0  0  0  0  0  0
   34.5710   18.4870   33.6370 H   0  0  0  0  0  0  0  0  0  0  0  0
   38.1280   26.6260   35.6040 C   0  0  0  0  0  0  0  0  0  0  0  0
   36.8730   27.2450   35.3450 F   0  0  0  0  0  0  0  0  0  0  0  0
   37.8000   25.5610   36.3880 F   0  0  0  0  0  0  0  0  0  0  0  0
   38.8960   27.4720   36.3290 F   0  0  0  0  0  0  0  0  0  0  0  0
  1  6  1  0  0  0  0
  1  7  1  1  0  0  0
  2  9  1  0  0  0  0
  2  1  1  0  0  0  0
  2  3  1  0  0  0  0
  3 10  1  0  0  0  0
  4  3  1  0  0  0  0
  4 13  1  0  0  0  0
  5  4  1  0  0  0  0
  5  6  1  0  0  0  0
  5 14  1  0  0  0  0
  6 16  1  6  0  0  0
  6 36  1  0  0  0  0
  8  2  1  0  0  0  0
 11  3  1  0  0  0  0
 12  4  1  0  0  0  0
 15  5  1  0  0  0  0
 18 23  1  0  0  0  0
 18 17  1  0  0  0  0
 19 31  1  0  0  0  0
 19 18  2  0  0  0  0
 20 21  2  0  0  0  0
 20 19  1  0  0  0  0
 21 22  1  0  0  0  0
 22 23  2  0  0  0  0
 23  1  1  0  0  0  0
 24 20  1  0  0  0  0
 25 21  1  0  0  0  0
 26 22  1  0  0  0  0
 27 32  2  0  0  0  0
 27 28  1  0  0  0  0
 28 29  2  0  0  0  0
 29 30  1  0  0  0  0
 29 35  1  0  0  0  0
 31 30  2  0  0  0  0
 32 31  1  0  0  0  0
 33 27  1  0  0  0  0
 34 28  1  0  0  0  0
 36 39  1  0  0  0  0
 36 38  1  0  0  0  0
 37 36  1  0  0  0  0
M  END
>  <minimizedAffinity>
-5.5766983

$$$$

 OpenBabel03272500333D

 39 41  0  0  1  0  0  0  0  0999 V2000
   38.6250   23.5880   33.3900 C   0  0  1  0  0  0  0  0  0  0  0  0
   39.9030   24.0920   32.8930 C   0  0  0  0  0  0  0  0  0  0  0  0
   40.9100   23.5290   33.8970 C   0  0  0  0  0  0  0  0  0  0  0  0
   40.7210   24.4510   35.1010 C   0  0  0  0  0  0  0  0  0  0  0  0
   39.3600   24.5070   35.6250 C   0  0  0  0  0  0  0  0  0  0  0  0
   38.3000   23.8060   34.8480 C   0  0  2  0  0  0  0  0  0  0  0  0
   38.5430   22.4840   33.3310 H   0  0  0  0  0  0  0  0  0  0  0  0
   40.2930   25.0730   33.0780 H   0  0  0  0  0  0  0  0  0  0  0  0
   40.1570   23.6520   31.9110 H   0  0  0  0  0  0  0  0  0  0  0  0
   40.7650   22.4820   34.0940 H   0  0  0  0  0  0  0  0  0  0  0  0
   41.9530   23.6590   33.5380 H   0  0  0  0  0  0  0  0  0  0  0  0
   41.0500   25.4590   34.7010 H   0  0  0  0  0  0  0  0  0  0  0  0
   41.4980   24.1730   35.8080 H   0  0  0  0  0  0  0  0  0  0  0  0
   39.3660   24.1020   36.6580 H   0  0  0  0  0  0  0  0  0  0  0  0
   39.0930   25.5960   35.7890 H   0  0  0  0  0  0  0  0  0  0  0  0
   37.3940   24.4480   34.8760 H   0  0  0  0  0  0  0  0  0  0  0  0
   38.4530   26.5800   32.8690 Cl  0  0  0  0  0  0  0  0  0  0  0  0
   37.2910   25.4110   32.2940 C   0  0  0  0  0  0  0  0  0  0  0  0
   36.2550   25.9510   31.5850 C   0  0  0  0  0  0  0  0  0  0  0  0
   35.3260   25.0800   31.0360 C   0  0  0  0  0  0  0  0  0  0  0  0
   35.5070   23.7190   31.2370 C   0  0  0  0  0  0  0  0  0  0  0  0
   36.5880   23.2660   31.9680 C   0  0  0  0  0  0  0  0  0  0  0  0
   37.5150   24.0800   32.5240 C   0  0  0  0  0  0  0  0  0  0  0  0
   34.4880   25.4790   30.4660 H   0  0  0  0  0  0  0  0  0  0  0  0
   34.7440   23.1140   30.7780 H   0  0  0  0  0  0  0  0  0  0  0  0
   36.5740   22.1970   31.9940 H   0  0  0  0  0  0  0  0  0  0  0  0
   35.2500   29.4360   32.0500 C   0  0  0  0  0  0  0  0  0  0  0  0
   35.8530   30.1190   31.0070 C   0  0  0  0  0  0  0  0  0  0  0  0
   36.6310   29.3590   30.1260 C   0  0  0  0  0  0  0  0  0  0  0  0
   36.7530   28.0130   30.3370 N   0  0  0  0  0  0  0  0  0  0  0  0
   36.1460   27.4040   31.3630 C   0  0  0  0  0  0  0  0  0  0  0  0
   35.3910   28.1240   32.2250 N   0  0  0  0  0  0  0  0  0  0  0  0
   34.6370   29.9790   32.7610 H   0  0  0  0  0  0  0  0  0  0  0  0
   35.7200   31.1870   30.8910 H   0  0  0  0  0  0  0  0  0  0  0  0
   37.1240   29.8430   29.2940 H   0  0  0  0  0  0  0  0  0  0  0  0
   37.8790   22.5520   35.6050 C   0  0  0  0  0  0  0  0  0  0  0  0
   37.1560   23.0280   36.7350 F   0  0  0  0  0  0  0  0  0  0  0  0
   36.9750   21.7620   34.9600 F   0  0  0  0  0  0  0  0  0  0  0  0
   38.9000   21.7730   36.0310 F   0  0  0  0  0  0  0  0  0  0  0  0
  1  7  1  6  0  0  0
  1  6  1  0  0  0  0
  2  8  1  0  0  0  0
  2  1  1  0  0  0  0
  2  3  1  0  0  0  0
  3 10  1  0  0  0  0
  3  4  1  0  0  0  0
  4  5  1  0  0  0  0
  4 13  1  0  0  0  0
  5 15  1  0  0  0  0
  5 14  1  0  0  0  0
  6 16  1  1  0  0  0
  6 36  1  0  0  0  0
  6  5  1  0  0  0  0
  9  2  1  0  0  0  0
 11  3  1  0  0  0  0
 12  4  1  0  0  0  0
 18 23  1  0  0  0  0
 18 17  1  0  0  0  0
 19 18  2  0  0  0  0
 20 21  2  0  0  0  0
 20 19  1  0  0  0  0
 21 22  1  0  0  0  0
 22 26  1  0  0  0  0
 22 23  2  0  0  0  0
 23  1  1  0  0  0  0
 24 20  1  0  0  0  0
 25 21  1  0  0  0  0
 27 32  1  0  0  0  0
 27 33  1  0  0  0  0
 28 27  2  0  0  0  0
 29 30  2  0  0  0  0
 29 28  1  0  0  0  0
 30 31  1  0  0  0  0
 31 19  1  0  0  0  0
 31 32  2  0  0  0  0
 34 28  1  0  0  0  0
 35 29  1  0  0  0  0
 36 39  1  0  0  0  0
 36 37  1  0  0  0  0
 38 36  1  0  0  0  0
M  END
>  <minimizedAffinity>
-5.48152161

$$$$

 OpenBabel03272500333D

 39 41  0  0  1  0  0  0  0  0999 V2000
   39.1810   25.5690   34.8220 C   0  0  1  0  0  0  0  0  0  0  0  0
   40.5760   25.3980   34.4280 C   0  0  0  0  0  0  0  0  0  0  0  0
   41.0410   26.8320   34.1700 C   0  0  0  0  0  0  0  0  0  0  0  0
   40.4240   27.1350   32.8050 C   0  0  0  0  0  0  0  0  0  0  0  0
   38.9740   26.9810   32.7380 C   0  0  0  0  0  0  0  0  0  0  0  0
   38.2930   26.4040   33.9290 C   0  0  2  0  0  0  0  0  0  0  0  0
   39.0650   26.1140   35.7810 H   0  0  0  0  0  0  0  0  0  0  0  0
   40.9120   25.1310   33.4450 H   0  0  0  0  0  0  0  0  0  0  0  0
   41.1890   25.0140   35.2650 H   0  0  0  0  0  0  0  0  0  0  0  0
   40.7660   27.5110   34.9580 H   0  0  0  0  0  0  0  0  0  0  0  0
   42.1440   26.8840   34.0560 H   0  0  0  0  0  0  0  0  0  0  0  0
   40.9480   26.3970   32.1220 H   0  0  0  0  0  0  0  0  0  0  0  0
   40.8200   28.1030   32.5120 H   0  0  0  0  0  0  0  0  0  0  0  0
   38.5270   27.9740   32.5230 H   0  0  0  0  0  0  0  0  0  0  0  0
   38.7280   26.3920   31.8020 H   0  0  0  0  0  0  0  0  0  0  0  0
   37.4970   25.7260   33.5560 H   0  0  0  0  0  0  0  0  0  0  0  0
   38.5190   23.8170   32.4270 Cl  0  0  0  0  0  0  0  0  0  0  0  0
   38.1430   23.4070   34.0820 C   0  0  0  0  0  0  0  0  0  0  0  0
   37.4950   22.2130   34.2310 C   0  0  0  0  0  0  0  0  0  0  0  0
   37.2220   21.7850   35.5210 C   0  0  0  0  0  0  0  0  0  0  0  0
   37.6260   22.5900   36.5770 C   0  0  0  0  0  0  0  0  0  0  0  0
   38.2780   23.7810   36.3270 C   0  0  0  0  0  0  0  0  0  0  0  0
   38.5610   24.2390   35.0860 C   0  0  0  0  0  0  0  0  0  0  0  0
   36.7050   20.8380   35.6750 H   0  0  0  0  0  0  0  0  0  0  0  0
   37.3780   22.1850   37.5430 H   0  0  0  0  0  0  0  0  0  0  0  0
   38.5320   24.2480   37.2560 H   0  0  0  0  0  0  0  0  0  0  0  0
   35.5240   20.7620   31.5150 C   0  0  0  0  0  0  0  0  0  0  0  0
   36.3660   19.8340   30.9250 C   0  0  0  0  0  0  0  0  0  0  0  0
   37.6470   19.7110   31.4740 C   0  0  0  0  0  0  0  0  0  0  0  0
   37.9940   20.4970   32.5390 N   0  0  0  0  0  0  0  0  0  0  0  0
   37.1370   21.3780   33.0700 C   0  0  0  0  0  0  0  0  0  0  0  0
   35.8940   21.5090   32.5510 N   0  0  0  0  0  0  0  0  0  0  0  0
   34.5190   20.8950   31.1270 H   0  0  0  0  0  0  0  0  0  0  0  0
   36.0350   19.2390   30.0830 H   0  0  0  0  0  0  0  0  0  0  0  0
   38.3440   19.0010   31.0510 H   0  0  0  0  0  0  0  0  0  0  0  0
   37.5230   27.5080   34.6450 C   0  0  0  0  0  0  0  0  0  0  0  0
   36.4460   26.8430   35.2950 F   0  0  0  0  0  0  0  0  0  0  0  0
   38.1890   28.1090   35.6700 F   0  0  0  0  0  0  0  0  0  0  0  0
   37.0240   28.4710   33.8360 F   0  0  0  0  0  0  0  0  0  0  0  0
  1 23  1  0  0  0  0
  1  7  1  1  0  0  0
  2  1  1  0  0  0  0
  2  9  1  0  0  0  0
  3  2  1  0  0  0  0
  3 10  1  0  0  0  0
  4  3  1  0  0  0  0
  5  4  1  0  0  0  0
  5  6  1  0  0  0  0
  6 16  1  6  0  0  0
  6 36  1  0  0  0  0
  6  1  1  0  0  0  0
  8  2  1  0  0  0  0
 11  3  1  0  0  0  0
 12  4  1  0  0  0  0
 13  4  1  0  0  0  0
 14  5  1  0  0  0  0
 15  5  1  0  0  0  0
 17 18  1  0  0  0  0
 18 19  2  0  0  0  0
 18 23  1  0  0  0  0
 19 20  1  0  0  0  0
 20 24  1  0  0  0  0
 20 21  2  0  0  0  0
 21 25  1  0  0  0  0
 22 21  1  0  0  0  0
 22 26  1  0  0  0  0
 23 22  2  0  0  0  0
 27 32  1  0  0  0  0
 28 29  1  0  0  0  0
 28 27  2  0  0  0  0
 29 30  2  0  0  0  0
 30 31  1  0  0  0  0
 31 19  1  0  0  0  0
 32 31  2  0  0  0  0
 33 27  1  0  0  0  0
 34 28  1  0  0  0  0
 35 29  1  0  0  0  0
 36 37  1  0  0  0  0
 36 38  1  0  0  0  0
 39 36  1  0  0  0  0
M  END
>  <minimizedAffinity>
-5.34795427

$$$$

 OpenBabel03272500333D

 39 41  0  0  1  0  0  0  0  0999 V2000
   38.0760   26.4570   33.0760 C   0  0  1  0  0  0  0  0  0  0  0  0
   37.8840   26.3780   34.5210 C   0  0  0  0  0  0  0  0  0  0  0  0
   39.0660   27.1790   35.0700 C   0  0  0  0  0  0  0  0  0  0  0  0
   40.2270   26.1980   34.9110 C   0  0  0  0  0  0  0  0  0  0  0  0
   40.4440   25.7170   33.5500 C   0  0  0  0  0  0  0  0  0  0  0  0
   39.4350   26.0960   32.5240 C   0  0  2  0  0  0  0  0  0  0  0  0
   37.9680   27.4870   32.6790 H   0  0  0  0  0  0  0  0  0  0  0  0
   38.1790   25.5530   35.1390 H   0  0  0  0  0  0  0  0  0  0  0  0
   36.9690   26.9110   34.8370 H   0  0  0  0  0  0  0  0  0  0  0  0
   39.1960   28.1270   34.5780 H   0  0  0  0  0  0  0  0  0  0  0  0
   38.9470   27.3810   36.1550 H   0  0  0  0  0  0  0  0  0  0  0  0
   39.9390   25.3510   35.6060 H   0  0  0  0  0  0  0  0  0  0  0  0
   41.0780   26.6690   35.3960 H   0  0  0  0  0  0  0  0  0  0  0  0
   41.4410   26.0650   33.2100 H   0  0  0  0  0  0  0  0  0  0  0  0
   40.5780   24.5920   33.5950 H   0  0  0  0  0  0  0  0  0  0  0  0
   39.2830   25.2120   31.8690 H   0  0  0  0  0  0  0  0  0  0  0  0
   38.0620   23.4330   33.4030 Cl  0  0  0  0  0  0  0  0  0  0  0  0
   36.9530   24.3200   32.3860 C   0  0  0  0  0  0  0  0  0  0  0  0
   36.0590   23.5350   31.7130 C   0  0  0  0  0  0  0  0  0  0  0  0
   35.1010   24.1700   30.9370 C   0  0  0  0  0  0  0  0  0  0  0  0
   35.1060   25.5570   30.8960 C   0  0  0  0  0  0  0  0  0  0  0  0
   36.0500   26.2660   31.6140 C   0  0  0  0  0  0  0  0  0  0  0  0
   37.0040   25.6880   32.3790 C   0  0  0  0  0  0  0  0  0  0  0  0
   34.3750   23.5740   30.3860 H   0  0  0  0  0  0  0  0  0  0  0  0
   34.3310   25.9690   30.2740 H   0  0  0  0  0  0  0  0  0  0  0  0
   35.8820   27.3140   31.4810 H   0  0  0  0  0  0  0  0  0  0  0  0
   36.8920   20.0360   31.0580 C   0  0  0  0  0  0  0  0  0  0  0  0
   36.1370   19.3170   31.9700 C   0  0  0  0  0  0  0  0  0  0  0  0
   35.3260   20.0590   32.8370 C   0  0  0  0  0  0  0  0  0  0  0  0
   35.3230   21.4240   32.7410 N   0  0  0  0  0  0  0  0  0  0  0  0
   36.0730   22.0660   31.8370 C   0  0  0  0  0  0  0  0  0  0  0  0
   36.8630   21.3640   30.9920 N   0  0  0  0  0  0  0  0  0  0  0  0
   37.5370   19.5070   30.3640 H   0  0  0  0  0  0  0  0  0  0  0  0
   36.1810   18.2360   31.9990 H   0  0  0  0  0  0  0  0  0  0  0  0
   34.7170   19.5470   33.5680 H   0  0  0  0  0  0  0  0  0  0  0  0
   40.0430   27.1370   31.5910 C   0  0  0  0  0  0  0  0  0  0  0  0
   38.9980   28.0750   31.3550 F   0  0  0  0  0  0  0  0  0  0  0  0
   41.0330   27.8980   32.1370 F   0  0  0  0  0  0  0  0  0  0  0  0
   40.4790   26.6550   30.4050 F   0  0  0  0  0  0  0  0  0  0  0  0
  1  7  1  6  0  0  0
  1  2  1  0  0  0  0
  2  9  1  0  0  0  0
  2  3  1  0  0  0  0
  2  8  1  0  0  0  0
  3 11  1  0  0  0  0
  4  3  1  0  0  0  0
  4 13  1  0  0  0  0
  4 12  1  0  0  0  0
  5 15  1  0  0  0  0
  5  4  1  0  0  0  0
  6 16  1  6  0  0  0
  6  1  1  0  0  0  0
  6  5  1  0  0  0  0
 10  3  1  0  0  0  0
 14  5  1  0  0  0  0
 18 17  1  0  0  0  0
 19 31  1  0  0  0  0
 19 18  2  0  0  0  0
 20 19  1  0  0  0  0
 21 20  2  0  0  0  0
 21 22  1  0  0  0  0
 22 23  2  0  0  0  0
 23 18  1  0  0  0  0
 23  1  1  0  0  0  0
 24 20  1  0  0  0  0
 25 21  1  0  0  0  0
 26 22  1  0  0  0  0
 27 28  1  0  0  0  0
 28 34  1  0  0  0  0
 28 29  2  0  0  0  0
 29 35  1  0  0  0  0
 30 29  1  0  0  0  0
 31 30  2  0  0  0  0
 32 27  2  0  0  0  0
 32 31  1  0  0  0  0
 33 27  1  0  0  0  0
 36 38  1  0  0  0  0
 36  6  1  0  0  0  0
 37 36  1  0  0  0  0
 39 36  1  0  0  0  0
M  END
>  <minimizedAffinity>
-5.3313365

$$$$

 OpenBabel03272500333D

 39 41  0  0  1  0  0  0  0  0999 V2000
   35.0920   31.8870   33.6630 C   0  0  1  0  0  0  0  0  0  0  0  0
   33.8340   31.3200   34.1410 C   0  0  0  0  0  0  0  0  0  0  0  0
   33.4760   32.2210   35.3240 C   0  0  0  0  0  0  0  0  0  0  0  0
   34.4170   31.7150   36.4160 C   0  0  0  0  0  0  0  0  0  0  0  0
   35.8360   31.7560   36.0730 C   0  0  0  0  0  0  0  0  0  0  0  0
   36.1890   32.1210   34.6740 C   0  0  2  0  0  0  0  0  0  0  0  0
   34.9780   32.9110   33.2530 H   0  0  0  0  0  0  0  0  0  0  0  0
   33.7460   30.4680   34.7860 H   0  0  0  0  0  0  0  0  0  0  0  0
   33.0260   31.4420   33.3960 H   0  0  0  0  0  0  0  0  0  0  0  0
   33.5610   33.2680   35.0940 H   0  0  0  0  0  0  0  0  0  0  0  0
   32.4370   32.0390   35.6690 H   0  0  0  0  0  0  0  0  0  0  0  0
   34.0640   30.6510   36.5810 H   0  0  0  0  0  0  0  0  0  0  0  0
   34.1260   32.2410   37.3210 H   0  0  0  0  0  0  0  0  0  0  0  0
   36.3420   32.4640   36.7610 H   0  0  0  0  0  0  0  0  0  0  0  0
   36.2940   30.7600   36.3630 H   0  0  0  0  0  0  0  0  0  0  0  0
   37.0390   31.4740   34.3700 H   0  0  0  0  0  0  0  0  0  0  0  0
   35.4520   28.8930   34.0560 Cl  0  0  0  0  0  0  0  0  0  0  0  0
   35.8820   29.7550   32.6000 C   0  0  0  0  0  0  0  0  0  0  0  0
   36.4250   28.9690   31.6220 C   0  0  0  0  0  0  0  0  0  0  0  0
   36.7300   29.5680   30.4090 C   0  0  0  0  0  0  0  0  0  0  0  0
   36.4620   30.9210   30.2620 C   0  0  0  0  0  0  0  0  0  0  0  0
   35.9100   31.6340   31.3080 C   0  0  0  0  0  0  0  0  0  0  0  0
   35.6010   31.0910   32.5090 C   0  0  0  0  0  0  0  0  0  0  0  0
   37.1650   28.9690   29.6090 H   0  0  0  0  0  0  0  0  0  0  0  0
   36.7260   31.3070   29.2920 H   0  0  0  0  0  0  0  0  0  0  0  0
   35.7530   32.6470   31.0030 H   0  0  0  0  0  0  0  0  0  0  0  0
   35.8490   25.3590   31.5160 C   0  0  0  0  0  0  0  0  0  0  0  0
   36.9320   24.8100   32.1800 C   0  0  0  0  0  0  0  0  0  0  0  0
   37.8890   25.7060   32.6700 C   0  0  0  0  0  0  0  0  0  0  0  0
   37.7080   27.0480   32.4710 N   0  0  0  0  0  0  0  0  0  0  0  0
   36.6380   27.5240   31.8220 C   0  0  0  0  0  0  0  0  0  0  0  0
   35.7040   26.6710   31.3410 N   0  0  0  0  0  0  0  0  0  0  0  0
   35.0790   24.7070   31.1170 H   0  0  0  0  0  0  0  0  0  0  0  0
   37.0210   23.7390   32.3070 H   0  0  0  0  0  0  0  0  0  0  0  0
   38.7550   25.3290   33.1960 H   0  0  0  0  0  0  0  0  0  0  0  0
   36.7800   33.5260   34.6620 C   0  0  0  0  0  0  0  0  0  0  0  0
   37.5960   33.5720   33.4960 F   0  0  0  0  0  0  0  0  0  0  0  0
   35.8830   34.5310   34.4610 F   0  0  0  0  0  0  0  0  0  0  0  0
   37.5360   33.8350   35.7410 F   0  0  0  0  0  0  0  0  0  0  0  0
  1  7  1  6  0  0  0
  1  2  1  0  0  0  0
  1  6  1  0  0  0  0
  2  8  1  0  0  0  0
  2  3  1  0  0  0  0
  3 11  1  0  0  0  0
  3  4  1  0  0  0  0
  4 12  1  0  0  0  0
  4 13  1  0  0  0  0
  5 15  1  0  0  0  0
  5  4  1  0  0  0  0
  5 14  1  0  0  0  0
  6 16  1  6  0  0  0
  6  5  1  0  0  0  0
  9  2  1  0  0  0  0
 10  3  1  0  0  0  0
 18 17  1  0  0  0  0
 19 31  1  0  0  0  0
 19 18  2  0  0  0  0
 20 19  1  0  0  0  0
 21 20  2  0  0  0  0
 21 22  1  0  0  0  0
 22 23  2  0  0  0  0
 23 18  1  0  0  0  0
 23  1  1  0  0  0  0
 24 20  1  0  0  0  0
 25 21  1  0  0  0  0
 26 22  1  0  0  0  0
 27 28  1  0  0  0  0
 28 34  1  0  0  0  0
 28 29  2  0  0  0  0
 29 35  1  0  0  0  0
 30 29  1  0  0  0  0
 31 30  2  0  0  0  0
 32 27  2  0  0  0  0
 32 31  1  0  0  0  0
 33 27  1  0  0  0  0
 36  6  1  0  0  0  0
 36 39  1  0  0  0  0
 37 36  1  0  0  0  0
 38 36  1  0  0  0  0
M  END
>  <minimizedAffinity>
-5.31018496

$$$$

 OpenBabel03272500333D

 39 41  0  0  1  0  0  0  0  0999 V2000
   34.8070   30.6740   34.9150 C   0  0  1  0  0  0  0  0  0  0  0  0
   35.7660   31.6660   35.3940 C   0  0  0  0  0  0  0  0  0  0  0  0
   35.2290   32.0240   36.7810 C   0  0  0  0  0  0  0  0  0  0  0  0
   34.0540   32.9430   36.4480 C   0  0  0  0  0  0  0  0  0  0  0  0
   33.0410   32.3550   35.5760 C   0  0  0  0  0  0  0  0  0  0  0  0
   33.3390   31.0200   34.9890 C   0  0  2  0  0  0  0  0  0  0  0  0
   34.8200   29.7370   35.5090 H   0  0  0  0  0  0  0  0  0  0  0  0
   35.7560   32.7070   35.1400 H   0  0  0  0  0  0  0  0  0  0  0  0
   36.7660   31.2200   35.5490 H   0  0  0  0  0  0  0  0  0  0  0  0
   34.9820   31.1600   37.3720 H   0  0  0  0  0  0  0  0  0  0  0  0
   35.9670   32.6220   37.3560 H   0  0  0  0  0  0  0  0  0  0  0  0
   34.5580   33.8300   35.9540 H   0  0  0  0  0  0  0  0  0  0  0  0
   33.7030   33.3270   37.4010 H   0  0  0  0  0  0  0  0  0  0  0  0
   32.0890   32.2880   36.1410 H   0  0  0  0  0  0  0  0  0  0  0  0
   32.7960   33.1110   34.7670 H   0  0  0  0  0  0  0  0  0  0  0  0
   32.9660   31.0300   33.9430 H   0  0  0  0  0  0  0  0  0  0  0  0
   36.3690   28.0800   34.6290 Cl  0  0  0  0  0  0  0  0  0  0  0  0
   35.9510   29.1310   33.2990 C   0  0  0  0  0  0  0  0  0  0  0  0
   36.4020   28.7030   32.0810 C   0  0  0  0  0  0  0  0  0  0  0  0
   36.0520   29.4490   30.9660 C   0  0  0  0  0  0  0  0  0  0  0  0
   35.2650   30.5760   31.1530 C   0  0  0  0  0  0  0  0  0  0  0  0
   34.8550   30.9290   32.4240 C   0  0  0  0  0  0  0  0  0  0  0  0
   35.1760   30.2340   33.5390 C   0  0  0  0  0  0  0  0  0  0  0  0
   36.3970   29.1350   29.9810 H   0  0  0  0  0  0  0  0  0  0  0  0
   35.0380   31.0960   30.2380 H   0  0  0  0  0  0  0  0  0  0  0  0
   34.2400   31.8030   32.3670 H   0  0  0  0  0  0  0  0  0  0  0  0
   39.2940   26.4760   31.8650 C   0  0  0  0  0  0  0  0  0  0  0  0
   38.7550   25.2180   31.6540 C   0  0  0  0  0  0  0  0  0  0  0  0
   37.3590   25.1350   31.5930 C   0  0  0  0  0  0  0  0  0  0  0  0
   36.6170   26.2750   31.7410 N   0  0  0  0  0  0  0  0  0  0  0  0
   37.1930   27.4670   31.9420 C   0  0  0  0  0  0  0  0  0  0  0  0
   38.5410   27.5640   32.0050 N   0  0  0  0  0  0  0  0  0  0  0  0
   40.3710   26.5940   31.9210 H   0  0  0  0  0  0  0  0  0  0  0  0
   39.3930   24.3510   31.5440 H   0  0  0  0  0  0  0  0  0  0  0  0
   36.8870   24.1770   31.4300 H   0  0  0  0  0  0  0  0  0  0  0  0
   32.4680   29.9720   35.6730 C   0  0  0  0  0  0  0  0  0  0  0  0
   31.2300   30.0070   34.9720 F   0  0  0  0  0  0  0  0  0  0  0  0
   32.8830   28.6830   35.5200 F   0  0  0  0  0  0  0  0  0  0  0  0
   32.2360   30.1940   36.9880 F   0  0  0  0  0  0  0  0  0  0  0  0
  1  6  1  0  0  0  0
  1  2  1  0  0  0  0
  1  7  1  1  0  0  0
  2  9  1  0  0  0  0
  2  3  1  0  0  0  0
  3 11  1  0  0  0  0
  3 10  1  0  0  0  0
  4  3  1  0  0  0  0
  4 13  1  0  0  0  0
  5 14  1  0  0  0  0
  5  4  1  0  0  0  0
  6 16  1  6  0  0  0
  6  5  1  0  0  0  0
  6 36  1  0  0  0  0
  8  2  1  0  0  0  0
 12  4  1  0  0  0  0
 15  5  1  0  0  0  0
 18 23  1  0  0  0  0
 18 17  1  0  0  0  0
 19 18  2  0  0  0  0
 20 21  2  0  0  0  0
 20 19  1  0  0  0  0
 21 22  1  0  0  0  0
 22 23  2  0  0  0  0
 23  1  1  0  0  0  0
 24 20  1  0  0  0  0
 25 21  1  0  0  0  0
 26 22  1  0  0  0  0
 27 33  1  0  0  0  0
 27 32  1  0  0  0  0
 28 27  2  0  0  0  0
 29 28  1  0  0  0  0
 29 30  2  0  0  0  0
 30 31  1  0  0  0  0
 31 32  2  0  0  0  0
 31 19  1  0  0  0  0
 34 28  1  0  0  0  0
 35 29  1  0  0  0  0
 36 39  1  0  0  0  0
 37 36  1  0  0  0  0
 38 36  1  0  0  0  0
M  END
>  <minimizedAffinity>
-5.26323318

$$$$

 OpenBabel03272500333D

 39 41  0  0  1  0  0  0  0  0999 V2000
   38.4510   25.0890   34.4940 C   0  0  1  0  0  0  0  0  0  0  0  0
   37.9830   23.8840   35.1740 C   0  0  0  0  0  0  0  0  0  0  0  0
   38.9590   23.7470   36.3440 C   0  0  0  0  0  0  0  0  0  0  0  0
   40.2080   23.1880   35.6630 C   0  0  0  0  0  0  0  0  0  0  0  0
   40.7320   24.0070   34.5740 C   0  0  0  0  0  0  0  0  0  0  0  0
   39.9190   25.1790   34.1480 C   0  0  2  0  0  0  0  0  0  0  0  0
   38.3360   26.0050   35.1080 H   0  0  0  0  0  0  0  0  0  0  0  0
   38.2190   22.8800   34.8820 H   0  0  0  0  0  0  0  0  0  0  0  0
   36.9810   24.0320   35.6150 H   0  0  0  0  0  0  0  0  0  0  0  0
   39.1020   24.6670   36.8820 H   0  0  0  0  0  0  0  0  0  0  0  0
   38.6090   22.9860   37.0730 H   0  0  0  0  0  0  0  0  0  0  0  0
   39.8610   22.1770   35.2880 H   0  0  0  0  0  0  0  0  0  0  0  0
   40.9020   22.9570   36.4670 H   0  0  0  0  0  0  0  0  0  0  0  0
   41.7430   24.3640   34.8590 H   0  0  0  0  0  0  0  0  0  0  0  0
   40.9510   23.3220   33.6970 H   0  0  0  0  0  0  0  0  0  0  0  0
   39.9780   25.2350   33.0410 H   0  0  0  0  0  0  0  0  0  0  0  0
   37.3710   27.9060   34.1120 Cl  0  0  0  0  0  0  0  0  0  0  0  0
   37.0020   26.5580   33.0650 C   0  0  0  0  0  0  0  0  0  0  0  0
   36.1530   26.8610   32.0380 C   0  0  0  0  0  0  0  0  0  0  0  0
   35.8660   25.8600   31.1230 C   0  0  0  0  0  0  0  0  0  0  0  0
   36.4580   24.6180   31.3040 C   0  0  0  0  0  0  0  0  0  0  0  0
   37.3050   24.4060   32.3740 C   0  0  0  0  0  0  0  0  0  0  0  0
   37.6100   25.3520   33.2920 C   0  0  0  0  0  0  0  0  0  0  0  0
   35.1920   26.0690   30.2930 H   0  0  0  0  0  0  0  0  0  0  0  0
   36.1840   23.9000   30.5510 H   0  0  0  0  0  0  0  0  0  0  0  0
   37.6820   23.4060   32.3340 H   0  0  0  0  0  0  0  0  0  0  0  0
   35.7450   30.2870   30.8270 C   0  0  0  0  0  0  0  0  0  0  0  0
   34.6490   30.7770   31.5180 C   0  0  0  0  0  0  0  0  0  0  0  0
   34.0320   29.9010   32.4180 C   0  0  0  0  0  0  0  0  0  0  0  0
   34.5310   28.6350   32.5650 N   0  0  0  0  0  0  0  0  0  0  0  0
   35.5960   28.2160   31.8700 C   0  0  0  0  0  0  0  0  0  0  0  0
   36.2040   29.0500   30.9960 N   0  0  0  0  0  0  0  0  0  0  0  0
   36.2590   30.9270   30.1180 H   0  0  0  0  0  0  0  0  0  0  0  0
   34.2990   31.7890   31.3600 H   0  0  0  0  0  0  0  0  0  0  0  0
   33.1720   30.2330   32.9830 H   0  0  0  0  0  0  0  0  0  0  0  0
   40.6080   26.4560   34.6130 C   0  0  0  0  0  0  0  0  0  0  0  0
   40.5120   27.3490   33.5090 F   0  0  0  0  0  0  0  0  0  0  0  0
   39.9750   27.1250   35.6180 F   0  0  0  0  0  0  0  0  0  0  0  0
   41.9110   26.3110   34.9500 F   0  0  0  0  0  0  0  0  0  0  0  0
  1  7  1  1  0  0  0
  1  2  1  0  0  0  0
  2  9  1  0  0  0  0
  2  3  1  0  0  0  0
  3 10  1  0  0  0  0
  3 11  1  0  0  0  0
  4  3  1  0  0  0  0
  4 13  1  0  0  0  0
  5 14  1  0  0  0  0
  5  4  1  0  0  0  0
  6 16  1  6  0  0  0
  6  1  1  0  0  0  0
  6  5  1  0  0  0  0
  6 36  1  0  0  0  0
  8  2  1  0  0  0  0
 12  4  1  0  0  0  0
 15  5  1  0  0  0  0
 18 23  1  0  0  0  0
 18 17  1  0  0  0  0
 19 18  2  0  0  0  0
 20 21  2  0  0  0  0
 20 19  1  0  0  0  0
 21 22  1  0  0  0  0
 22 23  2  0  0  0  0
 23  1  1  0  0  0  0
 24 20  1  0  0  0  0
 25 21  1  0  0  0  0
 26 22  1  0  0  0  0
 27 32  2  0  0  0  0
 27 28  1  0  0  0  0
 28 29  2  0  0  0  0
 29 30  1  0  0  0  0
 29 35  1  0  0  0  0
 31 19  1  0  0  0  0
 31 30  2  0  0  0  0
 32 31  1  0  0  0  0
 33 27  1  0  0  0  0
 34 28  1  0  0  0  0
 36 39  1  0  0  0  0
 36 38  1  0  0  0  0
 37 36  1  0  0  0  0
M  END
>  <minimizedAffinity>
-5.22981071

$$$$

 OpenBabel03272500333D

 39 41  0  0  1  0  0  0  0  0999 V2000
   36.4670   28.4210   32.0470 C   0  0  1  0  0  0  0  0  0  0  0  0
   36.8640   28.9390   30.7410 C   0  0  0  0  0  0  0  0  0  0  0  0
   36.9070   30.4510   30.9690 C   0  0  0  0  0  0  0  0  0  0  0  0
   35.4250   30.8260   30.9540 C   0  0  0  0  0  0  0  0  0  0  0  0
   34.6040   30.1220   31.9350 C   0  0  0  0  0  0  0  0  0  0  0  0
   35.2510   29.0270   32.7070 C   0  0  2  0  0  0  0  0  0  0  0  0
   37.2290   28.5980   32.8340 H   0  0  0  0  0  0  0  0  0  0  0  0
   36.2020   29.1010   29.9140 H   0  0  0  0  0  0  0  0  0  0  0  0
   37.8930   28.6310   30.4790 H   0  0  0  0  0  0  0  0  0  0  0  0
   37.4400   30.7270   31.8610 H   0  0  0  0  0  0  0  0  0  0  0  0
   37.3910   30.9740   30.1170 H   0  0  0  0  0  0  0  0  0  0  0  0
   35.1110   30.5720   29.8960 H   0  0  0  0  0  0  0  0  0  0  0  0
   35.3960   31.9110   30.9930 H   0  0  0  0  0  0  0  0  0  0  0  0
   34.1980   30.8670   32.6500 H   0  0  0  0  0  0  0  0  0  0  0  0
   33.6710   29.7530   31.4070 H   0  0  0  0  0  0  0  0  0  0  0  0
   34.5060   28.2090   32.8050 H   0  0  0  0  0  0  0  0  0  0  0  0
   38.4750   26.7760   33.6330 Cl  0  0  0  0  0  0  0  0  0  0  0  0
   37.2480   26.0980   32.5920 C   0  0  0  0  0  0  0  0  0  0  0  0
   37.2630   24.7330   32.5230 C   0  0  0  0  0  0  0  0  0  0  0  0
   36.2760   24.1150   31.7700 C   0  0  0  0  0  0  0  0  0  0  0  0
   35.3360   24.9180   31.1380 C   0  0  0  0  0  0  0  0  0  0  0  0
   35.4020   26.2910   31.2680 C   0  0  0  0  0  0  0  0  0  0  0  0
   36.3480   26.9350   31.9890 C   0  0  0  0  0  0  0  0  0  0  0  0
   36.2600   23.0290   31.6930 H   0  0  0  0  0  0  0  0  0  0  0  0
   34.6060   24.3610   30.5770 H   0  0  0  0  0  0  0  0  0  0  0  0
   34.5860   26.7360   30.7370 H   0  0  0  0  0  0  0  0  0  0  0  0
   40.3480   22.9150   33.2620 C   0  0  0  0  0  0  0  0  0  0  0  0
   40.1640   22.4130   34.5400 C   0  0  0  0  0  0  0  0  0  0  0  0
   38.9480   22.7150   35.1640 C   0  0  0  0  0  0  0  0  0  0  0  0
   38.0270   23.4740   34.4950 N   0  0  0  0  0  0  0  0  0  0  0  0
   38.2580   23.9330   33.2590 C   0  0  0  0  0  0  0  0  0  0  0  0
   39.4290   23.6490   32.6410 N   0  0  0  0  0  0  0  0  0  0  0  0
   41.2730   22.7080   32.7350 H   0  0  0  0  0  0  0  0  0  0  0  0
   40.9300   21.8170   35.0190 H   0  0  0  0  0  0  0  0  0  0  0  0
   38.7530   22.3480   36.1620 H   0  0  0  0  0  0  0  0  0  0  0  0
   35.4680   29.4930   34.1420 C   0  0  0  0  0  0  0  0  0  0  0  0
   35.8630   30.8560   34.0300 F   0  0  0  0  0  0  0  0  0  0  0  0
   34.3440   29.5520   34.9100 F   0  0  0  0  0  0  0  0  0  0  0  0
   36.4180   28.8140   34.8250 F   0  0  0  0  0  0  0  0  0  0  0  0
  1  6  1  0  0  0  0
  1  7  1  1  0  0  0
  2  3  1  0  0  0  0
  2  1  1  0  0  0  0
  3 10  1  0  0  0  0
  4  3  1  0  0  0  0
  4 13  1  0  0  0  0
  4  5  1  0  0  0  0
  5 14  1  0  0  0  0
  5  6  1  0  0  0  0
  6 16  1  1  0  0  0
  6 36  1  0  0  0  0
  8  2  1  0  0  0  0
  9  2  1  0  0  0  0
 11  3  1  0  0  0  0
 12  4  1  0  0  0  0
 15  5  1  0  0  0  0
 18 17  1  0  0  0  0
 19 18  1  0  0  0  0
 19 31  1  0  0  0  0
 20 19  2  0  0  0  0
 21 22  2  0  0  0  0
 21 20  1  0  0  0  0
 22 23  1  0  0  0  0
 23  1  1  0  0  0  0
 23 18  2  0  0  0  0
 24 20  1  0  0  0  0
 25 21  1  0  0  0  0
 26 22  1  0  0  0  0
 27 28  1  0  0  0  0
 28 34  1  0  0  0  0
 28 29  2  0  0  0  0
 29 35  1  0  0  0  0
 30 29  1  0  0  0  0
 31 30  2  0  0  0  0
 32 31  1  0  0  0  0
 32 27  2  0  0  0  0
 33 27  1  0  0  0  0
 36 39  1  0  0  0  0
 36 38  1  0  0  0  0
 37 36  1  0  0  0  0
M  END
>  <minimizedAffinity>
-5.20002317

$$$$
