
 OpenBabel03272503033D

 23 24  0  0  0  0  0  0  0  0999 V2000
   40.2270   23.8500   34.8950 F   0  0  0  0  0  0  0  0  0  0  0  0
   39.5110   23.8210   36.0530 C   0  0  0  0  0  0  0  0  0  0  0  0
   38.3630   24.5570   36.1480 C   0  0  0  0  0  0  0  0  0  0  0  0
   37.6820   24.4880   37.3410 C   0  0  0  0  0  0  0  0  0  0  0  0
   38.1280   23.7130   38.4010 C   0  0  0  0  0  0  0  0  0  0  0  0
   39.2910   22.9830   38.2700 C   0  0  0  0  0  0  0  0  0  0  0  0
   39.9770   23.0470   37.0810 C   0  0  0  0  0  0  0  0  0  0  0  0
   36.7660   25.0790   37.4080 H   0  0  0  0  0  0  0  0  0  0  0  0
   37.5570   23.7000   39.3020 H   0  0  0  0  0  0  0  0  0  0  0  0
   39.6350   22.3760   39.1090 H   0  0  0  0  0  0  0  0  0  0  0  0
   37.3940   27.4710   33.9350 C   0  0  0  0  0  0  0  0  0  0  0  0
   37.7980   26.7230   35.0530 C   0  0  0  0  0  0  0  0  0  0  0  0
   37.9460   25.3500   35.0030 C   0  0  0  0  0  0  0  0  0  0  0  0
   37.6750   24.7750   33.8030 N   0  0  0  0  0  0  0  0  0  0  0  0
   37.2870   25.4920   32.7300 C   0  0  0  0  0  0  0  0  0  0  0  0
   37.1480   26.8140   32.7930 N   0  0  0  0  0  0  0  0  0  0  0  0
   37.2800   28.5510   33.9800 H   0  0  0  0  0  0  0  0  0  0  0  0
   38.0010   27.2560   35.9940 H   0  0  0  0  0  0  0  0  0  0  0  0
   37.1070   24.9020   31.8450 H   0  0  0  0  0  0  0  0  0  0  0  0
   41.2430   22.2720   36.8930 C   0  0  0  0  0  0  0  0  0  0  0  0
   42.3170   23.1100   36.8160 F   0  0  0  0  0  0  0  0  0  0  0  0
   41.3860   21.4420   37.9700 F   0  0  0  0  0  0  0  0  0  0  0  0
   41.2040   21.5330   35.7270 F   0  0  0  0  0  0  0  0  0  0  0  0
  1  2  1  0  0  0  0
  2  3  2  0  0  0  0
  2  7  1  0  0  0  0
  3  4  1  0  0  0  0
  4  8  1  0  0  0  0
  4  5  2  0  0  0  0
  5  9  1  0  0  0  0
  6  5  1  0  0  0  0
  6 10  1  0  0  0  0
  7  6  2  0  0  0  0
 11 17  1  0  0  0  0
 11 12  1  0  0  0  0
 12 18  1  0  0  0  0
 13 12  2  0  0  0  0
 13  3  1  0  0  0  0
 14 13  1  0  0  0  0
 15 16  1  0  0  0  0
 15 14  2  0  0  0  0
 16 11  2  0  0  0  0
 19 15  1  0  0  0  0
 20  7  1  0  0  0  0
 20 22  1  0  0  0  0
 21 20  1  0  0  0  0
 23 20  1  0  0  0  0
M  END
>  <minimizedAffinity>
-4.97255516

$$$$

 OpenBabel03272503033D

 23 24  0  0  0  0  0  0  0  0999 V2000
   37.0600   23.5800   36.3570 F   0  0  0  0  0  0  0  0  0  0  0  0
   38.3390   23.1140   36.3120 C   0  0  0  0  0  0  0  0  0  0  0  0
   38.8310   22.6260   35.1340 C   0  0  0  0  0  0  0  0  0  0  0  0
   40.1290   22.1700   35.1490 C   0  0  0  0  0  0  0  0  0  0  0  0
   40.9080   22.2020   36.2950 C   0  0  0  0  0  0  0  0  0  0  0  0
   40.3790   22.7020   37.4670 C   0  0  0  0  0  0  0  0  0  0  0  0
   39.0830   23.1590   37.4600 C   0  0  0  0  0  0  0  0  0  0  0  0
   40.5140   21.7810   34.2040 H   0  0  0  0  0  0  0  0  0  0  0  0
   41.9090   21.8330   36.2460 H   0  0  0  0  0  0  0  0  0  0  0  0
   40.9990   22.7240   38.3640 H   0  0  0  0  0  0  0  0  0  0  0  0
   36.3290   21.5590   32.5010 C   0  0  0  0  0  0  0  0  0  0  0  0
   37.1580   21.5480   33.6350 C   0  0  0  0  0  0  0  0  0  0  0  0
   37.9660   22.6180   33.9660 C   0  0  0  0  0  0  0  0  0  0  0  0
   37.9040   23.6800   33.1230 N   0  0  0  0  0  0  0  0  0  0  0  0
   37.1100   23.6940   32.0350 C   0  0  0  0  0  0  0  0  0  0  0  0
   36.3360   22.6550   31.7280 N   0  0  0  0  0  0  0  0  0  0  0  0
   35.6950   20.7150   32.2460 H   0  0  0  0  0  0  0  0  0  0  0  0
   37.1570   20.6510   34.2750 H   0  0  0  0  0  0  0  0  0  0  0  0
   37.1630   24.6040   31.4580 H   0  0  0  0  0  0  0  0  0  0  0  0
   38.4670   23.7110   38.7060 C   0  0  0  0  0  0  0  0  0  0  0  0
   37.9720   24.9630   38.4870 F   0  0  0  0  0  0  0  0  0  0  0  0
   37.4510   22.8740   39.0730 F   0  0  0  0  0  0  0  0  0  0  0  0
   39.3980   23.8010   39.7220 F   0  0  0  0  0  0  0  0  0  0  0  0
  2  1  1  0  0  0  0
  2  7  1  0  0  0  0
  3  4  1  0  0  0  0
  3  2  2  0  0  0  0
  4  5  2  0  0  0  0
  5  6  1  0  0  0  0
  6 10  1  0  0  0  0
  7  6  2  0  0  0  0
  7 20  1  0  0  0  0
  8  4  1  0  0  0  0
  9  5  1  0  0  0  0
 11 12  1  0  0  0  0
 12 13  2  0  0  0  0
 12 18  1  0  0  0  0
 13  3  1  0  0  0  0
 14 13  1  0  0  0  0
 15 14  2  0  0  0  0
 16 15  1  0  0  0  0
 16 11  2  0  0  0  0
 17 11  1  0  0  0  0
 19 15  1  0  0  0  0
 20 22  1  0  0  0  0
 20 23  1  0  0  0  0
 21 20  1  0  0  0  0
M  END
>  <minimizedAffinity>
-4.96344805

$$$$

 OpenBabel03272503033D

 23 24  0  0  0  0  0  0  0  0999 V2000
   38.3150   21.9180   36.4370 F   0  0  0  0  0  0  0  0  0  0  0  0
   38.2320   23.1980   35.9810 C   0  0  0  0  0  0  0  0  0  0  0  0
   38.1900   23.4270   34.6340 C   0  0  0  0  0  0  0  0  0  0  0  0
   38.1060   24.7400   34.2330 C   0  0  0  0  0  0  0  0  0  0  0  0
   38.0640   25.7870   35.1400 C   0  0  0  0  0  0  0  0  0  0  0  0
   38.1070   25.5200   36.4930 C   0  0  0  0  0  0  0  0  0  0  0  0
   38.1920   24.2110   36.9020 C   0  0  0  0  0  0  0  0  0  0  0  0
   38.0740   24.9130   33.1550 H   0  0  0  0  0  0  0  0  0  0  0  0
   37.9990   26.7850   34.7690 H   0  0  0  0  0  0  0  0  0  0  0  0
   38.0740   26.3490   37.2010 H   0  0  0  0  0  0  0  0  0  0  0  0
   39.4450   20.6630   32.3720 C   0  0  0  0  0  0  0  0  0  0  0  0
   39.4200   21.7640   33.2440 C   0  0  0  0  0  0  0  0  0  0  0  0
   38.2380   22.2880   33.7310 C   0  0  0  0  0  0  0  0  0  0  0  0
   37.1060   21.6680   33.3120 N   0  0  0  0  0  0  0  0  0  0  0  0
   37.1280   20.6120   32.4760 C   0  0  0  0  0  0  0  0  0  0  0  0
   38.2740   20.1180   32.0140 N   0  0  0  0  0  0  0  0  0  0  0  0
   40.3770   20.2540   31.9930 H   0  0  0  0  0  0  0  0  0  0  0  0
   40.3780   22.2170   33.5430 H   0  0  0  0  0  0  0  0  0  0  0  0
   36.1530   20.2210   32.2280 H   0  0  0  0  0  0  0  0  0  0  0  0
   38.2420   23.8720   38.3580 C   0  0  0  0  0  0  0  0  0  0  0  0
   39.4540   23.3420   38.6910 F   0  0  0  0  0  0  0  0  0  0  0  0
   38.0390   25.0270   39.0600 F   0  0  0  0  0  0  0  0  0  0  0  0
   37.2740   22.9430   38.6850 F   0  0  0  0  0  0  0  0  0  0  0  0
  2  1  1  0  0  0  0
  2  7  1  0  0  0  0
  3  2  2  0  0  0  0
  4  3  1  0  0  0  0
  4  5  2  0  0  0  0
  5  6  1  0  0  0  0
  6  7  2  0  0  0  0
  6 10  1  0  0  0  0
  7 20  1  0  0  0  0
  8  4  1  0  0  0  0
  9  5  1  0  0  0  0
 11 12  1  0  0  0  0
 12 18  1  0  0  0  0
 12 13  2  0  0  0  0
 13  3  1  0  0  0  0
 14 13  1  0  0  0  0
 15 14  2  0  0  0  0
 16 11  2  0  0  0  0
 16 15  1  0  0  0  0
 17 11  1  0  0  0  0
 19 15  1  0  0  0  0
 20 23  1  0  0  0  0
 20 21  1  0  0  0  0
 20 22  1  0  0  0  0
M  END
>  <minimizedAffinity>
-4.89141273

$$$$

 OpenBabel03272503033D

 23 24  0  0  0  0  0  0  0  0999 V2000
   38.0210   23.4300   34.9550 F   0  0  0  0  0  0  0  0  0  0  0  0
   38.1110   24.7770   35.1280 C   0  0  0  0  0  0  0  0  0  0  0  0
   38.1370   25.5920   34.0310 C   0  0  0  0  0  0  0  0  0  0  0  0
   38.2280   26.9440   34.2680 C   0  0  0  0  0  0  0  0  0  0  0  0
   38.2890   27.4650   35.5510 C   0  0  0  0  0  0  0  0  0  0  0  0
   38.2600   26.6130   36.6360 C   0  0  0  0  0  0  0  0  0  0  0  0
   38.1690   25.2610   36.4080 C   0  0  0  0  0  0  0  0  0  0  0  0
   38.2490   27.5870   33.3860 H   0  0  0  0  0  0  0  0  0  0  0  0
   38.3590   28.5230   35.6730 H   0  0  0  0  0  0  0  0  0  0  0  0
   38.3080   27.0310   37.6420 H   0  0  0  0  0  0  0  0  0  0  0  0
   36.8330   24.1430   30.7860 C   0  0  0  0  0  0  0  0  0  0  0  0
   36.8770   24.7290   32.0620 C   0  0  0  0  0  0  0  0  0  0  0  0
   38.0700   24.9870   32.7110 C   0  0  0  0  0  0  0  0  0  0  0  0
   39.1920   24.6380   32.0330 N   0  0  0  0  0  0  0  0  0  0  0  0
   39.1510   24.0760   30.8090 C   0  0  0  0  0  0  0  0  0  0  0  0
   37.9960   23.8330   30.1960 N   0  0  0  0  0  0  0  0  0  0  0  0
   35.8920   23.9430   30.2800 H   0  0  0  0  0  0  0  0  0  0  0  0
   35.9260   24.9870   32.5530 H   0  0  0  0  0  0  0  0  0  0  0  0
   40.1210   23.8510   30.3910 H   0  0  0  0  0  0  0  0  0  0  0  0
   38.1340   24.2990   37.5520 C   0  0  0  0  0  0  0  0  0  0  0  0
   39.2620   23.5320   37.5750 F   0  0  0  0  0  0  0  0  0  0  0  0
   38.0520   25.0280   38.7050 F   0  0  0  0  0  0  0  0  0  0  0  0
   37.0510   23.4480   37.4520 F   0  0  0  0  0  0  0  0  0  0  0  0
  1  2  1  0  0  0  0
  2  7  1  0  0  0  0
  3  4  1  0  0  0  0
  3  2  2  0  0  0  0
  4  5  2  0  0  0  0
  5  9  1  0  0  0  0
  5  6  1  0  0  0  0
  6 10  1  0  0  0  0
  7  6  2  0  0  0  0
  7 20  1  0  0  0  0
  8  4  1  0  0  0  0
 11 12  1  0  0  0  0
 12 18  1  0  0  0  0
 12 13  2  0  0  0  0
 13  3  1  0  0  0  0
 14 13  1  0  0  0  0
 15 14  2  0  0  0  0
 16 11  2  0  0  0  0
 16 15  1  0  0  0  0
 17 11  1  0  0  0  0
 19 15  1  0  0  0  0
 20 21  1  0  0  0  0
 20 22  1  0  0  0  0
 23 20  1  0  0  0  0
M  END
>  <minimizedAffinity>
-4.84910917

$$$$

 OpenBabel03272503033D

 23 24  0  0  0  0  0  0  0  0999 V2000
   37.1390   25.2490   36.1210 F   0  0  0  0  0  0  0  0  0  0  0  0
   38.2980   24.6390   35.7500 C   0  0  0  0  0  0  0  0  0  0  0  0
   38.7540   24.7920   34.4710 C   0  0  0  0  0  0  0  0  0  0  0  0
   39.9310   24.1530   34.1540 C   0  0  0  0  0  0  0  0  0  0  0  0
   40.6280   23.3920   35.0790 C   0  0  0  0  0  0  0  0  0  0  0  0
   40.1390   23.2590   36.3620 C   0  0  0  0  0  0  0  0  0  0  0  0
   38.9640   23.8930   36.6860 C   0  0  0  0  0  0  0  0  0  0  0  0
   40.2870   24.2800   33.1300 H   0  0  0  0  0  0  0  0  0  0  0  0
   41.5350   22.9190   34.7750 H   0  0  0  0  0  0  0  0  0  0  0  0
   40.6930   22.6580   37.0840 H   0  0  0  0  0  0  0  0  0  0  0  0
   37.3560   27.7420   32.5550 C   0  0  0  0  0  0  0  0  0  0  0  0
   38.1140   26.9750   33.4550 C   0  0  0  0  0  0  0  0  0  0  0  0
   37.9790   25.6030   33.5460 C   0  0  0  0  0  0  0  0  0  0  0  0
   37.0670   25.0470   32.7080 N   0  0  0  0  0  0  0  0  0  0  0  0
   36.3390   25.7810   31.8440 C   0  0  0  0  0  0  0  0  0  0  0  0
   36.4790   27.1020   31.7670 N   0  0  0  0  0  0  0  0  0  0  0  0
   37.4660   28.8200   32.4860 H   0  0  0  0  0  0  0  0  0  0  0  0
   38.8360   27.4930   34.1040 H   0  0  0  0  0  0  0  0  0  0  0  0
   35.6540   25.2050   31.2410 H   0  0  0  0  0  0  0  0  0  0  0  0
   38.3950   23.7790   38.0650 C   0  0  0  0  0  0  0  0  0  0  0  0
   37.2630   23.0170   38.0600 F   0  0  0  0  0  0  0  0  0  0  0  0
   39.3400   23.1900   38.8570 F   0  0  0  0  0  0  0  0  0  0  0  0
   38.0610   25.0210   38.5680 F   0  0  0  0  0  0  0  0  0  0  0  0
  2  1  1  0  0  0  0
  2  7  1  0  0  0  0
  3  2  2  0  0  0  0
  4  3  1  0  0  0  0
  4  5  2  0  0  0  0
  5  6  1  0  0  0  0
  6  7  2  0  0  0  0
  6 10  1  0  0  0  0
  7 20  1  0  0  0  0
  8  4  1  0  0  0  0
  9  5  1  0  0  0  0
 11 12  1  0  0  0  0
 12 13  2  0  0  0  0
 12 18  1  0  0  0  0
 13  3  1  0  0  0  0
 14 13  1  0  0  0  0
 15 14  2  0  0  0  0
 16 15  1  0  0  0  0
 16 11  2  0  0  0  0
 17 11  1  0  0  0  0
 19 15  1  0  0  0  0
 20 23  1  0  0  0  0
 20 22  1  0  0  0  0
 21 20  1  0  0  0  0
M  END
>  <minimizedAffinity>
-4.80371714

$$$$

 OpenBabel03272503033D

 23 24  0  0  0  0  0  0  0  0999 V2000
   37.6080   24.1210   33.4670 F   0  0  0  0  0  0  0  0  0  0  0  0
   37.4660   25.4130   33.8720 C   0  0  0  0  0  0  0  0  0  0  0  0
   37.9090   25.7780   35.1130 C   0  0  0  0  0  0  0  0  0  0  0  0
   37.7380   27.0960   35.4670 C   0  0  0  0  0  0  0  0  0  0  0  0
   37.1490   28.0170   34.6160 C   0  0  0  0  0  0  0  0  0  0  0  0
   36.7130   27.6150   33.3700 C   0  0  0  0  0  0  0  0  0  0  0  0
   36.8790   26.3000   33.0090 C   0  0  0  0  0  0  0  0  0  0  0  0
   38.0950   27.3780   36.4590 H   0  0  0  0  0  0  0  0  0  0  0  0
   37.0430   29.0270   34.9460 H   0  0  0  0  0  0  0  0  0  0  0  0
   36.2500   28.3460   32.7060 H   0  0  0  0  0  0  0  0  0  0  0  0
   38.5660   23.3690   37.9590 C   0  0  0  0  0  0  0  0  0  0  0  0
   37.9600   24.3480   37.1530 C   0  0  0  0  0  0  0  0  0  0  0  0
   38.5190   24.7660   35.9600 C   0  0  0  0  0  0  0  0  0  0  0  0
   39.6900   24.1690   35.6210 N   0  0  0  0  0  0  0  0  0  0  0  0
   40.2720   23.2300   36.3920 C   0  0  0  0  0  0  0  0  0  0  0  0
   39.7220   22.8370   37.5390 N   0  0  0  0  0  0  0  0  0  0  0  0
   38.1220   23.0430   38.8950 H   0  0  0  0  0  0  0  0  0  0  0  0
   37.0110   24.7900   37.4910 H   0  0  0  0  0  0  0  0  0  0  0  0
   41.1980   22.8430   35.9970 H   0  0  0  0  0  0  0  0  0  0  0  0
   36.4230   25.8170   31.6680 C   0  0  0  0  0  0  0  0  0  0  0  0
   35.4740   24.8450   31.8010 F   0  0  0  0  0  0  0  0  0  0  0  0
   35.8940   26.8850   31.0010 F   0  0  0  0  0  0  0  0  0  0  0  0
   37.4730   25.2810   30.9500 F   0  0  0  0  0  0  0  0  0  0  0  0
  1  2  1  0  0  0  0
  2  3  1  0  0  0  0
  3  4  2  0  0  0  0
  3 13  1  0  0  0  0
  4  8  1  0  0  0  0
  5  9  1  0  0  0  0
  5  4  1  0  0  0  0
  6  5  2  0  0  0  0
  7  6  1  0  0  0  0
  7  2  2  0  0  0  0
 10  6  1  0  0  0  0
 11 17  1  0  0  0  0
 12 18  1  0  0  0  0
 12 11  2  0  0  0  0
 13 12  1  0  0  0  0
 14 13  2  0  0  0  0
 14 15  1  0  0  0  0
 15 16  2  0  0  0  0
 16 11  1  0  0  0  0
 19 15  1  0  0  0  0
 20 21  1  0  0  0  0
 20  7  1  0  0  0  0
 22 20  1  0  0  0  0
 23 20  1  0  0  0  0
M  END
>  <minimizedAffinity>
-4.7409215

$$$$

 OpenBabel03272503033D

 23 24  0  0  0  0  0  0  0  0999 V2000
   37.6010   24.0990   33.3730 F   0  0  0  0  0  0  0  0  0  0  0  0
   37.4610   25.3860   33.7920 C   0  0  0  0  0  0  0  0  0  0  0  0
   37.9270   25.7420   35.0270 C   0  0  0  0  0  0  0  0  0  0  0  0
   37.7570   27.0570   35.3950 C   0  0  0  0  0  0  0  0  0  0  0  0
   37.1470   27.9830   34.5640 C   0  0  0  0  0  0  0  0  0  0  0  0
   36.6880   27.5890   33.3240 C   0  0  0  0  0  0  0  0  0  0  0  0
   36.8530   26.2770   32.9480 C   0  0  0  0  0  0  0  0  0  0  0  0
   38.1330   27.3320   36.3830 H   0  0  0  0  0  0  0  0  0  0  0  0
   37.0430   28.9890   34.9050 H   0  0  0  0  0  0  0  0  0  0  0  0
   36.2090   28.3240   32.6760 H   0  0  0  0  0  0  0  0  0  0  0  0
   40.3940   23.2110   36.3810 C   0  0  0  0  0  0  0  0  0  0  0  0
   39.8010   24.1920   35.5700 C   0  0  0  0  0  0  0  0  0  0  0  0
   38.5590   24.7270   35.8540 C   0  0  0  0  0  0  0  0  0  0  0  0
   37.9530   24.2420   36.9670 N   0  0  0  0  0  0  0  0  0  0  0  0
   38.5210   23.3010   37.7470 C   0  0  0  0  0  0  0  0  0  0  0  0
   39.7170   22.7940   37.4610 N   0  0  0  0  0  0  0  0  0  0  0  0
   41.3710   22.7940   36.1540 H   0  0  0  0  0  0  0  0  0  0  0  0
   40.3500   24.5390   34.6810 H   0  0  0  0  0  0  0  0  0  0  0  0
   37.9240   23.0110   38.5980 H   0  0  0  0  0  0  0  0  0  0  0  0
   36.3730   25.8040   31.6130 C   0  0  0  0  0  0  0  0  0  0  0  0
   35.7790   26.8210   30.9240 F   0  0  0  0  0  0  0  0  0  0  0  0
   37.4580   25.3520   30.9170 F   0  0  0  0  0  0  0  0  0  0  0  0
   35.4430   24.7930   31.7500 F   0  0  0  0  0  0  0  0  0  0  0  0
  1  2  1  0  0  0  0
  2  3  1  0  0  0  0
  3  4  2  0  0  0  0
  3 13  1  0  0  0  0
  4  8  1  0  0  0  0
  5  9  1  0  0  0  0
  5  4  1  0  0  0  0
  6  5  2  0  0  0  0
  7  6  1  0  0  0  0
  7  2  2  0  0  0  0
 10  6  1  0  0  0  0
 11 16  1  0  0  0  0
 12 13  1  0  0  0  0
 12 11  2  0  0  0  0
 13 14  2  0  0  0  0
 14 15  1  0  0  0  0
 15 19  1  0  0  0  0
 16 15  2  0  0  0  0
 17 11  1  0  0  0  0
 18 12  1  0  0  0  0
 20 23  1  0  0  0  0
 20  7  1  0  0  0  0
 21 20  1  0  0  0  0
 22 20  1  0  0  0  0
M  END
>  <minimizedAffinity>
-4.65011835

$$$$

 OpenBabel03272503033D

 23 24  0  0  0  0  0  0  0  0999 V2000
   33.0760   29.4160   34.6430 F   0  0  0  0  0  0  0  0  0  0  0  0
   33.8490   30.3490   35.2630 C   0  0  0  0  0  0  0  0  0  0  0  0
   35.1810   30.4200   34.9640 C   0  0  0  0  0  0  0  0  0  0  0  0
   35.9110   31.3830   35.6210 C   0  0  0  0  0  0  0  0  0  0  0  0
   35.3350   32.2460   36.5400 C   0  0  0  0  0  0  0  0  0  0  0  0
   33.9860   32.1470   36.8180 C   0  0  0  0  0  0  0  0  0  0  0  0
   33.2500   31.1870   36.1660 C   0  0  0  0  0  0  0  0  0  0  0  0
   36.9740   31.4320   35.3770 H   0  0  0  0  0  0  0  0  0  0  0  0
   35.9520   32.9730   37.0190 H   0  0  0  0  0  0  0  0  0  0  0  0
   33.5410   32.8300   37.5420 H   0  0  0  0  0  0  0  0  0  0  0  0
   36.8830   27.4260   33.3940 C   0  0  0  0  0  0  0  0  0  0  0  0
   36.3610   28.3130   34.3490 C   0  0  0  0  0  0  0  0  0  0  0  0
   35.7280   29.4890   33.9910 C   0  0  0  0  0  0  0  0  0  0  0  0
   35.6460   29.7270   32.6580 N   0  0  0  0  0  0  0  0  0  0  0  0
   36.1460   28.8770   31.7400 C   0  0  0  0  0  0  0  0  0  0  0  0
   36.7530   27.7480   32.0990 N   0  0  0  0  0  0  0  0  0  0  0  0
   37.3790   26.5030   33.6800 H   0  0  0  0  0  0  0  0  0  0  0  0
   36.4640   28.0560   35.4140 H   0  0  0  0  0  0  0  0  0  0  0  0
   36.0080   29.1950   30.7180 H   0  0  0  0  0  0  0  0  0  0  0  0
   31.7860   31.0420   36.4330 C   0  0  0  0  0  0  0  0  0  0  0  0
   31.5290   29.8850   37.1080 F   0  0  0  0  0  0  0  0  0  0  0  0
   31.3940   32.1110   37.1900 F   0  0  0  0  0  0  0  0  0  0  0  0
   31.0670   31.0080   35.2550 F   0  0  0  0  0  0  0  0  0  0  0  0
  1  2  1  0  0  0  0
  2  7  1  0  0  0  0
  3  2  2  0  0  0  0
  3  4  1  0  0  0  0
  4  5  2  0  0  0  0
  5  6  1  0  0  0  0
  5  9  1  0  0  0  0
  6 10  1  0  0  0  0
  7 20  1  0  0  0  0
  7  6  2  0  0  0  0
  8  4  1  0  0  0  0
 11 17  1  0  0  0  0
 11 12  1  0  0  0  0
 12 18  1  0  0  0  0
 13 12  2  0  0  0  0
 13  3  1  0  0  0  0
 14 13  1  0  0  0  0
 15 16  1  0  0  0  0
 15 14  2  0  0  0  0
 16 11  2  0  0  0  0
 19 15  1  0  0  0  0
 20 21  1  0  0  0  0
 20 22  1  0  0  0  0
 23 20  1  0  0  0  0
M  END
>  <minimizedAffinity>
-4.61157894

$$$$

 OpenBabel03272503033D

 23 24  0  0  0  0  0  0  0  0999 V2000
   37.5780   23.4340   33.3200 F   0  0  0  0  0  0  0  0  0  0  0  0
   36.8150   24.2280   32.5190 C   0  0  0  0  0  0  0  0  0  0  0  0
   36.8980   25.5860   32.6510 C   0  0  0  0  0  0  0  0  0  0  0  0
   36.1050   26.3370   31.8140 C   0  0  0  0  0  0  0  0  0  0  0  0
   35.2620   25.7570   30.8800 C   0  0  0  0  0  0  0  0  0  0  0  0
   35.2030   24.3820   30.7740 C   0  0  0  0  0  0  0  0  0  0  0  0
   35.9920   23.6250   31.6060 C   0  0  0  0  0  0  0  0  0  0  0  0
   36.1770   27.4210   31.9270 H   0  0  0  0  0  0  0  0  0  0  0  0
   34.6690   26.3910   30.2590 H   0  0  0  0  0  0  0  0  0  0  0  0
   34.5370   23.9330   30.0360 H   0  0  0  0  0  0  0  0  0  0  0  0
   39.9770   26.9810   34.3560 C   0  0  0  0  0  0  0  0  0  0  0  0
   39.1190   26.4500   33.3780 C   0  0  0  0  0  0  0  0  0  0  0  0
   37.8010   26.1370   33.6480 C   0  0  0  0  0  0  0  0  0  0  0  0
   37.3910   26.3780   34.9200 N   0  0  0  0  0  0  0  0  0  0  0  0
   38.2120   26.8870   35.8590 C   0  0  0  0  0  0  0  0  0  0  0  0
   39.4800   27.1840   35.5850 N   0  0  0  0  0  0  0  0  0  0  0  0
   41.0120   27.2250   34.1380 H   0  0  0  0  0  0  0  0  0  0  0  0
   39.5200   26.2800   32.3670 H   0  0  0  0  0  0  0  0  0  0  0  0
   37.7490   27.0260   36.8240 H   0  0  0  0  0  0  0  0  0  0  0  0
   35.9630   22.1310   31.5270 C   0  0  0  0  0  0  0  0  0  0  0  0
   37.2040   21.6380   31.2470 F   0  0  0  0  0  0  0  0  0  0  0  0
   35.5460   21.6590   32.7400 F   0  0  0  0  0  0  0  0  0  0  0  0
   35.1080   21.7030   30.5320 F   0  0  0  0  0  0  0  0  0  0  0  0
  2  3  1  0  0  0  0
  2  1  1  0  0  0  0
  3 13  1  0  0  0  0
  4  8  1  0  0  0  0
  4  3  2  0  0  0  0
  5  4  1  0  0  0  0
  6  5  2  0  0  0  0
  6  7  1  0  0  0  0
  7  2  2  0  0  0  0
  9  5  1  0  0  0  0
 10  6  1  0  0  0  0
 11 16  1  0  0  0  0
 12 13  1  0  0  0  0
 12 11  2  0  0  0  0
 13 14  2  0  0  0  0
 14 15  1  0  0  0  0
 15 19  1  0  0  0  0
 16 15  2  0  0  0  0
 17 11  1  0  0  0  0
 18 12  1  0  0  0  0
 20  7  1  0  0  0  0
 20 22  1  0  0  0  0
 21 20  1  0  0  0  0
 23 20  1  0  0  0  0
M  END
>  <minimizedAffinity>
-4.5272789

$$$$
