
 OpenBabel03272510233D

 26 28  0  0  0  0  0  0  0  0999 V2000
   35.8410   30.1300   46.7760 C   0  0  0  0  0  0  0  0  0  0  0  0
   36.4590   30.5650   47.9240 C   0  0  0  0  0  0  0  0  0  0  0  0
   37.5360   31.4200   47.8570 C   0  0  0  0  0  0  0  0  0  0  0  0
   37.9600   31.8160   46.6020 C   0  0  0  0  0  0  0  0  0  0  0  0
   38.9960   32.6510   46.2840 N   0  0  0  0  0  0  0  0  0  0  0  0
   39.0310   32.7440   44.9480 C   0  0  0  0  0  0  0  0  0  0  0  0
   38.0570   31.9970   44.3970 N   0  0  0  0  0  0  0  0  0  0  0  0
   37.3710   31.4070   45.4110 C   0  0  0  0  0  0  0  0  0  0  0  0
   36.2920   30.5480   45.5160 C   0  0  0  0  0  0  0  0  0  0  0  0
   34.9950   29.4620   46.7550 H   0  0  0  0  0  0  0  0  0  0  0  0
   38.0140   31.7560   48.7550 H   0  0  0  0  0  0  0  0  0  0  0  0
   39.6500   33.1360   46.9590 H   0  0  0  0  0  0  0  0  0  0  0  0
   35.8080   30.2090   44.5940 H   0  0  0  0  0  0  0  0  0  0  0  0
   36.0710   29.3740   51.4800 C   0  0  0  0  0  0  0  0  0  0  0  0
   36.6700   29.8460   50.3170 C   0  0  0  0  0  0  0  0  0  0  0  0
   35.9110   30.0710   49.1830 C   0  0  0  0  0  0  0  0  0  0  0  0
   34.5700   29.8180   49.2410 N   0  0  0  0  0  0  0  0  0  0  0  0
   34.0110   29.3520   50.4030 C   0  0  0  0  0  0  0  0  0  0  0  0
   34.7460   29.1370   51.4910 N   0  0  0  0  0  0  0  0  0  0  0  0
   36.6900   29.2110   52.3390 H   0  0  0  0  0  0  0  0  0  0  0  0
   37.7160   30.0390   50.2890 H   0  0  0  0  0  0  0  0  0  0  0  0
   32.9400   29.1850   50.3340 H   0  0  0  0  0  0  0  0  0  0  0  0
   40.0400   33.5760   44.2260 C   0  0  0  0  0  0  0  0  0  0  0  0
   39.7830   33.7080   42.8920 F   0  0  0  0  0  0  0  0  0  0  0  0
   41.3020   33.0110   44.3910 F   0  0  0  0  0  0  0  0  0  0  0  0
   40.1220   34.8400   44.7800 F   0  0  0  0  0  0  0  0  0  0  0  0
  1  2  1  0  0  0  0
  2 16  1  0  0  0  0
  3  2  2  0  0  0  0
  3 11  1  0  0  0  0
  4  3  1  0  0  0  0
  5  4  1  0  0  0  0
  5 12  1  0  0  0  0
  6  5  1  0  0  0  0
  7  6  2  0  0  0  0
  7  8  1  0  0  0  0
  8  9  1  0  0  0  0
  8  4  2  0  0  0  0
  9  1  2  0  0  0  0
 10  1  1  0  0  0  0
 13  9  1  0  0  0  0
 14 19  1  0  0  0  0
 14 20  1  0  0  0  0
 15 14  2  0  0  0  0
 16 17  2  0  0  0  0
 16 15  1  0  0  0  0
 17 18  1  0  0  0  0
 18 19  2  0  0  0  0
 21 15  1  0  0  0  0
 22 18  1  0  0  0  0
 23 25  1  0  0  0  0
 23 26  1  0  0  0  0
 23  6  1  0  0  0  0
 24 23  1  0  0  0  0
M  END
>  <minimizedAffinity>
-5.16598558

>  <minimizedRMSD>
1.38466263

$$$$
