
 OpenBabel03272509503D

 28 29  0  0  0  0  0  0  0  0999 V2000
   33.7060   28.5960   48.6900 C   0  0  0  0  0  0  0  0  0  0  0  0
   33.0620   29.4340   49.0840 H   0  0  0  0  0  0  0  0  0  0  0  0
   34.2410   28.9980   47.8230 H   0  0  0  0  0  0  0  0  0  0  0  0
   32.7850   27.4500   48.3760 C   0  0  0  0  0  0  0  0  0  0  0  0
   32.9270   26.6450   49.1430 H   0  0  0  0  0  0  0  0  0  0  0  0
   33.0990   26.9590   47.4110 H   0  0  0  0  0  0  0  0  0  0  0  0
   31.3580   27.8520   48.3670 C   0  0  0  0  0  0  0  0  0  0  0  0
   30.6640   27.7350   49.5470 C   0  0  0  0  0  0  0  0  0  0  0  0
   29.3400   28.0740   49.6690 C   0  0  0  0  0  0  0  0  0  0  0  0
   28.6850   28.5410   48.5980 N   0  0  0  0  0  0  0  0  0  0  0  0
   29.3670   28.6570   47.4400 C   0  0  0  0  0  0  0  0  0  0  0  0
   30.6660   28.3270   47.3080 N   0  0  0  0  0  0  0  0  0  0  0  0
   31.1430   27.3600   50.4570 H   0  0  0  0  0  0  0  0  0  0  0  0
   28.7760   27.9840   50.6090 H   0  0  0  0  0  0  0  0  0  0  0  0
   28.8760   29.0280   46.5550 H   0  0  0  0  0  0  0  0  0  0  0  0
   34.5740   28.2410   49.7540 O   0  0  0  0  0  0  0  0  0  0  0  0
   37.1800   30.1680   51.3690 C   0  0  0  0  0  0  0  0  0  0  0  0
   37.7150   30.8460   50.2660 C   0  0  0  0  0  0  0  0  0  0  0  0
   37.1350   30.5910   49.0240 C   0  0  0  0  0  0  0  0  0  0  0  0
   36.0960   29.7090   48.9640 N   0  0  0  0  0  0  0  0  0  0  0  0
   35.6170   29.0820   50.0450 C   0  0  0  0  0  0  0  0  0  0  0  0
   36.1660   29.3190   51.2470 N   0  0  0  0  0  0  0  0  0  0  0  0
   37.6530   30.3870   52.3200 H   0  0  0  0  0  0  0  0  0  0  0  0
   38.5400   31.5400   50.3460 H   0  0  0  0  0  0  0  0  0  0  0  0
   37.6370   31.2700   47.7780 C   0  0  0  0  0  0  0  0  0  0  0  0
   38.7970   30.5700   47.4210 F   0  0  0  0  0  0  0  0  0  0  0  0
   36.6780   31.1840   46.7750 F   0  0  0  0  0  0  0  0  0  0  0  0
   37.8910   32.5730   48.0900 F   0  0  0  0  0  0  0  0  0  0  0  0
  1  2  1  0  0  0  0
  1 16  1  0  0  0  0
  3  1  1  0  0  0  0
  4  1  1  0  0  0  0
  4  5  1  0  0  0  0
  6  4  1  0  0  0  0
  7  4  1  0  0  0  0
  7  8  1  0  0  0  0
  8  9  2  0  0  0  0
  8 13  1  0  0  0  0
  9 14  1  0  0  0  0
 10  9  1  0  0  0  0
 11 10  2  0  0  0  0
 12 11  1  0  0  0  0
 12  7  2  0  0  0  0
 15 11  1  0  0  0  0
 16 21  1  0  0  0  0
 17 23  1  0  0  0  0
 18 24  1  0  0  0  0
 18 17  2  0  0  0  0
 19 18  1  0  0  0  0
 20 19  2  0  0  0  0
 20 21  1  0  0  0  0
 21 22  2  0  0  0  0
 22 17  1  0  0  0  0
 25 28  1  0  0  0  0
 25 19  1  0  0  0  0
 26 25  1  0  0  0  0
 27 25  1  0  0  0  0
M  END
>  <minimizedAffinity>
-5.16196632

>  <minimizedRMSD>
0.435873598

$$$$
