
 OpenBabel03272510333D

 23 24  0  0  0  0  0  0  0  0999 V2000
   36.1590   30.1310   48.4440 C   0  0  0  0  0  0  0  0  0  0  0  0
   35.1360   29.9410   47.5310 C   0  0  0  0  0  0  0  0  0  0  0  0
   34.0250   29.1860   47.8530 C   0  0  0  0  0  0  0  0  0  0  0  0
   33.9670   28.6240   49.1220 C   0  0  0  0  0  0  0  0  0  0  0  0
   34.9760   28.8020   50.0430 C   0  0  0  0  0  0  0  0  0  0  0  0
   36.0930   29.5700   49.7000 C   0  0  0  0  0  0  0  0  0  0  0  0
   35.1880   30.3830   46.5440 H   0  0  0  0  0  0  0  0  0  0  0  0
   33.2120   29.0130   47.1800 H   0  0  0  0  0  0  0  0  0  0  0  0
   33.1260   28.0200   49.4390 H   0  0  0  0  0  0  0  0  0  0  0  0
   34.9020   28.3520   51.0210 H   0  0  0  0  0  0  0  0  0  0  0  0
   38.4710   32.9270   48.2340 C   0  0  0  0  0  0  0  0  0  0  0  0
   39.3860   32.5660   47.2480 C   0  0  0  0  0  0  0  0  0  0  0  0
   39.1900   31.3150   46.6410 C   0  0  0  0  0  0  0  0  0  0  0  0
   38.1470   30.5410   47.0380 N   0  0  0  0  0  0  0  0  0  0  0  0
   37.2810   30.9370   48.0070 C   0  0  0  0  0  0  0  0  0  0  0  0
   37.4660   32.1310   48.5860 N   0  0  0  0  0  0  0  0  0  0  0  0
   38.5770   33.8900   48.7370 H   0  0  0  0  0  0  0  0  0  0  0  0
   40.2040   33.2050   46.9550 H   0  0  0  0  0  0  0  0  0  0  0  0
   39.8700   30.9690   45.8590 H   0  0  0  0  0  0  0  0  0  0  0  0
   37.1580   29.7530   50.6980 C   0  0  0  0  0  0  0  0  0  0  0  0
   36.9810   28.9590   51.8030 F   0  0  0  0  0  0  0  0  0  0  0  0
   38.3810   29.6060   50.0830 F   0  0  0  0  0  0  0  0  0  0  0  0
   37.1400   31.0670   51.2000 F   0  0  0  0  0  0  0  0  0  0  0  0
  1  6  1  0  0  0  0
  2  3  1  0  0  0  0
  2  1  2  0  0  0  0
  3  4  2  0  0  0  0
  4  9  1  0  0  0  0
  4  5  1  0  0  0  0
  5 10  1  0  0  0  0
  6  5  2  0  0  0  0
  6 20  1  0  0  0  0
  7  2  1  0  0  0  0
  8  3  1  0  0  0  0
 11 16  1  0  0  0  0
 11 17  1  0  0  0  0
 12 11  2  0  0  0  0
 13 14  2  0  0  0  0
 13 12  1  0  0  0  0
 14 15  1  0  0  0  0
 15  1  1  0  0  0  0
 15 16  2  0  0  0  0
 18 12  1  0  0  0  0
 19 13  1  0  0  0  0
 20 23  1  0  0  0  0
 20 21  1  0  0  0  0
 22 20  1  0  0  0  0
M  END
>  <minimizedAffinity>
-5.90234661

>  <minimizedRMSD>
0.793123186

$$$$
