
 OpenBabel03272503353D

 36 38  0  0  1  0  0  0  0  0999 V2000
   36.1720   29.0630   32.0530 C   0  0  0  0  0  0  0  0  0  0  0  0
   36.3410   29.3500   30.6960 C   0  0  0  0  0  0  0  0  0  0  0  0
   37.0130   28.3970   29.9270 C   0  0  0  0  0  0  0  0  0  0  0  0
   37.4540   27.2580   30.5590 N   0  0  0  0  0  0  0  0  0  0  0  0
   37.2690   27.0280   31.8530 C   0  0  0  0  0  0  0  0  0  0  0  0
   36.6210   27.9390   32.6140 N   0  0  0  0  0  0  0  0  0  0  0  0
   35.9800   30.2580   30.2350 H   0  0  0  0  0  0  0  0  0  0  0  0
   37.1900   28.5300   28.8840 H   0  0  0  0  0  0  0  0  0  0  0  0
   35.4780   30.0490   32.8420 N   0  0  0  0  0  0  0  0  0  0  0  0
   35.0750   29.9390   34.2080 C   0  0  0  0  0  0  0  0  0  0  0  0
   35.0840   31.3960   34.6690 C   0  0  2  0  0  0  0  0  0  0  0  0
   35.6230   32.2120   33.4960 C   0  0  0  0  0  0  0  0  0  0  0  0
   35.0540   31.3660   32.3780 C   0  0  0  0  0  0  0  0  0  0  0  0
   35.8500   29.4310   34.8270 H   0  0  0  0  0  0  0  0  0  0  0  0
   34.1000   29.4590   34.3630 H   0  0  0  0  0  0  0  0  0  0  0  0
   34.0140   31.6780   34.7920 H   0  0  0  0  0  0  0  0  0  0  0  0
   35.1210   33.2210   33.5030 H   0  0  0  0  0  0  0  0  0  0  0  0
   36.7120   32.2630   33.4830 H   0  0  0  0  0  0  0  0  0  0  0  0
   35.4880   31.5730   31.4000 H   0  0  0  0  0  0  0  0  0  0  0  0
   33.9530   31.4320   32.4130 H   0  0  0  0  0  0  0  0  0  0  0  0
   35.9000   31.5930   35.9200 C   0  0  0  0  0  0  0  0  0  0  0  0
   36.7370   32.6630   35.6830 F   0  0  0  0  0  0  0  0  0  0  0  0
   36.7160   30.4910   36.0580 F   0  0  0  0  0  0  0  0  0  0  0  0
   35.1310   31.7760   37.0390 F   0  0  0  0  0  0  0  0  0  0  0  0
   37.8610   25.5380   32.6190 S   0  0  0  0  0  0  0  0  0  0  0  0
   37.9770   25.5070   34.2940 C   0  0  0  0  0  0  0  0  0  0  0  0
   38.0020   26.3510   35.3610 C   0  0  0  0  0  0  0  0  0  0  0  0
   38.1180   25.9750   36.6830 C   0  0  0  0  0  0  0  0  0  0  0  0
   38.2150   24.5020   36.8300 C   0  0  0  0  0  0  0  0  0  0  0  0
   38.1340   23.8410   35.1300 S   0  0  0  0  0  0  0  0  0  0  0  0
   37.9180   27.3830   35.0520 H   0  0  0  0  0  0  0  0  0  0  0  0
   38.1370   26.6550   37.5060 H   0  0  0  0  0  0  0  0  0  0  0  0
   38.3450   23.8850   38.1310 C   0  0  0  0  0  0  0  0  0  0  0  0
   38.1010   24.8900   39.0770 F   0  0  0  0  0  0  0  0  0  0  0  0
   37.3500   22.9510   38.3500 F   0  0  0  0  0  0  0  0  0  0  0  0
   39.5520   23.2620   38.3810 F   0  0  0  0  0  0  0  0  0  0  0  0
  1  6  1  0  0  0  0
  1  9  1  0  0  0  0
  2  1  2  0  0  0  0
  3  4  2  0  0  0  0
  3  2  1  0  0  0  0
  4  5  1  0  0  0  0
  5  6  2  0  0  0  0
  5 25  1  0  0  0  0
  7  2  1  0  0  0  0
  8  3  1  0  0  0  0
  9 10  1  0  0  0  0
 10 15  1  0  0  0  0
 10 11  1  0  0  0  0
 10 14  1  0  0  0  0
 11 16  1  1  0  0  0
 11 21  1  0  0  0  0
 12 17  1  0  0  0  0
 12 11  1  0  0  0  0
 13 20  1  0  0  0  0
 13  9  1  0  0  0  0
 13 12  1  0  0  0  0
 18 12  1  0  0  0  0
 19 13  1  0  0  0  0
 21 23  1  0  0  0  0
 21 24  1  0  0  0  0
 22 21  1  0  0  0  0
 25 26  1  0  0  0  0
 26 30  1  0  0  0  0
 26 27  2  0  0  0  0
 27 28  1  0  0  0  0
 28 29  2  0  0  0  0
 28 32  1  0  0  0  0
 29 33  1  0  0  0  0
 30 29  1  0  0  0  0
 31 27  1  0  0  0  0
 33 35  1  0  0  0  0
 33 36  1  0  0  0  0
 33 34  1  0  0  0  0
M  END
>  <minimizedAffinity>
-6.36512423

$$$$

 OpenBabel03272503353D

 36 38  0  0  1  0  0  0  0  0999 V2000
   36.0690   27.9260   32.4290 C   0  0  0  0  0  0  0  0  0  0  0  0
   35.4130   27.2250   31.4140 C   0  0  0  0  0  0  0  0  0  0  0  0
   36.0220   26.0520   30.9610 C   0  0  0  0  0  0  0  0  0  0  0  0
   37.2110   25.6800   31.5440 N   0  0  0  0  0  0  0  0  0  0  0  0
   37.7970   26.3800   32.5070 C   0  0  0  0  0  0  0  0  0  0  0  0
   37.2240   27.5180   32.9590 N   0  0  0  0  0  0  0  0  0  0  0  0
   34.4780   27.5490   30.9800 H   0  0  0  0  0  0  0  0  0  0  0  0
   35.5960   25.4520   30.1900 H   0  0  0  0  0  0  0  0  0  0  0  0
   35.4360   29.1360   32.8930 N   0  0  0  0  0  0  0  0  0  0  0  0
   34.9430   29.4060   34.2060 C   0  0  0  0  0  0  0  0  0  0  0  0
   35.0780   30.9260   34.2980 C   0  0  2  0  0  0  0  0  0  0  0  0
   35.7700   31.3720   33.0120 C   0  0  0  0  0  0  0  0  0  0  0  0
   35.1830   30.3260   32.0890 C   0  0  0  0  0  0  0  0  0  0  0  0
   35.6210   29.0030   34.9920 H   0  0  0  0  0  0  0  0  0  0  0  0
   33.9150   29.0680   34.3900 H   0  0  0  0  0  0  0  0  0  0  0  0
   34.0380   31.3220   34.2580 H   0  0  0  0  0  0  0  0  0  0  0  0
   35.3780   32.3900   32.7310 H   0  0  0  0  0  0  0  0  0  0  0  0
   36.8570   31.3230   33.0790 H   0  0  0  0  0  0  0  0  0  0  0  0
   35.6950   30.2430   31.1300 H   0  0  0  0  0  0  0  0  0  0  0  0
   34.0950   30.4950   32.0140 H   0  0  0  0  0  0  0  0  0  0  0  0
   35.8340   31.3570   35.5280 C   0  0  0  0  0  0  0  0  0  0  0  0
   34.8900   31.6790   36.4800 F   0  0  0  0  0  0  0  0  0  0  0  0
   36.4860   32.5310   35.2220 F   0  0  0  0  0  0  0  0  0  0  0  0
   36.7160   30.4080   35.9760 F   0  0  0  0  0  0  0  0  0  0  0  0
   39.3350   25.8530   33.2250 S   0  0  0  0  0  0  0  0  0  0  0  0
   39.2720   24.9350   34.6310 C   0  0  0  0  0  0  0  0  0  0  0  0
   39.7570   23.7740   35.1490 C   0  0  0  0  0  0  0  0  0  0  0  0
   39.4900   23.2830   36.4100 C   0  0  0  0  0  0  0  0  0  0  0  0
   38.5880   24.1820   37.1730 C   0  0  0  0  0  0  0  0  0  0  0  0
   38.2340   25.5760   36.0490 S   0  0  0  0  0  0  0  0  0  0  0  0
   40.3950   23.2610   34.4450 H   0  0  0  0  0  0  0  0  0  0  0  0
   39.8810   22.3680   36.7980 H   0  0  0  0  0  0  0  0  0  0  0  0
   38.1750   23.8610   38.5200 C   0  0  0  0  0  0  0  0  0  0  0  0
   39.3430   23.5930   39.2450 F   0  0  0  0  0  0  0  0  0  0  0  0
   37.6170   24.9570   39.1520 F   0  0  0  0  0  0  0  0  0  0  0  0
   37.2760   22.8200   38.6390 F   0  0  0  0  0  0  0  0  0  0  0  0
  1  9  1  0  0  0  0
  1  6  1  0  0  0  0
  2  1  2  0  0  0  0
  3  2  1  0  0  0  0
  3  4  2  0  0  0  0
  4  5  1  0  0  0  0
  5  6  2  0  0  0  0
  5 25  1  0  0  0  0
  7  2  1  0  0  0  0
  8  3  1  0  0  0  0
  9 10  1  0  0  0  0
 10 11  1  0  0  0  0
 10 15  1  0  0  0  0
 10 14  1  0  0  0  0
 11 16  1  1  0  0  0
 11 21  1  0  0  0  0
 12 18  1  0  0  0  0
 12 11  1  0  0  0  0
 13  9  1  0  0  0  0
 13 12  1  0  0  0  0
 17 12  1  0  0  0  0
 19 13  1  0  0  0  0
 20 13  1  0  0  0  0
 21 24  1  0  0  0  0
 21 22  1  0  0  0  0
 23 21  1  0  0  0  0
 25 26  1  0  0  0  0
 26 27  2  0  0  0  0
 26 30  1  0  0  0  0
 27 28  1  0  0  0  0
 28 32  1  0  0  0  0
 28 29  2  0  0  0  0
 29 33  1  0  0  0  0
 30 29  1  0  0  0  0
 31 27  1  0  0  0  0
 33 36  1  0  0  0  0
 33 35  1  0  0  0  0
 33 34  1  0  0  0  0
M  END
>  <minimizedAffinity>
-5.97968769

$$$$

 OpenBabel03272503353D

 36 38  0  0  1  0  0  0  0  0999 V2000
   37.3850   26.2080   33.5500 C   0  0  0  0  0  0  0  0  0  0  0  0
   36.9310   25.2650   32.6240 C   0  0  0  0  0  0  0  0  0  0  0  0
   36.0540   25.7210   31.6370 C   0  0  0  0  0  0  0  0  0  0  0  0
   35.7070   27.0520   31.6520 N   0  0  0  0  0  0  0  0  0  0  0  0
   36.1650   27.9110   32.5540 C   0  0  0  0  0  0  0  0  0  0  0  0
   37.0140   27.4890   33.5170 N   0  0  0  0  0  0  0  0  0  0  0  0
   37.2270   24.2260   32.6440 H   0  0  0  0  0  0  0  0  0  0  0  0
   35.6550   25.0750   30.8880 H   0  0  0  0  0  0  0  0  0  0  0  0
   38.2900   25.7320   34.5660 N   0  0  0  0  0  0  0  0  0  0  0  0
   38.1680   25.8970   35.9800 C   0  0  0  0  0  0  0  0  0  0  0  0
   38.9060   24.6700   36.5150 C   0  0  2  0  0  0  0  0  0  0  0  0
   39.2930   23.8370   35.2950 C   0  0  0  0  0  0  0  0  0  0  0  0
   39.5180   24.9800   34.3290 C   0  0  0  0  0  0  0  0  0  0  0  0
   37.1150   25.7760   36.3200 H   0  0  0  0  0  0  0  0  0  0  0  0
   38.5830   26.8350   36.3710 H   0  0  0  0  0  0  0  0  0  0  0  0
   39.8540   25.0580   36.9530 H   0  0  0  0  0  0  0  0  0  0  0  0
   40.2720   23.3230   35.5090 H   0  0  0  0  0  0  0  0  0  0  0  0
   38.5000   23.1590   34.9790 H   0  0  0  0  0  0  0  0  0  0  0  0
   39.5700   24.6740   33.2840 H   0  0  0  0  0  0  0  0  0  0  0  0
   40.3830   25.5700   34.6770 H   0  0  0  0  0  0  0  0  0  0  0  0
   38.0730   23.8870   37.4950 C   0  0  0  0  0  0  0  0  0  0  0  0
   38.8620   22.8510   37.9480 F   0  0  0  0  0  0  0  0  0  0  0  0
   37.0430   23.3040   36.7890 F   0  0  0  0  0  0  0  0  0  0  0  0
   37.5900   24.6540   38.5220 F   0  0  0  0  0  0  0  0  0  0  0  0
   35.6820   29.6210   32.5270 S   0  0  0  0  0  0  0  0  0  0  0  0
   35.2850   30.3490   33.9880 C   0  0  0  0  0  0  0  0  0  0  0  0
   35.8750   30.9570   35.0530 C   0  0  0  0  0  0  0  0  0  0  0  0
   35.2180   31.4680   36.1530 C   0  0  0  0  0  0  0  0  0  0  0  0
   33.7490   31.2820   36.0540 C   0  0  0  0  0  0  0  0  0  0  0  0
   33.4770   30.4300   34.4620 S   0  0  0  0  0  0  0  0  0  0  0  0
   36.9480   30.9990   34.9420 H   0  0  0  0  0  0  0  0  0  0  0  0
   35.7010   31.9420   36.9790 H   0  0  0  0  0  0  0  0  0  0  0  0
   32.8630   31.7430   37.0990 C   0  0  0  0  0  0  0  0  0  0  0  0
   32.6910   30.6690   37.9820 F   0  0  0  0  0  0  0  0  0  0  0  0
   33.4540   32.7320   37.8640 F   0  0  0  0  0  0  0  0  0  0  0  0
   31.6410   32.2280   36.6770 F   0  0  0  0  0  0  0  0  0  0  0  0
  1  9  1  0  0  0  0
  2  7  1  0  0  0  0
  2  1  2  0  0  0  0
  3  4  2  0  0  0  0
  3  2  1  0  0  0  0
  4  5  1  0  0  0  0
  5  6  2  0  0  0  0
  6  1  1  0  0  0  0
  8  3  1  0  0  0  0
  9 10  1  0  0  0  0
 10 14  1  0  0  0  0
 10 15  1  0  0  0  0
 10 11  1  0  0  0  0
 11 16  1  1  0  0  0
 11 21  1  0  0  0  0
 12 17  1  0  0  0  0
 12 11  1  0  0  0  0
 13  9  1  0  0  0  0
 13 20  1  0  0  0  0
 13 12  1  0  0  0  0
 18 12  1  0  0  0  0
 19 13  1  0  0  0  0
 21 22  1  0  0  0  0
 21 24  1  0  0  0  0
 23 21  1  0  0  0  0
 25  5  1  0  0  0  0
 25 26  1  0  0  0  0
 26 30  1  0  0  0  0
 26 27  2  0  0  0  0
 27 28  1  0  0  0  0
 28 32  1  0  0  0  0
 29 28  2  0  0  0  0
 29 33  1  0  0  0  0
 30 29  1  0  0  0  0
 31 27  1  0  0  0  0
 33 35  1  0  0  0  0
 33 34  1  0  0  0  0
 36 33  1  0  0  0  0
M  END
>  <minimizedAffinity>
-5.89543772

$$$$

 OpenBabel03272503353D

 36 38  0  0  1  0  0  0  0  0999 V2000
   35.6190   29.0500   32.2110 C   0  0  0  0  0  0  0  0  0  0  0  0
   35.9230   29.5940   30.9610 C   0  0  0  0  0  0  0  0  0  0  0  0
   36.9340   28.9690   30.2280 C   0  0  0  0  0  0  0  0  0  0  0  0
   37.5490   27.8730   30.7890 N   0  0  0  0  0  0  0  0  0  0  0  0
   37.2260   27.3920   31.9820 C   0  0  0  0  0  0  0  0  0  0  0  0
   36.2490   27.9830   32.7070 N   0  0  0  0  0  0  0  0  0  0  0  0
   35.4170   30.4570   30.5530 H   0  0  0  0  0  0  0  0  0  0  0  0
   37.2360   29.3140   29.2650 H   0  0  0  0  0  0  0  0  0  0  0  0
   34.5740   29.6990   32.9630 N   0  0  0  0  0  0  0  0  0  0  0  0
   33.3050   30.1390   32.4780 C   0  0  0  0  0  0  0  0  0  0  0  0
   32.4300   30.0490   33.7280 C   0  0  2  0  0  0  0  0  0  0  0  0
   33.3040   29.4320   34.8180 C   0  0  0  0  0  0  0  0  0  0  0  0
   34.6260   30.0270   34.3830 C   0  0  0  0  0  0  0  0  0  0  0  0
   32.8630   29.4130   31.7590 H   0  0  0  0  0  0  0  0  0  0  0  0
   33.3030   31.1470   32.0410 H   0  0  0  0  0  0  0  0  0  0  0  0
   32.2320   31.1020   34.0320 H   0  0  0  0  0  0  0  0  0  0  0  0
   32.9980   29.8690   35.8100 H   0  0  0  0  0  0  0  0  0  0  0  0
   33.2970   28.3420   34.7970 H   0  0  0  0  0  0  0  0  0  0  0  0
   35.4960   29.5580   34.8420 H   0  0  0  0  0  0  0  0  0  0  0  0
   34.5760   31.1230   34.5090 H   0  0  0  0  0  0  0  0  0  0  0  0
   31.1750   29.2520   33.4890 C   0  0  0  0  0  0  0  0  0  0  0  0
   30.3560   30.0300   32.6990 F   0  0  0  0  0  0  0  0  0  0  0  0
   30.5300   29.1230   34.6990 F   0  0  0  0  0  0  0  0  0  0  0  0
   31.4170   28.0250   32.9290 F   0  0  0  0  0  0  0  0  0  0  0  0
   38.0540   25.9730   32.6590 S   0  0  0  0  0  0  0  0  0  0  0  0
   38.1080   25.8170   34.3310 C   0  0  0  0  0  0  0  0  0  0  0  0
   38.1040   26.5810   35.4570 C   0  0  0  0  0  0  0  0  0  0  0  0
   38.1660   26.1060   36.7520 C   0  0  0  0  0  0  0  0  0  0  0  0
   38.2400   24.6250   36.7930 C   0  0  0  0  0  0  0  0  0  0  0  0
   38.2130   24.0920   35.0470 S   0  0  0  0  0  0  0  0  0  0  0  0
   38.0450   27.6330   35.2240 H   0  0  0  0  0  0  0  0  0  0  0  0
   38.1630   26.7240   37.6230 H   0  0  0  0  0  0  0  0  0  0  0  0
   38.3140   23.9130   38.0490 C   0  0  0  0  0  0  0  0  0  0  0  0
   38.0330   24.8450   39.0560 F   0  0  0  0  0  0  0  0  0  0  0  0
   37.3080   22.9710   38.1560 F   0  0  0  0  0  0  0  0  0  0  0  0
   39.5070   23.2650   38.3010 F   0  0  0  0  0  0  0  0  0  0  0  0
  1  6  1  0  0  0  0
  1  9  1  0  0  0  0
  2  1  2  0  0  0  0
  3  4  2  0  0  0  0
  3  2  1  0  0  0  0
  4  5  1  0  0  0  0
  5 25  1  0  0  0  0
  5  6  2  0  0  0  0
  7  2  1  0  0  0  0
  8  3  1  0  0  0  0
  9 13  1  0  0  0  0
 10  9  1  0  0  0  0
 10 11  1  0  0  0  0
 11 16  1  1  0  0  0
 11 12  1  0  0  0  0
 12 17  1  0  0  0  0
 13 20  1  0  0  0  0
 13 12  1  0  0  0  0
 13 19  1  0  0  0  0
 14 10  1  0  0  0  0
 15 10  1  0  0  0  0
 18 12  1  0  0  0  0
 21 11  1  0  0  0  0
 21 23  1  0  0  0  0
 22 21  1  0  0  0  0
 24 21  1  0  0  0  0
 25 26  1  0  0  0  0
 26 30  1  0  0  0  0
 26 27  2  0  0  0  0
 27 28  1  0  0  0  0
 28 29  2  0  0  0  0
 28 32  1  0  0  0  0
 29 33  1  0  0  0  0
 30 29  1  0  0  0  0
 31 27  1  0  0  0  0
 33 35  1  0  0  0  0
 33 36  1  0  0  0  0
 33 34  1  0  0  0  0
M  END
>  <minimizedAffinity>
-5.8475523

$$$$

 OpenBabel03272503353D

 36 38  0  0  1  0  0  0  0  0999 V2000
   37.8760   22.8250   34.2150 C   0  0  0  0  0  0  0  0  0  0  0  0
   38.2920   21.9650   35.2340 C   0  0  0  0  0  0  0  0  0  0  0  0
   38.7900   22.5590   36.3970 C   0  0  0  0  0  0  0  0  0  0  0  0
   38.8300   23.9320   36.4500 N   0  0  0  0  0  0  0  0  0  0  0  0
   38.4220   24.7090   35.4540 C   0  0  0  0  0  0  0  0  0  0  0  0
   37.9380   24.1540   34.3200 N   0  0  0  0  0  0  0  0  0  0  0  0
   38.2450   20.8890   35.1560 H   0  0  0  0  0  0  0  0  0  0  0  0
   39.1320   21.9830   37.2270 H   0  0  0  0  0  0  0  0  0  0  0  0
   37.3630   22.2080   33.0170 N   0  0  0  0  0  0  0  0  0  0  0  0
   37.3310   20.8140   32.7070 C   0  0  0  0  0  0  0  0  0  0  0  0
   36.1230   20.7160   31.7750 C   0  0  2  0  0  0  0  0  0  0  0  0
   35.4980   22.1080   31.7380 C   0  0  0  0  0  0  0  0  0  0  0  0
   36.7720   22.9100   31.8830 C   0  0  0  0  0  0  0  0  0  0  0  0
   37.0650   20.1990   33.5970 H   0  0  0  0  0  0  0  0  0  0  0  0
   38.2470   20.4240   32.2430 H   0  0  0  0  0  0  0  0  0  0  0  0
   36.5420   20.5240   30.7610 H   0  0  0  0  0  0  0  0  0  0  0  0
   35.0580   22.2740   30.7140 H   0  0  0  0  0  0  0  0  0  0  0  0
   34.7910   22.2750   32.5520 H   0  0  0  0  0  0  0  0  0  0  0  0
   36.6110   23.9580   32.1380 H   0  0  0  0  0  0  0  0  0  0  0  0
   37.3940   22.7480   30.9850 H   0  0  0  0  0  0  0  0  0  0  0  0
   35.1420   19.6640   32.2240 C   0  0  0  0  0  0  0  0  0  0  0  0
   35.3440   19.4840   33.5760 F   0  0  0  0  0  0  0  0  0  0  0  0
   35.5030   18.4790   31.6210 F   0  0  0  0  0  0  0  0  0  0  0  0
   33.8420   19.9850   31.9340 F   0  0  0  0  0  0  0  0  0  0  0  0
   38.4970   26.4800   35.5750 S   0  0  0  0  0  0  0  0  0  0  0  0
   37.6170   27.3830   34.4640 C   0  0  0  0  0  0  0  0  0  0  0  0
   36.5230   28.1880   34.3970 C   0  0  0  0  0  0  0  0  0  0  0  0
   36.0430   28.8010   33.2580 C   0  0  0  0  0  0  0  0  0  0  0  0
   36.8740   28.4840   32.0700 C   0  0  0  0  0  0  0  0  0  0  0  0
   38.1960   27.3860   32.6850 S   0  0  0  0  0  0  0  0  0  0  0  0
   36.0520   28.2990   35.3630 H   0  0  0  0  0  0  0  0  0  0  0  0
   35.1810   29.4300   33.2270 H   0  0  0  0  0  0  0  0  0  0  0  0
   36.5540   29.0210   30.7670 C   0  0  0  0  0  0  0  0  0  0  0  0
   35.3160   29.6650   30.8910 F   0  0  0  0  0  0  0  0  0  0  0  0
   37.4330   30.0240   30.4030 F   0  0  0  0  0  0  0  0  0  0  0  0
   36.5270   28.1070   29.7320 F   0  0  0  0  0  0  0  0  0  0  0  0
  1  6  2  0  0  0  0
  1  2  1  0  0  0  0
  2  3  2  0  0  0  0
  3  4  1  0  0  0  0
  3  8  1  0  0  0  0
  5 25  1  0  0  0  0
  5  4  2  0  0  0  0
  6  5  1  0  0  0  0
  7  2  1  0  0  0  0
  9  1  1  0  0  0  0
 10  9  1  0  0  0  0
 10 14  1  0  0  0  0
 11 16  1  6  0  0  0
 11 21  1  0  0  0  0
 11 10  1  0  0  0  0
 12 11  1  0  0  0  0
 12 13  1  0  0  0  0
 12 18  1  0  0  0  0
 13 19  1  0  0  0  0
 13  9  1  0  0  0  0
 15 10  1  0  0  0  0
 17 12  1  0  0  0  0
 20 13  1  0  0  0  0
 21 22  1  0  0  0  0
 23 21  1  0  0  0  0
 24 21  1  0  0  0  0
 26 25  1  0  0  0  0
 27 26  2  0  0  0  0
 27 31  1  0  0  0  0
 28 27  1  0  0  0  0
 29 30  1  0  0  0  0
 29 28  2  0  0  0  0
 30 26  1  0  0  0  0
 32 28  1  0  0  0  0
 33 34  1  0  0  0  0
 33 29  1  0  0  0  0
 35 33  1  0  0  0  0
 36 33  1  0  0  0  0
M  END
>  <minimizedAffinity>
-5.78435087

$$$$

 OpenBabel03272503353D

 36 38  0  0  1  0  0  0  0  0999 V2000
   37.5520   26.6140   33.8400 C   0  0  0  0  0  0  0  0  0  0  0  0
   37.7680   27.5190   34.8810 C   0  0  0  0  0  0  0  0  0  0  0  0
   38.2810   27.0000   36.0730 C   0  0  0  0  0  0  0  0  0  0  0  0
   38.5340   25.6500   36.1280 N   0  0  0  0  0  0  0  0  0  0  0  0
   38.3130   24.8280   35.1100 C   0  0  0  0  0  0  0  0  0  0  0  0
   37.8160   25.3110   33.9490 N   0  0  0  0  0  0  0  0  0  0  0  0
   37.5570   28.5760   34.8000 H   0  0  0  0  0  0  0  0  0  0  0  0
   38.4770   27.6140   36.9220 H   0  0  0  0  0  0  0  0  0  0  0  0
   37.0220   27.1550   32.6120 N   0  0  0  0  0  0  0  0  0  0  0  0
   35.8990   28.0240   32.4630 C   0  0  0  0  0  0  0  0  0  0  0  0
   36.2470   28.7900   31.1870 C   0  0  2  0  0  0  0  0  0  0  0  0
   37.6480   28.3360   30.7850 C   0  0  0  0  0  0  0  0  0  0  0  0
   37.5500   26.9070   31.2750 C   0  0  0  0  0  0  0  0  0  0  0  0
   35.8640   28.7950   33.2670 H   0  0  0  0  0  0  0  0  0  0  0  0
   34.9290   27.5150   32.3910 H   0  0  0  0  0  0  0  0  0  0  0  0
   35.5490   28.4070   30.4080 H   0  0  0  0  0  0  0  0  0  0  0  0
   37.7180   28.3480   29.6610 H   0  0  0  0  0  0  0  0  0  0  0  0
   38.4350   28.9060   31.2800 H   0  0  0  0  0  0  0  0  0  0  0  0
   38.5100   26.3950   31.3430 H   0  0  0  0  0  0  0  0  0  0  0  0
   36.7920   26.3800   30.6720 H   0  0  0  0  0  0  0  0  0  0  0  0
   36.1670   30.2820   31.3780 C   0  0  0  0  0  0  0  0  0  0  0  0
   35.0320   30.7050   30.7200 F   0  0  0  0  0  0  0  0  0  0  0  0
   37.2310   30.8420   30.7070 F   0  0  0  0  0  0  0  0  0  0  0  0
   36.1680   30.6550   32.6970 F   0  0  0  0  0  0  0  0  0  0  0  0
   38.6560   23.0890   35.2360 S   0  0  0  0  0  0  0  0  0  0  0  0
   37.4480   22.0140   34.7830 C   0  0  0  0  0  0  0  0  0  0  0  0
   36.4460   21.2710   35.3260 C   0  0  0  0  0  0  0  0  0  0  0  0
   35.5900   20.4420   34.6300 C   0  0  0  0  0  0  0  0  0  0  0  0
   35.8830   20.4440   33.1750 C   0  0  0  0  0  0  0  0  0  0  0  0
   37.2930   21.5840   32.9690 S   0  0  0  0  0  0  0  0  0  0  0  0
   36.3890   21.4020   36.3970 H   0  0  0  0  0  0  0  0  0  0  0  0
   34.8090   19.8660   35.0770 H   0  0  0  0  0  0  0  0  0  0  0  0
   35.1070   19.6440   32.2540 C   0  0  0  0  0  0  0  0  0  0  0  0
   33.9190   20.3460   32.0140 F   0  0  0  0  0  0  0  0  0  0  0  0
   35.7190   19.5620   31.0170 F   0  0  0  0  0  0  0  0  0  0  0  0
   34.8380   18.3530   32.6630 F   0  0  0  0  0  0  0  0  0  0  0  0
  1  6  2  0  0  0  0
  1  2  1  0  0  0  0
  2  3  2  0  0  0  0
  3  4  1  0  0  0  0
  3  8  1  0  0  0  0
  5 25  1  0  0  0  0
  5  4  2  0  0  0  0
  6  5  1  0  0  0  0
  7  2  1  0  0  0  0
  9  1  1  0  0  0  0
 10  9  1  0  0  0  0
 10 14  1  0  0  0  0
 11 16  1  6  0  0  0
 11 21  1  0  0  0  0
 11 10  1  0  0  0  0
 12 11  1  0  0  0  0
 12 13  1  0  0  0  0
 12 18  1  0  0  0  0
 13 19  1  0  0  0  0
 13  9  1  0  0  0  0
 15 10  1  0  0  0  0
 17 12  1  0  0  0  0
 20 13  1  0  0  0  0
 21 24  1  0  0  0  0
 22 21  1  0  0  0  0
 23 21  1  0  0  0  0
 26 25  1  0  0  0  0
 26 27  2  0  0  0  0
 27 31  1  0  0  0  0
 28 32  1  0  0  0  0
 28 27  1  0  0  0  0
 29 28  2  0  0  0  0
 30 29  1  0  0  0  0
 30 26  1  0  0  0  0
 33 36  1  0  0  0  0
 33 29  1  0  0  0  0
 34 33  1  0  0  0  0
 35 33  1  0  0  0  0
M  END
>  <minimizedAffinity>
-5.73436785

$$$$

 OpenBabel03272503353D

 36 38  0  0  1  0  0  0  0  0999 V2000
   37.2060   25.7550   32.9920 C   0  0  0  0  0  0  0  0  0  0  0  0
   36.5790   24.8670   32.1140 C   0  0  0  0  0  0  0  0  0  0  0  0
   35.6530   25.4100   31.2210 C   0  0  0  0  0  0  0  0  0  0  0  0
   35.4310   26.7660   31.2720 N   0  0  0  0  0  0  0  0  0  0  0  0
   36.0520   27.5710   32.1250 C   0  0  0  0  0  0  0  0  0  0  0  0
   36.9510   27.0650   32.9980 N   0  0  0  0  0  0  0  0  0  0  0  0
   36.7810   23.8050   32.1040 H   0  0  0  0  0  0  0  0  0  0  0  0
   35.1250   24.8100   30.5150 H   0  0  0  0  0  0  0  0  0  0  0  0
   38.1610   25.1900   33.9120 N   0  0  0  0  0  0  0  0  0  0  0  0
   38.5450   25.7060   35.1870 C   0  0  0  0  0  0  0  0  0  0  0  0
   38.9470   24.4400   35.9440 C   0  0  2  0  0  0  0  0  0  0  0  0
   38.6300   23.2690   35.0170 C   0  0  0  0  0  0  0  0  0  0  0  0
   38.9210   23.9620   33.7030 C   0  0  0  0  0  0  0  0  0  0  0  0
   37.6730   26.1170   35.7460 H   0  0  0  0  0  0  0  0  0  0  0  0
   39.3540   26.4480   35.1590 H   0  0  0  0  0  0  0  0  0  0  0  0
   40.0560   24.4860   36.0370 H   0  0  0  0  0  0  0  0  0  0  0  0
   39.3890   22.4570   35.1950 H   0  0  0  0  0  0  0  0  0  0  0  0
   37.5960   22.9310   35.1030 H   0  0  0  0  0  0  0  0  0  0  0  0
   38.5410   23.4340   32.8290 H   0  0  0  0  0  0  0  0  0  0  0  0
   39.9980   24.1990   33.6620 H   0  0  0  0  0  0  0  0  0  0  0  0
   38.2420   24.3210   37.2700 C   0  0  0  0  0  0  0  0  0  0  0  0
   36.9750   23.8460   37.0040 F   0  0  0  0  0  0  0  0  0  0  0  0
   38.0770   25.5960   37.7650 F   0  0  0  0  0  0  0  0  0  0  0  0
   38.9130   23.5310   38.1650 F   0  0  0  0  0  0  0  0  0  0  0  0
   35.7250   29.3180   32.1480 S   0  0  0  0  0  0  0  0  0  0  0  0
   35.2300   30.0060   33.5990 C   0  0  0  0  0  0  0  0  0  0  0  0
   35.7040   30.7840   34.6080 C   0  0  0  0  0  0  0  0  0  0  0  0
   34.9920   31.1840   35.7200 C   0  0  0  0  0  0  0  0  0  0  0  0
   33.6040   30.6600   35.7020 C   0  0  0  0  0  0  0  0  0  0  0  0
   33.4730   29.6920   34.1610 S   0  0  0  0  0  0  0  0  0  0  0  0
   36.7330   31.0670   34.4420 H   0  0  0  0  0  0  0  0  0  0  0  0
   35.3850   31.7950   36.5020 H   0  0  0  0  0  0  0  0  0  0  0  0
   32.6780   30.9550   36.7730 C   0  0  0  0  0  0  0  0  0  0  0  0
   31.5660   31.5710   36.1840 F   0  0  0  0  0  0  0  0  0  0  0  0
   32.1760   29.7990   37.3410 F   0  0  0  0  0  0  0  0  0  0  0  0
   33.1780   31.7300   37.8010 F   0  0  0  0  0  0  0  0  0  0  0  0
  1  6  1  0  0  0  0
  1  9  1  0  0  0  0
  2  1  2  0  0  0  0
  3  4  2  0  0  0  0
  3  2  1  0  0  0  0
  4  5  1  0  0  0  0
  5 25  1  0  0  0  0
  5  6  2  0  0  0  0
  7  2  1  0  0  0  0
  8  3  1  0  0  0  0
  9 10  1  0  0  0  0
 10 14  1  0  0  0  0
 10 11  1  0  0  0  0
 11 16  1  1  0  0  0
 11 21  1  0  0  0  0
 12 18  1  0  0  0  0
 12 17  1  0  0  0  0
 12 11  1  0  0  0  0
 13  9  1  0  0  0  0
 13 12  1  0  0  0  0
 15 10  1  0  0  0  0
 19 13  1  0  0  0  0
 20 13  1  0  0  0  0
 21 23  1  0  0  0  0
 21 24  1  0  0  0  0
 22 21  1  0  0  0  0
 25 26  1  0  0  0  0
 26 30  1  0  0  0  0
 26 27  2  0  0  0  0
 27 28  1  0  0  0  0
 28 32  1  0  0  0  0
 29 28  2  0  0  0  0
 29 33  1  0  0  0  0
 30 29  1  0  0  0  0
 31 27  1  0  0  0  0
 33 35  1  0  0  0  0
 33 36  1  0  0  0  0
 34 33  1  0  0  0  0
M  END
>  <minimizedAffinity>
-5.72944736

$$$$

 OpenBabel03272503353D

 36 38  0  0  1  0  0  0  0  0999 V2000
   36.2630   26.6470   32.1550 C   0  0  0  0  0  0  0  0  0  0  0  0
   35.3500   26.0600   31.2760 C   0  0  0  0  0  0  0  0  0  0  0  0
   35.6130   24.7470   30.8760 C   0  0  0  0  0  0  0  0  0  0  0  0
   36.7410   24.1380   31.3750 N   0  0  0  0  0  0  0  0  0  0  0  0
   37.5800   24.7380   32.2100 C   0  0  0  0  0  0  0  0  0  0  0  0
   37.3430   26.0080   32.6080 N   0  0  0  0  0  0  0  0  0  0  0  0
   34.4740   26.5710   30.9050 H   0  0  0  0  0  0  0  0  0  0  0  0
   34.9740   24.2180   30.2070 H   0  0  0  0  0  0  0  0  0  0  0  0
   35.9870   28.0010   32.5650 N   0  0  0  0  0  0  0  0  0  0  0  0
   35.3690   29.0310   31.7920 C   0  0  0  0  0  0  0  0  0  0  0  0
   34.7150   29.8980   32.8670 C   0  0  2  0  0  0  0  0  0  0  0  0
   34.9450   29.1790   34.1940 C   0  0  0  0  0  0  0  0  0  0  0  0
   36.2950   28.5760   33.8700 C   0  0  0  0  0  0  0  0  0  0  0  0
   34.5250   28.6370   31.1800 H   0  0  0  0  0  0  0  0  0  0  0  0
   36.0560   29.6040   31.1550 H   0  0  0  0  0  0  0  0  0  0  0  0
   35.3150   30.8360   32.9010 H   0  0  0  0  0  0  0  0  0  0  0  0
   35.0600   29.9530   35.0040 H   0  0  0  0  0  0  0  0  0  0  0  0
   34.1810   28.4300   34.4060 H   0  0  0  0  0  0  0  0  0  0  0  0
   36.6060   27.7890   34.5580 H   0  0  0  0  0  0  0  0  0  0  0  0
   37.0260   29.3940   33.7490 H   0  0  0  0  0  0  0  0  0  0  0  0
   33.2530   30.1350   32.5960 C   0  0  0  0  0  0  0  0  0  0  0  0
   32.6520   28.8960   32.5500 F   0  0  0  0  0  0  0  0  0  0  0  0
   33.1480   30.6610   31.3270 F   0  0  0  0  0  0  0  0  0  0  0  0
   32.6630   30.9600   33.5190 F   0  0  0  0  0  0  0  0  0  0  0  0
   39.0240   23.9030   32.8240 S   0  0  0  0  0  0  0  0  0  0  0  0
   39.0670   23.5040   34.4560 C   0  0  0  0  0  0  0  0  0  0  0  0
   39.5560   22.5470   35.2900 C   0  0  0  0  0  0  0  0  0  0  0  0
   39.3980   22.5170   36.6600 C   0  0  0  0  0  0  0  0  0  0  0  0
   38.6130   23.6770   37.1500 C   0  0  0  0  0  0  0  0  0  0  0  0
   38.2020   24.6460   35.6590 S   0  0  0  0  0  0  0  0  0  0  0  0
   40.1000   21.7880   34.7480 H   0  0  0  0  0  0  0  0  0  0  0  0
   39.7900   21.7550   37.2970 H   0  0  0  0  0  0  0  0  0  0  0  0
   38.3240   23.8460   38.5570 C   0  0  0  0  0  0  0  0  0  0  0  0
   37.3890   22.8600   38.8960 F   0  0  0  0  0  0  0  0  0  0  0  0
   39.4290   23.5630   39.3380 F   0  0  0  0  0  0  0  0  0  0  0  0
   37.8720   25.0970   38.9290 F   0  0  0  0  0  0  0  0  0  0  0  0
  1  9  1  0  0  0  0
  1  6  1  0  0  0  0
  2  1  2  0  0  0  0
  3  2  1  0  0  0  0
  3  4  2  0  0  0  0
  4  5  1  0  0  0  0
  5  6  2  0  0  0  0
  5 25  1  0  0  0  0
  7  2  1  0  0  0  0
  8  3  1  0  0  0  0
  9 13  1  0  0  0  0
 10  9  1  0  0  0  0
 10 11  1  0  0  0  0
 11 16  1  1  0  0  0
 11 12  1  0  0  0  0
 12 18  1  0  0  0  0
 12 17  1  0  0  0  0
 13 12  1  0  0  0  0
 13 19  1  0  0  0  0
 14 10  1  0  0  0  0
 15 10  1  0  0  0  0
 20 13  1  0  0  0  0
 21 11  1  0  0  0  0
 21 24  1  0  0  0  0
 22 21  1  0  0  0  0
 23 21  1  0  0  0  0
 25 26  1  0  0  0  0
 26 27  2  0  0  0  0
 26 30  1  0  0  0  0
 27 28  1  0  0  0  0
 28 29  2  0  0  0  0
 28 32  1  0  0  0  0
 29 33  1  0  0  0  0
 30 29  1  0  0  0  0
 31 27  1  0  0  0  0
 33 34  1  0  0  0  0
 33 36  1  0  0  0  0
 33 35  1  0  0  0  0
M  END
>  <minimizedAffinity>
-5.7028842

$$$$

 OpenBabel03272503353D

 36 38  0  0  1  0  0  0  0  0999 V2000
   38.5700   24.0890   31.6040 C   0  0  0  0  0  0  0  0  0  0  0  0
   38.3100   23.4450   30.3920 C   0  0  0  0  0  0  0  0  0  0  0  0
   38.9020   22.1940   30.2020 C   0  0  0  0  0  0  0  0  0  0  0  0
   39.6900   21.6960   31.2130 N   0  0  0  0  0  0  0  0  0  0  0  0
   39.9080   22.3460   32.3490 C   0  0  0  0  0  0  0  0  0  0  0  0
   39.3440   23.5580   32.5530 N   0  0  0  0  0  0  0  0  0  0  0  0
   37.6850   23.8680   29.6190 H   0  0  0  0  0  0  0  0  0  0  0  0
   38.7620   21.6280   29.3090 H   0  0  0  0  0  0  0  0  0  0  0  0
   37.9560   25.3790   31.7950 N   0  0  0  0  0  0  0  0  0  0  0  0
   36.9280   25.7190   32.7260 C   0  0  0  0  0  0  0  0  0  0  0  0
   37.1990   27.2010   32.9840 C   0  0  2  0  0  0  0  0  0  0  0  0
   38.4790   27.5400   32.2250 C   0  0  0  0  0  0  0  0  0  0  0  0
   38.2830   26.5950   31.0590 C   0  0  0  0  0  0  0  0  0  0  0  0
   37.0800   25.2180   33.7100 H   0  0  0  0  0  0  0  0  0  0  0  0
   35.9050   25.5390   32.3690 H   0  0  0  0  0  0  0  0  0  0  0  0
   36.3710   27.7490   32.4790 H   0  0  0  0  0  0  0  0  0  0  0  0
   38.4100   28.6060   31.8660 H   0  0  0  0  0  0  0  0  0  0  0  0
   39.3800   27.3280   32.8010 H   0  0  0  0  0  0  0  0  0  0  0  0
   39.1800   26.4370   30.4600 H   0  0  0  0  0  0  0  0  0  0  0  0
   37.4010   26.9250   30.4830 H   0  0  0  0  0  0  0  0  0  0  0  0
   37.3110   27.5130   34.4540 C   0  0  0  0  0  0  0  0  0  0  0  0
   36.6540   26.5030   35.1240 F   0  0  0  0  0  0  0  0  0  0  0  0
   36.5890   28.6620   34.6890 F   0  0  0  0  0  0  0  0  0  0  0  0
   38.6080   27.6530   34.8750 F   0  0  0  0  0  0  0  0  0  0  0  0
   40.9360   21.6560   33.6250 S   0  0  0  0  0  0  0  0  0  0  0  0
   40.6100   22.0860   35.2160 C   0  0  0  0  0  0  0  0  0  0  0  0
   41.1740   22.0380   36.4530 C   0  0  0  0  0  0  0  0  0  0  0  0
   40.6000   22.5040   37.6170 C   0  0  0  0  0  0  0  0  0  0  0  0
   39.2570   23.0860   37.3750 C   0  0  0  0  0  0  0  0  0  0  0  0
   38.9710   22.9090   35.5810 S   0  0  0  0  0  0  0  0  0  0  0  0
   42.1520   21.5810   36.4260 H   0  0  0  0  0  0  0  0  0  0  0  0
   41.0610   22.4560   38.5800 H   0  0  0  0  0  0  0  0  0  0  0  0
   38.4720   23.6350   38.4580 C   0  0  0  0  0  0  0  0  0  0  0  0
   37.8500   24.7870   37.9600 F   0  0  0  0  0  0  0  0  0  0  0  0
   37.4270   22.7970   38.8020 F   0  0  0  0  0  0  0  0  0  0  0  0
   39.1670   23.9180   39.6180 F   0  0  0  0  0  0  0  0  0  0  0  0
  1  9  1  0  0  0  0
  1  6  1  0  0  0  0
  2  1  2  0  0  0  0
  3  2  1  0  0  0  0
  3  4  2  0  0  0  0
  4  5  1  0  0  0  0
  5  6  2  0  0  0  0
  5 25  1  0  0  0  0
  7  2  1  0  0  0  0
  8  3  1  0  0  0  0
  9 10  1  0  0  0  0
 10 11  1  0  0  0  0
 10 14  1  0  0  0  0
 11 16  1  6  0  0  0
 11 21  1  0  0  0  0
 12 18  1  0  0  0  0
 12 11  1  0  0  0  0
 13  9  1  0  0  0  0
 13 12  1  0  0  0  0
 15 10  1  0  0  0  0
 17 12  1  0  0  0  0
 19 13  1  0  0  0  0
 20 13  1  0  0  0  0
 21 23  1  0  0  0  0
 21 24  1  0  0  0  0
 21 22  1  0  0  0  0
 25 26  1  0  0  0  0
 26 30  1  0  0  0  0
 26 27  2  0  0  0  0
 27 28  1  0  0  0  0
 28 32  1  0  0  0  0
 29 28  2  0  0  0  0
 29 33  1  0  0  0  0
 30 29  1  0  0  0  0
 31 27  1  0  0  0  0
 33 35  1  0  0  0  0
 33 36  1  0  0  0  0
 34 33  1  0  0  0  0
M  END
>  <minimizedAffinity>
-5.66524649

$$$$
