
 OpenBabel03262522443D

 30 32  0  0  1  0  0  0  0  0999 V2000
   38.1490   27.1370   33.3340 C   0  0  1  0  0  0  0  0  0  0  0  0
   37.5920   26.5650   32.0930 C   0  0  0  0  0  0  0  0  0  0  0  0
   36.7530   27.5230   32.7830 C   0  0  2  0  0  0  0  0  0  0  0  0
   38.8240   27.9980   33.3740 H   0  0  0  0  0  0  0  0  0  0  0  0
   38.2720   26.7130   31.2550 H   0  0  0  0  0  0  0  0  0  0  0  0
   37.2900   25.4680   32.1620 H   0  0  0  0  0  0  0  0  0  0  0  0
   36.0900   27.3180   33.6590 H   0  0  0  0  0  0  0  0  0  0  0  0
   35.6280   29.9550   34.4000 Cl  0  0  0  0  0  0  0  0  0  0  0  0
   35.9820   29.9880   32.6860 C   0  0  0  0  0  0  0  0  0  0  0  0
   36.5160   28.8240   32.1790 C   0  0  0  0  0  0  0  0  0  0  0  0
   36.8580   28.8350   30.8650 C   0  0  0  0  0  0  0  0  0  0  0  0
   36.6810   29.9740   30.0560 C   0  0  0  0  0  0  0  0  0  0  0  0
   36.1370   31.1400   30.6080 C   0  0  0  0  0  0  0  0  0  0  0  0
   35.9400   32.6280   29.7280 Cl  0  0  0  0  0  0  0  0  0  0  0  0
   35.7870   31.1190   31.9540 C   0  0  0  0  0  0  0  0  0  0  0  0
   37.2860   28.0350   30.2770 H   0  0  0  0  0  0  0  0  0  0  0  0
   36.9290   30.0450   29.0150 H   0  0  0  0  0  0  0  0  0  0  0  0
   35.3580   31.9620   32.4750 H   0  0  0  0  0  0  0  0  0  0  0  0
   38.1480   24.8400   34.4610 C   0  0  0  0  0  0  0  0  0  0  0  0
   38.1770   26.2800   34.5560 C   0  0  0  0  0  0  0  0  0  0  0  0
   38.2040   26.8420   35.8240 C   0  0  0  0  0  0  0  0  0  0  0  0
   38.2030   26.0060   36.9110 N   0  0  0  0  0  0  0  0  0  0  0  0
   38.1760   24.6590   36.7870 C   0  0  0  0  0  0  0  0  0  0  0  0
   38.1490   24.0870   35.5690 N   0  0  0  0  0  0  0  0  0  0  0  0
   38.1270   24.3940   33.4840 H   0  0  0  0  0  0  0  0  0  0  0  0
   38.2260   27.9100   35.9450 H   0  0  0  0  0  0  0  0  0  0  0  0
   38.1800   23.9620   38.1010 C   0  0  0  0  0  0  0  0  0  0  0  0
   39.3900   23.3330   38.3330 F   0  0  0  0  0  0  0  0  0  0  0  0
   37.2180   22.9490   38.1580 F   0  0  0  0  0  0  0  0  0  0  0  0
   37.9940   24.9050   39.0940 F   0  0  0  0  0  0  0  0  0  0  0  0
  1  4  1  6  0  0  0
  1 20  1  0  0  0  0
  2  6  1  0  0  0  0
  2  3  1  0  0  0  0
  2  1  1  0  0  0  0
  3  1  1  0  0  0  0
  3  7  1  1  0  0  0
  5  2  1  0  0  0  0
  9  8  1  0  0  0  0
 10  9  1  0  0  0  0
 10  3  1  0  0  0  0
 11 10  2  0  0  0  0
 12 13  2  0  0  0  0
 12 11  1  0  0  0  0
 13 15  1  0  0  0  0
 14 13  1  0  0  0  0
 15 18  1  0  0  0  0
 15  9  2  0  0  0  0
 16 11  1  0  0  0  0
 17 12  1  0  0  0  0
 19 20  2  0  0  0  0
 19 24  1  0  0  0  0
 20 21  1  0  0  0  0
 21 26  1  0  0  0  0
 21 22  2  0  0  0  0
 23 22  1  0  0  0  0
 23 27  1  0  0  0  0
 24 23  2  0  0  0  0
 25 19  1  0  0  0  0
 27 29  1  0  0  0  0
 27 28  1  0  0  0  0
 27 30  1  0  0  0  0
M  END
>  <minimizedAffinity>
-5.62855721

$$$$

 OpenBabel03262522443D

 30 32  0  0  1  0  0  0  0  0999 V2000
   37.9910   27.2970   33.3390 C   0  0  1  0  0  0  0  0  0  0  0  0
   37.4470   26.7500   32.0810 C   0  0  0  0  0  0  0  0  0  0  0  0
   36.5750   27.6430   32.8160 C   0  0  2  0  0  0  0  0  0  0  0  0
   38.6290   28.1850   33.4060 H   0  0  0  0  0  0  0  0  0  0  0  0
   38.1100   26.9590   31.2440 H   0  0  0  0  0  0  0  0  0  0  0  0
   37.1930   25.6400   32.1110 H   0  0  0  0  0  0  0  0  0  0  0  0
   35.9300   27.3760   33.6890 H   0  0  0  0  0  0  0  0  0  0  0  0
   36.9460   28.3260   29.7840 Cl  0  0  0  0  0  0  0  0  0  0  0  0
   36.4210   29.4740   30.9980 C   0  0  0  0  0  0  0  0  0  0  0  0
   36.2760   28.9550   32.2650 C   0  0  0  0  0  0  0  0  0  0  0  0
   35.8120   29.8030   33.2180 C   0  0  0  0  0  0  0  0  0  0  0  0
   35.4920   31.1450   32.9340 C   0  0  0  0  0  0  0  0  0  0  0  0
   35.6510   31.6350   31.6320 C   0  0  0  0  0  0  0  0  0  0  0  0
   35.2190   33.2500   31.1460 Cl  0  0  0  0  0  0  0  0  0  0  0  0
   36.1280   30.7600   30.6630 C   0  0  0  0  0  0  0  0  0  0  0  0
   35.6300   29.6010   34.2650 H   0  0  0  0  0  0  0  0  0  0  0  0
   35.1250   31.8630   33.6410 H   0  0  0  0  0  0  0  0  0  0  0  0
   36.2890   31.0380   29.6320 H   0  0  0  0  0  0  0  0  0  0  0  0
   38.0320   24.9610   34.3810 C   0  0  0  0  0  0  0  0  0  0  0  0
   38.0690   26.3960   34.5270 C   0  0  0  0  0  0  0  0  0  0  0  0
   38.1530   26.9110   35.8120 C   0  0  0  0  0  0  0  0  0  0  0  0
   38.1960   26.0360   36.8660 N   0  0  0  0  0  0  0  0  0  0  0  0
   38.1590   24.6940   36.6950 C   0  0  0  0  0  0  0  0  0  0  0  0
   38.0780   24.1680   35.4590 N   0  0  0  0  0  0  0  0  0  0  0  0
   37.9670   24.5510   33.3890 H   0  0  0  0  0  0  0  0  0  0  0  0
   38.1840   27.9740   35.9710 H   0  0  0  0  0  0  0  0  0  0  0  0
   38.2180   23.9500   37.9810 C   0  0  0  0  0  0  0  0  0  0  0  0
   39.4420   23.3270   38.1470 F   0  0  0  0  0  0  0  0  0  0  0  0
   37.2690   22.9240   38.0340 F   0  0  0  0  0  0  0  0  0  0  0  0
   38.0570   24.8530   39.0150 F   0  0  0  0  0  0  0  0  0  0  0  0
  1  4  1  6  0  0  0
  1 20  1  0  0  0  0
  2  6  1  0  0  0  0
  2  3  1  0  0  0  0
  2  1  1  0  0  0  0
  3  1  1  0  0  0  0
  3  7  1  1  0  0  0
  5  2  1  0  0  0  0
  8  9  1  0  0  0  0
  9 10  1  0  0  0  0
 10  3  1  0  0  0  0
 10 11  2  0  0  0  0
 11 16  1  0  0  0  0
 12 11  1  0  0  0  0
 12 17  1  0  0  0  0
 13 12  2  0  0  0  0
 14 13  1  0  0  0  0
 15  9  2  0  0  0  0
 15 13  1  0  0  0  0
 18 15  1  0  0  0  0
 19 20  2  0  0  0  0
 19 24  1  0  0  0  0
 20 21  1  0  0  0  0
 21 26  1  0  0  0  0
 21 22  2  0  0  0  0
 23 22  1  0  0  0  0
 23 27  1  0  0  0  0
 24 23  2  0  0  0  0
 25 19  1  0  0  0  0
 27 29  1  0  0  0  0
 27 28  1  0  0  0  0
 27 30  1  0  0  0  0
M  END
>  <minimizedAffinity>
-5.48543882

$$$$

 OpenBabel03262522443D

 30 32  0  0  1  0  0  0  0  0999 V2000
   36.8440   27.8070   31.9950 C   0  0  1  0  0  0  0  0  0  0  0  0
   36.4350   28.6920   30.8860 C   0  0  0  0  0  0  0  0  0  0  0  0
   35.6260   28.7620   32.0860 C   0  0  2  0  0  0  0  0  0  0  0  0
   37.6110   28.0530   32.7370 H   0  0  0  0  0  0  0  0  0  0  0  0
   37.2610   29.3260   30.5670 H   0  0  0  0  0  0  0  0  0  0  0  0
   35.9820   28.1590   29.9880 H   0  0  0  0  0  0  0  0  0  0  0  0
   34.8020   28.0640   32.3750 H   0  0  0  0  0  0  0  0  0  0  0  0
   35.6740   31.6400   30.8590 Cl  0  0  0  0  0  0  0  0  0  0  0  0
   35.7570   31.2970   32.5730 C   0  0  0  0  0  0  0  0  0  0  0  0
   35.6720   29.9620   32.9050 C   0  0  0  0  0  0  0  0  0  0  0  0
   35.6730   29.6650   34.2290 C   0  0  0  0  0  0  0  0  0  0  0  0
   35.7530   30.6630   35.2200 C   0  0  0  0  0  0  0  0  0  0  0  0
   35.8360   32.0090   34.8440 C   0  0  0  0  0  0  0  0  0  0  0  0
   35.8660   33.3310   35.9760 Cl  0  0  0  0  0  0  0  0  0  0  0  0
   35.8370   32.3040   33.4850 C   0  0  0  0  0  0  0  0  0  0  0  0
   35.6170   28.6920   34.6980 H   0  0  0  0  0  0  0  0  0  0  0  0
   35.7600   30.4930   36.2790 H   0  0  0  0  0  0  0  0  0  0  0  0
   35.9010   33.3070   33.0900 H   0  0  0  0  0  0  0  0  0  0  0  0
   35.4900   25.8640   31.0260 C   0  0  0  0  0  0  0  0  0  0  0  0
   36.5490   26.3490   31.8800 C   0  0  0  0  0  0  0  0  0  0  0  0
   37.2650   25.4140   32.6110 C   0  0  0  0  0  0  0  0  0  0  0  0
   36.9330   24.0890   32.4850 N   0  0  0  0  0  0  0  0  0  0  0  0
   35.9340   23.6680   31.6750 C   0  0  0  0  0  0  0  0  0  0  0  0
   35.2230   24.5540   30.9540 N   0  0  0  0  0  0  0  0  0  0  0  0
   34.9290   26.5800   30.4550 H   0  0  0  0  0  0  0  0  0  0  0  0
   38.0630   25.7260   33.2610 H   0  0  0  0  0  0  0  0  0  0  0  0
   35.7580   22.1910   31.7020 C   0  0  0  0  0  0  0  0  0  0  0  0
   34.8890   21.8060   32.7080 F   0  0  0  0  0  0  0  0  0  0  0  0
   36.9580   21.5270   31.9740 F   0  0  0  0  0  0  0  0  0  0  0  0
   35.2130   21.7960   30.4950 F   0  0  0  0  0  0  0  0  0  0  0  0
  1  3  1  0  0  0  0
  1  4  1  1  0  0  0
  2  1  1  0  0  0  0
  2  3  1  0  0  0  0
  3  7  1  6  0  0  0
  3 10  1  0  0  0  0
  5  2  1  0  0  0  0
  6  2  1  0  0  0  0
  8  9  1  0  0  0  0
  9 10  2  0  0  0  0
  9 15  1  0  0  0  0
 10 11  1  0  0  0  0
 11 16  1  0  0  0  0
 11 12  2  0  0  0  0
 12 17  1  0  0  0  0
 13 12  1  0  0  0  0
 13 14  1  0  0  0  0
 15 13  2  0  0  0  0
 18 15  1  0  0  0  0
 19 20  1  0  0  0  0
 20  1  1  0  0  0  0
 20 21  2  0  0  0  0
 21 26  1  0  0  0  0
 22 21  1  0  0  0  0
 23 27  1  0  0  0  0
 23 22  2  0  0  0  0
 24 19  2  0  0  0  0
 24 23  1  0  0  0  0
 25 19  1  0  0  0  0
 27 29  1  0  0  0  0
 27 28  1  0  0  0  0
 30 27  1  0  0  0  0
M  END
>  <minimizedAffinity>
-5.42937708

$$$$

 OpenBabel03262522443D

 30 32  0  0  1  0  0  0  0  0999 V2000
   39.3640   27.0720   33.4470 C   0  0  1  0  0  0  0  0  0  0  0  0
   39.8730   26.4350   32.2170 C   0  0  0  0  0  0  0  0  0  0  0  0
   38.4790   26.8280   32.1980 C   0  0  2  0  0  0  0  0  0  0  0  0
   39.4560   28.1380   33.6790 H   0  0  0  0  0  0  0  0  0  0  0  0
   40.7480   26.9600   31.8370 H   0  0  0  0  0  0  0  0  0  0  0  0
   40.0950   25.3210   32.3090 H   0  0  0  0  0  0  0  0  0  0  0  0
   37.6200   26.2560   32.6280 H   0  0  0  0  0  0  0  0  0  0  0  0
   36.1720   28.7930   32.9820 Cl  0  0  0  0  0  0  0  0  0  0  0  0
   37.0520   28.8560   31.4700 C   0  0  0  0  0  0  0  0  0  0  0  0
   38.0630   27.9290   31.3450 C   0  0  0  0  0  0  0  0  0  0  0  0
   38.8050   27.9890   30.2100 C   0  0  0  0  0  0  0  0  0  0  0  0
   38.5620   28.9480   29.2070 C   0  0  0  0  0  0  0  0  0  0  0  0
   37.5270   29.8760   29.3710 C   0  0  0  0  0  0  0  0  0  0  0  0
   37.1800   31.1520   28.2380 Cl  0  0  0  0  0  0  0  0  0  0  0  0
   36.7700   29.8060   30.5360 C   0  0  0  0  0  0  0  0  0  0  0  0
   39.6340   27.3600   29.9160 H   0  0  0  0  0  0  0  0  0  0  0  0
   39.1100   29.0460   28.2910 H   0  0  0  0  0  0  0  0  0  0  0  0
   35.9490   30.4710   30.7580 H   0  0  0  0  0  0  0  0  0  0  0  0
   39.7200   24.9070   34.7630 C   0  0  0  0  0  0  0  0  0  0  0  0
   39.1050   26.2070   34.6350 C   0  0  0  0  0  0  0  0  0  0  0  0
   38.2420   26.6130   35.6420 C   0  0  0  0  0  0  0  0  0  0  0  0
   38.0220   25.7660   36.6980 N   0  0  0  0  0  0  0  0  0  0  0  0
   38.6160   24.5530   36.7880 C   0  0  0  0  0  0  0  0  0  0  0  0
   39.4570   24.1330   35.8250 N   0  0  0  0  0  0  0  0  0  0  0  0
   40.3900   24.5820   33.9890 H   0  0  0  0  0  0  0  0  0  0  0  0
   37.7600   27.5730   35.5910 H   0  0  0  0  0  0  0  0  0  0  0  0
   38.2260   23.8130   38.0180 C   0  0  0  0  0  0  0  0  0  0  0  0
   37.7680   24.6750   38.9990 F   0  0  0  0  0  0  0  0  0  0  0  0
   39.3110   23.1430   38.5900 F   0  0  0  0  0  0  0  0  0  0  0  0
   37.1970   22.9480   37.6980 F   0  0  0  0  0  0  0  0  0  0  0  0
  1  4  1  1  0  0  0
  1 20  1  0  0  0  0
  2  6  1  0  0  0  0
  2  1  1  0  0  0  0
  3  2  1  0  0  0  0
  3  7  1  1  0  0  0
  3  1  1  0  0  0  0
  5  2  1  0  0  0  0
  9  8  1  0  0  0  0
 10  9  1  0  0  0  0
 10  3  1  0  0  0  0
 11 10  2  0  0  0  0
 12 13  2  0  0  0  0
 12 11  1  0  0  0  0
 13 15  1  0  0  0  0
 14 13  1  0  0  0  0
 15 18  1  0  0  0  0
 15  9  2  0  0  0  0
 16 11  1  0  0  0  0
 17 12  1  0  0  0  0
 19 24  1  0  0  0  0
 20 19  2  0  0  0  0
 20 21  1  0  0  0  0
 21 22  2  0  0  0  0
 22 23  1  0  0  0  0
 23 27  1  0  0  0  0
 24 23  2  0  0  0  0
 25 19  1  0  0  0  0
 26 21  1  0  0  0  0
 27 29  1  0  0  0  0
 27 28  1  0  0  0  0
 30 27  1  0  0  0  0
M  END
>  <minimizedAffinity>
-5.39736032

$$$$

 OpenBabel03262522443D

 30 32  0  0  1  0  0  0  0  0999 V2000
   36.4810   28.4290   33.1500 C   0  0  1  0  0  0  0  0  0  0  0  0
   36.0620   29.5070   32.2330 C   0  0  0  0  0  0  0  0  0  0  0  0
   35.0970   29.1200   33.2420 C   0  0  2  0  0  0  0  0  0  0  0  0
   37.0730   28.5800   34.0590 H   0  0  0  0  0  0  0  0  0  0  0  0
   36.7810   30.3250   32.2370 H   0  0  0  0  0  0  0  0  0  0  0  0
   35.8540   29.1750   31.1640 H   0  0  0  0  0  0  0  0  0  0  0  0
   34.3960   28.2500   33.1940 H   0  0  0  0  0  0  0  0  0  0  0  0
   32.3540   29.0980   34.7490 Cl  0  0  0  0  0  0  0  0  0  0  0  0
   33.6430   30.2390   35.0630 C   0  0  0  0  0  0  0  0  0  0  0  0
   34.7880   30.0430   34.3210 C   0  0  0  0  0  0  0  0  0  0  0  0
   35.8290   30.8740   34.5820 C   0  0  0  0  0  0  0  0  0  0  0  0
   35.7540   31.8840   35.5600 C   0  0  0  0  0  0  0  0  0  0  0  0
   34.5740   32.0510   36.2960 C   0  0  0  0  0  0  0  0  0  0  0  0
   34.3880   33.2130   37.5780 Cl  0  0  0  0  0  0  0  0  0  0  0  0
   33.5110   31.1980   36.0200 C   0  0  0  0  0  0  0  0  0  0  0  0
   36.8060   30.8920   34.1170 H   0  0  0  0  0  0  0  0  0  0  0  0
   36.5380   32.5700   35.8120 H   0  0  0  0  0  0  0  0  0  0  0  0
   32.5590   31.2440   36.5270 H   0  0  0  0  0  0  0  0  0  0  0  0
   35.8060   26.6700   31.4180 C   0  0  0  0  0  0  0  0  0  0  0  0
   36.5010   27.0290   32.6310 C   0  0  0  0  0  0  0  0  0  0  0  0
   37.1670   26.0230   33.3140 C   0  0  0  0  0  0  0  0  0  0  0  0
   37.1310   24.7500   32.8040 N   0  0  0  0  0  0  0  0  0  0  0  0
   36.4700   24.4470   31.6630 C   0  0  0  0  0  0  0  0  0  0  0  0
   35.8150   25.4050   30.9800 N   0  0  0  0  0  0  0  0  0  0  0  0
   35.2870   27.4430   30.8810 H   0  0  0  0  0  0  0  0  0  0  0  0
   37.7000   26.2410   34.2230 H   0  0  0  0  0  0  0  0  0  0  0  0
   36.5700   23.0060   31.3070 C   0  0  0  0  0  0  0  0  0  0  0  0
   36.8180   22.2280   32.4240 F   0  0  0  0  0  0  0  0  0  0  0  0
   37.6360   22.7570   30.4370 F   0  0  0  0  0  0  0  0  0  0  0  0
   35.3620   22.6050   30.7700 F   0  0  0  0  0  0  0  0  0  0  0  0
  1  3  1  0  0  0  0
  1  4  1  1  0  0  0
  2  5  1  0  0  0  0
  2  1  1  0  0  0  0
  2  3  1  0  0  0  0
  3  7  1  6  0  0  0
  3 10  1  0  0  0  0
  6  2  1  0  0  0  0
  8  9  1  0  0  0  0
  9 15  1  0  0  0  0
 10 11  1  0  0  0  0
 10  9  2  0  0  0  0
 11 12  2  0  0  0  0
 12 17  1  0  0  0  0
 12 13  1  0  0  0  0
 13 14  1  0  0  0  0
 15 13  2  0  0  0  0
 15 18  1  0  0  0  0
 16 11  1  0  0  0  0
 19 20  1  0  0  0  0
 20  1  1  0  0  0  0
 20 21  2  0  0  0  0
 21 26  1  0  0  0  0
 22 21  1  0  0  0  0
 23 22  2  0  0  0  0
 24 19  2  0  0  0  0
 24 23  1  0  0  0  0
 25 19  1  0  0  0  0
 27 23  1  0  0  0  0
 27 28  1  0  0  0  0
 29 27  1  0  0  0  0
 30 27  1  0  0  0  0
M  END
>  <minimizedAffinity>
-5.33639145

$$$$

 OpenBabel03262522443D

 30 32  0  0  1  0  0  0  0  0999 V2000
   38.9770   26.1610   35.3230 C   0  0  1  0  0  0  0  0  0  0  0  0
   38.1550   25.5820   36.4040 C   0  0  0  0  0  0  0  0  0  0  0  0
   38.6500   24.6490   35.4110 C   0  0  2  0  0  0  0  0  0  0  0  0
   40.0540   26.3500   35.3930 H   0  0  0  0  0  0  0  0  0  0  0  0
   38.5610   25.8340   37.3820 H   0  0  0  0  0  0  0  0  0  0  0  0
   37.0480   25.8460   36.3590 H   0  0  0  0  0  0  0  0  0  0  0  0
   38.2030   24.4470   34.4060 H   0  0  0  0  0  0  0  0  0  0  0  0
   40.9220   23.7360   33.4630 Cl  0  0  0  0  0  0  0  0  0  0  0  0
   40.6970   23.1070   35.0810 C   0  0  0  0  0  0  0  0  0  0  0  0
   39.6650   23.6810   35.7900 C   0  0  0  0  0  0  0  0  0  0  0  0
   39.5010   23.2590   37.0700 C   0  0  0  0  0  0  0  0  0  0  0  0
   40.3390   22.2880   37.6520 C   0  0  0  0  0  0  0  0  0  0  0  0
   41.3800   21.7310   36.9000 C   0  0  0  0  0  0  0  0  0  0  0  0
   42.5240   20.5810   37.5320 Cl  0  0  0  0  0  0  0  0  0  0  0  0
   41.5400   22.1660   35.5890 C   0  0  0  0  0  0  0  0  0  0  0  0
   38.7580   23.5750   37.7900 H   0  0  0  0  0  0  0  0  0  0  0  0
   40.2600   21.9140   38.6530 H   0  0  0  0  0  0  0  0  0  0  0  0
   42.3070   21.7980   34.9240 H   0  0  0  0  0  0  0  0  0  0  0  0
   37.0210   27.5860   34.4930 C   0  0  0  0  0  0  0  0  0  0  0  0
   38.2880   26.9390   34.2510 C   0  0  0  0  0  0  0  0  0  0  0  0
   38.8320   27.0410   32.9790 C   0  0  0  0  0  0  0  0  0  0  0  0
   38.1410   27.7460   32.0270 N   0  0  0  0  0  0  0  0  0  0  0  0
   36.9550   28.3420   32.2870 C   0  0  0  0  0  0  0  0  0  0  0  0
   36.4050   28.2590   33.5130 N   0  0  0  0  0  0  0  0  0  0  0  0
   36.5910   27.5130   35.4750 H   0  0  0  0  0  0  0  0  0  0  0  0
   39.7740   26.5750   32.7510 H   0  0  0  0  0  0  0  0  0  0  0  0
   36.3960   29.0480   31.1030 C   0  0  0  0  0  0  0  0  0  0  0  0
   35.0830   29.4290   31.3170 F   0  0  0  0  0  0  0  0  0  0  0  0
   36.3640   28.2260   29.9720 F   0  0  0  0  0  0  0  0  0  0  0  0
   37.1410   30.1920   30.8860 F   0  0  0  0  0  0  0  0  0  0  0  0
  1  4  1  1  0  0  0
  1  3  1  0  0  0  0
  1  2  1  0  0  0  0
  2  5  1  0  0  0  0
  3  7  1  6  0  0  0
  3 10  1  0  0  0  0
  3  2  1  0  0  0  0
  6  2  1  0  0  0  0
  8  9  1  0  0  0  0
  9 15  2  0  0  0  0
  9 10  1  0  0  0  0
 10 11  2  0  0  0  0
 11 12  1  0  0  0  0
 11 16  1  0  0  0  0
 12 17  1  0  0  0  0
 13 14  1  0  0  0  0
 13 12  2  0  0  0  0
 15 13  1  0  0  0  0
 18 15  1  0  0  0  0
 19 25  1  0  0  0  0
 20 19  1  0  0  0  0
 20  1  1  0  0  0  0
 21 20  2  0  0  0  0
 22 23  2  0  0  0  0
 22 21  1  0  0  0  0
 23 24  1  0  0  0  0
 24 19  2  0  0  0  0
 26 21  1  0  0  0  0
 27 28  1  0  0  0  0
 27 23  1  0  0  0  0
 29 27  1  0  0  0  0
 30 27  1  0  0  0  0
M  END
>  <minimizedAffinity>
-5.20852423

$$$$

 OpenBabel03262522443D

 30 32  0  0  1  0  0  0  0  0999 V2000
   38.3230   24.7440   35.1880 C   0  0  1  0  0  0  0  0  0  0  0  0
   37.9750   25.8810   36.0620 C   0  0  0  0  0  0  0  0  0  0  0  0
   38.7710   26.1980   34.8940 C   0  0  2  0  0  0  0  0  0  0  0  0
   37.6780   24.3480   34.3950 H   0  0  0  0  0  0  0  0  0  0  0  0
   36.8980   25.9480   36.2070 H   0  0  0  0  0  0  0  0  0  0  0  0
   38.5070   25.8930   37.0690 H   0  0  0  0  0  0  0  0  0  0  0  0
   39.8790   26.0850   34.7930 H   0  0  0  0  0  0  0  0  0  0  0  0
   39.9150   26.1850   31.9800 Cl  0  0  0  0  0  0  0  0  0  0  0  0
   38.5450   27.1440   32.4990 C   0  0  0  0  0  0  0  0  0  0  0  0
   38.1740   26.9650   33.8140 C   0  0  0  0  0  0  0  0  0  0  0  0
   37.0790   27.6490   34.2330 C   0  0  0  0  0  0  0  0  0  0  0  0
   36.3520   28.4970   33.3750 C   0  0  0  0  0  0  0  0  0  0  0  0
   36.7590   28.6510   32.0440 C   0  0  0  0  0  0  0  0  0  0  0  0
   35.9010   29.6110   30.8730 Cl  0  0  0  0  0  0  0  0  0  0  0  0
   37.8840   27.9490   31.6240 C   0  0  0  0  0  0  0  0  0  0  0  0
   36.6250   27.6520   35.2150 H   0  0  0  0  0  0  0  0  0  0  0  0
   35.4830   29.0630   33.6450 H   0  0  0  0  0  0  0  0  0  0  0  0
   38.2820   28.0000   30.6210 H   0  0  0  0  0  0  0  0  0  0  0  0
   39.3480   23.2320   36.9800 C   0  0  0  0  0  0  0  0  0  0  0  0
   39.3770   23.7940   35.6500 C   0  0  0  0  0  0  0  0  0  0  0  0
   40.4340   23.4410   34.8250 C   0  0  0  0  0  0  0  0  0  0  0  0
   41.3880   22.5840   35.3120 N   0  0  0  0  0  0  0  0  0  0  0  0
   41.3300   22.0750   36.5650 C   0  0  0  0  0  0  0  0  0  0  0  0
   40.3160   22.4010   37.3860 N   0  0  0  0  0  0  0  0  0  0  0  0
   38.5330   23.4990   37.6270 H   0  0  0  0  0  0  0  0  0  0  0  0
   40.5000   23.8330   33.8260 H   0  0  0  0  0  0  0  0  0  0  0  0
   42.4720   21.1710   36.8690 C   0  0  0  0  0  0  0  0  0  0  0  0
   42.5100   20.0980   35.9970 F   0  0  0  0  0  0  0  0  0  0  0  0
   42.3670   20.6100   38.1450 F   0  0  0  0  0  0  0  0  0  0  0  0
   43.6450   21.8850   36.7160 F   0  0  0  0  0  0  0  0  0  0  0  0
  1  4  1  6  0  0  0
  1 20  1  0  0  0  0
  1  2  1  0  0  0  0
  2  5  1  0  0  0  0
  2  6  1  0  0  0  0
  3  7  1  1  0  0  0
  3  1  1  0  0  0  0
  3  2  1  0  0  0  0
  8  9  1  0  0  0  0
  9 10  1  0  0  0  0
 10 11  2  0  0  0  0
 10  3  1  0  0  0  0
 11 16  1  0  0  0  0
 12 17  1  0  0  0  0
 12 11  1  0  0  0  0
 13 12  2  0  0  0  0
 14 13  1  0  0  0  0
 15 13  1  0  0  0  0
 15  9  2  0  0  0  0
 18 15  1  0  0  0  0
 19 24  1  0  0  0  0
 19 25  1  0  0  0  0
 20 19  2  0  0  0  0
 21 22  2  0  0  0  0
 21 20  1  0  0  0  0
 22 23  1  0  0  0  0
 23 27  1  0  0  0  0
 23 24  2  0  0  0  0
 26 21  1  0  0  0  0
 27 29  1  0  0  0  0
 28 27  1  0  0  0  0
 30 27  1  0  0  0  0
M  END
>  <minimizedAffinity>
-5.19114733

$$$$

 OpenBabel03262522443D

 30 32  0  0  1  0  0  0  0  0999 V2000
   38.5460   27.3070   33.9980 C   0  0  1  0  0  0  0  0  0  0  0  0
   38.6600   27.2020   32.5300 C   0  0  0  0  0  0  0  0  0  0  0  0
   37.3140   27.1880   33.0660 C   0  0  2  0  0  0  0  0  0  0  0  0
   38.5460   28.2500   34.5560 H   0  0  0  0  0  0  0  0  0  0  0  0
   39.2370   28.0300   32.1220 H   0  0  0  0  0  0  0  0  0  0  0  0
   39.0750   26.2110   32.1500 H   0  0  0  0  0  0  0  0  0  0  0  0
   36.7780   26.3070   33.4970 H   0  0  0  0  0  0  0  0  0  0  0  0
   36.6880   28.2520   30.1900 Cl  0  0  0  0  0  0  0  0  0  0  0  0
   36.0870   28.9800   31.6650 C   0  0  0  0  0  0  0  0  0  0  0  0
   36.4420   28.3260   32.8240 C   0  0  0  0  0  0  0  0  0  0  0  0
   35.9430   28.8290   33.9810 C   0  0  0  0  0  0  0  0  0  0  0  0
   35.1040   29.9600   34.0060 C   0  0  0  0  0  0  0  0  0  0  0  0
   34.7640   30.5970   32.8060 C   0  0  0  0  0  0  0  0  0  0  0  0
   33.6780   31.9540   32.7040 Cl  0  0  0  0  0  0  0  0  0  0  0  0
   35.2810   30.0760   31.6250 C   0  0  0  0  0  0  0  0  0  0  0  0
   36.0990   28.4720   34.9900 H   0  0  0  0  0  0  0  0  0  0  0  0
   34.6810   30.4050   34.8840 H   0  0  0  0  0  0  0  0  0  0  0  0
   35.0830   30.4930   30.6490 H   0  0  0  0  0  0  0  0  0  0  0  0
   38.0440   25.6890   35.9150 C   0  0  0  0  0  0  0  0  0  0  0  0
   38.8860   26.1090   34.8210 C   0  0  0  0  0  0  0  0  0  0  0  0
   40.0390   25.3770   34.5770 C   0  0  0  0  0  0  0  0  0  0  0  0
   40.3130   24.3010   35.3820 N   0  0  0  0  0  0  0  0  0  0  0  0
   39.5010   23.9330   36.4000 C   0  0  0  0  0  0  0  0  0  0  0  0
   38.3770   24.6260   36.6580 N   0  0  0  0  0  0  0  0  0  0  0  0
   37.1490   26.2490   36.1120 H   0  0  0  0  0  0  0  0  0  0  0  0
   40.6980   25.6510   33.7730 H   0  0  0  0  0  0  0  0  0  0  0  0
   40.0030   22.7390   37.1310 C   0  0  0  0  0  0  0  0  0  0  0  0
   39.4490   22.6540   38.3960 F   0  0  0  0  0  0  0  0  0  0  0  0
   41.3860   22.7950   37.3340 F   0  0  0  0  0  0  0  0  0  0  0  0
   39.6320   21.6100   36.4270 F   0  0  0  0  0  0  0  0  0  0  0  0
  1  4  1  1  0  0  0
  1 20  1  0  0  0  0
  2  3  1  0  0  0  0
  2  1  1  0  0  0  0
  3  7  1  6  0  0  0
  3  1  1  0  0  0  0
  5  2  1  0  0  0  0
  6  2  1  0  0  0  0
  8  9  1  0  0  0  0
  9 10  1  0  0  0  0
 10  3  1  0  0  0  0
 10 11  2  0  0  0  0
 11 12  1  0  0  0  0
 11 16  1  0  0  0  0
 12 17  1  0  0  0  0
 13 12  2  0  0  0  0
 14 13  1  0  0  0  0
 15  9  2  0  0  0  0
 15 13  1  0  0  0  0
 18 15  1  0  0  0  0
 19 25  1  0  0  0  0
 19 24  1  0  0  0  0
 20 19  2  0  0  0  0
 21 20  1  0  0  0  0
 21 22  2  0  0  0  0
 22 23  1  0  0  0  0
 23 24  2  0  0  0  0
 23 27  1  0  0  0  0
 26 21  1  0  0  0  0
 27 29  1  0  0  0  0
 27 28  1  0  0  0  0
 30 27  1  0  0  0  0
M  END
>  <minimizedAffinity>
-5.18918324

$$$$

 OpenBabel03262522443D

 30 32  0  0  1  0  0  0  0  0999 V2000
   37.6980   25.9920   33.0940 C   0  0  1  0  0  0  0  0  0  0  0  0
   37.6410   27.4620   32.9770 C   0  0  0  0  0  0  0  0  0  0  0  0
   38.8690   26.8370   32.5310 C   0  0  2  0  0  0  0  0  0  0  0  0
   37.3050   25.2930   32.3480 H   0  0  0  0  0  0  0  0  0  0  0  0
   36.7720   27.7750   32.4000 H   0  0  0  0  0  0  0  0  0  0  0  0
   37.6760   28.0240   33.9670 H   0  0  0  0  0  0  0  0  0  0  0  0
   39.7230   26.5130   33.1760 H   0  0  0  0  0  0  0  0  0  0  0  0
   40.3100   24.4330   31.1370 Cl  0  0  0  0  0  0  0  0  0  0  0  0
   39.8590   25.9180   30.3270 C   0  0  0  0  0  0  0  0  0  0  0  0
   39.1890   26.8300   31.1130 C   0  0  0  0  0  0  0  0  0  0  0  0
   38.7720   27.9670   30.5010 C   0  0  0  0  0  0  0  0  0  0  0  0
   39.0040   28.2100   29.1340 C   0  0  0  0  0  0  0  0  0  0  0  0
   39.6860   27.2580   28.3670 C   0  0  0  0  0  0  0  0  0  0  0  0
   39.9680   27.4120   26.6560 Cl  0  0  0  0  0  0  0  0  0  0  0  0
   40.1130   26.0970   29.0020 C   0  0  0  0  0  0  0  0  0  0  0  0
   38.2370   28.8030   30.9310 H   0  0  0  0  0  0  0  0  0  0  0  0
   38.7030   29.0860   28.5940 H   0  0  0  0  0  0  0  0  0  0  0  0
   40.6490   25.3020   28.5040 H   0  0  0  0  0  0  0  0  0  0  0  0
   38.1280   23.9850   34.6210 C   0  0  0  0  0  0  0  0  0  0  0  0
   37.8870   25.3980   34.4500 C   0  0  0  0  0  0  0  0  0  0  0  0
   37.8090   26.1810   35.5920 C   0  0  0  0  0  0  0  0  0  0  0  0
   37.9650   25.5760   36.8130 N   0  0  0  0  0  0  0  0  0  0  0  0
   38.1900   24.2470   36.9380 C   0  0  0  0  0  0  0  0  0  0  0  0
   38.2710   23.4640   35.8470 N   0  0  0  0  0  0  0  0  0  0  0  0
   38.1900   23.3690   33.7430 H   0  0  0  0  0  0  0  0  0  0  0  0
   37.6310   27.2390   35.5150 H   0  0  0  0  0  0  0  0  0  0  0  0
   38.3260   23.8200   38.3560 C   0  0  0  0  0  0  0  0  0  0  0  0
   39.5480   23.2130   38.5850 F   0  0  0  0  0  0  0  0  0  0  0  0
   37.3660   22.8660   38.7080 F   0  0  0  0  0  0  0  0  0  0  0  0
   38.2520   24.9440   39.1580 F   0  0  0  0  0  0  0  0  0  0  0  0
  1  4  1  6  0  0  0
  1 20  1  0  0  0  0
  2  1  1  0  0  0  0
  2  6  1  0  0  0  0
  3  2  1  0  0  0  0
  3  1  1  0  0  0  0
  3  7  1  1  0  0  0
  5  2  1  0  0  0  0
  9 10  1  0  0  0  0
  9  8  1  0  0  0  0
 10  3  1  0  0  0  0
 11 16  1  0  0  0  0
 11 10  2  0  0  0  0
 12 11  1  0  0  0  0
 13 15  1  0  0  0  0
 13 12  2  0  0  0  0
 14 13  1  0  0  0  0
 15  9  2  0  0  0  0
 17 12  1  0  0  0  0
 18 15  1  0  0  0  0
 19 24  1  0  0  0  0
 20 19  2  0  0  0  0
 20 21  1  0  0  0  0
 21 22  2  0  0  0  0
 22 23  1  0  0  0  0
 23 27  1  0  0  0  0
 24 23  2  0  0  0  0
 25 19  1  0  0  0  0
 26 21  1  0  0  0  0
 27 28  1  0  0  0  0
 27 29  1  0  0  0  0
 27 30  1  0  0  0  0
M  END
>  <minimizedAffinity>
-5.16455746

$$$$
