
 OpenBabel03272510083D

 39 42  0  0  0  0  0  0  0  0999 V2000
   36.0050   28.7950   49.0400 C   0  0  0  0  0  0  0  0  0  0  0  0
   35.9310   30.2180   48.7430 C   0  0  0  0  0  0  0  0  0  0  0  0
   34.6630   30.7840   48.4580 C   0  0  0  0  0  0  0  0  0  0  0  0
   33.5940   29.9720   48.4540 N   0  0  0  0  0  0  0  0  0  0  0  0
   33.6910   28.6540   48.7190 C   0  0  0  0  0  0  0  0  0  0  0  0
   34.8750   28.0720   49.0130 N   0  0  0  0  0  0  0  0  0  0  0  0
   32.4970   27.8440   48.6230 N   0  0  0  0  0  0  0  0  0  0  0  0
   31.3350   28.0530   49.4230 C   0  0  0  0  0  0  0  0  0  0  0  0
   30.2800   27.1870   48.7980 C   0  0  0  0  0  0  0  0  0  0  0  0
   30.8560   26.6700   47.4910 C   0  0  0  0  0  0  0  0  0  0  0  0
   32.3100   26.7110   47.6980 C   0  0  0  0  0  0  0  0  0  0  0  0
   36.9950   28.4360   49.2640 H   0  0  0  0  0  0  0  0  0  0  0  0
   34.5410   31.8150   48.2520 H   0  0  0  0  0  0  0  0  0  0  0  0
   31.0330   29.1380   49.4320 H   0  0  0  0  0  0  0  0  0  0  0  0
   31.5160   27.7320   50.4510 H   0  0  0  0  0  0  0  0  0  0  0  0
   30.0250   26.3220   49.4380 H   0  0  0  0  0  0  0  0  0  0  0  0
   29.3370   27.7480   48.5860 H   0  0  0  0  0  0  0  0  0  0  0  0
   30.4830   25.6510   47.2610 H   0  0  0  0  0  0  0  0  0  0  0  0
   30.5520   27.3150   46.6490 H   0  0  0  0  0  0  0  0  0  0  0  0
   32.8230   26.9590   46.7530 H   0  0  0  0  0  0  0  0  0  0  0  0
   32.7730   25.7840   48.1070 H   0  0  0  0  0  0  0  0  0  0  0  0
   37.0080   31.1260   48.7170 C   0  0  0  0  0  0  0  0  0  0  0  0
   37.4010   31.5440   49.9290 N   0  0  0  0  0  0  0  0  0  0  0  0
   38.3880   32.4510   50.0330 C   0  0  0  0  0  0  0  0  0  0  0  0
   39.0400   32.9940   48.9660 N   0  0  0  0  0  0  0  0  0  0  0  0
   38.6580   32.5800   47.7380 C   0  0  0  0  0  0  0  0  0  0  0  0
   39.2720   33.0310   46.5910 C   0  0  0  0  0  0  0  0  0  0  0  0
   38.9030   32.5750   45.3570 C   0  0  0  0  0  0  0  0  0  0  0  0
   37.8920   31.6490   45.3110 C   0  0  0  0  0  0  0  0  0  0  0  0
   37.2400   31.1660   46.4140 C   0  0  0  0  0  0  0  0  0  0  0  0
   37.6450   31.6490   47.6230 C   0  0  0  0  0  0  0  0  0  0  0  0
   38.7640   32.8430   50.9720 H   0  0  0  0  0  0  0  0  0  0  0  0
   40.0490   33.7600   46.7700 H   0  0  0  0  0  0  0  0  0  0  0  0
   39.4400   32.9850   44.5340 H   0  0  0  0  0  0  0  0  0  0  0  0
   37.7180   31.3890   44.2500 H   0  0  0  0  0  0  0  0  0  0  0  0
   36.2240   30.2110   46.0480 C   0  0  0  0  0  0  0  0  0  0  0  0
   35.0890   29.9840   46.6650 F   0  0  0  0  0  0  0  0  0  0  0  0
   36.4530   29.6050   44.7920 F   0  0  0  0  0  0  0  0  0  0  0  0
   36.6010   28.9190   46.5920 F   0  0  0  0  0  0  0  0  0  0  0  0
  1 12  1  0  0  0  0
  2  1  2  0  0  0  0
  3  2  1  0  0  0  0
  4  3  2  0  0  0  0
  4  5  1  0  0  0  0
  5  6  2  0  0  0  0
  6  1  1  0  0  0  0
  7  5  1  0  0  0  0
  7  8  1  0  0  0  0
  8 14  1  0  0  0  0
  8 15  1  0  0  0  0
  9  8  1  0  0  0  0
  9 16  1  0  0  0  0
 10 11  1  0  0  0  0
 10  9  1  0  0  0  0
 11 21  1  0  0  0  0
 11  7  1  0  0  0  0
 13  3  1  0  0  0  0
 17  9  1  0  0  0  0
 18 10  1  0  0  0  0
 19 10  1  0  0  0  0
 20 11  1  0  0  0  0
 22  2  1  0  0  0  0
 22 23  1  0  0  0  0
 23 24  2  0  0  0  0
 24 32  1  0  0  0  0
 25 24  1  0  0  0  0
 26 25  2  0  0  0  0
 27 33  1  0  0  0  0
 27 26  1  0  0  0  0
 28 27  2  0  0  0  0
 29 28  1  0  0  0  0
 29 30  2  0  0  0  0
 30 31  1  0  0  0  0
 31 26  1  0  0  0  0
 31 22  2  0  0  0  0
 34 28  1  0  0  0  0
 35 29  1  0  0  0  0
 36 30  1  0  0  0  0
 36 39  1  0  0  0  0
 36 37  1  0  0  0  0
 38 36  1  0  0  0  0
M  END
>  <minimizedAffinity>
-4.13648176

>  <minimizedRMSD>
0.970477581

$$$$
