
 OpenBabel03272510223D

 26 28  0  0  0  0  0  0  0  0999 V2000
   35.8850   30.0960   46.8950 C   0  0  0  0  0  0  0  0  0  0  0  0
   36.8390   30.5650   47.7670 C   0  0  0  0  0  0  0  0  0  0  0  0
   37.8890   31.3270   47.3080 C   0  0  0  0  0  0  0  0  0  0  0  0
   37.9390   31.5970   45.9530 C   0  0  0  0  0  0  0  0  0  0  0  0
   38.8750   32.3240   45.2700 N   0  0  0  0  0  0  0  0  0  0  0  0
   38.5160   32.3140   43.9790 C   0  0  0  0  0  0  0  0  0  0  0  0
   37.3840   31.6070   43.8090 N   0  0  0  0  0  0  0  0  0  0  0  0
   37.0020   31.1470   45.0300 C   0  0  0  0  0  0  0  0  0  0  0  0
   35.9610   30.3840   45.5260 C   0  0  0  0  0  0  0  0  0  0  0  0
   35.0380   29.4950   47.1860 H   0  0  0  0  0  0  0  0  0  0  0  0
   38.6300   31.6920   47.9920 H   0  0  0  0  0  0  0  0  0  0  0  0
   39.7240   32.8050   45.6750 H   0  0  0  0  0  0  0  0  0  0  0  0
   35.2080   30.0150   44.8220 H   0  0  0  0  0  0  0  0  0  0  0  0
   37.3580   30.1120   51.4730 C   0  0  0  0  0  0  0  0  0  0  0  0
   37.5970   30.4850   50.1550 C   0  0  0  0  0  0  0  0  0  0  0  0
   36.6660   30.2090   49.1720 C   0  0  0  0  0  0  0  0  0  0  0  0
   35.5160   29.5660   49.5320 N   0  0  0  0  0  0  0  0  0  0  0  0
   35.3110   29.2120   50.8390 C   0  0  0  0  0  0  0  0  0  0  0  0
   36.2100   29.4790   51.7820 N   0  0  0  0  0  0  0  0  0  0  0  0
   38.1010   30.3430   52.2090 H   0  0  0  0  0  0  0  0  0  0  0  0
   38.4990   30.9870   49.8920 H   0  0  0  0  0  0  0  0  0  0  0  0
   34.3650   28.7060   51.0100 H   0  0  0  0  0  0  0  0  0  0  0  0
   39.3050   33.0110   42.9190 C   0  0  0  0  0  0  0  0  0  0  0  0
   40.1570   32.1880   42.2430 F   0  0  0  0  0  0  0  0  0  0  0  0
   40.0360   34.0440   43.4990 F   0  0  0  0  0  0  0  0  0  0  0  0
   38.4670   33.6180   42.0000 F   0  0  0  0  0  0  0  0  0  0  0  0
  1 10  1  0  0  0  0
  1  2  1  0  0  0  0
  2 16  1  0  0  0  0
  3  2  2  0  0  0  0
  3 11  1  0  0  0  0
  4  3  1  0  0  0  0
  5 12  1  0  0  0  0
  5  4  1  0  0  0  0
  6  5  1  0  0  0  0
  7  6  2  0  0  0  0
  7  8  1  0  0  0  0
  8  9  1  0  0  0  0
  8  4  2  0  0  0  0
  9  1  2  0  0  0  0
 13  9  1  0  0  0  0
 14 19  1  0  0  0  0
 14 20  1  0  0  0  0
 15 14  2  0  0  0  0
 16 17  2  0  0  0  0
 16 15  1  0  0  0  0
 17 18  1  0  0  0  0
 18 22  1  0  0  0  0
 18 19  2  0  0  0  0
 21 15  1  0  0  0  0
 23 25  1  0  0  0  0
 23  6  1  0  0  0  0
 24 23  1  0  0  0  0
 26 23  1  0  0  0  0
M  END
>  <minimizedAffinity>
-5.38415384

>  <minimizedRMSD>
1.71090019

$$$$
