
 OpenBabel03262523203D

 25 26  0  0  1  0  0  0  0  0999 V2000
   37.2640   22.1670   32.7720 C   0  0  0  0  0  0  0  0  0  0  0  0
   36.7980   22.6310   31.5350 C   0  0  0  0  0  0  0  0  0  0  0  0
   36.8700   24.0140   31.2830 C   0  0  0  0  0  0  0  0  0  0  0  0
   37.3860   24.8230   32.2520 N   0  0  0  0  0  0  0  0  0  0  0  0
   37.8240   24.3240   33.4340 C   0  0  0  0  0  0  0  0  0  0  0  0
   37.7690   23.0090   33.7050 N   0  0  0  0  0  0  0  0  0  0  0  0
   38.3510   25.2520   34.3940 N   0  0  0  0  0  0  0  0  0  0  0  0
   39.5200   26.0910   34.1350 C   0  0  0  0  0  0  0  0  0  0  0  0
   39.5210   27.0800   35.2420 C   0  0  0  0  0  0  0  0  0  0  0  0
   38.2530   26.8580   36.0280 C   0  0  0  0  0  0  0  0  0  0  0  0
   37.8080   25.4780   35.7170 C   0  0  2  0  0  0  0  0  0  0  0  0
   37.2110   21.1060   32.9710 H   0  0  0  0  0  0  0  0  0  0  0  0
   36.3910   22.0000   30.7680 H   0  0  0  0  0  0  0  0  0  0  0  0
   36.5310   24.4530   30.3500 H   0  0  0  0  0  0  0  0  0  0  0  0
   39.4270   26.5280   33.1220 H   0  0  0  0  0  0  0  0  0  0  0  0
   40.4190   25.4520   34.1610 H   0  0  0  0  0  0  0  0  0  0  0  0
   39.4490   28.1110   34.8030 H   0  0  0  0  0  0  0  0  0  0  0  0
   40.4350   27.0310   35.8500 H   0  0  0  0  0  0  0  0  0  0  0  0
   37.4870   27.6450   35.8120 H   0  0  0  0  0  0  0  0  0  0  0  0
   38.5000   26.9580   37.1130 H   0  0  0  0  0  0  0  0  0  0  0  0
   36.6940   25.5010   35.6130 H   0  0  0  0  0  0  0  0  0  0  0  0
   38.1320   24.4420   36.7260 C   0  0  0  0  0  0  0  0  0  0  0  0
   38.1590   25.0930   37.9670 F   0  0  0  0  0  0  0  0  0  0  0  0
   37.1450   23.5070   36.7800 F   0  0  0  0  0  0  0  0  0  0  0  0
   39.3230   23.8130   36.5620 F   0  0  0  0  0  0  0  0  0  0  0  0
  1 12  1  0  0  0  0
  1  6  1  0  0  0  0
  2  1  2  0  0  0  0
  3  2  1  0  0  0  0
  3  4  2  0  0  0  0
  4  5  1  0  0  0  0
  5  6  2  0  0  0  0
  5  7  1  0  0  0  0
  7 11  1  0  0  0  0
  8 16  1  0  0  0  0
  8  7  1  0  0  0  0
  8  9  1  0  0  0  0
  9 18  1  0  0  0  0
  9 10  1  0  0  0  0
 10 20  1  0  0  0  0
 11 21  1  6  0  0  0
 11 10  1  0  0  0  0
 11 22  1  0  0  0  0
 13  2  1  0  0  0  0
 14  3  1  0  0  0  0
 15  8  1  0  0  0  0
 17  9  1  0  0  0  0
 19 10  1  0  0  0  0
 22 24  1  0  0  0  0
 22 23  1  0  0  0  0
 25 22  1  0  0  0  0
M  END
>  <minimizedAffinity>
-4.41470861

$$$$

 OpenBabel03262523203D

 25 26  0  0  1  0  0  0  0  0999 V2000
   36.9050   21.9270   32.9780 C   0  0  0  0  0  0  0  0  0  0  0  0
   35.9030   20.9910   33.2610 C   0  0  0  0  0  0  0  0  0  0  0  0
   35.7060   20.6270   34.6070 C   0  0  0  0  0  0  0  0  0  0  0  0
   36.4970   21.2030   35.5560 N   0  0  0  0  0  0  0  0  0  0  0  0
   37.4560   22.1040   35.2290 C   0  0  0  0  0  0  0  0  0  0  0  0
   37.6690   22.4720   33.9550 N   0  0  0  0  0  0  0  0  0  0  0  0
   38.2410   22.6560   36.2960 N   0  0  0  0  0  0  0  0  0  0  0  0
   37.6640   23.4310   37.3940 C   0  0  0  0  0  0  0  0  0  0  0  0
   38.7590   23.5340   38.3920 C   0  0  0  0  0  0  0  0  0  0  0  0
   39.8950   22.6810   37.8850 C   0  0  0  0  0  0  0  0  0  0  0  0
   39.6770   22.5240   36.4270 C   0  0  2  0  0  0  0  0  0  0  0  0
   37.0620   22.2100   31.9460 H   0  0  0  0  0  0  0  0  0  0  0  0
   35.2760   20.5340   32.5190 H   0  0  0  0  0  0  0  0  0  0  0  0
   34.9490   19.9100   34.9100 H   0  0  0  0  0  0  0  0  0  0  0  0
   36.7540   22.9130   37.7550 H   0  0  0  0  0  0  0  0  0  0  0  0
   37.3750   24.4220   37.0060 H   0  0  0  0  0  0  0  0  0  0  0  0
   38.4130   23.0680   39.3530 H   0  0  0  0  0  0  0  0  0  0  0  0
   39.0430   24.5750   38.6000 H   0  0  0  0  0  0  0  0  0  0  0  0
   39.9690   21.7130   38.4430 H   0  0  0  0  0  0  0  0  0  0  0  0
   40.8490   23.2260   38.0850 H   0  0  0  0  0  0  0  0  0  0  0  0
   39.9320   21.4670   36.1620 H   0  0  0  0  0  0  0  0  0  0  0  0
   40.4820   23.4020   35.5460 C   0  0  0  0  0  0  0  0  0  0  0  0
   40.7190   22.6750   34.3710 F   0  0  0  0  0  0  0  0  0  0  0  0
   39.7700   24.5090   35.2010 F   0  0  0  0  0  0  0  0  0  0  0  0
   41.6840   23.7910   36.0410 F   0  0  0  0  0  0  0  0  0  0  0  0
  1  2  2  0  0  0  0
  1  6  1  0  0  0  0
  2  3  1  0  0  0  0
  3 14  1  0  0  0  0
  3  4  2  0  0  0  0
  5  4  1  0  0  0  0
  5  7  1  0  0  0  0
  6  5  2  0  0  0  0
  7 11  1  0  0  0  0
  7  8  1  0  0  0  0
  8 15  1  0  0  0  0
  8  9  1  0  0  0  0
  9 18  1  0  0  0  0
  9 17  1  0  0  0  0
 10 20  1  0  0  0  0
 10  9  1  0  0  0  0
 10 19  1  0  0  0  0
 11 21  1  6  0  0  0
 11 10  1  0  0  0  0
 12  1  1  0  0  0  0
 13  2  1  0  0  0  0
 16  8  1  0  0  0  0
 22 25  1  0  0  0  0
 22 11  1  0  0  0  0
 23 22  1  0  0  0  0
 24 22  1  0  0  0  0
M  END
>  <minimizedAffinity>
-4.33977699

$$$$

 OpenBabel03262523203D

 25 26  0  0  1  0  0  0  0  0999 V2000
   42.1440   21.1270   37.2370 C   0  0  0  0  0  0  0  0  0  0  0  0
   42.5570   20.6380   35.9910 C   0  0  0  0  0  0  0  0  0  0  0  0
   41.9710   21.1980   34.8400 C   0  0  0  0  0  0  0  0  0  0  0  0
   41.0380   22.1800   34.9990 N   0  0  0  0  0  0  0  0  0  0  0  0
   40.6720   22.6170   36.2290 C   0  0  0  0  0  0  0  0  0  0  0  0
   41.2120   22.1030   37.3470 N   0  0  0  0  0  0  0  0  0  0  0  0
   39.6820   23.6540   36.2980 N   0  0  0  0  0  0  0  0  0  0  0  0
   39.8700   24.9780   35.7090 C   0  0  0  0  0  0  0  0  0  0  0  0
   38.5220   25.5990   35.7500 C   0  0  0  0  0  0  0  0  0  0  0  0
   37.5670   24.5380   36.2380 C   0  0  0  0  0  0  0  0  0  0  0  0
   38.3920   23.5290   36.9450 C   0  0  2  0  0  0  0  0  0  0  0  0
   42.5900   20.7000   38.1250 H   0  0  0  0  0  0  0  0  0  0  0  0
   43.2910   19.8660   35.8580 H   0  0  0  0  0  0  0  0  0  0  0  0
   42.2370   20.8760   33.8380 H   0  0  0  0  0  0  0  0  0  0  0  0
   40.2950   24.8590   34.6940 H   0  0  0  0  0  0  0  0  0  0  0  0
   40.5920   25.5350   36.3300 H   0  0  0  0  0  0  0  0  0  0  0  0
   38.2110   25.8510   34.7010 H   0  0  0  0  0  0  0  0  0  0  0  0
   38.5010   26.5230   36.3440 H   0  0  0  0  0  0  0  0  0  0  0  0
   36.9490   24.1190   35.4030 H   0  0  0  0  0  0  0  0  0  0  0  0
   36.8470   25.0220   36.9420 H   0  0  0  0  0  0  0  0  0  0  0  0
   37.9900   22.5210   36.6790 H   0  0  0  0  0  0  0  0  0  0  0  0
   38.4090   23.6180   38.4240 C   0  0  0  0  0  0  0  0  0  0  0  0
   37.7760   24.8230   38.7570 F   0  0  0  0  0  0  0  0  0  0  0  0
   37.6740   22.6100   38.9680 F   0  0  0  0  0  0  0  0  0  0  0  0
   39.6380   23.6230   39.0000 F   0  0  0  0  0  0  0  0  0  0  0  0
  1  6  1  0  0  0  0
  1 12  1  0  0  0  0
  2  1  2  0  0  0  0
  3  4  2  0  0  0  0
  3  2  1  0  0  0  0
  4  5  1  0  0  0  0
  5  7  1  0  0  0  0
  5  6  2  0  0  0  0
  7 11  1  0  0  0  0
  8  9  1  0  0  0  0
  8  7  1  0  0  0  0
  8 16  1  0  0  0  0
  9 10  1  0  0  0  0
  9 18  1  0  0  0  0
 10 20  1  0  0  0  0
 10 11  1  0  0  0  0
 11 21  1  6  0  0  0
 11 22  1  0  0  0  0
 13  2  1  0  0  0  0
 14  3  1  0  0  0  0
 15  8  1  0  0  0  0
 17  9  1  0  0  0  0
 19 10  1  0  0  0  0
 22 23  1  0  0  0  0
 22 24  1  0  0  0  0
 22 25  1  0  0  0  0
M  END
>  <minimizedAffinity>
-4.31716728

$$$$

 OpenBabel03262523203D

 25 26  0  0  1  0  0  0  0  0999 V2000
   38.1780   23.3140   31.8380 C   0  0  0  0  0  0  0  0  0  0  0  0
   37.0500   22.7390   31.2390 C   0  0  0  0  0  0  0  0  0  0  0  0
   35.8620   23.4940   31.2160 C   0  0  0  0  0  0  0  0  0  0  0  0
   35.8740   24.7380   31.7750 N   0  0  0  0  0  0  0  0  0  0  0  0
   36.9930   25.2490   32.3440 C   0  0  0  0  0  0  0  0  0  0  0  0
   38.1420   24.5530   32.3830 N   0  0  0  0  0  0  0  0  0  0  0  0
   36.9100   26.5660   32.9080 N   0  0  0  0  0  0  0  0  0  0  0  0
   36.5770   27.7520   32.1210 C   0  0  0  0  0  0  0  0  0  0  0  0
   36.3110   28.8070   33.1310 C   0  0  0  0  0  0  0  0  0  0  0  0
   36.3620   28.1410   34.4830 C   0  0  0  0  0  0  0  0  0  0  0  0
   37.1390   26.8900   34.3010 C   0  0  2  0  0  0  0  0  0  0  0  0
   39.0930   22.7380   31.8600 H   0  0  0  0  0  0  0  0  0  0  0  0
   37.0340   21.7610   30.7970 H   0  0  0  0  0  0  0  0  0  0  0  0
   34.9450   23.1210   30.7700 H   0  0  0  0  0  0  0  0  0  0  0  0
   35.7200   27.5140   31.4620 H   0  0  0  0  0  0  0  0  0  0  0  0
   37.4470   28.0060   31.4900 H   0  0  0  0  0  0  0  0  0  0  0  0
   35.2590   29.1760   32.9970 H   0  0  0  0  0  0  0  0  0  0  0  0
   36.9890   29.6660   33.0340 H   0  0  0  0  0  0  0  0  0  0  0  0
   35.3390   27.9840   34.9090 H   0  0  0  0  0  0  0  0  0  0  0  0
   36.8870   28.8310   35.1870 H   0  0  0  0  0  0  0  0  0  0  0  0
   36.6390   26.0940   34.9070 H   0  0  0  0  0  0  0  0  0  0  0  0
   38.5590   26.9340   34.7210 C   0  0  0  0  0  0  0  0  0  0  0  0
   38.6430   27.8980   35.7350 F   0  0  0  0  0  0  0  0  0  0  0  0
   38.9310   25.7420   35.2620 F   0  0  0  0  0  0  0  0  0  0  0  0
   39.4490   27.2730   33.7540 F   0  0  0  0  0  0  0  0  0  0  0  0
  1 12  1  0  0  0  0
  1  6  1  0  0  0  0
  2  1  2  0  0  0  0
  3  2  1  0  0  0  0
  3  4  2  0  0  0  0
  4  5  1  0  0  0  0
  5  6  2  0  0  0  0
  5  7  1  0  0  0  0
  7 11  1  0  0  0  0
  8  7  1  0  0  0  0
  8  9  1  0  0  0  0
  9 10  1  0  0  0  0
 10 19  1  0  0  0  0
 10 20  1  0  0  0  0
 11 10  1  0  0  0  0
 11 22  1  0  0  0  0
 11 21  1  1  0  0  0
 13  2  1  0  0  0  0
 14  3  1  0  0  0  0
 15  8  1  0  0  0  0
 16  8  1  0  0  0  0
 17  9  1  0  0  0  0
 18  9  1  0  0  0  0
 22 24  1  0  0  0  0
 22 23  1  0  0  0  0
 25 22  1  0  0  0  0
M  END
>  <minimizedAffinity>
-4.20796394

$$$$

 OpenBabel03262523203D

 25 26  0  0  1  0  0  0  0  0999 V2000
   36.0030   23.7380   31.6280 C   0  0  0  0  0  0  0  0  0  0  0  0
   35.2090   24.6860   30.9710 C   0  0  0  0  0  0  0  0  0  0  0  0
   35.4950   26.0470   31.1910 C   0  0  0  0  0  0  0  0  0  0  0  0
   36.5230   26.3660   32.0270 N   0  0  0  0  0  0  0  0  0  0  0  0
   37.2620   25.4090   32.6410 C   0  0  0  0  0  0  0  0  0  0  0  0
   37.0140   24.1020   32.4520 N   0  0  0  0  0  0  0  0  0  0  0  0
   38.3240   25.8400   33.5040 N   0  0  0  0  0  0  0  0  0  0  0  0
   39.4560   26.6400   33.0390 C   0  0  0  0  0  0  0  0  0  0  0  0
   40.1230   27.0990   34.2840 C   0  0  0  0  0  0  0  0  0  0  0  0
   39.2540   26.6580   35.4350 C   0  0  0  0  0  0  0  0  0  0  0  0
   38.4140   25.5490   34.9200 C   0  0  2  0  0  0  0  0  0  0  0  0
   35.7870   22.6910   31.4640 H   0  0  0  0  0  0  0  0  0  0  0  0
   34.3980   24.4420   30.3110 H   0  0  0  0  0  0  0  0  0  0  0  0
   34.9270   26.8430   30.7190 H   0  0  0  0  0  0  0  0  0  0  0  0
   39.0760   27.4510   32.3890 H   0  0  0  0  0  0  0  0  0  0  0  0
   40.1180   25.9900   32.4410 H   0  0  0  0  0  0  0  0  0  0  0  0
   40.1250   28.2220   34.2960 H   0  0  0  0  0  0  0  0  0  0  0  0
   41.1640   26.7550   34.3560 H   0  0  0  0  0  0  0  0  0  0  0  0
   38.6700   27.5110   35.8650 H   0  0  0  0  0  0  0  0  0  0  0  0
   39.9240   26.2990   36.2530 H   0  0  0  0  0  0  0  0  0  0  0  0
   37.3890   25.6800   35.3460 H   0  0  0  0  0  0  0  0  0  0  0  0
   38.8590   24.1780   35.2620 C   0  0  0  0  0  0  0  0  0  0  0  0
   37.6960   23.4140   35.4300 F   0  0  0  0  0  0  0  0  0  0  0  0
   39.5570   23.6330   34.2290 F   0  0  0  0  0  0  0  0  0  0  0  0
   39.5960   24.0630   36.3960 F   0  0  0  0  0  0  0  0  0  0  0  0
  1  6  1  0  0  0  0
  2  3  1  0  0  0  0
  2  1  2  0  0  0  0
  3  4  2  0  0  0  0
  4  5  1  0  0  0  0
  5  7  1  0  0  0  0
  6  5  2  0  0  0  0
  7 11  1  0  0  0  0
  8  7  1  0  0  0  0
  8  9  1  0  0  0  0
  9 17  1  0  0  0  0
  9 18  1  0  0  0  0
  9 10  1  0  0  0  0
 10 19  1  0  0  0  0
 10 20  1  0  0  0  0
 11 22  1  0  0  0  0
 11 21  1  1  0  0  0
 11 10  1  0  0  0  0
 12  1  1  0  0  0  0
 13  2  1  0  0  0  0
 14  3  1  0  0  0  0
 15  8  1  0  0  0  0
 16  8  1  0  0  0  0
 22 23  1  0  0  0  0
 22 25  1  0  0  0  0
 24 22  1  0  0  0  0
M  END
>  <minimizedAffinity>
-4.18616199

$$$$

 OpenBabel03262523203D

 25 26  0  0  1  0  0  0  0  0999 V2000
   38.4240   25.8800   35.7270 C   0  0  0  0  0  0  0  0  0  0  0  0
   38.8660   27.0100   35.0260 C   0  0  0  0  0  0  0  0  0  0  0  0
   40.1460   26.9610   34.4440 C   0  0  0  0  0  0  0  0  0  0  0  0
   40.8840   25.8230   34.5920 N   0  0  0  0  0  0  0  0  0  0  0  0
   40.4100   24.7560   35.2820 C   0  0  0  0  0  0  0  0  0  0  0  0
   39.1920   24.7710   35.8500 N   0  0  0  0  0  0  0  0  0  0  0  0
   41.2570   23.6030   35.3850 N   0  0  0  0  0  0  0  0  0  0  0  0
   41.7230   22.8460   34.2240 C   0  0  0  0  0  0  0  0  0  0  0  0
   42.7840   21.9570   34.7600 C   0  0  0  0  0  0  0  0  0  0  0  0
   42.9900   22.3420   36.2030 C   0  0  0  0  0  0  0  0  0  0  0  0
   41.7550   23.0450   36.6270 C   0  0  2  0  0  0  0  0  0  0  0  0
   37.4420   25.9110   36.1770 H   0  0  0  0  0  0  0  0  0  0  0  0
   38.2910   27.9080   34.9060 H   0  0  0  0  0  0  0  0  0  0  0  0
   40.5620   27.7940   33.8840 H   0  0  0  0  0  0  0  0  0  0  0  0
   42.0630   23.5590   33.4480 H   0  0  0  0  0  0  0  0  0  0  0  0
   40.8730   22.2680   33.8230 H   0  0  0  0  0  0  0  0  0  0  0  0
   43.7460   22.1850   34.2280 H   0  0  0  0  0  0  0  0  0  0  0  0
   42.5560   20.8920   34.6130 H   0  0  0  0  0  0  0  0  0  0  0  0
   43.9270   22.9400   36.3450 H   0  0  0  0  0  0  0  0  0  0  0  0
   43.1310   21.4040   36.7930 H   0  0  0  0  0  0  0  0  0  0  0  0
   42.0630   23.9070   37.2700 H   0  0  0  0  0  0  0  0  0  0  0  0
   40.7790   22.2460   37.4030 C   0  0  0  0  0  0  0  0  0  0  0  0
   39.9000   21.6780   36.4710 F   0  0  0  0  0  0  0  0  0  0  0  0
   41.4070   21.2230   38.0440 F   0  0  0  0  0  0  0  0  0  0  0  0
   40.0360   22.9360   38.3050 F   0  0  0  0  0  0  0  0  0  0  0  0
  1  6  1  0  0  0  0
  1 12  1  0  0  0  0
  2  1  2  0  0  0  0
  3  4  2  0  0  0  0
  3  2  1  0  0  0  0
  4  5  1  0  0  0  0
  5  7  1  0  0  0  0
  5  6  2  0  0  0  0
  7 11  1  0  0  0  0
  8  9  1  0  0  0  0
  8  7  1  0  0  0  0
  9 10  1  0  0  0  0
 10 19  1  0  0  0  0
 10 11  1  0  0  0  0
 10 20  1  0  0  0  0
 11 21  1  1  0  0  0
 11 22  1  0  0  0  0
 13  2  1  0  0  0  0
 14  3  1  0  0  0  0
 15  8  1  0  0  0  0
 16  8  1  0  0  0  0
 17  9  1  0  0  0  0
 18  9  1  0  0  0  0
 22 24  1  0  0  0  0
 22 25  1  0  0  0  0
 23 22  1  0  0  0  0
M  END
>  <minimizedAffinity>
-4.17257357

$$$$

 OpenBabel03262523203D

 25 26  0  0  1  0  0  0  0  0999 V2000
   36.0520   28.6640   31.4840 C   0  0  0  0  0  0  0  0  0  0  0  0
   36.6590   28.9610   30.2560 C   0  0  0  0  0  0  0  0  0  0  0  0
   37.9740   28.5050   30.0470 C   0  0  0  0  0  0  0  0  0  0  0  0
   38.5830   27.8030   31.0450 N   0  0  0  0  0  0  0  0  0  0  0  0
   37.9520   27.5420   32.2160 C   0  0  0  0  0  0  0  0  0  0  0  0
   36.6970   27.9640   32.4470 N   0  0  0  0  0  0  0  0  0  0  0  0
   38.6720   26.7970   33.2080 N   0  0  0  0  0  0  0  0  0  0  0  0
   39.1610   25.4370   32.9870 C   0  0  0  0  0  0  0  0  0  0  0  0
   40.0820   25.1820   34.1230 C   0  0  0  0  0  0  0  0  0  0  0  0
   40.2000   26.4760   34.8890 C   0  0  0  0  0  0  0  0  0  0  0  0
   39.0060   27.2800   34.5320 C   0  0  2  0  0  0  0  0  0  0  0  0
   35.0420   29.0130   31.6510 H   0  0  0  0  0  0  0  0  0  0  0  0
   36.1850   29.5130   29.4670 H   0  0  0  0  0  0  0  0  0  0  0  0
   38.5130   28.6920   29.1240 H   0  0  0  0  0  0  0  0  0  0  0  0
   39.6330   25.3860   31.9860 H   0  0  0  0  0  0  0  0  0  0  0  0
   38.2970   24.7500   33.0040 H   0  0  0  0  0  0  0  0  0  0  0  0
   41.1030   24.9580   33.7140 H   0  0  0  0  0  0  0  0  0  0  0  0
   39.7660   24.3280   34.7390 H   0  0  0  0  0  0  0  0  0  0  0  0
   41.1740   26.9910   34.6890 H   0  0  0  0  0  0  0  0  0  0  0  0
   40.1990   26.2310   35.9790 H   0  0  0  0  0  0  0  0  0  0  0  0
   39.3390   28.3410   34.4170 H   0  0  0  0  0  0  0  0  0  0  0  0
   37.8950   27.2740   35.5130 C   0  0  0  0  0  0  0  0  0  0  0  0
   38.4700   27.0010   36.7610 F   0  0  0  0  0  0  0  0  0  0  0  0
   37.3230   28.5060   35.5900 F   0  0  0  0  0  0  0  0  0  0  0  0
   36.9220   26.3530   35.2950 F   0  0  0  0  0  0  0  0  0  0  0  0
  1 12  1  0  0  0  0
  1  6  1  0  0  0  0
  2  1  2  0  0  0  0
  3  2  1  0  0  0  0
  3  4  2  0  0  0  0
  4  5  1  0  0  0  0
  5  6  2  0  0  0  0
  5  7  1  0  0  0  0
  7 11  1  0  0  0  0
  8 16  1  0  0  0  0
  8  7  1  0  0  0  0
  8  9  1  0  0  0  0
  9 18  1  0  0  0  0
  9 10  1  0  0  0  0
 10 20  1  0  0  0  0
 11 21  1  6  0  0  0
 11 10  1  0  0  0  0
 11 22  1  0  0  0  0
 13  2  1  0  0  0  0
 14  3  1  0  0  0  0
 15  8  1  0  0  0  0
 17  9  1  0  0  0  0
 19 10  1  0  0  0  0
 22 24  1  0  0  0  0
 22 23  1  0  0  0  0
 25 22  1  0  0  0  0
M  END
>  <minimizedAffinity>
-4.16246414

$$$$

 OpenBabel03262523203D

 25 26  0  0  1  0  0  0  0  0999 V2000
   37.4100   26.5040   34.5490 C   0  0  0  0  0  0  0  0  0  0  0  0
   38.3290   27.1280   33.6960 C   0  0  0  0  0  0  0  0  0  0  0  0
   39.6250   26.5860   33.6180 C   0  0  0  0  0  0  0  0  0  0  0  0
   39.9150   25.4880   34.3720 N   0  0  0  0  0  0  0  0  0  0  0  0
   38.9890   24.9210   35.1840 C   0  0  0  0  0  0  0  0  0  0  0  0
   37.7430   25.4150   35.2820 N   0  0  0  0  0  0  0  0  0  0  0  0
   39.3860   23.7680   35.9410 N   0  0  0  0  0  0  0  0  0  0  0  0
   39.8370   22.5220   35.3220 C   0  0  0  0  0  0  0  0  0  0  0  0
   40.4170   21.7390   36.4420 C   0  0  0  0  0  0  0  0  0  0  0  0
   40.4070   22.6360   37.6550 C   0  0  0  0  0  0  0  0  0  0  0  0
   39.3930   23.6850   37.3880 C   0  0  2  0  0  0  0  0  0  0  0  0
   36.4130   26.9160   34.6140 H   0  0  0  0  0  0  0  0  0  0  0  0
   38.1070   27.9930   33.0990 H   0  0  0  0  0  0  0  0  0  0  0  0
   40.3950   27.0100   32.9800 H   0  0  0  0  0  0  0  0  0  0  0  0
   40.5480   22.7660   34.5090 H   0  0  0  0  0  0  0  0  0  0  0  0
   38.9610   22.0150   34.8850 H   0  0  0  0  0  0  0  0  0  0  0  0
   41.4950   21.5270   36.2110 H   0  0  0  0  0  0  0  0  0  0  0  0
   39.9060   20.7790   36.5960 H   0  0  0  0  0  0  0  0  0  0  0  0
   41.4270   23.0350   37.8870 H   0  0  0  0  0  0  0  0  0  0  0  0
   40.1100   22.0170   38.5370 H   0  0  0  0  0  0  0  0  0  0  0  0
   39.8040   24.6530   37.7670 H   0  0  0  0  0  0  0  0  0  0  0  0
   38.0680   23.4930   38.0220 C   0  0  0  0  0  0  0  0  0  0  0  0
   37.2630   22.8500   37.0720 F   0  0  0  0  0  0  0  0  0  0  0  0
   38.1710   22.6620   39.0940 F   0  0  0  0  0  0  0  0  0  0  0  0
   37.4290   24.6260   38.4060 F   0  0  0  0  0  0  0  0  0  0  0  0
  1 12  1  0  0  0  0
  1  6  1  0  0  0  0
  2  1  2  0  0  0  0
  3  2  1  0  0  0  0
  3  4  2  0  0  0  0
  4  5  1  0  0  0  0
  5  6  2  0  0  0  0
  5  7  1  0  0  0  0
  7 11  1  0  0  0  0
  8  7  1  0  0  0  0
  8  9  1  0  0  0  0
  9 18  1  0  0  0  0
  9 10  1  0  0  0  0
 10 19  1  0  0  0  0
 10 20  1  0  0  0  0
 11 10  1  0  0  0  0
 11 21  1  1  0  0  0
 11 22  1  0  0  0  0
 13  2  1  0  0  0  0
 14  3  1  0  0  0  0
 15  8  1  0  0  0  0
 16  8  1  0  0  0  0
 17  9  1  0  0  0  0
 22 25  1  0  0  0  0
 22 24  1  0  0  0  0
 23 22  1  0  0  0  0
M  END
>  <minimizedAffinity>
-4.14516068

$$$$

 OpenBabel03262523203D

 25 26  0  0  1  0  0  0  0  0999 V2000
   36.0720   26.4360   31.6490 C   0  0  0  0  0  0  0  0  0  0  0  0
   35.4990   25.3130   31.0380 C   0  0  0  0  0  0  0  0  0  0  0  0
   35.9490   24.0430   31.4450 C   0  0  0  0  0  0  0  0  0  0  0  0
   36.9140   23.9750   32.4060 N   0  0  0  0  0  0  0  0  0  0  0  0
   37.4380   25.0940   32.9660 C   0  0  0  0  0  0  0  0  0  0  0  0
   37.0300   26.3200   32.5990 N   0  0  0  0  0  0  0  0  0  0  0  0
   38.4490   24.9230   33.9700 N   0  0  0  0  0  0  0  0  0  0  0  0
   38.2160   24.2120   35.2260 C   0  0  0  0  0  0  0  0  0  0  0  0
   39.5710   24.0190   35.8020 C   0  0  0  0  0  0  0  0  0  0  0  0
   40.5580   24.5080   34.7710 C   0  0  0  0  0  0  0  0  0  0  0  0
   39.8060   25.4210   33.8760 C   0  0  2  0  0  0  0  0  0  0  0  0
   35.7300   27.4140   31.3400 H   0  0  0  0  0  0  0  0  0  0  0  0
   34.7390   25.3600   30.2810 H   0  0  0  0  0  0  0  0  0  0  0  0
   35.5560   23.1240   31.0220 H   0  0  0  0  0  0  0  0  0  0  0  0
   37.6670   23.2760   35.0090 H   0  0  0  0  0  0  0  0  0  0  0  0
   37.5880   24.8470   35.8730 H   0  0  0  0  0  0  0  0  0  0  0  0
   39.7560   22.9190   35.9240 H   0  0  0  0  0  0  0  0  0  0  0  0
   39.6840   24.4960   36.7850 H   0  0  0  0  0  0  0  0  0  0  0  0
   41.0600   23.6590   34.2400 H   0  0  0  0  0  0  0  0  0  0  0  0
   41.3690   25.0600   35.3050 H   0  0  0  0  0  0  0  0  0  0  0  0
   40.1530   25.2260   32.8300 H   0  0  0  0  0  0  0  0  0  0  0  0
   39.9730   26.8710   34.1290 C   0  0  0  0  0  0  0  0  0  0  0  0
   41.2280   27.0260   34.7340 F   0  0  0  0  0  0  0  0  0  0  0  0
   40.0010   27.5580   32.9550 F   0  0  0  0  0  0  0  0  0  0  0  0
   39.0480   27.4370   34.9460 F   0  0  0  0  0  0  0  0  0  0  0  0
  1  6  1  0  0  0  0
  2  3  1  0  0  0  0
  2  1  2  0  0  0  0
  3  4  2  0  0  0  0
  4  5  1  0  0  0  0
  5  7  1  0  0  0  0
  6  5  2  0  0  0  0
  7  8  1  0  0  0  0
  8  9  1  0  0  0  0
  8 16  1  0  0  0  0
  9 17  1  0  0  0  0
  9 18  1  0  0  0  0
 10 20  1  0  0  0  0
 10  9  1  0  0  0  0
 11 21  1  6  0  0  0
 11  7  1  0  0  0  0
 11 22  1  0  0  0  0
 11 10  1  0  0  0  0
 12  1  1  0  0  0  0
 13  2  1  0  0  0  0
 14  3  1  0  0  0  0
 15  8  1  0  0  0  0
 19 10  1  0  0  0  0
 22 23  1  0  0  0  0
 22 25  1  0  0  0  0
 24 22  1  0  0  0  0
M  END
>  <minimizedAffinity>
-4.14120436

$$$$
