
 OpenBabel03272509003D

 23 24  0  0  0  0  0  0  0  0999 V2000
   38.4460   31.6680   48.8540 Cl  0  0  0  0  0  0  0  0  0  0  0  0
   37.2170   30.9580   47.8600 C   0  0  0  0  0  0  0  0  0  0  0  0
   37.3610   30.9530   46.4900 C   0  0  0  0  0  0  0  0  0  0  0  0
   36.4100   30.4040   45.6600 C   0  0  0  0  0  0  0  0  0  0  0  0
   35.2660   29.8340   46.1870 C   0  0  0  0  0  0  0  0  0  0  0  0
   35.0930   29.8240   47.5700 C   0  0  0  0  0  0  0  0  0  0  0  0
   33.6900   29.1340   48.3660 Cl  0  0  0  0  0  0  0  0  0  0  0  0
   36.0720   30.3840   48.3540 C   0  0  0  0  0  0  0  0  0  0  0  0
   36.5150   30.3970   44.5870 H   0  0  0  0  0  0  0  0  0  0  0  0
   34.4890   29.3900   45.5820 H   0  0  0  0  0  0  0  0  0  0  0  0
   39.6400   33.2800   44.7950 C   0  0  0  0  0  0  0  0  0  0  0  0
   40.8560   32.5980   44.8160 C   0  0  0  0  0  0  0  0  0  0  0  0
   40.8840   31.3130   45.4260 C   0  0  0  0  0  0  0  0  0  0  0  0
   39.7260   30.8350   45.9480 N   0  0  0  0  0  0  0  0  0  0  0  0
   38.5590   31.5480   45.9010 C   0  0  0  0  0  0  0  0  0  0  0  0
   38.5290   32.7580   45.3270 N   0  0  0  0  0  0  0  0  0  0  0  0
   39.6700   34.2540   44.3200 H   0  0  0  0  0  0  0  0  0  0  0  0
   41.7610   32.9720   44.4070 H   0  0  0  0  0  0  0  0  0  0  0  0
   41.7930   30.7290   45.4780 H   0  0  0  0  0  0  0  0  0  0  0  0
   35.9130   30.3890   49.8460 C   0  0  0  0  0  0  0  0  0  0  0  0
   36.7450   29.4670   50.4440 F   0  0  0  0  0  0  0  0  0  0  0  0
   36.3610   31.6350   50.2930 F   0  0  0  0  0  0  0  0  0  0  0  0
   34.6030   30.2760   50.2050 F   0  0  0  0  0  0  0  0  0  0  0  0
  2  8  1  0  0  0  0
  2  1  1  0  0  0  0
  3  2  2  0  0  0  0
  4  5  2  0  0  0  0
  4  3  1  0  0  0  0
  5  6  1  0  0  0  0
  6  8  2  0  0  0  0
  6  7  1  0  0  0  0
  8 20  1  0  0  0  0
  9  4  1  0  0  0  0
 10  5  1  0  0  0  0
 11 12  2  0  0  0  0
 11 16  1  0  0  0  0
 12 13  1  0  0  0  0
 13 19  1  0  0  0  0
 13 14  2  0  0  0  0
 15 14  1  0  0  0  0
 15  3  1  0  0  0  0
 16 15  2  0  0  0  0
 17 11  1  0  0  0  0
 18 12  1  0  0  0  0
 20 23  1  0  0  0  0
 20 22  1  0  0  0  0
 20 21  1  0  0  0  0
M  END
>  <minimizedAffinity>
-6.04284048

>  <minimizedRMSD>
3.2703383

$$$$
