
 OpenBabel03272510083D

 39 42  0  0  0  0  0  0  0  0999 V2000
   33.5170   28.3520   47.0130 C   0  0  0  0  0  0  0  0  0  0  0  0
   33.9170   29.7440   47.1540 C   0  0  0  0  0  0  0  0  0  0  0  0
   33.0690   30.7480   46.6230 C   0  0  0  0  0  0  0  0  0  0  0  0
   31.9480   30.3620   45.9930 N   0  0  0  0  0  0  0  0  0  0  0  0
   31.6070   29.0640   45.8630 C   0  0  0  0  0  0  0  0  0  0  0  0
   32.3750   28.0720   46.3680 N   0  0  0  0  0  0  0  0  0  0  0  0
   30.4180   28.7380   45.1090 N   0  0  0  0  0  0  0  0  0  0  0  0
   29.1100   29.1820   45.4670 C   0  0  0  0  0  0  0  0  0  0  0  0
   28.2560   28.8520   44.2760 C   0  0  0  0  0  0  0  0  0  0  0  0
   29.1990   28.4140   43.1690 C   0  0  0  0  0  0  0  0  0  0  0  0
   30.3860   27.9210   43.8820 C   0  0  0  0  0  0  0  0  0  0  0  0
   34.1990   27.6440   47.4540 H   0  0  0  0  0  0  0  0  0  0  0  0
   33.2950   31.7780   46.7090 H   0  0  0  0  0  0  0  0  0  0  0  0
   29.1000   30.2840   45.6950 H   0  0  0  0  0  0  0  0  0  0  0  0
   28.7490   28.6390   46.3420 H   0  0  0  0  0  0  0  0  0  0  0  0
   27.5540   28.0240   44.4910 H   0  0  0  0  0  0  0  0  0  0  0  0
   27.6590   29.7270   43.9240 H   0  0  0  0  0  0  0  0  0  0  0  0
   28.7330   27.6410   42.5260 H   0  0  0  0  0  0  0  0  0  0  0  0
   29.4490   29.2640   42.5110 H   0  0  0  0  0  0  0  0  0  0  0  0
   31.2980   28.1460   43.3030 H   0  0  0  0  0  0  0  0  0  0  0  0
   30.3940   26.8350   44.1270 H   0  0  0  0  0  0  0  0  0  0  0  0
   35.0810   30.2220   47.7890 C   0  0  0  0  0  0  0  0  0  0  0  0
   34.9490   30.4030   49.1110 N   0  0  0  0  0  0  0  0  0  0  0  0
   35.9750   30.9030   49.8210 C   0  0  0  0  0  0  0  0  0  0  0  0
   37.1770   31.2500   49.2810 N   0  0  0  0  0  0  0  0  0  0  0  0
   37.3280   31.0700   47.9500 C   0  0  0  0  0  0  0  0  0  0  0  0
   38.5120   31.3490   47.3040 C   0  0  0  0  0  0  0  0  0  0  0  0
   38.6640   31.1250   45.9650 C   0  0  0  0  0  0  0  0  0  0  0  0
   37.5840   30.6120   45.2920 C   0  0  0  0  0  0  0  0  0  0  0  0
   36.3820   30.3180   45.8760 C   0  0  0  0  0  0  0  0  0  0  0  0
   36.2780   30.5570   47.2140 C   0  0  0  0  0  0  0  0  0  0  0  0
   35.9510   31.0830   50.8900 H   0  0  0  0  0  0  0  0  0  0  0  0
   39.2780   31.7500   47.9520 H   0  0  0  0  0  0  0  0  0  0  0  0
   39.6170   31.3730   45.5620 H   0  0  0  0  0  0  0  0  0  0  0  0
   37.8720   30.4940   44.2300 H   0  0  0  0  0  0  0  0  0  0  0  0
   35.4420   29.8000   44.9130 C   0  0  0  0  0  0  0  0  0  0  0  0
   35.1210   28.5440   44.7160 F   0  0  0  0  0  0  0  0  0  0  0  0
   34.6980   30.8090   44.2600 F   0  0  0  0  0  0  0  0  0  0  0  0
   36.1270   29.6660   43.6410 F   0  0  0  0  0  0  0  0  0  0  0  0
  1  2  1  0  0  0  0
  1 12  1  0  0  0  0
  2 22  1  0  0  0  0
  3 13  1  0  0  0  0
  3  2  2  0  0  0  0
  4  3  1  0  0  0  0
  5  4  2  0  0  0  0
  5  6  1  0  0  0  0
  6  1  2  0  0  0  0
  7  8  1  0  0  0  0
  7  5  1  0  0  0  0
  8 14  1  0  0  0  0
  8 15  1  0  0  0  0
  9 16  1  0  0  0  0
  9  8  1  0  0  0  0
 10 11  1  0  0  0  0
 10  9  1  0  0  0  0
 11 21  1  0  0  0  0
 11  7  1  0  0  0  0
 17  9  1  0  0  0  0
 18 10  1  0  0  0  0
 19 10  1  0  0  0  0
 20 11  1  0  0  0  0
 22 23  1  0  0  0  0
 23 24  2  0  0  0  0
 24 32  1  0  0  0  0
 25 24  1  0  0  0  0
 26 25  2  0  0  0  0
 27 26  1  0  0  0  0
 27 33  1  0  0  0  0
 28 27  2  0  0  0  0
 29 30  2  0  0  0  0
 29 28  1  0  0  0  0
 30 31  1  0  0  0  0
 31 22  2  0  0  0  0
 31 26  1  0  0  0  0
 34 28  1  0  0  0  0
 35 29  1  0  0  0  0
 36 30  1  0  0  0  0
 37 36  1  0  0  0  0
 38 36  1  0  0  0  0
 39 36  1  0  0  0  0
M  END
>  <minimizedAffinity>
-4.93331909

>  <minimizedRMSD>
3.07822728

$$$$
