
 OpenBabel03272505513D

 39 41  0  0  1  0  0  0  0  0999 V2000
   37.2910   29.2450   50.6720 C   0  0  0  0  0  0  0  0  0  0  0  0
   37.4560   30.6250   50.9670 C   0  0  0  0  0  0  0  0  0  0  0  0
   36.7470   31.5300   50.1900 C   0  0  0  0  0  0  0  0  0  0  0  0
   35.9460   31.0490   49.2000 N   0  0  0  0  0  0  0  0  0  0  0  0
   35.8190   29.7270   48.9540 C   0  0  0  0  0  0  0  0  0  0  0  0
   36.4880   28.8430   49.6850 N   0  0  0  0  0  0  0  0  0  0  0  0
   34.9670   29.3120   47.9110 N   0  0  0  0  0  0  0  0  0  0  0  0
   34.2970   28.0050   47.9360 C   0  0  0  0  0  0  0  0  0  0  0  0
   32.8250   28.2290   47.8130 C   0  0  0  0  0  0  0  0  0  0  0  0
   32.3990   29.4010   47.2550 N   0  0  0  0  0  0  0  0  0  0  0  0
   33.2770   30.2610   46.5090 C   0  0  0  0  0  0  0  0  0  0  0  0
   34.6990   30.1430   46.7530 C   0  0  2  0  0  0  0  0  0  0  0  0
   37.8180   28.4890   51.2440 H   0  0  0  0  0  0  0  0  0  0  0  0
   38.1180   30.9190   51.7770 H   0  0  0  0  0  0  0  0  0  0  0  0
   36.8470   32.5860   50.3850 H   0  0  0  0  0  0  0  0  0  0  0  0
   34.6190   27.4720   48.8350 H   0  0  0  0  0  0  0  0  0  0  0  0
   34.6650   27.4570   47.0630 H   0  0  0  0  0  0  0  0  0  0  0  0
   32.3790   27.3030   47.3570 H   0  0  0  0  0  0  0  0  0  0  0  0
   32.4370   28.1730   48.8740 H   0  0  0  0  0  0  0  0  0  0  0  0
   31.5070   29.7960   47.5540 H   0  0  0  0  0  0  0  0  0  0  0  0
   32.9630   31.2760   46.9290 H   0  0  0  0  0  0  0  0  0  0  0  0
   32.8480   30.3400   45.5220 H   0  0  0  0  0  0  0  0  0  0  0  0
   35.1910   31.1320   46.9540 H   0  0  0  0  0  0  0  0  0  0  0  0
   35.4420   29.5560   45.6410 N   0  0  2  0  0  0  0  0  0  0  0  0
   36.5280   30.4530   45.2270 C   0  0  0  0  0  0  0  0  0  0  0  0
   36.6240   30.4040   43.7270 C   0  0  0  0  0  0  0  0  0  0  0  0
   35.7470   29.2760   43.3960 C   0  0  0  0  0  0  0  0  0  0  0  0
   34.6740   29.2740   44.4920 C   0  0  1  0  0  0  0  0  0  0  0  0
   36.2130   31.5000   45.4740 H   0  0  0  0  0  0  0  0  0  0  0  0
   37.4510   30.2250   45.7640 H   0  0  0  0  0  0  0  0  0  0  0  0
   37.6970   30.1860   43.4980 H   0  0  0  0  0  0  0  0  0  0  0  0
   36.3800   31.3630   43.2280 H   0  0  0  0  0  0  0  0  0  0  0  0
   36.3790   28.3450   43.4330 H   0  0  0  0  0  0  0  0  0  0  0  0
   35.2920   29.2840   42.3840 H   0  0  0  0  0  0  0  0  0  0  0  0
   34.0870   30.1390   44.0920 H   0  0  0  0  0  0  0  0  0  0  0  0
   34.0960   27.9540   44.2410 C   0  0  0  0  0  0  0  0  0  0  0  0
   34.2920   26.8980   45.0140 F   0  0  0  0  0  0  0  0  0  0  0  0
   34.3780   27.5740   42.9120 F   0  0  0  0  0  0  0  0  0  0  0  0
   32.6970   28.1080   44.2160 F   0  0  0  0  0  0  0  0  0  0  0  0
  1  2  1  0  0  0  0
  1 13  1  0  0  0  0
  2 14  1  0  0  0  0
  3 15  1  0  0  0  0
  3  2  2  0  0  0  0
  4  3  1  0  0  0  0
  5  4  2  0  0  0  0
  5  6  1  0  0  0  0
  6  1  2  0  0  0  0
  7  8  1  0  0  0  0
  7  5  1  0  0  0  0
  8 16  1  0  0  0  0
  9  8  1  0  0  0  0
  9 19  1  0  0  0  0
 10 20  1  0  0  0  0
 10  9  1  0  0  0  0
 11 12  1  0  0  0  0
 11 21  1  0  0  0  0
 11 10  1  0  0  0  0
 12 23  1  1  0  0  0
 12  7  1  0  0  0  0
 17  8  1  0  0  0  0
 18  9  1  0  0  0  0
 22 11  1  0  0  0  0
 24 25  1  6  0  0  0
 24 12  1  0  0  0  0
 25 29  1  0  0  0  0
 25 30  1  0  0  0  0
 26 25  1  0  0  0  0
 27 33  1  0  0  0  0
 27 26  1  0  0  0  0
 27 28  1  0  0  0  0
 28 35  1  6  0  0  0
 28 24  1  0  0  0  0
 31 26  1  0  0  0  0
 32 26  1  0  0  0  0
 34 27  1  0  0  0  0
 36 28  1  0  0  0  0
 36 37  1  0  0  0  0
 38 36  1  0  0  0  0
 39 36  1  0  0  0  0
M  END
>  <minimizedAffinity>
-4.61655855

>  <minimizedRMSD>
0.305816919

$$$$
