
 OpenBabel03272508383D

 39 41  0  0  1  0  0  0  0  0999 V2000
   37.7690   25.6210   35.7180 C   0  0  0  0  0  0  0  0  0  0  0  0
   37.0580   25.3310   34.9200 H   0  0  0  0  0  0  0  0  0  0  0  0
   37.1720   25.4070   36.6640 H   0  0  0  0  0  0  0  0  0  0  0  0
   38.8890   24.8010   35.7810 N   0  0  0  0  0  0  0  0  0  0  0  0
   39.5960   24.6030   34.5770 C   0  0  0  0  0  0  0  0  0  0  0  0
   39.6730   23.2070   34.0740 C   0  0  0  0  0  0  0  0  0  0  0  0
   39.9070   22.2840   35.0980 O   0  0  0  0  0  0  0  0  0  0  0  0
   38.9950   22.4200   36.0950 C   0  0  0  0  0  0  0  0  0  0  0  0
   39.0540   23.7900   36.7040 C   0  0  2  0  0  0  0  0  0  0  0  0
   39.5560   25.3370   33.7980 H   0  0  0  0  0  0  0  0  0  0  0  0
   40.6420   24.8170   34.9870 H   0  0  0  0  0  0  0  0  0  0  0  0
   39.1010   22.8970   33.2270 H   0  0  0  0  0  0  0  0  0  0  0  0
   40.7120   23.1430   33.5720 H   0  0  0  0  0  0  0  0  0  0  0  0
   38.0000   22.0060   35.9540 H   0  0  0  0  0  0  0  0  0  0  0  0
   39.3860   21.7570   36.9100 H   0  0  0  0  0  0  0  0  0  0  0  0
   40.1020   23.8860   37.1030 H   0  0  0  0  0  0  0  0  0  0  0  0
   38.1940   23.7680   37.9300 C   0  0  0  0  0  0  0  0  0  0  0  0
   38.9080   22.9590   38.8410 F   0  0  0  0  0  0  0  0  0  0  0  0
   37.0050   23.0660   37.7660 F   0  0  0  0  0  0  0  0  0  0  0  0
   38.0410   24.9750   38.5520 F   0  0  0  0  0  0  0  0  0  0  0  0
   37.9640   27.0670   35.6100 C   0  0  0  0  0  0  0  0  0  0  0  0
   37.4750   27.5540   36.5100 H   0  0  0  0  0  0  0  0  0  0  0  0
   38.9420   27.5240   35.5800 H   0  0  0  0  0  0  0  0  0  0  0  0
   35.8640   28.6710   33.1810 C   0  0  0  0  0  0  0  0  0  0  0  0
   36.7830   28.0510   32.3560 C   0  0  0  0  0  0  0  0  0  0  0  0
   37.6800   27.3710   33.1880 C   0  0  0  0  0  0  0  0  0  0  0  0
   37.2800   27.6020   34.4360 N   0  0  0  0  0  0  0  0  0  0  0  0
   36.2010   28.3730   34.4280 N   0  0  0  0  0  0  0  0  0  0  0  0
   36.7970   28.0920   31.2490 H   0  0  0  0  0  0  0  0  0  0  0  0
   38.4310   26.8530   32.7170 H   0  0  0  0  0  0  0  0  0  0  0  0
   33.8210   31.2150   31.3310 C   0  0  0  0  0  0  0  0  0  0  0  0
   34.9330   30.5180   31.7640 C   0  0  0  0  0  0  0  0  0  0  0  0
   34.7790   29.4750   32.6640 C   0  0  0  0  0  0  0  0  0  0  0  0
   33.5120   29.2180   33.0550 N   0  0  0  0  0  0  0  0  0  0  0  0
   32.4260   29.9100   32.6220 C   0  0  0  0  0  0  0  0  0  0  0  0
   32.5920   30.9030   31.7640 N   0  0  0  0  0  0  0  0  0  0  0  0
   33.9620   32.0170   30.6370 H   0  0  0  0  0  0  0  0  0  0  0  0
   35.9360   30.7450   31.4350 H   0  0  0  0  0  0  0  0  0  0  0  0
   31.4460   29.6520   32.9750 H   0  0  0  0  0  0  0  0  0  0  0  0
  1  4  1  0  0  0  0
  1  3  1  0  0  0  0
  2  1  1  0  0  0  0
  4  9  1  0  0  0  0
  5 11  1  0  0  0  0
  5  4  1  0  0  0  0
  6  5  1  0  0  0  0
  6  7  1  0  0  0  0
  7  8  1  0  0  0  0
  8  9  1  0  0  0  0
  8 15  1  0  0  0  0
  9 16  1  1  0  0  0
  9 17  1  0  0  0  0
 10  5  1  0  0  0  0
 12  6  1  0  0  0  0
 13  6  1  0  0  0  0
 14  8  1  0  0  0  0
 17 20  1  0  0  0  0
 17 18  1  0  0  0  0
 19 17  1  0  0  0  0
 21  1  1  0  0  0  0
 21 22  1  0  0  0  0
 23 21  1  0  0  0  0
 24 28  2  0  0  0  0
 25 24  1  0  0  0  0
 25 26  2  0  0  0  0
 26 27  1  0  0  0  0
 27 21  1  0  0  0  0
 28 27  1  0  0  0  0
 29 25  1  0  0  0  0
 30 26  1  0  0  0  0
 31 36  2  0  0  0  0
 31 32  1  0  0  0  0
 32 33  2  0  0  0  0
 33 34  1  0  0  0  0
 33 24  1  0  0  0  0
 35 39  1  0  0  0  0
 35 34  2  0  0  0  0
 36 35  1  0  0  0  0
 37 31  1  0  0  0  0
 38 32  1  0  0  0  0
M  END
>  <minimizedAffinity>
-5.23933077

$$$$

 OpenBabel03272508383D

 39 41  0  0  1  0  0  0  0  0999 V2000
   36.4020   22.2700   31.3360 C   0  0  0  0  0  0  0  0  0  0  0  0
   35.6300   22.2960   30.5430 H   0  0  0  0  0  0  0  0  0  0  0  0
   35.7750   22.3050   32.2850 H   0  0  0  0  0  0  0  0  0  0  0  0
   37.0990   21.0690   31.3840 N   0  0  0  0  0  0  0  0  0  0  0  0
   38.0450   20.8460   30.3620 C   0  0  0  0  0  0  0  0  0  0  0  0
   37.8070   19.6740   29.4820 C   0  0  0  0  0  0  0  0  0  0  0  0
   37.3770   18.5500   30.1940 O   0  0  0  0  0  0  0  0  0  0  0  0
   36.2940   18.8440   30.9600 C   0  0  0  0  0  0  0  0  0  0  0  0
   36.6100   19.9160   31.9600 C   0  0  2  0  0  0  0  0  0  0  0  0
   38.5060   21.6720   29.8610 H   0  0  0  0  0  0  0  0  0  0  0  0
   38.9120   20.5260   31.0370 H   0  0  0  0  0  0  0  0  0  0  0  0
   37.4690   19.8020   28.4770 H   0  0  0  0  0  0  0  0  0  0  0  0
   38.8680   19.2920   29.2240 H   0  0  0  0  0  0  0  0  0  0  0  0
   35.3200   18.9110   30.4830 H   0  0  0  0  0  0  0  0  0  0  0  0
   36.1570   17.9290   31.5940 H   0  0  0  0  0  0  0  0  0  0  0  0
   37.4420   19.4920   32.5880 H   0  0  0  0  0  0  0  0  0  0  0  0
   35.4470   20.0010   32.9010 C   0  0  0  0  0  0  0  0  0  0  0  0
   35.2780   18.6790   33.3660 F   0  0  0  0  0  0  0  0  0  0  0  0
   34.2350   20.2600   32.2680 F   0  0  0  0  0  0  0  0  0  0  0  0
   35.6590   20.7590   34.0170 F   0  0  0  0  0  0  0  0  0  0  0  0
   37.1600   23.5170   31.2340 C   0  0  0  0  0  0  0  0  0  0  0  0
   38.1460   23.2860   30.7250 H   0  0  0  0  0  0  0  0  0  0  0  0
   36.7970   24.3800   30.6960 H   0  0  0  0  0  0  0  0  0  0  0  0
   38.0500   24.1290   34.6570 C   0  0  0  0  0  0  0  0  0  0  0  0
   37.9160   25.4230   34.1920 C   0  0  0  0  0  0  0  0  0  0  0  0
   37.5590   25.3330   32.8400 C   0  0  0  0  0  0  0  0  0  0  0  0
   37.4980   24.0340   32.5580 N   0  0  0  0  0  0  0  0  0  0  0  0
   37.7890   23.3230   33.6380 N   0  0  0  0  0  0  0  0  0  0  0  0
   38.0640   26.3470   34.7840 H   0  0  0  0  0  0  0  0  0  0  0  0
   37.4200   26.2230   32.3480 H   0  0  0  0  0  0  0  0  0  0  0  0
   39.7800   22.8680   37.7370 C   0  0  0  0  0  0  0  0  0  0  0  0
   39.5220   23.0820   36.3970 C   0  0  0  0  0  0  0  0  0  0  0  0
   38.4170   23.8330   36.0240 C   0  0  0  0  0  0  0  0  0  0  0  0
   37.6610   24.3080   37.0370 N   0  0  0  0  0  0  0  0  0  0  0  0
   37.9250   24.0910   38.3520 C   0  0  0  0  0  0  0  0  0  0  0  0
   38.9840   23.3720   38.6880 N   0  0  0  0  0  0  0  0  0  0  0  0
   40.6380   22.2860   38.0030 H   0  0  0  0  0  0  0  0  0  0  0  0
   40.1440   22.6900   35.6060 H   0  0  0  0  0  0  0  0  0  0  0  0
   37.2800   24.4990   39.1060 H   0  0  0  0  0  0  0  0  0  0  0  0
  1  4  1  0  0  0  0
  1  3  1  0  0  0  0
  2  1  1  0  0  0  0
  4  9  1  0  0  0  0
  5 11  1  0  0  0  0
  5  4  1  0  0  0  0
  6  7  1  0  0  0  0
  6  5  1  0  0  0  0
  7  8  1  0  0  0  0
  8 15  1  0  0  0  0
  8  9  1  0  0  0  0
  9 16  1  1  0  0  0
  9 17  1  0  0  0  0
 10  5  1  0  0  0  0
 12  6  1  0  0  0  0
 13  6  1  0  0  0  0
 14  8  1  0  0  0  0
 17 18  1  0  0  0  0
 17 20  1  0  0  0  0
 19 17  1  0  0  0  0
 21  1  1  0  0  0  0
 21 27  1  0  0  0  0
 22 21  1  0  0  0  0
 23 21  1  0  0  0  0
 24 33  1  0  0  0  0
 25 24  1  0  0  0  0
 25 29  1  0  0  0  0
 26 25  2  0  0  0  0
 27 26  1  0  0  0  0
 27 28  1  0  0  0  0
 28 24  2  0  0  0  0
 30 26  1  0  0  0  0
 31 37  1  0  0  0  0
 31 36  1  0  0  0  0
 32 31  2  0  0  0  0
 33 32  1  0  0  0  0
 33 34  2  0  0  0  0
 34 35  1  0  0  0  0
 35 36  2  0  0  0  0
 35 39  1  0  0  0  0
 38 32  1  0  0  0  0
M  END
>  <minimizedAffinity>
-5.23439884

$$$$

 OpenBabel03272508383D

 39 41  0  0  1  0  0  0  0  0999 V2000
   38.0120   27.3750   32.6420 C   0  0  0  0  0  0  0  0  0  0  0  0
   37.0820   27.0940   33.1730 H   0  0  0  0  0  0  0  0  0  0  0  0
   37.9010   28.5040   32.5410 H   0  0  0  0  0  0  0  0  0  0  0  0
   39.1590   27.1710   33.3990 N   0  0  0  0  0  0  0  0  0  0  0  0
   40.2870   26.6710   32.7160 C   0  0  0  0  0  0  0  0  0  0  0  0
   40.8030   25.3530   33.1630 C   0  0  0  0  0  0  0  0  0  0  0  0
   40.8070   25.2250   34.5550 O   0  0  0  0  0  0  0  0  0  0  0  0
   39.5810   25.4980   35.0720 C   0  0  0  0  0  0  0  0  0  0  0  0
   39.1540   26.9000   34.7510 C   0  0  2  0  0  0  0  0  0  0  0  0
   40.4040   26.8440   31.6650 H   0  0  0  0  0  0  0  0  0  0  0  0
   41.0460   27.4270   33.1180 H   0  0  0  0  0  0  0  0  0  0  0  0
   40.6560   24.4770   32.5700 H   0  0  0  0  0  0  0  0  0  0  0  0
   41.9470   25.4310   33.0150 H   0  0  0  0  0  0  0  0  0  0  0  0
   38.8060   24.7390   35.0080 H   0  0  0  0  0  0  0  0  0  0  0  0
   39.7570   25.5280   36.1800 H   0  0  0  0  0  0  0  0  0  0  0  0
   39.9400   27.5580   35.2150 H   0  0  0  0  0  0  0  0  0  0  0  0
   37.9190   27.1820   35.5510 C   0  0  0  0  0  0  0  0  0  0  0  0
   38.3000   26.9150   36.8840 F   0  0  0  0  0  0  0  0  0  0  0  0
   36.8940   26.2670   35.3380 F   0  0  0  0  0  0  0  0  0  0  0  0
   37.5070   28.4840   35.5410 F   0  0  0  0  0  0  0  0  0  0  0  0
   37.9380   26.7810   31.3070 C   0  0  0  0  0  0  0  0  0  0  0  0
   37.5080   27.5580   30.6020 H   0  0  0  0  0  0  0  0  0  0  0  0
   38.8080   26.4190   30.7790 H   0  0  0  0  0  0  0  0  0  0  0  0
   36.2120   23.6340   31.3670 C   0  0  0  0  0  0  0  0  0  0  0  0
   35.1570   24.5010   31.1550 C   0  0  0  0  0  0  0  0  0  0  0  0
   35.6970   25.7920   31.1060 C   0  0  0  0  0  0  0  0  0  0  0  0
   37.0090   25.6540   31.2860 N   0  0  0  0  0  0  0  0  0  0  0  0
   37.3110   24.3720   31.4380 N   0  0  0  0  0  0  0  0  0  0  0  0
   34.0920   24.2170   31.0470 H   0  0  0  0  0  0  0  0  0  0  0  0
   35.0300   26.5570   30.9520 H   0  0  0  0  0  0  0  0  0  0  0  0
   34.9800   20.2140   32.2910 C   0  0  0  0  0  0  0  0  0  0  0  0
   35.0700   21.5930   32.2700 C   0  0  0  0  0  0  0  0  0  0  0  0
   36.0280   22.2040   31.4760 C   0  0  0  0  0  0  0  0  0  0  0  0
   36.8200   21.3720   30.7650 N   0  0  0  0  0  0  0  0  0  0  0  0
   36.7220   20.0170   30.7940 C   0  0  0  0  0  0  0  0  0  0  0  0
   35.8010   19.4520   31.5580 N   0  0  0  0  0  0  0  0  0  0  0  0
   34.2330   19.7630   32.9120 H   0  0  0  0  0  0  0  0  0  0  0  0
   34.4240   22.2350   32.8490 H   0  0  0  0  0  0  0  0  0  0  0  0
   37.3850   19.4160   30.2030 H   0  0  0  0  0  0  0  0  0  0  0  0
  1  2  1  0  0  0  0
  1  4  1  0  0  0  0
  3  1  1  0  0  0  0
  4  9  1  0  0  0  0
  5 11  1  0  0  0  0
  5  6  1  0  0  0  0
  5  4  1  0  0  0  0
  6  7  1  0  0  0  0
  7  8  1  0  0  0  0
  8 15  1  0  0  0  0
  9  8  1  0  0  0  0
  9 16  1  1  0  0  0
  9 17  1  0  0  0  0
 10  5  1  0  0  0  0
 12  6  1  0  0  0  0
 13  6  1  0  0  0  0
 14  8  1  0  0  0  0
 17 18  1  0  0  0  0
 19 17  1  0  0  0  0
 20 17  1  0  0  0  0
 21  1  1  0  0  0  0
 22 21  1  0  0  0  0
 23 21  1  0  0  0  0
 24 28  2  0  0  0  0
 24 33  1  0  0  0  0
 25 24  1  0  0  0  0
 26 25  2  0  0  0  0
 26 27  1  0  0  0  0
 27 21  1  0  0  0  0
 27 28  1  0  0  0  0
 29 25  1  0  0  0  0
 30 26  1  0  0  0  0
 31 37  1  0  0  0  0
 32 31  1  0  0  0  0
 32 38  1  0  0  0  0
 33 32  2  0  0  0  0
 34 35  2  0  0  0  0
 34 33  1  0  0  0  0
 35 36  1  0  0  0  0
 36 31  2  0  0  0  0
 39 35  1  0  0  0  0
M  END
>  <minimizedAffinity>
-5.20606422

$$$$

 OpenBabel03272508383D

 39 41  0  0  1  0  0  0  0  0999 V2000
   38.0160   25.2240   35.2640 C   0  0  0  0  0  0  0  0  0  0  0  0
   37.1010   24.7520   35.6710 H   0  0  0  0  0  0  0  0  0  0  0  0
   38.0380   26.2220   35.8130 H   0  0  0  0  0  0  0  0  0  0  0  0
   39.1830   24.5630   35.6270 N   0  0  0  0  0  0  0  0  0  0  0  0
   40.1160   24.3180   34.5980 C   0  0  0  0  0  0  0  0  0  0  0  0
   40.4260   22.8940   34.3110 C   0  0  0  0  0  0  0  0  0  0  0  0
   40.5620   22.1320   35.4750 O   0  0  0  0  0  0  0  0  0  0  0  0
   39.4730   22.2670   36.2750 C   0  0  0  0  0  0  0  0  0  0  0  0
   39.2780   23.6950   36.6930 C   0  0  2  0  0  0  0  0  0  0  0  0
   40.1450   24.9460   33.7310 H   0  0  0  0  0  0  0  0  0  0  0  0
   41.0410   24.7070   35.1460 H   0  0  0  0  0  0  0  0  0  0  0  0
   40.0560   22.4190   33.4290 H   0  0  0  0  0  0  0  0  0  0  0  0
   41.5420   22.9030   34.0050 H   0  0  0  0  0  0  0  0  0  0  0  0
   38.5690   21.7180   36.0250 H   0  0  0  0  0  0  0  0  0  0  0  0
   39.7740   21.7570   37.2280 H   0  0  0  0  0  0  0  0  0  0  0  0
   40.2190   23.9670   37.2470 H   0  0  0  0  0  0  0  0  0  0  0  0
   38.2140   23.7080   37.7480 C   0  0  0  0  0  0  0  0  0  0  0  0
   38.7320   22.8880   38.7740 F   0  0  0  0  0  0  0  0  0  0  0  0
   37.0540   23.0360   37.3780 F   0  0  0  0  0  0  0  0  0  0  0  0
   37.9870   24.9230   38.3270 F   0  0  0  0  0  0  0  0  0  0  0  0
   37.7680   25.4820   33.8450 C   0  0  0  0  0  0  0  0  0  0  0  0
   38.7710   25.5650   33.3250 H   0  0  0  0  0  0  0  0  0  0  0  0
   37.2150   24.8010   33.2150 H   0  0  0  0  0  0  0  0  0  0  0  0
   36.0950   28.6500   34.0580 C   0  0  0  0  0  0  0  0  0  0  0  0
   36.2490   28.5330   32.6900 C   0  0  0  0  0  0  0  0  0  0  0  0
   36.8990   27.3150   32.4580 C   0  0  0  0  0  0  0  0  0  0  0  0
   37.1030   26.7690   33.6550 N   0  0  0  0  0  0  0  0  0  0  0  0
   36.6240   27.5640   34.6010 N   0  0  0  0  0  0  0  0  0  0  0  0
   35.9180   29.2690   31.9310 H   0  0  0  0  0  0  0  0  0  0  0  0
   37.0860   27.0800   31.4760 H   0  0  0  0  0  0  0  0  0  0  0  0
   33.6290   31.2660   35.1280 C   0  0  0  0  0  0  0  0  0  0  0  0
   34.1320   30.1510   34.4860 C   0  0  0  0  0  0  0  0  0  0  0  0
   35.4600   29.7970   34.6700 C   0  0  0  0  0  0  0  0  0  0  0  0
   36.1740   30.5990   35.4890 N   0  0  0  0  0  0  0  0  0  0  0  0
   35.6680   31.6930   36.1160 C   0  0  0  0  0  0  0  0  0  0  0  0
   34.3990   32.0150   35.9280 N   0  0  0  0  0  0  0  0  0  0  0  0
   32.6010   31.5220   34.9720 H   0  0  0  0  0  0  0  0  0  0  0  0
   33.5380   29.5270   33.8350 H   0  0  0  0  0  0  0  0  0  0  0  0
   36.2930   32.2860   36.7540 H   0  0  0  0  0  0  0  0  0  0  0  0
  1  4  1  0  0  0  0
  1  2  1  0  0  0  0
  1  3  1  0  0  0  0
  4  9  1  0  0  0  0
  5 11  1  0  0  0  0
  5  4  1  0  0  0  0
  6  5  1  0  0  0  0
  6  7  1  0  0  0  0
  7  8  1  0  0  0  0
  8  9  1  0  0  0  0
  8 15  1  0  0  0  0
  9 16  1  1  0  0  0
  9 17  1  0  0  0  0
 10  5  1  0  0  0  0
 12  6  1  0  0  0  0
 13  6  1  0  0  0  0
 14  8  1  0  0  0  0
 17 20  1  0  0  0  0
 17 18  1  0  0  0  0
 19 17  1  0  0  0  0
 21  1  1  0  0  0  0
 22 21  1  0  0  0  0
 23 21  1  0  0  0  0
 24 28  2  0  0  0  0
 24 33  1  0  0  0  0
 25 24  1  0  0  0  0
 26 25  2  0  0  0  0
 26 27  1  0  0  0  0
 27 21  1  0  0  0  0
 27 28  1  0  0  0  0
 29 25  1  0  0  0  0
 30 26  1  0  0  0  0
 31 36  1  0  0  0  0
 32 33  1  0  0  0  0
 32 31  2  0  0  0  0
 33 34  2  0  0  0  0
 34 35  1  0  0  0  0
 35 39  1  0  0  0  0
 36 35  2  0  0  0  0
 37 31  1  0  0  0  0
 38 32  1  0  0  0  0
M  END
>  <minimizedAffinity>
-5.19238567

$$$$

 OpenBabel03272508383D

 39 41  0  0  1  0  0  0  0  0999 V2000
   38.0840   22.2050   34.9880 C   0  0  0  0  0  0  0  0  0  0  0  0
   37.7970   21.2600   35.4870 H   0  0  0  0  0  0  0  0  0  0  0  0
   37.2090   22.8880   35.2420 H   0  0  0  0  0  0  0  0  0  0  0  0
   39.2080   22.8020   35.5470 N   0  0  0  0  0  0  0  0  0  0  0  0
   40.4570   22.2500   35.1940 C   0  0  0  0  0  0  0  0  0  0  0  0
   41.2710   21.6890   36.3020 C   0  0  0  0  0  0  0  0  0  0  0  0
   41.2410   22.4920   37.4460 O   0  0  0  0  0  0  0  0  0  0  0  0
   39.9630   22.7480   37.8280 C   0  0  0  0  0  0  0  0  0  0  0  0
   39.2080   23.4710   36.7520 C   0  0  2  0  0  0  0  0  0  0  0  0
   40.5760   21.7270   34.2670 H   0  0  0  0  0  0  0  0  0  0  0  0
   40.9770   23.2330   34.9250 H   0  0  0  0  0  0  0  0  0  0  0  0
   41.3820   20.6340   36.4210 H   0  0  0  0  0  0  0  0  0  0  0  0
   42.3630   21.9090   35.9910 H   0  0  0  0  0  0  0  0  0  0  0  0
   39.4120   21.9770   38.3590 H   0  0  0  0  0  0  0  0  0  0  0  0
   40.0720   23.5220   38.6320 H   0  0  0  0  0  0  0  0  0  0  0  0
   39.7770   24.4280   36.5890 H   0  0  0  0  0  0  0  0  0  0  0  0
   37.9050   23.9140   37.3450 C   0  0  0  0  0  0  0  0  0  0  0  0
   38.2780   24.6630   38.4830 F   0  0  0  0  0  0  0  0  0  0  0  0
   37.1600   22.8760   37.8940 F   0  0  0  0  0  0  0  0  0  0  0  0
   37.1740   24.7660   36.5670 F   0  0  0  0  0  0  0  0  0  0  0  0
   38.0690   21.9490   33.5470 C   0  0  0  0  0  0  0  0  0  0  0  0
   39.1430   21.9160   33.1870 H   0  0  0  0  0  0  0  0  0  0  0  0
   37.6330   21.0590   33.1160 H   0  0  0  0  0  0  0  0  0  0  0  0
   36.8440   25.0470   32.2130 C   0  0  0  0  0  0  0  0  0  0  0  0
   36.2190   24.1430   31.3760 C   0  0  0  0  0  0  0  0  0  0  0  0
   36.6130   22.8650   31.7930 C   0  0  0  0  0  0  0  0  0  0  0  0
   37.4320   23.0470   32.8260 N   0  0  0  0  0  0  0  0  0  0  0  0
   37.5650   24.3430   33.0730 N   0  0  0  0  0  0  0  0  0  0  0  0
   35.5380   24.3920   30.5380 H   0  0  0  0  0  0  0  0  0  0  0  0
   36.2260   22.0760   31.2630 H   0  0  0  0  0  0  0  0  0  0  0  0
   36.4240   28.7130   32.8880 C   0  0  0  0  0  0  0  0  0  0  0  0
   36.5840   27.3630   33.1380 C   0  0  0  0  0  0  0  0  0  0  0  0
   36.6690   26.4760   32.0760 C   0  0  0  0  0  0  0  0  0  0  0  0
   36.5880   27.0250   30.8440 N   0  0  0  0  0  0  0  0  0  0  0  0
   36.4310   28.3540   30.6110 C   0  0  0  0  0  0  0  0  0  0  0  0
   36.3510   29.1850   31.6370 N   0  0  0  0  0  0  0  0  0  0  0  0
   36.3590   29.3800   33.7220 H   0  0  0  0  0  0  0  0  0  0  0  0
   36.6460   26.9510   34.1340 H   0  0  0  0  0  0  0  0  0  0  0  0
   36.3730   28.7220   29.6040 H   0  0  0  0  0  0  0  0  0  0  0  0
  1  3  1  0  0  0  0
  1  2  1  0  0  0  0
  1  4  1  0  0  0  0
  4  9  1  0  0  0  0
  5  4  1  0  0  0  0
  5  6  1  0  0  0  0
  6 12  1  0  0  0  0
  6  7  1  0  0  0  0
  7  8  1  0  0  0  0
  8 14  1  0  0  0  0
  8 15  1  0  0  0  0
  9 16  1  6  0  0  0
  9 17  1  0  0  0  0
  9  8  1  0  0  0  0
 10  5  1  0  0  0  0
 11  5  1  0  0  0  0
 13  6  1  0  0  0  0
 17 19  1  0  0  0  0
 17 18  1  0  0  0  0
 20 17  1  0  0  0  0
 21  1  1  0  0  0  0
 22 21  1  0  0  0  0
 23 21  1  0  0  0  0
 24 28  2  0  0  0  0
 25 26  2  0  0  0  0
 25 24  1  0  0  0  0
 26 27  1  0  0  0  0
 27 28  1  0  0  0  0
 27 21  1  0  0  0  0
 29 25  1  0  0  0  0
 30 26  1  0  0  0  0
 31 32  1  0  0  0  0
 31 37  1  0  0  0  0
 32 38  1  0  0  0  0
 33 24  1  0  0  0  0
 33 32  2  0  0  0  0
 34 33  1  0  0  0  0
 35 34  2  0  0  0  0
 35 36  1  0  0  0  0
 36 31  2  0  0  0  0
 39 35  1  0  0  0  0
M  END
>  <minimizedAffinity>
-5.18308306

$$$$

 OpenBabel03272508383D

 39 41  0  0  1  0  0  0  0  0999 V2000
   37.9450   25.4990   35.6880 C   0  0  0  0  0  0  0  0  0  0  0  0
   37.2530   25.1980   34.8780 H   0  0  0  0  0  0  0  0  0  0  0  0
   37.3180   25.3160   36.6210 H   0  0  0  0  0  0  0  0  0  0  0  0
   39.0520   24.6660   35.8030 N   0  0  0  0  0  0  0  0  0  0  0  0
   39.8010   24.4450   34.6290 C   0  0  0  0  0  0  0  0  0  0  0  0
   39.8790   23.0420   34.1470 C   0  0  0  0  0  0  0  0  0  0  0  0
   40.0640   22.1290   35.1900 O   0  0  0  0  0  0  0  0  0  0  0  0
   39.1160   22.2890   36.1500 C   0  0  0  0  0  0  0  0  0  0  0  0
   39.1700   23.6650   36.7440 C   0  0  2  0  0  0  0  0  0  0  0  0
   39.7990   25.1700   33.8410 H   0  0  0  0  0  0  0  0  0  0  0  0
   40.8330   24.6530   35.0760 H   0  0  0  0  0  0  0  0  0  0  0  0
   39.3370   22.7280   33.2830 H   0  0  0  0  0  0  0  0  0  0  0  0
   40.9370   22.9600   33.6850 H   0  0  0  0  0  0  0  0  0  0  0  0
   38.1230   21.8840   35.9760 H   0  0  0  0  0  0  0  0  0  0  0  0
   39.4690   21.6310   36.9880 H   0  0  0  0  0  0  0  0  0  0  0  0
   40.2030   23.7550   37.1810 H   0  0  0  0  0  0  0  0  0  0  0  0
   38.2640   23.6690   37.9370 C   0  0  0  0  0  0  0  0  0  0  0  0
   38.9460   22.8850   38.8940 F   0  0  0  0  0  0  0  0  0  0  0  0
   37.0840   22.9580   37.7450 F   0  0  0  0  0  0  0  0  0  0  0  0
   38.0830   24.8890   38.5240 F   0  0  0  0  0  0  0  0  0  0  0  0
   38.1620   26.9390   35.5510 C   0  0  0  0  0  0  0  0  0  0  0  0
   37.5020   27.4660   36.3080 H   0  0  0  0  0  0  0  0  0  0  0  0
   39.1270   27.4010   35.6970 H   0  0  0  0  0  0  0  0  0  0  0  0
   37.7120   27.8750   32.1150 C   0  0  0  0  0  0  0  0  0  0  0  0
   36.5040   28.2780   32.6510 C   0  0  0  0  0  0  0  0  0  0  0  0
   36.5430   27.9690   34.0160 C   0  0  0  0  0  0  0  0  0  0  0  0
   37.7310   27.4120   34.2380 N   0  0  0  0  0  0  0  0  0  0  0  0
   38.4220   27.3590   33.1080 N   0  0  0  0  0  0  0  0  0  0  0  0
   35.6710   28.7520   32.0960 H   0  0  0  0  0  0  0  0  0  0  0  0
   35.7070   28.2120   34.5600 H   0  0  0  0  0  0  0  0  0  0  0  0
   37.7610   28.9740   28.5290 C   0  0  0  0  0  0  0  0  0  0  0  0
   37.3670   28.8960   29.8510 C   0  0  0  0  0  0  0  0  0  0  0  0
   38.0290   28.0350   30.7130 C   0  0  0  0  0  0  0  0  0  0  0  0
   39.0390   27.3210   30.1700 N   0  0  0  0  0  0  0  0  0  0  0  0
   39.4170   27.4060   28.8680 C   0  0  0  0  0  0  0  0  0  0  0  0
   38.7730   28.2320   28.0600 N   0  0  0  0  0  0  0  0  0  0  0  0
   37.2360   29.6440   27.8800 H   0  0  0  0  0  0  0  0  0  0  0  0
   36.5550   29.4790   30.2600 H   0  0  0  0  0  0  0  0  0  0  0  0
   40.2300   26.8080   28.5020 H   0  0  0  0  0  0  0  0  0  0  0  0
  1  4  1  0  0  0  0
  1  3  1  0  0  0  0
  2  1  1  0  0  0  0
  4  9  1  0  0  0  0
  5 11  1  0  0  0  0
  5  4  1  0  0  0  0
  6  5  1  0  0  0  0
  6  7  1  0  0  0  0
  7  8  1  0  0  0  0
  8  9  1  0  0  0  0
  8 15  1  0  0  0  0
  9 16  1  1  0  0  0
  9 17  1  0  0  0  0
 10  5  1  0  0  0  0
 12  6  1  0  0  0  0
 13  6  1  0  0  0  0
 14  8  1  0  0  0  0
 17 20  1  0  0  0  0
 17 18  1  0  0  0  0
 19 17  1  0  0  0  0
 21  1  1  0  0  0  0
 21 23  1  0  0  0  0
 21 22  1  0  0  0  0
 24 25  1  0  0  0  0
 24 28  2  0  0  0  0
 25 26  2  0  0  0  0
 26 27  1  0  0  0  0
 26 30  1  0  0  0  0
 27 21  1  0  0  0  0
 28 27  1  0  0  0  0
 29 25  1  0  0  0  0
 31 32  1  0  0  0  0
 32 38  1  0  0  0  0
 32 33  2  0  0  0  0
 33 24  1  0  0  0  0
 34 33  1  0  0  0  0
 35 34  2  0  0  0  0
 36 31  2  0  0  0  0
 36 35  1  0  0  0  0
 37 31  1  0  0  0  0
 39 35  1  0  0  0  0
M  END
>  <minimizedAffinity>
-5.11893988

$$$$

 OpenBabel03272508383D

 39 41  0  0  1  0  0  0  0  0999 V2000
   38.1680   25.1250   35.1130 C   0  0  0  0  0  0  0  0  0  0  0  0
   37.2580   24.5450   35.3560 H   0  0  0  0  0  0  0  0  0  0  0  0
   38.0080   26.0860   35.7030 H   0  0  0  0  0  0  0  0  0  0  0  0
   39.3320   24.5590   35.6180 N   0  0  0  0  0  0  0  0  0  0  0  0
   40.3860   24.3580   34.7030 C   0  0  0  0  0  0  0  0  0  0  0  0
   40.8240   22.9540   34.4930 C   0  0  0  0  0  0  0  0  0  0  0  0
   40.8850   22.2300   35.6870 O   0  0  0  0  0  0  0  0  0  0  0  0
   39.7080   22.3040   36.3620 C   0  0  0  0  0  0  0  0  0  0  0  0
   39.3710   23.7230   36.7140 C   0  0  2  0  0  0  0  0  0  0  0  0
   40.4660   24.9670   33.8260 H   0  0  0  0  0  0  0  0  0  0  0  0
   41.2170   24.8250   35.3350 H   0  0  0  0  0  0  0  0  0  0  0  0
   40.5860   22.4340   33.5920 H   0  0  0  0  0  0  0  0  0  0  0  0
   41.9630   23.0370   34.3080 H   0  0  0  0  0  0  0  0  0  0  0  0
   38.8770   21.6860   36.0330 H   0  0  0  0  0  0  0  0  0  0  0  0
   39.9380   21.8380   37.3560 H   0  0  0  0  0  0  0  0  0  0  0  0
   40.2250   24.0740   37.3570 H   0  0  0  0  0  0  0  0  0  0  0  0
   38.2000   23.6820   37.6480 C   0  0  0  0  0  0  0  0  0  0  0  0
   38.6330   22.8600   38.7120 F   0  0  0  0  0  0  0  0  0  0  0  0
   37.1090   22.9810   37.1450 F   0  0  0  0  0  0  0  0  0  0  0  0
   37.8720   24.8790   38.2180 F   0  0  0  0  0  0  0  0  0  0  0  0
   38.1050   25.4420   33.6860 C   0  0  0  0  0  0  0  0  0  0  0  0
   37.5250   26.4090   33.5680 H   0  0  0  0  0  0  0  0  0  0  0  0
   38.9860   25.6040   33.0830 H   0  0  0  0  0  0  0  0  0  0  0  0
   36.5700   22.5040   32.3100 C   0  0  0  0  0  0  0  0  0  0  0  0
   35.9800   23.4860   31.5380 C   0  0  0  0  0  0  0  0  0  0  0  0
   36.5010   24.7110   31.9740 C   0  0  0  0  0  0  0  0  0  0  0  0
   37.3520   24.4250   32.9570 N   0  0  0  0  0  0  0  0  0  0  0  0
   37.3910   23.1140   33.1520 N   0  0  0  0  0  0  0  0  0  0  0  0
   35.2380   23.3240   30.7320 H   0  0  0  0  0  0  0  0  0  0  0  0
   36.1560   25.5480   31.4900 H   0  0  0  0  0  0  0  0  0  0  0  0
   35.4760   18.9570   32.8520 C   0  0  0  0  0  0  0  0  0  0  0  0
   35.7340   20.2850   33.1290 C   0  0  0  0  0  0  0  0  0  0  0  0
   36.2660   21.1000   32.1400 C   0  0  0  0  0  0  0  0  0  0  0  0
   36.4940   20.5050   30.9490 N   0  0  0  0  0  0  0  0  0  0  0  0
   36.2360   19.1970   30.6880 C   0  0  0  0  0  0  0  0  0  0  0  0
   35.7290   18.4360   31.6440 N   0  0  0  0  0  0  0  0  0  0  0  0
   35.0670   18.3450   33.6290 H   0  0  0  0  0  0  0  0  0  0  0  0
   35.5430   20.7350   34.0910 H   0  0  0  0  0  0  0  0  0  0  0  0
   36.4420   18.7900   29.7170 H   0  0  0  0  0  0  0  0  0  0  0  0
  1  2  1  0  0  0  0
  1  4  1  0  0  0  0
  1  3  1  0  0  0  0
  4  9  1  0  0  0  0
  5 11  1  0  0  0  0
  5  4  1  0  0  0  0
  6  5  1  0  0  0  0
  6  7  1  0  0  0  0
  7  8  1  0  0  0  0
  8  9  1  0  0  0  0
  8 15  1  0  0  0  0
  9 16  1  1  0  0  0
  9 17  1  0  0  0  0
 10  5  1  0  0  0  0
 12  6  1  0  0  0  0
 13  6  1  0  0  0  0
 14  8  1  0  0  0  0
 17 20  1  0  0  0  0
 17 18  1  0  0  0  0
 19 17  1  0  0  0  0
 21  1  1  0  0  0  0
 22 21  1  0  0  0  0
 23 21  1  0  0  0  0
 24 28  2  0  0  0  0
 25 26  2  0  0  0  0
 25 24  1  0  0  0  0
 26 27  1  0  0  0  0
 27 28  1  0  0  0  0
 27 21  1  0  0  0  0
 29 25  1  0  0  0  0
 30 26  1  0  0  0  0
 31 32  1  0  0  0  0
 31 37  1  0  0  0  0
 32 38  1  0  0  0  0
 33 24  1  0  0  0  0
 33 32  2  0  0  0  0
 34 33  1  0  0  0  0
 35 34  2  0  0  0  0
 35 36  1  0  0  0  0
 36 31  2  0  0  0  0
 39 35  1  0  0  0  0
M  END
>  <minimizedAffinity>
-5.0920949

$$$$

 OpenBabel03272508383D

 39 41  0  0  1  0  0  0  0  0999 V2000
   38.9270   24.5590   33.5580 C   0  0  0  0  0  0  0  0  0  0  0  0
   38.9830   25.6400   33.3280 H   0  0  0  0  0  0  0  0  0  0  0  0
   39.7920   24.1370   32.9490 H   0  0  0  0  0  0  0  0  0  0  0  0
   39.2170   24.2640   34.8850 N   0  0  0  0  0  0  0  0  0  0  0  0
   39.3790   22.9010   35.2080 C   0  0  0  0  0  0  0  0  0  0  0  0
   38.4230   22.3350   36.1950 C   0  0  0  0  0  0  0  0  0  0  0  0
   38.1770   23.2070   37.2600 O   0  0  0  0  0  0  0  0  0  0  0  0
   37.7860   24.4280   36.8090 C   0  0  0  0  0  0  0  0  0  0  0  0
   38.8440   25.0550   35.9500 C   0  0  2  0  0  0  0  0  0  0  0  0
   39.6880   22.1990   34.4610 H   0  0  0  0  0  0  0  0  0  0  0  0
   40.3600   23.0060   35.7880 H   0  0  0  0  0  0  0  0  0  0  0  0
   37.6450   21.6720   35.8870 H   0  0  0  0  0  0  0  0  0  0  0  0
   39.0470   21.5560   36.7790 H   0  0  0  0  0  0  0  0  0  0  0  0
   36.7610   24.5560   36.4710 H   0  0  0  0  0  0  0  0  0  0  0  0
   37.7870   25.0670   37.7310 H   0  0  0  0  0  0  0  0  0  0  0  0
   39.7460   25.1440   36.6170 H   0  0  0  0  0  0  0  0  0  0  0  0
   38.4300   26.4740   35.7020 C   0  0  0  0  0  0  0  0  0  0  0  0
   38.2730   27.0220   36.9940 F   0  0  0  0  0  0  0  0  0  0  0  0
   37.1540   26.5960   35.1620 F   0  0  0  0  0  0  0  0  0  0  0  0
   39.3670   27.2510   35.0840 F   0  0  0  0  0  0  0  0  0  0  0  0
   37.6740   24.0650   32.9870 C   0  0  0  0  0  0  0  0  0  0  0  0
   37.9220   23.2090   32.2870 H   0  0  0  0  0  0  0  0  0  0  0  0
   36.8720   23.6680   33.5930 H   0  0  0  0  0  0  0  0  0  0  0  0
   36.6580   26.9470   31.1050 C   0  0  0  0  0  0  0  0  0  0  0  0
   35.5810   26.1090   30.8910 C   0  0  0  0  0  0  0  0  0  0  0  0
   35.8470   24.9220   31.5850 C   0  0  0  0  0  0  0  0  0  0  0  0
   37.0320   25.0890   32.1670 N   0  0  0  0  0  0  0  0  0  0  0  0
   37.5090   26.2920   31.8810 N   0  0  0  0  0  0  0  0  0  0  0  0
   34.6840   26.3410   30.2840 H   0  0  0  0  0  0  0  0  0  0  0  0
   35.1300   24.1900   31.5240 H   0  0  0  0  0  0  0  0  0  0  0  0
   36.2990   30.6250   30.4610 C   0  0  0  0  0  0  0  0  0  0  0  0
   36.1590   29.4050   31.0930 C   0  0  0  0  0  0  0  0  0  0  0  0
   36.7310   28.2730   30.5330 C   0  0  0  0  0  0  0  0  0  0  0  0
   37.4020   28.4660   29.3760 N   0  0  0  0  0  0  0  0  0  0  0  0
   37.5340   29.6710   28.7640 C   0  0  0  0  0  0  0  0  0  0  0  0
   36.9800   30.7390   29.3140 N   0  0  0  0  0  0  0  0  0  0  0  0
   35.8490   31.4860   30.9110 H   0  0  0  0  0  0  0  0  0  0  0  0
   35.6160   29.2790   32.0180 H   0  0  0  0  0  0  0  0  0  0  0  0
   38.0810   29.7520   27.8440 H   0  0  0  0  0  0  0  0  0  0  0  0
  1  4  1  0  0  0  0
  2  1  1  0  0  0  0
  3  1  1  0  0  0  0
  4  5  1  0  0  0  0
  4  9  1  0  0  0  0
  5 11  1  0  0  0  0
  5  6  1  0  0  0  0
  6 13  1  0  0  0  0
  6  7  1  0  0  0  0
  8  7  1  0  0  0  0
  8 15  1  0  0  0  0
  9 16  1  1  0  0  0
  9  8  1  0  0  0  0
 10  5  1  0  0  0  0
 12  6  1  0  0  0  0
 14  8  1  0  0  0  0
 17  9  1  0  0  0  0
 17 18  1  0  0  0  0
 19 17  1  0  0  0  0
 20 17  1  0  0  0  0
 21  1  1  0  0  0  0
 21 23  1  0  0  0  0
 22 21  1  0  0  0  0
 24 28  2  0  0  0  0
 25 24  1  0  0  0  0
 25 26  2  0  0  0  0
 26 27  1  0  0  0  0
 27 21  1  0  0  0  0
 28 27  1  0  0  0  0
 29 25  1  0  0  0  0
 30 26  1  0  0  0  0
 31 37  1  0  0  0  0
 31 32  1  0  0  0  0
 32 38  1  0  0  0  0
 33 32  2  0  0  0  0
 33 24  1  0  0  0  0
 34 33  1  0  0  0  0
 35 36  1  0  0  0  0
 35 34  2  0  0  0  0
 36 31  2  0  0  0  0
 39 35  1  0  0  0  0
M  END
>  <minimizedAffinity>
-5.07365131

$$$$

 OpenBabel03272508383D

 39 41  0  0  1  0  0  0  0  0999 V2000
   35.8300   29.6950   33.8920 C   0  0  0  0  0  0  0  0  0  0  0  0
   36.1660   30.4870   33.1970 H   0  0  0  0  0  0  0  0  0  0  0  0
   36.5440   29.8240   34.7700 H   0  0  0  0  0  0  0  0  0  0  0  0
   34.5560   29.9160   34.4020 N   0  0  0  0  0  0  0  0  0  0  0  0
   33.4740   29.4870   33.6060 C   0  0  0  0  0  0  0  0  0  0  0  0
   32.5310   30.5390   33.1460 C   0  0  0  0  0  0  0  0  0  0  0  0
   32.2420   31.4710   34.1480 O   0  0  0  0  0  0  0  0  0  0  0  0
   33.3820   31.9960   34.6670 C   0  0  0  0  0  0  0  0  0  0  0  0
   34.2420   30.9310   35.2800 C   0  0  2  0  0  0  0  0  0  0  0  0
   33.6000   28.6890   32.9040 H   0  0  0  0  0  0  0  0  0  0  0  0
   32.9030   28.9300   34.4260 H   0  0  0  0  0  0  0  0  0  0  0  0
   32.5240   30.8630   32.1290 H   0  0  0  0  0  0  0  0  0  0  0  0
   31.5020   30.0100   33.1300 H   0  0  0  0  0  0  0  0  0  0  0  0
   33.9060   32.7660   34.1070 H   0  0  0  0  0  0  0  0  0  0  0  0
   33.0270   32.5850   35.5540 H   0  0  0  0  0  0  0  0  0  0  0  0
   33.6060   30.4720   36.0880 H   0  0  0  0  0  0  0  0  0  0  0  0
   35.3420   31.6230   36.0260 C   0  0  0  0  0  0  0  0  0  0  0  0
   35.6850   32.7180   35.2020 F   0  0  0  0  0  0  0  0  0  0  0  0
   36.5260   30.8950   36.0750 F   0  0  0  0  0  0  0  0  0  0  0  0
   34.9770   32.1650   37.2250 F   0  0  0  0  0  0  0  0  0  0  0  0
   36.1140   28.4120   33.2480 C   0  0  0  0  0  0  0  0  0  0  0  0
   35.1270   27.8830   33.0720 H   0  0  0  0  0  0  0  0  0  0  0  0
   36.6120   28.3360   32.2920 H   0  0  0  0  0  0  0  0  0  0  0  0
   37.8520   25.7870   34.9700 C   0  0  0  0  0  0  0  0  0  0  0  0
   38.1420   26.8630   35.7860 C   0  0  0  0  0  0  0  0  0  0  0  0
   37.5100   27.9790   35.2230 C   0  0  0  0  0  0  0  0  0  0  0  0
   36.8900   27.5440   34.1290 N   0  0  0  0  0  0  0  0  0  0  0  0
   37.0940   26.2420   33.9830 N   0  0  0  0  0  0  0  0  0  0  0  0
   38.7560   26.8370   36.7070 H   0  0  0  0  0  0  0  0  0  0  0  0
   37.6320   28.8680   35.7220 H   0  0  0  0  0  0  0  0  0  0  0  0
   38.6540   22.1270   34.7860 C   0  0  0  0  0  0  0  0  0  0  0  0
   38.1280   23.3540   34.4290 C   0  0  0  0  0  0  0  0  0  0  0  0
   38.3450   24.4550   35.2430 C   0  0  0  0  0  0  0  0  0  0  0  0
   39.0790   24.2280   36.3540 N   0  0  0  0  0  0  0  0  0  0  0  0
   39.5920   23.0170   36.6950 C   0  0  0  0  0  0  0  0  0  0  0  0
   39.3730   21.9780   35.9060 N   0  0  0  0  0  0  0  0  0  0  0  0
   38.4740   21.2900   34.1440 H   0  0  0  0  0  0  0  0  0  0  0  0
   37.5440   23.5070   33.5340 H   0  0  0  0  0  0  0  0  0  0  0  0
   40.1670   22.9080   37.5940 H   0  0  0  0  0  0  0  0  0  0  0  0
  1  4  1  0  0  0  0
  1  3  1  0  0  0  0
  2  1  1  0  0  0  0
  4  9  1  0  0  0  0
  5  4  1  0  0  0  0
  5 11  1  0  0  0  0
  6  5  1  0  0  0  0
  6  7  1  0  0  0  0
  7  8  1  0  0  0  0
  8  9  1  0  0  0  0
  8 15  1  0  0  0  0
  9 17  1  0  0  0  0
  9 16  1  1  0  0  0
 10  5  1  0  0  0  0
 12  6  1  0  0  0  0
 13  6  1  0  0  0  0
 14  8  1  0  0  0  0
 17 19  1  0  0  0  0
 17 20  1  0  0  0  0
 18 17  1  0  0  0  0
 21  1  1  0  0  0  0
 21 27  1  0  0  0  0
 22 21  1  0  0  0  0
 23 21  1  0  0  0  0
 24 33  1  0  0  0  0
 24 25  1  0  0  0  0
 25 29  1  0  0  0  0
 26 30  1  0  0  0  0
 26 25  2  0  0  0  0
 27 26  1  0  0  0  0
 28 27  1  0  0  0  0
 28 24  2  0  0  0  0
 31 36  1  0  0  0  0
 32 31  2  0  0  0  0
 32 33  1  0  0  0  0
 33 34  2  0  0  0  0
 34 35  1  0  0  0  0
 35 39  1  0  0  0  0
 36 35  2  0  0  0  0
 37 31  1  0  0  0  0
 38 32  1  0  0  0  0
M  END
>  <minimizedAffinity>
-5.02376461

$$$$
