
 OpenBabel03272507073D

 34 37  0  0  0  0  0  0  0  0999 V2000
   38.1090   32.6330   49.4860 C   0  0  0  0  0  0  0  0  0  0  0  0
   38.8210   32.8180   48.2920 C   0  0  0  0  0  0  0  0  0  0  0  0
   38.4200   32.0500   47.1980 C   0  0  0  0  0  0  0  0  0  0  0  0
   37.3890   31.1840   47.3350 N   0  0  0  0  0  0  0  0  0  0  0  0
   36.7300   31.0350   48.4980 C   0  0  0  0  0  0  0  0  0  0  0  0
   37.0840   31.7530   49.5710 N   0  0  0  0  0  0  0  0  0  0  0  0
   38.3950   33.2110   50.3470 H   0  0  0  0  0  0  0  0  0  0  0  0
   39.6310   33.4920   48.1690 H   0  0  0  0  0  0  0  0  0  0  0  0
   35.6590   29.0860   49.5220 C   0  0  0  0  0  0  0  0  0  0  0  0
   35.6220   30.0720   48.5630 C   0  0  0  0  0  0  0  0  0  0  0  0
   34.5770   30.1600   47.6850 C   0  0  0  0  0  0  0  0  0  0  0  0
   33.5410   29.2550   47.7480 C   0  0  0  0  0  0  0  0  0  0  0  0
   32.4080   29.1210   47.0130 N   0  0  0  0  0  0  0  0  0  0  0  0
   31.7800   28.0450   47.5510 C   0  0  0  0  0  0  0  0  0  0  0  0
   32.4980   27.5430   48.5720 N   0  0  0  0  0  0  0  0  0  0  0  0
   33.6090   28.2810   48.7200 C   0  0  0  0  0  0  0  0  0  0  0  0
   34.6300   28.1580   49.6150 C   0  0  0  0  0  0  0  0  0  0  0  0
   36.5050   29.0590   50.1930 H   0  0  0  0  0  0  0  0  0  0  0  0
   34.5570   30.9360   46.9360 H   0  0  0  0  0  0  0  0  0  0  0  0
   32.1550   29.7540   46.2220 H   0  0  0  0  0  0  0  0  0  0  0  0
   30.8420   27.7120   47.1500 H   0  0  0  0  0  0  0  0  0  0  0  0
   34.6750   27.3820   50.3820 H   0  0  0  0  0  0  0  0  0  0  0  0
   39.0460   32.1140   45.8880 C   0  0  0  0  0  0  0  0  0  0  0  0
   39.5700   33.2530   45.3390 C   0  0  0  0  0  0  0  0  0  0  0  0
   40.1690   33.3460   44.0990 C   0  0  0  0  0  0  0  0  0  0  0  0
   40.2360   32.2040   43.3780 N   0  0  0  0  0  0  0  0  0  0  0  0
   39.7360   31.0740   43.8800 C   0  0  0  0  0  0  0  0  0  0  0  0
   39.1690   31.0280   45.0730 N   0  0  0  0  0  0  0  0  0  0  0  0
   39.5230   34.1820   45.9110 H   0  0  0  0  0  0  0  0  0  0  0  0
   40.5750   34.2360   43.6770 H   0  0  0  0  0  0  0  0  0  0  0  0
   39.7810   29.7760   43.1270 C   0  0  0  0  0  0  0  0  0  0  0  0
   38.9790   29.8240   42.0080 F   0  0  0  0  0  0  0  0  0  0  0  0
   41.0780   29.5640   42.6930 F   0  0  0  0  0  0  0  0  0  0  0  0
   39.3190   28.7390   43.9360 F   0  0  0  0  0  0  0  0  0  0  0  0
  1  6  1  0  0  0  0
  1  7  1  0  0  0  0
  2  1  2  0  0  0  0
  3  4  2  0  0  0  0
  3  2  1  0  0  0  0
  4  5  1  0  0  0  0
  5 10  1  0  0  0  0
  5  6  2  0  0  0  0
  8  2  1  0  0  0  0
  9 17  1  0  0  0  0
  9 18  1  0  0  0  0
 10  9  2  0  0  0  0
 11 12  2  0  0  0  0
 11 10  1  0  0  0  0
 12 16  1  0  0  0  0
 13 14  1  0  0  0  0
 13 12  1  0  0  0  0
 14 15  2  0  0  0  0
 15 16  1  0  0  0  0
 16 17  2  0  0  0  0
 17 22  1  0  0  0  0
 19 11  1  0  0  0  0
 20 13  1  0  0  0  0
 21 14  1  0  0  0  0
 23  3  1  0  0  0  0
 24 23  1  0  0  0  0
 24 29  1  0  0  0  0
 25 24  2  0  0  0  0
 26 27  2  0  0  0  0
 26 25  1  0  0  0  0
 27 28  1  0  0  0  0
 28 23  2  0  0  0  0
 30 25  1  0  0  0  0
 31 27  1  0  0  0  0
 31 34  1  0  0  0  0
 32 31  1  0  0  0  0
 33 31  1  0  0  0  0
M  END
>  <minimizedAffinity>
-7.04500055

>  <minimizedRMSD>
1.20677137

$$$$
