
 OpenBabel03272506573D

 23 24  0  0  0  0  0  0  0  0999 V2000
   38.5570   31.5600   47.6230 C   0  0  0  0  0  0  0  0  0  0  0  0
   38.5960   32.8190   48.1480 C   0  0  0  0  0  0  0  0  0  0  0  0
   38.0630   33.2290   49.3480 C   0  0  0  0  0  0  0  0  0  0  0  0
   37.4430   32.2690   50.0610 N   0  0  0  0  0  0  0  0  0  0  0  0
   37.3790   30.9930   49.5790 C   0  0  0  0  0  0  0  0  0  0  0  0
   37.9200   30.6310   48.3840 N   0  0  0  0  0  0  0  0  0  0  0  0
   39.1010   33.5840   47.5580 H   0  0  0  0  0  0  0  0  0  0  0  0
   38.1480   34.2430   49.6690 H   0  0  0  0  0  0  0  0  0  0  0  0
   39.1030   29.9380   44.4160 C   0  0  0  0  0  0  0  0  0  0  0  0
   40.2290   30.5430   43.8810 C   0  0  0  0  0  0  0  0  0  0  0  0
   40.8020   31.5500   44.6820 C   0  0  0  0  0  0  0  0  0  0  0  0
   40.2660   31.8780   45.8850 N   0  0  0  0  0  0  0  0  0  0  0  0
   39.1610   31.2320   46.3280 C   0  0  0  0  0  0  0  0  0  0  0  0
   38.5570   30.2550   45.6130 N   0  0  0  0  0  0  0  0  0  0  0  0
   38.5950   29.1530   43.8720 H   0  0  0  0  0  0  0  0  0  0  0  0
   41.6830   32.0360   44.2850 H   0  0  0  0  0  0  0  0  0  0  0  0
   40.7540   30.1690   42.6260 N   0  0  0  0  0  0  0  0  0  0  0  0
   41.1410   30.8560   41.9280 H   0  0  0  0  0  0  0  0  0  0  0  0
   40.7130   29.1300   42.4710 H   0  0  0  0  0  0  0  0  0  0  0  0
   36.6780   29.9730   50.4170 C   0  0  0  0  0  0  0  0  0  0  0  0
   35.3090   30.1680   50.2910 F   0  0  0  0  0  0  0  0  0  0  0  0
   36.9690   28.6940   49.9890 F   0  0  0  0  0  0  0  0  0  0  0  0
   37.0050   30.1510   51.7470 F   0  0  0  0  0  0  0  0  0  0  0  0
  1  2  2  0  0  0  0
  1  6  1  0  0  0  0
  2  3  1  0  0  0  0
  3  8  1  0  0  0  0
  3  4  2  0  0  0  0
  5  4  1  0  0  0  0
  5 20  1  0  0  0  0
  6  5  2  0  0  0  0
  7  2  1  0  0  0  0
  9 14  1  0  0  0  0
 10  9  2  0  0  0  0
 10 11  1  0  0  0  0
 11 12  2  0  0  0  0
 12 13  1  0  0  0  0
 13  1  1  0  0  0  0
 14 13  2  0  0  0  0
 15  9  1  0  0  0  0
 16 11  1  0  0  0  0
 17 10  1  0  0  0  0
 18 17  1  0  0  0  0
 19 17  1  0  0  0  0
 20 23  1  0  0  0  0
 21 20  1  0  0  0  0
 22 20  1  0  0  0  0
M  END
>  <minimizedAffinity>
-5.7595253

>  <minimizedRMSD>
6.23616219

$$$$
