
 OpenBabel03272510153D

 23 24  0  0  0  0  0  0  0  0999 V2000
   37.1980   29.5190   51.1870 Br  0  0  0  0  0  0  0  0  0  0  0  0
   35.9840   29.3340   49.7190 C   0  0  0  0  0  0  0  0  0  0  0  0
   36.0820   30.1630   48.6240 C   0  0  0  0  0  0  0  0  0  0  0  0
   35.1720   29.9820   47.5890 C   0  0  0  0  0  0  0  0  0  0  0  0
   34.1870   29.0050   47.6320 C   0  0  0  0  0  0  0  0  0  0  0  0
   34.1240   28.2010   48.7400 C   0  0  0  0  0  0  0  0  0  0  0  0
   35.0250   28.3730   49.7770 C   0  0  0  0  0  0  0  0  0  0  0  0
   35.2360   30.6270   46.7200 H   0  0  0  0  0  0  0  0  0  0  0  0
   33.3510   27.4550   48.7440 H   0  0  0  0  0  0  0  0  0  0  0  0
   34.9010   27.6930   50.6120 H   0  0  0  0  0  0  0  0  0  0  0  0
   37.9780   33.1690   49.4110 C   0  0  0  0  0  0  0  0  0  0  0  0
   39.0190   33.1800   48.4460 C   0  0  0  0  0  0  0  0  0  0  0  0
   39.0540   32.1390   47.5250 C   0  0  0  0  0  0  0  0  0  0  0  0
   38.0940   31.1690   47.5970 N   0  0  0  0  0  0  0  0  0  0  0  0
   37.1080   31.2000   48.5470 C   0  0  0  0  0  0  0  0  0  0  0  0
   37.0580   32.1970   49.4440 N   0  0  0  0  0  0  0  0  0  0  0  0
   37.8880   33.9470   50.1590 H   0  0  0  0  0  0  0  0  0  0  0  0
   39.7290   33.9710   48.4560 H   0  0  0  0  0  0  0  0  0  0  0  0
   39.8260   32.1010   46.7690 H   0  0  0  0  0  0  0  0  0  0  0  0
   33.2630   28.8970   46.4700 C   0  0  0  0  0  0  0  0  0  0  0  0
   33.7760   29.6750   45.4500 F   0  0  0  0  0  0  0  0  0  0  0  0
   33.1120   27.5710   46.1080 F   0  0  0  0  0  0  0  0  0  0  0  0
   31.9920   29.3480   46.7810 F   0  0  0  0  0  0  0  0  0  0  0  0
  2  7  1  0  0  0  0
  2  1  1  0  0  0  0
  3  2  2  0  0  0  0
  4  5  2  0  0  0  0
  4  3  1  0  0  0  0
  5  6  1  0  0  0  0
  6  9  1  0  0  0  0
  6  7  2  0  0  0  0
  7 10  1  0  0  0  0
  8  4  1  0  0  0  0
 11 16  1  0  0  0  0
 11 17  1  0  0  0  0
 12 18  1  0  0  0  0
 12 11  2  0  0  0  0
 13 14  2  0  0  0  0
 13 12  1  0  0  0  0
 14 15  1  0  0  0  0
 15  3  1  0  0  0  0
 15 16  2  0  0  0  0
 19 13  1  0  0  0  0
 20 23  1  0  0  0  0
 20  5  1  0  0  0  0
 21 20  1  0  0  0  0
 22 20  1  0  0  0  0
M  END
>  <minimizedAffinity>
-5.69719362

>  <minimizedRMSD>
0.254043669

$$$$
