
 OpenBabel03272510233D

 26 28  0  0  0  0  0  0  0  0999 V2000
   35.4450   30.2560   46.8600 C   0  0  0  0  0  0  0  0  0  0  0  0
   35.7900   30.3410   48.1880 C   0  0  0  0  0  0  0  0  0  0  0  0
   37.0440   30.7690   48.5580 C   0  0  0  0  0  0  0  0  0  0  0  0
   37.9280   31.1060   47.5490 C   0  0  0  0  0  0  0  0  0  0  0  0
   39.2150   31.5530   47.6670 N   0  0  0  0  0  0  0  0  0  0  0  0
   39.6790   31.7500   46.4260 C   0  0  0  0  0  0  0  0  0  0  0  0
   38.7370   31.4440   45.5160 N   0  0  0  0  0  0  0  0  0  0  0  0
   37.6300   31.0400   46.1930 C   0  0  0  0  0  0  0  0  0  0  0  0
   36.3610   30.6040   45.8570 C   0  0  0  0  0  0  0  0  0  0  0  0
   34.4830   29.9290   46.5000 H   0  0  0  0  0  0  0  0  0  0  0  0
   37.3080   30.8340   49.5950 H   0  0  0  0  0  0  0  0  0  0  0  0
   39.7500   31.7160   48.5650 H   0  0  0  0  0  0  0  0  0  0  0  0
   36.0990   30.5410   44.7960 H   0  0  0  0  0  0  0  0  0  0  0  0
   33.9620   29.4350   51.3580 C   0  0  0  0  0  0  0  0  0  0  0  0
   34.9960   29.8050   50.5050 C   0  0  0  0  0  0  0  0  0  0  0  0
   34.7630   29.9550   49.1510 C   0  0  0  0  0  0  0  0  0  0  0  0
   33.4990   29.7310   48.6830 N   0  0  0  0  0  0  0  0  0  0  0  0
   32.5030   29.3670   49.5500 C   0  0  0  0  0  0  0  0  0  0  0  0
   32.7330   29.2230   50.8530 N   0  0  0  0  0  0  0  0  0  0  0  0
   34.1790   29.3280   52.4020 H   0  0  0  0  0  0  0  0  0  0  0  0
   35.9750   29.9760   50.8870 H   0  0  0  0  0  0  0  0  0  0  0  0
   31.5410   29.2150   49.0690 H   0  0  0  0  0  0  0  0  0  0  0  0
   41.0640   32.2410   46.1530 C   0  0  0  0  0  0  0  0  0  0  0  0
   41.4280   33.3040   46.9260 F   0  0  0  0  0  0  0  0  0  0  0  0
   41.1630   32.6010   44.8120 F   0  0  0  0  0  0  0  0  0  0  0  0
   41.9910   31.2310   46.3390 F   0  0  0  0  0  0  0  0  0  0  0  0
  1  2  1  0  0  0  0
  2  3  2  0  0  0  0
  2 16  1  0  0  0  0
  3 11  1  0  0  0  0
  4  5  1  0  0  0  0
  4  3  1  0  0  0  0
  5 12  1  0  0  0  0
  6  5  1  0  0  0  0
  7  8  1  0  0  0  0
  7  6  2  0  0  0  0
  8  4  2  0  0  0  0
  9  8  1  0  0  0  0
  9  1  2  0  0  0  0
 10  1  1  0  0  0  0
 13  9  1  0  0  0  0
 14 20  1  0  0  0  0
 15 21  1  0  0  0  0
 15 14  2  0  0  0  0
 16 15  1  0  0  0  0
 17 16  2  0  0  0  0
 17 18  1  0  0  0  0
 18 19  2  0  0  0  0
 19 14  1  0  0  0  0
 22 18  1  0  0  0  0
 23 26  1  0  0  0  0
 23  6  1  0  0  0  0
 23 24  1  0  0  0  0
 25 23  1  0  0  0  0
M  END
>  <minimizedAffinity>
-0.393807173

>  <minimizedRMSD>
2.67613792

$$$$
