
 OpenBabel03272503293D

 29 30  0  0  1  0  0  0  0  0999 V2000
   35.8530   29.5000   48.7240 N   0  0  0  0  0  0  0  0  0  0  0  0
   36.9810   30.2160   48.2260 C   0  0  0  0  0  0  0  0  0  0  0  0
   37.6450   30.7340   49.5110 C   0  0  2  0  0  0  0  0  0  0  0  0
   36.7110   30.3360   50.6390 C   0  0  0  0  0  0  0  0  0  0  0  0
   36.1990   29.0230   50.0480 C   0  0  0  0  0  0  0  0  0  0  0  0
   36.6450   31.0970   47.6490 H   0  0  0  0  0  0  0  0  0  0  0  0
   37.7000   29.6290   47.6570 H   0  0  0  0  0  0  0  0  0  0  0  0
   38.6010   30.2190   49.6950 H   0  0  0  0  0  0  0  0  0  0  0  0
   35.8870   31.0620   50.7610 H   0  0  0  0  0  0  0  0  0  0  0  0
   37.2700   30.1450   51.5630 H   0  0  0  0  0  0  0  0  0  0  0  0
   37.0080   28.2980   50.0680 H   0  0  0  0  0  0  0  0  0  0  0  0
   35.2870   28.6740   50.5860 H   0  0  0  0  0  0  0  0  0  0  0  0
   34.6020   29.2790   48.0660 C   0  0  0  0  0  0  0  0  0  0  0  0
   34.2890   30.1570   47.0100 C   0  0  0  0  0  0  0  0  0  0  0  0
   33.0730   29.9580   46.3570 C   0  0  0  0  0  0  0  0  0  0  0  0
   32.2850   28.9270   46.7960 N   0  0  0  0  0  0  0  0  0  0  0  0
   32.5970   28.1110   47.7920 C   0  0  0  0  0  0  0  0  0  0  0  0
   33.7780   28.2920   48.4380 N   0  0  0  0  0  0  0  0  0  0  0  0
   34.9040   30.9660   46.6660 H   0  0  0  0  0  0  0  0  0  0  0  0
   32.6920   30.5320   45.5410 H   0  0  0  0  0  0  0  0  0  0  0  0
   31.5330   26.8110   48.3310 S   0  0  0  0  0  0  0  0  0  0  0  0
   30.2400   27.6100   49.3640 C   0  0  0  0  0  0  0  0  0  0  0  0
   29.6360   26.6240   50.1330 F   0  0  0  0  0  0  0  0  0  0  0  0
   29.3490   28.3100   48.6180 F   0  0  0  0  0  0  0  0  0  0  0  0
   30.8800   28.4330   50.3010 F   0  0  0  0  0  0  0  0  0  0  0  0
   37.9060   32.2000   49.4740 C   0  0  0  0  0  0  0  0  0  0  0  0
   36.7950   32.8150   50.0510 F   0  0  0  0  0  0  0  0  0  0  0  0
   37.9150   32.5790   48.1470 F   0  0  0  0  0  0  0  0  0  0  0  0
   39.0720   32.5700   50.0720 F   0  0  0  0  0  0  0  0  0  0  0  0
  1  5  1  0  0  0  0
  2  1  1  0  0  0  0
  2  3  1  0  0  0  0
  3  8  1  1  0  0  0
  3  4  1  0  0  0  0
  4  9  1  0  0  0  0
  4 10  1  0  0  0  0
  5 11  1  0  0  0  0
  5 12  1  0  0  0  0
  5  4  1  0  0  0  0
  6  2  1  0  0  0  0
  7  2  1  0  0  0  0
 13 18  1  0  0  0  0
 13  1  1  0  0  0  0
 14 13  2  0  0  0  0
 15 16  2  0  0  0  0
 15 14  1  0  0  0  0
 16 17  1  0  0  0  0
 17 21  1  0  0  0  0
 17 18  2  0  0  0  0
 19 14  1  0  0  0  0
 20 15  1  0  0  0  0
 21 22  1  0  0  0  0
 22 23  1  0  0  0  0
 22 25  1  0  0  0  0
 24 22  1  0  0  0  0
 26  3  1  0  0  0  0
 26 27  1  0  0  0  0
 26 29  1  0  0  0  0
 28 26  1  0  0  0  0
M  END
>  <minimizedAffinity>
-5.88191605

>  <minimizedRMSD>
0.949892342

$$$$
