
 OpenBabel03262522143D

 40 42  0  0  1  0  0  0  0  0999 V2000
   37.7590   31.7700   47.6750 C   0  0  0  0  0  0  0  0  0  0  0  0
   37.9420   32.5270   48.8530 C   0  0  0  0  0  0  0  0  0  0  0  0
   38.9340   33.4750   48.9280 C   0  0  0  0  0  0  0  0  0  0  0  0
   39.7260   33.6460   47.8170 C   0  0  0  0  0  0  0  0  0  0  0  0
   39.5310   32.9040   46.6930 C   0  0  0  0  0  0  0  0  0  0  0  0
   38.5600   31.9640   46.5960 N   0  0  0  0  0  0  0  0  0  0  0  0
   37.2880   32.3480   49.6910 H   0  0  0  0  0  0  0  0  0  0  0  0
   39.1010   34.0720   49.8100 H   0  0  0  0  0  0  0  0  0  0  0  0
   40.5080   34.3920   47.8710 H   0  0  0  0  0  0  0  0  0  0  0  0
   36.7040   30.7950   47.6610 C   0  0  0  0  0  0  0  0  0  0  0  0
   36.2250   30.3990   46.6000 O   0  0  0  0  0  0  0  0  0  0  0  0
   37.0310   29.6310   49.8170 C   0  0  0  0  0  0  0  0  0  0  0  0
   36.1520   30.2290   48.9130 C   0  0  0  0  0  0  0  0  0  0  0  0
   34.7800   30.2810   49.1980 C   0  0  0  0  0  0  0  0  0  0  0  0
   34.3420   29.7360   50.3750 N   0  0  0  0  0  0  0  0  0  0  0  0
   35.2100   29.1650   51.2320 C   0  0  0  0  0  0  0  0  0  0  0  0
   36.5210   29.1130   50.9580 N   0  0  0  0  0  0  0  0  0  0  0  0
   38.0880   29.6030   49.5720 H   0  0  0  0  0  0  0  0  0  0  0  0
   34.1270   30.7560   48.4660 H   0  0  0  0  0  0  0  0  0  0  0  0
   34.7720   28.7540   52.1470 H   0  0  0  0  0  0  0  0  0  0  0  0
   40.5800   33.1310   45.2250 S   0  0  0  0  0  0  0  0  0  0  0  0
   39.4490   33.0230   43.8010 C   0  0  0  0  0  0  0  0  0  0  0  0
   39.6390   33.8950   43.1420 H   0  0  0  0  0  0  0  0  0  0  0  0
   38.3990   32.9350   44.0730 H   0  0  0  0  0  0  0  0  0  0  0  0
   38.7970   29.7380   42.6700 C   0  0  1  0  0  0  0  0  0  0  0  0
   38.6470   31.1930   42.3180 C   0  0  0  0  0  0  0  0  0  0  0  0
   39.8480   31.7870   43.0090 C   0  0  2  0  0  0  0  0  0  0  0  0
   40.4260   30.8240   43.7900 O   0  0  0  0  0  0  0  0  0  0  0  0
   39.4760   29.8320   44.0290 C   0  0  0  0  0  0  0  0  0  0  0  0
   39.4820   29.1990   41.9750 H   0  0  0  0  0  0  0  0  0  0  0  0
   37.7260   31.5810   42.8150 H   0  0  0  0  0  0  0  0  0  0  0  0
   38.6490   31.3890   41.2430 H   0  0  0  0  0  0  0  0  0  0  0  0
   40.5870   32.0990   42.2480 H   0  0  0  0  0  0  0  0  0  0  0  0
   38.7380   30.1090   44.7830 H   0  0  0  0  0  0  0  0  0  0  0  0
   39.9420   28.8560   44.2370 H   0  0  0  0  0  0  0  0  0  0  0  0
   37.5770   29.0940   42.7560 O   0  0  0  0  0  0  0  0  0  0  0  0
   37.5650   27.8200   42.2660 C   0  0  0  0  0  0  0  0  0  0  0  0
   36.2300   27.5300   41.9570 F   0  0  0  0  0  0  0  0  0  0  0  0
   38.0980   26.9080   43.1420 F   0  0  0  0  0  0  0  0  0  0  0  0
   38.2510   27.8160   41.0480 F   0  0  0  0  0  0  0  0  0  0  0  0
  1  2  1  0  0  0  0
  2  3  2  0  0  0  0
  2  7  1  0  0  0  0
  3  8  1  0  0  0  0
  4  9  1  0  0  0  0
  4  3  1  0  0  0  0
  5  4  2  0  0  0  0
  6  5  1  0  0  0  0
  6  1  2  0  0  0  0
 10  1  1  0  0  0  0
 10 13  1  0  0  0  0
 11 10  2  0  0  0  0
 12 17  1  0  0  0  0
 13 14  1  0  0  0  0
 13 12  2  0  0  0  0
 14 15  2  0  0  0  0
 15 16  1  0  0  0  0
 16 20  1  0  0  0  0
 17 16  2  0  0  0  0
 18 12  1  0  0  0  0
 19 14  1  0  0  0  0
 21  5  1  0  0  0  0
 22 24  1  0  0  0  0
 22 21  1  0  0  0  0
 23 22  1  0  0  0  0
 25 30  1  6  0  0  0
 25 36  1  0  0  0  0
 25 29  1  0  0  0  0
 26 25  1  0  0  0  0
 26 31  1  0  0  0  0
 26 27  1  0  0  0  0
 27 33  1  6  0  0  0
 27 28  1  0  0  0  0
 27 22  1  0  0  0  0
 28 29  1  0  0  0  0
 29 35  1  0  0  0  0
 29 34  1  0  0  0  0
 32 26  1  0  0  0  0
 37 36  1  0  0  0  0
 37 39  1  0  0  0  0
 38 37  1  0  0  0  0
 40 37  1  0  0  0  0
M  END
>  <minimizedAffinity>
-5.14822483

>  <minimizedRMSD>
0.481335372

$$$$
