
 OpenBabel03272506253D

 27 28  0  0  0  0  0  0  0  0999 V2000
   38.1410   30.8830   47.6020 C   0  0  0  0  0  0  0  0  0  0  0  0
   38.3870   30.0410   46.5550 C   0  0  0  0  0  0  0  0  0  0  0  0
   39.1020   30.3630   45.4130 C   0  0  0  0  0  0  0  0  0  0  0  0
   39.6250   31.6660   45.3080 C   0  0  0  0  0  0  0  0  0  0  0  0
   39.3860   32.5270   46.3570 C   0  0  0  0  0  0  0  0  0  0  0  0
   38.6680   32.1720   47.4840 C   0  0  0  0  0  0  0  0  0  0  0  0
   38.0230   29.0070   46.5400 H   0  0  0  0  0  0  0  0  0  0  0  0
   39.2770   29.6690   44.6020 H   0  0  0  0  0  0  0  0  0  0  0  0
   40.1940   32.0120   44.4600 H   0  0  0  0  0  0  0  0  0  0  0  0
   39.7420   33.5570   46.3850 H   0  0  0  0  0  0  0  0  0  0  0  0
   38.0790   30.1980   49.9270 C   0  0  0  0  0  0  0  0  0  0  0  0
   37.3820   30.3740   48.7010 C   0  0  0  0  0  0  0  0  0  0  0  0
   36.0280   30.0420   48.6640 C   0  0  0  0  0  0  0  0  0  0  0  0
   35.4360   29.5650   49.8000 N   0  0  0  0  0  0  0  0  0  0  0  0
   36.1360   29.4070   50.9660 C   0  0  0  0  0  0  0  0  0  0  0  0
   37.4490   29.7230   51.0230 N   0  0  0  0  0  0  0  0  0  0  0  0
   39.1310   30.4480   49.9850 H   0  0  0  0  0  0  0  0  0  0  0  0
   35.5730   29.0190   51.8180 H   0  0  0  0  0  0  0  0  0  0  0  0
   35.1850   30.1770   47.4520 C   0  0  0  0  0  0  0  0  0  0  0  0
   33.9430   30.7230   47.8010 F   0  0  0  0  0  0  0  0  0  0  0  0
   35.7060   30.8970   46.4350 F   0  0  0  0  0  0  0  0  0  0  0  0
   34.8480   28.9020   46.9820 F   0  0  0  0  0  0  0  0  0  0  0  0
   38.3480   33.2690   48.8510 S   0  0  0  0  0  0  0  0  0  0  0  0
   39.6430   34.4650   49.1490 C   0  0  0  0  0  0  0  0  0  0  0  0
   40.0840   34.2580   50.4630 F   0  0  0  0  0  0  0  0  0  0  0  0
   39.0960   35.7330   49.1280 F   0  0  0  0  0  0  0  0  0  0  0  0
   40.7210   34.3210   48.3020 F   0  0  0  0  0  0  0  0  0  0  0  0
  1 12  1  0  0  0  0
  2  1  2  0  0  0  0
  3  2  1  0  0  0  0
  4  3  2  0  0  0  0
  4  5  1  0  0  0  0
  5 10  1  0  0  0  0
  5  6  2  0  0  0  0
  6  1  1  0  0  0  0
  6 23  1  0  0  0  0
  7  2  1  0  0  0  0
  8  3  1  0  0  0  0
  9  4  1  0  0  0  0
 11 17  1  0  0  0  0
 11 16  1  0  0  0  0
 12 11  2  0  0  0  0
 13 12  1  0  0  0  0
 13 14  2  0  0  0  0
 14 15  1  0  0  0  0
 15 16  2  0  0  0  0
 15 18  1  0  0  0  0
 19 20  1  0  0  0  0
 19 13  1  0  0  0  0
 21 19  1  0  0  0  0
 22 19  1  0  0  0  0
 23 24  1  0  0  0  0
 24 25  1  0  0  0  0
 26 24  1  0  0  0  0
 27 24  1  0  0  0  0
M  END
>  <minimizedAffinity>
-5.50292206

>  <minimizedRMSD>
1.65268052

$$$$
