
 OpenBabel03262521203D

 28 28  0  0  0  0  0  0  0  0999 V2000
   39.4260   32.3360   47.7670 O   0  0  0  0  0  0  0  0  0  0  0  0
   39.1110   32.5150   46.4460 C   0  0  0  0  0  0  0  0  0  0  0  0
   40.1520   33.0820   45.7330 C   0  0  0  0  0  0  0  0  0  0  0  0
   39.9910   33.3330   44.3600 C   0  0  0  0  0  0  0  0  0  0  0  0
   38.7770   32.9870   43.8100 N   0  0  0  0  0  0  0  0  0  0  0  0
   37.7750   32.4310   44.5470 C   0  0  0  0  0  0  0  0  0  0  0  0
   37.9540   32.2030   45.8490 N   0  0  0  0  0  0  0  0  0  0  0  0
   36.5330   32.4800   42.5000 C   0  0  0  0  0  0  0  0  0  0  0  0
   37.4660   33.0400   41.8560 O   0  0  0  0  0  0  0  0  0  0  0  0
   36.5690   32.1200   43.8700 N   0  0  0  0  0  0  0  0  0  0  0  0
   41.1060   33.3660   46.1050 H   0  0  0  0  0  0  0  0  0  0  0  0
   40.7740   33.7730   43.7600 H   0  0  0  0  0  0  0  0  0  0  0  0
   35.6420   32.2730   41.9180 H   0  0  0  0  0  0  0  0  0  0  0  0
   35.7720   31.6520   44.3820 H   0  0  0  0  0  0  0  0  0  0  0  0
   38.5510   31.6000   48.5370 C   0  0  0  0  0  0  0  0  0  0  0  0
   39.0010   30.6620   48.9550 H   0  0  0  0  0  0  0  0  0  0  0  0
   37.7490   31.2330   47.8620 H   0  0  0  0  0  0  0  0  0  0  0  0
   38.1930   32.5350   49.4320 C   0  0  0  0  0  0  0  0  0  0  0  0
   38.8770   32.4980   50.3400 H   0  0  0  0  0  0  0  0  0  0  0  0
   38.2790   33.6150   49.1700 H   0  0  0  0  0  0  0  0  0  0  0  0
   36.8090   32.3820   50.0000 C   0  0  0  0  0  0  0  0  0  0  0  0
   36.1630   33.1660   49.5260 H   0  0  0  0  0  0  0  0  0  0  0  0
   36.7660   32.6340   51.0910 H   0  0  0  0  0  0  0  0  0  0  0  0
   36.0940   30.7800   49.7710 S   0  0  0  0  0  0  0  0  0  0  0  0
   36.6020   29.6480   51.0750 C   0  0  0  0  0  0  0  0  0  0  0  0
   35.4660   29.1060   51.6530 F   0  0  0  0  0  0  0  0  0  0  0  0
   37.3220   30.3490   52.0260 F   0  0  0  0  0  0  0  0  0  0  0  0
   37.4300   28.6590   50.5970 F   0  0  0  0  0  0  0  0  0  0  0  0
  1 15  1  0  0  0  0
  2  1  1  0  0  0  0
  3 11  1  0  0  0  0
  3  2  2  0  0  0  0
  4  3  1  0  0  0  0
  5  4  2  0  0  0  0
  5  6  1  0  0  0  0
  6  7  2  0  0  0  0
  7  2  1  0  0  0  0
  8 10  1  0  0  0  0
  9  8  2  0  0  0  0
 10 14  1  0  0  0  0
 10  6  1  0  0  0  0
 12  4  1  0  0  0  0
 13  8  1  0  0  0  0
 15 16  1  0  0  0  0
 15 18  1  0  0  0  0
 17 15  1  0  0  0  0
 18 21  1  0  0  0  0
 18 19  1  0  0  0  0
 20 18  1  0  0  0  0
 21 23  1  0  0  0  0
 22 21  1  0  0  0  0
 24 21  1  0  0  0  0
 24 25  1  0  0  0  0
 25 26  1  0  0  0  0
 25 27  1  0  0  0  0
 28 25  1  0  0  0  0
M  END
>  <minimizedAffinity>
-5.34666491

>  <minimizedRMSD>
1.80379975

$$$$
