
     RDKit          3D

 23 24  0  0  0  0  0  0  0  0999 V2000
   37.5634   31.6590   48.9441 C   0  0  0  0  0  0  0  0  0  0  0  0
   38.1921   32.7350   49.5019 C   0  0  0  0  0  0  0  0  0  0  0  0
   39.0607   33.5660   48.8405 C   0  0  0  0  0  0  0  0  0  0  0  0
   39.3489   33.3329   47.5094 C   0  0  0  0  0  0  0  0  0  0  0  0
   38.7025   32.2309   46.9452 C   0  0  0  0  0  0  0  0  0  0  0  0
   37.8579   31.4457   47.6382 N   0  0  0  0  0  0  0  0  0  0  0  0
   36.9469   30.1636   50.8681 C   0  0  0  0  0  0  0  0  0  0  0  0
   36.6544   30.7980   49.6547 C   0  0  0  0  0  0  0  0  0  0  0  0
   35.3947   30.5727   49.1080 C   0  0  0  0  0  0  0  0  0  0  0  0
   34.5217   29.7546   49.7765 N   0  0  0  0  0  0  0  0  0  0  0  0
   34.8596   29.1697   50.9442 C   0  0  0  0  0  0  0  0  0  0  0  0
   36.0702   29.3693   51.4963 N   0  0  0  0  0  0  0  0  0  0  0  0
   40.1939   34.0579   46.6838 O   0  0  0  0  0  0  0  0  0  0  0  0
   38.0136   32.9824   50.5515 H   0  0  0  0  0  0  0  0  0  0  0  0
   39.5643   34.4205   49.2716 H   0  0  0  0  0  0  0  0  0  0  0  0
   38.8810   31.9854   45.8999 H   0  0  0  0  0  0  0  0  0  0  0  0
   37.9331   30.3469   51.2851 H   0  0  0  0  0  0  0  0  0  0  0  0
   35.0672   31.0187   48.1675 H   0  0  0  0  0  0  0  0  0  0  0  0
   34.0447   28.5626   51.3205 H   0  0  0  0  0  0  0  0  0  0  0  0
   39.7991   35.1454   45.9036 C   0  0  0  0  0  0  0  0  0  0  0  0
   40.5876   35.2183   44.7652 F   0  0  0  0  0  0  0  0  0  0  0  0
   38.4837   35.0878   45.4709 F   0  0  0  0  0  0  0  0  0  0  0  0
   40.0433   36.2966   46.6465 F   0  0  0  0  0  0  0  0  0  0  0  0
  1  2  2  0
  1  8  1  0
  3  2  1  0
  4  3  2  0
  5  4  1  0
  5  6  2  0
  6  1  1  0
  7 12  2  0
  8  7  1  0
  9  8  2  0
  9 10  1  0
 10 11  2  0
 11 12  1  0
 13  4  1  0
  2 14  1  0
  3 15  1  0
  5 16  1  0
  7 17  1  0
  9 18  1  0
 11 19  1  0
 20 21  1  0
 20 22  1  0
 20 23  1  0
 13 20  1  0
M  ISO  6  14  14  15  14  16  14  17  14  18  14  19  14
M  END
>  <DihAtoms>  (1) 
3,12,19,20

>  <DihDeg>  (1) 
-59.99985555387107

$$$$
