
     RDKit          3D

 26 27  0  0  0  0  0  0  0  0999 V2000
   36.8005   32.1867   50.1253 Cl  0  0  0  0  0  0  0  0  0  0  0  0
   37.5388   31.9293   48.5878 C   0  0  0  0  0  0  0  0  0  0  0  0
   36.9597   30.9190   47.8794 C   0  0  0  0  0  0  0  0  0  0  0  0
   37.4839   30.6152   46.5971 C   0  0  0  0  0  0  0  0  0  0  0  0
   38.5356   31.3061   46.0776 C   0  0  0  0  0  0  0  0  0  0  0  0
   39.1023   32.3239   46.8171 C   0  0  0  0  0  0  0  0  0  0  0  0
   40.4450   33.2315   46.2008 Cl  0  0  0  0  0  0  0  0  0  0  0  0
   38.5975   32.6122   48.0450 C   0  0  0  0  0  0  0  0  0  0  0  0
   36.0414   29.0956   49.2587 C   0  0  0  0  0  0  0  0  0  0  0  0
   35.8250   30.0375   48.2272 C   0  0  0  0  0  0  0  0  0  0  0  0
   34.5880   30.0868   47.6061 C   0  0  0  0  0  0  0  0  0  0  0  0
   33.6346   29.2086   48.0333 N   0  0  0  0  0  0  0  0  0  0  0  0
   33.8619   28.3182   49.0189 C   0  0  0  0  0  0  0  0  0  0  0  0
   35.0831   28.2581   49.6434 N   0  0  0  0  0  0  0  0  0  0  0  0
   39.1399   33.6842   48.9007 C   0  0  0  0  0  0  0  0  0  0  0  0
   39.2761   34.8822   48.6640 O   0  0  0  0  0  0  0  0  0  0  0  0
   39.6308   33.5381   50.2185 O   0  0  0  0  0  0  0  0  0  0  0  0
   37.0963   29.8387   45.9645 H   0  0  0  0  0  0  0  0  0  0  0  0
   38.9564   31.0957   45.1011 H   0  0  0  0  0  0  0  0  0  0  0  0
   36.9744   29.0155   49.7696 H   0  0  0  0  0  0  0  0  0  0  0  0
   34.4549   30.8093   46.8300 H   0  0  0  0  0  0  0  0  0  0  0  0
   33.0335   27.6895   49.2572 H   0  0  0  0  0  0  0  0  0  0  0  0
   40.1270   34.6024   50.9609 C   0  0  0  0  0  0  0  0  0  0  0  0
   39.9027   34.3774   52.3153 F   0  0  0  0  0  0  0  0  0  0  0  0
   41.4925   34.6323   50.7526 F   0  0  0  0  0  0  0  0  0  0  0  0
   39.5924   35.8228   50.6166 F   0  0  0  0  0  0  0  0  0  0  0  0
  2  1  1  0
  3 10  1  0
  3  2  2  0
  4  3  1  0
  5  4  2  0
  5  6  1  0
  6  8  2  0
  7  6  1  0
  8  2  1  0
  8 15  1  0
  9 14  2  0
 10  9  1  0
 11 12  1  0
 11 10  2  0
 12 13  2  0
 13 14  1  0
 15 17  1  0
 16 15  2  0
  4 18  1  0
  5 19  1  0
  9 20  1  0
 11 21  1  0
 13 22  1  0
 23 24  1  0
 23 25  1  0
 23 26  1  0
 17 23  1  0
M  ISO  5  18  14  19  14  20  14  21  14  22  14
M  END
>  <DihAtoms>  (1) 
14,16,22,23

>  <DihDeg>  (1) 
59.99992620512145

$$$$
