
 OpenBabel03272507373D

 18 18  0  0  0  0  0  0  0  0999 V2000
   36.2950   30.5590   49.0130 C   0  0  0  0  0  0  0  0  0  0  0  0
   37.4090   30.9030   48.2430 C   0  0  0  0  0  0  0  0  0  0  0  0
   37.3280   30.8190   46.8610 C   0  0  0  0  0  0  0  0  0  0  0  0
   36.1500   30.3980   46.3370 N   0  0  0  0  0  0  0  0  0  0  0  0
   35.0800   30.0680   47.0800 C   0  0  0  0  0  0  0  0  0  0  0  0
   35.1610   30.1500   48.4040 N   0  0  0  0  0  0  0  0  0  0  0  0
   38.1660   31.0740   46.2100 H   0  0  0  0  0  0  0  0  0  0  0  0
   34.1430   29.7340   46.6570 H   0  0  0  0  0  0  0  0  0  0  0  0
   38.7960   32.6840   49.1410 C   0  0  0  0  0  0  0  0  0  0  0  0
   38.0570   33.7310   49.1350 O   0  0  0  0  0  0  0  0  0  0  0  0
   38.6240   31.3350   48.7500 N   0  0  0  0  0  0  0  0  0  0  0  0
   39.7500   33.0420   49.5670 H   0  0  0  0  0  0  0  0  0  0  0  0
   39.4410   30.7340   48.8710 H   0  0  0  0  0  0  0  0  0  0  0  0
   36.5350   30.6960   50.3640 O   0  0  0  0  0  0  0  0  0  0  0  0
   36.6850   29.6790   51.3010 C   0  0  0  0  0  0  0  0  0  0  0  0
   37.4090   30.0530   52.4200 F   0  0  0  0  0  0  0  0  0  0  0  0
   35.4590   29.1460   51.6610 F   0  0  0  0  0  0  0  0  0  0  0  0
   37.4530   28.6850   50.6840 F   0  0  0  0  0  0  0  0  0  0  0  0
  1 14  1  0  0  0  0
  2 11  1  0  0  0  0
  2  1  2  0  0  0  0
  3  2  1  0  0  0  0
  4  3  2  0  0  0  0
  4  5  1  0  0  0  0
  5  6  2  0  0  0  0
  6  1  1  0  0  0  0
  7  3  1  0  0  0  0
  8  5  1  0  0  0  0
  9 12  1  0  0  0  0
 10  9  2  0  0  0  0
 11 13  1  0  0  0  0
 11  9  1  0  0  0  0
 14 15  1  0  0  0  0
 15 17  1  0  0  0  0
 15 16  1  0  0  0  0
 18 15  1  0  0  0  0
M  END
>  <minimizedAffinity>
-5.02233696

>  <minimizedRMSD>
2.33009315

$$$$
