REMARK  Name = 
REMARK  3 active torsions:
REMARK  status: ('A' for Active; 'I' for Inactive)
REMARK    1  A    between atoms: C_1  and  C_8
REMARK    2  A    between atoms: C_4  and  O_13
REMARK    3  A    between atoms: O_13  and  C_20
REMARK                            x       y       z     vdW  Elec       q    Type
REMARK                         _______ _______ _______ _____ _____    ______ ____
ROOT
ATOM      1  C   UNL     1      37.563  31.659  48.944  0.00  0.00    +0.000 A 
ATOM      2  C   UNL     1      38.192  32.735  49.502  0.00  0.00    +0.000 A 
ATOM      3  C   UNL     1      39.061  33.566  48.840  0.00  0.00    +0.000 A 
ATOM      4  C   UNL     1      39.349  33.333  47.509  0.00  0.00    +0.000 A 
ATOM      5  C   UNL     1      38.703  32.231  46.945  0.00  0.00    +0.000 A 
ATOM      6  N   UNL     1      37.858  31.446  47.638  0.00  0.00    +0.000 NA
ATOM      7  H   UNL     1      38.014  32.982  50.551  0.00  0.00    +0.000 HD
ATOM      8  H   UNL     1      39.564  34.420  49.272  0.00  0.00    +0.000 HD
ATOM      9  H   UNL     1      38.881  31.985  45.900  0.00  0.00    +0.000 HD
ENDROOT
BRANCH   1  11
ATOM     10  C   UNL     1      36.947  30.164  50.868  0.00  0.00    +0.000 A 
ATOM     11  C   UNL     1      36.654  30.798  49.655  0.00  0.00    +0.000 A 
ATOM     12  C   UNL     1      35.395  30.573  49.108  0.00  0.00    +0.000 A 
ATOM     13  N   UNL     1      34.522  29.755  49.776  0.00  0.00    +0.000 NA
ATOM     14  C   UNL     1      34.860  29.170  50.944  0.00  0.00    +0.000 A 
ATOM     15  N   UNL     1      36.070  29.369  51.496  0.00  0.00    +0.000 NA
ATOM     16  H   UNL     1      37.933  30.347  51.285  0.00  0.00    +0.000 HD
ATOM     17  H   UNL     1      35.067  31.019  48.167  0.00  0.00    +0.000 HD
ATOM     18  H   UNL     1      34.045  28.563  51.321  0.00  0.00    +0.000 HD
ENDBRANCH   1  11
BRANCH   4  19
ATOM     19  O   UNL     1      40.194  34.058  46.684  0.00  0.00    +0.000 OA
BRANCH  19  20
ATOM     20  C   UNL     1      39.799  35.145  45.904  0.00  0.00    +0.000 C 
ATOM     21  F   UNL     1      39.938  36.319  46.629  0.00  0.00    +0.000 F 
ATOM     22  F   UNL     1      40.535  35.309  44.741  0.00  0.00    +0.000 F 
ATOM     23  F   UNL     1      38.443  34.989  45.633  0.00  0.00    +0.000 F 
ENDBRANCH  19  20
ENDBRANCH   4  19
TORSDOF 3
