
 OpenBabel03272508163D

 26 27  0  0  0  0  0  0  0  0999 V2000
   36.4010   30.6670   45.4840 Cl  0  0  0  0  0  0  0  0  0  0  0  0
   36.6820   30.6150   47.1850 C   0  0  0  0  0  0  0  0  0  0  0  0
   37.9140   31.0800   47.5380 C   0  0  0  0  0  0  0  0  0  0  0  0
   38.2590   31.0860   48.9130 C   0  0  0  0  0  0  0  0  0  0  0  0
   37.3920   30.6420   49.8640 C   0  0  0  0  0  0  0  0  0  0  0  0
   36.1510   30.1780   49.4790 C   0  0  0  0  0  0  0  0  0  0  0  0
   35.0130   29.5990   50.6520 Cl  0  0  0  0  0  0  0  0  0  0  0  0
   35.8250   30.1740   48.1600 C   0  0  0  0  0  0  0  0  0  0  0  0
   39.2030   31.4320   49.2880 H   0  0  0  0  0  0  0  0  0  0  0  0
   37.6280   30.6360   50.9220 H   0  0  0  0  0  0  0  0  0  0  0  0
   39.6710   30.6800   45.8570 C   0  0  0  0  0  0  0  0  0  0  0  0
   39.0120   31.6050   46.6980 C   0  0  0  0  0  0  0  0  0  0  0  0
   39.4190   32.9290   46.6960 C   0  0  0  0  0  0  0  0  0  0  0  0
   40.4490   33.2680   45.8680 N   0  0  0  0  0  0  0  0  0  0  0  0
   41.0650   32.3700   45.0730 C   0  0  0  0  0  0  0  0  0  0  0  0
   40.6720   31.0550   45.0660 N   0  0  0  0  0  0  0  0  0  0  0  0
   39.3990   29.6490   45.8200 H   0  0  0  0  0  0  0  0  0  0  0  0
   38.9020   33.6040   47.3420 H   0  0  0  0  0  0  0  0  0  0  0  0
   41.8550   32.7650   44.4750 H   0  0  0  0  0  0  0  0  0  0  0  0
   34.5210   29.6960   47.6610 C   0  0  0  0  0  0  0  0  0  0  0  0
   33.4900   30.3260   47.4370 O   0  0  0  0  0  0  0  0  0  0  0  0
   34.1870   28.3640   47.3270 O   0  0  0  0  0  0  0  0  0  0  0  0
   33.6820   27.4580   48.2510 C   0  0  0  0  0  0  0  0  0  0  0  0
   33.2420   26.3130   47.5960 F   0  0  0  0  0  0  0  0  0  0  0  0
   34.7310   27.1030   49.0760 F   0  0  0  0  0  0  0  0  0  0  0  0
   32.6540   27.9560   49.0190 F   0  0  0  0  0  0  0  0  0  0  0  0
  1  2  1  0  0  0  0
  2  3  2  0  0  0  0
  2  8  1  0  0  0  0
  3  4  1  0  0  0  0
  4  9  1  0  0  0  0
  4  5  2  0  0  0  0
  5 10  1  0  0  0  0
  6  5  1  0  0  0  0
  6  7  1  0  0  0  0
  8  6  2  0  0  0  0
 11 12  1  0  0  0  0
 12  3  1  0  0  0  0
 13 12  2  0  0  0  0
 13 18  1  0  0  0  0
 14 13  1  0  0  0  0
 15 14  2  0  0  0  0
 16 15  1  0  0  0  0
 16 11  2  0  0  0  0
 17 11  1  0  0  0  0
 19 15  1  0  0  0  0
 20  8  1  0  0  0  0
 21 20  2  0  0  0  0
 22 20  1  0  0  0  0
 22 23  1  0  0  0  0
 23 26  1  0  0  0  0
 23 25  1  0  0  0  0
 24 23  1  0  0  0  0
M  END
>  <minimizedAffinity>
-5.68189812

>  <minimizedRMSD>
7.04697514

$$$$
