
 OpenBabel03272506363D

 18 18  0  0  0  0  0  0  0  0999 V2000
   38.5360   24.9070   36.2300 C   0  0  0  0  0  0  0  0  0  0  0  0
   38.2450   26.2920   36.2960 C   0  0  0  0  0  0  0  0  0  0  0  0
   39.0300   27.1610   35.5720 C   0  0  0  0  0  0  0  0  0  0  0  0
   40.0530   26.6220   34.8270 N   0  0  0  0  0  0  0  0  0  0  0  0
   40.3090   25.3040   34.7820 C   0  0  0  0  0  0  0  0  0  0  0  0
   39.5480   24.4700   35.4820 N   0  0  0  0  0  0  0  0  0  0  0  0
   42.3530   24.0900   34.8040 C   0  0  0  0  0  0  0  0  0  0  0  0
   42.3450   23.8800   36.0530 O   0  0  0  0  0  0  0  0  0  0  0  0
   41.3900   24.8030   33.9870 N   0  0  0  0  0  0  0  0  0  0  0  0
   37.4410   26.7340   36.8780 H   0  0  0  0  0  0  0  0  0  0  0  0
   38.8450   28.2220   35.5920 H   0  0  0  0  0  0  0  0  0  0  0  0
   43.2240   23.6640   34.2790 H   0  0  0  0  0  0  0  0  0  0  0  0
   41.4600   24.9390   32.9620 H   0  0  0  0  0  0  0  0  0  0  0  0
   37.6780   24.1290   37.0020 O   0  0  0  0  0  0  0  0  0  0  0  0
   38.0840   23.8320   38.3190 C   0  0  0  0  0  0  0  0  0  0  0  0
   37.2550   22.8340   38.7930 F   0  0  0  0  0  0  0  0  0  0  0  0
   39.3750   23.3700   38.3330 F   0  0  0  0  0  0  0  0  0  0  0  0
   38.0120   24.9510   39.1240 F   0  0  0  0  0  0  0  0  0  0  0  0
  1  2  1  0  0  0  0
  1 14  1  0  0  0  0
  2 10  1  0  0  0  0
  3 11  1  0  0  0  0
  3  2  2  0  0  0  0
  4  3  1  0  0  0  0
  5  4  2  0  0  0  0
  5  6  1  0  0  0  0
  6  1  2  0  0  0  0
  7  8  2  0  0  0  0
  9  5  1  0  0  0  0
  9  7  1  0  0  0  0
 12  7  1  0  0  0  0
 13  9  1  0  0  0  0
 14 15  1  0  0  0  0
 15 17  1  0  0  0  0
 15 16  1  0  0  0  0
 15 18  1  0  0  0  0
M  END
>  <minimizedAffinity>
-4.44215727

$$$$

 OpenBabel03272506363D

 18 18  0  0  0  0  0  0  0  0999 V2000
   38.7570   23.3000   36.1270 C   0  0  0  0  0  0  0  0  0  0  0  0
   38.2220   22.0750   35.6570 C   0  0  0  0  0  0  0  0  0  0  0  0
   37.7040   22.0340   34.3810 C   0  0  0  0  0  0  0  0  0  0  0  0
   37.7400   23.1940   33.6440 N   0  0  0  0  0  0  0  0  0  0  0  0
   38.2530   24.3440   34.1130 C   0  0  0  0  0  0  0  0  0  0  0  0
   38.7520   24.3780   35.3440 N   0  0  0  0  0  0  0  0  0  0  0  0
   37.5160   26.5960   33.9210 C   0  0  0  0  0  0  0  0  0  0  0  0
   36.9020   26.6080   35.0280 O   0  0  0  0  0  0  0  0  0  0  0  0
   38.2610   25.5200   33.2970 N   0  0  0  0  0  0  0  0  0  0  0  0
   38.1870   21.1500   36.2260 H   0  0  0  0  0  0  0  0  0  0  0  0
   37.2870   21.1240   33.9820 H   0  0  0  0  0  0  0  0  0  0  0  0
   37.4670   27.5480   33.3660 H   0  0  0  0  0  0  0  0  0  0  0  0
   38.7430   25.5790   32.3810 H   0  0  0  0  0  0  0  0  0  0  0  0
   39.2500   23.2200   37.4260 O   0  0  0  0  0  0  0  0  0  0  0  0
   38.4340   23.7250   38.4590 C   0  0  0  0  0  0  0  0  0  0  0  0
   39.2220   23.8490   39.5870 F   0  0  0  0  0  0  0  0  0  0  0  0
   37.9490   24.9640   38.1270 F   0  0  0  0  0  0  0  0  0  0  0  0
   37.3640   22.8870   38.6990 F   0  0  0  0  0  0  0  0  0  0  0  0
  1 14  1  0  0  0  0
  2  1  1  0  0  0  0
  2 10  1  0  0  0  0
  3  2  2  0  0  0  0
  4  5  2  0  0  0  0
  4  3  1  0  0  0  0
  5  6  1  0  0  0  0
  6  1  2  0  0  0  0
  7  8  2  0  0  0  0
  9  7  1  0  0  0  0
  9  5  1  0  0  0  0
 11  3  1  0  0  0  0
 12  7  1  0  0  0  0
 13  9  1  0  0  0  0
 14 15  1  0  0  0  0
 15 18  1  0  0  0  0
 15 16  1  0  0  0  0
 17 15  1  0  0  0  0
M  END
>  <minimizedAffinity>
-4.26617289

$$$$

 OpenBabel03272506363D

 18 18  0  0  0  0  0  0  0  0999 V2000
   38.9340   24.0870   36.2350 C   0  0  0  0  0  0  0  0  0  0  0  0
   40.1990   23.5320   35.9220 C   0  0  0  0  0  0  0  0  0  0  0  0
   41.0480   24.2530   35.1130 C   0  0  0  0  0  0  0  0  0  0  0  0
   40.6070   25.4740   34.6580 N   0  0  0  0  0  0  0  0  0  0  0  0
   39.4020   25.9790   34.9700 C   0  0  0  0  0  0  0  0  0  0  0  0
   38.5870   25.2800   35.7520 N   0  0  0  0  0  0  0  0  0  0  0  0
   37.7950   27.1480   33.6650 C   0  0  0  0  0  0  0  0  0  0  0  0
   37.1110   26.1210   33.3830 O   0  0  0  0  0  0  0  0  0  0  0  0
   39.0000   27.2570   34.4650 N   0  0  0  0  0  0  0  0  0  0  0  0
   40.5620   22.5700   36.2730 H   0  0  0  0  0  0  0  0  0  0  0  0
   42.0200   23.8690   34.8490 H   0  0  0  0  0  0  0  0  0  0  0  0
   37.4050   28.0840   33.2320 H   0  0  0  0  0  0  0  0  0  0  0  0
   39.5130   28.1370   34.6560 H   0  0  0  0  0  0  0  0  0  0  0  0
   38.1640   23.2710   37.0590 O   0  0  0  0  0  0  0  0  0  0  0  0
   38.1670   23.5580   38.4390 C   0  0  0  0  0  0  0  0  0  0  0  0
   37.2860   22.6860   39.0470 F   0  0  0  0  0  0  0  0  0  0  0  0
   39.4160   23.3570   38.9700 F   0  0  0  0  0  0  0  0  0  0  0  0
   37.8000   24.8680   38.6730 F   0  0  0  0  0  0  0  0  0  0  0  0
  1 14  1  0  0  0  0
  2  1  1  0  0  0  0
  2 10  1  0  0  0  0
  3  2  2  0  0  0  0
  4  5  2  0  0  0  0
  4  3  1  0  0  0  0
  5  6  1  0  0  0  0
  6  1  2  0  0  0  0
  7  9  1  0  0  0  0
  8  7  2  0  0  0  0
  9 13  1  0  0  0  0
  9  5  1  0  0  0  0
 11  3  1  0  0  0  0
 12  7  1  0  0  0  0
 14 15  1  0  0  0  0
 15 18  1  0  0  0  0
 15 17  1  0  0  0  0
 15 16  1  0  0  0  0
M  END
>  <minimizedAffinity>
-4.17003345

$$$$

 OpenBabel03272506363D

 18 18  0  0  0  0  0  0  0  0999 V2000
   37.5160   21.8470   33.8130 C   0  0  0  0  0  0  0  0  0  0  0  0
   38.6920   21.7690   33.0270 C   0  0  0  0  0  0  0  0  0  0  0  0
   39.9100   21.9050   33.6570 C   0  0  0  0  0  0  0  0  0  0  0  0
   39.9010   22.1090   35.0180 N   0  0  0  0  0  0  0  0  0  0  0  0
   38.7710   22.1780   35.7400 C   0  0  0  0  0  0  0  0  0  0  0  0
   37.6000   22.0460   35.1280 N   0  0  0  0  0  0  0  0  0  0  0  0
   38.1260   23.6060   37.5290 C   0  0  0  0  0  0  0  0  0  0  0  0
   37.5150   24.4360   36.7940 O   0  0  0  0  0  0  0  0  0  0  0  0
   38.8280   22.3930   37.1540 N   0  0  0  0  0  0  0  0  0  0  0  0
   38.7160   21.6080   31.9540 H   0  0  0  0  0  0  0  0  0  0  0  0
   40.8300   21.8520   33.1000 H   0  0  0  0  0  0  0  0  0  0  0  0
   38.1130   23.8560   38.6020 H   0  0  0  0  0  0  0  0  0  0  0  0
   39.3110   21.7550   37.8130 H   0  0  0  0  0  0  0  0  0  0  0  0
   36.3490   21.6960   33.0700 O   0  0  0  0  0  0  0  0  0  0  0  0
   35.6480   20.4800   33.2080 C   0  0  0  0  0  0  0  0  0  0  0  0
   36.4740   19.4710   32.7560 F   0  0  0  0  0  0  0  0  0  0  0  0
   35.3500   20.2430   34.5250 F   0  0  0  0  0  0  0  0  0  0  0  0
   34.4680   20.5040   32.4920 F   0  0  0  0  0  0  0  0  0  0  0  0
  1  6  1  0  0  0  0
  2  3  1  0  0  0  0
  2  1  2  0  0  0  0
  3  4  2  0  0  0  0
  4  5  1  0  0  0  0
  5  9  1  0  0  0  0
  6  5  2  0  0  0  0
  7 12  1  0  0  0  0
  8  7  2  0  0  0  0
  9  7  1  0  0  0  0
  9 13  1  0  0  0  0
 10  2  1  0  0  0  0
 11  3  1  0  0  0  0
 14 15  1  0  0  0  0
 14  1  1  0  0  0  0
 15 17  1  0  0  0  0
 16 15  1  0  0  0  0
 18 15  1  0  0  0  0
M  END
>  <minimizedAffinity>
-4.14984035

$$$$

 OpenBabel03272506363D

 18 18  0  0  0  0  0  0  0  0999 V2000
   40.3580   24.4970   35.1280 C   0  0  0  0  0  0  0  0  0  0  0  0
   41.7170   24.1510   35.3340 C   0  0  0  0  0  0  0  0  0  0  0  0
   42.0190   23.2550   36.3360 C   0  0  0  0  0  0  0  0  0  0  0  0
   40.9730   22.7530   37.0750 N   0  0  0  0  0  0  0  0  0  0  0  0
   39.6930   23.0980   36.8590 C   0  0  0  0  0  0  0  0  0  0  0  0
   39.4070   23.9610   35.8910 N   0  0  0  0  0  0  0  0  0  0  0  0
   37.9130   23.5780   38.3600 C   0  0  0  0  0  0  0  0  0  0  0  0
   38.0830   24.8330   38.3370 O   0  0  0  0  0  0  0  0  0  0  0  0
   38.6480   22.5400   37.6630 N   0  0  0  0  0  0  0  0  0  0  0  0
   42.5530   24.5380   34.7590 H   0  0  0  0  0  0  0  0  0  0  0  0
   43.0380   22.9640   36.5280 H   0  0  0  0  0  0  0  0  0  0  0  0
   37.0830   23.2450   39.0060 H   0  0  0  0  0  0  0  0  0  0  0  0
   38.4530   21.5240   37.7280 H   0  0  0  0  0  0  0  0  0  0  0  0
   40.1750   25.4080   34.0910 O   0  0  0  0  0  0  0  0  0  0  0  0
   40.2610   26.7780   34.4120 C   0  0  0  0  0  0  0  0  0  0  0  0
   39.4640   27.4640   33.5180 F   0  0  0  0  0  0  0  0  0  0  0  0
   39.7900   27.0050   35.6800 F   0  0  0  0  0  0  0  0  0  0  0  0
   41.5660   27.2220   34.3450 F   0  0  0  0  0  0  0  0  0  0  0  0
  1  2  2  0  0  0  0
  1  6  1  0  0  0  0
  2  3  1  0  0  0  0
  3 11  1  0  0  0  0
  3  4  2  0  0  0  0
  5  4  1  0  0  0  0
  5  9  1  0  0  0  0
  6  5  2  0  0  0  0
  7 12  1  0  0  0  0
  8  7  2  0  0  0  0
  9 13  1  0  0  0  0
  9  7  1  0  0  0  0
 10  2  1  0  0  0  0
 14 15  1  0  0  0  0
 14  1  1  0  0  0  0
 15 17  1  0  0  0  0
 16 15  1  0  0  0  0
 18 15  1  0  0  0  0
M  END
>  <minimizedAffinity>
-4.12750101

$$$$

 OpenBabel03272506363D

 18 18  0  0  0  0  0  0  0  0999 V2000
   38.1250   25.9560   33.4620 C   0  0  0  0  0  0  0  0  0  0  0  0
   39.3860   26.0060   32.8190 C   0  0  0  0  0  0  0  0  0  0  0  0
   39.4180   26.1730   31.4520 C   0  0  0  0  0  0  0  0  0  0  0  0
   38.2120   26.2800   30.7980 N   0  0  0  0  0  0  0  0  0  0  0  0
   37.0290   26.2290   31.4310 C   0  0  0  0  0  0  0  0  0  0  0  0
   37.0040   26.0690   32.7500 N   0  0  0  0  0  0  0  0  0  0  0  0
   34.9780   25.1680   30.8630 C   0  0  0  0  0  0  0  0  0  0  0  0
   35.2020   24.1220   31.5410 O   0  0  0  0  0  0  0  0  0  0  0  0
   35.8070   26.3460   30.6940 N   0  0  0  0  0  0  0  0  0  0  0  0
   40.3460   25.9240   33.3200 H   0  0  0  0  0  0  0  0  0  0  0  0
   40.3540   26.2170   30.9210 H   0  0  0  0  0  0  0  0  0  0  0  0
   34.0120   25.1650   30.3330 H   0  0  0  0  0  0  0  0  0  0  0  0
   35.5610   27.1730   30.1190 H   0  0  0  0  0  0  0  0  0  0  0  0
   38.2180   25.7840   34.8400 O   0  0  0  0  0  0  0  0  0  0  0  0
   38.5320   26.9220   35.6120 C   0  0  0  0  0  0  0  0  0  0  0  0
   37.7700   27.9700   35.1350 F   0  0  0  0  0  0  0  0  0  0  0  0
   38.2110   26.7130   36.9290 F   0  0  0  0  0  0  0  0  0  0  0  0
   39.8770   27.2190   35.5330 F   0  0  0  0  0  0  0  0  0  0  0  0
  1 14  1  0  0  0  0
  2 10  1  0  0  0  0
  2  1  1  0  0  0  0
  3  2  2  0  0  0  0
  4  5  2  0  0  0  0
  4  3  1  0  0  0  0
  5  6  1  0  0  0  0
  6  1  2  0  0  0  0
  7  8  2  0  0  0  0
  9  7  1  0  0  0  0
  9  5  1  0  0  0  0
 11  3  1  0  0  0  0
 12  7  1  0  0  0  0
 13  9  1  0  0  0  0
 14 15  1  0  0  0  0
 15 17  1  0  0  0  0
 16 15  1  0  0  0  0
 18 15  1  0  0  0  0
M  END
>  <minimizedAffinity>
-4.08691454

$$$$

 OpenBabel03272506363D

 18 18  0  0  0  0  0  0  0  0999 V2000
   38.3880   25.4310   35.6840 C   0  0  0  0  0  0  0  0  0  0  0  0
   38.3580   26.7700   36.1470 C   0  0  0  0  0  0  0  0  0  0  0  0
   37.7670   27.7250   35.3500 C   0  0  0  0  0  0  0  0  0  0  0  0
   37.2410   27.3120   34.1490 N   0  0  0  0  0  0  0  0  0  0  0  0
   37.2810   26.0360   33.7330 C   0  0  0  0  0  0  0  0  0  0  0  0
   37.8520   25.1180   34.5050 N   0  0  0  0  0  0  0  0  0  0  0  0
   37.7170   25.0850   31.5970 C   0  0  0  0  0  0  0  0  0  0  0  0
   38.9480   24.8820   31.8140 O   0  0  0  0  0  0  0  0  0  0  0  0
   36.7150   25.6680   32.4690 N   0  0  0  0  0  0  0  0  0  0  0  0
   38.7690   27.1120   37.0930 H   0  0  0  0  0  0  0  0  0  0  0  0
   37.7220   28.7560   35.6630 H   0  0  0  0  0  0  0  0  0  0  0  0
   37.3750   24.7670   30.5980 H   0  0  0  0  0  0  0  0  0  0  0  0
   35.7180   25.8060   32.2260 H   0  0  0  0  0  0  0  0  0  0  0  0
   39.0090   24.5570   36.5710 O   0  0  0  0  0  0  0  0  0  0  0  0
   38.2170   24.0140   37.6040 C   0  0  0  0  0  0  0  0  0  0  0  0
   38.8930   22.9250   38.1170 F   0  0  0  0  0  0  0  0  0  0  0  0
   38.0410   24.9310   38.6090 F   0  0  0  0  0  0  0  0  0  0  0  0
   36.9750   23.6410   37.1320 F   0  0  0  0  0  0  0  0  0  0  0  0
  1  2  1  0  0  0  0
  1 14  1  0  0  0  0
  2 10  1  0  0  0  0
  3 11  1  0  0  0  0
  3  2  2  0  0  0  0
  4  3  1  0  0  0  0
  5  4  2  0  0  0  0
  5  6  1  0  0  0  0
  6  1  2  0  0  0  0
  7  8  2  0  0  0  0
  7  9  1  0  0  0  0
  9  5  1  0  0  0  0
 12  7  1  0  0  0  0
 13  9  1  0  0  0  0
 14 15  1  0  0  0  0
 15 16  1  0  0  0  0
 15 17  1  0  0  0  0
 18 15  1  0  0  0  0
M  END
>  <minimizedAffinity>
-4.06259251

$$$$

 OpenBabel03272506363D

 18 18  0  0  0  0  0  0  0  0999 V2000
   38.2580   24.8750   36.2120 C   0  0  0  0  0  0  0  0  0  0  0  0
   37.8170   24.5320   37.5140 C   0  0  0  0  0  0  0  0  0  0  0  0
   38.4950   23.5450   38.1960 C   0  0  0  0  0  0  0  0  0  0  0  0
   39.5620   22.9530   37.5610 N   0  0  0  0  0  0  0  0  0  0  0  0
   39.9600   23.2970   36.3250 C   0  0  0  0  0  0  0  0  0  0  0  0
   39.3040   24.2490   35.6720 N   0  0  0  0  0  0  0  0  0  0  0  0
   40.6950   21.9860   34.4820 C   0  0  0  0  0  0  0  0  0  0  0  0
   39.5590   21.9310   33.9240 O   0  0  0  0  0  0  0  0  0  0  0  0
   41.0790   22.6430   35.7170 N   0  0  0  0  0  0  0  0  0  0  0  0
   36.9780   24.9890   38.0290 H   0  0  0  0  0  0  0  0  0  0  0  0
   38.1950   23.2520   39.1880 H   0  0  0  0  0  0  0  0  0  0  0  0
   41.4930   21.4550   33.9370 H   0  0  0  0  0  0  0  0  0  0  0  0
   42.0350   22.6480   36.1180 H   0  0  0  0  0  0  0  0  0  0  0  0
   37.4990   25.8820   35.6230 O   0  0  0  0  0  0  0  0  0  0  0  0
   38.1460   27.1070   35.3590 C   0  0  0  0  0  0  0  0  0  0  0  0
   37.1750   28.0890   35.3230 F   0  0  0  0  0  0  0  0  0  0  0  0
   39.0340   27.4080   36.3600 F   0  0  0  0  0  0  0  0  0  0  0  0
   38.8350   27.0560   34.1650 F   0  0  0  0  0  0  0  0  0  0  0  0
  1  2  1  0  0  0  0
  2 10  1  0  0  0  0
  2  3  2  0  0  0  0
  3 11  1  0  0  0  0
  4  3  1  0  0  0  0
  5  4  2  0  0  0  0
  6  1  2  0  0  0  0
  6  5  1  0  0  0  0
  7  9  1  0  0  0  0
  8  7  2  0  0  0  0
  9 13  1  0  0  0  0
  9  5  1  0  0  0  0
 12  7  1  0  0  0  0
 14  1  1  0  0  0  0
 15 14  1  0  0  0  0
 15 17  1  0  0  0  0
 16 15  1  0  0  0  0
 18 15  1  0  0  0  0
M  END
>  <minimizedAffinity>
-4.04886866

$$$$

 OpenBabel03272506363D

 18 18  0  0  0  0  0  0  0  0999 V2000
   39.0480   24.9200   34.8410 C   0  0  0  0  0  0  0  0  0  0  0  0
   40.4300   24.8850   34.5330 C   0  0  0  0  0  0  0  0  0  0  0  0
   41.2460   24.0620   35.2780 C   0  0  0  0  0  0  0  0  0  0  0  0
   40.6590   23.3250   36.2800 N   0  0  0  0  0  0  0  0  0  0  0  0
   39.3450   23.3770   36.5530 C   0  0  0  0  0  0  0  0  0  0  0  0
   38.5620   24.1710   35.8310 N   0  0  0  0  0  0  0  0  0  0  0  0
   38.1610   23.4180   38.6140 C   0  0  0  0  0  0  0  0  0  0  0  0
   38.0530   24.6790   38.6550 O   0  0  0  0  0  0  0  0  0  0  0  0
   38.7940   22.5840   37.6100 N   0  0  0  0  0  0  0  0  0  0  0  0
   40.9080   25.4600   33.7450 H   0  0  0  0  0  0  0  0  0  0  0  0
   42.3030   24.0040   35.0780 H   0  0  0  0  0  0  0  0  0  0  0  0
   37.7040   22.8970   39.4710 H   0  0  0  0  0  0  0  0  0  0  0  0
   38.8470   21.5500   37.6400 H   0  0  0  0  0  0  0  0  0  0  0  0
   38.3250   25.7840   34.0240 O   0  0  0  0  0  0  0  0  0  0  0  0
   37.8000   26.9500   34.6200 C   0  0  0  0  0  0  0  0  0  0  0  0
   36.6310   26.5970   35.2650 F   0  0  0  0  0  0  0  0  0  0  0  0
   38.6760   27.4510   35.5490 F   0  0  0  0  0  0  0  0  0  0  0  0
   37.5620   27.9260   33.6740 F   0  0  0  0  0  0  0  0  0  0  0  0
  1  6  1  0  0  0  0
  2  1  2  0  0  0  0
  2  3  1  0  0  0  0
  3  4  2  0  0  0  0
  4  5  1  0  0  0  0
  5  9  1  0  0  0  0
  6  5  2  0  0  0  0
  7  8  2  0  0  0  0
  7 12  1  0  0  0  0
  9 13  1  0  0  0  0
  9  7  1  0  0  0  0
 10  2  1  0  0  0  0
 11  3  1  0  0  0  0
 14 15  1  0  0  0  0
 14  1  1  0  0  0  0
 15 16  1  0  0  0  0
 15 17  1  0  0  0  0
 18 15  1  0  0  0  0
M  END
>  <minimizedAffinity>
-4.03180122

$$$$
