
 OpenBabel03272510113D

 23 24  0  0  0  0  0  0  0  0999 V2000
   37.3220   27.1440   34.0310 C   0  0  0  0  0  0  0  0  0  0  0  0
   37.7740   27.5450   35.2560 C   0  0  0  0  0  0  0  0  0  0  0  0
   38.2980   26.7090   36.2100 C   0  0  0  0  0  0  0  0  0  0  0  0
   38.3930   25.3550   35.9550 C   0  0  0  0  0  0  0  0  0  0  0  0
   37.9290   24.9520   34.7010 C   0  0  0  0  0  0  0  0  0  0  0  0
   37.4240   25.8120   33.7980 N   0  0  0  0  0  0  0  0  0  0  0  0
   37.7310   28.6010   35.5300 H   0  0  0  0  0  0  0  0  0  0  0  0
   38.6590   27.0160   37.1830 H   0  0  0  0  0  0  0  0  0  0  0  0
   37.9720   23.8990   34.4290 H   0  0  0  0  0  0  0  0  0  0  0  0
   37.1010   28.0060   31.6810 C   0  0  0  0  0  0  0  0  0  0  0  0
   36.7760   28.0360   33.0420 C   0  0  0  0  0  0  0  0  0  0  0  0
   35.8600   28.9980   33.4560 C   0  0  0  0  0  0  0  0  0  0  0  0
   35.3340   29.8530   32.5230 N   0  0  0  0  0  0  0  0  0  0  0  0
   35.6850   29.7770   31.2220 C   0  0  0  0  0  0  0  0  0  0  0  0
   36.5680   28.8570   30.7930 N   0  0  0  0  0  0  0  0  0  0  0  0
   37.8170   27.2510   31.3700 H   0  0  0  0  0  0  0  0  0  0  0  0
   35.5390   29.1070   34.4940 H   0  0  0  0  0  0  0  0  0  0  0  0
   35.1680   30.5300   30.6390 H   0  0  0  0  0  0  0  0  0  0  0  0
   38.8900   24.3660   36.7900 O   0  0  0  0  0  0  0  0  0  0  0  0
   38.2330   23.8810   37.9210 C   0  0  0  0  0  0  0  0  0  0  0  0
   39.0560   22.9960   38.6000 F   0  0  0  0  0  0  0  0  0  0  0  0
   37.8670   24.8600   38.8310 F   0  0  0  0  0  0  0  0  0  0  0  0
   37.1290   23.1570   37.4780 F   0  0  0  0  0  0  0  0  0  0  0  0
  1  2  1  0  0  0  0
  2  7  1  0  0  0  0
  2  3  2  0  0  0  0
  3  8  1  0  0  0  0
  4  3  1  0  0  0  0
  4 19  1  0  0  0  0
  5  4  2  0  0  0  0
  6  1  2  0  0  0  0
  6  5  1  0  0  0  0
  9  5  1  0  0  0  0
 10 11  1  0  0  0  0
 11 12  2  0  0  0  0
 11  1  1  0  0  0  0
 12 17  1  0  0  0  0
 13 12  1  0  0  0  0
 14 13  2  0  0  0  0
 15 14  1  0  0  0  0
 15 10  2  0  0  0  0
 16 10  1  0  0  0  0
 18 14  1  0  0  0  0
 19 20  1  0  0  0  0
 20 21  1  0  0  0  0
 20 22  1  0  0  0  0
 23 20  1  0  0  0  0
M  END
>  <minimizedAffinity>
-4.95707178

$$$$

 OpenBabel03272510113D

 23 24  0  0  0  0  0  0  0  0999 V2000
   39.1040   26.2870   33.7630 C   0  0  0  0  0  0  0  0  0  0  0  0
   38.9020   26.9620   34.9320 C   0  0  0  0  0  0  0  0  0  0  0  0
   38.3520   26.4190   36.0660 C   0  0  0  0  0  0  0  0  0  0  0  0
   37.9590   25.0950   36.0690 C   0  0  0  0  0  0  0  0  0  0  0  0
   38.1680   24.4100   34.8700 C   0  0  0  0  0  0  0  0  0  0  0  0
   38.7130   24.9890   33.7840 N   0  0  0  0  0  0  0  0  0  0  0  0
   39.1870   28.0140   35.0060 H   0  0  0  0  0  0  0  0  0  0  0  0
   38.1870   26.9450   36.9970 H   0  0  0  0  0  0  0  0  0  0  0  0
   37.8830   23.3630   34.7960 H   0  0  0  0  0  0  0  0  0  0  0  0
   41.0550   26.9090   32.3050 C   0  0  0  0  0  0  0  0  0  0  0  0
   39.6830   26.8730   32.5820 C   0  0  0  0  0  0  0  0  0  0  0  0
   38.8300   27.4480   31.6450 C   0  0  0  0  0  0  0  0  0  0  0  0
   39.3700   28.0100   30.5180 N   0  0  0  0  0  0  0  0  0  0  0  0
   40.7030   28.0150   30.3040 C   0  0  0  0  0  0  0  0  0  0  0  0
   41.5510   27.4670   31.1930 N   0  0  0  0  0  0  0  0  0  0  0  0
   41.7100   26.4580   33.0440 H   0  0  0  0  0  0  0  0  0  0  0  0
   37.7450   27.4730   31.7650 H   0  0  0  0  0  0  0  0  0  0  0  0
   40.9400   28.5000   29.3650 H   0  0  0  0  0  0  0  0  0  0  0  0
   37.3900   24.3800   37.1110 O   0  0  0  0  0  0  0  0  0  0  0  0
   38.0870   23.9120   38.2250 C   0  0  0  0  0  0  0  0  0  0  0  0
   37.3720   22.8920   38.8330 F   0  0  0  0  0  0  0  0  0  0  0  0
   39.3420   23.4000   37.9370 F   0  0  0  0  0  0  0  0  0  0  0  0
   38.1610   24.9620   39.1370 F   0  0  0  0  0  0  0  0  0  0  0  0
  1  6  2  0  0  0  0
  1  2  1  0  0  0  0
  2  7  1  0  0  0  0
  2  3  2  0  0  0  0
  3  4  1  0  0  0  0
  3  8  1  0  0  0  0
  4 19  1  0  0  0  0
  5  4  2  0  0  0  0
  6  5  1  0  0  0  0
  9  5  1  0  0  0  0
 10 11  1  0  0  0  0
 10 16  1  0  0  0  0
 11  1  1  0  0  0  0
 12 17  1  0  0  0  0
 12 11  2  0  0  0  0
 13 12  1  0  0  0  0
 14 13  2  0  0  0  0
 14 15  1  0  0  0  0
 15 10  2  0  0  0  0
 18 14  1  0  0  0  0
 19 20  1  0  0  0  0
 20 21  1  0  0  0  0
 20 23  1  0  0  0  0
 22 20  1  0  0  0  0
M  END
>  <minimizedAffinity>
-4.52719736

$$$$

 OpenBabel03272510113D

 23 24  0  0  0  0  0  0  0  0999 V2000
   37.5620   26.2140   34.3170 C   0  0  0  0  0  0  0  0  0  0  0  0
   37.7490   26.2570   35.6690 C   0  0  0  0  0  0  0  0  0  0  0  0
   38.1760   25.2020   36.4360 C   0  0  0  0  0  0  0  0  0  0  0  0
   38.4490   23.9870   35.8370 C   0  0  0  0  0  0  0  0  0  0  0  0
   38.2550   23.9500   34.4540 C   0  0  0  0  0  0  0  0  0  0  0  0
   37.8340   25.0140   33.7470 N   0  0  0  0  0  0  0  0  0  0  0  0
   37.5530   27.1830   36.2130 H   0  0  0  0  0  0  0  0  0  0  0  0
   38.3270   25.2250   37.5060 H   0  0  0  0  0  0  0  0  0  0  0  0
   38.4490   23.0260   33.9130 H   0  0  0  0  0  0  0  0  0  0  0  0
   37.4460   27.5400   32.1850 C   0  0  0  0  0  0  0  0  0  0  0  0
   37.1130   27.3320   33.5290 C   0  0  0  0  0  0  0  0  0  0  0  0
   36.2900   28.2770   34.1340 C   0  0  0  0  0  0  0  0  0  0  0  0
   35.8570   29.3450   33.3930 N   0  0  0  0  0  0  0  0  0  0  0  0
   36.2120   29.4940   32.0990 C   0  0  0  0  0  0  0  0  0  0  0  0
   37.0060   28.5960   31.4890 N   0  0  0  0  0  0  0  0  0  0  0  0
   38.0890   26.7950   31.7240 H   0  0  0  0  0  0  0  0  0  0  0  0
   35.9720   28.2080   35.1760 H   0  0  0  0  0  0  0  0  0  0  0  0
   35.7750   30.3930   31.6810 H   0  0  0  0  0  0  0  0  0  0  0  0
   38.8850   22.8200   36.4430 O   0  0  0  0  0  0  0  0  0  0  0  0
   40.1200   22.6700   37.0740 C   0  0  0  0  0  0  0  0  0  0  0  0
   40.0280   23.0840   38.3940 F   0  0  0  0  0  0  0  0  0  0  0  0
   40.5910   21.3670   37.1000 F   0  0  0  0  0  0  0  0  0  0  0  0
   41.0160   23.5250   36.4380 F   0  0  0  0  0  0  0  0  0  0  0  0
  1  2  1  0  0  0  0
  2  7  1  0  0  0  0
  2  3  2  0  0  0  0
  3  8  1  0  0  0  0
  4  3  1  0  0  0  0
  4 19  1  0  0  0  0
  5  4  2  0  0  0  0
  6  1  2  0  0  0  0
  6  5  1  0  0  0  0
  9  5  1  0  0  0  0
 10 11  1  0  0  0  0
 11 12  2  0  0  0  0
 11  1  1  0  0  0  0
 12 17  1  0  0  0  0
 13 12  1  0  0  0  0
 14 13  2  0  0  0  0
 15 14  1  0  0  0  0
 15 10  2  0  0  0  0
 16 10  1  0  0  0  0
 18 14  1  0  0  0  0
 19 20  1  0  0  0  0
 20 22  1  0  0  0  0
 20 21  1  0  0  0  0
 23 20  1  0  0  0  0
M  END
>  <minimizedAffinity>
-4.50890303

$$$$

 OpenBabel03272510113D

 23 24  0  0  0  0  0  0  0  0999 V2000
   37.5000   26.9510   33.7650 C   0  0  0  0  0  0  0  0  0  0  0  0
   37.6030   25.6020   33.5800 C   0  0  0  0  0  0  0  0  0  0  0  0
   38.0780   24.7160   34.5140 C   0  0  0  0  0  0  0  0  0  0  0  0
   38.4940   25.1800   35.7470 C   0  0  0  0  0  0  0  0  0  0  0  0
   38.3870   26.5610   35.9300 C   0  0  0  0  0  0  0  0  0  0  0  0
   37.9130   27.3880   34.9810 N   0  0  0  0  0  0  0  0  0  0  0  0
   37.2940   25.1610   32.6300 H   0  0  0  0  0  0  0  0  0  0  0  0
   38.1640   23.6470   34.3780 H   0  0  0  0  0  0  0  0  0  0  0  0
   38.6950   27.0000   36.8760 H   0  0  0  0  0  0  0  0  0  0  0  0
   35.7990   28.5780   32.8840 C   0  0  0  0  0  0  0  0  0  0  0  0
   36.9990   27.8660   32.7730 C   0  0  0  0  0  0  0  0  0  0  0  0
   37.7500   28.0630   31.6190 C   0  0  0  0  0  0  0  0  0  0  0  0
   37.2830   28.9310   30.6670 N   0  0  0  0  0  0  0  0  0  0  0  0
   36.1170   29.5910   30.8300 C   0  0  0  0  0  0  0  0  0  0  0  0
   35.3690   29.4190   31.9340 N   0  0  0  0  0  0  0  0  0  0  0  0
   35.2210   28.4150   33.7890 H   0  0  0  0  0  0  0  0  0  0  0  0
   38.7000   27.5570   31.4340 H   0  0  0  0  0  0  0  0  0  0  0  0
   35.9140   30.2290   29.9770 H   0  0  0  0  0  0  0  0  0  0  0  0
   38.9980   24.4420   36.8060 O   0  0  0  0  0  0  0  0  0  0  0  0
   38.2470   24.0110   37.9000 C   0  0  0  0  0  0  0  0  0  0  0  0
   38.9140   22.9870   38.5550 F   0  0  0  0  0  0  0  0  0  0  0  0
   38.0040   24.9940   38.8460 F   0  0  0  0  0  0  0  0  0  0  0  0
   37.0620   23.4760   37.4020 F   0  0  0  0  0  0  0  0  0  0  0  0
  1  6  1  0  0  0  0
  2  1  2  0  0  0  0
  2  3  1  0  0  0  0
  3  4  2  0  0  0  0
  4  5  1  0  0  0  0
  4 19  1  0  0  0  0
  5  9  1  0  0  0  0
  6  5  2  0  0  0  0
  7  2  1  0  0  0  0
  8  3  1  0  0  0  0
 10 16  1  0  0  0  0
 11 10  1  0  0  0  0
 11  1  1  0  0  0  0
 12 11  2  0  0  0  0
 13 14  2  0  0  0  0
 13 12  1  0  0  0  0
 14 15  1  0  0  0  0
 15 10  2  0  0  0  0
 17 12  1  0  0  0  0
 18 14  1  0  0  0  0
 19 20  1  0  0  0  0
 20 21  1  0  0  0  0
 20 22  1  0  0  0  0
 23 20  1  0  0  0  0
M  END
>  <minimizedAffinity>
-4.48577213

$$$$

 OpenBabel03272510113D

 23 24  0  0  0  0  0  0  0  0999 V2000
   38.0100   25.4110   35.0400 C   0  0  0  0  0  0  0  0  0  0  0  0
   37.6020   26.6760   35.3520 C   0  0  0  0  0  0  0  0  0  0  0  0
   36.9880   27.5400   34.4800 C   0  0  0  0  0  0  0  0  0  0  0  0
   36.7450   27.1400   33.1800 C   0  0  0  0  0  0  0  0  0  0  0  0
   37.1660   25.8450   32.8680 C   0  0  0  0  0  0  0  0  0  0  0  0
   37.7640   25.0360   33.7610 N   0  0  0  0  0  0  0  0  0  0  0  0
   37.7610   27.0630   36.3610 H   0  0  0  0  0  0  0  0  0  0  0  0
   36.6610   28.5430   34.7160 H   0  0  0  0  0  0  0  0  0  0  0  0
   37.0080   25.4610   31.8620 H   0  0  0  0  0  0  0  0  0  0  0  0
   39.8530   23.8430   35.7190 C   0  0  0  0  0  0  0  0  0  0  0  0
   38.6540   24.5190   35.9700 C   0  0  0  0  0  0  0  0  0  0  0  0
   38.0500   24.3060   37.2050 C   0  0  0  0  0  0  0  0  0  0  0  0
   38.6540   23.4590   38.0970 N   0  0  0  0  0  0  0  0  0  0  0  0
   39.8120   22.8340   37.8000 C   0  0  0  0  0  0  0  0  0  0  0  0
   40.4170   23.0200   36.6140 N   0  0  0  0  0  0  0  0  0  0  0  0
   40.3150   24.0160   34.7510 H   0  0  0  0  0  0  0  0  0  0  0  0
   37.1140   24.7850   37.5000 H   0  0  0  0  0  0  0  0  0  0  0  0
   40.1340   22.2080   38.6240 H   0  0  0  0  0  0  0  0  0  0  0  0
   36.1420   27.8680   32.1670 O   0  0  0  0  0  0  0  0  0  0  0  0
   36.7890   28.8260   31.3860 C   0  0  0  0  0  0  0  0  0  0  0  0
   36.7020   30.0680   31.9980 F   0  0  0  0  0  0  0  0  0  0  0  0
   38.1360   28.5780   31.1820 F   0  0  0  0  0  0  0  0  0  0  0  0
   36.0960   28.9130   30.1810 F   0  0  0  0  0  0  0  0  0  0  0  0
  1  2  1  0  0  0  0
  1 11  1  0  0  0  0
  2  7  1  0  0  0  0
  3  8  1  0  0  0  0
  3  2  2  0  0  0  0
  4  3  1  0  0  0  0
  5  4  2  0  0  0  0
  5  6  1  0  0  0  0
  6  1  2  0  0  0  0
  9  5  1  0  0  0  0
 10 11  2  0  0  0  0
 10 15  1  0  0  0  0
 11 12  1  0  0  0  0
 12 17  1  0  0  0  0
 12 13  2  0  0  0  0
 14 13  1  0  0  0  0
 14 18  1  0  0  0  0
 15 14  2  0  0  0  0
 16 10  1  0  0  0  0
 19  4  1  0  0  0  0
 20 21  1  0  0  0  0
 20 19  1  0  0  0  0
 22 20  1  0  0  0  0
 23 20  1  0  0  0  0
M  END
>  <minimizedAffinity>
-4.48284006

$$$$

 OpenBabel03272510113D

 23 24  0  0  0  0  0  0  0  0999 V2000
   37.6690   25.3550   33.9290 C   0  0  0  0  0  0  0  0  0  0  0  0
   37.7520   25.6500   35.2590 C   0  0  0  0  0  0  0  0  0  0  0  0
   38.2110   24.7910   36.2260 C   0  0  0  0  0  0  0  0  0  0  0  0
   38.6310   23.5240   35.8700 C   0  0  0  0  0  0  0  0  0  0  0  0
   38.5430   23.2290   34.5080 C   0  0  0  0  0  0  0  0  0  0  0  0
   38.0840   24.1080   33.5990 N   0  0  0  0  0  0  0  0  0  0  0  0
   37.4380   26.6330   35.6160 H   0  0  0  0  0  0  0  0  0  0  0  0
   38.2810   25.0140   37.2820 H   0  0  0  0  0  0  0  0  0  0  0  0
   38.8550   22.2490   34.1530 H   0  0  0  0  0  0  0  0  0  0  0  0
   37.4590   27.6430   32.9080 C   0  0  0  0  0  0  0  0  0  0  0  0
   37.1840   26.2700   32.9280 C   0  0  0  0  0  0  0  0  0  0  0  0
   36.3840   25.7680   31.9070 C   0  0  0  0  0  0  0  0  0  0  0  0
   35.9170   26.6300   30.9500 N   0  0  0  0  0  0  0  0  0  0  0  0
   36.2160   27.9450   30.9820 C   0  0  0  0  0  0  0  0  0  0  0  0
   36.9860   28.4590   31.9570 N   0  0  0  0  0  0  0  0  0  0  0  0
   38.0840   28.0230   33.7110 H   0  0  0  0  0  0  0  0  0  0  0  0
   36.1100   24.7140   31.8300 H   0  0  0  0  0  0  0  0  0  0  0  0
   35.7600   28.4640   30.1470 H   0  0  0  0  0  0  0  0  0  0  0  0
   39.1210   22.5280   36.7000 O   0  0  0  0  0  0  0  0  0  0  0  0
   40.2820   22.6350   37.4660 C   0  0  0  0  0  0  0  0  0  0  0  0
   40.0000   23.2810   38.6600 F   0  0  0  0  0  0  0  0  0  0  0  0
   40.8580   21.4200   37.7990 F   0  0  0  0  0  0  0  0  0  0  0  0
   41.1680   23.4450   36.7610 F   0  0  0  0  0  0  0  0  0  0  0  0
  1  2  1  0  0  0  0
  2  7  1  0  0  0  0
  2  3  2  0  0  0  0
  3  8  1  0  0  0  0
  4  3  1  0  0  0  0
  4 19  1  0  0  0  0
  5  4  2  0  0  0  0
  6  1  2  0  0  0  0
  6  5  1  0  0  0  0
  9  5  1  0  0  0  0
 10 11  1  0  0  0  0
 10 16  1  0  0  0  0
 11  1  1  0  0  0  0
 12 11  2  0  0  0  0
 13 14  2  0  0  0  0
 13 12  1  0  0  0  0
 14 15  1  0  0  0  0
 15 10  2  0  0  0  0
 17 12  1  0  0  0  0
 18 14  1  0  0  0  0
 19 20  1  0  0  0  0
 20 22  1  0  0  0  0
 20 21  1  0  0  0  0
 23 20  1  0  0  0  0
M  END
>  <minimizedAffinity>
-4.48218155

$$$$

 OpenBabel03272510113D

 23 24  0  0  0  0  0  0  0  0999 V2000
   38.1270   25.2730   35.0920 C   0  0  0  0  0  0  0  0  0  0  0  0
   37.7640   26.5550   35.3910 C   0  0  0  0  0  0  0  0  0  0  0  0
   37.1230   27.4100   34.5300 C   0  0  0  0  0  0  0  0  0  0  0  0
   36.8020   26.9830   33.2560 C   0  0  0  0  0  0  0  0  0  0  0  0
   37.1760   25.6720   32.9560 C   0  0  0  0  0  0  0  0  0  0  0  0
   37.8040   24.8720   33.8370 N   0  0  0  0  0  0  0  0  0  0  0  0
   37.9850   26.9630   36.3800 H   0  0  0  0  0  0  0  0  0  0  0  0
   36.8320   28.4260   34.7570 H   0  0  0  0  0  0  0  0  0  0  0  0
   36.9560   25.2660   31.9710 H   0  0  0  0  0  0  0  0  0  0  0  0
   38.3160   24.0440   37.2760 C   0  0  0  0  0  0  0  0  0  0  0  0
   38.7990   24.3890   36.0080 C   0  0  0  0  0  0  0  0  0  0  0  0
   40.0140   23.8350   35.6190 C   0  0  0  0  0  0  0  0  0  0  0  0
   40.6630   22.9940   36.4840 N   0  0  0  0  0  0  0  0  0  0  0  0
   40.1480   22.6970   37.6950 C   0  0  0  0  0  0  0  0  0  0  0  0
   38.9760   23.2180   38.0990 N   0  0  0  0  0  0  0  0  0  0  0  0
   37.3670   24.4830   37.5690 H   0  0  0  0  0  0  0  0  0  0  0  0
   40.4780   24.0400   34.6520 H   0  0  0  0  0  0  0  0  0  0  0  0
   40.7990   22.0180   38.2350 H   0  0  0  0  0  0  0  0  0  0  0  0
   36.1610   27.6990   32.2580 O   0  0  0  0  0  0  0  0  0  0  0  0
   36.7350   28.7520   31.5440 C   0  0  0  0  0  0  0  0  0  0  0  0
   36.1780   28.8200   30.2760 F   0  0  0  0  0  0  0  0  0  0  0  0
   36.5530   29.9970   32.1240 F   0  0  0  0  0  0  0  0  0  0  0  0
   38.0850   28.4540   31.3840 F   0  0  0  0  0  0  0  0  0  0  0  0
  1  2  1  0  0  0  0
  1 11  1  0  0  0  0
  2  7  1  0  0  0  0
  3  8  1  0  0  0  0
  3  2  2  0  0  0  0
  4  3  1  0  0  0  0
  5  4  2  0  0  0  0
  5  6  1  0  0  0  0
  6  1  2  0  0  0  0
  9  5  1  0  0  0  0
 10 16  1  0  0  0  0
 10 15  1  0  0  0  0
 11 10  2  0  0  0  0
 12 11  1  0  0  0  0
 12 13  2  0  0  0  0
 13 14  1  0  0  0  0
 14 15  2  0  0  0  0
 14 18  1  0  0  0  0
 17 12  1  0  0  0  0
 19  4  1  0  0  0  0
 20 22  1  0  0  0  0
 20 19  1  0  0  0  0
 21 20  1  0  0  0  0
 23 20  1  0  0  0  0
M  END
>  <minimizedAffinity>
-4.4764781

$$$$

 OpenBabel03272510113D

 23 24  0  0  0  0  0  0  0  0999 V2000
   36.6250   24.4260   31.8980 C   0  0  0  0  0  0  0  0  0  0  0  0
   35.6950   23.7000   31.2100 C   0  0  0  0  0  0  0  0  0  0  0  0
   35.5730   22.3330   31.2590 C   0  0  0  0  0  0  0  0  0  0  0  0
   36.4340   21.5990   32.0510 C   0  0  0  0  0  0  0  0  0  0  0  0
   37.3820   22.3470   32.7520 C   0  0  0  0  0  0  0  0  0  0  0  0
   37.4610   23.6880   32.6690 N   0  0  0  0  0  0  0  0  0  0  0  0
   34.9800   24.2120   30.5620 H   0  0  0  0  0  0  0  0  0  0  0  0
   34.8410   21.7490   30.7180 H   0  0  0  0  0  0  0  0  0  0  0  0
   38.0950   21.8370   33.3960 H   0  0  0  0  0  0  0  0  0  0  0  0
   35.7930   26.7030   31.2380 C   0  0  0  0  0  0  0  0  0  0  0  0
   36.7380   25.8600   31.8340 C   0  0  0  0  0  0  0  0  0  0  0  0
   37.8590   26.4590   32.3990 C   0  0  0  0  0  0  0  0  0  0  0  0
   37.9760   27.8230   32.3430 N   0  0  0  0  0  0  0  0  0  0  0  0
   37.0320   28.5870   31.7550 C   0  0  0  0  0  0  0  0  0  0  0  0
   35.9390   28.0350   31.2000 N   0  0  0  0  0  0  0  0  0  0  0  0
   34.9220   26.2240   30.8000 H   0  0  0  0  0  0  0  0  0  0  0  0
   38.6540   25.8920   32.8870 H   0  0  0  0  0  0  0  0  0  0  0  0
   37.2970   29.6360   31.8090 H   0  0  0  0  0  0  0  0  0  0  0  0
   36.4630   20.2240   32.2250 O   0  0  0  0  0  0  0  0  0  0  0  0
   35.4770   19.4880   32.8830 C   0  0  0  0  0  0  0  0  0  0  0  0
   34.2740   19.5980   32.2010 F   0  0  0  0  0  0  0  0  0  0  0  0
   35.7510   18.1340   32.9860 F   0  0  0  0  0  0  0  0  0  0  0  0
   35.2930   20.0700   34.1340 F   0  0  0  0  0  0  0  0  0  0  0  0
  1  6  1  0  0  0  0
  2  3  1  0  0  0  0
  2  1  2  0  0  0  0
  3  4  2  0  0  0  0
  4 19  1  0  0  0  0
  4  5  1  0  0  0  0
  5  9  1  0  0  0  0
  6  5  2  0  0  0  0
  7  2  1  0  0  0  0
  8  3  1  0  0  0  0
 10 11  1  0  0  0  0
 11  1  1  0  0  0  0
 11 12  2  0  0  0  0
 12 17  1  0  0  0  0
 13 12  1  0  0  0  0
 14 18  1  0  0  0  0
 14 13  2  0  0  0  0
 15 10  2  0  0  0  0
 15 14  1  0  0  0  0
 16 10  1  0  0  0  0
 19 20  1  0  0  0  0
 20 22  1  0  0  0  0
 20 23  1  0  0  0  0
 21 20  1  0  0  0  0
M  END
>  <minimizedAffinity>
-4.37917376

$$$$

 OpenBabel03272510113D

 23 24  0  0  0  0  0  0  0  0999 V2000
   36.1310   22.9460   31.8940 C   0  0  0  0  0  0  0  0  0  0  0  0
   35.3170   23.7690   31.1680 C   0  0  0  0  0  0  0  0  0  0  0  0
   35.4730   25.1280   31.0580 C   0  0  0  0  0  0  0  0  0  0  0  0
   36.5180   25.7520   31.7120 C   0  0  0  0  0  0  0  0  0  0  0  0
   37.3460   24.9050   32.4520 C   0  0  0  0  0  0  0  0  0  0  0  0
   37.1500   23.5760   32.5290 N   0  0  0  0  0  0  0  0  0  0  0  0
   34.4690   23.3480   30.6230 H   0  0  0  0  0  0  0  0  0  0  0  0
   34.8350   25.7880   30.4860 H   0  0  0  0  0  0  0  0  0  0  0  0
   38.1900   25.3240   32.9950 H   0  0  0  0  0  0  0  0  0  0  0  0
   36.0530   20.6290   30.9250 C   0  0  0  0  0  0  0  0  0  0  0  0
   35.9510   21.5220   31.9980 C   0  0  0  0  0  0  0  0  0  0  0  0
   35.6550   20.9840   33.2470 C   0  0  0  0  0  0  0  0  0  0  0  0
   35.4820   19.6300   33.3570 N   0  0  0  0  0  0  0  0  0  0  0  0
   35.5920   18.8170   32.2860 C   0  0  0  0  0  0  0  0  0  0  0  0
   35.8770   19.3080   31.0670 N   0  0  0  0  0  0  0  0  0  0  0  0
   36.2830   21.0600   29.9550 H   0  0  0  0  0  0  0  0  0  0  0  0
   35.5540   21.5930   34.1470 H   0  0  0  0  0  0  0  0  0  0  0  0
   35.4230   17.7840   32.5680 H   0  0  0  0  0  0  0  0  0  0  0  0
   36.8320   27.1010   31.7170 O   0  0  0  0  0  0  0  0  0  0  0  0
   36.2190   28.0540   32.5320 C   0  0  0  0  0  0  0  0  0  0  0  0
   34.8700   28.1400   32.2230 F   0  0  0  0  0  0  0  0  0  0  0  0
   36.2980   27.7790   33.8870 F   0  0  0  0  0  0  0  0  0  0  0  0
   36.7890   29.2870   32.2260 F   0  0  0  0  0  0  0  0  0  0  0  0
  1 11  1  0  0  0  0
  1  6  1  0  0  0  0
  2  1  2  0  0  0  0
  3  2  1  0  0  0  0
  3  4  2  0  0  0  0
  4 19  1  0  0  0  0
  4  5  1  0  0  0  0
  5  6  2  0  0  0  0
  5  9  1  0  0  0  0
  7  2  1  0  0  0  0
  8  3  1  0  0  0  0
 10 15  2  0  0  0  0
 10 11  1  0  0  0  0
 11 12  2  0  0  0  0
 12 13  1  0  0  0  0
 12 17  1  0  0  0  0
 14 18  1  0  0  0  0
 14 13  2  0  0  0  0
 15 14  1  0  0  0  0
 16 10  1  0  0  0  0
 19 20  1  0  0  0  0
 20 22  1  0  0  0  0
 21 20  1  0  0  0  0
 23 20  1  0  0  0  0
M  END
>  <minimizedAffinity>
-4.3747921

$$$$
