
 OpenBabel03272502573D

 29 30  0  0  1  0  0  0  0  0999 V2000
   35.8140   29.5750   48.8210 N   0  0  0  0  0  0  0  0  0  0  0  0
   36.5680   28.8190   49.7980 C   0  0  0  0  0  0  0  0  0  0  0  0
   37.0830   29.5260   50.9690 C   0  0  0  0  0  0  0  0  0  0  0  0
   37.3320   30.9750   50.8580 C   0  0  0  0  0  0  0  0  0  0  0  0
   36.5750   31.6620   49.7520 C   0  0  0  0  0  0  0  0  0  0  0  0
   36.5670   30.7770   48.5170 C   0  0  1  0  0  0  0  0  0  0  0  0
   35.9260   27.9510   50.0670 H   0  0  0  0  0  0  0  0  0  0  0  0
   37.4220   28.3710   49.2220 H   0  0  0  0  0  0  0  0  0  0  0  0
   38.0320   29.0510   51.3100 H   0  0  0  0  0  0  0  0  0  0  0  0
   36.3710   29.3190   51.8230 H   0  0  0  0  0  0  0  0  0  0  0  0
   36.9960   31.4880   51.8010 H   0  0  0  0  0  0  0  0  0  0  0  0
   38.4160   31.2230   50.7850 H   0  0  0  0  0  0  0  0  0  0  0  0
   37.1310   32.6020   49.5030 H   0  0  0  0  0  0  0  0  0  0  0  0
   35.5630   31.9800   50.0510 H   0  0  0  0  0  0  0  0  0  0  0  0
   36.1720   31.3110   47.6450 H   0  0  0  0  0  0  0  0  0  0  0  0
   34.5620   29.1940   48.2710 C   0  0  0  0  0  0  0  0  0  0  0  0
   34.0440   29.6970   47.0790 C   0  0  0  0  0  0  0  0  0  0  0  0
   32.8020   29.2360   46.6550 C   0  0  0  0  0  0  0  0  0  0  0  0
   32.1600   28.3150   47.4310 N   0  0  0  0  0  0  0  0  0  0  0  0
   32.6930   27.8550   48.5750 C   0  0  0  0  0  0  0  0  0  0  0  0
   33.8870   28.3000   48.9810 N   0  0  0  0  0  0  0  0  0  0  0  0
   34.6170   30.4110   46.5440 H   0  0  0  0  0  0  0  0  0  0  0  0
   32.4040   29.6250   45.7370 H   0  0  0  0  0  0  0  0  0  0  0  0
   32.1180   27.1140   49.1490 H   0  0  0  0  0  0  0  0  0  0  0  0
   37.9140   30.4750   48.2730 O   0  0  0  0  0  0  0  0  0  0  0  0
   38.4710   31.3220   47.3380 C   0  0  0  0  0  0  0  0  0  0  0  0
   37.5210   31.9230   46.5340 F   0  0  0  0  0  0  0  0  0  0  0  0
   39.2660   30.5160   46.5160 F   0  0  0  0  0  0  0  0  0  0  0  0
   39.2960   32.2170   47.9640 F   0  0  0  0  0  0  0  0  0  0  0  0
  1  2  1  0  0  0  0
  2  7  1  0  0  0  0
  2  3  1  0  0  0  0
  3  9  1  0  0  0  0
  3 10  1  0  0  0  0
  4  3  1  0  0  0  0
  4 11  1  0  0  0  0
  5 14  1  0  0  0  0
  5  4  1  0  0  0  0
  6 15  1  6  0  0  0
  6  1  1  0  0  0  0
  6  5  1  0  0  0  0
  8  2  1  0  0  0  0
 12  4  1  0  0  0  0
 13  5  1  0  0  0  0
 16  1  1  0  0  0  0
 16 21  1  0  0  0  0
 17 16  2  0  0  0  0
 18 17  1  0  0  0  0
 18 19  2  0  0  0  0
 19 20  1  0  0  0  0
 20 21  2  0  0  0  0
 20 24  1  0  0  0  0
 22 17  1  0  0  0  0
 23 18  1  0  0  0  0
 25  6  1  0  0  0  0
 26 29  1  0  0  0  0
 26 25  1  0  0  0  0
 27 26  1  0  0  0  0
 28 26  1  0  0  0  0
M  END
>  <minimizedAffinity>
-5.25684595

>  <minimizedRMSD>
0.502213299

$$$$
