
 OpenBabel03272501183D

 25 26  0  0  0  0  0  0  0  0999 V2000
   38.9180   31.9410   47.7950 C   0  0  0  0  0  0  0  0  0  0  0  0
   38.3620   32.1500   49.0400 C   0  0  0  0  0  0  0  0  0  0  0  0
   38.6600   33.3860   49.6330 C   0  0  0  0  0  0  0  0  0  0  0  0
   39.4730   34.3230   48.9700 C   0  0  0  0  0  0  0  0  0  0  0  0
   39.9920   34.0180   47.7080 C   0  0  0  0  0  0  0  0  0  0  0  0
   39.7080   32.8130   47.1190 C   0  0  0  0  0  0  0  0  0  0  0  0
   38.2700   33.6390   50.6040 H   0  0  0  0  0  0  0  0  0  0  0  0
   39.6630   35.2560   49.4850 H   0  0  0  0  0  0  0  0  0  0  0  0
   40.6100   34.7790   47.2520 H   0  0  0  0  0  0  0  0  0  0  0  0
   36.1980   31.0360   49.3360 C   0  0  0  0  0  0  0  0  0  0  0  0
   37.5310   31.1910   49.7120 C   0  0  0  0  0  0  0  0  0  0  0  0
   38.0060   30.3920   50.7480 C   0  0  0  0  0  0  0  0  0  0  0  0
   37.1630   29.5030   51.3450 N   0  0  0  0  0  0  0  0  0  0  0  0
   35.8640   29.3880   50.9410 C   0  0  0  0  0  0  0  0  0  0  0  0
   35.3870   30.1540   49.9390 N   0  0  0  0  0  0  0  0  0  0  0  0
   35.8320   31.6600   48.5300 H   0  0  0  0  0  0  0  0  0  0  0  0
   39.0320   30.4710   51.0790 H   0  0  0  0  0  0  0  0  0  0  0  0
   35.1750   28.6940   51.3940 H   0  0  0  0  0  0  0  0  0  0  0  0
   38.6650   30.7300   47.1430 O   0  0  0  0  0  0  0  0  0  0  0  0
   39.4140   30.0440   47.2220 H   0  0  0  0  0  0  0  0  0  0  0  0
   40.2440   32.5600   45.8790 O   0  0  0  0  0  0  0  0  0  0  0  0
   39.8320   33.1060   44.6570 C   0  0  0  0  0  0  0  0  0  0  0  0
   40.3600   32.3020   43.6380 F   0  0  0  0  0  0  0  0  0  0  0  0
   40.2620   34.3850   44.4310 F   0  0  0  0  0  0  0  0  0  0  0  0
   38.4630   33.0500   44.4750 F   0  0  0  0  0  0  0  0  0  0  0  0
  1  2  1  0  0  0  0
  2  3  2  0  0  0  0
  2 11  1  0  0  0  0
  3  7  1  0  0  0  0
  4  8  1  0  0  0  0
  4  3  1  0  0  0  0
  5  4  2  0  0  0  0
  6  5  1  0  0  0  0
  6  1  2  0  0  0  0
  9  5  1  0  0  0  0
 10 11  2  0  0  0  0
 10 15  1  0  0  0  0
 11 12  1  0  0  0  0
 12 17  1  0  0  0  0
 12 13  2  0  0  0  0
 14 13  1  0  0  0  0
 14 18  1  0  0  0  0
 15 14  2  0  0  0  0
 16 10  1  0  0  0  0
 19 20  1  0  0  0  0
 19  1  1  0  0  0  0
 21  6  1  0  0  0  0
 22 21  1  0  0  0  0
 23 22  1  0  0  0  0
 24 22  1  0  0  0  0
 25 22  1  0  0  0  0
M  END
>  <minimizedAffinity>
-6.20687008

>  <minimizedRMSD>
0.379565835

$$$$
