
 OpenBabel03272504203D

 22 22  0  0  0  0  0  0  0  0999 V2000
   38.5180   22.3470   34.4320 C   0  0  0  0  0  0  0  0  0  0  0  0
   39.3960   21.9430   33.8880 H   0  0  0  0  0  0  0  0  0  0  0  0
   38.6300   23.4620   34.3450 H   0  0  0  0  0  0  0  0  0  0  0  0
   37.3240   22.0070   33.6280 C   0  0  0  0  0  0  0  0  0  0  0  0
   37.1190   22.6900   32.4400 C   0  0  0  0  0  0  0  0  0  0  0  0
   36.0030   22.3940   31.6580 C   0  0  0  0  0  0  0  0  0  0  0  0
   35.1590   21.4250   32.1250 N   0  0  0  0  0  0  0  0  0  0  0  0
   35.3750   20.7770   33.2760 C   0  0  0  0  0  0  0  0  0  0  0  0
   36.4600   21.0720   34.0250 N   0  0  0  0  0  0  0  0  0  0  0  0
   37.8380   23.4560   32.1280 H   0  0  0  0  0  0  0  0  0  0  0  0
   35.8640   22.9390   30.7390 H   0  0  0  0  0  0  0  0  0  0  0  0
   34.6820   20.0140   33.6130 H   0  0  0  0  0  0  0  0  0  0  0  0
   38.4440   21.9040   35.7360 O   0  0  0  0  0  0  0  0  0  0  0  0
   40.6800   23.3100   35.8300 O   0  0  0  0  0  0  0  0  0  0  0  0
   39.5060   22.8610   36.6530 P   0  0  2  0  0  0  0  0  0  0  0  0
   40.1280   21.9000   37.9300 O   0  0  0  0  0  0  0  0  0  0  0  0
   41.0480   21.6290   37.7490 H   0  0  0  0  0  0  0  0  0  0  0  0
   38.7110   24.2090   37.2750 O   0  0  0  0  0  0  0  0  0  0  0  0
   38.2870   23.8700   38.5660 C   0  0  0  0  0  0  0  0  0  0  0  0
   37.4220   22.7920   38.5340 F   0  0  0  0  0  0  0  0  0  0  0  0
   37.5410   24.9640   39.0160 F   0  0  0  0  0  0  0  0  0  0  0  0
   39.3670   23.6900   39.3850 F   0  0  0  0  0  0  0  0  0  0  0  0
  1 13  1  0  0  0  0
  2  1  1  0  0  0  0
  3  1  1  0  0  0  0
  4  9  1  0  0  0  0
  4  1  1  0  0  0  0
  5  4  2  0  0  0  0
  6  7  2  0  0  0  0
  6  5  1  0  0  0  0
  7  8  1  0  0  0  0
  8 12  1  0  0  0  0
  8  9  2  0  0  0  0
 10  5  1  0  0  0  0
 11  6  1  0  0  0  0
 13 15  1  0  0  0  0
 15 14  2  6  0  0  0
 15 18  1  0  0  0  0
 15 16  1  0  0  0  0
 17 16  1  0  0  0  0
 18 19  1  0  0  0  0
 19 21  1  0  0  0  0
 19 22  1  0  0  0  0
 20 19  1  0  0  0  0
M  END
>  <minimizedAffinity>
-4.62198544

$$$$

 OpenBabel03272504203D

 22 22  0  0  0  0  0  0  0  0999 V2000
   38.0820   24.9820   34.0480 C   0  0  0  0  0  0  0  0  0  0  0  0
   39.0930   25.3540   33.7820 H   0  0  0  0  0  0  0  0  0  0  0  0
   37.7800   25.6120   34.9290 H   0  0  0  0  0  0  0  0  0  0  0  0
   37.1760   25.3820   32.9490 C   0  0  0  0  0  0  0  0  0  0  0  0
   36.6840   24.3920   32.1140 C   0  0  0  0  0  0  0  0  0  0  0  0
   35.8280   24.7350   31.0670 C   0  0  0  0  0  0  0  0  0  0  0  0
   35.5220   26.0600   30.9270 N   0  0  0  0  0  0  0  0  0  0  0  0
   36.0100   27.0010   31.7440 C   0  0  0  0  0  0  0  0  0  0  0  0
   36.8370   26.6570   32.7550 N   0  0  0  0  0  0  0  0  0  0  0  0
   36.9720   23.3490   32.2860 H   0  0  0  0  0  0  0  0  0  0  0  0
   35.4580   23.9480   30.4310 H   0  0  0  0  0  0  0  0  0  0  0  0
   35.7430   28.0420   31.6000 H   0  0  0  0  0  0  0  0  0  0  0  0
   38.0600   23.6280   34.3100 O   0  0  0  0  0  0  0  0  0  0  0  0
   40.2240   23.6060   35.8280 O   0  0  0  0  0  0  0  0  0  0  0  0
   38.7350   23.4040   35.8530 P   0  0  2  0  0  0  0  0  0  0  0  0
   38.4590   21.7800   36.3290 O   0  0  0  0  0  0  0  0  0  0  0  0
   39.2740   21.2480   36.2520 H   0  0  0  0  0  0  0  0  0  0  0  0
   38.0450   24.4600   36.9670 O   0  0  0  0  0  0  0  0  0  0  0  0
   38.1910   23.8710   38.2290 C   0  0  0  0  0  0  0  0  0  0  0  0
   37.2140   22.9180   38.4450 F   0  0  0  0  0  0  0  0  0  0  0  0
   37.9570   24.8960   39.1520 F   0  0  0  0  0  0  0  0  0  0  0  0
   39.4660   23.4030   38.3860 F   0  0  0  0  0  0  0  0  0  0  0  0
  1 13  1  0  0  0  0
  1  3  1  0  0  0  0
  2  1  1  0  0  0  0
  4  1  1  0  0  0  0
  5 10  1  0  0  0  0
  5  4  2  0  0  0  0
  6  5  1  0  0  0  0
  7  6  2  0  0  0  0
  7  8  1  0  0  0  0
  8  9  2  0  0  0  0
  9  4  1  0  0  0  0
 11  6  1  0  0  0  0
 12  8  1  0  0  0  0
 13 15  1  0  0  0  0
 15 14  2  6  0  0  0
 15 16  1  0  0  0  0
 15 18  1  0  0  0  0
 17 16  1  0  0  0  0
 18 19  1  0  0  0  0
 19 22  1  0  0  0  0
 19 20  1  0  0  0  0
 19 21  1  0  0  0  0
M  END
>  <minimizedAffinity>
-4.49137163

$$$$

 OpenBabel03272504203D

 22 22  0  0  0  0  0  0  0  0999 V2000
   38.0360   25.0950   36.0490 C   0  0  0  0  0  0  0  0  0  0  0  0
   38.1700   25.8400   36.8600 H   0  0  0  0  0  0  0  0  0  0  0  0
   37.1170   24.5220   36.3500 H   0  0  0  0  0  0  0  0  0  0  0  0
   37.6500   25.8490   34.8360 C   0  0  0  0  0  0  0  0  0  0  0  0
   37.1180   27.1180   34.9950 C   0  0  0  0  0  0  0  0  0  0  0  0
   36.7430   27.8550   33.8730 C   0  0  0  0  0  0  0  0  0  0  0  0
   36.9270   27.2640   32.6540 N   0  0  0  0  0  0  0  0  0  0  0  0
   37.4420   26.0360   32.5210 C   0  0  0  0  0  0  0  0  0  0  0  0
   37.8020   25.3310   33.6160 N   0  0  0  0  0  0  0  0  0  0  0  0
   36.9980   27.5290   36.0040 H   0  0  0  0  0  0  0  0  0  0  0  0
   36.3310   28.8400   34.0220 H   0  0  0  0  0  0  0  0  0  0  0  0
   37.5730   25.6010   31.5360 H   0  0  0  0  0  0  0  0  0  0  0  0
   39.1450   24.2960   35.8660 O   0  0  0  0  0  0  0  0  0  0  0  0
   37.9320   22.1570   34.8960 O   0  0  0  0  0  0  0  0  0  0  0  0
   38.6500   22.6890   36.1040 P   0  0  2  0  0  0  0  0  0  0  0  0
   37.5310   22.6590   37.4040 O   0  0  0  0  0  0  0  0  0  0  0  0
   36.6180   22.5490   37.0780 H   0  0  0  0  0  0  0  0  0  0  0  0
   39.9690   21.7010   36.4520 O   0  0  0  0  0  0  0  0  0  0  0  0
   40.7450   22.3790   37.4000 C   0  0  0  0  0  0  0  0  0  0  0  0
   41.6480   23.2250   36.7850 F   0  0  0  0  0  0  0  0  0  0  0  0
   41.5000   21.3920   38.0420 F   0  0  0  0  0  0  0  0  0  0  0  0
   39.9380   22.9990   38.3130 F   0  0  0  0  0  0  0  0  0  0  0  0
  1  3  1  0  0  0  0
  1  2  1  0  0  0  0
  4  5  1  0  0  0  0
  4  1  1  0  0  0  0
  5 10  1  0  0  0  0
  6 11  1  0  0  0  0
  6  5  2  0  0  0  0
  7  6  1  0  0  0  0
  8  7  2  0  0  0  0
  8  9  1  0  0  0  0
  9  4  2  0  0  0  0
 12  8  1  0  0  0  0
 13  1  1  0  0  0  0
 13 15  1  0  0  0  0
 15 14  2  6  0  0  0
 15 18  1  0  0  0  0
 15 16  1  0  0  0  0
 17 16  1  0  0  0  0
 18 19  1  0  0  0  0
 19 21  1  0  0  0  0
 19 22  1  0  0  0  0
 20 19  1  0  0  0  0
M  END
>  <minimizedAffinity>
-4.2471509

$$$$

 OpenBabel03272504203D

 22 22  0  0  0  0  0  0  0  0999 V2000
   38.5540   25.9160   33.7460 C   0  0  0  0  0  0  0  0  0  0  0  0
   39.1990   25.8480   32.8470 H   0  0  0  0  0  0  0  0  0  0  0  0
   39.2530   26.2460   34.5620 H   0  0  0  0  0  0  0  0  0  0  0  0
   37.6370   27.0560   33.5280 C   0  0  0  0  0  0  0  0  0  0  0  0
   37.5810   27.6190   32.2640 C   0  0  0  0  0  0  0  0  0  0  0  0
   36.7280   28.6960   32.0240 C   0  0  0  0  0  0  0  0  0  0  0  0
   35.9810   29.1400   33.0790 N   0  0  0  0  0  0  0  0  0  0  0  0
   36.0490   28.5820   34.2940 C   0  0  0  0  0  0  0  0  0  0  0  0
   36.8800   27.5390   34.5140 N   0  0  0  0  0  0  0  0  0  0  0  0
   38.2100   27.2110   31.4640 H   0  0  0  0  0  0  0  0  0  0  0  0
   36.7020   29.1170   31.0330 H   0  0  0  0  0  0  0  0  0  0  0  0
   35.4400   28.9630   35.1060 H   0  0  0  0  0  0  0  0  0  0  0  0
   37.9000   24.7340   34.0290 O   0  0  0  0  0  0  0  0  0  0  0  0
   40.0520   24.2870   35.4960 O   0  0  0  0  0  0  0  0  0  0  0  0
   38.5580   24.1310   35.4730 P   0  0  2  0  0  0  0  0  0  0  0  0
   38.2300   22.4490   35.5510 O   0  0  0  0  0  0  0  0  0  0  0  0
   39.0290   21.9260   35.3500 H   0  0  0  0  0  0  0  0  0  0  0  0
   37.8920   24.9130   36.8070 O   0  0  0  0  0  0  0  0  0  0  0  0
   38.1430   24.1020   37.9210 C   0  0  0  0  0  0  0  0  0  0  0  0
   39.3670   23.4700   37.8050 F   0  0  0  0  0  0  0  0  0  0  0  0
   37.1720   23.0970   37.8790 F   0  0  0  0  0  0  0  0  0  0  0  0
   37.9990   24.8250   39.0730 F   0  0  0  0  0  0  0  0  0  0  0  0
  1 13  1  0  0  0  0
  1  3  1  0  0  0  0
  2  1  1  0  0  0  0
  4  1  1  0  0  0  0
  4  9  1  0  0  0  0
  5  4  2  0  0  0  0
  6  5  1  0  0  0  0
  6  7  2  0  0  0  0
  7  8  1  0  0  0  0
  8  9  2  0  0  0  0
  8 12  1  0  0  0  0
 10  5  1  0  0  0  0
 11  6  1  0  0  0  0
 13 15  1  0  0  0  0
 15 14  2  6  0  0  0
 15 16  1  0  0  0  0
 15 18  1  0  0  0  0
 17 16  1  0  0  0  0
 18 19  1  0  0  0  0
 19 22  1  0  0  0  0
 20 19  1  0  0  0  0
 21 19  1  0  0  0  0
M  END
>  <minimizedAffinity>
-3.95651984

$$$$

 OpenBabel03272504203D

 22 22  0  0  0  0  0  0  0  0999 V2000
   38.0330   24.9250   34.3370 C   0  0  0  0  0  0  0  0  0  0  0  0
   38.0980   25.4550   35.3090 H   0  0  0  0  0  0  0  0  0  0  0  0
   36.9410   24.9670   34.0740 H   0  0  0  0  0  0  0  0  0  0  0  0
   38.7110   25.7790   33.3380 C   0  0  0  0  0  0  0  0  0  0  0  0
   37.9280   26.5440   32.4900 C   0  0  0  0  0  0  0  0  0  0  0  0
   38.5350   27.3600   31.5370 C   0  0  0  0  0  0  0  0  0  0  0  0
   39.9020   27.3530   31.4970 N   0  0  0  0  0  0  0  0  0  0  0  0
   40.6410   26.6060   32.3260 C   0  0  0  0  0  0  0  0  0  0  0  0
   40.0410   25.8200   33.2450 N   0  0  0  0  0  0  0  0  0  0  0  0
   36.8360   26.4990   32.5790 H   0  0  0  0  0  0  0  0  0  0  0  0
   37.9040   27.9450   30.8880 H   0  0  0  0  0  0  0  0  0  0  0  0
   41.7240   26.6280   32.2630 H   0  0  0  0  0  0  0  0  0  0  0  0
   38.5350   23.6410   34.3910 O   0  0  0  0  0  0  0  0  0  0  0  0
   40.4320   23.3880   36.2140 O   0  0  0  0  0  0  0  0  0  0  0  0
   38.9440   23.3300   36.0100 P   0  0  2  0  0  0  0  0  0  0  0  0
   38.4480   21.7330   36.3920 O   0  0  0  0  0  0  0  0  0  0  0  0
   39.2120   21.1270   36.4220 H   0  0  0  0  0  0  0  0  0  0  0  0
   38.1940   24.4320   37.0390 O   0  0  0  0  0  0  0  0  0  0  0  0
   38.3140   23.9200   38.3380 C   0  0  0  0  0  0  0  0  0  0  0  0
   39.5060   23.2360   38.4900 F   0  0  0  0  0  0  0  0  0  0  0  0
   37.2930   22.9730   38.4640 F   0  0  0  0  0  0  0  0  0  0  0  0
   38.1250   24.9160   39.2560 F   0  0  0  0  0  0  0  0  0  0  0  0
  1 13  1  0  0  0  0
  1  2  1  0  0  0  0
  3  1  1  0  0  0  0
  4  1  1  0  0  0  0
  5 10  1  0  0  0  0
  5  4  2  0  0  0  0
  6  5  1  0  0  0  0
  7  6  2  0  0  0  0
  7  8  1  0  0  0  0
  8  9  2  0  0  0  0
  9  4  1  0  0  0  0
 11  6  1  0  0  0  0
 12  8  1  0  0  0  0
 13 15  1  0  0  0  0
 15 14  2  1  0  0  0
 15 16  1  0  0  0  0
 15 18  1  0  0  0  0
 16 17  1  0  0  0  0
 18 19  1  0  0  0  0
 19 21  1  0  0  0  0
 19 20  1  0  0  0  0
 19 22  1  0  0  0  0
M  END
>  <minimizedAffinity>
-3.94547415

$$$$

 OpenBabel03272504203D

 22 22  0  0  0  0  0  0  0  0999 V2000
   38.2360   24.0940   34.5130 C   0  0  0  0  0  0  0  0  0  0  0  0
   37.1520   24.3250   34.4570 H   0  0  0  0  0  0  0  0  0  0  0  0
   38.7370   25.0790   34.3090 H   0  0  0  0  0  0  0  0  0  0  0  0
   38.5340   23.7880   35.9300 C   0  0  0  0  0  0  0  0  0  0  0  0
   37.6840   24.2900   36.9010 C   0  0  0  0  0  0  0  0  0  0  0  0
   37.9360   24.0200   38.2460 C   0  0  0  0  0  0  0  0  0  0  0  0
   39.0360   23.2590   38.5290 N   0  0  0  0  0  0  0  0  0  0  0  0
   39.8450   22.7830   37.5740 C   0  0  0  0  0  0  0  0  0  0  0  0
   39.5900   23.0510   36.2750 N   0  0  0  0  0  0  0  0  0  0  0  0
   36.8210   24.8940   36.6010 H   0  0  0  0  0  0  0  0  0  0  0  0
   37.2610   24.4220   38.9830 H   0  0  0  0  0  0  0  0  0  0  0  0
   40.7090   22.1820   37.8390 H   0  0  0  0  0  0  0  0  0  0  0  0
   38.6180   23.0930   33.6450 O   0  0  0  0  0  0  0  0  0  0  0  0
   38.0620   22.7010   31.0910 O   0  0  0  0  0  0  0  0  0  0  0  0
   37.4410   23.0120   32.4230 P   0  0  2  0  0  0  0  0  0  0  0  0
   36.7050   24.5550   32.2840 O   0  0  0  0  0  0  0  0  0  0  0  0
   37.0260   25.0270   31.4920 H   0  0  0  0  0  0  0  0  0  0  0  0
   36.2810   21.8470   32.7860 O   0  0  0  0  0  0  0  0  0  0  0  0
   35.6680   21.4940   31.5780 C   0  0  0  0  0  0  0  0  0  0  0  0
   35.3270   22.6190   30.8510 F   0  0  0  0  0  0  0  0  0  0  0  0
   34.4670   20.8720   31.9330 F   0  0  0  0  0  0  0  0  0  0  0  0
   36.4520   20.6080   30.8920 F   0  0  0  0  0  0  0  0  0  0  0  0
  1  4  1  0  0  0  0
  2  1  1  0  0  0  0
  3  1  1  0  0  0  0
  4  9  2  0  0  0  0
  4  5  1  0  0  0  0
  5  6  2  0  0  0  0
  6  7  1  0  0  0  0
  6 11  1  0  0  0  0
  8 12  1  0  0  0  0
  8  7  2  0  0  0  0
  9  8  1  0  0  0  0
 10  5  1  0  0  0  0
 13  1  1  0  0  0  0
 15 14  2  6  0  0  0
 15 18  1  0  0  0  0
 15 13  1  0  0  0  0
 16 15  1  0  0  0  0
 17 16  1  0  0  0  0
 19 21  1  0  0  0  0
 19 18  1  0  0  0  0
 20 19  1  0  0  0  0
 22 19  1  0  0  0  0
M  END
>  <minimizedAffinity>
-3.93179965

$$$$

 OpenBabel03272504203D

 22 22  0  0  0  0  0  0  0  0999 V2000
   38.8930   26.4840   35.5230 C   0  0  0  0  0  0  0  0  0  0  0  0
   39.7400   25.9010   35.1070 H   0  0  0  0  0  0  0  0  0  0  0  0
   39.3860   27.3370   36.0650 H   0  0  0  0  0  0  0  0  0  0  0  0
   38.1920   27.1000   34.3750 C   0  0  0  0  0  0  0  0  0  0  0  0
   36.9810   27.7300   34.6080 C   0  0  0  0  0  0  0  0  0  0  0  0
   36.2940   28.3200   33.5480 C   0  0  0  0  0  0  0  0  0  0  0  0
   36.8740   28.2370   32.3130 N   0  0  0  0  0  0  0  0  0  0  0  0
   38.0450   27.6230   32.1080 C   0  0  0  0  0  0  0  0  0  0  0  0
   38.7010   27.0550   33.1430 N   0  0  0  0  0  0  0  0  0  0  0  0
   36.5760   27.7580   35.6260 H   0  0  0  0  0  0  0  0  0  0  0  0
   35.3540   28.8040   33.7540 H   0  0  0  0  0  0  0  0  0  0  0  0
   38.4730   27.5780   31.1120 H   0  0  0  0  0  0  0  0  0  0  0  0
   38.0660   25.7290   36.3280 O   0  0  0  0  0  0  0  0  0  0  0  0
   38.0210   23.6350   34.7160 O   0  0  0  0  0  0  0  0  0  0  0  0
   38.4690   24.0990   36.0730 P   0  0  2  0  0  0  0  0  0  0  0  0
   37.6260   23.1510   37.2280 O   0  0  0  0  0  0  0  0  0  0  0  0
   36.8700   22.6900   36.8190 H   0  0  0  0  0  0  0  0  0  0  0  0
   40.1280   23.8610   36.2270 O   0  0  0  0  0  0  0  0  0  0  0  0
   40.3040   22.7630   37.0790 C   0  0  0  0  0  0  0  0  0  0  0  0
   39.8610   23.0530   38.3560 F   0  0  0  0  0  0  0  0  0  0  0  0
   41.6870   22.5770   37.1710 F   0  0  0  0  0  0  0  0  0  0  0  0
   39.7310   21.6480   36.5330 F   0  0  0  0  0  0  0  0  0  0  0  0
  1  3  1  0  0  0  0
  1 13  1  0  0  0  0
  2  1  1  0  0  0  0
  4  5  1  0  0  0  0
  4  1  1  0  0  0  0
  5 10  1  0  0  0  0
  6 11  1  0  0  0  0
  6  5  2  0  0  0  0
  7  6  1  0  0  0  0
  8  7  2  0  0  0  0
  8  9  1  0  0  0  0
  9  4  2  0  0  0  0
 12  8  1  0  0  0  0
 15 14  2  6  0  0  0
 15 18  1  0  0  0  0
 15 13  1  0  0  0  0
 15 16  1  0  0  0  0
 17 16  1  0  0  0  0
 18 19  1  0  0  0  0
 19 21  1  0  0  0  0
 19 20  1  0  0  0  0
 22 19  1  0  0  0  0
M  END
>  <minimizedAffinity>
-3.91845465

$$$$

 OpenBabel03272504203D

 22 22  0  0  0  0  0  0  0  0999 V2000
   37.7210   22.3820   34.3800 C   0  0  0  0  0  0  0  0  0  0  0  0
   37.1560   22.5590   35.3180 H   0  0  0  0  0  0  0  0  0  0  0  0
   38.4130   21.5330   34.6320 H   0  0  0  0  0  0  0  0  0  0  0  0
   36.7590   21.8270   33.4020 C   0  0  0  0  0  0  0  0  0  0  0  0
   36.5980   22.4880   32.1960 C   0  0  0  0  0  0  0  0  0  0  0  0
   35.6990   21.9920   31.2520 C   0  0  0  0  0  0  0  0  0  0  0  0
   35.0150   20.8570   31.5850 N   0  0  0  0  0  0  0  0  0  0  0  0
   35.1850   20.2330   32.7570 C   0  0  0  0  0  0  0  0  0  0  0  0
   36.0590   20.7230   33.6630 N   0  0  0  0  0  0  0  0  0  0  0  0
   37.1800   23.3950   31.9960 H   0  0  0  0  0  0  0  0  0  0  0  0
   35.5900   22.5240   30.3200 H   0  0  0  0  0  0  0  0  0  0  0  0
   34.6230   19.3330   32.9850 H   0  0  0  0  0  0  0  0  0  0  0  0
   38.3760   23.5070   33.9260 O   0  0  0  0  0  0  0  0  0  0  0  0
   39.9630   24.6830   35.6820 O   0  0  0  0  0  0  0  0  0  0  0  0
   38.5290   24.5650   35.2450 P   0  0  2  0  0  0  0  0  0  0  0  0
   37.6570   23.9060   36.5660 O   0  0  0  0  0  0  0  0  0  0  0  0
   38.2610   23.5160   37.2260 H   0  0  0  0  0  0  0  0  0  0  0  0
   37.9340   26.0920   34.8600 O   0  0  0  0  0  0  0  0  0  0  0  0
   38.4630   26.9840   35.8020 C   0  0  0  0  0  0  0  0  0  0  0  0
   38.2520   26.5250   37.0890 F   0  0  0  0  0  0  0  0  0  0  0  0
   37.7140   28.1570   35.6710 F   0  0  0  0  0  0  0  0  0  0  0  0
   39.7740   27.2480   35.5160 F   0  0  0  0  0  0  0  0  0  0  0  0
  1  3  1  0  0  0  0
  1  2  1  0  0  0  0
  4  9  1  0  0  0  0
  4  1  1  0  0  0  0
  5  4  2  0  0  0  0
  6  7  2  0  0  0  0
  6  5  1  0  0  0  0
  7  8  1  0  0  0  0
  8 12  1  0  0  0  0
  8  9  2  0  0  0  0
 10  5  1  0  0  0  0
 11  6  1  0  0  0  0
 13  1  1  0  0  0  0
 13 15  1  0  0  0  0
 15 14  2  1  0  0  0
 15 16  1  0  0  0  0
 16 17  1  0  0  0  0
 18 15  1  0  0  0  0
 18 19  1  0  0  0  0
 19 20  1  0  0  0  0
 21 19  1  0  0  0  0
 22 19  1  0  0  0  0
M  END
>  <minimizedAffinity>
-3.89475203

$$$$

 OpenBabel03272504203D

 22 22  0  0  0  0  0  0  0  0999 V2000
   38.7180   22.2080   34.4630 C   0  0  0  0  0  0  0  0  0  0  0  0
   38.9710   23.1170   33.8790 H   0  0  0  0  0  0  0  0  0  0  0  0
   39.5660   21.5010   34.2520 H   0  0  0  0  0  0  0  0  0  0  0  0
   38.8520   22.5680   35.8920 C   0  0  0  0  0  0  0  0  0  0  0  0
   37.7420   23.0780   36.5450 C   0  0  0  0  0  0  0  0  0  0  0  0
   37.8330   23.4270   37.8920 C   0  0  0  0  0  0  0  0  0  0  0  0
   39.0430   23.2400   38.4990 N   0  0  0  0  0  0  0  0  0  0  0  0
   40.1050   22.7460   37.8490 C   0  0  0  0  0  0  0  0  0  0  0  0
   40.0040   22.4110   36.5450 N   0  0  0  0  0  0  0  0  0  0  0  0
   36.8020   23.2010   35.9940 H   0  0  0  0  0  0  0  0  0  0  0  0
   36.9560   23.8220   38.3780 H   0  0  0  0  0  0  0  0  0  0  0  0
   41.0490   22.6120   38.3660 H   0  0  0  0  0  0  0  0  0  0  0  0
   37.4810   21.6910   34.1420 O   0  0  0  0  0  0  0  0  0  0  0  0
   36.7280   19.8460   32.4040 O   0  0  0  0  0  0  0  0  0  0  0  0
   37.5910   21.0660   32.5660 P   0  0  2  0  0  0  0  0  0  0  0  0
   39.2110   20.5720   32.2970 O   0  0  0  0  0  0  0  0  0  0  0  0
   39.2930   19.6000   32.3390 H   0  0  0  0  0  0  0  0  0  0  0  0
   37.1420   22.2250   31.4300 O   0  0  0  0  0  0  0  0  0  0  0  0
   35.7440   22.1940   31.3500 C   0  0  0  0  0  0  0  0  0  0  0  0
   35.3220   21.2010   30.4850 F   0  0  0  0  0  0  0  0  0  0  0  0
   35.3750   23.4110   30.7670 F   0  0  0  0  0  0  0  0  0  0  0  0
   35.2020   22.1060   32.6010 F   0  0  0  0  0  0  0  0  0  0  0  0
  1  4  1  0  0  0  0
  2  1  1  0  0  0  0
  3  1  1  0  0  0  0
  4  9  2  0  0  0  0
  4  5  1  0  0  0  0
  5  6  2  0  0  0  0
  6 11  1  0  0  0  0
  6  7  1  0  0  0  0
  8 12  1  0  0  0  0
  8  7  2  0  0  0  0
  9  8  1  0  0  0  0
 10  5  1  0  0  0  0
 13  1  1  0  0  0  0
 15 14  2  6  0  0  0
 15 13  1  0  0  0  0
 16 17  1  0  0  0  0
 16 15  1  0  0  0  0
 18 15  1  0  0  0  0
 19 18  1  0  0  0  0
 19 22  1  0  0  0  0
 20 19  1  0  0  0  0
 21 19  1  0  0  0  0
M  END
>  <minimizedAffinity>
-3.87312841

$$$$
