
     RDKit          3D

 37 39  0  0  0  0  0  0  0  0999 V2000
   37.1008   29.8387   47.0934 C   0  0  0  0  0  0  0  0  0  0  0  0
   34.7000   30.0067   47.5939 C   0  0  0  0  0  0  0  0  0  0  0  0
   35.7402   30.0258   46.7058 C   0  0  0  0  0  0  0  0  0  0  0  0
   35.3333   30.1777   45.4164 C   0  0  0  0  0  0  0  0  0  0  0  0
   34.0634   30.2945   45.0393 N   0  0  0  0  0  0  0  0  0  0  0  0
   33.0605   30.2726   45.9042 C   0  0  0  0  0  0  0  0  0  0  0  0
   33.3692   30.1281   47.1908 N   0  0  0  0  0  0  0  0  0  0  0  0
   34.9623   29.9987   49.0996 C   0  0  0  0  0  0  0  0  0  0  0  0
   34.0117   29.6336   50.0406 C   0  0  0  0  0  0  0  0  0  0  0  0
   34.8638   28.4733   49.5424 C   0  0  0  0  0  0  0  0  0  0  0  0
   38.0625   30.9144   46.7599 C   0  0  0  0  0  0  0  0  0  0  0  0
   39.5723   33.1279   46.0552 F   0  0  0  0  0  0  0  0  0  0  0  0
   39.1591   32.9217   47.3282 C   0  0  0  0  0  0  0  0  0  0  0  0
   38.3889   31.8518   47.7814 C   0  0  0  0  0  0  0  0  0  0  0  0
   38.0864   31.8381   49.0991 C   0  0  0  0  0  0  0  0  0  0  0  0
   38.4770   32.7883   49.9766 C   0  0  0  0  0  0  0  0  0  0  0  0
   39.2510   33.8664   49.5299 C   0  0  0  0  0  0  0  0  0  0  0  0
   39.5854   33.9099   48.1906 C   0  0  0  0  0  0  0  0  0  0  0  0
   40.3772   34.9969   47.8027 O   0  0  0  0  0  0  0  0  0  0  0  0
   37.4669   28.8989   46.5673 H   0  0  0  0  0  0  0  0  0  0  0  0
   37.1777   29.5637   48.1638 H   0  0  0  0  0  0  0  0  0  0  0  0
   36.0524   30.2140   44.5828 H   0  0  0  0  0  0  0  0  0  0  0  0
   32.0004   30.3524   45.7607 H   0  0  0  0  0  0  0  0  0  0  0  0
   35.8863   30.3893   49.4482 H   0  0  0  0  0  0  0  0  0  0  0  0
   34.0538   29.8810   51.1002 H   0  0  0  0  0  0  0  0  0  0  0  0
   32.9317   29.5087   49.7220 H   0  0  0  0  0  0  0  0  0  0  0  0
   35.6145   28.1293   50.2611 H   0  0  0  0  0  0  0  0  0  0  0  0
   34.4533   27.7567   48.8508 H   0  0  0  0  0  0  0  0  0  0  0  0
   37.6089   31.4899   45.8984 H   0  0  0  0  0  0  0  0  0  0  0  0
   39.0014   30.5039   46.3249 H   0  0  0  0  0  0  0  0  0  0  0  0
   37.5862   31.0818   49.6258 H   0  0  0  0  0  0  0  0  0  0  0  0
   38.2695   32.8515   51.0524 H   0  0  0  0  0  0  0  0  0  0  0  0
   39.5931   34.6645   50.2061 H   0  0  0  0  0  0  0  0  0  0  0  0
   40.8161   35.9980   48.6416 C   0  0  0  0  0  0  0  0  0  0  0  0
   41.3035   37.1271   48.0602 F   0  0  0  0  0  0  0  0  0  0  0  0
   39.8336   36.3091   49.5918 F   0  0  0  0  0  0  0  0  0  0  0  0
   41.8635   35.4592   49.3978 F   0  0  0  0  0  0  0  0  0  0  0  0
  2  8  1  0
  3  1  1  0
  3  2  1  0
  4  3  2  0
  5  4  1  0
  5  6  2  0
  6  7  1  0
  7  2  2  0
  8 10  1  0
  8  9  1  0
 10  9  1  0
 11  1  1  0
 11 14  1  0
 12 13  1  0
 13 14  2  0
 13 18  1  0
 14 15  1  0
 15 16  2  0
 17 16  1  0
 18 17  2  0
 19 18  1  0
  1 20  1  0
  1 21  1  0
  4 22  1  0
  6 23  1  0
  8 24  1  0
  9 25  1  0
  9 26  1  0
 10 27  1  0
 10 28  1  0
 11 29  1  0
 11 30  1  0
 15 31  1  0
 16 32  1  0
 17 33  1  0
 34 35  1  0
 34 36  1  0
 34 37  1  0
 19 34  1  0
M  ISO  8  20   8  21   8  22  14  23  14  24  13  25  13  26  13  27  13
M  ISO  6  28  13  29   8  30   8  31  14  32  14  33  14
M  END
>  <DihAtoms>  (1) 
17,18,33,34

>  <DihDeg>  (1) 
-60.0586356430159

$$$$
