
 OpenBabel03272510243D

 27 29  0  0  0  0  0  0  0  0999 V2000
   36.0610   30.2500   46.2620 C   0  0  0  0  0  0  0  0  0  0  0  0
   37.1290   31.0150   46.6850 C   0  0  0  0  0  0  0  0  0  0  0  0
   37.8110   31.8180   45.8000 C   0  0  0  0  0  0  0  0  0  0  0  0
   37.3790   31.8230   44.4760 C   0  0  0  0  0  0  0  0  0  0  0  0
   37.8910   32.5310   43.4230 N   0  0  0  0  0  0  0  0  0  0  0  0
   37.1500   32.2090   42.3660 C   0  0  0  0  0  0  0  0  0  0  0  0
   36.2010   31.3420   42.6800 N   0  0  0  0  0  0  0  0  0  0  0  0
   36.3160   31.0740   44.0110 C   0  0  0  0  0  0  0  0  0  0  0  0
   35.6450   30.2700   44.9320 C   0  0  0  0  0  0  0  0  0  0  0  0
   35.4910   29.6000   46.9270 H   0  0  0  0  0  0  0  0  0  0  0  0
   38.6470   32.4160   46.1290 H   0  0  0  0  0  0  0  0  0  0  0  0
   38.7130   33.1910   43.4910 H   0  0  0  0  0  0  0  0  0  0  0  0
   34.8140   29.6820   44.5780 H   0  0  0  0  0  0  0  0  0  0  0  0
   38.5200   31.6970   50.1110 C   0  0  0  0  0  0  0  0  0  0  0  0
   38.2350   31.8940   48.7650 C   0  0  0  0  0  0  0  0  0  0  0  0
   37.4980   30.9360   48.0890 C   0  0  0  0  0  0  0  0  0  0  0  0
   37.0830   29.8290   48.7910 N   0  0  0  0  0  0  0  0  0  0  0  0
   37.3750   29.6590   50.1060 C   0  0  0  0  0  0  0  0  0  0  0  0
   38.0820   30.5820   50.7500 N   0  0  0  0  0  0  0  0  0  0  0  0
   39.0940   32.4290   50.6650 H   0  0  0  0  0  0  0  0  0  0  0  0
   38.5590   32.7560   48.2240 H   0  0  0  0  0  0  0  0  0  0  0  0
   36.9780   28.7380   50.5140 H   0  0  0  0  0  0  0  0  0  0  0  0
   37.3960   32.7550   41.1060 O   0  0  0  0  0  0  0  0  0  0  0  0
   38.6350   33.2530   40.7060 C   0  0  0  0  0  0  0  0  0  0  0  0
   39.3280   33.6870   41.8210 F   0  0  0  0  0  0  0  0  0  0  0  0
   38.4980   34.3630   39.8770 F   0  0  0  0  0  0  0  0  0  0  0  0
   39.3140   32.2470   40.0430 F   0  0  0  0  0  0  0  0  0  0  0  0
  1  2  1  0  0  0  0
  1 10  1  0  0  0  0
  2 16  1  0  0  0  0
  3 11  1  0  0  0  0
  3  2  2  0  0  0  0
  4  3  1  0  0  0  0
  5 12  1  0  0  0  0
  5  4  1  0  0  0  0
  6  7  2  0  0  0  0
  6  5  1  0  0  0  0
  7  8  1  0  0  0  0
  8  4  2  0  0  0  0
  8  9  1  0  0  0  0
  9  1  2  0  0  0  0
 13  9  1  0  0  0  0
 14 20  1  0  0  0  0
 14 19  1  0  0  0  0
 15 14  2  0  0  0  0
 16 15  1  0  0  0  0
 16 17  2  0  0  0  0
 17 18  1  0  0  0  0
 18 22  1  0  0  0  0
 18 19  2  0  0  0  0
 21 15  1  0  0  0  0
 23  6  1  0  0  0  0
 24 23  1  0  0  0  0
 24 25  1  0  0  0  0
 26 24  1  0  0  0  0
 27 24  1  0  0  0  0
M  END
>  <minimizedAffinity>
-4.43898058

>  <minimizedRMSD>
3.36849332

$$$$
