
 OpenBabel03272510243D

 27 29  0  0  0  0  0  0  0  0999 V2000
   35.6110   30.0590   46.7630 C   0  0  0  0  0  0  0  0  0  0  0  0
   36.7900   30.4420   47.3670 C   0  0  0  0  0  0  0  0  0  0  0  0
   37.8270   30.9550   46.6210 C   0  0  0  0  0  0  0  0  0  0  0  0
   37.6330   31.0660   45.2460 C   0  0  0  0  0  0  0  0  0  0  0  0
   38.5060   31.5410   44.3060 N   0  0  0  0  0  0  0  0  0  0  0  0
   37.8750   31.4510   43.1380 C   0  0  0  0  0  0  0  0  0  0  0  0
   36.6580   30.9510   43.2770 N   0  0  0  0  0  0  0  0  0  0  0  0
   36.4700   30.6950   44.6010 C   0  0  0  0  0  0  0  0  0  0  0  0
   35.4370   30.1790   45.3850 C   0  0  0  0  0  0  0  0  0  0  0  0
   34.7640   29.6480   47.3120 H   0  0  0  0  0  0  0  0  0  0  0  0
   38.7500   31.2550   47.0930 H   0  0  0  0  0  0  0  0  0  0  0  0
   39.4770   31.8970   44.5190 H   0  0  0  0  0  0  0  0  0  0  0  0
   34.5260   29.8860   44.8900 H   0  0  0  0  0  0  0  0  0  0  0  0
   37.8980   30.5540   50.9590 C   0  0  0  0  0  0  0  0  0  0  0  0
   37.9250   30.7750   49.5860 C   0  0  0  0  0  0  0  0  0  0  0  0
   36.8890   30.2830   48.8090 C   0  0  0  0  0  0  0  0  0  0  0  0
   35.8810   29.5960   49.4410 N   0  0  0  0  0  0  0  0  0  0  0  0
   35.8790   29.3920   50.7830 C   0  0  0  0  0  0  0  0  0  0  0  0
   36.8740   29.8660   51.5240 N   0  0  0  0  0  0  0  0  0  0  0  0
   38.6940   30.9260   51.5910 H   0  0  0  0  0  0  0  0  0  0  0  0
   38.7110   31.3110   49.1010 H   0  0  0  0  0  0  0  0  0  0  0  0
   35.0170   28.8330   51.1260 H   0  0  0  0  0  0  0  0  0  0  0  0
   38.4790   31.8540   41.9470 O   0  0  0  0  0  0  0  0  0  0  0  0
   39.4090   31.0840   41.2510 C   0  0  0  0  0  0  0  0  0  0  0  0
   39.5340   31.5770   39.9650 F   0  0  0  0  0  0  0  0  0  0  0  0
   38.9850   29.7640   41.1200 F   0  0  0  0  0  0  0  0  0  0  0  0
   40.6110   31.1290   41.9340 F   0  0  0  0  0  0  0  0  0  0  0  0
  1 10  1  0  0  0  0
  1  2  1  0  0  0  0
  2 16  1  0  0  0  0
  3 11  1  0  0  0  0
  3  2  2  0  0  0  0
  4  3  1  0  0  0  0
  5 12  1  0  0  0  0
  5  4  1  0  0  0  0
  6  7  2  0  0  0  0
  6  5  1  0  0  0  0
  7  8  1  0  0  0  0
  8  4  2  0  0  0  0
  8  9  1  0  0  0  0
  9  1  2  0  0  0  0
 13  9  1  0  0  0  0
 14 19  1  0  0  0  0
 14 20  1  0  0  0  0
 15 14  2  0  0  0  0
 16 17  2  0  0  0  0
 16 15  1  0  0  0  0
 17 18  1  0  0  0  0
 18 22  1  0  0  0  0
 18 19  2  0  0  0  0
 21 15  1  0  0  0  0
 23  6  1  0  0  0  0
 24 27  1  0  0  0  0
 24 23  1  0  0  0  0
 25 24  1  0  0  0  0
 26 24  1  0  0  0  0
M  END
>  <minimizedAffinity>
-4.7315855

>  <minimizedRMSD>
3.37942553

$$$$
