
 OpenBabel03272501013D

 29 30  0  0  0  0  0  0  0  0999 V2000
   38.0250   30.3260   47.8890 F   0  0  0  0  0  0  0  0  0  0  0  0
   37.0410   30.2650   46.9430 C   0  0  0  0  0  0  0  0  0  0  0  0
   37.1900   30.7620   45.6640 C   0  0  0  0  0  0  0  0  0  0  0  0
   36.1540   30.6590   44.7810 C   0  0  0  0  0  0  0  0  0  0  0  0
   34.9410   30.0730   45.1020 C   0  0  0  0  0  0  0  0  0  0  0  0
   34.8060   29.5750   46.3990 C   0  0  0  0  0  0  0  0  0  0  0  0
   35.8420   29.6650   47.3200 C   0  0  0  0  0  0  0  0  0  0  0  0
   36.2810   31.0480   43.7910 H   0  0  0  0  0  0  0  0  0  0  0  0
   34.1090   29.9860   44.4040 H   0  0  0  0  0  0  0  0  0  0  0  0
   33.8820   29.0990   46.7290 H   0  0  0  0  0  0  0  0  0  0  0  0
   39.5870   33.3350   44.6580 C   0  0  0  0  0  0  0  0  0  0  0  0
   40.8110   32.6740   44.6050 C   0  0  0  0  0  0  0  0  0  0  0  0
   40.8050   31.3110   44.9250 C   0  0  0  0  0  0  0  0  0  0  0  0
   39.6380   30.6850   45.2680 N   0  0  0  0  0  0  0  0  0  0  0  0
   38.4630   31.3850   45.3040 C   0  0  0  0  0  0  0  0  0  0  0  0
   38.4490   32.7120   44.9960 N   0  0  0  0  0  0  0  0  0  0  0  0
   39.5120   34.4040   44.4210 H   0  0  0  0  0  0  0  0  0  0  0  0
   41.7200   33.1960   44.3300 H   0  0  0  0  0  0  0  0  0  0  0  0
   41.7340   30.7620   44.8950 H   0  0  0  0  0  0  0  0  0  0  0  0
   35.6830   29.1740   48.5680 O   0  0  0  0  0  0  0  0  0  0  0  0
   35.1170   28.9430   51.0820 O   0  0  0  0  0  0  0  0  0  0  0  0
   35.2890   29.9870   49.9840 P   0  0  2  0  0  0  0  0  0  0  0  0
   33.8470   30.8490   49.9210 O   0  0  0  0  0  0  0  0  0  0  0  0
   33.1460   30.2580   49.5650 H   0  0  0  0  0  0  0  0  0  0  0  0
   36.5490   31.0200   50.4780 O   0  0  0  0  0  0  0  0  0  0  0  0
   37.6130   30.3380   51.0120 C   0  0  0  0  0  0  0  0  0  0  0  0
   37.7950   29.0980   50.4430 F   0  0  0  0  0  0  0  0  0  0  0  0
   38.7370   31.0880   50.7760 F   0  0  0  0  0  0  0  0  0  0  0  0
   37.4520   30.1880   52.3850 F   0  0  0  0  0  0  0  0  0  0  0  0
  2  7  1  0  0  0  0
  2  1  1  0  0  0  0
  3  2  2  0  0  0  0
  4  5  2  0  0  0  0
  4  3  1  0  0  0  0
  5  6  1  0  0  0  0
  6 10  1  0  0  0  0
  6  7  2  0  0  0  0
  7 20  1  0  0  0  0
  8  4  1  0  0  0  0
  9  5  1  0  0  0  0
 11 16  1  0  0  0  0
 12 11  2  0  0  0  0
 12 13  1  0  0  0  0
 13 14  2  0  0  0  0
 14 15  1  0  0  0  0
 15  3  1  0  0  0  0
 16 15  2  0  0  0  0
 17 11  1  0  0  0  0
 18 12  1  0  0  0  0
 19 13  1  0  0  0  0
 20 22  1  0  0  0  0
 22 25  1  0  0  0  0
 22 21  2  1  0  0  0
 23 22  1  0  0  0  0
 24 23  1  0  0  0  0
 25 26  1  0  0  0  0
 26 29  1  0  0  0  0
 27 26  1  0  0  0  0
 28 26  1  0  0  0  0
M  END
>  <minimizedAffinity>
-5.67065668

>  <minimizedRMSD>
1.03001773

$$$$
