
 OpenBabel03272510243D

 27 29  0  0  0  0  0  0  0  0999 V2000
   35.5920   29.8170   47.1050 C   0  0  0  0  0  0  0  0  0  0  0  0
   36.6220   30.4530   47.7680 C   0  0  0  0  0  0  0  0  0  0  0  0
   37.4810   31.2890   47.0920 C   0  0  0  0  0  0  0  0  0  0  0  0
   37.2660   31.4590   45.7260 C   0  0  0  0  0  0  0  0  0  0  0  0
   37.9790   32.2300   44.8480 N   0  0  0  0  0  0  0  0  0  0  0  0
   37.3990   32.0730   43.6620 C   0  0  0  0  0  0  0  0  0  0  0  0
   36.3630   31.2510   43.7300 N   0  0  0  0  0  0  0  0  0  0  0  0
   36.2490   30.8430   45.0240 C   0  0  0  0  0  0  0  0  0  0  0  0
   35.3950   30.0020   45.7380 C   0  0  0  0  0  0  0  0  0  0  0  0
   34.8880   29.1470   47.5980 H   0  0  0  0  0  0  0  0  0  0  0  0
   38.2870   31.7860   47.6080 H   0  0  0  0  0  0  0  0  0  0  0  0
   38.8170   32.8160   45.1140 H   0  0  0  0  0  0  0  0  0  0  0  0
   34.5990   29.5170   45.1980 H   0  0  0  0  0  0  0  0  0  0  0  0
   37.8630   30.2640   51.3120 C   0  0  0  0  0  0  0  0  0  0  0  0
   37.8610   30.5600   49.9530 C   0  0  0  0  0  0  0  0  0  0  0  0
   36.7580   30.2060   49.1940 C   0  0  0  0  0  0  0  0  0  0  0  0
   35.7140   29.5750   49.8290 N   0  0  0  0  0  0  0  0  0  0  0  0
   35.7420   29.2970   51.1570 C   0  0  0  0  0  0  0  0  0  0  0  0
   36.8020   29.6390   51.8820 N   0  0  0  0  0  0  0  0  0  0  0  0
   38.7120   30.5290   51.9300 H   0  0  0  0  0  0  0  0  0  0  0  0
   38.6740   31.0500   49.4650 H   0  0  0  0  0  0  0  0  0  0  0  0
   34.8460   28.7980   51.5060 H   0  0  0  0  0  0  0  0  0  0  0  0
   37.8730   32.7230   42.5230 O   0  0  0  0  0  0  0  0  0  0  0  0
   39.2220   32.7970   42.1780 C   0  0  0  0  0  0  0  0  0  0  0  0
   39.3320   32.9040   40.8030 F   0  0  0  0  0  0  0  0  0  0  0  0
   39.9050   31.6370   42.5330 F   0  0  0  0  0  0  0  0  0  0  0  0
   39.7760   33.8880   42.8210 F   0  0  0  0  0  0  0  0  0  0  0  0
  1 10  1  0  0  0  0
  1  2  1  0  0  0  0
  2 16  1  0  0  0  0
  3 11  1  0  0  0  0
  3  2  2  0  0  0  0
  4  3  1  0  0  0  0
  5 12  1  0  0  0  0
  5  4  1  0  0  0  0
  6  7  2  0  0  0  0
  6  5  1  0  0  0  0
  7  8  1  0  0  0  0
  8  4  2  0  0  0  0
  8  9  1  0  0  0  0
  9  1  2  0  0  0  0
 13  9  1  0  0  0  0
 14 19  1  0  0  0  0
 14 20  1  0  0  0  0
 15 14  2  0  0  0  0
 16 17  2  0  0  0  0
 16 15  1  0  0  0  0
 17 18  1  0  0  0  0
 18 22  1  0  0  0  0
 18 19  2  0  0  0  0
 21 15  1  0  0  0  0
 23  6  1  0  0  0  0
 24 23  1  0  0  0  0
 24 26  1  0  0  0  0
 24 27  1  0  0  0  0
 25 24  1  0  0  0  0
M  END
>  <minimizedAffinity>
-4.79978228

>  <minimizedRMSD>
2.60295081

$$$$
