
 OpenBabel03272510243D

 27 29  0  0  0  0  0  0  0  0999 V2000
   36.4760   30.3530   47.1280 C   0  0  0  0  0  0  0  0  0  0  0  0
   36.9410   30.9260   45.9620 C   0  0  0  0  0  0  0  0  0  0  0  0
   36.2550   30.7670   44.7800 C   0  0  0  0  0  0  0  0  0  0  0  0
   35.0860   30.0090   44.8140 C   0  0  0  0  0  0  0  0  0  0  0  0
   34.2410   29.7120   43.7800 N   0  0  0  0  0  0  0  0  0  0  0  0
   33.2700   28.9660   44.2990 C   0  0  0  0  0  0  0  0  0  0  0  0
   33.4440   28.7710   45.5960 N   0  0  0  0  0  0  0  0  0  0  0  0
   34.5860   29.4180   45.9580 C   0  0  0  0  0  0  0  0  0  0  0  0
   35.3040   29.5980   47.1400 C   0  0  0  0  0  0  0  0  0  0  0  0
   36.9850   30.4520   48.0870 H   0  0  0  0  0  0  0  0  0  0  0  0
   36.6170   31.2140   43.8670 H   0  0  0  0  0  0  0  0  0  0  0  0
   34.3800   30.0370   42.7840 H   0  0  0  0  0  0  0  0  0  0  0  0
   34.9210   29.1400   48.0370 H   0  0  0  0  0  0  0  0  0  0  0  0
   40.2210   32.5990   45.2030 C   0  0  0  0  0  0  0  0  0  0  0  0
   39.0810   31.8300   45.0000 C   0  0  0  0  0  0  0  0  0  0  0  0
   38.1710   31.6970   46.0360 C   0  0  0  0  0  0  0  0  0  0  0  0
   38.4450   32.3390   47.2200 N   0  0  0  0  0  0  0  0  0  0  0  0
   39.5670   33.0830   47.3930 C   0  0  0  0  0  0  0  0  0  0  0  0
   40.4370   33.2080   46.3960 N   0  0  0  0  0  0  0  0  0  0  0  0
   40.9500   32.7200   44.4110 H   0  0  0  0  0  0  0  0  0  0  0  0
   38.8720   31.3340   44.0770 H   0  0  0  0  0  0  0  0  0  0  0  0
   39.6380   33.5220   48.3810 H   0  0  0  0  0  0  0  0  0  0  0  0
   32.2220   28.4800   43.5160 O   0  0  0  0  0  0  0  0  0  0  0  0
   31.8430   29.0390   42.2960 C   0  0  0  0  0  0  0  0  0  0  0  0
   32.6950   28.5820   41.3060 F   0  0  0  0  0  0  0  0  0  0  0  0
   31.9690   30.4250   42.3070 F   0  0  0  0  0  0  0  0  0  0  0  0
   30.5310   28.6850   42.0440 F   0  0  0  0  0  0  0  0  0  0  0  0
  1  9  1  0  0  0  0
  1 10  1  0  0  0  0
  2 16  1  0  0  0  0
  2  1  2  0  0  0  0
  3  4  2  0  0  0  0
  3  2  1  0  0  0  0
  4  8  1  0  0  0  0
  5  6  1  0  0  0  0
  5  4  1  0  0  0  0
  6  7  2  0  0  0  0
  7  8  1  0  0  0  0
  8  9  2  0  0  0  0
  9 13  1  0  0  0  0
 11  3  1  0  0  0  0
 12  5  1  0  0  0  0
 14 19  1  0  0  0  0
 15 14  2  0  0  0  0
 15 16  1  0  0  0  0
 16 17  2  0  0  0  0
 17 18  1  0  0  0  0
 18 22  1  0  0  0  0
 19 18  2  0  0  0  0
 20 14  1  0  0  0  0
 21 15  1  0  0  0  0
 23  6  1  0  0  0  0
 24 26  1  0  0  0  0
 24 23  1  0  0  0  0
 25 24  1  0  0  0  0
 27 24  1  0  0  0  0
M  END
>  <minimizedAffinity>
-2.90586185

>  <minimizedRMSD>
7.53087378

$$$$
