REMARK  Name = 
REMARK  3 active torsions:
REMARK  status: ('A' for Active; 'I' for Inactive)
REMARK    1  A    between atoms: C_1  and  C_7
REMARK    2  A    between atoms: C_8  and  O_10
REMARK    3  A    between atoms: O_10  and  C_18
REMARK                            x       y       z     vdW  Elec       q    Type
REMARK                         _______ _______ _______ _____ _____    ______ ____
ROOT
ATOM      1  C   UNL     1      36.642  31.036  50.490  0.00  0.00    +0.000 C 
ATOM      2  C   UNL     1      36.132  29.694  50.657  0.00  0.00    +0.000 C 
ATOM      3  C   UNL     1      37.338  30.097  51.483  0.00  0.00    +0.000 C 
ATOM      4  H   UNL     1      36.149  31.919  50.960  0.00  0.00    +0.000 HD
ATOM      5  H   UNL     1      35.171  29.529  51.173  0.00  0.00    +0.000 HD
ATOM      6  H   UNL     1      38.339  29.721  51.248  0.00  0.00    +0.000 HD
ATOM      7  H   UNL     1      37.115  30.270  52.539  0.00  0.00    +0.000 HD
ENDROOT
BRANCH   1   8
ATOM      8  C   UNL     1      37.524  31.401  49.327  0.00  0.00    +0.000 A 
ATOM      9  C   UNL     1      38.155  32.642  49.407  0.00  0.00    +0.000 A 
ATOM     10  C   UNL     1      38.951  32.987  48.302  0.00  0.00    +0.000 A 
ATOM     11  N   UNL     1      39.062  32.119  47.241  0.00  0.00    +0.000 NA
ATOM     12  C   UNL     1      38.423  30.921  47.220  0.00  0.00    +0.000 A 
ATOM     13  N   UNL     1      37.644  30.560  48.279  0.00  0.00    +0.000 NA
ATOM     14  H   UNL     1      38.037  33.292  50.264  0.00  0.00    +0.000 HD
ATOM     15  H   UNL     1      39.469  33.934  48.296  0.00  0.00    +0.000 HD
ATOM     16  H   UNL     1      38.569  30.304  46.345  0.00  0.00    +0.000 HD
ENDBRANCH   1   8
BRANCH   2  17
ATOM     17  O   UNL     1      36.404  28.730  49.673  0.00  0.00    +0.000 OA
BRANCH  17  18
ATOM     18  C   UNL     1      35.350  27.805  49.626  0.00  0.00    +0.000 C 
ATOM     19  F   UNL     1      35.661  26.873  48.644  0.00  0.00    +0.000 F 
ATOM     20  F   UNL     1      35.241  27.191  50.847  0.00  0.00    +0.000 F 
ATOM     21  F   UNL     1      34.157  28.436  49.276  0.00  0.00    +0.000 F 
ENDBRANCH  17  18
ENDBRANCH   2  17
TORSDOF 3
