REMARK  Name = 
REMARK  3 active torsions:
REMARK  status: ('A' for Active; 'I' for Inactive)
REMARK    1  A    between atoms: C_2  and  C_12
REMARK    2  A    between atoms: C_6  and  O_16
REMARK    3  A    between atoms: O_16  and  C_24
REMARK                            x       y       z     vdW  Elec       q    Type
REMARK                         _______ _______ _______ _____ _____    ______ ____
ROOT
ATOM      1  C   UNL     1      36.849  30.557  46.916  0.00  0.00    +0.000 A 
ATOM      2  C   UNL     1      37.516  31.036  48.025  0.00  0.00    +0.000 A 
ATOM      3  C   UNL     1      38.506  31.983  47.894  0.00  0.00    +0.000 A 
ATOM      4  C   UNL     1      38.800  32.428  46.607  0.00  0.00    +0.000 A 
ATOM      5  N   UNL     1      39.733  33.354  46.226  0.00  0.00    +0.000 N 
ATOM      6  C   UNL     1      39.644  33.445  44.902  0.00  0.00    +0.000 A 
ATOM      7  N   UNL     1      38.714  32.637  44.418  0.00  0.00    +0.000 NA
ATOM      8  C   UNL     1      38.158  31.976  45.471  0.00  0.00    +0.000 A 
ATOM      9  C   UNL     1      37.159  31.017  45.637  0.00  0.00    +0.000 A 
ATOM     10  H   UNL     1      36.059  29.808  46.971  0.00  0.00    +0.000 HD
ATOM     11  H   UNL     1      39.029  32.358  48.760  0.00  0.00    +0.000 HD
ATOM     12  H   UNL     1      40.372  33.866  46.893  0.00  0.00    +0.000 HD
ATOM     13  H   UNL     1      36.653  30.658  44.756  0.00  0.00    +0.000 HD
ENDROOT
BRANCH   2  16
ATOM     14  C   UNL     1      37.387  30.095  51.663  0.00  0.00    +0.000 A 
ATOM     15  C   UNL     1      37.869  30.655  50.485  0.00  0.00    +0.000 A 
ATOM     16  C   UNL     1      37.132  30.504  49.322  0.00  0.00    +0.000 A 
ATOM     17  N   UNL     1      35.952  29.802  49.394  0.00  0.00    +0.000 NA
ATOM     18  C   UNL     1      35.504  29.264  50.557  0.00  0.00    +0.000 A 
ATOM     19  N   UNL     1      36.214  29.412  51.670  0.00  0.00    +0.000 NA
ATOM     20  H   UNL     1      37.942  30.197  52.587  0.00  0.00    +0.000 HD
ATOM     21  H   UNL     1      38.786  31.200  50.435  0.00  0.00    +0.000 HD
ATOM     22  H   UNL     1      34.561  28.742  50.448  0.00  0.00    +0.000 HD
ENDBRANCH   2  16
BRANCH   6  23
ATOM     23  O   UNL     1      40.460  34.308  44.171  0.00  0.00    +0.000 OA
BRANCH  23  24
ATOM     24  C   UNL     1      41.423  35.136  44.746  0.00  0.00    +0.000 C 
ATOM     25  F   UNL     1      40.844  36.353  45.058  0.00  0.00    +0.000 F 
ATOM     26  F   UNL     1      42.456  35.414  43.857  0.00  0.00    +0.000 F 
ATOM     27  F   UNL     1      41.923  34.506  45.871  0.00  0.00    +0.000 F 
ENDBRANCH  23  24
ENDBRANCH   6  23
TORSDOF 3
