
 OpenBabel03272506203D

 39 41  0  0  1  0  0  0  0  0999 V2000
   37.5190   31.0400   43.5820 C   0  0  2  0  0  0  0  0  0  0  0  0
   37.0520   32.4620   43.3980 C   0  0  0  0  0  0  0  0  0  0  0  0
   37.6210   33.1110   42.1890 C   0  0  0  0  0  0  0  0  0  0  0  0
   39.1060   33.0490   42.1140 C   0  0  0  0  0  0  0  0  0  0  0  0
   39.6660   31.7310   42.4640 C   0  0  0  0  0  0  0  0  0  0  0  0
   38.6310   30.6340   42.7160 C   0  0  1  0  0  0  0  0  0  0  0  0
   37.7970   30.8520   44.6620 H   0  0  0  0  0  0  0  0  0  0  0  0
   37.4460   33.0410   44.2850 H   0  0  0  0  0  0  0  0  0  0  0  0
   35.9700   32.6060   43.4260 H   0  0  0  0  0  0  0  0  0  0  0  0
   37.1650   32.5750   41.3040 H   0  0  0  0  0  0  0  0  0  0  0  0
   37.2790   34.1640   42.1860 H   0  0  0  0  0  0  0  0  0  0  0  0
   39.3980   33.3830   41.0770 H   0  0  0  0  0  0  0  0  0  0  0  0
   39.5150   33.8530   42.7910 H   0  0  0  0  0  0  0  0  0  0  0  0
   40.3530   31.7790   43.3540 H   0  0  0  0  0  0  0  0  0  0  0  0
   40.2870   31.3500   41.6130 H   0  0  0  0  0  0  0  0  0  0  0  0
   38.2650   30.2980   41.7330 H   0  0  0  0  0  0  0  0  0  0  0  0
   36.3680   30.0990   43.3320 C   0  0  0  0  0  0  0  0  0  0  0  0
   35.7060   29.6450   44.4730 C   0  0  0  0  0  0  0  0  0  0  0  0
   34.6380   28.7580   44.2940 C   0  0  0  0  0  0  0  0  0  0  0  0
   34.3030   28.3860   43.0020 N   0  0  0  0  0  0  0  0  0  0  0  0
   34.9830   28.8580   41.9180 C   0  0  0  0  0  0  0  0  0  0  0  0
   35.9890   29.6950   42.0970 N   0  0  0  0  0  0  0  0  0  0  0  0
   33.9010   28.2510   45.3850 N   0  0  0  0  0  0  0  0  0  0  0  0
   33.2350   29.0740   46.2520 C   0  0  0  0  0  0  0  0  0  0  0  0
   32.5230   28.5520   47.3080 C   0  0  0  0  0  0  0  0  0  0  0  0
   32.4990   27.1910   47.4650 C   0  0  0  0  0  0  0  0  0  0  0  0
   31.8440   26.7150   48.4350 O   0  0  0  0  0  0  0  0  0  0  0  0
   33.1550   26.3800   46.6100 N   0  0  0  0  0  0  0  0  0  0  0  0
   33.8380   26.9410   45.5920 C   0  0  0  0  0  0  0  0  0  0  0  0
   34.4170   26.0910   44.8480 O   0  0  0  0  0  0  0  0  0  0  0  0
   35.9090   29.8830   45.5040 H   0  0  0  0  0  0  0  0  0  0  0  0
   34.6640   28.5220   40.9330 H   0  0  0  0  0  0  0  0  0  0  0  0
   33.3100   30.1480   46.0510 H   0  0  0  0  0  0  0  0  0  0  0  0
   32.0200   29.2610   47.9560 H   0  0  0  0  0  0  0  0  0  0  0  0
   33.0950   25.3560   46.7870 H   0  0  0  0  0  0  0  0  0  0  0  0
   39.4200   29.4800   43.3250 C   0  0  0  0  0  0  0  0  0  0  0  0
   39.2670   29.5250   44.7020 F   0  0  0  0  0  0  0  0  0  0  0  0
   38.8440   28.2600   42.9470 F   0  0  0  0  0  0  0  0  0  0  0  0
   40.7480   29.5030   43.0370 F   0  0  0  0  0  0  0  0  0  0  0  0
  1  7  1  1  0  0  0
  2  9  1  0  0  0  0
  2  1  1  0  0  0  0
  2  8  1  0  0  0  0
  3  2  1  0  0  0  0
  4  3  1  0  0  0  0
  4  5  1  0  0  0  0
  4 13  1  0  0  0  0
  5  6  1  0  0  0  0
  5 14  1  0  0  0  0
  6 16  1  6  0  0  0
  6 36  1  0  0  0  0
  6  1  1  0  0  0  0
 10  3  1  0  0  0  0
 11  3  1  0  0  0  0
 12  4  1  0  0  0  0
 15  5  1  0  0  0  0
 17  1  1  0  0  0  0
 17 18  1  0  0  0  0
 18 31  1  0  0  0  0
 19 18  2  0  0  0  0
 19 23  1  0  0  0  0
 20 19  1  0  0  0  0
 21 22  1  0  0  0  0
 21 20  2  0  0  0  0
 22 17  2  0  0  0  0
 23 29  1  0  0  0  0
 23 24  1  0  0  0  0
 24 25  2  0  0  0  0
 25 26  1  0  0  0  0
 25 34  1  0  0  0  0
 26 27  2  0  0  0  0
 28 35  1  0  0  0  0
 28 26  1  0  0  0  0
 29 28  1  0  0  0  0
 30 29  2  0  0  0  0
 32 21  1  0  0  0  0
 33 24  1  0  0  0  0
 36 37  1  0  0  0  0
 38 36  1  0  0  0  0
 39 36  1  0  0  0  0
M  END
>  <minimizedAffinity>
-3.7095201

>  <minimizedRMSD>
6.93268919

$$$$
