
 OpenBabel03272502233D

 24 25  0  0  0  0  0  0  0  0999 V2000
   37.7320   31.2640   47.1190 C   0  0  0  0  0  0  0  0  0  0  0  0
   37.0810   30.8690   45.9680 C   0  0  0  0  0  0  0  0  0  0  0  0
   37.4810   31.2890   44.7030 C   0  0  0  0  0  0  0  0  0  0  0  0
   38.5360   32.1080   44.5830 N   0  0  0  0  0  0  0  0  0  0  0  0
   39.1570   32.4810   45.7100 C   0  0  0  0  0  0  0  0  0  0  0  0
   38.7780   32.0820   46.9210 N   0  0  0  0  0  0  0  0  0  0  0  0
   36.2270   30.2080   46.0530 H   0  0  0  0  0  0  0  0  0  0  0  0
   36.9190   30.9380   43.8290 H   0  0  0  0  0  0  0  0  0  0  0  0
   37.5560   30.4950   50.7960 C   0  0  0  0  0  0  0  0  0  0  0  0
   38.0770   30.9680   49.5960 C   0  0  0  0  0  0  0  0  0  0  0  0
   37.3120   30.8170   48.4450 C   0  0  0  0  0  0  0  0  0  0  0  0
   36.1150   30.2220   48.5610 N   0  0  0  0  0  0  0  0  0  0  0  0
   35.6120   29.7640   49.7220 C   0  0  0  0  0  0  0  0  0  0  0  0
   36.3570   29.9110   50.8490 N   0  0  0  0  0  0  0  0  0  0  0  0
   38.1680   30.6210   51.6870 H   0  0  0  0  0  0  0  0  0  0  0  0
   39.0340   31.4480   49.4860 H   0  0  0  0  0  0  0  0  0  0  0  0
   34.2670   29.1120   49.7710 C   0  0  0  0  0  0  0  0  0  0  0  0
   34.4420   27.7590   49.8620 F   0  0  0  0  0  0  0  0  0  0  0  0
   33.5910   29.4100   48.6030 F   0  0  0  0  0  0  0  0  0  0  0  0
   33.5150   29.6050   50.8370 F   0  0  0  0  0  0  0  0  0  0  0  0
   40.3380   33.3930   45.6060 C   0  0  0  0  0  0  0  0  0  0  0  0
   40.4400   34.1050   46.7790 F   0  0  0  0  0  0  0  0  0  0  0  0
   41.5050   32.6410   45.3900 F   0  0  0  0  0  0  0  0  0  0  0  0
   40.2270   34.2750   44.5920 F   0  0  0  0  0  0  0  0  0  0  0  0
  1 11  1  0  0  0  0
  2  7  1  0  0  0  0
  2  1  2  0  0  0  0
  3  2  1  0  0  0  0
  4  3  2  0  0  0  0
  4  5  1  0  0  0  0
  5  6  2  0  0  0  0
  6  1  1  0  0  0  0
  8  3  1  0  0  0  0
  9 14  1  0  0  0  0
  9 15  1  0  0  0  0
 10  9  2  0  0  0  0
 11 12  2  0  0  0  0
 11 10  1  0  0  0  0
 12 13  1  0  0  0  0
 13 17  1  0  0  0  0
 13 14  2  0  0  0  0
 16 10  1  0  0  0  0
 17 18  1  0  0  0  0
 17 20  1  0  0  0  0
 19 17  1  0  0  0  0
 21  5  1  0  0  0  0
 21 22  1  0  0  0  0
 23 21  1  0  0  0  0
 24 21  1  0  0  0  0
M  END
>  <minimizedAffinity>
-6.42033863

>  <minimizedRMSD>
0.682542205

$$$$
