
 OpenBabel03272502243D

 24 25  0  0  0  0  0  0  0  0999 V2000
   38.4760   22.5890   34.8490 C   0  0  0  0  0  0  0  0  0  0  0  0
   39.7880   22.1620   34.7990 C   0  0  0  0  0  0  0  0  0  0  0  0
   40.6320   22.2150   35.9030 C   0  0  0  0  0  0  0  0  0  0  0  0
   40.1680   22.6960   37.0660 N   0  0  0  0  0  0  0  0  0  0  0  0
   38.8930   23.1060   37.0980 C   0  0  0  0  0  0  0  0  0  0  0  0
   38.0830   23.0580   36.0440 N   0  0  0  0  0  0  0  0  0  0  0  0
   40.1730   21.7710   33.8650 H   0  0  0  0  0  0  0  0  0  0  0  0
   41.6640   21.8590   35.7950 H   0  0  0  0  0  0  0  0  0  0  0  0
   36.5760   23.3610   31.6970 C   0  0  0  0  0  0  0  0  0  0  0  0
   37.4590   23.5510   32.7550 C   0  0  0  0  0  0  0  0  0  0  0  0
   37.5910   22.5280   33.6880 C   0  0  0  0  0  0  0  0  0  0  0  0
   36.8580   21.4180   33.5110 N   0  0  0  0  0  0  0  0  0  0  0  0
   36.0050   21.2360   32.4860 C   0  0  0  0  0  0  0  0  0  0  0  0
   35.8730   22.2340   31.5730 N   0  0  0  0  0  0  0  0  0  0  0  0
   36.4850   24.1710   30.9760 H   0  0  0  0  0  0  0  0  0  0  0  0
   38.0540   24.4330   32.9120 H   0  0  0  0  0  0  0  0  0  0  0  0
   35.2210   19.9690   32.3570 C   0  0  0  0  0  0  0  0  0  0  0  0
   35.3290   19.2680   33.5260 F   0  0  0  0  0  0  0  0  0  0  0  0
   35.7570   19.2250   31.3230 F   0  0  0  0  0  0  0  0  0  0  0  0
   33.8900   20.2400   32.0420 F   0  0  0  0  0  0  0  0  0  0  0  0
   38.3490   23.6470   38.3820 C   0  0  0  0  0  0  0  0  0  0  0  0
   37.9110   24.9320   38.1590 F   0  0  0  0  0  0  0  0  0  0  0  0
   37.2880   22.8420   38.8270 F   0  0  0  0  0  0  0  0  0  0  0  0
   39.2730   23.6860   39.3630 F   0  0  0  0  0  0  0  0  0  0  0  0
  1  6  1  0  0  0  0
  2  1  2  0  0  0  0
  2  3  1  0  0  0  0
  3  4  2  0  0  0  0
  4  5  1  0  0  0  0
  5 21  1  0  0  0  0
  6  5  2  0  0  0  0
  7  2  1  0  0  0  0
  8  3  1  0  0  0  0
  9 10  1  0  0  0  0
 10 16  1  0  0  0  0
 10 11  2  0  0  0  0
 11  1  1  0  0  0  0
 12 11  1  0  0  0  0
 13 12  2  0  0  0  0
 14  9  2  0  0  0  0
 14 13  1  0  0  0  0
 15  9  1  0  0  0  0
 17 13  1  0  0  0  0
 17 18  1  0  0  0  0
 19 17  1  0  0  0  0
 20 17  1  0  0  0  0
 21 23  1  0  0  0  0
 21 24  1  0  0  0  0
 22 21  1  0  0  0  0
M  END
>  <minimizedAffinity>
-5.74942923

$$$$

 OpenBabel03272502243D

 24 25  0  0  0  0  0  0  0  0999 V2000
   37.6760   22.4630   33.7370 C   0  0  0  0  0  0  0  0  0  0  0  0
   37.5200   23.4980   32.8370 C   0  0  0  0  0  0  0  0  0  0  0  0
   36.6310   23.4280   31.7690 C   0  0  0  0  0  0  0  0  0  0  0  0
   35.8920   22.3230   31.5950 N   0  0  0  0  0  0  0  0  0  0  0  0
   36.0550   21.3280   32.4780 C   0  0  0  0  0  0  0  0  0  0  0  0
   36.9050   21.3900   33.5000 N   0  0  0  0  0  0  0  0  0  0  0  0
   38.1110   24.3960   32.9670 H   0  0  0  0  0  0  0  0  0  0  0  0
   36.5550   24.2870   31.0900 H   0  0  0  0  0  0  0  0  0  0  0  0
   40.7180   22.2780   35.9410 C   0  0  0  0  0  0  0  0  0  0  0  0
   39.9410   22.1530   34.7930 C   0  0  0  0  0  0  0  0  0  0  0  0
   38.6080   22.5400   34.8600 C   0  0  0  0  0  0  0  0  0  0  0  0
   38.1490   23.0130   36.0290 N   0  0  0  0  0  0  0  0  0  0  0  0
   38.9010   23.1340   37.1390 C   0  0  0  0  0  0  0  0  0  0  0  0
   40.2040   22.7550   37.0770 N   0  0  0  0  0  0  0  0  0  0  0  0
   41.7590   21.9700   35.8720 H   0  0  0  0  0  0  0  0  0  0  0  0
   40.2930   21.7770   33.8480 H   0  0  0  0  0  0  0  0  0  0  0  0
   38.3170   23.6690   38.4060 C   0  0  0  0  0  0  0  0  0  0  0  0
   37.8970   24.9510   38.1850 F   0  0  0  0  0  0  0  0  0  0  0  0
   39.2990   23.6680   39.3780 F   0  0  0  0  0  0  0  0  0  0  0  0
   37.2740   22.8580   38.8530 F   0  0  0  0  0  0  0  0  0  0  0  0
   35.2440   20.0830   32.3090 C   0  0  0  0  0  0  0  0  0  0  0  0
   35.7320   19.3930   31.2240 F   0  0  0  0  0  0  0  0  0  0  0  0
   35.3340   19.2950   33.4680 F   0  0  0  0  0  0  0  0  0  0  0  0
   33.9390   20.3380   32.0880 F   0  0  0  0  0  0  0  0  0  0  0  0
  1 11  1  0  0  0  0
  2  7  1  0  0  0  0
  2  1  2  0  0  0  0
  3  2  1  0  0  0  0
  4  3  2  0  0  0  0
  4  5  1  0  0  0  0
  5  6  2  0  0  0  0
  6  1  1  0  0  0  0
  8  3  1  0  0  0  0
  9 14  1  0  0  0  0
 10 11  1  0  0  0  0
 10  9  2  0  0  0  0
 11 12  2  0  0  0  0
 12 13  1  0  0  0  0
 13 17  1  0  0  0  0
 14 13  2  0  0  0  0
 15  9  1  0  0  0  0
 16 10  1  0  0  0  0
 17 20  1  0  0  0  0
 17 19  1  0  0  0  0
 18 17  1  0  0  0  0
 21  5  1  0  0  0  0
 21 23  1  0  0  0  0
 22 21  1  0  0  0  0
 24 21  1  0  0  0  0
M  END
>  <minimizedAffinity>
-5.74509907

$$$$

 OpenBabel03272502243D

 24 25  0  0  0  0  0  0  0  0999 V2000
   38.1570   23.2330   34.7210 C   0  0  0  0  0  0  0  0  0  0  0  0
   38.1440   24.5470   34.2980 C   0  0  0  0  0  0  0  0  0  0  0  0
   38.1520   25.6160   35.1880 C   0  0  0  0  0  0  0  0  0  0  0  0
   38.1730   25.3780   36.5070 N   0  0  0  0  0  0  0  0  0  0  0  0
   38.1850   24.0970   36.9010 C   0  0  0  0  0  0  0  0  0  0  0  0
   38.1770   23.0720   36.0540 N   0  0  0  0  0  0  0  0  0  0  0  0
   38.1270   24.7520   33.2350 H   0  0  0  0  0  0  0  0  0  0  0  0
   38.1420   26.6370   34.7850 H   0  0  0  0  0  0  0  0  0  0  0  0
   39.1410   20.5510   32.2750 C   0  0  0  0  0  0  0  0  0  0  0  0
   39.2880   21.6260   33.1460 C   0  0  0  0  0  0  0  0  0  0  0  0
   38.1520   22.1120   33.7840 C   0  0  0  0  0  0  0  0  0  0  0  0
   36.9800   21.5140   33.5200 N   0  0  0  0  0  0  0  0  0  0  0  0
   36.8390   20.4750   32.6770 C   0  0  0  0  0  0  0  0  0  0  0  0
   37.9470   19.9980   32.0520 N   0  0  0  0  0  0  0  0  0  0  0  0
   40.0400   20.1840   31.7840 H   0  0  0  0  0  0  0  0  0  0  0  0
   40.2200   22.1160   33.3700 H   0  0  0  0  0  0  0  0  0  0  0  0
   35.4970   19.8620   32.4340 C   0  0  0  0  0  0  0  0  0  0  0  0
   35.2760   18.9040   33.3840 F   0  0  0  0  0  0  0  0  0  0  0  0
   35.5010   19.2770   31.1820 F   0  0  0  0  0  0  0  0  0  0  0  0
   34.4980   20.8360   32.4460 F   0  0  0  0  0  0  0  0  0  0  0  0
   38.2090   23.8010   38.3670 C   0  0  0  0  0  0  0  0  0  0  0  0
   39.4550   23.3140   38.6900 F   0  0  0  0  0  0  0  0  0  0  0  0
   37.9400   24.9720   39.0950 F   0  0  0  0  0  0  0  0  0  0  0  0
   37.2950   22.8770   38.7260 F   0  0  0  0  0  0  0  0  0  0  0  0
  1  6  1  0  0  0  0
  2  1  2  0  0  0  0
  2  3  1  0  0  0  0
  3  4  2  0  0  0  0
  4  5  1  0  0  0  0
  5 21  1  0  0  0  0
  6  5  2  0  0  0  0
  7  2  1  0  0  0  0
  8  3  1  0  0  0  0
  9 10  1  0  0  0  0
 10 16  1  0  0  0  0
 10 11  2  0  0  0  0
 11  1  1  0  0  0  0
 12 11  1  0  0  0  0
 13 12  2  0  0  0  0
 14  9  2  0  0  0  0
 14 13  1  0  0  0  0
 15  9  1  0  0  0  0
 17 20  1  0  0  0  0
 17 13  1  0  0  0  0
 17 18  1  0  0  0  0
 19 17  1  0  0  0  0
 21 22  1  0  0  0  0
 21 24  1  0  0  0  0
 21 23  1  0  0  0  0
M  END
>  <minimizedAffinity>
-5.64581299

$$$$

 OpenBabel03272502243D

 24 25  0  0  0  0  0  0  0  0999 V2000
   38.0500   24.9860   35.1650 C   0  0  0  0  0  0  0  0  0  0  0  0
   38.8230   24.0260   34.5440 C   0  0  0  0  0  0  0  0  0  0  0  0
   39.4230   22.9850   35.2450 C   0  0  0  0  0  0  0  0  0  0  0  0
   39.2530   22.8970   36.5710 N   0  0  0  0  0  0  0  0  0  0  0  0
   38.4990   23.8360   37.1590 C   0  0  0  0  0  0  0  0  0  0  0  0
   37.9240   24.8340   36.4930 N   0  0  0  0  0  0  0  0  0  0  0  0
   38.9680   24.0870   33.4720 H   0  0  0  0  0  0  0  0  0  0  0  0
   40.0260   22.2550   34.6900 H   0  0  0  0  0  0  0  0  0  0  0  0
   36.5260   28.2720   34.1530 C   0  0  0  0  0  0  0  0  0  0  0  0
   37.1330   27.3230   34.9700 C   0  0  0  0  0  0  0  0  0  0  0  0
   37.4180   26.0760   34.4260 C   0  0  0  0  0  0  0  0  0  0  0  0
   37.0900   25.8620   33.1420 N   0  0  0  0  0  0  0  0  0  0  0  0
   36.5030   26.7800   32.3530 C   0  0  0  0  0  0  0  0  0  0  0  0
   36.2230   28.0000   32.8820 N   0  0  0  0  0  0  0  0  0  0  0  0
   36.3090   29.2430   34.5950 H   0  0  0  0  0  0  0  0  0  0  0  0
   37.4030   27.4790   36.0000 H   0  0  0  0  0  0  0  0  0  0  0  0
   36.1670   26.4650   30.9300 C   0  0  0  0  0  0  0  0  0  0  0  0
   34.8960   25.9650   30.8820 F   0  0  0  0  0  0  0  0  0  0  0  0
   37.0550   25.5120   30.4690 F   0  0  0  0  0  0  0  0  0  0  0  0
   36.3040   27.5980   30.1270 F   0  0  0  0  0  0  0  0  0  0  0  0
   38.2900   23.7630   38.6380 C   0  0  0  0  0  0  0  0  0  0  0  0
   39.5060   23.5180   39.2350 F   0  0  0  0  0  0  0  0  0  0  0  0
   37.7550   24.9750   39.1050 F   0  0  0  0  0  0  0  0  0  0  0  0
   37.4440   22.7770   38.9960 F   0  0  0  0  0  0  0  0  0  0  0  0
  1  6  1  0  0  0  0
  2  1  2  0  0  0  0
  2  3  1  0  0  0  0
  3  4  2  0  0  0  0
  4  5  1  0  0  0  0
  5 21  1  0  0  0  0
  6  5  2  0  0  0  0
  7  2  1  0  0  0  0
  8  3  1  0  0  0  0
  9 15  1  0  0  0  0
  9 10  1  0  0  0  0
 10 16  1  0  0  0  0
 11 10  2  0  0  0  0
 11  1  1  0  0  0  0
 12 11  1  0  0  0  0
 13 14  1  0  0  0  0
 13 12  2  0  0  0  0
 14  9  2  0  0  0  0
 17 13  1  0  0  0  0
 18 17  1  0  0  0  0
 19 17  1  0  0  0  0
 20 17  1  0  0  0  0
 21 24  1  0  0  0  0
 21 23  1  0  0  0  0
 21 22  1  0  0  0  0
M  END
>  <minimizedAffinity>
-5.59614658

$$$$

 OpenBabel03272502243D

 24 25  0  0  0  0  0  0  0  0999 V2000
   37.4070   26.0810   34.2600 C   0  0  0  0  0  0  0  0  0  0  0  0
   37.0220   27.1970   34.9750 C   0  0  0  0  0  0  0  0  0  0  0  0
   36.4730   28.3200   34.3650 C   0  0  0  0  0  0  0  0  0  0  0  0
   36.3040   28.3330   33.0350 N   0  0  0  0  0  0  0  0  0  0  0  0
   36.6820   27.2420   32.3560 C   0  0  0  0  0  0  0  0  0  0  0  0
   37.2080   26.1660   32.9350 N   0  0  0  0  0  0  0  0  0  0  0  0
   37.1540   27.1980   36.0500 H   0  0  0  0  0  0  0  0  0  0  0  0
   36.1880   29.1740   34.9920 H   0  0  0  0  0  0  0  0  0  0  0  0
   39.0940   22.7930   34.9570 C   0  0  0  0  0  0  0  0  0  0  0  0
   38.5920   23.8590   34.2170 C   0  0  0  0  0  0  0  0  0  0  0  0
   37.9800   24.9010   34.9050 C   0  0  0  0  0  0  0  0  0  0  0  0
   37.9110   24.8160   36.2420 N   0  0  0  0  0  0  0  0  0  0  0  0
   38.3980   23.7850   36.9560 C   0  0  0  0  0  0  0  0  0  0  0  0
   38.9960   22.7640   36.2870 N   0  0  0  0  0  0  0  0  0  0  0  0
   39.5690   21.9850   34.4030 H   0  0  0  0  0  0  0  0  0  0  0  0
   38.6390   23.9430   33.1460 H   0  0  0  0  0  0  0  0  0  0  0  0
   38.2820   23.7620   38.4470 C   0  0  0  0  0  0  0  0  0  0  0  0
   37.9640   25.0190   38.8790 F   0  0  0  0  0  0  0  0  0  0  0  0
   39.5030   23.3880   38.9760 F   0  0  0  0  0  0  0  0  0  0  0  0
   37.3350   22.8230   38.8560 F   0  0  0  0  0  0  0  0  0  0  0  0
   36.5060   27.2280   30.8700 C   0  0  0  0  0  0  0  0  0  0  0  0
   35.5570   26.2820   30.5570 F   0  0  0  0  0  0  0  0  0  0  0  0
   36.0940   28.4950   30.4270 F   0  0  0  0  0  0  0  0  0  0  0  0
   37.6400   26.9130   30.2150 F   0  0  0  0  0  0  0  0  0  0  0  0
  1 11  1  0  0  0  0
  1  2  1  0  0  0  0
  2  7  1  0  0  0  0
  3  2  2  0  0  0  0
  3  8  1  0  0  0  0
  4  3  1  0  0  0  0
  5  6  1  0  0  0  0
  5  4  2  0  0  0  0
  6  1  2  0  0  0  0
  9 14  1  0  0  0  0
 10 11  1  0  0  0  0
 10  9  2  0  0  0  0
 11 12  2  0  0  0  0
 12 13  1  0  0  0  0
 13 17  1  0  0  0  0
 14 13  2  0  0  0  0
 15  9  1  0  0  0  0
 16 10  1  0  0  0  0
 17 20  1  0  0  0  0
 17 18  1  0  0  0  0
 17 19  1  0  0  0  0
 21  5  1  0  0  0  0
 22 21  1  0  0  0  0
 23 21  1  0  0  0  0
 24 21  1  0  0  0  0
M  END
>  <minimizedAffinity>
-5.59367228

$$$$

 OpenBabel03272502243D

 24 25  0  0  0  0  0  0  0  0999 V2000
   38.5230   23.6870   34.7610 C   0  0  0  0  0  0  0  0  0  0  0  0
   39.5830   22.8130   34.6200 C   0  0  0  0  0  0  0  0  0  0  0  0
   40.2320   22.2470   35.7120 C   0  0  0  0  0  0  0  0  0  0  0  0
   39.8260   22.5520   36.9530 N   0  0  0  0  0  0  0  0  0  0  0  0
   38.7960   23.4000   37.0730 C   0  0  0  0  0  0  0  0  0  0  0  0
   38.1720   23.9440   36.0310 N   0  0  0  0  0  0  0  0  0  0  0  0
   39.9200   22.5600   33.6220 H   0  0  0  0  0  0  0  0  0  0  0  0
   41.0680   21.5600   35.5300 H   0  0  0  0  0  0  0  0  0  0  0  0
   36.8630   24.2610   31.4360 C   0  0  0  0  0  0  0  0  0  0  0  0
   37.5120   23.5750   32.4570 C   0  0  0  0  0  0  0  0  0  0  0  0
   37.8400   24.2760   33.6120 C   0  0  0  0  0  0  0  0  0  0  0  0
   37.5100   25.5750   33.6720 N   0  0  0  0  0  0  0  0  0  0  0  0
   36.8820   26.2380   32.6840 C   0  0  0  0  0  0  0  0  0  0  0  0
   36.5600   25.5560   31.5540 N   0  0  0  0  0  0  0  0  0  0  0  0
   36.6140   23.6980   30.5390 H   0  0  0  0  0  0  0  0  0  0  0  0
   37.7840   22.5340   32.4260 H   0  0  0  0  0  0  0  0  0  0  0  0
   36.5470   27.6890   32.8260 C   0  0  0  0  0  0  0  0  0  0  0  0
   37.4970   28.4220   32.1710 F   0  0  0  0  0  0  0  0  0  0  0  0
   36.5600   28.0130   34.1690 F   0  0  0  0  0  0  0  0  0  0  0  0
   35.2680   27.9520   32.3350 F   0  0  0  0  0  0  0  0  0  0  0  0
   38.3200   23.7570   38.4450 C   0  0  0  0  0  0  0  0  0  0  0  0
   37.3170   22.8840   38.7960 F   0  0  0  0  0  0  0  0  0  0  0  0
   39.3840   23.6680   39.3570 F   0  0  0  0  0  0  0  0  0  0  0  0
   37.8250   25.0100   38.5150 F   0  0  0  0  0  0  0  0  0  0  0  0
  1  6  1  0  0  0  0
  2  1  2  0  0  0  0
  2  3  1  0  0  0  0
  3  4  2  0  0  0  0
  4  5  1  0  0  0  0
  5 21  1  0  0  0  0
  6  5  2  0  0  0  0
  7  2  1  0  0  0  0
  8  3  1  0  0  0  0
  9 14  2  0  0  0  0
  9 10  1  0  0  0  0
 10 11  2  0  0  0  0
 11 12  1  0  0  0  0
 11  1  1  0  0  0  0
 13 17  1  0  0  0  0
 13 12  2  0  0  0  0
 14 13  1  0  0  0  0
 15  9  1  0  0  0  0
 16 10  1  0  0  0  0
 17 19  1  0  0  0  0
 18 17  1  0  0  0  0
 20 17  1  0  0  0  0
 21 24  1  0  0  0  0
 21 22  1  0  0  0  0
 21 23  1  0  0  0  0
M  END
>  <minimizedAffinity>
-5.38056231

$$$$

 OpenBabel03272502243D

 24 25  0  0  0  0  0  0  0  0999 V2000
   37.6960   22.4610   34.2670 C   0  0  0  0  0  0  0  0  0  0  0  0
   37.8480   23.3720   33.2420 C   0  0  0  0  0  0  0  0  0  0  0  0
   37.2220   23.2170   32.0090 C   0  0  0  0  0  0  0  0  0  0  0  0
   36.4390   22.1500   31.7950 N   0  0  0  0  0  0  0  0  0  0  0  0
   36.3010   21.2760   32.8010 C   0  0  0  0  0  0  0  0  0  0  0  0
   36.8990   21.4190   33.9810 N   0  0  0  0  0  0  0  0  0  0  0  0
   38.4780   24.2380   33.4030 H   0  0  0  0  0  0  0  0  0  0  0  0
   37.3850   23.9790   31.2360 H   0  0  0  0  0  0  0  0  0  0  0  0
   38.5060   23.3470   37.8310 C   0  0  0  0  0  0  0  0  0  0  0  0
   37.7670   23.2550   36.6560 C   0  0  0  0  0  0  0  0  0  0  0  0
   38.3520   22.6280   35.5620 C   0  0  0  0  0  0  0  0  0  0  0  0
   39.5970   22.1480   35.7050 N   0  0  0  0  0  0  0  0  0  0  0  0
   40.3120   22.2380   36.8420 C   0  0  0  0  0  0  0  0  0  0  0  0
   39.7420   22.8510   37.9140 N   0  0  0  0  0  0  0  0  0  0  0  0
   38.0330   23.8410   38.6780 H   0  0  0  0  0  0  0  0  0  0  0  0
   36.7680   23.6320   36.5250 H   0  0  0  0  0  0  0  0  0  0  0  0
   41.6960   21.6790   36.9240 C   0  0  0  0  0  0  0  0  0  0  0  0
   41.8000   20.9380   38.0690 F   0  0  0  0  0  0  0  0  0  0  0  0
   42.5920   22.7300   36.9730 F   0  0  0  0  0  0  0  0  0  0  0  0
   41.9910   20.9190   35.7920 F   0  0  0  0  0  0  0  0  0  0  0  0
   35.4330   20.0760   32.5910 C   0  0  0  0  0  0  0  0  0  0  0  0
   35.4110   19.3490   33.7590 F   0  0  0  0  0  0  0  0  0  0  0  0
   34.1340   20.4820   32.2450 F   0  0  0  0  0  0  0  0  0  0  0  0
   35.8860   19.2720   31.6080 F   0  0  0  0  0  0  0  0  0  0  0  0
  1 11  1  0  0  0  0
  2  7  1  0  0  0  0
  2  1  2  0  0  0  0
  3  2  1  0  0  0  0
  4  3  2  0  0  0  0
  4  5  1  0  0  0  0
  5  6  2  0  0  0  0
  6  1  1  0  0  0  0
  8  3  1  0  0  0  0
  9 14  1  0  0  0  0
  9 15  1  0  0  0  0
 10  9  2  0  0  0  0
 11 12  2  0  0  0  0
 11 10  1  0  0  0  0
 12 13  1  0  0  0  0
 13 17  1  0  0  0  0
 13 14  2  0  0  0  0
 16 10  1  0  0  0  0
 17 19  1  0  0  0  0
 17 18  1  0  0  0  0
 20 17  1  0  0  0  0
 21  5  1  0  0  0  0
 21 22  1  0  0  0  0
 23 21  1  0  0  0  0
 24 21  1  0  0  0  0
M  END
>  <minimizedAffinity>
-5.37368917

$$$$

 OpenBabel03272502243D

 24 25  0  0  0  0  0  0  0  0999 V2000
   37.3230   26.5030   33.8320 C   0  0  0  0  0  0  0  0  0  0  0  0
   36.8420   26.2640   32.5610 C   0  0  0  0  0  0  0  0  0  0  0  0
   35.9860   27.1470   31.9100 C   0  0  0  0  0  0  0  0  0  0  0  0
   35.6050   28.2740   32.5280 N   0  0  0  0  0  0  0  0  0  0  0  0
   36.0810   28.4910   33.7610 C   0  0  0  0  0  0  0  0  0  0  0  0
   36.9000   27.6500   34.3870 N   0  0  0  0  0  0  0  0  0  0  0  0
   37.1430   25.3560   32.0520 H   0  0  0  0  0  0  0  0  0  0  0  0
   35.6400   26.8970   30.8990 H   0  0  0  0  0  0  0  0  0  0  0  0
   40.1650   24.2020   34.7110 C   0  0  0  0  0  0  0  0  0  0  0  0
   39.3980   25.0810   33.9530 C   0  0  0  0  0  0  0  0  0  0  0  0
   38.2250   25.5760   34.5120 C   0  0  0  0  0  0  0  0  0  0  0  0
   37.9030   25.1750   35.7510 N   0  0  0  0  0  0  0  0  0  0  0  0
   38.6450   24.3250   36.4830 C   0  0  0  0  0  0  0  0  0  0  0  0
   39.7920   23.8390   35.9400 N   0  0  0  0  0  0  0  0  0  0  0  0
   41.0800   23.8240   34.2590 H   0  0  0  0  0  0  0  0  0  0  0  0
   39.6420   25.4140   32.9590 H   0  0  0  0  0  0  0  0  0  0  0  0
   38.2180   23.9250   37.8590 C   0  0  0  0  0  0  0  0  0  0  0  0
   37.9520   25.0550   38.5800 F   0  0  0  0  0  0  0  0  0  0  0  0
   39.2550   23.2320   38.4570 F   0  0  0  0  0  0  0  0  0  0  0  0
   37.1120   23.0760   37.8080 F   0  0  0  0  0  0  0  0  0  0  0  0
   35.6740   29.7410   34.4740 C   0  0  0  0  0  0  0  0  0  0  0  0
   36.5060   29.9130   35.5560 F   0  0  0  0  0  0  0  0  0  0  0  0
   35.7730   30.8400   33.6050 F   0  0  0  0  0  0  0  0  0  0  0  0
   34.4050   29.6910   34.9280 F   0  0  0  0  0  0  0  0  0  0  0  0
  1  6  1  0  0  0  0
  1 11  1  0  0  0  0
  2  1  2  0  0  0  0
  3  4  2  0  0  0  0
  3  2  1  0  0  0  0
  4  5  1  0  0  0  0
  5  6  2  0  0  0  0
  5 21  1  0  0  0  0
  7  2  1  0  0  0  0
  8  3  1  0  0  0  0
  9 14  1  0  0  0  0
 10 11  1  0  0  0  0
 10  9  2  0  0  0  0
 11 12  2  0  0  0  0
 12 13  1  0  0  0  0
 13 17  1  0  0  0  0
 14 13  2  0  0  0  0
 15  9  1  0  0  0  0
 16 10  1  0  0  0  0
 17 19  1  0  0  0  0
 17 18  1  0  0  0  0
 20 17  1  0  0  0  0
 21 24  1  0  0  0  0
 21 22  1  0  0  0  0
 23 21  1  0  0  0  0
M  END
>  <minimizedAffinity>
-5.36821985

$$$$

 OpenBabel03272502243D

 24 25  0  0  0  0  0  0  0  0999 V2000
   38.1260   25.7400   34.4720 C   0  0  0  0  0  0  0  0  0  0  0  0
   39.3250   25.3050   33.9450 C   0  0  0  0  0  0  0  0  0  0  0  0
   40.1750   24.4450   34.6350 C   0  0  0  0  0  0  0  0  0  0  0  0
   39.8290   24.0160   35.8570 N   0  0  0  0  0  0  0  0  0  0  0  0
   38.6620   24.4470   36.3540 C   0  0  0  0  0  0  0  0  0  0  0  0
   37.8470   25.2690   35.6980 N   0  0  0  0  0  0  0  0  0  0  0  0
   39.6150   25.6450   32.9580 H   0  0  0  0  0  0  0  0  0  0  0  0
   41.1140   24.1380   34.1580 H   0  0  0  0  0  0  0  0  0  0  0  0
   35.9260   27.3430   31.8770 C   0  0  0  0  0  0  0  0  0  0  0  0
   36.7700   26.3990   32.4550 C   0  0  0  0  0  0  0  0  0  0  0  0
   37.2350   26.6400   33.7430 C   0  0  0  0  0  0  0  0  0  0  0  0
   36.8410   27.7680   34.3530 N   0  0  0  0  0  0  0  0  0  0  0  0
   36.0240   28.6790   33.7930 C   0  0  0  0  0  0  0  0  0  0  0  0
   35.5680   28.4480   32.5340 N   0  0  0  0  0  0  0  0  0  0  0  0
   35.5720   27.1400   30.8680 H   0  0  0  0  0  0  0  0  0  0  0  0
   37.0950   25.4900   31.9810 H   0  0  0  0  0  0  0  0  0  0  0  0
   35.6290   29.9150   34.5370 C   0  0  0  0  0  0  0  0  0  0  0  0
   36.4660   30.0660   35.6070 F   0  0  0  0  0  0  0  0  0  0  0  0
   34.3310   29.7610   34.9860 F   0  0  0  0  0  0  0  0  0  0  0  0
   35.6610   31.0290   33.6990 F   0  0  0  0  0  0  0  0  0  0  0  0
   38.2500   23.9830   37.7150 C   0  0  0  0  0  0  0  0  0  0  0  0
   37.1290   23.1970   37.5830 F   0  0  0  0  0  0  0  0  0  0  0  0
   39.2920   23.2500   38.3050 F   0  0  0  0  0  0  0  0  0  0  0  0
   37.9480   25.0040   38.5430 F   0  0  0  0  0  0  0  0  0  0  0  0
  1  6  1  0  0  0  0
  2  1  2  0  0  0  0
  2  3  1  0  0  0  0
  3  4  2  0  0  0  0
  4  5  1  0  0  0  0
  5 21  1  0  0  0  0
  6  5  2  0  0  0  0
  7  2  1  0  0  0  0
  8  3  1  0  0  0  0
  9 10  2  0  0  0  0
  9 14  1  0  0  0  0
 10 11  1  0  0  0  0
 11 12  2  0  0  0  0
 11  1  1  0  0  0  0
 13 12  1  0  0  0  0
 13 17  1  0  0  0  0
 14 13  2  0  0  0  0
 15  9  1  0  0  0  0
 16 10  1  0  0  0  0
 17 19  1  0  0  0  0
 17 18  1  0  0  0  0
 20 17  1  0  0  0  0
 21 23  1  0  0  0  0
 21 24  1  0  0  0  0
 22 21  1  0  0  0  0
M  END
>  <minimizedAffinity>
-5.32494164

$$$$
