REMARK  Name = 
REMARK  2 active torsions:
REMARK  status: ('A' for Active; 'I' for Inactive)
REMARK    1  A    between atoms: C_1  and  C_15
REMARK    2  A    between atoms: C_20  and  C_36
REMARK                            x       y       z     vdW  Elec       q    Type
REMARK                         _______ _______ _______ _____ _____    ______ ____
ROOT
ATOM      1  C   UNL     1      35.450  30.370  49.806  0.00  0.00    +0.000 C 
ATOM      2  C   UNL     1      36.453  31.137  48.981  0.00  0.00    +0.000 C 
ATOM      3  C   UNL     1      37.849  30.667  49.175  0.00  0.00    +0.000 C 
ATOM      4  C   UNL     1      38.281  30.633  50.599  0.00  0.00    +0.000 C 
ATOM      5  C   UNL     1      37.275  30.063  51.514  0.00  0.00    +0.000 C 
ATOM      6  C   UNL     1      36.029  29.496  50.833  0.00  0.00    +0.000 C 
ATOM      7  H   UNL     1      34.712  31.077  50.289  0.00  0.00    +0.000 HD
ATOM      8  H   UNL     1      36.421  32.202  49.356  0.00  0.00    +0.000 HD
ATOM      9  H   UNL     1      36.226  31.206  47.916  0.00  0.00    +0.000 HD
ATOM     10  H   UNL     1      37.893  29.628  48.731  0.00  0.00    +0.000 HD
ATOM     11  H   UNL     1      38.508  31.336  48.589  0.00  0.00    +0.000 HD
ATOM     12  H   UNL     1      39.262  30.076  50.633  0.00  0.00    +0.000 HD
ATOM     13  H   UNL     1      38.548  31.686  50.900  0.00  0.00    +0.000 HD
ATOM     14  H   UNL     1      36.944  30.798  52.299  0.00  0.00    +0.000 HD
ATOM     15  H   UNL     1      37.719  29.196  52.067  0.00  0.00    +0.000 HD
ATOM     16  H   UNL     1      36.303  28.517  50.410  0.00  0.00    +0.000 HD
ENDROOT
BRANCH   1  17
ATOM     17  C   UNL     1      34.600  29.519  48.897  0.00  0.00    +0.000 A 
ATOM     18  C   UNL     1      34.110  30.161  47.760  0.00  0.00    +0.000 A 
ATOM     19  C   UNL     1      33.305  29.417  46.891  0.00  0.00    +0.000 A 
ATOM     20  N   UNL     1      33.043  28.094  47.209  0.00  0.00    +0.000 NA
ATOM     21  C   UNL     1      33.546  27.512  48.335  0.00  0.00    +0.000 A 
ATOM     22  N   UNL     1      34.306  28.222  49.149  0.00  0.00    +0.000 NA
ATOM     23  N   UNL     1      32.770  29.975  45.710  0.00  0.00    +0.000 N 
ATOM     24  C   UNL     1      33.571  30.490  44.727  0.00  0.00    +0.000 A 
ATOM     25  C   UNL     1      33.022  31.028  43.585  0.00  0.00    +0.000 A 
ATOM     26  C   UNL     1      31.658  31.032  43.461  0.00  0.00    +0.000 A 
ATOM     27  O   UNL     1      31.157  31.526  42.411  0.00  0.00    +0.000 OA
ATOM     28  N   UNL     1      30.869  30.524  44.429  0.00  0.00    +0.000 N 
ATOM     29  C   UNL     1      31.455  30.009  45.528  0.00  0.00    +0.000 A 
ATOM     30  O   UNL     1      30.624  29.558  46.376  0.00  0.00    +0.000 OA
ATOM     31  H   UNL     1      34.265  31.181  47.448  0.00  0.00    +0.000 HD
ATOM     32  H   UNL     1      33.298  26.468  48.521  0.00  0.00    +0.000 HD
ATOM     33  H   UNL     1      34.649  30.445  44.912  0.00  0.00    +0.000 HD
ATOM     34  H   UNL     1      33.714  31.418  42.848  0.00  0.00    +0.000 HD
ATOM     35  H   UNL     1      29.840  30.559  44.270  0.00  0.00    +0.000 HD
ENDBRANCH   1  17
BRANCH   6  36
ATOM     36  C   UNL     1      35.042  29.240  51.967  0.00  0.00    +0.000 C 
ATOM     37  F   UNL     1      34.219  30.349  52.089  0.00  0.00    +0.000 F 
ATOM     38  F   UNL     1      34.177  28.197  51.617  0.00  0.00    +0.000 F 
ATOM     39  F   UNL     1      35.630  29.005  53.171  0.00  0.00    +0.000 F 
ENDBRANCH   6  36
TORSDOF 2
