
 OpenBabel03272506203D

 39 41  0  0  1  0  0  0  0  0999 V2000
   35.4470   30.3270   47.6760 C   0  0  2  0  0  0  0  0  0  0  0  0
   36.0610   30.6200   46.3290 C   0  0  0  0  0  0  0  0  0  0  0  0
   37.4790   30.1880   46.2280 C   0  0  0  0  0  0  0  0  0  0  0  0
   38.3500   30.7210   47.3110 C   0  0  0  0  0  0  0  0  0  0  0  0
   37.7460   30.6450   48.6540 C   0  0  0  0  0  0  0  0  0  0  0  0
   36.3990   29.9240   48.7170 C   0  0  1  0  0  0  0  0  0  0  0  0
   34.8490   31.2150   48.0390 H   0  0  0  0  0  0  0  0  0  0  0  0
   36.0620   31.7450   46.2220 H   0  0  0  0  0  0  0  0  0  0  0  0
   35.4960   30.2550   45.4700 H   0  0  0  0  0  0  0  0  0  0  0  0
   37.4640   29.0580   46.2620 H   0  0  0  0  0  0  0  0  0  0  0  0
   37.8530   30.5130   45.2380 H   0  0  0  0  0  0  0  0  0  0  0  0
   39.3320   30.1700   47.2450 H   0  0  0  0  0  0  0  0  0  0  0  0
   38.6100   31.7860   47.0470 H   0  0  0  0  0  0  0  0  0  0  0  0
   37.6270   31.6580   49.1290 H   0  0  0  0  0  0  0  0  0  0  0  0
   38.4170   30.0600   49.3340 H   0  0  0  0  0  0  0  0  0  0  0  0
   36.6030   28.8430   48.6690 H   0  0  0  0  0  0  0  0  0  0  0  0
   34.4240   29.2300   47.5320 C   0  0  0  0  0  0  0  0  0  0  0  0
   33.1800   29.6310   47.0440 C   0  0  0  0  0  0  0  0  0  0  0  0
   32.1920   28.6510   46.9050 C   0  0  0  0  0  0  0  0  0  0  0  0
   32.5040   27.3470   47.2570 N   0  0  0  0  0  0  0  0  0  0  0  0
   33.7370   27.0060   47.7300 C   0  0  0  0  0  0  0  0  0  0  0  0
   34.6640   27.9380   47.8580 N   0  0  0  0  0  0  0  0  0  0  0  0
   30.9050   28.9560   46.4110 N   0  0  0  0  0  0  0  0  0  0  0  0
   30.7180   29.4990   45.1690 C   0  0  0  0  0  0  0  0  0  0  0  0
   29.4510   29.7860   44.7120 C   0  0  0  0  0  0  0  0  0  0  0  0
   28.3890   29.5130   45.5330 C   0  0  0  0  0  0  0  0  0  0  0  0
   27.2270   29.7780   45.1110 O   0  0  0  0  0  0  0  0  0  0  0  0
   28.5730   28.9780   46.7560 N   0  0  0  0  0  0  0  0  0  0  0  0
   29.8330   28.7150   47.1570 C   0  0  0  0  0  0  0  0  0  0  0  0
   29.8950   28.2130   48.3220 O   0  0  0  0  0  0  0  0  0  0  0  0
   32.8610   30.6190   46.7550 H   0  0  0  0  0  0  0  0  0  0  0  0
   33.9110   25.9630   47.9880 H   0  0  0  0  0  0  0  0  0  0  0  0
   31.6240   29.6840   44.5830 H   0  0  0  0  0  0  0  0  0  0  0  0
   29.3760   30.2150   43.7200 H   0  0  0  0  0  0  0  0  0  0  0  0
   27.7220   28.7950   47.3280 H   0  0  0  0  0  0  0  0  0  0  0  0
   35.8580   30.2220   50.1120 C   0  0  0  0  0  0  0  0  0  0  0  0
   36.8140   30.9480   50.8070 F   0  0  0  0  0  0  0  0  0  0  0  0
   34.7600   31.0870   50.0200 F   0  0  0  0  0  0  0  0  0  0  0  0
   35.5480   29.1140   50.8350 F   0  0  0  0  0  0  0  0  0  0  0  0
  1  7  1  1  0  0  0
  1  6  1  0  0  0  0
  2  1  1  0  0  0  0
  3 10  1  0  0  0  0
  3  2  1  0  0  0  0
  3  4  1  0  0  0  0
  4  5  1  0  0  0  0
  5  6  1  0  0  0  0
  5 14  1  0  0  0  0
  5 15  1  0  0  0  0
  6 16  1  6  0  0  0
  6 36  1  0  0  0  0
  8  2  1  0  0  0  0
  9  2  1  0  0  0  0
 11  3  1  0  0  0  0
 12  4  1  0  0  0  0
 13  4  1  0  0  0  0
 17  1  1  0  0  0  0
 17 22  1  0  0  0  0
 18 17  2  0  0  0  0
 19 18  1  0  0  0  0
 19 20  2  0  0  0  0
 20 21  1  0  0  0  0
 21 22  2  0  0  0  0
 21 32  1  0  0  0  0
 23 19  1  0  0  0  0
 23 29  1  0  0  0  0
 24 23  1  0  0  0  0
 25 24  2  0  0  0  0
 25 26  1  0  0  0  0
 26 28  1  0  0  0  0
 27 26  2  0  0  0  0
 28 29  1  0  0  0  0
 28 35  1  0  0  0  0
 29 30  2  0  0  0  0
 31 18  1  0  0  0  0
 33 24  1  0  0  0  0
 34 25  1  0  0  0  0
 36 37  1  0  0  0  0
 36 39  1  0  0  0  0
 38 36  1  0  0  0  0
M  END
>  <minimizedAffinity>
-5.67932272

>  <minimizedRMSD>
2.7340939

$$$$
