
 OpenBabel03272508213D

 38 40  0  0  0  0  0  0  0  0999 V2000
   33.1820   28.2110   49.1100 C   0  0  0  0  0  0  0  0  0  0  0  0
   32.7410   29.1680   49.4570 H   0  0  0  0  0  0  0  0  0  0  0  0
   33.2600   27.6080   50.0660 H   0  0  0  0  0  0  0  0  0  0  0  0
   30.9540   27.3260   48.5810 C   0  0  0  0  0  0  0  0  0  0  0  0
   32.2700   27.5160   48.2590 C   0  0  0  0  0  0  0  0  0  0  0  0
   32.6250   26.9240   47.0920 C   0  0  0  0  0  0  0  0  0  0  0  0
   31.7900   26.2230   46.3270 N   0  0  0  0  0  0  0  0  0  0  0  0
   30.5190   26.0370   46.6420 C   0  0  0  0  0  0  0  0  0  0  0  0
   30.0850   26.5860   47.7740 N   0  0  0  0  0  0  0  0  0  0  0  0
   33.6540   26.9920   46.7000 H   0  0  0  0  0  0  0  0  0  0  0  0
   29.8960   25.4590   45.9830 H   0  0  0  0  0  0  0  0  0  0  0  0
   30.3220   28.0530   49.7670 C   0  0  0  0  0  0  0  0  0  0  0  0
   28.9790   28.3880   49.8240 C   0  0  0  0  0  0  0  0  0  0  0  0
   29.3000   27.0240   50.4130 C   0  0  0  0  0  0  0  0  0  0  0  0
   30.9620   28.4320   50.5210 H   0  0  0  0  0  0  0  0  0  0  0  0
   28.5440   29.1560   50.4730 H   0  0  0  0  0  0  0  0  0  0  0  0
   28.3680   28.3200   48.8720 H   0  0  0  0  0  0  0  0  0  0  0  0
   29.4160   26.9340   51.4980 H   0  0  0  0  0  0  0  0  0  0  0  0
   29.0210   26.1480   49.8530 H   0  0  0  0  0  0  0  0  0  0  0  0
   34.5670   28.3880   48.6140 C   0  0  0  0  0  0  0  0  0  0  0  0
   35.0500   27.4200   48.3430 H   0  0  0  0  0  0  0  0  0  0  0  0
   34.4820   28.9180   47.6190 H   0  0  0  0  0  0  0  0  0  0  0  0
   35.5200   30.8010   47.6330 F   0  0  0  0  0  0  0  0  0  0  0  0
   35.8960   30.3350   48.8550 C   0  0  0  0  0  0  0  0  0  0  0  0
   35.4630   29.1340   49.4330 C   0  0  0  0  0  0  0  0  0  0  0  0
   35.9640   28.8420   50.6540 C   0  0  0  0  0  0  0  0  0  0  0  0
   36.8340   29.6370   51.3230 C   0  0  0  0  0  0  0  0  0  0  0  0
   37.2680   30.8430   50.7460 C   0  0  0  0  0  0  0  0  0  0  0  0
   36.7780   31.1670   49.4940 C   0  0  0  0  0  0  0  0  0  0  0  0
   35.8170   27.9620   51.2050 H   0  0  0  0  0  0  0  0  0  0  0  0
   37.2800   29.4730   52.3170 H   0  0  0  0  0  0  0  0  0  0  0  0
   37.9750   31.5170   51.2590 H   0  0  0  0  0  0  0  0  0  0  0  0
   37.2590   32.3720   48.9590 O   0  0  0  0  0  0  0  0  0  0  0  0
   38.5170   32.2520   48.3550 C   0  0  0  0  0  0  0  0  0  0  0  0
   39.2170   33.3110   48.5070 O   0  0  0  0  0  0  0  0  0  0  0  0
   39.1610   31.2330   47.6320 N   0  0  0  0  0  0  0  0  0  0  0  0
   39.6300   31.4820   46.7340 H   0  0  0  0  0  0  0  0  0  0  0  0
   38.9710   30.4080   48.2690 H   0  0  0  0  0  0  0  0  0  0  0  0
  1  2  1  0  0  0  0
  1  3  1  0  0  0  0
  4 12  1  0  0  0  0
  5  4  1  0  0  0  0
  5  1  1  0  0  0  0
  6  5  2  0  0  0  0
  7  8  2  0  0  0  0
  7  6  1  0  0  0  0
  8  9  1  0  0  0  0
  9  4  2  0  0  0  0
 10  6  1  0  0  0  0
 11  8  1  0  0  0  0
 12 13  1  0  0  0  0
 12 14  1  0  0  0  0
 12 15  1  0  0  0  0
 13 14  1  0  0  0  0
 13 16  1  0  0  0  0
 14 18  1  0  0  0  0
 17 13  1  0  0  0  0
 19 14  1  0  0  0  0
 20  1  1  0  0  0  0
 20 25  1  0  0  0  0
 21 20  1  0  0  0  0
 22 20  1  0  0  0  0
 23 24  1  0  0  0  0
 24 25  2  0  0  0  0
 24 29  1  0  0  0  0
 25 26  1  0  0  0  0
 26 30  1  0  0  0  0
 26 27  2  0  0  0  0
 27 31  1  0  0  0  0
 28 32  1  0  0  0  0
 28 27  1  0  0  0  0
 29 28  2  0  0  0  0
 33 29  1  0  0  0  0
 34 35  2  0  0  0  0
 34 33  1  0  0  0  0
 36 38  1  0  0  0  0
 36 34  1  0  0  0  0
 37 36  1  0  0  0  0
M  END
>  <minimizedAffinity>
-6.19883728

>  <minimizedRMSD>
4.57665491

$$$$
