
 OpenBabel03272502243D

 26 27  0  0  0  0  0  0  0  0999 V2000
   37.6140   30.3240   51.0340 C   0  0  0  0  0  0  0  0  0  0  0  0
   38.0660   30.9030   49.8370 C   0  0  0  0  0  0  0  0  0  0  0  0
   37.3950   30.5610   48.6580 C   0  0  0  0  0  0  0  0  0  0  0  0
   36.3660   29.7020   48.7530 N   0  0  0  0  0  0  0  0  0  0  0  0
   35.9500   29.1580   49.9170 C   0  0  0  0  0  0  0  0  0  0  0  0
   36.5880   29.4800   51.0680 N   0  0  0  0  0  0  0  0  0  0  0  0
   38.1530   30.6090   51.9270 H   0  0  0  0  0  0  0  0  0  0  0  0
   38.8900   31.5870   49.7840 H   0  0  0  0  0  0  0  0  0  0  0  0
   37.7570   31.0870   47.3600 C   0  0  0  0  0  0  0  0  0  0  0  0
   37.0120   30.7650   46.2290 C   0  0  0  0  0  0  0  0  0  0  0  0
   37.3260   31.2500   44.9720 C   0  0  0  0  0  0  0  0  0  0  0  0
   38.3990   32.0720   44.8320 N   0  0  0  0  0  0  0  0  0  0  0  0
   39.0910   32.3640   45.9230 C   0  0  0  0  0  0  0  0  0  0  0  0
   38.8070   31.9050   47.1590 N   0  0  0  0  0  0  0  0  0  0  0  0
   36.1440   30.1110   46.2870 H   0  0  0  0  0  0  0  0  0  0  0  0
   36.7570   31.0100   44.0800 H   0  0  0  0  0  0  0  0  0  0  0  0
   40.2650   33.2580   45.7950 C   0  0  0  0  0  0  0  0  0  0  0  0
   40.3890   33.9870   46.9900 F   0  0  0  0  0  0  0  0  0  0  0  0
   41.4210   32.5560   45.5570 F   0  0  0  0  0  0  0  0  0  0  0  0
   40.0970   34.2040   44.8100 F   0  0  0  0  0  0  0  0  0  0  0  0
   34.8710   28.2900   49.8350 O   0  0  0  0  0  0  0  0  0  0  0  0
   34.0300   28.4130   48.7340 C   0  0  0  0  0  0  0  0  0  0  0  0
   34.0780   27.1760   48.5910 O   0  0  0  0  0  0  0  0  0  0  0  0
   33.4450   29.5870   48.1510 N   0  0  0  0  0  0  0  0  0  0  0  0
   33.0780   29.3580   47.1940 H   0  0  0  0  0  0  0  0  0  0  0  0
   33.5410   30.3740   48.8470 H   0  0  0  0  0  0  0  0  0  0  0  0
  1  6  1  0  0  0  0
  1  7  1  0  0  0  0
  2  1  2  0  0  0  0
  3  4  2  0  0  0  0
  3  2  1  0  0  0  0
  4  5  1  0  0  0  0
  5  6  2  0  0  0  0
  8  2  1  0  0  0  0
  9  3  1  0  0  0  0
 10 15  1  0  0  0  0
 10  9  2  0  0  0  0
 11 10  1  0  0  0  0
 12 11  2  0  0  0  0
 12 13  1  0  0  0  0
 13 14  2  0  0  0  0
 14  9  1  0  0  0  0
 16 11  1  0  0  0  0
 17 13  1  0  0  0  0
 17 18  1  0  0  0  0
 19 17  1  0  0  0  0
 20 17  1  0  0  0  0
 21  5  1  0  0  0  0
 22 21  1  0  0  0  0
 23 22  2  0  0  0  0
 24 22  1  0  0  0  0
 24 26  1  0  0  0  0
 25 24  1  0  0  0  0
M  END
>  <minimizedAffinity>
-6.25855637

>  <minimizedRMSD>
0.716905177

$$$$
