
     RDKit          3D

 15 15  0  0  0  0  0  0  0  0999 V2000
   37.3300   30.2345   51.4194 C   0  0  0  0  0  0  0  0  0  0  0  0
   38.0735   30.7329   50.3454 C   0  0  0  0  0  0  0  0  0  0  0  0
   37.7004   30.3749   49.0458 C   0  0  0  0  0  0  0  0  0  0  0  0
   36.6215   29.5514   48.8974 N   0  0  0  0  0  0  0  0  0  0  0  0
   35.9236   29.0864   49.9545 C   0  0  0  0  0  0  0  0  0  0  0  0
   36.2784   29.4288   51.2227 N   0  0  0  0  0  0  0  0  0  0  0  0
   34.8647   28.2661   49.6038 O   0  0  0  0  0  0  0  0  0  0  0  0
   37.6157   30.5100   52.4384 H   0  0  0  0  0  0  0  0  0  0  0  0
   38.9136   31.3773   50.5130 H   0  0  0  0  0  0  0  0  0  0  0  0
   38.2420   30.7326   48.1704 H   0  0  0  0  0  0  0  0  0  0  0  0
   33.5873   28.8054   49.3655 C   0  0  0  0  0  0  0  0  0  0  0  0
   32.4959   28.1424   49.3040 O   0  0  0  0  0  0  0  0  0  0  0  0
   33.4108   30.2034   49.1654 N   0  0  0  0  0  0  0  0  0  0  0  0
   33.9963   30.4244   48.3139 H   0  0  0  0  0  0  0  0  0  0  0  0
   32.8997   31.0028   49.5994 H   0  0  0  0  0  0  0  0  0  0  0  0
  2  1  2  0
  3  2  1  0
  4  3  2  0
  4  5  1  0
  5  6  2  0
  6  1  1  0
  7  5  1  0
  1  8  1  0
  2  9  1  0
  3 10  1  0
 11 12  2  0
 11 13  1  0
 13 14  1  0
 13 15  1  0
  7 11  1  0
M  ISO  4   8  14   9  14  10  14  14   5
M  END
>  <DihAtoms>  (1) 
4,6,10,11

>  <DihDeg>  (1) 
-0.0005133604240894616

$$$$
