
 OpenBabel03272507153D

 22 23  0  0  1  0  0  0  0  0999 V2000
   36.7430   30.7670   50.7230 C   0  0  1  0  0  0  0  0  0  0  0  0
   36.0170   29.5210   50.8410 C   0  0  2  0  0  0  0  0  0  0  0  0
   37.4710   29.5340   51.2660 C   0  0  0  0  0  0  0  0  0  0  0  0
   36.6630   31.5950   51.4920 H   0  0  0  0  0  0  0  0  0  0  0  0
   35.2290   29.4800   51.6310 H   0  0  0  0  0  0  0  0  0  0  0  0
   37.6130   29.4650   52.3580 H   0  0  0  0  0  0  0  0  0  0  0  0
   38.1930   29.0150   50.6080 H   0  0  0  0  0  0  0  0  0  0  0  0
   37.3110   31.2170   49.4000 C   0  0  0  0  0  0  0  0  0  0  0  0
   38.3170   32.1810   49.4590 C   0  0  0  0  0  0  0  0  0  0  0  0
   38.8080   32.5980   48.2140 C   0  0  0  0  0  0  0  0  0  0  0  0
   38.3130   32.0770   47.0560 N   0  0  0  0  0  0  0  0  0  0  0  0
   37.3310   31.1400   47.0550 C   0  0  0  0  0  0  0  0  0  0  0  0
   36.8220   30.7030   48.2450 N   0  0  0  0  0  0  0  0  0  0  0  0
   38.6780   32.5640   50.4020 H   0  0  0  0  0  0  0  0  0  0  0  0
   39.5920   33.3460   48.2040 H   0  0  0  0  0  0  0  0  0  0  0  0
   36.9220   30.7130   46.1510 H   0  0  0  0  0  0  0  0  0  0  0  0
   35.7270   28.7840   49.6810 O   0  0  0  0  0  0  0  0  0  0  0  0
   34.4350   28.4070   49.3180 C   0  0  0  0  0  0  0  0  0  0  0  0
   34.3020   27.4130   48.5560 O   0  0  0  0  0  0  0  0  0  0  0  0
   33.4400   29.2290   49.8820 N   0  0  0  0  0  0  0  0  0  0  0  0
   32.5500   29.3410   50.3980 H   0  0  0  0  0  0  0  0  0  0  0  0
   33.5140   30.2880   49.8180 H   0  0  0  0  0  0  0  0  0  0  0  0
  1  2  1  0  0  0  0
  1  3  1  0  0  0  0
  1  4  1  1  0  0  0
  2  3  1  0  0  0  0
  2  5  1  1  0  0  0
  3  6  1  0  0  0  0
  7  3  1  0  0  0  0
  8  9  1  0  0  0  0
  8  1  1  0  0  0  0
  9 14  1  0  0  0  0
 10  9  2  0  0  0  0
 11 10  1  0  0  0  0
 12 11  2  0  0  0  0
 12 13  1  0  0  0  0
 13  8  2  0  0  0  0
 15 10  1  0  0  0  0
 16 12  1  0  0  0  0
 17  2  1  0  0  0  0
 18 17  1  0  0  0  0
 18 20  1  0  0  0  0
 19 18  2  0  0  0  0
 20 21  1  0  0  0  0
 22 20  1  0  0  0  0
M  END
>  <minimizedAffinity>
-4.69403505

>  <minimizedRMSD>
0.946291387

$$$$
