
 OpenBabel03262521013D

 33 34  0  0  1  0  0  0  0  0999 V2000
   39.6020   32.9030   46.2520 N   0  0  0  0  0  0  0  0  0  0  0  0
   38.2790   32.3880   46.0740 C   0  0  1  0  0  0  0  0  0  0  0  0
   37.9220   32.3840   44.6140 C   0  0  0  0  0  0  0  0  0  0  0  0
   38.9030   31.5460   43.9290 N   0  0  0  0  0  0  0  0  0  0  0  0
   40.1550   32.3240   43.9930 C   0  0  0  0  0  0  0  0  0  0  0  0
   40.5960   32.2660   45.4540 C   0  0  2  0  0  0  0  0  0  0  0  0
   39.8770   33.1360   47.2080 H   0  0  0  0  0  0  0  0  0  0  0  0
   37.5640   32.9950   46.6380 H   0  0  0  0  0  0  0  0  0  0  0  0
   37.9000   33.3890   44.1660 H   0  0  0  0  0  0  0  0  0  0  0  0
   36.9170   31.8940   44.5350 H   0  0  0  0  0  0  0  0  0  0  0  0
   39.0050   30.6470   44.4290 H   0  0  0  0  0  0  0  0  0  0  0  0
   39.9040   33.3620   43.7150 H   0  0  0  0  0  0  0  0  0  0  0  0
   40.9310   31.9010   43.3530 H   0  0  0  0  0  0  0  0  0  0  0  0
   41.5240   32.8750   45.5250 H   0  0  0  0  0  0  0  0  0  0  0  0
   40.8390   30.8840   45.8070 N   0  0  0  0  0  0  0  0  0  0  0  0
   40.9130   30.8340   46.8630 H   0  0  0  0  0  0  0  0  0  0  0  0
   41.8210   30.6640   45.4670 H   0  0  0  0  0  0  0  0  0  0  0  0
   38.1400   30.6440   46.6390 S   0  0  0  0  0  0  0  0  0  0  0  0
   35.9270   31.1680   49.9860 C   0  0  0  0  0  0  0  0  0  0  0  0
   36.9080   31.3540   49.0320 C   0  0  0  0  0  0  0  0  0  0  0  0
   36.9420   30.5280   47.9450 C   0  0  0  0  0  0  0  0  0  0  0  0
   35.9850   29.5300   47.8390 N   0  0  0  0  0  0  0  0  0  0  0  0
   35.0650   29.4060   48.7970 C   0  0  0  0  0  0  0  0  0  0  0  0
   35.0100   30.1990   49.8680 N   0  0  0  0  0  0  0  0  0  0  0  0
   35.8730   31.8090   50.8630 H   0  0  0  0  0  0  0  0  0  0  0  0
   37.6460   32.1320   49.1240 H   0  0  0  0  0  0  0  0  0  0  0  0
   34.0620   28.3450   48.6680 C   0  0  0  0  0  0  0  0  0  0  0  0
   34.2840   27.2410   48.1110 O   0  0  0  0  0  0  0  0  0  0  0  0
   30.6420   27.9360   49.2860 H   0  0  0  0  0  0  0  0  0  0  0  0
   31.6380   27.7600   48.8720 C   0  0  0  0  0  0  0  0  0  0  0  0
   31.7800   26.7990   48.0740 O   0  0  0  0  0  0  0  0  0  0  0  0
   32.7500   28.5670   49.2030 N   0  0  0  0  0  0  0  0  0  0  0  0
   32.6360   29.3730   49.8720 H   0  0  0  0  0  0  0  0  0  0  0  0
  1  7  1  0  0  0  0
  2  1  1  0  0  0  0
  2  8  1  1  0  0  0
  2 18  1  0  0  0  0
  3  2  1  0  0  0  0
  4  5  1  0  0  0  0
  4 11  1  0  0  0  0
  4  3  1  0  0  0  0
  5  6  1  0  0  0  0
  6 14  1  1  0  0  0
  6 15  1  0  0  0  0
  6  1  1  0  0  0  0
  9  3  1  0  0  0  0
 10  3  1  0  0  0  0
 12  5  1  0  0  0  0
 13  5  1  0  0  0  0
 15 16  1  0  0  0  0
 17 15  1  0  0  0  0
 18 21  1  0  0  0  0
 19 25  1  0  0  0  0
 20 26  1  0  0  0  0
 20 19  2  0  0  0  0
 21 20  1  0  0  0  0
 22 21  2  0  0  0  0
 22 23  1  0  0  0  0
 23 24  2  0  0  0  0
 24 19  1  0  0  0  0
 27 23  1  0  0  0  0
 27 32  1  0  0  0  0
 28 27  2  0  0  0  0
 30 32  1  0  0  0  0
 30 29  1  0  0  0  0
 31 30  2  0  0  0  0
 32 33  1  0  0  0  0
M  END
>  <minimizedAffinity>
-5.39834023

>  <minimizedRMSD>
1.54644287

$$$$
