
 OpenBabel03272508093D

 20 20  0  0  0  0  0  0  0  0999 V2000
   38.1910   25.3410   37.0070 O   0  0  0  0  0  0  0  0  0  0  0  0
   39.4790   27.0420   33.9790 C   0  0  0  0  0  0  0  0  0  0  0  0
   39.5640   26.4210   35.2270 C   0  0  0  0  0  0  0  0  0  0  0  0
   38.3800   25.9700   35.8110 C   0  0  0  0  0  0  0  0  0  0  0  0
   37.2110   26.1620   35.1290 N   0  0  0  0  0  0  0  0  0  0  0  0
   37.1800   26.7660   33.9240 C   0  0  0  0  0  0  0  0  0  0  0  0
   38.3080   27.1980   33.3660 N   0  0  0  0  0  0  0  0  0  0  0  0
   40.4310   27.3530   33.6100 H   0  0  0  0  0  0  0  0  0  0  0  0
   40.4240   26.2360   35.8180 H   0  0  0  0  0  0  0  0  0  0  0  0
   36.2440   26.9140   33.3890 H   0  0  0  0  0  0  0  0  0  0  0  0
   37.1560   22.8730   37.1080 O   0  0  0  0  0  0  0  0  0  0  0  0
   38.3770   23.7070   37.3750 P   0  0  2  0  0  0  0  0  0  0  0  0
   38.8650   23.5000   38.9790 O   0  0  0  0  0  0  0  0  0  0  0  0
   39.8480   23.4480   39.0690 H   0  0  0  0  0  0  0  0  0  0  0  0
   39.6240   23.0700   36.4170 O   0  0  0  0  0  0  0  0  0  0  0  0
   40.8390   22.6140   36.9210 C   0  0  0  0  0  0  0  0  0  0  0  0
   41.8650   23.2220   36.5140 O   0  0  0  0  0  0  0  0  0  0  0  0
   40.7940   21.5210   37.8330 N   0  0  0  0  0  0  0  0  0  0  0  0
   40.8990   22.0520   38.7460 H   0  0  0  0  0  0  0  0  0  0  0  0
   40.8170   21.1380   38.7820 H   0  0  0  0  0  0  0  0  0  0  0  0
  1 12  1  0  0  0  0
  2  3  1  0  0  0  0
  3  4  2  0  0  0  0
  3  9  1  0  0  0  0
  4  1  1  0  0  0  0
  5  4  1  0  0  0  0
  6  5  2  0  0  0  0
  7  6  1  0  0  0  0
  7  2  2  0  0  0  0
  8  2  1  0  0  0  0
 10  6  1  0  0  0  0
 12 11  2  6  0  0  0
 12 13  1  0  0  0  0
 13 14  1  0  0  0  0
 15 16  1  0  0  0  0
 15 12  1  0  0  0  0
 16 18  1  0  0  0  0
 17 16  2  0  0  0  0
 18 19  1  0  0  0  0
 18 20  1  0  0  0  0
M  END
>  <minimizedAffinity>
-4.19090128

$$$$

 OpenBabel03272508093D

 20 20  0  0  0  0  0  0  0  0999 V2000
   39.0090   24.5650   36.3950 O   0  0  0  0  0  0  0  0  0  0  0  0
   37.6140   27.7490   35.1150 C   0  0  0  0  0  0  0  0  0  0  0  0
   38.2660   26.9170   36.0280 C   0  0  0  0  0  0  0  0  0  0  0  0
   38.4190   25.5720   35.6890 C   0  0  0  0  0  0  0  0  0  0  0  0
   37.9230   25.1500   34.4880 N   0  0  0  0  0  0  0  0  0  0  0  0
   37.3000   25.9920   33.6380 C   0  0  0  0  0  0  0  0  0  0  0  0
   37.1530   27.2750   33.9600 N   0  0  0  0  0  0  0  0  0  0  0  0
   37.5440   28.7570   35.4580 H   0  0  0  0  0  0  0  0  0  0  0  0
   38.6770   27.1640   36.9740 H   0  0  0  0  0  0  0  0  0  0  0  0
   36.9090   25.6460   32.6840 H   0  0  0  0  0  0  0  0  0  0  0  0
   37.7960   24.3840   38.7760 O   0  0  0  0  0  0  0  0  0  0  0  0
   38.3460   23.6080   37.6140 P   0  0  2  0  0  0  0  0  0  0  0  0
   39.4680   22.4740   38.1700 O   0  0  0  0  0  0  0  0  0  0  0  0
   39.3940   21.6090   37.6970 H   0  0  0  0  0  0  0  0  0  0  0  0
   37.0560   22.7150   36.9660 O   0  0  0  0  0  0  0  0  0  0  0  0
   37.1670   21.8720   35.8640 C   0  0  0  0  0  0  0  0  0  0  0  0
   36.1870   21.1080   35.6560 O   0  0  0  0  0  0  0  0  0  0  0  0
   38.3640   21.9610   35.0980 N   0  0  0  0  0  0  0  0  0  0  0  0
   38.0110   22.5560   34.2920 H   0  0  0  0  0  0  0  0  0  0  0  0
   38.8900   22.2880   34.2830 H   0  0  0  0  0  0  0  0  0  0  0  0
  1 12  1  0  0  0  0
  2  8  1  0  0  0  0
  2  3  1  0  0  0  0
  3  9  1  0  0  0  0
  4  3  2  0  0  0  0
  4  1  1  0  0  0  0
  5  4  1  0  0  0  0
  6  7  1  0  0  0  0
  6  5  2  0  0  0  0
  7  2  2  0  0  0  0
 10  6  1  0  0  0  0
 12 13  1  0  0  0  0
 12 11  2  1  0  0  0
 14 13  1  0  0  0  0
 15 12  1  0  0  0  0
 16 15  1  0  0  0  0
 17 16  2  0  0  0  0
 18 16  1  0  0  0  0
 19 18  1  0  0  0  0
 20 18  1  0  0  0  0
M  END
>  <minimizedAffinity>
-4.11658382

$$$$

 OpenBabel03272508093D

 20 20  0  0  0  0  0  0  0  0999 V2000
   37.8420   25.3550   35.4320 O   0  0  0  0  0  0  0  0  0  0  0  0
   38.7250   23.3720   38.4330 C   0  0  0  0  0  0  0  0  0  0  0  0
   37.9800   24.2800   37.6780 C   0  0  0  0  0  0  0  0  0  0  0  0
   38.3880   24.5240   36.3660 C   0  0  0  0  0  0  0  0  0  0  0  0
   39.4900   23.8630   35.9010 N   0  0  0  0  0  0  0  0  0  0  0  0
   40.1780   22.9950   36.6690 C   0  0  0  0  0  0  0  0  0  0  0  0
   39.7900   22.7600   37.9210 N   0  0  0  0  0  0  0  0  0  0  0  0
   38.3400   23.2480   39.4210 H   0  0  0  0  0  0  0  0  0  0  0  0
   37.1200   24.8300   37.9620 H   0  0  0  0  0  0  0  0  0  0  0  0
   41.0540   22.4730   36.2900 H   0  0  0  0  0  0  0  0  0  0  0  0
   39.5220   26.9120   34.0430 O   0  0  0  0  0  0  0  0  0  0  0  0
   38.3440   26.8970   34.9760 P   0  0  2  0  0  0  0  0  0  0  0  0
   38.6840   27.8470   36.3310 O   0  0  0  0  0  0  0  0  0  0  0  0
   37.9050   28.3810   36.6220 H   0  0  0  0  0  0  0  0  0  0  0  0
   37.0690   27.6710   34.1670 O   0  0  0  0  0  0  0  0  0  0  0  0
   36.5710   27.2690   32.9310 C   0  0  0  0  0  0  0  0  0  0  0  0
   35.8450   28.1060   32.3320 O   0  0  0  0  0  0  0  0  0  0  0  0
   36.9310   25.9660   32.4800 N   0  0  0  0  0  0  0  0  0  0  0  0
   37.7080   26.2250   31.8030 H   0  0  0  0  0  0  0  0  0  0  0  0
   37.4980   25.3370   31.9060 H   0  0  0  0  0  0  0  0  0  0  0  0
  1  4  1  0  0  0  0
  2  8  1  0  0  0  0
  3  9  1  0  0  0  0
  3  2  2  0  0  0  0
  4  3  1  0  0  0  0
  5  4  2  0  0  0  0
  5  6  1  0  0  0  0
  6  7  2  0  0  0  0
  7  2  1  0  0  0  0
 10  6  1  0  0  0  0
 12 11  2  6  0  0  0
 12  1  1  0  0  0  0
 12 13  1  0  0  0  0
 13 14  1  0  0  0  0
 15 12  1  0  0  0  0
 16 15  1  0  0  0  0
 17 16  2  0  0  0  0
 18 16  1  0  0  0  0
 19 18  1  0  0  0  0
 20 18  1  0  0  0  0
M  END
>  <minimizedAffinity>
-4.06264544

$$$$

 OpenBabel03272508093D

 20 20  0  0  0  0  0  0  0  0999 V2000
   38.8050   23.3130   34.2930 O   0  0  0  0  0  0  0  0  0  0  0  0
   36.2710   24.1490   31.7240 C   0  0  0  0  0  0  0  0  0  0  0  0
   37.3290   24.3980   32.6010 C   0  0  0  0  0  0  0  0  0  0  0  0
   37.7980   23.3350   33.3730 C   0  0  0  0  0  0  0  0  0  0  0  0
   37.1960   22.1170   33.2250 N   0  0  0  0  0  0  0  0  0  0  0  0
   36.1770   21.9250   32.3630 C   0  0  0  0  0  0  0  0  0  0  0  0
   35.7280   22.9380   31.6260 N   0  0  0  0  0  0  0  0  0  0  0  0
   35.9800   25.0180   31.1760 H   0  0  0  0  0  0  0  0  0  0  0  0
   37.8470   25.3070   32.7740 H   0  0  0  0  0  0  0  0  0  0  0  0
   35.7040   20.9520   32.2530 H   0  0  0  0  0  0  0  0  0  0  0  0
   40.0190   21.9910   36.2810 O   0  0  0  0  0  0  0  0  0  0  0  0
   38.7730   22.7220   35.8710 P   0  0  2  0  0  0  0  0  0  0  0  0
   37.4270   21.7300   36.1160 O   0  0  0  0  0  0  0  0  0  0  0  0
   36.6530   22.2280   36.4780 H   0  0  0  0  0  0  0  0  0  0  0  0
   38.5960   24.0280   36.9400 O   0  0  0  0  0  0  0  0  0  0  0  0
   38.3450   23.8910   38.3020 C   0  0  0  0  0  0  0  0  0  0  0  0
   37.9250   24.9240   38.8900 O   0  0  0  0  0  0  0  0  0  0  0  0
   38.5870   22.6130   38.8820 N   0  0  0  0  0  0  0  0  0  0  0  0
   37.5910   22.2460   38.9150 H   0  0  0  0  0  0  0  0  0  0  0  0
   38.2640   21.7070   39.2310 H   0  0  0  0  0  0  0  0  0  0  0  0
  1 12  1  0  0  0  0
  2  3  1  0  0  0  0
  3  9  1  0  0  0  0
  3  4  2  0  0  0  0
  4  1  1  0  0  0  0
  5  4  1  0  0  0  0
  6  5  2  0  0  0  0
  7  2  2  0  0  0  0
  7  6  1  0  0  0  0
  8  2  1  0  0  0  0
 10  6  1  0  0  0  0
 12 13  1  0  0  0  0
 12 11  2  1  0  0  0
 12 15  1  0  0  0  0
 13 14  1  0  0  0  0
 15 16  1  0  0  0  0
 16 18  1  0  0  0  0
 16 17  2  0  0  0  0
 18 19  1  0  0  0  0
 18 20  1  0  0  0  0
M  END
>  <minimizedAffinity>
-4.04962587

$$$$

 OpenBabel03272508093D

 20 20  0  0  0  0  0  0  0  0999 V2000
   38.5980   23.7460   34.0270 O   0  0  0  0  0  0  0  0  0  0  0  0
   36.1530   24.5010   31.3490 C   0  0  0  0  0  0  0  0  0  0  0  0
   37.0050   23.6970   32.1090 C   0  0  0  0  0  0  0  0  0  0  0  0
   37.7130   24.3000   33.1490 C   0  0  0  0  0  0  0  0  0  0  0  0
   37.5310   25.6380   33.3610 N   0  0  0  0  0  0  0  0  0  0  0  0
   36.6960   26.3730   32.5990 C   0  0  0  0  0  0  0  0  0  0  0  0
   36.0200   25.8000   31.6070 N   0  0  0  0  0  0  0  0  0  0  0  0
   35.6550   23.9550   30.5780 H   0  0  0  0  0  0  0  0  0  0  0  0
   37.2010   22.6590   32.0090 H   0  0  0  0  0  0  0  0  0  0  0  0
   36.5580   27.4380   32.7760 H   0  0  0  0  0  0  0  0  0  0  0  0
   37.5520   22.2120   35.9570 O   0  0  0  0  0  0  0  0  0  0  0  0
   38.3870   23.4260   35.6680 P   0  0  2  0  0  0  0  0  0  0  0  0
   37.7340   24.7650   36.4650 O   0  0  0  0  0  0  0  0  0  0  0  0
   38.4320   25.3500   36.8520 H   0  0  0  0  0  0  0  0  0  0  0  0
   39.9070   23.1540   36.3720 O   0  0  0  0  0  0  0  0  0  0  0  0
   40.0970   22.5290   37.6010 C   0  0  0  0  0  0  0  0  0  0  0  0
   41.0960   21.7660   37.6810 O   0  0  0  0  0  0  0  0  0  0  0  0
   39.1500   22.8150   38.6260 N   0  0  0  0  0  0  0  0  0  0  0  0
   39.7080   23.5270   39.1840 H   0  0  0  0  0  0  0  0  0  0  0  0
   38.8640   23.3090   39.4760 H   0  0  0  0  0  0  0  0  0  0  0  0
  1 12  1  0  0  0  0
  2  7  2  0  0  0  0
  2  3  1  0  0  0  0
  3  4  2  0  0  0  0
  4  5  1  0  0  0  0
  4  1  1  0  0  0  0
  6 10  1  0  0  0  0
  6  5  2  0  0  0  0
  7  6  1  0  0  0  0
  8  2  1  0  0  0  0
  9  3  1  0  0  0  0
 12 11  2  1  0  0  0
 12 15  1  0  0  0  0
 12 13  1  0  0  0  0
 13 14  1  0  0  0  0
 15 16  1  0  0  0  0
 16 17  2  0  0  0  0
 16 18  1  0  0  0  0
 18 19  1  0  0  0  0
 18 20  1  0  0  0  0
M  END
>  <minimizedAffinity>
-3.85939741

$$$$

 OpenBabel03272508093D

 20 20  0  0  0  0  0  0  0  0999 V2000
   40.0420   22.3990   35.8320 O   0  0  0  0  0  0  0  0  0  0  0  0
   43.4090   23.8060   36.4700 C   0  0  0  0  0  0  0  0  0  0  0  0
   42.3650   22.8880   36.5980 C   0  0  0  0  0  0  0  0  0  0  0  0
   41.1930   23.1300   35.8800 C   0  0  0  0  0  0  0  0  0  0  0  0
   41.1380   24.2480   35.0960 N   0  0  0  0  0  0  0  0  0  0  0  0
   42.1740   25.1060   35.0030 C   0  0  0  0  0  0  0  0  0  0  0  0
   43.2920   24.8770   35.6880 N   0  0  0  0  0  0  0  0  0  0  0  0
   44.2620   23.5400   37.0530 H   0  0  0  0  0  0  0  0  0  0  0  0
   42.3280   22.0030   37.1820 H   0  0  0  0  0  0  0  0  0  0  0  0
   42.1200   25.9940   34.3770 H   0  0  0  0  0  0  0  0  0  0  0  0
   37.4140   21.8840   35.8800 O   0  0  0  0  0  0  0  0  0  0  0  0
   38.4560   22.9480   35.6810 P   0  0  2  0  0  0  0  0  0  0  0  0
   38.2170   23.7020   34.1890 O   0  0  0  0  0  0  0  0  0  0  0  0
   38.3620   24.6790   34.2340 H   0  0  0  0  0  0  0  0  0  0  0  0
   38.1740   24.1360   36.8600 O   0  0  0  0  0  0  0  0  0  0  0  0
   38.2960   23.9200   38.2290 C   0  0  0  0  0  0  0  0  0  0  0  0
   37.9350   24.8730   38.9700 O   0  0  0  0  0  0  0  0  0  0  0  0
   38.8120   22.6590   38.6430 N   0  0  0  0  0  0  0  0  0  0  0  0
   37.9020   22.1750   38.9010 H   0  0  0  0  0  0  0  0  0  0  0  0
   38.6860   21.7080   39.0020 H   0  0  0  0  0  0  0  0  0  0  0  0
  1  4  1  0  0  0  0
  2  3  1  0  0  0  0
  2  8  1  0  0  0  0
  3  9  1  0  0  0  0
  4  3  2  0  0  0  0
  5  4  1  0  0  0  0
  6  5  2  0  0  0  0
  6  7  1  0  0  0  0
  7  2  2  0  0  0  0
 10  6  1  0  0  0  0
 12  1  1  0  0  0  0
 12 11  2  1  0  0  0
 12 15  1  0  0  0  0
 13 14  1  0  0  0  0
 13 12  1  0  0  0  0
 15 16  1  0  0  0  0
 16 18  1  0  0  0  0
 16 17  2  0  0  0  0
 18 19  1  0  0  0  0
 18 20  1  0  0  0  0
M  END
>  <minimizedAffinity>
-3.85858393

$$$$

 OpenBabel03272508093D

 20 20  0  0  0  0  0  0  0  0999 V2000
   38.1940   22.0610   34.4110 O   0  0  0  0  0  0  0  0  0  0  0  0
   35.5350   21.1510   31.9970 C   0  0  0  0  0  0  0  0  0  0  0  0
   36.3670   20.9760   33.1060 C   0  0  0  0  0  0  0  0  0  0  0  0
   37.2810   21.9880   33.3990 C   0  0  0  0  0  0  0  0  0  0  0  0
   37.3080   23.0870   32.5870 N   0  0  0  0  0  0  0  0  0  0  0  0
   36.4850   23.2110   31.5270 C   0  0  0  0  0  0  0  0  0  0  0  0
   35.6120   22.2470   31.2450 N   0  0  0  0  0  0  0  0  0  0  0  0
   34.8700   20.3290   31.8500 H   0  0  0  0  0  0  0  0  0  0  0  0
   36.4080   20.1600   33.7810 H   0  0  0  0  0  0  0  0  0  0  0  0
   36.5150   24.0900   30.8870 H   0  0  0  0  0  0  0  0  0  0  0  0
   37.2790   22.7850   36.8220 O   0  0  0  0  0  0  0  0  0  0  0  0
   38.2330   23.1290   35.7140 P   0  0  2  0  0  0  0  0  0  0  0  0
   37.9580   24.7160   35.2030 O   0  0  0  0  0  0  0  0  0  0  0  0
   38.7990   25.2000   35.0110 H   0  0  0  0  0  0  0  0  0  0  0  0
   39.7910   23.1140   36.3860 O   0  0  0  0  0  0  0  0  0  0  0  0
   40.1080   22.5240   37.6060 C   0  0  0  0  0  0  0  0  0  0  0  0
   41.0670   21.7060   37.5890 O   0  0  0  0  0  0  0  0  0  0  0  0
   39.3230   22.9030   38.7330 N   0  0  0  0  0  0  0  0  0  0  0  0
   39.9870   23.6000   39.1810 H   0  0  0  0  0  0  0  0  0  0  0  0
   39.1800   23.4440   39.5900 H   0  0  0  0  0  0  0  0  0  0  0  0
  1 12  1  0  0  0  0
  2  3  1  0  0  0  0
  3  4  2  0  0  0  0
  3  9  1  0  0  0  0
  4  1  1  0  0  0  0
  5  4  1  0  0  0  0
  6  5  2  0  0  0  0
  7  6  1  0  0  0  0
  7  2  2  0  0  0  0
  8  2  1  0  0  0  0
 10  6  1  0  0  0  0
 12 15  1  0  0  0  0
 12 11  2  1  0  0  0
 13 12  1  0  0  0  0
 14 13  1  0  0  0  0
 15 16  1  0  0  0  0
 16 18  1  0  0  0  0
 17 16  2  0  0  0  0
 18 19  1  0  0  0  0
 18 20  1  0  0  0  0
M  END
>  <minimizedAffinity>
-3.85746121

$$$$

 OpenBabel03272508093D

 20 20  0  0  0  0  0  0  0  0999 V2000
   38.0990   24.1830   35.9210 O   0  0  0  0  0  0  0  0  0  0  0  0
   38.5450   27.0610   33.6330 C   0  0  0  0  0  0  0  0  0  0  0  0
   37.8320   26.0820   34.3270 C   0  0  0  0  0  0  0  0  0  0  0  0
   38.5500   25.2120   35.1470 C   0  0  0  0  0  0  0  0  0  0  0  0
   39.9060   25.3700   35.2220 N   0  0  0  0  0  0  0  0  0  0  0  0
   40.5510   26.3320   34.5320 C   0  0  0  0  0  0  0  0  0  0  0  0
   39.8670   27.1620   33.7490 N   0  0  0  0  0  0  0  0  0  0  0  0
   37.9150   27.6790   33.0320 H   0  0  0  0  0  0  0  0  0  0  0  0
   36.7880   25.8940   34.3230 H   0  0  0  0  0  0  0  0  0  0  0  0
   41.6300   26.4490   34.5980 H   0  0  0  0  0  0  0  0  0  0  0  0
   38.0230   22.1350   34.1960 O   0  0  0  0  0  0  0  0  0  0  0  0
   38.2120   22.5260   35.6340 P   0  0  2  0  0  0  0  0  0  0  0  0
   37.1230   21.6700   36.6020 O   0  0  0  0  0  0  0  0  0  0  0  0
   37.5300   21.3700   37.4510 H   0  0  0  0  0  0  0  0  0  0  0  0
   39.7600   21.9980   36.0870 O   0  0  0  0  0  0  0  0  0  0  0  0
   40.2810   22.1220   37.3710 C   0  0  0  0  0  0  0  0  0  0  0  0
   41.4370   21.6480   37.5430 O   0  0  0  0  0  0  0  0  0  0  0  0
   39.4630   22.7630   38.3440 N   0  0  0  0  0  0  0  0  0  0  0  0
   39.9090   23.7270   38.3390 H   0  0  0  0  0  0  0  0  0  0  0  0
   39.1990   23.5790   38.9030 H   0  0  0  0  0  0  0  0  0  0  0  0
  2  7  2  0  0  0  0
  2  3  1  0  0  0  0
  3  4  2  0  0  0  0
  4  5  1  0  0  0  0
  4  1  1  0  0  0  0
  6 10  1  0  0  0  0
  6  5  2  0  0  0  0
  7  6  1  0  0  0  0
  8  2  1  0  0  0  0
  9  3  1  0  0  0  0
 12 11  2  6  0  0  0
 12  1  1  0  0  0  0
 12 15  1  0  0  0  0
 12 13  1  0  0  0  0
 13 14  1  0  0  0  0
 15 16  1  0  0  0  0
 16 17  2  0  0  0  0
 16 18  1  0  0  0  0
 18 20  1  0  0  0  0
 19 18  1  0  0  0  0
M  END
>  <minimizedAffinity>
-3.80717206

$$$$

 OpenBabel03272508093D

 20 20  0  0  0  0  0  0  0  0999 V2000
   37.1950   26.3010   34.4870 O   0  0  0  0  0  0  0  0  0  0  0  0
   36.6950   28.7990   31.7980 C   0  0  0  0  0  0  0  0  0  0  0  0
   37.1530   27.6060   32.3630 C   0  0  0  0  0  0  0  0  0  0  0  0
   36.8660   27.3710   33.7080 C   0  0  0  0  0  0  0  0  0  0  0  0
   36.1570   28.3190   34.3910 N   0  0  0  0  0  0  0  0  0  0  0  0
   35.7350   29.4560   33.8010 C   0  0  0  0  0  0  0  0  0  0  0  0
   36.0080   29.6820   32.5180 N   0  0  0  0  0  0  0  0  0  0  0  0
   36.9600   28.8930   30.7680 H   0  0  0  0  0  0  0  0  0  0  0  0
   37.7060   26.8260   31.9060 H   0  0  0  0  0  0  0  0  0  0  0  0
   35.1710   30.2050   34.3530 H   0  0  0  0  0  0  0  0  0  0  0  0
   38.0370   25.2470   36.8010 O   0  0  0  0  0  0  0  0  0  0  0  0
   38.3720   26.1990   35.6890 P   0  0  2  0  0  0  0  0  0  0  0  0
   38.7120   27.7240   36.3330 O   0  0  0  0  0  0  0  0  0  0  0  0
   39.4700   28.1640   35.8760 H   0  0  0  0  0  0  0  0  0  0  0  0
   39.8190   25.6500   34.9920 O   0  0  0  0  0  0  0  0  0  0  0  0
   40.8190   26.4880   34.5080 C   0  0  0  0  0  0  0  0  0  0  0  0
   40.4380   27.4090   33.7370 O   0  0  0  0  0  0  0  0  0  0  0  0
   42.1520   26.2170   34.9300 N   0  0  0  0  0  0  0  0  0  0  0  0
   42.2470   26.9550   35.6890 H   0  0  0  0  0  0  0  0  0  0  0  0
   42.9640   26.4040   35.5250 H   0  0  0  0  0  0  0  0  0  0  0  0
  1 12  1  0  0  0  0
  2  3  2  0  0  0  0
  2  7  1  0  0  0  0
  3  4  1  0  0  0  0
  4  5  2  0  0  0  0
  4  1  1  0  0  0  0
  6 10  1  0  0  0  0
  6  5  1  0  0  0  0
  7  6  2  0  0  0  0
  8  2  1  0  0  0  0
  9  3  1  0  0  0  0
 12 13  1  0  0  0  0
 12 11  2  1  0  0  0
 14 13  1  0  0  0  0
 15 12  1  0  0  0  0
 16 18  1  0  0  0  0
 16 15  1  0  0  0  0
 17 16  2  0  0  0  0
 18 20  1  0  0  0  0
 18 19  1  0  0  0  0
M  END
>  <minimizedAffinity>
-3.78614259

$$$$
