
 OpenBabel03262521013D

 33 34  0  0  1  0  0  0  0  0999 V2000
   39.8250   33.0320   45.9410 N   0  0  0  0  0  0  0  0  0  0  0  0
   38.5090   32.4810   46.0490 C   0  0  1  0  0  0  0  0  0  0  0  0
   37.9660   32.1770   44.6810 C   0  0  0  0  0  0  0  0  0  0  0  0
   38.8780   31.2240   44.0530 N   0  0  0  0  0  0  0  0  0  0  0  0
   40.1010   32.0090   43.7920 C   0  0  0  0  0  0  0  0  0  0  0  0
   40.7280   32.2530   45.1610 C   0  0  2  0  0  0  0  0  0  0  0  0
   40.2130   33.4570   46.7850 H   0  0  0  0  0  0  0  0  0  0  0  0
   37.8520   33.1850   46.5700 H   0  0  0  0  0  0  0  0  0  0  0  0
   37.8510   33.0700   44.0470 H   0  0  0  0  0  0  0  0  0  0  0  0
   36.9770   31.6740   44.8360 H   0  0  0  0  0  0  0  0  0  0  0  0
   39.0750   30.4470   44.7050 H   0  0  0  0  0  0  0  0  0  0  0  0
   39.7800   32.9660   43.3460 H   0  0  0  0  0  0  0  0  0  0  0  0
   40.8020   31.4700   43.1520 H   0  0  0  0  0  0  0  0  0  0  0  0
   41.6370   32.8710   44.9840 H   0  0  0  0  0  0  0  0  0  0  0  0
   41.0630   30.9740   45.7490 N   0  0  0  0  0  0  0  0  0  0  0  0
   41.2740   31.1410   46.7750 H   0  0  0  0  0  0  0  0  0  0  0  0
   42.0000   30.6970   45.3330 H   0  0  0  0  0  0  0  0  0  0  0  0
   38.5040   30.8880   46.9660 S   0  0  0  0  0  0  0  0  0  0  0  0
   35.7420   30.9450   49.9240 C   0  0  0  0  0  0  0  0  0  0  0  0
   36.9480   31.0850   49.2660 C   0  0  0  0  0  0  0  0  0  0  0  0
   37.0250   30.7610   47.9420 C   0  0  0  0  0  0  0  0  0  0  0  0
   35.8840   30.3010   47.3040 N   0  0  0  0  0  0  0  0  0  0  0  0
   34.7500   30.1890   47.9980 C   0  0  0  0  0  0  0  0  0  0  0  0
   34.6480   30.4990   49.2910 N   0  0  0  0  0  0  0  0  0  0  0  0
   35.6480   31.1950   50.9780 H   0  0  0  0  0  0  0  0  0  0  0  0
   37.8290   31.4430   49.7720 H   0  0  0  0  0  0  0  0  0  0  0  0
   33.5530   29.7010   47.3070 C   0  0  0  0  0  0  0  0  0  0  0  0
   33.2850   29.9660   46.1090 O   0  0  0  0  0  0  0  0  0  0  0  0
   32.1710   26.8950   48.8750 H   0  0  0  0  0  0  0  0  0  0  0  0
   32.8830   27.5160   48.3270 C   0  0  0  0  0  0  0  0  0  0  0  0
   33.9620   26.9870   47.9570 O   0  0  0  0  0  0  0  0  0  0  0  0
   32.6290   28.8740   48.0260 N   0  0  0  0  0  0  0  0  0  0  0  0
   31.7260   29.3220   48.3330 H   0  0  0  0  0  0  0  0  0  0  0  0
  1  2  1  0  0  0  0
  1  7  1  0  0  0  0
  2  8  1  1  0  0  0
  2 18  1  0  0  0  0
  3 10  1  0  0  0  0
  3  2  1  0  0  0  0
  4  3  1  0  0  0  0
  4 11  1  0  0  0  0
  5  4  1  0  0  0  0
  5  6  1  0  0  0  0
  6 14  1  6  0  0  0
  6 15  1  0  0  0  0
  6  1  1  0  0  0  0
  9  3  1  0  0  0  0
 12  5  1  0  0  0  0
 13  5  1  0  0  0  0
 15 16  1  0  0  0  0
 17 15  1  0  0  0  0
 18 21  1  0  0  0  0
 19 25  1  0  0  0  0
 20 26  1  0  0  0  0
 20 19  2  0  0  0  0
 21 20  1  0  0  0  0
 22 21  2  0  0  0  0
 22 23  1  0  0  0  0
 23 24  2  0  0  0  0
 24 19  1  0  0  0  0
 27 23  1  0  0  0  0
 27 32  1  0  0  0  0
 28 27  2  0  0  0  0
 30 29  1  0  0  0  0
 31 30  2  0  0  0  0
 32 30  1  0  0  0  0
 32 33  1  0  0  0  0
M  END
>  <minimizedAffinity>
-5.55110884

>  <minimizedRMSD>
2.47061133

$$$$
