
 OpenBabel03272510233D

 28 30  0  0  0  0  0  0  0  0999 V2000
   35.2710   29.8200   47.1400 C   0  0  0  0  0  0  0  0  0  0  0  0
   36.4490   30.2840   47.6890 C   0  0  0  0  0  0  0  0  0  0  0  0
   37.3930   30.8770   46.8830 C   0  0  0  0  0  0  0  0  0  0  0  0
   37.1070   30.9820   45.5260 C   0  0  0  0  0  0  0  0  0  0  0  0
   37.8950   31.5330   44.5390 N   0  0  0  0  0  0  0  0  0  0  0  0
   37.2050   31.4050   43.4100 C   0  0  0  0  0  0  0  0  0  0  0  0
   36.0310   30.8090   43.6180 N   0  0  0  0  0  0  0  0  0  0  0  0
   35.9470   30.5320   44.9420 C   0  0  0  0  0  0  0  0  0  0  0  0
   35.0100   29.9380   45.7750 C   0  0  0  0  0  0  0  0  0  0  0  0
   34.4920   29.3490   47.6940 H   0  0  0  0  0  0  0  0  0  0  0  0
   38.3090   31.2400   47.3000 H   0  0  0  0  0  0  0  0  0  0  0  0
   38.8520   31.9590   44.7130 H   0  0  0  0  0  0  0  0  0  0  0  0
   34.1020   29.5860   45.3180 H   0  0  0  0  0  0  0  0  0  0  0  0
   37.8320   30.3440   51.1820 C   0  0  0  0  0  0  0  0  0  0  0  0
   37.7670   30.5620   49.8080 C   0  0  0  0  0  0  0  0  0  0  0  0
   36.6420   30.1210   49.1180 C   0  0  0  0  0  0  0  0  0  0  0  0
   35.6490   29.4940   49.8230 N   0  0  0  0  0  0  0  0  0  0  0  0
   35.7430   29.2970   51.1640 C   0  0  0  0  0  0  0  0  0  0  0  0
   36.8130   29.7150   51.8240 N   0  0  0  0  0  0  0  0  0  0  0  0
   38.7020   30.6860   51.7080 H   0  0  0  0  0  0  0  0  0  0  0  0
   38.5470   31.0540   49.2540 H   0  0  0  0  0  0  0  0  0  0  0  0
   34.9320   28.7980   51.6630 H   0  0  0  0  0  0  0  0  0  0  0  0
   37.7470   31.8770   42.2170 O   0  0  0  0  0  0  0  0  0  0  0  0
   38.6320   32.9090   42.0920 C   0  0  0  0  0  0  0  0  0  0  0  0
   39.5420   33.5260   42.7310 O   0  0  0  0  0  0  0  0  0  0  0  0
   38.4980   33.5140   40.7910 N   0  0  0  0  0  0  0  0  0  0  0  0
   38.2770   34.1370   40.0080 H   0  0  0  0  0  0  0  0  0  0  0  0
   38.9250   32.9230   40.0430 H   0  0  0  0  0  0  0  0  0  0  0  0
  1  2  1  0  0  0  0
  1 10  1  0  0  0  0
  2 16  1  0  0  0  0
  3 11  1  0  0  0  0
  3  2  2  0  0  0  0
  4  3  1  0  0  0  0
  5 12  1  0  0  0  0
  5  4  1  0  0  0  0
  6  7  2  0  0  0  0
  6  5  1  0  0  0  0
  7  8  1  0  0  0  0
  8  4  2  0  0  0  0
  8  9  1  0  0  0  0
  9  1  2  0  0  0  0
 13  9  1  0  0  0  0
 14 20  1  0  0  0  0
 14 19  1  0  0  0  0
 15 14  2  0  0  0  0
 16 15  1  0  0  0  0
 16 17  2  0  0  0  0
 17 18  1  0  0  0  0
 18 22  1  0  0  0  0
 18 19  2  0  0  0  0
 21 15  1  0  0  0  0
 23  6  1  0  0  0  0
 24 23  1  0  0  0  0
 24 25  2  0  0  0  0
 26 24  1  0  0  0  0
 27 26  1  0  0  0  0
 28 26  1  0  0  0  0
M  END
>  <minimizedAffinity>
-4.68693399

>  <minimizedRMSD>
2.56814122

$$$$
