
 OpenBabel03272509453D

 15 15  0  0  0  0  0  0  0  0999 V2000
   37.3950   30.3100   51.4030 C   0  0  0  0  0  0  0  0  0  0  0  0
   38.1240   30.8530   50.3400 C   0  0  0  0  0  0  0  0  0  0  0  0
   37.7850   30.4830   49.0350 C   0  0  0  0  0  0  0  0  0  0  0  0
   36.7530   29.6040   48.8690 N   0  0  0  0  0  0  0  0  0  0  0  0
   36.0690   29.0960   49.9160 C   0  0  0  0  0  0  0  0  0  0  0  0
   36.3890   29.4500   51.1900 N   0  0  0  0  0  0  0  0  0  0  0  0
   37.6530   30.5940   52.4270 H   0  0  0  0  0  0  0  0  0  0  0  0
   38.9260   31.5400   50.5220 H   0  0  0  0  0  0  0  0  0  0  0  0
   38.3170   30.8750   48.1680 H   0  0  0  0  0  0  0  0  0  0  0  0
   35.0600   28.2230   49.5480 O   0  0  0  0  0  0  0  0  0  0  0  0
   33.8380   28.7080   49.0460 C   0  0  0  0  0  0  0  0  0  0  0  0
   32.7160   28.0970   49.0910 O   0  0  0  0  0  0  0  0  0  0  0  0
   33.7610   29.9840   48.4190 N   0  0  0  0  0  0  0  0  0  0  0  0
   34.4190   29.9140   47.5960 H   0  0  0  0  0  0  0  0  0  0  0  0
   33.2690   30.8960   48.5450 H   0  0  0  0  0  0  0  0  0  0  0  0
  1  7  1  0  0  0  0
  2  8  1  0  0  0  0
  2  1  2  0  0  0  0
  3  2  1  0  0  0  0
  4  3  2  0  0  0  0
  4  5  1  0  0  0  0
  5  6  2  0  0  0  0
  6  1  1  0  0  0  0
  9  3  1  0  0  0  0
 10  5  1  0  0  0  0
 11 12  2  0  0  0  0
 11 10  1  0  0  0  0
 13 15  1  0  0  0  0
 13 11  1  0  0  0  0
 14 13  1  0  0  0  0
M  END
>  <minimizedAffinity>
-3.83172798

>  <minimizedRMSD>
0.338162601

$$$$
