
 OpenBabel03272500563D

 29 30  0  0  0  0  0  0  0  0999 V2000
   38.7880   25.7300   32.9580 C   0  0  0  0  0  0  0  0  0  0  0  0
   39.6910   26.1550   32.0120 C   0  0  0  0  0  0  0  0  0  0  0  0
   40.7960   26.9400   32.3390 C   0  0  0  0  0  0  0  0  0  0  0  0
   40.9820   27.3030   33.7190 C   0  0  0  0  0  0  0  0  0  0  0  0
   40.0570   26.8540   34.6220 C   0  0  0  0  0  0  0  0  0  0  0  0
   38.9950   26.1020   34.2920 C   0  0  0  0  0  0  0  0  0  0  0  0
   39.5680   25.8870   30.9520 H   0  0  0  0  0  0  0  0  0  0  0  0
   41.4610   27.2300   31.5100 H   0  0  0  0  0  0  0  0  0  0  0  0
   41.8750   27.9000   33.7760 H   0  0  0  0  0  0  0  0  0  0  0  0
   40.4580   27.2210   35.5450 H   0  0  0  0  0  0  0  0  0  0  0  0
   36.5760   25.5570   31.9380 C   0  0  0  0  0  0  0  0  0  0  0  0
   37.7160   24.9020   32.4660 C   0  0  0  0  0  0  0  0  0  0  0  0
   37.6710   23.5180   32.4460 C   0  0  0  0  0  0  0  0  0  0  0  0
   36.6050   22.8740   31.9540 N   0  0  0  0  0  0  0  0  0  0  0  0
   35.5470   23.5010   31.4640 C   0  0  0  0  0  0  0  0  0  0  0  0
   35.5390   24.8380   31.4590 N   0  0  0  0  0  0  0  0  0  0  0  0
   36.4680   26.6350   31.8870 H   0  0  0  0  0  0  0  0  0  0  0  0
   38.5530   23.0170   32.8550 H   0  0  0  0  0  0  0  0  0  0  0  0
   34.7010   22.9530   31.0730 H   0  0  0  0  0  0  0  0  0  0  0  0
   38.5230   24.5070   35.9420 C   0  0  0  0  0  0  0  0  0  0  0  0
   39.6700   23.9840   35.6440 O   0  0  0  0  0  0  0  0  0  0  0  0
   38.0660   25.6900   35.2280 N   0  0  0  0  0  0  0  0  0  0  0  0
   37.1720   26.1410   35.4050 H   0  0  0  0  0  0  0  0  0  0  0  0
   37.6850   23.9630   36.9530 O   0  0  0  0  0  0  0  0  0  0  0  0
   38.1640   23.8950   38.2560 C   0  0  0  0  0  0  0  0  0  0  0  0
   37.9370   24.8240   39.0610 O   0  0  0  0  0  0  0  0  0  0  0  0
   38.9060   22.7580   38.6390 N   0  0  0  0  0  0  0  0  0  0  0  0
   39.5130   22.8270   39.4930 H   0  0  0  0  0  0  0  0  0  0  0  0
   38.8600   21.8710   38.0970 H   0  0  0  0  0  0  0  0  0  0  0  0
  1  6  1  0  0  0  0
  2  3  1  0  0  0  0
  2  1  2  0  0  0  0
  3  4  2  0  0  0  0
  4  9  1  0  0  0  0
  4  5  1  0  0  0  0
  5 10  1  0  0  0  0
  6  5  2  0  0  0  0
  6 22  1  0  0  0  0
  7  2  1  0  0  0  0
  8  3  1  0  0  0  0
 11 12  1  0  0  0  0
 12  1  1  0  0  0  0
 13 12  2  0  0  0  0
 13 18  1  0  0  0  0
 14 13  1  0  0  0  0
 15 14  2  0  0  0  0
 16 15  1  0  0  0  0
 16 11  2  0  0  0  0
 17 11  1  0  0  0  0
 19 15  1  0  0  0  0
 20 24  1  0  0  0  0
 21 20  2  0  0  0  0
 22 23  1  0  0  0  0
 22 20  1  0  0  0  0
 24 25  1  0  0  0  0
 25 27  1  0  0  0  0
 25 26  2  0  0  0  0
 27 28  1  0  0  0  0
 29 27  1  0  0  0  0
M  END
>  <minimizedAffinity>
-5.04848528

$$$$

 OpenBabel03272500563D

 29 30  0  0  0  0  0  0  0  0999 V2000
   38.0000   25.7500   33.6760 C   0  0  0  0  0  0  0  0  0  0  0  0
   37.1160   26.7940   33.5320 C   0  0  0  0  0  0  0  0  0  0  0  0
   36.9940   27.8010   34.4890 C   0  0  0  0  0  0  0  0  0  0  0  0
   37.8320   27.7290   35.6560 C   0  0  0  0  0  0  0  0  0  0  0  0
   38.6960   26.6720   35.7520 C   0  0  0  0  0  0  0  0  0  0  0  0
   38.8000   25.7060   34.8240 C   0  0  0  0  0  0  0  0  0  0  0  0
   36.4680   26.8690   32.6460 H   0  0  0  0  0  0  0  0  0  0  0  0
   36.2570   28.5940   34.2820 H   0  0  0  0  0  0  0  0  0  0  0  0
   37.6000   28.5800   36.2710 H   0  0  0  0  0  0  0  0  0  0  0  0
   39.2100   26.8910   36.6650 H   0  0  0  0  0  0  0  0  0  0  0  0
   38.8820   25.0980   31.4940 C   0  0  0  0  0  0  0  0  0  0  0  0
   38.0280   24.8060   32.5870 C   0  0  0  0  0  0  0  0  0  0  0  0
   37.3090   23.6280   32.4840 C   0  0  0  0  0  0  0  0  0  0  0  0
   37.4360   22.8390   31.4090 N   0  0  0  0  0  0  0  0  0  0  0  0
   38.2380   23.1260   30.3950 C   0  0  0  0  0  0  0  0  0  0  0  0
   38.9560   24.2530   30.4440 N   0  0  0  0  0  0  0  0  0  0  0  0
   39.5060   25.9830   31.4340 H   0  0  0  0  0  0  0  0  0  0  0  0
   36.6510   23.4070   33.3290 H   0  0  0  0  0  0  0  0  0  0  0  0
   38.3190   22.4690   29.5400 H   0  0  0  0  0  0  0  0  0  0  0  0
   39.0880   23.6000   35.8090 C   0  0  0  0  0  0  0  0  0  0  0  0
   37.9090   23.7700   36.3160 O   0  0  0  0  0  0  0  0  0  0  0  0
   39.6640   24.6380   34.9680 N   0  0  0  0  0  0  0  0  0  0  0  0
   40.5890   24.5720   34.5500 H   0  0  0  0  0  0  0  0  0  0  0  0
   39.8500   22.4230   36.0440 O   0  0  0  0  0  0  0  0  0  0  0  0
   40.3370   22.1850   37.3240 C   0  0  0  0  0  0  0  0  0  0  0  0
   41.4080   21.5590   37.4850 O   0  0  0  0  0  0  0  0  0  0  0  0
   39.5970   22.6650   38.4240 N   0  0  0  0  0  0  0  0  0  0  0  0
   39.7820   22.2450   39.3680 H   0  0  0  0  0  0  0  0  0  0  0  0
   38.8830   23.4160   38.3130 H   0  0  0  0  0  0  0  0  0  0  0  0
  1  6  1  0  0  0  0
  2  1  2  0  0  0  0
  2  3  1  0  0  0  0
  3  4  2  0  0  0  0
  4  5  1  0  0  0  0
  4  9  1  0  0  0  0
  5 10  1  0  0  0  0
  6 22  1  0  0  0  0
  6  5  2  0  0  0  0
  7  2  1  0  0  0  0
  8  3  1  0  0  0  0
 11 12  1  0  0  0  0
 12  1  1  0  0  0  0
 13 12  2  0  0  0  0
 13 18  1  0  0  0  0
 14 13  1  0  0  0  0
 15 16  1  0  0  0  0
 15 14  2  0  0  0  0
 16 11  2  0  0  0  0
 17 11  1  0  0  0  0
 19 15  1  0  0  0  0
 20 24  1  0  0  0  0
 20 21  2  0  0  0  0
 22 20  1  0  0  0  0
 23 22  1  0  0  0  0
 24 25  1  0  0  0  0
 25 26  2  0  0  0  0
 25 27  1  0  0  0  0
 27 28  1  0  0  0  0
 29 27  1  0  0  0  0
M  END
>  <minimizedAffinity>
-4.80580044

$$$$

 OpenBabel03272500563D

 29 30  0  0  0  0  0  0  0  0999 V2000
   36.2610   23.0610   31.8570 C   0  0  0  0  0  0  0  0  0  0  0  0
   35.2150   23.7750   31.3200 C   0  0  0  0  0  0  0  0  0  0  0  0
   35.3370   25.1170   30.9670 C   0  0  0  0  0  0  0  0  0  0  0  0
   36.6080   25.7590   31.1760 C   0  0  0  0  0  0  0  0  0  0  0  0
   37.6170   25.0060   31.7110 C   0  0  0  0  0  0  0  0  0  0  0  0
   37.4850   23.7140   32.0510 C   0  0  0  0  0  0  0  0  0  0  0  0
   34.2360   23.3020   31.1500 H   0  0  0  0  0  0  0  0  0  0  0  0
   34.4410   25.6020   30.5450 H   0  0  0  0  0  0  0  0  0  0  0  0
   36.5100   26.7790   30.8480 H   0  0  0  0  0  0  0  0  0  0  0  0
   38.4320   25.7010   31.7100 H   0  0  0  0  0  0  0  0  0  0  0  0
   35.9880   20.7730   31.0490 C   0  0  0  0  0  0  0  0  0  0  0  0
   35.9860   21.6750   32.1420 C   0  0  0  0  0  0  0  0  0  0  0  0
   35.7190   21.1140   33.3780 C   0  0  0  0  0  0  0  0  0  0  0  0
   35.4820   19.8010   33.4980 N   0  0  0  0  0  0  0  0  0  0  0  0
   35.4870   18.9690   32.4670 C   0  0  0  0  0  0  0  0  0  0  0  0
   35.7400   19.4610   31.2500 N   0  0  0  0  0  0  0  0  0  0  0  0
   36.1820   21.0660   30.0230 H   0  0  0  0  0  0  0  0  0  0  0  0
   35.7180   21.8140   34.2190 H   0  0  0  0  0  0  0  0  0  0  0  0
   35.2920   17.9140   32.5960 H   0  0  0  0  0  0  0  0  0  0  0  0
   38.7120   23.3470   34.0130 C   0  0  0  0  0  0  0  0  0  0  0  0
   37.9580   24.2500   34.5520 O   0  0  0  0  0  0  0  0  0  0  0  0
   38.5190   22.9920   32.6140 N   0  0  0  0  0  0  0  0  0  0  0  0
   39.0850   22.3010   32.1280 H   0  0  0  0  0  0  0  0  0  0  0  0
   39.7330   22.6810   34.7430 O   0  0  0  0  0  0  0  0  0  0  0  0
   39.4230   22.1370   35.9840 C   0  0  0  0  0  0  0  0  0  0  0  0
   40.3330   21.8730   36.8010 O   0  0  0  0  0  0  0  0  0  0  0  0
   38.0690   21.8940   36.2910 N   0  0  0  0  0  0  0  0  0  0  0  0
   37.8490   21.2250   37.0700 H   0  0  0  0  0  0  0  0  0  0  0  0
   37.3000   22.3600   35.7650 H   0  0  0  0  0  0  0  0  0  0  0  0
  1  6  1  0  0  0  0
  1 12  1  0  0  0  0
  2  1  2  0  0  0  0
  3  4  2  0  0  0  0
  3  2  1  0  0  0  0
  4  5  1  0  0  0  0
  5  6  2  0  0  0  0
  6 22  1  0  0  0  0
  7  2  1  0  0  0  0
  8  3  1  0  0  0  0
  9  4  1  0  0  0  0
 10  5  1  0  0  0  0
 11 16  2  0  0  0  0
 11 12  1  0  0  0  0
 12 13  2  0  0  0  0
 13 14  1  0  0  0  0
 13 18  1  0  0  0  0
 15 19  1  0  0  0  0
 15 14  2  0  0  0  0
 16 15  1  0  0  0  0
 17 11  1  0  0  0  0
 20 21  2  0  0  0  0
 20 24  1  0  0  0  0
 22 20  1  0  0  0  0
 23 22  1  0  0  0  0
 24 25  1  0  0  0  0
 25 27  1  0  0  0  0
 25 26  2  0  0  0  0
 27 28  1  0  0  0  0
 29 27  1  0  0  0  0
M  END
>  <minimizedAffinity>
-4.62683296

$$$$

 OpenBabel03272500563D

 29 30  0  0  0  0  0  0  0  0999 V2000
   37.2300   23.4840   32.6270 C   0  0  0  0  0  0  0  0  0  0  0  0
   36.0660   23.2080   31.9490 C   0  0  0  0  0  0  0  0  0  0  0  0
   35.4370   21.9670   32.0300 C   0  0  0  0  0  0  0  0  0  0  0  0
   36.0390   20.9560   32.8580 C   0  0  0  0  0  0  0  0  0  0  0  0
   37.1950   21.2800   33.5130 C   0  0  0  0  0  0  0  0  0  0  0  0
   37.7940   22.4790   33.4230 C   0  0  0  0  0  0  0  0  0  0  0  0
   35.5880   23.9680   31.3120 H   0  0  0  0  0  0  0  0  0  0  0  0
   34.5090   21.8430   31.4480 H   0  0  0  0  0  0  0  0  0  0  0  0
   35.4190   20.0790   32.7960 H   0  0  0  0  0  0  0  0  0  0  0  0
   37.3870   20.3880   34.0720 H   0  0  0  0  0  0  0  0  0  0  0  0
   38.5360   25.0810   31.3220 C   0  0  0  0  0  0  0  0  0  0  0  0
   37.7410   24.8220   32.4650 C   0  0  0  0  0  0  0  0  0  0  0  0
   37.5390   25.9010   33.3090 C   0  0  0  0  0  0  0  0  0  0  0  0
   38.0760   27.0970   33.0320 N   0  0  0  0  0  0  0  0  0  0  0  0
   38.8170   27.3240   31.9580 C   0  0  0  0  0  0  0  0  0  0  0  0
   39.0430   26.3150   31.1100 N   0  0  0  0  0  0  0  0  0  0  0  0
   38.7790   24.3360   30.5720 H   0  0  0  0  0  0  0  0  0  0  0  0
   36.9250   25.6960   34.1900 H   0  0  0  0  0  0  0  0  0  0  0  0
   39.2370   28.3010   31.7620 H   0  0  0  0  0  0  0  0  0  0  0  0
   38.7490   23.0230   35.4920 C   0  0  0  0  0  0  0  0  0  0  0  0
   37.5440   22.9810   35.9640 O   0  0  0  0  0  0  0  0  0  0  0  0
   38.9760   22.7620   34.0780 N   0  0  0  0  0  0  0  0  0  0  0  0
   39.8950   22.7920   33.6430 H   0  0  0  0  0  0  0  0  0  0  0  0
   39.8720   23.3180   36.3120 O   0  0  0  0  0  0  0  0  0  0  0  0
   40.0680   22.5770   37.4720 C   0  0  0  0  0  0  0  0  0  0  0  0
   40.9870   21.7320   37.5330 O   0  0  0  0  0  0  0  0  0  0  0  0
   39.2080   22.8040   38.5670 N   0  0  0  0  0  0  0  0  0  0  0  0
   39.1480   22.0670   39.3120 H   0  0  0  0  0  0  0  0  0  0  0  0
   38.6430   23.6760   38.6420 H   0  0  0  0  0  0  0  0  0  0  0  0
  1  6  1  0  0  0  0
  2  3  1  0  0  0  0
  2  1  2  0  0  0  0
  3  4  2  0  0  0  0
  4  5  1  0  0  0  0
  5 10  1  0  0  0  0
  6  5  2  0  0  0  0
  6 22  1  0  0  0  0
  7  2  1  0  0  0  0
  8  3  1  0  0  0  0
  9  4  1  0  0  0  0
 11 12  1  0  0  0  0
 12  1  1  0  0  0  0
 12 13  2  0  0  0  0
 13 18  1  0  0  0  0
 14 13  1  0  0  0  0
 15 14  2  0  0  0  0
 16 11  2  0  0  0  0
 16 15  1  0  0  0  0
 17 11  1  0  0  0  0
 19 15  1  0  0  0  0
 20 21  2  0  0  0  0
 20 24  1  0  0  0  0
 22 20  1  0  0  0  0
 23 22  1  0  0  0  0
 24 25  1  0  0  0  0
 25 26  2  0  0  0  0
 25 27  1  0  0  0  0
 27 29  1  0  0  0  0
 27 28  1  0  0  0  0
M  END
>  <minimizedAffinity>
-4.61515665

$$$$

 OpenBabel03272500563D

 29 30  0  0  0  0  0  0  0  0999 V2000
   33.6150   30.8540   35.4720 C   0  0  0  0  0  0  0  0  0  0  0  0
   33.7240   31.5200   36.6700 C   0  0  0  0  0  0  0  0  0  0  0  0
   34.8340   32.3010   36.9870 C   0  0  0  0  0  0  0  0  0  0  0  0
   35.8890   32.4030   36.0140 C   0  0  0  0  0  0  0  0  0  0  0  0
   35.7330   31.7220   34.8370 C   0  0  0  0  0  0  0  0  0  0  0  0
   34.6600   30.9710   34.5460 C   0  0  0  0  0  0  0  0  0  0  0  0
   32.9270   31.4570   37.4270 H   0  0  0  0  0  0  0  0  0  0  0  0
   34.8280   32.7940   37.9730 H   0  0  0  0  0  0  0  0  0  0  0  0
   36.6500   33.0380   36.4310 H   0  0  0  0  0  0  0  0  0  0  0  0
   36.6160   32.0070   34.3020 H   0  0  0  0  0  0  0  0  0  0  0  0
   32.3200   28.8200   35.8560 C   0  0  0  0  0  0  0  0  0  0  0  0
   32.3930   30.1130   35.2820 C   0  0  0  0  0  0  0  0  0  0  0  0
   31.2650   30.5260   34.5940 C   0  0  0  0  0  0  0  0  0  0  0  0
   30.1920   29.7300   34.4980 N   0  0  0  0  0  0  0  0  0  0  0  0
   30.1380   28.5230   35.0410 C   0  0  0  0  0  0  0  0  0  0  0  0
   31.2020   28.0760   35.7160 N   0  0  0  0  0  0  0  0  0  0  0  0
   33.1240   28.3630   36.4230 H   0  0  0  0  0  0  0  0  0  0  0  0
   31.3260   31.5240   34.1520 H   0  0  0  0  0  0  0  0  0  0  0  0
   29.2570   27.9040   34.9460 H   0  0  0  0  0  0  0  0  0  0  0  0
   35.3190   29.0410   33.3920 C   0  0  0  0  0  0  0  0  0  0  0  0
   35.9960   28.7410   34.4540 O   0  0  0  0  0  0  0  0  0  0  0  0
   34.5490   30.2750   33.3570 N   0  0  0  0  0  0  0  0  0  0  0  0
   34.0070   30.5750   32.5510 H   0  0  0  0  0  0  0  0  0  0  0  0
   35.2980   28.2010   32.2460 O   0  0  0  0  0  0  0  0  0  0  0  0
   36.1210   28.5150   31.1700 C   0  0  0  0  0  0  0  0  0  0  0  0
   36.6730   29.6360   31.1050 O   0  0  0  0  0  0  0  0  0  0  0  0
   36.3130   27.5440   30.1650 N   0  0  0  0  0  0  0  0  0  0  0  0
   36.6690   27.8620   29.2300 H   0  0  0  0  0  0  0  0  0  0  0  0
   36.1090   26.5380   30.3370 H   0  0  0  0  0  0  0  0  0  0  0  0
  1  2  1  0  0  0  0
  2  3  2  0  0  0  0
  2  7  1  0  0  0  0
  3  8  1  0  0  0  0
  4  9  1  0  0  0  0
  4  3  1  0  0  0  0
  5  4  2  0  0  0  0
  6  5  1  0  0  0  0
  6  1  2  0  0  0  0
 10  5  1  0  0  0  0
 11 17  1  0  0  0  0
 12  1  1  0  0  0  0
 12 11  2  0  0  0  0
 13 12  1  0  0  0  0
 14 13  2  0  0  0  0
 14 15  1  0  0  0  0
 15 16  2  0  0  0  0
 16 11  1  0  0  0  0
 18 13  1  0  0  0  0
 19 15  1  0  0  0  0
 20 21  2  0  0  0  0
 22 20  1  0  0  0  0
 22  6  1  0  0  0  0
 23 22  1  0  0  0  0
 24 20  1  0  0  0  0
 25 24  1  0  0  0  0
 26 25  2  0  0  0  0
 27 29  1  0  0  0  0
 27 25  1  0  0  0  0
 28 27  1  0  0  0  0
M  END
>  <minimizedAffinity>
-4.56309652

$$$$

 OpenBabel03272500563D

 29 30  0  0  0  0  0  0  0  0999 V2000
   39.8280   25.1810   34.8280 C   0  0  0  0  0  0  0  0  0  0  0  0
   41.1670   24.9010   34.9700 C   0  0  0  0  0  0  0  0  0  0  0  0
   42.1590   25.7710   34.5220 C   0  0  0  0  0  0  0  0  0  0  0  0
   41.7480   26.9990   33.8960 C   0  0  0  0  0  0  0  0  0  0  0  0
   40.4050   27.2330   33.7790 C   0  0  0  0  0  0  0  0  0  0  0  0
   39.4590   26.3840   34.2120 C   0  0  0  0  0  0  0  0  0  0  0  0
   41.5020   23.9680   35.4480 H   0  0  0  0  0  0  0  0  0  0  0  0
   43.2030   25.4550   34.6810 H   0  0  0  0  0  0  0  0  0  0  0  0
   42.6400   27.5330   33.6200 H   0  0  0  0  0  0  0  0  0  0  0  0
   40.3910   28.2070   33.3360 H   0  0  0  0  0  0  0  0  0  0  0  0
   38.6370   23.0660   34.5650 C   0  0  0  0  0  0  0  0  0  0  0  0
   38.9260   24.1950   35.3690 C   0  0  0  0  0  0  0  0  0  0  0  0
   38.3010   24.2240   36.6050 C   0  0  0  0  0  0  0  0  0  0  0  0
   37.4840   23.2320   36.9820 N   0  0  0  0  0  0  0  0  0  0  0  0
   37.2240   22.1820   36.2180 C   0  0  0  0  0  0  0  0  0  0  0  0
   37.8010   22.1050   35.0150 N   0  0  0  0  0  0  0  0  0  0  0  0
   39.0520   22.9060   33.5750 H   0  0  0  0  0  0  0  0  0  0  0  0
   38.5270   25.0980   37.2220 H   0  0  0  0  0  0  0  0  0  0  0  0
   36.5590   21.3970   36.5510 H   0  0  0  0  0  0  0  0  0  0  0  0
   37.6640   26.3090   32.7090 C   0  0  0  0  0  0  0  0  0  0  0  0
   38.5150   25.8490   31.8480 O   0  0  0  0  0  0  0  0  0  0  0  0
   38.1110   26.6410   34.0530 N   0  0  0  0  0  0  0  0  0  0  0  0
   37.4980   27.0170   34.7710 H   0  0  0  0  0  0  0  0  0  0  0  0
   36.2930   26.5040   32.3870 O   0  0  0  0  0  0  0  0  0  0  0  0
   35.8890   26.3630   31.0640 C   0  0  0  0  0  0  0  0  0  0  0  0
   35.1470   25.4130   30.7290 O   0  0  0  0  0  0  0  0  0  0  0  0
   36.3360   27.3120   30.1210 N   0  0  0  0  0  0  0  0  0  0  0  0
   36.2940   27.0570   29.1040 H   0  0  0  0  0  0  0  0  0  0  0  0
   36.6990   28.2420   30.4170 H   0  0  0  0  0  0  0  0  0  0  0  0
  1  2  1  0  0  0  0
  1 12  1  0  0  0  0
  2  7  1  0  0  0  0
  3  8  1  0  0  0  0
  3  2  2  0  0  0  0
  4  3  1  0  0  0  0
  5  4  2  0  0  0  0
  5  6  1  0  0  0  0
  6  1  2  0  0  0  0
  9  4  1  0  0  0  0
 10  5  1  0  0  0  0
 11 16  2  0  0  0  0
 11 12  1  0  0  0  0
 12 13  2  0  0  0  0
 13 14  1  0  0  0  0
 13 18  1  0  0  0  0
 15 19  1  0  0  0  0
 15 14  2  0  0  0  0
 16 15  1  0  0  0  0
 17 11  1  0  0  0  0
 20 22  1  0  0  0  0
 21 20  2  0  0  0  0
 22  6  1  0  0  0  0
 22 23  1  0  0  0  0
 24 20  1  0  0  0  0
 25 24  1  0  0  0  0
 26 25  2  0  0  0  0
 27 29  1  0  0  0  0
 27 25  1  0  0  0  0
 28 27  1  0  0  0  0
M  END
>  <minimizedAffinity>
-4.53741169

$$$$

 OpenBabel03272500563D

 29 30  0  0  0  0  0  0  0  0999 V2000
   36.3270   26.2410   31.6920 C   0  0  0  0  0  0  0  0  0  0  0  0
   35.4390   25.4080   31.0520 C   0  0  0  0  0  0  0  0  0  0  0  0
   35.4960   24.0220   31.1800 C   0  0  0  0  0  0  0  0  0  0  0  0
   36.5240   23.4620   32.0170 C   0  0  0  0  0  0  0  0  0  0  0  0
   37.3820   24.3320   32.6340 C   0  0  0  0  0  0  0  0  0  0  0  0
   37.3180   25.6660   32.4980 C   0  0  0  0  0  0  0  0  0  0  0  0
   34.6440   25.8170   30.4090 H   0  0  0  0  0  0  0  0  0  0  0  0
   34.7410   23.4420   30.6260 H   0  0  0  0  0  0  0  0  0  0  0  0
   36.4100   22.3930   31.9940 H   0  0  0  0  0  0  0  0  0  0  0  0
   37.9900   23.6660   33.2110 H   0  0  0  0  0  0  0  0  0  0  0  0
   36.7220   28.2370   30.3420 C   0  0  0  0  0  0  0  0  0  0  0  0
   36.1190   27.6520   31.4830 C   0  0  0  0  0  0  0  0  0  0  0  0
   35.3830   28.5140   32.2780 C   0  0  0  0  0  0  0  0  0  0  0  0
   35.2710   29.8100   31.9610 N   0  0  0  0  0  0  0  0  0  0  0  0
   35.8410   30.3430   30.8900 C   0  0  0  0  0  0  0  0  0  0  0  0
   36.5620   29.5540   30.0880 N   0  0  0  0  0  0  0  0  0  0  0  0
   37.3260   27.6870   29.6280 H   0  0  0  0  0  0  0  0  0  0  0  0
   34.9200   28.0580   33.1570 H   0  0  0  0  0  0  0  0  0  0  0  0
   35.7310   31.3940   30.6600 H   0  0  0  0  0  0  0  0  0  0  0  0
   39.4720   26.5800   32.3780 C   0  0  0  0  0  0  0  0  0  0  0  0
   39.6150   25.8810   31.2970 O   0  0  0  0  0  0  0  0  0  0  0  0
   38.2190   26.5120   33.1150 N   0  0  0  0  0  0  0  0  0  0  0  0
   38.0470   27.0260   33.9760 H   0  0  0  0  0  0  0  0  0  0  0  0
   40.5030   27.4220   32.8760 O   0  0  0  0  0  0  0  0  0  0  0  0
   41.1950   27.0300   34.0160 C   0  0  0  0  0  0  0  0  0  0  0  0
   40.6130   26.3880   34.9180 O   0  0  0  0  0  0  0  0  0  0  0  0
   42.5580   27.3750   34.1250 N   0  0  0  0  0  0  0  0  0  0  0  0
   43.0000   27.3570   35.0780 H   0  0  0  0  0  0  0  0  0  0  0  0
   43.1190   27.6430   33.2900 H   0  0  0  0  0  0  0  0  0  0  0  0
  1  6  1  0  0  0  0
  2  3  1  0  0  0  0
  2  1  2  0  0  0  0
  3  4  2  0  0  0  0
  4  5  1  0  0  0  0
  5 10  1  0  0  0  0
  6  5  2  0  0  0  0
  6 22  1  0  0  0  0
  7  2  1  0  0  0  0
  8  3  1  0  0  0  0
  9  4  1  0  0  0  0
 11 12  1  0  0  0  0
 12  1  1  0  0  0  0
 12 13  2  0  0  0  0
 13 18  1  0  0  0  0
 14 13  1  0  0  0  0
 15 14  2  0  0  0  0
 16 11  2  0  0  0  0
 16 15  1  0  0  0  0
 17 11  1  0  0  0  0
 19 15  1  0  0  0  0
 20 24  1  0  0  0  0
 20 22  1  0  0  0  0
 21 20  2  0  0  0  0
 22 23  1  0  0  0  0
 24 25  1  0  0  0  0
 25 27  1  0  0  0  0
 25 26  2  0  0  0  0
 27 28  1  0  0  0  0
 29 27  1  0  0  0  0
M  END
>  <minimizedAffinity>
-4.42111778

$$$$

 OpenBabel03272500563D

 29 30  0  0  0  0  0  0  0  0999 V2000
   38.7990   23.9070   36.0210 C   0  0  0  0  0  0  0  0  0  0  0  0
   38.1230   24.9900   36.5350 C   0  0  0  0  0  0  0  0  0  0  0  0
   37.8680   25.1270   37.8980 C   0  0  0  0  0  0  0  0  0  0  0  0
   38.3390   24.0940   38.7810 C   0  0  0  0  0  0  0  0  0  0  0  0
   39.0070   23.0390   38.2220 C   0  0  0  0  0  0  0  0  0  0  0  0
   39.2430   22.9170   36.9060 C   0  0  0  0  0  0  0  0  0  0  0  0
   37.7570   25.7920   35.8760 H   0  0  0  0  0  0  0  0  0  0  0  0
   37.3180   26.0300   38.2100 H   0  0  0  0  0  0  0  0  0  0  0  0
   38.0530   24.3700   39.7800 H   0  0  0  0  0  0  0  0  0  0  0  0
   39.2750   22.4670   39.0870 H   0  0  0  0  0  0  0  0  0  0  0  0
   38.0010   23.3540   33.7810 C   0  0  0  0  0  0  0  0  0  0  0  0
   39.0100   23.9260   34.5950 C   0  0  0  0  0  0  0  0  0  0  0  0
   40.0990   24.4470   33.9180 C   0  0  0  0  0  0  0  0  0  0  0  0
   40.1620   24.3980   32.5810 N   0  0  0  0  0  0  0  0  0  0  0  0
   39.2110   23.8600   31.8330 C   0  0  0  0  0  0  0  0  0  0  0  0
   38.1370   23.3410   32.4380 N   0  0  0  0  0  0  0  0  0  0  0  0
   37.0910   22.9080   34.1680 H   0  0  0  0  0  0  0  0  0  0  0  0
   40.8750   24.8870   34.5510 H   0  0  0  0  0  0  0  0  0  0  0  0
   39.2910   23.8350   30.7550 H   0  0  0  0  0  0  0  0  0  0  0  0
   41.3430   21.9800   36.4550 C   0  0  0  0  0  0  0  0  0  0  0  0
   41.8400   23.0590   36.9700 O   0  0  0  0  0  0  0  0  0  0  0  0
   39.8980   21.8230   36.3740 N   0  0  0  0  0  0  0  0  0  0  0  0
   39.4450   21.0080   35.9700 H   0  0  0  0  0  0  0  0  0  0  0  0
   42.1640   20.9310   35.9610 O   0  0  0  0  0  0  0  0  0  0  0  0
   42.7430   20.0500   36.8670 C   0  0  0  0  0  0  0  0  0  0  0  0
   43.5920   19.2160   36.4810 O   0  0  0  0  0  0  0  0  0  0  0  0
   42.3500   20.1230   38.2190 N   0  0  0  0  0  0  0  0  0  0  0  0
   42.5400   19.2950   38.8360 H   0  0  0  0  0  0  0  0  0  0  0  0
   41.8820   20.9700   38.6040 H   0  0  0  0  0  0  0  0  0  0  0  0
  1  2  2  0  0  0  0
  1  6  1  0  0  0  0
  2  3  1  0  0  0  0
  3  8  1  0  0  0  0
  3  4  2  0  0  0  0
  4  9  1  0  0  0  0
  5  4  1  0  0  0  0
  5 10  1  0  0  0  0
  6  5  2  0  0  0  0
  7  2  1  0  0  0  0
 11 17  1  0  0  0  0
 11 12  1  0  0  0  0
 12  1  1  0  0  0  0
 13 18  1  0  0  0  0
 13 12  2  0  0  0  0
 14 13  1  0  0  0  0
 15 16  1  0  0  0  0
 15 14  2  0  0  0  0
 16 11  2  0  0  0  0
 19 15  1  0  0  0  0
 20 21  2  0  0  0  0
 22 20  1  0  0  0  0
 22  6  1  0  0  0  0
 23 22  1  0  0  0  0
 24 20  1  0  0  0  0
 24 25  1  0  0  0  0
 25 27  1  0  0  0  0
 26 25  2  0  0  0  0
 27 29  1  0  0  0  0
 27 28  1  0  0  0  0
M  END
>  <minimizedAffinity>
-4.41742229

$$$$

 OpenBabel03272500563D

 29 30  0  0  0  0  0  0  0  0999 V2000
   38.4460   25.5020   35.2580 C   0  0  0  0  0  0  0  0  0  0  0  0
   38.3790   26.7070   35.9180 C   0  0  0  0  0  0  0  0  0  0  0  0
   37.6750   27.7950   35.4070 C   0  0  0  0  0  0  0  0  0  0  0  0
   37.0000   27.6330   34.1470 C   0  0  0  0  0  0  0  0  0  0  0  0
   37.0960   26.4150   33.5300 C   0  0  0  0  0  0  0  0  0  0  0  0
   37.7810   25.3750   34.0320 C   0  0  0  0  0  0  0  0  0  0  0  0
   38.8860   26.8510   36.8850 H   0  0  0  0  0  0  0  0  0  0  0  0
   37.6820   28.7180   36.0110 H   0  0  0  0  0  0  0  0  0  0  0  0
   36.5180   28.5660   33.9180 H   0  0  0  0  0  0  0  0  0  0  0  0
   36.4800   26.5590   32.6660 H   0  0  0  0  0  0  0  0  0  0  0  0
   38.5750   23.8450   37.0470 C   0  0  0  0  0  0  0  0  0  0  0  0
   39.1880   24.4650   35.9310 C   0  0  0  0  0  0  0  0  0  0  0  0
   40.4490   23.9960   35.6060 C   0  0  0  0  0  0  0  0  0  0  0  0
   41.0220   23.0190   36.3210 N   0  0  0  0  0  0  0  0  0  0  0  0
   40.4350   22.4490   37.3630 C   0  0  0  0  0  0  0  0  0  0  0  0
   39.2160   22.8650   37.7190 N   0  0  0  0  0  0  0  0  0  0  0  0
   37.5890   24.1070   37.4190 H   0  0  0  0  0  0  0  0  0  0  0  0
   40.9190   24.4780   34.7440 H   0  0  0  0  0  0  0  0  0  0  0  0
   40.9240   21.6620   37.9210 H   0  0  0  0  0  0  0  0  0  0  0  0
   38.9010   24.2140   32.3330 C   0  0  0  0  0  0  0  0  0  0  0  0
   39.5660   25.3090   32.1410 O   0  0  0  0  0  0  0  0  0  0  0  0
   37.8780   24.1680   33.3670 N   0  0  0  0  0  0  0  0  0  0  0  0
   37.3130   23.3450   33.5600 H   0  0  0  0  0  0  0  0  0  0  0  0
   39.1350   23.0420   31.5640 O   0  0  0  0  0  0  0  0  0  0  0  0
   38.8440   23.0630   30.2050 C   0  0  0  0  0  0  0  0  0  0  0  0
   39.0080   22.0370   29.5090 O   0  0  0  0  0  0  0  0  0  0  0  0
   38.3630   24.2630   29.6400 N   0  0  0  0  0  0  0  0  0  0  0  0
   38.4280   24.3810   28.5990 H   0  0  0  0  0  0  0  0  0  0  0  0
   37.9540   25.0160   30.2310 H   0  0  0  0  0  0  0  0  0  0  0  0
  1  2  1  0  0  0  0
  1 12  1  0  0  0  0
  2  7  1  0  0  0  0
  3  2  2  0  0  0  0
  3  8  1  0  0  0  0
  4  3  1  0  0  0  0
  5  6  1  0  0  0  0
  5  4  2  0  0  0  0
  6  1  2  0  0  0  0
  9  4  1  0  0  0  0
 10  5  1  0  0  0  0
 11 17  1  0  0  0  0
 11 16  1  0  0  0  0
 12 11  2  0  0  0  0
 13 12  1  0  0  0  0
 13 14  2  0  0  0  0
 14 15  1  0  0  0  0
 15 16  2  0  0  0  0
 15 19  1  0  0  0  0
 18 13  1  0  0  0  0
 20 22  1  0  0  0  0
 21 20  2  0  0  0  0
 22 23  1  0  0  0  0
 22  6  1  0  0  0  0
 24 20  1  0  0  0  0
 25 24  1  0  0  0  0
 26 25  2  0  0  0  0
 27 25  1  0  0  0  0
 27 29  1  0  0  0  0
 28 27  1  0  0  0  0
M  END
>  <minimizedAffinity>
-4.39552259

$$$$
