
 OpenBabel03262521013D

 33 34  0  0  1  0  0  0  0  0999 V2000
   39.6070   32.9050   46.2530 N   0  0  0  0  0  0  0  0  0  0  0  0
   38.2830   32.3880   46.0810 C   0  0  1  0  0  0  0  0  0  0  0  0
   37.9200   32.3820   44.6230 C   0  0  0  0  0  0  0  0  0  0  0  0
   38.8980   31.5430   43.9340 N   0  0  0  0  0  0  0  0  0  0  0  0
   40.1500   32.3220   43.9920 C   0  0  0  0  0  0  0  0  0  0  0  0
   40.5970   32.2670   45.4510 C   0  0  2  0  0  0  0  0  0  0  0  0
   39.8850   33.1390   47.2070 H   0  0  0  0  0  0  0  0  0  0  0  0
   37.5700   32.9950   46.6470 H   0  0  0  0  0  0  0  0  0  0  0  0
   37.8950   33.3860   44.1730 H   0  0  0  0  0  0  0  0  0  0  0  0
   36.9150   31.8910   44.5480 H   0  0  0  0  0  0  0  0  0  0  0  0
   39.0030   30.6450   44.4360 H   0  0  0  0  0  0  0  0  0  0  0  0
   39.8980   33.3600   43.7130 H   0  0  0  0  0  0  0  0  0  0  0  0
   40.9240   31.8990   43.3500 H   0  0  0  0  0  0  0  0  0  0  0  0
   41.5260   32.8770   45.5170 H   0  0  0  0  0  0  0  0  0  0  0  0
   40.8430   30.8850   45.8050 N   0  0  0  0  0  0  0  0  0  0  0  0
   40.9220   30.8380   46.8620 H   0  0  0  0  0  0  0  0  0  0  0  0
   41.8240   30.6660   45.4620 H   0  0  0  0  0  0  0  0  0  0  0  0
   38.1480   30.6450   46.6490 S   0  0  0  0  0  0  0  0  0  0  0  0
   35.9170   31.1800   49.9830 C   0  0  0  0  0  0  0  0  0  0  0  0
   36.8980   31.3680   49.0300 C   0  0  0  0  0  0  0  0  0  0  0  0
   36.9470   30.5290   47.9530 C   0  0  0  0  0  0  0  0  0  0  0  0
   36.0060   29.5160   47.8570 N   0  0  0  0  0  0  0  0  0  0  0  0
   35.0840   29.3910   48.8130 C   0  0  0  0  0  0  0  0  0  0  0  0
   35.0140   30.1960   49.8740 N   0  0  0  0  0  0  0  0  0  0  0  0
   35.8510   31.8310   50.8520 H   0  0  0  0  0  0  0  0  0  0  0  0
   37.6240   32.1580   49.1140 H   0  0  0  0  0  0  0  0  0  0  0  0
   34.0970   28.3140   48.6950 C   0  0  0  0  0  0  0  0  0  0  0  0
   34.3090   27.2390   48.0810 O   0  0  0  0  0  0  0  0  0  0  0  0
   30.6590   28.0270   49.2840 H   0  0  0  0  0  0  0  0  0  0  0  0
   31.6340   27.8910   48.8060 C   0  0  0  0  0  0  0  0  0  0  0  0
   31.6860   27.1800   47.7720 O   0  0  0  0  0  0  0  0  0  0  0  0
   32.8130   28.4840   49.3110 N   0  0  0  0  0  0  0  0  0  0  0  0
   32.7740   29.0810   50.1790 H   0  0  0  0  0  0  0  0  0  0  0  0
  1  7  1  0  0  0  0
  2  1  1  0  0  0  0
  2  8  1  1  0  0  0
  2 18  1  0  0  0  0
  3  2  1  0  0  0  0
  4  5  1  0  0  0  0
  4 11  1  0  0  0  0
  4  3  1  0  0  0  0
  5  6  1  0  0  0  0
  6 14  1  1  0  0  0
  6 15  1  0  0  0  0
  6  1  1  0  0  0  0
  9  3  1  0  0  0  0
 10  3  1  0  0  0  0
 12  5  1  0  0  0  0
 13  5  1  0  0  0  0
 15 16  1  0  0  0  0
 17 15  1  0  0  0  0
 18 21  1  0  0  0  0
 19 25  1  0  0  0  0
 20 26  1  0  0  0  0
 20 19  2  0  0  0  0
 21 20  1  0  0  0  0
 22 21  2  0  0  0  0
 22 23  1  0  0  0  0
 23 24  2  0  0  0  0
 24 19  1  0  0  0  0
 27 23  1  0  0  0  0
 27 32  1  0  0  0  0
 28 27  2  0  0  0  0
 30 29  1  0  0  0  0
 30 32  1  0  0  0  0
 31 30  2  0  0  0  0
 32 33  1  0  0  0  0
M  END
>  <minimizedAffinity>
-5.32095909

>  <minimizedRMSD>
1.54377377

$$$$
