REMARK  Name = 
REMARK  3 active torsions:
REMARK  status: ('A' for Active; 'I' for Inactive)
REMARK    1  A    between atoms: C_2  and  C_12
REMARK    2  A    between atoms: C_6  and  O_16
REMARK    3  A    between atoms: O_16  and  C_24
REMARK                            x       y       z     vdW  Elec       q    Type
REMARK                         _______ _______ _______ _____ _____    ______ ____
ROOT
ATOM      1  C   UNL     1      36.846  30.563  46.913  0.00  0.00    +0.000 A 
ATOM      2  C   UNL     1      37.510  31.034  48.027  0.00  0.00    +0.000 A 
ATOM      3  C   UNL     1      38.501  31.978  47.886  0.00  0.00    +0.000 A 
ATOM      4  C   UNL     1      38.791  32.420  46.599  0.00  0.00    +0.000 A 
ATOM      5  N   UNL     1      39.734  33.350  46.220  0.00  0.00    +0.000 N 
ATOM      6  C   UNL     1      39.643  33.441  44.897  0.00  0.00    +0.000 A 
ATOM      7  N   UNL     1      38.703  32.629  44.414  0.00  0.00    +0.000 NA
ATOM      8  C   UNL     1      38.153  31.975  45.466  0.00  0.00    +0.000 A 
ATOM      9  C   UNL     1      37.157  31.024  45.634  0.00  0.00    +0.000 A 
ATOM     10  H   UNL     1      36.069  29.834  46.937  0.00  0.00    +0.000 HD
ATOM     11  H   UNL     1      39.021  32.349  48.744  0.00  0.00    +0.000 HD
ATOM     12  H   UNL     1      40.374  33.857  46.900  0.00  0.00    +0.000 HD
ATOM     13  H   UNL     1      36.658  30.676  44.747  0.00  0.00    +0.000 HD
ENDROOT
BRANCH   2  16
ATOM     14  C   UNL     1      37.391  30.107  51.666  0.00  0.00    +0.000 A 
ATOM     15  C   UNL     1      37.870  30.668  50.485  0.00  0.00    +0.000 A 
ATOM     16  C   UNL     1      37.125  30.502  49.321  0.00  0.00    +0.000 A 
ATOM     17  N   UNL     1      35.955  29.794  49.392  0.00  0.00    +0.000 NA
ATOM     18  C   UNL     1      35.515  29.259  50.560  0.00  0.00    +0.000 A 
ATOM     19  N   UNL     1      36.222  29.415  51.670  0.00  0.00    +0.000 NA
ATOM     20  H   UNL     1      37.970  30.238  52.560  0.00  0.00    +0.000 HD
ATOM     21  H   UNL     1      38.789  31.224  50.430  0.00  0.00    +0.000 HD
ATOM     22  H   UNL     1      34.589  28.713  50.554  0.00  0.00    +0.000 HD
ENDBRANCH   2  16
BRANCH   6  23
ATOM     23  O   UNL     1      40.481  34.316  44.210  0.00  0.00    +0.000 OA
BRANCH  23  24
ATOM     24  C   UNL     1      40.211  35.623  43.922  0.00  0.00    +0.000 C 
ATOM     25  O   UNL     1      39.245  36.414  43.683  0.00  0.00    +0.000 OA
ATOM     26  N   UNL     1      41.439  36.375  43.869  0.00  0.00    +0.000 N 
ATOM     27  H   UNL     1      42.268  36.897  43.566  0.00  0.00    +0.000 HD
ATOM     28  H   UNL     1      41.823  36.558  44.824  0.00  0.00    +0.000 HD
ENDBRANCH  23  24
ENDBRANCH   6  23
TORSDOF 3
