REMARK  Name = 
REMARK  2 active torsions:
REMARK  status: ('A' for Active; 'I' for Inactive)
REMARK    1  A    between atoms: C_5  and  O_7
REMARK    2  A    between atoms: O_7  and  C_11
REMARK                            x       y       z     vdW  Elec       q    Type
REMARK                         _______ _______ _______ _____ _____    ______ ____
ROOT
ATOM      1  C   UNL     1      37.330  30.235  51.419  0.00  0.00    +0.000 A 
ATOM      2  C   UNL     1      38.074  30.733  50.345  0.00  0.00    +0.000 A 
ATOM      3  C   UNL     1      37.700  30.375  49.046  0.00  0.00    +0.000 A 
ATOM      4  N   UNL     1      36.621  29.551  48.897  0.00  0.00    +0.000 NA
ATOM      5  C   UNL     1      35.924  29.086  49.955  0.00  0.00    +0.000 A 
ATOM      6  N   UNL     1      36.278  29.429  51.223  0.00  0.00    +0.000 NA
ATOM      7  H   UNL     1      37.616  30.510  52.438  0.00  0.00    +0.000 HD
ATOM      8  H   UNL     1      38.914  31.377  50.513  0.00  0.00    +0.000 HD
ATOM      9  H   UNL     1      38.242  30.733  48.170  0.00  0.00    +0.000 HD
ENDROOT
BRANCH   5  10
ATOM     10  O   UNL     1      34.865  28.266  49.604  0.00  0.00    +0.000 OA
BRANCH  10  11
ATOM     11  C   UNL     1      33.587  28.805  49.365  0.00  0.00    +0.000 C 
ATOM     12  O   UNL     1      32.671  28.971  50.241  0.00  0.00    +0.000 OA
ATOM     13  N   UNL     1      33.205  29.228  48.061  0.00  0.00    +0.000 N 
ATOM     14  H   UNL     1      33.281  28.357  47.468  0.00  0.00    +0.000 HD
ATOM     15  H   UNL     1      32.895  30.097  47.574  0.00  0.00    +0.000 HD
ENDBRANCH  10  11
ENDBRANCH   5  10
TORSDOF 2
