
 OpenBabel03272510243D

 28 30  0  0  0  0  0  0  0  0999 V2000
   37.1520   30.6080   45.3510 C   0  0  0  0  0  0  0  0  0  0  0  0
   38.1600   30.9920   46.2130 C   0  0  0  0  0  0  0  0  0  0  0  0
   39.4720   30.9200   45.8070 C   0  0  0  0  0  0  0  0  0  0  0  0
   39.7250   30.4540   44.5210 C   0  0  0  0  0  0  0  0  0  0  0  0
   40.9480   30.2980   43.9060 N   0  0  0  0  0  0  0  0  0  0  0  0
   40.6860   29.8260   42.6910 C   0  0  0  0  0  0  0  0  0  0  0  0
   39.3760   29.6740   42.4970 N   0  0  0  0  0  0  0  0  0  0  0  0
   38.7500   30.0620   43.6350 C   0  0  0  0  0  0  0  0  0  0  0  0
   37.4340   30.1440   44.0670 C   0  0  0  0  0  0  0  0  0  0  0  0
   36.1140   30.6330   45.5880 H   0  0  0  0  0  0  0  0  0  0  0  0
   40.2600   31.2160   46.4680 H   0  0  0  0  0  0  0  0  0  0  0  0
   41.8770   30.5270   44.3670 H   0  0  0  0  0  0  0  0  0  0  0  0
   36.6720   29.8370   43.3730 H   0  0  0  0  0  0  0  0  0  0  0  0
   37.9180   32.8990   49.4410 C   0  0  0  0  0  0  0  0  0  0  0  0
   38.3740   32.5470   48.1730 C   0  0  0  0  0  0  0  0  0  0  0  0
   37.7800   31.4630   47.5320 C   0  0  0  0  0  0  0  0  0  0  0  0
   36.7760   30.7930   48.1790 N   0  0  0  0  0  0  0  0  0  0  0  0
   36.3550   31.1620   49.4160 C   0  0  0  0  0  0  0  0  0  0  0  0
   36.9180   32.1940   50.0290 N   0  0  0  0  0  0  0  0  0  0  0  0
   38.3800   33.7350   49.9300 H   0  0  0  0  0  0  0  0  0  0  0  0
   39.1620   33.0730   47.6660 H   0  0  0  0  0  0  0  0  0  0  0  0
   35.5630   30.5980   49.8740 H   0  0  0  0  0  0  0  0  0  0  0  0
   41.7370   29.5630   41.8160 O   0  0  0  0  0  0  0  0  0  0  0  0
   41.6160   29.2390   40.4950 C   0  0  0  0  0  0  0  0  0  0  0  0
   40.8940   28.5670   39.6940 O   0  0  0  0  0  0  0  0  0  0  0  0
   42.6660   29.8740   39.7390 N   0  0  0  0  0  0  0  0  0  0  0  0
   43.5130   30.0760   39.1990 H   0  0  0  0  0  0  0  0  0  0  0  0
   42.4870   30.8960   39.6100 H   0  0  0  0  0  0  0  0  0  0  0  0
  1 10  1  0  0  0  0
  1  2  1  0  0  0  0
  2 16  1  0  0  0  0
  3  2  2  0  0  0  0
  3 11  1  0  0  0  0
  4  3  1  0  0  0  0
  5 12  1  0  0  0  0
  5  4  1  0  0  0  0
  6  5  1  0  0  0  0
  7  6  2  0  0  0  0
  7  8  1  0  0  0  0
  8  9  1  0  0  0  0
  8  4  2  0  0  0  0
  9  1  2  0  0  0  0
 13  9  1  0  0  0  0
 14 20  1  0  0  0  0
 14 19  1  0  0  0  0
 15 14  2  0  0  0  0
 16 15  1  0  0  0  0
 16 17  2  0  0  0  0
 17 18  1  0  0  0  0
 18 22  1  0  0  0  0
 18 19  2  0  0  0  0
 21 15  1  0  0  0  0
 23  6  1  0  0  0  0
 24 23  1  0  0  0  0
 25 24  2  0  0  0  0
 26 24  1  0  0  0  0
 27 26  1  0  0  0  0
 28 26  1  0  0  0  0
M  END
>  <minimizedAffinity>
-5.26152754

>  <minimizedRMSD>
4.31546497

$$$$
