
 OpenBabel03272509173D

 29 30  0  0  0  0  0  0  0  0999 V2000
   37.9950   31.3670   47.6370 C   0  0  0  0  0  0  0  0  0  0  0  0
   37.0760   31.3050   48.6720 C   0  0  0  0  0  0  0  0  0  0  0  0
   37.2070   32.3460   49.6040 C   0  0  0  0  0  0  0  0  0  0  0  0
   38.1900   33.3340   49.4610 C   0  0  0  0  0  0  0  0  0  0  0  0
   39.0600   33.2970   48.3800 C   0  0  0  0  0  0  0  0  0  0  0  0
   38.9580   32.2830   47.4420 C   0  0  0  0  0  0  0  0  0  0  0  0
   36.5350   32.3890   50.4520 H   0  0  0  0  0  0  0  0  0  0  0  0
   38.2600   34.1280   50.2060 H   0  0  0  0  0  0  0  0  0  0  0  0
   39.7970   34.0900   48.3280 H   0  0  0  0  0  0  0  0  0  0  0  0
   34.9280   30.3350   48.0100 C   0  0  0  0  0  0  0  0  0  0  0  0
   36.0770   30.2960   48.8110 C   0  0  0  0  0  0  0  0  0  0  0  0
   36.2060   29.2480   49.7370 C   0  0  0  0  0  0  0  0  0  0  0  0
   35.1990   28.3260   49.8010 N   0  0  0  0  0  0  0  0  0  0  0  0
   34.1020   28.4050   49.0030 C   0  0  0  0  0  0  0  0  0  0  0  0
   33.9660   29.4030   48.1130 N   0  0  0  0  0  0  0  0  0  0  0  0
   34.8460   31.1480   47.3040 H   0  0  0  0  0  0  0  0  0  0  0  0
   33.3110   27.6690   49.0630 H   0  0  0  0  0  0  0  0  0  0  0  0
   37.3950   29.1600   50.6040 C   0  0  0  0  0  0  0  0  0  0  0  0
   38.1650   29.8500   50.2070 H   0  0  0  0  0  0  0  0  0  0  0  0
   37.1310   29.5330   51.6180 H   0  0  0  0  0  0  0  0  0  0  0  0
   37.7830   28.1160   50.6890 H   0  0  0  0  0  0  0  0  0  0  0  0
   37.9310   30.3500   46.6500 O   0  0  0  0  0  0  0  0  0  0  0  0
   37.5610   30.7010   45.7590 H   0  0  0  0  0  0  0  0  0  0  0  0
   39.8370   32.2620   46.3690 O   0  0  0  0  0  0  0  0  0  0  0  0
   39.5190   33.0820   45.2700 C   0  0  0  0  0  0  0  0  0  0  0  0
   40.2280   33.9560   44.7310 O   0  0  0  0  0  0  0  0  0  0  0  0
   38.2240   32.8680   44.7270 N   0  0  0  0  0  0  0  0  0  0  0  0
   37.6090   33.6320   45.1100 H   0  0  0  0  0  0  0  0  0  0  0  0
   37.3010   32.6640   44.3000 H   0  0  0  0  0  0  0  0  0  0  0  0
  1  2  1  0  0  0  0
  2 11  1  0  0  0  0
  2  3  2  0  0  0  0
  3  7  1  0  0  0  0
  4  3  1  0  0  0  0
  4  8  1  0  0  0  0
  5  4  2  0  0  0  0
  6  1  2  0  0  0  0
  6  5  1  0  0  0  0
  9  5  1  0  0  0  0
 10 15  2  0  0  0  0
 10 11  1  0  0  0  0
 11 12  2  0  0  0  0
 12 13  1  0  0  0  0
 12 18  1  0  0  0  0
 14 17  1  0  0  0  0
 14 13  2  0  0  0  0
 15 14  1  0  0  0  0
 16 10  1  0  0  0  0
 18 21  1  0  0  0  0
 18 20  1  0  0  0  0
 19 18  1  0  0  0  0
 22  1  1  0  0  0  0
 23 22  1  0  0  0  0
 24  6  1  0  0  0  0
 25 24  1  0  0  0  0
 26 25  2  0  0  0  0
 27 28  1  0  0  0  0
 27 25  1  0  0  0  0
 29 27  1  0  0  0  0
M  END
>  <minimizedAffinity>
-6.34176445

>  <minimizedRMSD>
0.155599773

$$$$
