
 OpenBabel03272509453D

 15 15  0  0  0  0  0  0  0  0999 V2000
   37.4700   30.2920   51.3260 C   0  0  0  0  0  0  0  0  0  0  0  0
   38.2050   30.9280   50.3200 C   0  0  0  0  0  0  0  0  0  0  0  0
   37.8950   30.6510   48.9850 C   0  0  0  0  0  0  0  0  0  0  0  0
   36.8850   29.7660   48.7350 N   0  0  0  0  0  0  0  0  0  0  0  0
   36.1950   29.1680   49.7290 C   0  0  0  0  0  0  0  0  0  0  0  0
   36.4870   29.4320   51.0320 N   0  0  0  0  0  0  0  0  0  0  0  0
   37.7070   30.5040   52.3730 H   0  0  0  0  0  0  0  0  0  0  0  0
   38.9900   31.6150   50.5670 H   0  0  0  0  0  0  0  0  0  0  0  0
   38.4330   31.1170   48.1590 H   0  0  0  0  0  0  0  0  0  0  0  0
   35.2100   28.3050   49.2790 O   0  0  0  0  0  0  0  0  0  0  0  0
   33.8490   28.6020   49.4780 C   0  0  0  0  0  0  0  0  0  0  0  0
   32.8630   27.9750   48.9600 O   0  0  0  0  0  0  0  0  0  0  0  0
   33.4530   29.6810   50.3170 N   0  0  0  0  0  0  0  0  0  0  0  0
   33.8870   30.5350   49.8720 H   0  0  0  0  0  0  0  0  0  0  0  0
   32.8940   29.8410   51.1840 H   0  0  0  0  0  0  0  0  0  0  0  0
  1  7  1  0  0  0  0
  2  8  1  0  0  0  0
  2  1  2  0  0  0  0
  3  2  1  0  0  0  0
  4  3  2  0  0  0  0
  4  5  1  0  0  0  0
  5  6  2  0  0  0  0
  6  1  1  0  0  0  0
  9  3  1  0  0  0  0
 10 11  1  0  0  0  0
 10  5  1  0  0  0  0
 11 13  1  0  0  0  0
 12 11  2  0  0  0  0
 13 15  1  0  0  0  0
 14 13  1  0  0  0  0
M  END
>  <minimizedAffinity>
-3.89762592

>  <minimizedRMSD>
0.397326112

$$$$
