
 OpenBabel03272502573D

 30 31  0  0  1  0  0  0  0  0999 V2000
   35.9420   29.7120   48.8330 N   0  0  0  0  0  0  0  0  0  0  0  0
   36.6590   28.8680   49.7660 C   0  0  0  0  0  0  0  0  0  0  0  0
   37.1120   29.4620   51.0180 C   0  0  0  0  0  0  0  0  0  0  0  0
   37.3720   30.9190   51.0450 C   0  0  0  0  0  0  0  0  0  0  0  0
   36.6590   31.6990   49.9750 C   0  0  0  0  0  0  0  0  0  0  0  0
   36.6980   30.9250   48.6740 C   0  0  1  0  0  0  0  0  0  0  0  0
   35.9830   27.9960   49.9590 H   0  0  0  0  0  0  0  0  0  0  0  0
   37.5250   28.4440   49.2180 H   0  0  0  0  0  0  0  0  0  0  0  0
   38.0590   28.9560   51.3540 H   0  0  0  0  0  0  0  0  0  0  0  0
   36.3880   29.1870   51.8370 H   0  0  0  0  0  0  0  0  0  0  0  0
   38.4640   31.1880   51.0140 H   0  0  0  0  0  0  0  0  0  0  0  0
   37.0270   31.3510   52.0190 H   0  0  0  0  0  0  0  0  0  0  0  0
   37.2320   32.6490   49.8160 H   0  0  0  0  0  0  0  0  0  0  0  0
   35.6030   31.8930   50.2230 H   0  0  0  0  0  0  0  0  0  0  0  0
   36.3170   31.5900   47.8600 H   0  0  0  0  0  0  0  0  0  0  0  0
   34.7040   29.3820   48.1950 C   0  0  0  0  0  0  0  0  0  0  0  0
   34.2090   30.0470   47.0750 C   0  0  0  0  0  0  0  0  0  0  0  0
   32.9870   29.6170   46.5560 C   0  0  0  0  0  0  0  0  0  0  0  0
   32.3520   28.5780   47.1710 N   0  0  0  0  0  0  0  0  0  0  0  0
   32.8760   27.9770   48.2440 C   0  0  0  0  0  0  0  0  0  0  0  0
   34.0510   28.3750   48.7620 N   0  0  0  0  0  0  0  0  0  0  0  0
   34.7800   30.8470   46.6670 H   0  0  0  0  0  0  0  0  0  0  0  0
   32.6400   30.1600   45.6870 H   0  0  0  0  0  0  0  0  0  0  0  0
   32.2920   27.1600   48.6610 H   0  0  0  0  0  0  0  0  0  0  0  0
   38.0660   30.6510   48.4360 O   0  0  0  0  0  0  0  0  0  0  0  0
   38.7920   31.4700   47.5670 C   0  0  0  0  0  0  0  0  0  0  0  0
   38.7110   32.7260   47.6290 O   0  0  0  0  0  0  0  0  0  0  0  0
   39.6850   31.0580   46.5330 N   0  0  0  0  0  0  0  0  0  0  0  0
   40.6740   31.4200   46.5840 H   0  0  0  0  0  0  0  0  0  0  0  0
   39.1020   30.4480   45.9210 H   0  0  0  0  0  0  0  0  0  0  0  0
  1  2  1  0  0  0  0
  2  7  1  0  0  0  0
  2  3  1  0  0  0  0
  3  4  1  0  0  0  0
  3  9  1  0  0  0  0
  3 10  1  0  0  0  0
  4 12  1  0  0  0  0
  5 14  1  0  0  0  0
  5  4  1  0  0  0  0
  6 15  1  6  0  0  0
  6  1  1  0  0  0  0
  6  5  1  0  0  0  0
  8  2  1  0  0  0  0
 11  4  1  0  0  0  0
 13  5  1  0  0  0  0
 16 21  1  0  0  0  0
 16  1  1  0  0  0  0
 17 16  2  0  0  0  0
 18 17  1  0  0  0  0
 18 19  2  0  0  0  0
 19 20  1  0  0  0  0
 20 24  1  0  0  0  0
 20 21  2  0  0  0  0
 22 17  1  0  0  0  0
 23 18  1  0  0  0  0
 25  6  1  0  0  0  0
 26 27  2  0  0  0  0
 26 25  1  0  0  0  0
 28 29  1  0  0  0  0
 28 26  1  0  0  0  0
 30 28  1  0  0  0  0
M  END
>  <minimizedAffinity>
-4.99396133

>  <minimizedRMSD>
0.489744097

$$$$
