
 OpenBabel03272503253D

 28 29  0  0  1  0  0  0  0  0999 V2000
   36.5080   29.8540   49.3330 N   0  0  0  0  0  0  0  0  0  0  0  0
   37.1170   31.1600   49.1740 C   0  0  1  0  0  0  0  0  0  0  0  0
   37.8160   31.3190   50.5220 C   0  0  0  0  0  0  0  0  0  0  0  0
   37.3320   30.1680   51.3940 C   0  0  0  0  0  0  0  0  0  0  0  0
   37.2300   29.0830   50.3250 C   0  0  0  0  0  0  0  0  0  0  0  0
   36.3600   31.9480   49.1160 H   0  0  0  0  0  0  0  0  0  0  0  0
   38.9030   31.1370   50.3520 H   0  0  0  0  0  0  0  0  0  0  0  0
   37.6300   32.3000   50.9750 H   0  0  0  0  0  0  0  0  0  0  0  0
   38.0400   29.9150   52.1790 H   0  0  0  0  0  0  0  0  0  0  0  0
   36.2890   30.3630   51.7480 H   0  0  0  0  0  0  0  0  0  0  0  0
   36.6350   28.2750   50.7480 H   0  0  0  0  0  0  0  0  0  0  0  0
   38.2420   28.8230   49.9910 H   0  0  0  0  0  0  0  0  0  0  0  0
   35.3620   29.4100   48.6150 C   0  0  0  0  0  0  0  0  0  0  0  0
   34.7500   30.3060   47.7230 C   0  0  0  0  0  0  0  0  0  0  0  0
   33.6170   29.8820   47.0150 C   0  0  0  0  0  0  0  0  0  0  0  0
   33.1770   28.6050   47.2390 N   0  0  0  0  0  0  0  0  0  0  0  0
   33.7880   27.7780   48.0980 C   0  0  0  0  0  0  0  0  0  0  0  0
   34.8870   28.1710   48.7960 N   0  0  0  0  0  0  0  0  0  0  0  0
   35.0950   31.3140   47.5440 H   0  0  0  0  0  0  0  0  0  0  0  0
   33.1380   30.5650   46.3250 H   0  0  0  0  0  0  0  0  0  0  0  0
   33.3550   26.7930   48.1980 H   0  0  0  0  0  0  0  0  0  0  0  0
   38.0670   31.2380   48.0650 C   0  0  0  0  0  0  0  0  0  0  0  0
   39.0010   32.0010   48.1070 O   0  0  0  0  0  0  0  0  0  0  0  0
   37.9470   30.3880   44.6840 H   0  0  0  0  0  0  0  0  0  0  0  0
   37.9530   31.0460   45.5450 C   0  0  0  0  0  0  0  0  0  0  0  0
   37.8770   32.3190   45.4800 O   0  0  0  0  0  0  0  0  0  0  0  0
   38.0490   30.4960   46.8520 N   0  0  0  0  0  0  0  0  0  0  0  0
   38.1110   29.4740   46.9340 H   0  0  0  0  0  0  0  0  0  0  0  0
  1  5  1  0  0  0  0
  2  6  1  6  0  0  0
  2  1  1  0  0  0  0
  2  3  1  0  0  0  0
  3  8  1  0  0  0  0
  3  4  1  0  0  0  0
  4 10  1  0  0  0  0
  4  9  1  0  0  0  0
  5 11  1  0  0  0  0
  5  4  1  0  0  0  0
  7  3  1  0  0  0  0
 12  5  1  0  0  0  0
 13 18  1  0  0  0  0
 13  1  1  0  0  0  0
 14 13  2  0  0  0  0
 15 16  2  0  0  0  0
 15 14  1  0  0  0  0
 16 17  1  0  0  0  0
 17 21  1  0  0  0  0
 17 18  2  0  0  0  0
 19 14  1  0  0  0  0
 20 15  1  0  0  0  0
 22 23  2  0  0  0  0
 22  2  1  0  0  0  0
 24 25  1  0  0  0  0
 25 27  1  0  0  0  0
 26 25  2  0  0  0  0
 27 28  1  0  0  0  0
 27 22  1  0  0  0  0
M  END
>  <minimizedAffinity>
-5.0121603

>  <minimizedRMSD>
0.621401489

$$$$
