
 OpenBabel03262523303D

 29 31  0  0  0  0  0  0  0  0999 V2000
   37.5730   29.5400   50.6180 C   0  0  0  0  0  0  0  0  0  0  0  0
   38.1050   30.2750   49.5730 C   0  0  0  0  0  0  0  0  0  0  0  0
   37.4150   30.3150   48.3560 C   0  0  0  0  0  0  0  0  0  0  0  0
   36.2340   29.6230   48.2420 N   0  0  0  0  0  0  0  0  0  0  0  0
   35.7500   28.9150   49.2920 C   0  0  0  0  0  0  0  0  0  0  0  0
   36.4110   28.8760   50.4620 N   0  0  0  0  0  0  0  0  0  0  0  0
   38.1070   29.5150   51.5440 H   0  0  0  0  0  0  0  0  0  0  0  0
   39.0340   30.8190   49.6610 H   0  0  0  0  0  0  0  0  0  0  0  0
   37.2700   30.7360   45.9740 C   0  0  0  0  0  0  0  0  0  0  0  0
   37.8770   31.0520   47.1950 C   0  0  0  0  0  0  0  0  0  0  0  0
   38.8640   32.0210   47.2540 C   0  0  0  0  0  0  0  0  0  0  0  0
   39.2270   32.6600   46.0870 C   0  0  0  0  0  0  0  0  0  0  0  0
   40.1460   33.6250   45.8880 N   0  0  0  0  0  0  0  0  0  0  0  0
   40.1310   33.9220   44.5730 C   0  0  0  0  0  0  0  0  0  0  0  0
   39.2280   33.1740   43.9380 N   0  0  0  0  0  0  0  0  0  0  0  0
   38.6430   32.3720   44.8560 C   0  0  0  0  0  0  0  0  0  0  0  0
   37.6530   31.3960   44.8120 C   0  0  0  0  0  0  0  0  0  0  0  0
   36.4930   29.9900   45.8550 H   0  0  0  0  0  0  0  0  0  0  0  0
   39.3270   32.2600   48.1890 H   0  0  0  0  0  0  0  0  0  0  0  0
   40.7890   34.1080   46.5500 H   0  0  0  0  0  0  0  0  0  0  0  0
   40.7210   34.6460   44.0130 H   0  0  0  0  0  0  0  0  0  0  0  0
   37.1860   31.1590   43.8490 H   0  0  0  0  0  0  0  0  0  0  0  0
   34.4920   28.2070   49.1000 C   0  0  0  0  0  0  0  0  0  0  0  0
   34.3880   27.2790   48.2660 O   0  0  0  0  0  0  0  0  0  0  0  0
   32.6040   30.4910   50.9130 H   0  0  0  0  0  0  0  0  0  0  0  0
   33.3290   29.9840   50.3180 C   0  0  0  0  0  0  0  0  0  0  0  0
   34.2290   30.8280   49.9860 O   0  0  0  0  0  0  0  0  0  0  0  0
   33.3910   28.6220   49.9050 N   0  0  0  0  0  0  0  0  0  0  0  0
   32.5960   28.0360   50.2430 H   0  0  0  0  0  0  0  0  0  0  0  0
  1  7  1  0  0  0  0
  2  8  1  0  0  0  0
  2  1  2  0  0  0  0
  3  2  1  0  0  0  0
  4  3  2  0  0  0  0
  4  5  1  0  0  0  0
  5  6  2  0  0  0  0
  6  1  1  0  0  0  0
  9 10  1  0  0  0  0
 10 11  2  0  0  0  0
 10  3  1  0  0  0  0
 11 19  1  0  0  0  0
 12 11  1  0  0  0  0
 13 12  1  0  0  0  0
 13 20  1  0  0  0  0
 14 13  1  0  0  0  0
 15 14  2  0  0  0  0
 15 16  1  0  0  0  0
 16 12  2  0  0  0  0
 17 16  1  0  0  0  0
 17  9  2  0  0  0  0
 18  9  1  0  0  0  0
 21 14  1  0  0  0  0
 22 17  1  0  0  0  0
 23  5  1  0  0  0  0
 23 28  1  0  0  0  0
 24 23  2  0  0  0  0
 26 25  1  0  0  0  0
 27 26  2  0  0  0  0
 28 29  1  0  0  0  0
 28 26  1  0  0  0  0
M  END
>  <minimizedAffinity>
-5.28068256

>  <minimizedRMSD>
0.761657298

$$$$
