
 OpenBabel03272503253D

 28 29  0  0  1  0  0  0  0  0999 V2000
   36.5360   29.8550   49.3600 N   0  0  0  0  0  0  0  0  0  0  0  0
   37.1510   31.1600   49.2150 C   0  0  1  0  0  0  0  0  0  0  0  0
   37.8210   31.3180   50.5780 C   0  0  0  0  0  0  0  0  0  0  0  0
   37.3160   30.1660   51.4390 C   0  0  0  0  0  0  0  0  0  0  0  0
   37.2360   29.0830   50.3670 C   0  0  0  0  0  0  0  0  0  0  0  0
   36.3960   31.9500   49.1420 H   0  0  0  0  0  0  0  0  0  0  0  0
   38.9100   31.1340   50.4310 H   0  0  0  0  0  0  0  0  0  0  0  0
   37.6260   32.2980   51.0280 H   0  0  0  0  0  0  0  0  0  0  0  0
   38.0070   29.9120   52.2380 H   0  0  0  0  0  0  0  0  0  0  0  0
   36.2660   30.3630   51.7700 H   0  0  0  0  0  0  0  0  0  0  0  0
   36.6310   28.2750   50.7770 H   0  0  0  0  0  0  0  0  0  0  0  0
   38.2550   28.8210   50.0550 H   0  0  0  0  0  0  0  0  0  0  0  0
   35.4050   29.4140   48.6170 C   0  0  0  0  0  0  0  0  0  0  0  0
   34.8280   30.3030   47.6970 C   0  0  0  0  0  0  0  0  0  0  0  0
   33.7100   29.8820   46.9630 C   0  0  0  0  0  0  0  0  0  0  0  0
   33.2490   28.6130   47.1940 N   0  0  0  0  0  0  0  0  0  0  0  0
   33.8280   27.7920   48.0810 C   0  0  0  0  0  0  0  0  0  0  0  0
   34.9110   28.1830   48.8020 N   0  0  0  0  0  0  0  0  0  0  0  0
   35.1890   31.3050   47.5130 H   0  0  0  0  0  0  0  0  0  0  0  0
   33.2580   30.5600   46.2510 H   0  0  0  0  0  0  0  0  0  0  0  0
   33.3810   26.8130   48.1820 H   0  0  0  0  0  0  0  0  0  0  0  0
   38.1240   31.2380   48.1260 C   0  0  0  0  0  0  0  0  0  0  0  0
   39.0020   32.0660   48.1440 O   0  0  0  0  0  0  0  0  0  0  0  0
   38.9270   30.0230   44.9570 H   0  0  0  0  0  0  0  0  0  0  0  0
   38.9450   30.7130   45.7920 C   0  0  0  0  0  0  0  0  0  0  0  0
   39.6100   31.8030   45.8120 O   0  0  0  0  0  0  0  0  0  0  0  0
   38.1920   30.4240   46.9630 N   0  0  0  0  0  0  0  0  0  0  0  0
   37.6470   29.5540   46.9750 H   0  0  0  0  0  0  0  0  0  0  0  0
  1  5  1  0  0  0  0
  2  6  1  6  0  0  0
  2  1  1  0  0  0  0
  2  3  1  0  0  0  0
  3  8  1  0  0  0  0
  3  4  1  0  0  0  0
  4 10  1  0  0  0  0
  4  9  1  0  0  0  0
  5 11  1  0  0  0  0
  5  4  1  0  0  0  0
  7  3  1  0  0  0  0
 12  5  1  0  0  0  0
 13 18  1  0  0  0  0
 13  1  1  0  0  0  0
 14 13  2  0  0  0  0
 15 16  2  0  0  0  0
 15 14  1  0  0  0  0
 16 17  1  0  0  0  0
 17 21  1  0  0  0  0
 17 18  2  0  0  0  0
 19 14  1  0  0  0  0
 20 15  1  0  0  0  0
 22 23  2  0  0  0  0
 22  2  1  0  0  0  0
 24 25  1  0  0  0  0
 25 26  2  0  0  0  0
 25 27  1  0  0  0  0
 27 28  1  0  0  0  0
 27 22  1  0  0  0  0
M  END
>  <minimizedAffinity>
-4.97012329

>  <minimizedRMSD>
0.627523959

$$$$
