
 OpenBabel03262523303D

 29 31  0  0  0  0  0  0  0  0999 V2000
   37.9220   30.3660   50.9230 C   0  0  0  0  0  0  0  0  0  0  0  0
   38.4830   30.9130   49.7820 C   0  0  0  0  0  0  0  0  0  0  0  0
   37.9000   30.6280   48.5410 C   0  0  0  0  0  0  0  0  0  0  0  0
   36.7930   29.8160   48.5010 N   0  0  0  0  0  0  0  0  0  0  0  0
   36.2770   29.3020   49.6450 C   0  0  0  0  0  0  0  0  0  0  0  0
   36.8350   29.5750   50.8370 N   0  0  0  0  0  0  0  0  0  0  0  0
   38.3730   30.5890   51.8660 H   0  0  0  0  0  0  0  0  0  0  0  0
   39.3530   31.5500   49.8120 H   0  0  0  0  0  0  0  0  0  0  0  0
   38.3080   30.2910   46.1760 C   0  0  0  0  0  0  0  0  0  0  0  0
   38.4010   31.1450   47.2820 C   0  0  0  0  0  0  0  0  0  0  0  0
   38.9500   32.4080   47.1440 C   0  0  0  0  0  0  0  0  0  0  0  0
   39.3960   32.7980   45.8980 C   0  0  0  0  0  0  0  0  0  0  0  0
   39.9590   33.9600   45.5140 N   0  0  0  0  0  0  0  0  0  0  0  0
   40.2200   33.8570   44.1960 C   0  0  0  0  0  0  0  0  0  0  0  0
   39.8380   32.6650   43.7380 N   0  0  0  0  0  0  0  0  0  0  0  0
   39.3170   31.9750   44.7780 C   0  0  0  0  0  0  0  0  0  0  0  0
   38.7640   30.7080   44.9310 C   0  0  0  0  0  0  0  0  0  0  0  0
   37.8910   29.2920   46.2130 H   0  0  0  0  0  0  0  0  0  0  0  0
   39.0210   33.0590   47.9910 H   0  0  0  0  0  0  0  0  0  0  0  0
   40.1880   34.8230   46.0510 H   0  0  0  0  0  0  0  0  0  0  0  0
   40.6700   34.5770   43.5140 H   0  0  0  0  0  0  0  0  0  0  0  0
   38.6960   30.0510   44.0570 H   0  0  0  0  0  0  0  0  0  0  0  0
   35.1010   28.4510   49.5260 C   0  0  0  0  0  0  0  0  0  0  0  0
   35.0070   27.5940   48.6180 O   0  0  0  0  0  0  0  0  0  0  0  0
   32.6710   30.2670   51.2170 H   0  0  0  0  0  0  0  0  0  0  0  0
   33.4500   29.9200   50.5760 C   0  0  0  0  0  0  0  0  0  0  0  0
   33.7950   30.8860   49.8150 O   0  0  0  0  0  0  0  0  0  0  0  0
   34.0700   28.6410   50.4910 N   0  0  0  0  0  0  0  0  0  0  0  0
   33.6970   27.9400   51.1680 H   0  0  0  0  0  0  0  0  0  0  0  0
  1  7  1  0  0  0  0
  2  8  1  0  0  0  0
  2  1  2  0  0  0  0
  3  2  1  0  0  0  0
  4  3  2  0  0  0  0
  4  5  1  0  0  0  0
  5  6  2  0  0  0  0
  6  1  1  0  0  0  0
  9 18  1  0  0  0  0
  9 10  1  0  0  0  0
 10  3  1  0  0  0  0
 11 10  2  0  0  0  0
 11 19  1  0  0  0  0
 12 11  1  0  0  0  0
 13 12  1  0  0  0  0
 13 20  1  0  0  0  0
 14 13  1  0  0  0  0
 15 14  2  0  0  0  0
 15 16  1  0  0  0  0
 16 17  1  0  0  0  0
 16 12  2  0  0  0  0
 17  9  2  0  0  0  0
 21 14  1  0  0  0  0
 22 17  1  0  0  0  0
 23  5  1  0  0  0  0
 23 28  1  0  0  0  0
 24 23  2  0  0  0  0
 26 25  1  0  0  0  0
 27 26  2  0  0  0  0
 28 26  1  0  0  0  0
 28 29  1  0  0  0  0
M  END
>  <minimizedAffinity>
-4.49512959

>  <minimizedRMSD>
0.833837569

$$$$
