
 OpenBabel03272508513D

 25 26  0  0  1  0  0  0  0  0999 V2000
   37.6320   30.5300   46.6670 C   0  0  2  0  0  0  0  0  0  0  0  0
   36.2050   30.3780   46.4030 C   0  0  0  0  0  0  0  0  0  0  0  0
   36.7390   30.8710   47.7630 C   0  0  1  0  0  0  0  0  0  0  0  0
   38.2690   29.5900   46.8130 H   0  0  0  0  0  0  0  0  0  0  0  0
   35.6720   31.1390   45.8050 H   0  0  0  0  0  0  0  0  0  0  0  0
   35.7190   29.4090   46.4480 H   0  0  0  0  0  0  0  0  0  0  0  0
   36.3920   31.8620   48.0120 H   0  0  0  0  0  0  0  0  0  0  0  0
   40.1210   33.2400   46.2070 C   0  0  0  0  0  0  0  0  0  0  0  0
   39.9620   33.5370   44.8290 C   0  0  0  0  0  0  0  0  0  0  0  0
   39.0070   32.7990   44.0920 C   0  0  0  0  0  0  0  0  0  0  0  0
   38.2880   31.8400   44.7460 N   0  0  0  0  0  0  0  0  0  0  0  0
   38.4730   31.5940   46.0490 C   0  0  0  0  0  0  0  0  0  0  0  0
   39.3720   32.2690   46.8030 N   0  0  0  0  0  0  0  0  0  0  0  0
   40.8660   33.8340   46.7470 H   0  0  0  0  0  0  0  0  0  0  0  0
   40.5020   34.2760   44.2930 H   0  0  0  0  0  0  0  0  0  0  0  0
   38.8020   32.9390   43.0440 H   0  0  0  0  0  0  0  0  0  0  0  0
   35.5220   30.1180   49.7740 C   0  0  0  0  0  0  0  0  0  0  0  0
   34.6950   31.0240   49.6160 O   0  0  0  0  0  0  0  0  0  0  0  0
   36.6120   29.8750   48.8370 N   0  0  0  0  0  0  0  0  0  0  0  0
   37.3520   29.1110   48.7690 H   0  0  0  0  0  0  0  0  0  0  0  0
   38.0010   29.6710   52.0070 H   0  0  0  0  0  0  0  0  0  0  0  0
   37.1120   29.4990   51.3750 C   0  0  0  0  0  0  0  0  0  0  0  0
   37.6530   30.6530   51.2300 O   0  0  0  0  0  0  0  0  0  0  0  0
   35.9110   29.0380   50.6360 N   0  0  0  0  0  0  0  0  0  0  0  0
   36.1700   28.3180   51.2110 H   0  0  0  0  0  0  0  0  0  0  0  0
  1  4  1  1  0  0  0
  1  3  1  0  0  0  0
  2  6  1  0  0  0  0
  2  1  1  0  0  0  0
  2  3  1  0  0  0  0
  3  7  1  1  0  0  0
  3 19  1  0  0  0  0
  5  2  1  0  0  0  0
  8 14  1  0  0  0  0
  8 13  1  0  0  0  0
  9  8  2  0  0  0  0
 10 11  2  0  0  0  0
 10  9  1  0  0  0  0
 11 12  1  0  0  0  0
 12  1  1  0  0  0  0
 12 13  2  0  0  0  0
 15  9  1  0  0  0  0
 16 10  1  0  0  0  0
 17 24  1  0  0  0  0
 18 17  2  0  0  0  0
 19 17  1  0  0  0  0
 20 19  1  0  0  0  0
 22 21  1  0  0  0  0
 23 22  2  0  0  0  0
 24 25  1  0  0  0  0
 24 22  1  0  0  0  0
M  END
>  <minimizedAffinity>
-4.61127043

>  <minimizedRMSD>
1.77402472

$$$$
