
 OpenBabel03272500553D

 28 29  0  0  0  0  0  0  0  0999 V2000
   38.1340   32.1450   44.7120 C   0  0  0  0  0  0  0  0  0  0  0  0
   39.1520   32.9280   44.1990 C   0  0  0  0  0  0  0  0  0  0  0  0
   40.1560   33.4610   45.0010 C   0  0  0  0  0  0  0  0  0  0  0  0
   40.1220   33.1870   46.3970 C   0  0  0  0  0  0  0  0  0  0  0  0
   39.0990   32.4130   46.8580 C   0  0  0  0  0  0  0  0  0  0  0  0
   38.1270   31.8950   46.0600 C   0  0  0  0  0  0  0  0  0  0  0  0
   39.1770   33.1380   43.1410 H   0  0  0  0  0  0  0  0  0  0  0  0
   40.9070   34.0550   44.5030 H   0  0  0  0  0  0  0  0  0  0  0  0
   40.9530   33.6620   46.8770 H   0  0  0  0  0  0  0  0  0  0  0  0
   39.2540   32.3870   47.9150 H   0  0  0  0  0  0  0  0  0  0  0  0
   37.3460   30.4110   43.1950 C   0  0  0  0  0  0  0  0  0  0  0  0
   37.1400   31.7020   43.7410 C   0  0  0  0  0  0  0  0  0  0  0  0
   36.0200   32.4150   43.2860 C   0  0  0  0  0  0  0  0  0  0  0  0
   35.2140   31.8520   42.3720 N   0  0  0  0  0  0  0  0  0  0  0  0
   35.4260   30.6260   41.8640 C   0  0  0  0  0  0  0  0  0  0  0  0
   36.4930   29.9090   42.2790 N   0  0  0  0  0  0  0  0  0  0  0  0
   38.1560   29.7310   43.4360 H   0  0  0  0  0  0  0  0  0  0  0  0
   35.9150   33.3870   43.7350 H   0  0  0  0  0  0  0  0  0  0  0  0
   34.6630   30.3690   41.1490 H   0  0  0  0  0  0  0  0  0  0  0  0
   36.8970   31.3030   47.9760 C   0  0  0  0  0  0  0  0  0  0  0  0
   37.6070   32.1240   48.5810 O   0  0  0  0  0  0  0  0  0  0  0  0
   37.0940   31.0720   46.5480 N   0  0  0  0  0  0  0  0  0  0  0  0
   36.5990   30.4240   45.8880 H   0  0  0  0  0  0  0  0  0  0  0  0
   36.3880   28.5720   49.8980 H   0  0  0  0  0  0  0  0  0  0  0  0
   36.2460   29.3820   49.1640 C   0  0  0  0  0  0  0  0  0  0  0  0
   37.3960   29.4670   49.7380 O   0  0  0  0  0  0  0  0  0  0  0  0
   35.8270   30.3740   48.1290 N   0  0  0  0  0  0  0  0  0  0  0  0
   35.1430   29.7770   48.2290 H   0  0  0  0  0  0  0  0  0  0  0  0
  1  6  1  0  0  0  0
  2  1  2  0  0  0  0
  2  3  1  0  0  0  0
  3  4  2  0  0  0  0
  4  5  1  0  0  0  0
  4  9  1  0  0  0  0
  5 10  1  0  0  0  0
  6 22  1  0  0  0  0
  6  5  2  0  0  0  0
  7  2  1  0  0  0  0
  8  3  1  0  0  0  0
 11 17  1  0  0  0  0
 11 12  1  0  0  0  0
 12  1  1  0  0  0  0
 13 18  1  0  0  0  0
 13 12  2  0  0  0  0
 14 13  1  0  0  0  0
 15 16  1  0  0  0  0
 15 14  2  0  0  0  0
 16 11  2  0  0  0  0
 19 15  1  0  0  0  0
 20 27  1  0  0  0  0
 20 21  2  0  0  0  0
 22 20  1  0  0  0  0
 23 22  1  0  0  0  0
 25 26  2  0  0  0  0
 25 24  1  0  0  0  0
 27 28  1  0  0  0  0
 27 25  1  0  0  0  0
M  END
>  <minimizedAffinity>
-4.72806692

>  <minimizedRMSD>
5.40505791

$$$$
