
 OpenBabel03272508513D

 25 26  0  0  1  0  0  0  0  0999 V2000
   38.2730   30.7370   45.9000 C   0  0  2  0  0  0  0  0  0  0  0  0
   36.8850   30.5680   46.3170 C   0  0  0  0  0  0  0  0  0  0  0  0
   37.9220   31.2960   47.1960 C   0  0  1  0  0  0  0  0  0  0  0  0
   38.9690   29.8280   45.9180 H   0  0  0  0  0  0  0  0  0  0  0  0
   36.0990   31.2140   45.8860 H   0  0  0  0  0  0  0  0  0  0  0  0
   36.5290   29.6360   46.7420 H   0  0  0  0  0  0  0  0  0  0  0  0
   37.6540   32.3240   47.3900 H   0  0  0  0  0  0  0  0  0  0  0  0
   39.8210   33.5460   44.0400 C   0  0  0  0  0  0  0  0  0  0  0  0
   39.4080   33.2660   42.7120 C   0  0  0  0  0  0  0  0  0  0  0  0
   38.6110   32.1200   42.4880 C   0  0  0  0  0  0  0  0  0  0  0  0
   38.2810   31.3440   43.5620 N   0  0  0  0  0  0  0  0  0  0  0  0
   38.6950   31.6480   44.7980 C   0  0  0  0  0  0  0  0  0  0  0  0
   39.4580   32.7320   45.0700 N   0  0  0  0  0  0  0  0  0  0  0  0
   40.4340   34.4440   44.1770 H   0  0  0  0  0  0  0  0  0  0  0  0
   39.6460   33.8500   41.8590 H   0  0  0  0  0  0  0  0  0  0  0  0
   38.2410   31.8120   41.5250 H   0  0  0  0  0  0  0  0  0  0  0  0
   37.4200   30.5960   49.5080 C   0  0  0  0  0  0  0  0  0  0  0  0
   36.3250   31.1670   49.4460 O   0  0  0  0  0  0  0  0  0  0  0  0
   38.3360   30.5230   48.3760 N   0  0  0  0  0  0  0  0  0  0  0  0
   39.2610   30.0190   48.2240 H   0  0  0  0  0  0  0  0  0  0  0  0
   37.0450   29.0480   52.4740 H   0  0  0  0  0  0  0  0  0  0  0  0
   37.4870   29.4410   51.5430 C   0  0  0  0  0  0  0  0  0  0  0  0
   36.2440   29.7120   51.6950 O   0  0  0  0  0  0  0  0  0  0  0  0
   38.2990   29.8600   50.3730 N   0  0  0  0  0  0  0  0  0  0  0  0
   38.8860   29.3690   50.9490 H   0  0  0  0  0  0  0  0  0  0  0  0
  1  4  1  1  0  0  0
  1  2  1  0  0  0  0
  1  3  1  0  0  0  0
  2  6  1  0  0  0  0
  2  3  1  0  0  0  0
  3  7  1  1  0  0  0
  3 19  1  0  0  0  0
  5  2  1  0  0  0  0
  8 14  1  0  0  0  0
  8 13  1  0  0  0  0
  9  8  2  0  0  0  0
 10  9  1  0  0  0  0
 10 11  2  0  0  0  0
 11 12  1  0  0  0  0
 12 13  2  0  0  0  0
 12  1  1  0  0  0  0
 15  9  1  0  0  0  0
 16 10  1  0  0  0  0
 17 24  1  0  0  0  0
 18 17  2  0  0  0  0
 19 17  1  0  0  0  0
 20 19  1  0  0  0  0
 22 23  2  0  0  0  0
 22 21  1  0  0  0  0
 24 25  1  0  0  0  0
 24 22  1  0  0  0  0
M  END
>  <minimizedAffinity>
-4.65745068

>  <minimizedRMSD>
1.38177156

$$$$
