
 OpenBabel03272510313D

 28 29  0  0  0  0  0  0  0  0999 V2000
   37.3460   31.4010   49.3370 C   0  0  0  0  0  0  0  0  0  0  0  0
   38.1900   32.4740   49.5530 C   0  0  0  0  0  0  0  0  0  0  0  0
   38.7700   33.0020   48.4080 C   0  0  0  0  0  0  0  0  0  0  0  0
   38.5050   32.4810   47.1880 N   0  0  0  0  0  0  0  0  0  0  0  0
   37.6680   31.4210   47.0160 C   0  0  0  0  0  0  0  0  0  0  0  0
   37.0950   30.8960   48.1310 N   0  0  0  0  0  0  0  0  0  0  0  0
   38.3440   32.8240   50.5630 H   0  0  0  0  0  0  0  0  0  0  0  0
   39.4380   33.8420   48.5490 H   0  0  0  0  0  0  0  0  0  0  0  0
   36.6670   30.8070   50.5410 C   0  0  0  0  0  0  0  0  0  0  0  0
   36.1250   29.4880   50.5540 C   0  0  0  0  0  0  0  0  0  0  0  0
   37.5030   29.6720   51.1750 C   0  0  0  0  0  0  0  0  0  0  0  0
   36.3590   31.5830   51.2670 H   0  0  0  0  0  0  0  0  0  0  0  0
   36.1020   28.7820   49.7260 H   0  0  0  0  0  0  0  0  0  0  0  0
   35.3250   29.2770   51.3140 H   0  0  0  0  0  0  0  0  0  0  0  0
   38.3890   29.3080   50.6300 H   0  0  0  0  0  0  0  0  0  0  0  0
   37.6190   29.6970   52.2690 H   0  0  0  0  0  0  0  0  0  0  0  0
   37.3490   30.8320   45.7140 C   0  0  0  0  0  0  0  0  0  0  0  0
   37.0300   29.7980   45.8150 H   0  0  0  0  0  0  0  0  0  0  0  0
   36.5970   31.4410   45.1670 H   0  0  0  0  0  0  0  0  0  0  0  0
   38.8560   31.9220   44.0100 C   0  0  0  0  0  0  0  0  0  0  0  0
   38.1010   32.8870   43.7770 O   0  0  0  0  0  0  0  0  0  0  0  0
   38.6060   30.8590   44.9490 N   0  0  0  0  0  0  0  0  0  0  0  0
   39.1810   30.0140   45.2370 H   0  0  0  0  0  0  0  0  0  0  0  0
   41.6130   30.6640   45.5280 H   0  0  0  0  0  0  0  0  0  0  0  0
   40.8880   31.0180   44.7880 C   0  0  0  0  0  0  0  0  0  0  0  0
   40.4730   31.1190   45.9860 O   0  0  0  0  0  0  0  0  0  0  0  0
   40.0960   31.4300   43.5930 N   0  0  0  0  0  0  0  0  0  0  0  0
   40.9960   31.0710   43.2910 H   0  0  0  0  0  0  0  0  0  0  0  0
  1  2  1  0  0  0  0
  1  9  1  0  0  0  0
  2  7  1  0  0  0  0
  3  8  1  0  0  0  0
  3  2  2  0  0  0  0
  4  3  1  0  0  0  0
  5  4  2  0  0  0  0
  5  6  1  0  0  0  0
  6  1  2  0  0  0  0
  9 10  1  0  0  0  0
  9 11  1  0  0  0  0
  9 12  1  0  0  0  0
 10 11  1  0  0  0  0
 10 14  1  0  0  0  0
 11 16  1  0  0  0  0
 13 10  1  0  0  0  0
 15 11  1  0  0  0  0
 17 18  1  0  0  0  0
 17  5  1  0  0  0  0
 19 17  1  0  0  0  0
 20 22  1  0  0  0  0
 21 20  2  0  0  0  0
 22 23  1  0  0  0  0
 22 17  1  0  0  0  0
 25 24  1  0  0  0  0
 25 26  2  0  0  0  0
 27 20  1  0  0  0  0
 27 25  1  0  0  0  0
 28 27  1  0  0  0  0
M  END
>  <minimizedAffinity>
-5.10765791

>  <minimizedRMSD>
1.61032391

$$$$
