
 OpenBabel03272508513D

 25 26  0  0  1  0  0  0  0  0999 V2000
   39.4080   31.8730   46.6240 C   0  0  2  0  0  0  0  0  0  0  0  0
   40.0060   33.1930   46.4590 C   0  0  0  0  0  0  0  0  0  0  0  0
   39.0820   32.5740   45.3920 C   0  0  1  0  0  0  0  0  0  0  0  0
   40.0730   30.9480   46.5140 H   0  0  0  0  0  0  0  0  0  0  0  0
   39.5850   34.0600   46.9990 H   0  0  0  0  0  0  0  0  0  0  0  0
   41.0330   33.3140   46.1320 H   0  0  0  0  0  0  0  0  0  0  0  0
   38.1960   33.1660   45.2160 H   0  0  0  0  0  0  0  0  0  0  0  0
   36.2410   30.6740   48.1350 C   0  0  0  0  0  0  0  0  0  0  0  0
   36.3950   31.0930   49.4820 C   0  0  0  0  0  0  0  0  0  0  0  0
   37.5820   31.7750   49.8380 C   0  0  0  0  0  0  0  0  0  0  0  0
   38.5170   31.9940   48.8670 N   0  0  0  0  0  0  0  0  0  0  0  0
   38.3270   31.5780   47.6080 C   0  0  0  0  0  0  0  0  0  0  0  0
   37.2110   30.9220   47.2120 N   0  0  0  0  0  0  0  0  0  0  0  0
   35.3080   30.1530   47.8950 H   0  0  0  0  0  0  0  0  0  0  0  0
   35.6880   30.9410   50.2580 H   0  0  0  0  0  0  0  0  0  0  0  0
   37.8050   32.1380   50.8270 H   0  0  0  0  0  0  0  0  0  0  0  0
   39.0390   32.2730   42.9430 C   0  0  0  0  0  0  0  0  0  0  0  0
   37.9310   32.8200   42.8930 O   0  0  0  0  0  0  0  0  0  0  0  0
   39.7940   32.1370   44.1830 N   0  0  0  0  0  0  0  0  0  0  0  0
   40.7730   31.7760   44.3990 H   0  0  0  0  0  0  0  0  0  0  0  0
   38.9780   29.8930   40.5620 H   0  0  0  0  0  0  0  0  0  0  0  0
   39.3340   30.6510   41.2810 C   0  0  0  0  0  0  0  0  0  0  0  0
   38.0620   30.4890   41.2670 O   0  0  0  0  0  0  0  0  0  0  0  0
   40.0450   31.6130   42.1600 N   0  0  0  0  0  0  0  0  0  0  0  0
   40.7170   31.1720   41.6380 H   0  0  0  0  0  0  0  0  0  0  0  0
  1  4  1  6  0  0  0
  1 12  1  0  0  0  0
  2  1  1  0  0  0  0
  2  5  1  0  0  0  0
  3  7  1  6  0  0  0
  3  2  1  0  0  0  0
  3  1  1  0  0  0  0
  6  2  1  0  0  0  0
  8  9  1  0  0  0  0
  9 10  2  0  0  0  0
  9 15  1  0  0  0  0
 10 16  1  0  0  0  0
 11 10  1  0  0  0  0
 12 11  2  0  0  0  0
 13 12  1  0  0  0  0
 13  8  2  0  0  0  0
 14  8  1  0  0  0  0
 17 19  1  0  0  0  0
 18 17  2  0  0  0  0
 19 20  1  0  0  0  0
 19  3  1  0  0  0  0
 21 22  1  0  0  0  0
 22 24  1  0  0  0  0
 23 22  2  0  0  0  0
 24 17  1  0  0  0  0
 25 24  1  0  0  0  0
M  END
>  <minimizedAffinity>
-4.30897427

>  <minimizedRMSD>
6.88214684

$$$$
