
 OpenBabel03272503253D

 28 29  0  0  1  0  0  0  0  0999 V2000
   37.4680   30.9340   48.4780 N   0  0  0  0  0  0  0  0  0  0  0  0
   37.9200   31.7880   47.3980 C   0  0  1  0  0  0  0  0  0  0  0  0
   38.7260   32.8290   48.1690 C   0  0  0  0  0  0  0  0  0  0  0  0
   38.4510   32.5750   49.6470 C   0  0  0  0  0  0  0  0  0  0  0  0
   38.3590   31.0520   49.6150 C   0  0  0  0  0  0  0  0  0  0  0  0
   37.0830   32.3190   46.9320 H   0  0  0  0  0  0  0  0  0  0  0  0
   39.8040   32.5900   48.0150 H   0  0  0  0  0  0  0  0  0  0  0  0
   38.4850   33.8540   47.8650 H   0  0  0  0  0  0  0  0  0  0  0  0
   39.2540   32.9310   50.2870 H   0  0  0  0  0  0  0  0  0  0  0  0
   37.4330   32.9490   49.9190 H   0  0  0  0  0  0  0  0  0  0  0  0
   37.8940   30.7430   50.5500 H   0  0  0  0  0  0  0  0  0  0  0  0
   39.3550   30.6440   49.4050 H   0  0  0  0  0  0  0  0  0  0  0  0
   36.3090   30.1090   48.4180 C   0  0  0  0  0  0  0  0  0  0  0  0
   35.3740   30.3520   47.3990 C   0  0  0  0  0  0  0  0  0  0  0  0
   34.2270   29.5500   47.3330 C   0  0  0  0  0  0  0  0  0  0  0  0
   34.0910   28.5670   48.2770 N   0  0  0  0  0  0  0  0  0  0  0  0
   35.0070   28.3640   49.2350 C   0  0  0  0  0  0  0  0  0  0  0  0
   36.1250   29.1330   49.3160 N   0  0  0  0  0  0  0  0  0  0  0  0
   35.4770   31.1270   46.6540 H   0  0  0  0  0  0  0  0  0  0  0  0
   33.4990   29.7290   46.5520 H   0  0  0  0  0  0  0  0  0  0  0  0
   34.7980   27.5610   49.9280 H   0  0  0  0  0  0  0  0  0  0  0  0
   38.7440   31.0990   46.4050 C   0  0  0  0  0  0  0  0  0  0  0  0
   39.9480   31.1060   46.4930 O   0  0  0  0  0  0  0  0  0  0  0  0
   37.2500   30.2530   43.3700 H   0  0  0  0  0  0  0  0  0  0  0  0
   37.5330   30.8960   44.1940 C   0  0  0  0  0  0  0  0  0  0  0  0
   37.2190   32.1300   44.2860 O   0  0  0  0  0  0  0  0  0  0  0  0
   38.3050   30.3710   45.2660 N   0  0  0  0  0  0  0  0  0  0  0  0
   38.5720   29.3810   45.2190 H   0  0  0  0  0  0  0  0  0  0  0  0
  1  5  1  0  0  0  0
  2  6  1  6  0  0  0
  2  3  1  0  0  0  0
  2  1  1  0  0  0  0
  3  4  1  0  0  0  0
  4 10  1  0  0  0  0
  4  9  1  0  0  0  0
  5  4  1  0  0  0  0
  5 11  1  0  0  0  0
  7  3  1  0  0  0  0
  8  3  1  0  0  0  0
 12  5  1  0  0  0  0
 13  1  1  0  0  0  0
 13 18  1  0  0  0  0
 14 13  2  0  0  0  0
 15 14  1  0  0  0  0
 15 16  2  0  0  0  0
 16 17  1  0  0  0  0
 17 18  2  0  0  0  0
 17 21  1  0  0  0  0
 19 14  1  0  0  0  0
 20 15  1  0  0  0  0
 22 23  2  0  0  0  0
 22  2  1  0  0  0  0
 24 25  1  0  0  0  0
 25 26  2  0  0  0  0
 25 27  1  0  0  0  0
 27 22  1  0  0  0  0
 28 27  1  0  0  0  0
M  END
>  <minimizedAffinity>
-4.84190893

>  <minimizedRMSD>
1.82440567

$$$$
