
     RDKit          3D

 28 29  0  0  0  0  0  0  0  0999 V2000
   38.1028   31.1992   47.8820 C   0  0  0  0  0  0  0  0  0  0  0  0
   38.3934   30.3857   46.8008 C   0  0  0  0  0  0  0  0  0  0  0  0
   39.1960   30.8090   45.7463 C   0  0  0  0  0  0  0  0  0  0  0  0
   39.7301   32.1282   45.7909 C   0  0  0  0  0  0  0  0  0  0  0  0
   39.4162   32.8941   46.8754 C   0  0  0  0  0  0  0  0  0  0  0  0
   38.6325   32.4634   47.8997 C   0  0  0  0  0  0  0  0  0  0  0  0
   37.8475   29.9802   49.9739 C   0  0  0  0  0  0  0  0  0  0  0  0
   37.2117   30.6158   48.8784 C   0  0  0  0  0  0  0  0  0  0  0  0
   35.8095   30.6062   48.8611 C   0  0  0  0  0  0  0  0  0  0  0  0
   35.1481   30.0064   49.8628 N   0  0  0  0  0  0  0  0  0  0  0  0
   35.7665   29.4073   50.8952 C   0  0  0  0  0  0  0  0  0  0  0  0
   37.1169   29.3967   50.9462 N   0  0  0  0  0  0  0  0  0  0  0  0
   39.3899   34.2554   49.2228 C   0  0  0  0  0  0  0  0  0  0  0  0
   40.3644   34.2996   48.4541 O   0  0  0  0  0  0  0  0  0  0  0  0
   38.3435   33.2569   49.0261 N   0  0  0  0  0  0  0  0  0  0  0  0
   37.9863   29.3868   46.7648 H   0  0  0  0  0  0  0  0  0  0  0  0
   39.3652   30.0977   44.9529 H   0  0  0  0  0  0  0  0  0  0  0  0
   40.3223   32.3061   44.9170 H   0  0  0  0  0  0  0  0  0  0  0  0
   39.8786   33.8345   46.6658 H   0  0  0  0  0  0  0  0  0  0  0  0
   38.9150   29.8981   50.1405 H   0  0  0  0  0  0  0  0  0  0  0  0
   35.3840   31.1024   48.0074 H   0  0  0  0  0  0  0  0  0  0  0  0
   35.0506   28.9907   51.5843 H   0  0  0  0  0  0  0  0  0  0  0  0
   37.4660   33.0725   49.5723 H   0  0  0  0  0  0  0  0  0  0  0  0
   40.3975   34.7877   52.4027 H   0  0  0  0  0  0  0  0  0  0  0  0
   39.7940   34.7694   51.4824 C   0  0  0  0  0  0  0  0  0  0  0  0
   40.9423   34.2135   51.2995 O   0  0  0  0  0  0  0  0  0  0  0  0
   38.8004   34.8624   50.3709 N   0  0  0  0  0  0  0  0  0  0  0  0
   38.4252   35.2502   51.1068 H   0  0  0  0  0  0  0  0  0  0  0  0
  1  6  1  0
  1  8  1  0
  2  1  2  0
  3  4  2  0
  3  2  1  0
  4  5  1  0
  5  6  2  0
  6 15  1  0
  7 12  2  0
  8  9  2  0
  8  7  1  0
  9 10  1  0
 10 11  2  0
 11 12  1  0
 14 13  2  0
 15 13  1  0
  2 16  1  0
  3 17  1  0
  4 18  1  0
  5 19  1  0
  7 20  1  0
  9 21  1  0
 11 22  1  0
 15 23  1  0
 24 25  1  0
 25 26  2  0
 25 27  1  0
 27 28  1  0
 13 27  1  0
M  ISO  8  16  14  17  14  18  14  19  14  20  14  21  14  22  14  24   1
M  END
>  <DihAtoms>  (1) 
13,12,26,24

>  <DihDeg>  (1) 
2.10900337529811

$$$$
