
 OpenBabel03272503253D

 28 29  0  0  1  0  0  0  0  0999 V2000
   36.7870   30.2060   48.9650 N   0  0  0  0  0  0  0  0  0  0  0  0
   37.2220   31.5250   48.5480 C   0  0  1  0  0  0  0  0  0  0  0  0
   38.1280   31.9130   49.7130 C   0  0  0  0  0  0  0  0  0  0  0  0
   37.9270   30.8490   50.7850 C   0  0  0  0  0  0  0  0  0  0  0  0
   37.7480   29.6300   49.8830 C   0  0  0  0  0  0  0  0  0  0  0  0
   36.3890   32.2370   48.5460 H   0  0  0  0  0  0  0  0  0  0  0  0
   39.1810   31.7970   49.3630 H   0  0  0  0  0  0  0  0  0  0  0  0
   37.9270   32.9260   50.0800 H   0  0  0  0  0  0  0  0  0  0  0  0
   38.7850   30.7560   51.4450 H   0  0  0  0  0  0  0  0  0  0  0  0
   36.9490   31.0050   51.3050 H   0  0  0  0  0  0  0  0  0  0  0  0
   37.3240   28.8390   50.4990 H   0  0  0  0  0  0  0  0  0  0  0  0
   38.7060   29.4100   49.3960 H   0  0  0  0  0  0  0  0  0  0  0  0
   35.5820   29.5840   48.5300 C   0  0  0  0  0  0  0  0  0  0  0  0
   34.7950   30.2530   47.5800 C   0  0  0  0  0  0  0  0  0  0  0  0
   33.6040   29.6530   47.1480 C   0  0  0  0  0  0  0  0  0  0  0  0
   33.2830   28.4350   47.6880 N   0  0  0  0  0  0  0  0  0  0  0  0
   34.0620   27.8260   48.5930 C   0  0  0  0  0  0  0  0  0  0  0  0
   35.2190   28.3930   49.0240 N   0  0  0  0  0  0  0  0  0  0  0  0
   35.0450   31.2140   47.1530 H   0  0  0  0  0  0  0  0  0  0  0  0
   32.9900   30.1600   46.4170 H   0  0  0  0  0  0  0  0  0  0  0  0
   33.7110   26.8690   48.9520 H   0  0  0  0  0  0  0  0  0  0  0  0
   37.9460   31.5340   47.2780 C   0  0  0  0  0  0  0  0  0  0  0  0
   39.1470   31.4170   47.2530 O   0  0  0  0  0  0  0  0  0  0  0  0
   37.2870   31.0900   43.8820 H   0  0  0  0  0  0  0  0  0  0  0  0
   37.7620   30.8990   44.8360 C   0  0  0  0  0  0  0  0  0  0  0  0
   38.6470   29.9990   45.0330 O   0  0  0  0  0  0  0  0  0  0  0  0
   37.4050   31.6770   45.9710 N   0  0  0  0  0  0  0  0  0  0  0  0
   36.6970   32.4080   45.8420 H   0  0  0  0  0  0  0  0  0  0  0  0
  1  5  1  0  0  0  0
  2  6  1  6  0  0  0
  2  1  1  0  0  0  0
  2  3  1  0  0  0  0
  3  8  1  0  0  0  0
  3  4  1  0  0  0  0
  4 10  1  0  0  0  0
  4  9  1  0  0  0  0
  5 11  1  0  0  0  0
  5  4  1  0  0  0  0
  7  3  1  0  0  0  0
 12  5  1  0  0  0  0
 13  1  1  0  0  0  0
 13 18  1  0  0  0  0
 14 13  2  0  0  0  0
 15 14  1  0  0  0  0
 15 16  2  0  0  0  0
 16 17  1  0  0  0  0
 17 21  1  0  0  0  0
 17 18  2  0  0  0  0
 19 14  1  0  0  0  0
 20 15  1  0  0  0  0
 22  2  1  0  0  0  0
 23 22  2  0  0  0  0
 24 25  1  0  0  0  0
 25 26  2  0  0  0  0
 25 27  1  0  0  0  0
 27 22  1  0  0  0  0
 28 27  1  0  0  0  0
M  END
>  <minimizedAffinity>
-4.93777418

>  <minimizedRMSD>
1.15659928

$$$$
