
 OpenBabel03272510313D

 28 29  0  0  0  0  0  0  0  0999 V2000
   37.1310   31.3370   49.5320 C   0  0  0  0  0  0  0  0  0  0  0  0
   37.9150   32.4470   49.7850 C   0  0  0  0  0  0  0  0  0  0  0  0
   38.5270   33.0000   48.6690 C   0  0  0  0  0  0  0  0  0  0  0  0
   38.3460   32.4660   47.4390 N   0  0  0  0  0  0  0  0  0  0  0  0
   37.5670   31.3700   47.2290 C   0  0  0  0  0  0  0  0  0  0  0  0
   36.9640   30.8200   48.3160 N   0  0  0  0  0  0  0  0  0  0  0  0
   38.0030   32.8050   50.8000 H   0  0  0  0  0  0  0  0  0  0  0  0
   39.1480   33.8690   48.8390 H   0  0  0  0  0  0  0  0  0  0  0  0
   36.4210   30.7150   50.7020 C   0  0  0  0  0  0  0  0  0  0  0  0
   35.9340   29.3750   50.6900 C   0  0  0  0  0  0  0  0  0  0  0  0
   37.2730   29.6130   51.3750 C   0  0  0  0  0  0  0  0  0  0  0  0
   36.0480   31.4760   51.4120 H   0  0  0  0  0  0  0  0  0  0  0  0
   35.9780   28.6700   49.8620 H   0  0  0  0  0  0  0  0  0  0  0  0
   35.1090   29.1290   51.4110 H   0  0  0  0  0  0  0  0  0  0  0  0
   38.1970   29.2860   50.8730 H   0  0  0  0  0  0  0  0  0  0  0  0
   37.3360   29.6410   52.4730 H   0  0  0  0  0  0  0  0  0  0  0  0
   37.3390   30.7650   45.9140 C   0  0  0  0  0  0  0  0  0  0  0  0
   36.7960   29.8270   45.9990 H   0  0  0  0  0  0  0  0  0  0  0  0
   36.8290   31.4730   45.2260 H   0  0  0  0  0  0  0  0  0  0  0  0
   38.9690   30.7580   43.9900 C   0  0  0  0  0  0  0  0  0  0  0  0
   38.1840   31.2600   43.1610 O   0  0  0  0  0  0  0  0  0  0  0  0
   38.6780   30.4810   45.3730 N   0  0  0  0  0  0  0  0  0  0  0  0
   39.2700   30.0820   46.1590 H   0  0  0  0  0  0  0  0  0  0  0  0
   41.9140   31.8820   45.2340 H   0  0  0  0  0  0  0  0  0  0  0  0
   41.1360   31.2830   44.7490 C   0  0  0  0  0  0  0  0  0  0  0  0
   40.7050   32.3850   45.2140 O   0  0  0  0  0  0  0  0  0  0  0  0
   40.2830   30.2840   44.0430 N   0  0  0  0  0  0  0  0  0  0  0  0
   41.2380   29.9410   44.0820 H   0  0  0  0  0  0  0  0  0  0  0  0
  1  2  1  0  0  0  0
  1  9  1  0  0  0  0
  2  7  1  0  0  0  0
  3  8  1  0  0  0  0
  3  2  2  0  0  0  0
  4  3  1  0  0  0  0
  5  4  2  0  0  0  0
  5  6  1  0  0  0  0
  6  1  2  0  0  0  0
  9 11  1  0  0  0  0
  9 12  1  0  0  0  0
 10  9  1  0  0  0  0
 10 11  1  0  0  0  0
 10 14  1  0  0  0  0
 11 16  1  0  0  0  0
 13 10  1  0  0  0  0
 15 11  1  0  0  0  0
 17 18  1  0  0  0  0
 17  5  1  0  0  0  0
 19 17  1  0  0  0  0
 20 27  1  0  0  0  0
 20 22  1  0  0  0  0
 21 20  2  0  0  0  0
 22 17  1  0  0  0  0
 22 23  1  0  0  0  0
 25 26  2  0  0  0  0
 25 24  1  0  0  0  0
 27 28  1  0  0  0  0
 27 25  1  0  0  0  0
M  END
>  <minimizedAffinity>
-5.06534719

>  <minimizedRMSD>
1.62208259

$$$$
