REMARK  Name = 
REMARK  2 active torsions:
REMARK  status: ('A' for Active; 'I' for Inactive)
REMARK    1  A    between atoms: C_1  and  C_8
REMARK    2  A    between atoms: C_6  and  N_15
REMARK                            x       y       z     vdW  Elec       q    Type
REMARK                         _______ _______ _______ _____ _____    ______ ____
ROOT
ATOM      1  C   UNL     1      38.103  31.199  47.882  0.00  0.00    +0.000 A 
ATOM      2  C   UNL     1      38.393  30.386  46.801  0.00  0.00    +0.000 A 
ATOM      3  C   UNL     1      39.196  30.809  45.746  0.00  0.00    +0.000 A 
ATOM      4  C   UNL     1      39.730  32.128  45.791  0.00  0.00    +0.000 A 
ATOM      5  C   UNL     1      39.416  32.894  46.875  0.00  0.00    +0.000 A 
ATOM      6  C   UNL     1      38.633  32.463  47.900  0.00  0.00    +0.000 A 
ATOM      7  H   UNL     1      37.986  29.387  46.765  0.00  0.00    +0.000 HD
ATOM      8  H   UNL     1      39.365  30.098  44.953  0.00  0.00    +0.000 HD
ATOM      9  H   UNL     1      40.322  32.306  44.917  0.00  0.00    +0.000 HD
ATOM     10  H   UNL     1      39.879  33.834  46.666  0.00  0.00    +0.000 HD
ENDROOT
BRANCH   1  12
ATOM     11  C   UNL     1      37.847  29.980  49.974  0.00  0.00    +0.000 A 
ATOM     12  C   UNL     1      37.212  30.616  48.878  0.00  0.00    +0.000 A 
ATOM     13  C   UNL     1      35.809  30.606  48.861  0.00  0.00    +0.000 A 
ATOM     14  N   UNL     1      35.148  30.006  49.863  0.00  0.00    +0.000 NA
ATOM     15  C   UNL     1      35.767  29.407  50.895  0.00  0.00    +0.000 A 
ATOM     16  N   UNL     1      37.117  29.397  50.946  0.00  0.00    +0.000 NA
ATOM     17  H   UNL     1      38.915  29.898  50.141  0.00  0.00    +0.000 HD
ATOM     18  H   UNL     1      35.384  31.102  48.007  0.00  0.00    +0.000 HD
ATOM     19  H   UNL     1      35.051  28.991  51.584  0.00  0.00    +0.000 HD
ENDBRANCH   1  12
BRANCH   6  22
ATOM     20  C   UNL     1      39.390  34.255  49.223  0.00  0.00    +0.000 C 
ATOM     21  O   UNL     1      40.364  34.300  48.454  0.00  0.00    +0.000 OA
ATOM     22  N   UNL     1      38.343  33.257  49.026  0.00  0.00    +0.000 N 
ATOM     23  H   UNL     1      37.466  33.072  49.572  0.00  0.00    +0.000 HD
ATOM     24  H   UNL     1      39.818  37.194  50.833  0.00  0.00    +0.000 HD
ATOM     25  C   UNL     1      39.451  36.195  50.553  0.00  0.00    +0.000 C 
ATOM     26  O   UNL     1      40.368  36.600  49.743  0.00  0.00    +0.000 OA
ATOM     27  N   UNL     1      38.800  34.862  50.371  0.00  0.00    +0.000 N 
ATOM     28  H   UNL     1      38.425  35.253  51.105  0.00  0.00    +0.000 HD
ENDBRANCH   6  22
TORSDOF 2
