
 OpenBabel03272500553D

 28 29  0  0  0  0  0  0  0  0999 V2000
   37.6740   31.3270   47.4520 C   0  0  0  0  0  0  0  0  0  0  0  0
   38.3450   32.4830   47.8060 C   0  0  0  0  0  0  0  0  0  0  0  0
   38.2480   33.0410   49.0780 C   0  0  0  0  0  0  0  0  0  0  0  0
   37.4220   32.3900   50.0380 C   0  0  0  0  0  0  0  0  0  0  0  0
   36.7770   31.2550   49.6430 C   0  0  0  0  0  0  0  0  0  0  0  0
   36.8880   30.7210   48.3970 C   0  0  0  0  0  0  0  0  0  0  0  0
   38.9690   32.9780   47.0780 H   0  0  0  0  0  0  0  0  0  0  0  0
   38.8140   33.9410   49.2550 H   0  0  0  0  0  0  0  0  0  0  0  0
   37.4470   32.9330   50.9600 H   0  0  0  0  0  0  0  0  0  0  0  0
   36.1950   30.9820   50.4960 H   0  0  0  0  0  0  0  0  0  0  0  0
   39.1470   30.4380   45.7290 C   0  0  0  0  0  0  0  0  0  0  0  0
   37.8520   30.9030   46.0680 C   0  0  0  0  0  0  0  0  0  0  0  0
   36.8920   30.9190   45.0440 C   0  0  0  0  0  0  0  0  0  0  0  0
   37.2400   30.5010   43.8170 N   0  0  0  0  0  0  0  0  0  0  0  0
   38.4740   30.0630   43.5130 C   0  0  0  0  0  0  0  0  0  0  0  0
   39.4240   30.0340   44.4730 N   0  0  0  0  0  0  0  0  0  0  0  0
   39.9980   30.3610   46.3950 H   0  0  0  0  0  0  0  0  0  0  0  0
   35.9300   31.2810   45.3600 H   0  0  0  0  0  0  0  0  0  0  0  0
   38.5360   29.7780   42.4770 H   0  0  0  0  0  0  0  0  0  0  0  0
   34.8090   29.7710   47.8390 C   0  0  0  0  0  0  0  0  0  0  0  0
   34.3350   30.9010   48.0380 O   0  0  0  0  0  0  0  0  0  0  0  0
   36.2390   29.5320   48.0150 N   0  0  0  0  0  0  0  0  0  0  0  0
   36.8020   28.6540   47.8990 H   0  0  0  0  0  0  0  0  0  0  0  0
   33.8030   27.0090   49.5030 H   0  0  0  0  0  0  0  0  0  0  0  0
   34.1060   27.6970   48.7000 C   0  0  0  0  0  0  0  0  0  0  0  0
   34.1190   28.2840   49.8470 O   0  0  0  0  0  0  0  0  0  0  0  0
   34.4830   28.4360   47.4570 N   0  0  0  0  0  0  0  0  0  0  0  0
   34.2730   27.5810   47.2160 H   0  0  0  0  0  0  0  0  0  0  0  0
  1  2  2  0  0  0  0
  1  6  1  0  0  0  0
  2  3  1  0  0  0  0
  3  8  1  0  0  0  0
  3  4  2  0  0  0  0
  4  9  1  0  0  0  0
  5  4  1  0  0  0  0
  5 10  1  0  0  0  0
  6  5  2  0  0  0  0
  7  2  1  0  0  0  0
 11 12  1  0  0  0  0
 11 17  1  0  0  0  0
 12  1  1  0  0  0  0
 13 18  1  0  0  0  0
 13 12  2  0  0  0  0
 14 13  1  0  0  0  0
 15 14  2  0  0  0  0
 15 16  1  0  0  0  0
 16 11  2  0  0  0  0
 19 15  1  0  0  0  0
 20 22  1  0  0  0  0
 20 21  2  0  0  0  0
 22  6  1  0  0  0  0
 23 22  1  0  0  0  0
 25 24  1  0  0  0  0
 25 26  2  0  0  0  0
 27 20  1  0  0  0  0
 27 25  1  0  0  0  0
 28 27  1  0  0  0  0
M  END
>  <minimizedAffinity>
-5.00420809

>  <minimizedRMSD>
5.70542669

$$$$
