
 OpenBabel03272503253D

 28 29  0  0  1  0  0  0  0  0999 V2000
   36.6190   30.0130   49.0960 N   0  0  0  0  0  0  0  0  0  0  0  0
   37.2870   31.2530   48.7530 C   0  0  1  0  0  0  0  0  0  0  0  0
   37.9820   31.5830   50.0710 C   0  0  0  0  0  0  0  0  0  0  0  0
   37.4400   30.5960   51.0990 C   0  0  0  0  0  0  0  0  0  0  0  0
   37.2990   29.3690   50.2020 C   0  0  0  0  0  0  0  0  0  0  0  0
   36.5660   32.0560   48.5670 H   0  0  0  0  0  0  0  0  0  0  0  0
   39.0610   31.3300   49.9460 H   0  0  0  0  0  0  0  0  0  0  0  0
   37.8360   32.6270   50.3710 H   0  0  0  0  0  0  0  0  0  0  0  0
   38.1300   30.4330   51.9230 H   0  0  0  0  0  0  0  0  0  0  0  0
   36.4050   30.8870   51.4050 H   0  0  0  0  0  0  0  0  0  0  0  0
   36.6650   28.6600   50.7330 H   0  0  0  0  0  0  0  0  0  0  0  0
   38.3010   29.0190   49.9260 H   0  0  0  0  0  0  0  0  0  0  0  0
   35.4600   29.5170   48.4360 C   0  0  0  0  0  0  0  0  0  0  0  0
   34.7830   30.3720   47.5510 C   0  0  0  0  0  0  0  0  0  0  0  0
   33.6370   29.8960   46.8990 C   0  0  0  0  0  0  0  0  0  0  0  0
   33.2480   28.6110   47.1700 N   0  0  0  0  0  0  0  0  0  0  0  0
   33.9210   27.8240   48.0210 C   0  0  0  0  0  0  0  0  0  0  0  0
   35.0330   28.2680   48.6630 N   0  0  0  0  0  0  0  0  0  0  0  0
   35.0880   31.3850   47.3350 H   0  0  0  0  0  0  0  0  0  0  0  0
   33.1080   30.5460   46.2150 H   0  0  0  0  0  0  0  0  0  0  0  0
   33.5240   26.8280   48.1600 H   0  0  0  0  0  0  0  0  0  0  0  0
   38.2480   31.1230   47.6580 C   0  0  0  0  0  0  0  0  0  0  0  0
   39.2680   31.7680   47.6550 O   0  0  0  0  0  0  0  0  0  0  0  0
   37.5260   29.9450   44.4560 H   0  0  0  0  0  0  0  0  0  0  0  0
   37.5500   30.6560   45.2710 C   0  0  0  0  0  0  0  0  0  0  0  0
   37.0670   31.8380   45.2130 O   0  0  0  0  0  0  0  0  0  0  0  0
   38.1480   30.2930   46.5090 N   0  0  0  0  0  0  0  0  0  0  0  0
   38.5440   29.3490   46.5860 H   0  0  0  0  0  0  0  0  0  0  0  0
  1  5  1  0  0  0  0
  2  6  1  6  0  0  0
  2  1  1  0  0  0  0
  2  3  1  0  0  0  0
  3  8  1  0  0  0  0
  3  4  1  0  0  0  0
  4 10  1  0  0  0  0
  4  9  1  0  0  0  0
  5 11  1  0  0  0  0
  5  4  1  0  0  0  0
  7  3  1  0  0  0  0
 12  5  1  0  0  0  0
 13 18  1  0  0  0  0
 13  1  1  0  0  0  0
 14 13  2  0  0  0  0
 15 16  2  0  0  0  0
 15 14  1  0  0  0  0
 16 17  1  0  0  0  0
 17 21  1  0  0  0  0
 17 18  2  0  0  0  0
 19 14  1  0  0  0  0
 20 15  1  0  0  0  0
 22  2  1  0  0  0  0
 23 22  2  0  0  0  0
 24 25  1  0  0  0  0
 25 27  1  0  0  0  0
 26 25  2  0  0  0  0
 27 28  1  0  0  0  0
 27 22  1  0  0  0  0
M  END
>  <minimizedAffinity>
-4.43971062

>  <minimizedRMSD>
0.48825407

$$$$
