REMARK  Name = 
REMARK  2 active torsions:
REMARK  status: ('A' for Active; 'I' for Inactive)
REMARK    1  A    between atoms: C_2  and  C_12
REMARK    2  A    between atoms: C_14  and  C_16
REMARK                            x       y       z     vdW  Elec       q    Type
REMARK                         _______ _______ _______ _____ _____    ______ ____
ROOT
ATOM      1  C   UNL     1      37.400  30.174  51.344  0.00  0.00    +0.000 A 
ATOM      2  C   UNL     1      37.946  30.783  50.227  0.00  0.00    +0.000 A 
ATOM      3  C   UNL     1      37.306  30.624  48.992  0.00  0.00    +0.000 A 
ATOM      4  N   UNL     1      36.160  29.869  48.933  0.00  0.00    +0.000 NA
ATOM      5  C   UNL     1      35.661  29.291  50.053  0.00  0.00    +0.000 A 
ATOM      6  N   UNL     1      36.274  29.443  51.240  0.00  0.00    +0.000 NA
ATOM      7  H   UNL     1      37.895  30.301  52.283  0.00  0.00    +0.000 HD
ATOM      8  H   UNL     1      38.847  31.376  50.272  0.00  0.00    +0.000 HD
ENDROOT
BRANCH   3  10
ATOM      9  C   UNL     1      37.162  30.792  46.579  0.00  0.00    +0.000 A 
ATOM     10  C   UNL     1      37.787  31.215  47.758  0.00  0.00    +0.000 A 
ATOM     11  C   UNL     1      38.807  32.150  47.710  0.00  0.00    +0.000 A 
ATOM     12  C   UNL     1      39.185  32.647  46.480  0.00  0.00    +0.000 A 
ATOM     13  N   UNL     1      40.136  33.552  46.177  0.00  0.00    +0.000 N 
ATOM     14  C   UNL     1      40.123  33.707  44.838  0.00  0.00    +0.000 A 
ATOM     15  N   UNL     1      39.191  32.927  44.289  0.00  0.00    +0.000 NA
ATOM     16  C   UNL     1      38.584  32.249  45.289  0.00  0.00    +0.000 A 
ATOM     17  C   UNL     1      37.561  31.309  45.352  0.00  0.00    +0.000 A 
ATOM     18  H   UNL     1      36.359  30.065  46.543  0.00  0.00    +0.000 HD
ATOM     19  H   UNL     1      39.284  32.472  48.613  0.00  0.00    +0.000 HD
ATOM     20  H   UNL     1      40.799  34.081  46.782  0.00  0.00    +0.000 HD
ATOM     21  H   UNL     1      40.735  34.345  44.202  0.00  0.00    +0.000 HD
ATOM     22  H   UNL     1      37.080  30.987  44.421  0.00  0.00    +0.000 HD
ENDBRANCH   3  10
BRANCH   5  23
ATOM     23  C   UNL     1      34.442  28.506  49.915  0.00  0.00    +0.000 C 
ATOM     24  O   UNL     1      34.301  27.680  48.985  0.00  0.00    +0.000 OA
ATOM     25  H   UNL     1      32.864  30.230  52.485  0.00  0.00    +0.000 HD
ATOM     26  C   UNL     1      33.510  29.885  51.709  0.00  0.00    +0.000 C 
ATOM     27  O   UNL     1      34.468  30.721  51.593  0.00  0.00    +0.000 OA
ATOM     28  N   UNL     1      33.424  28.725  50.888  0.00  0.00    +0.000 N 
ATOM     29  H   UNL     1      32.593  28.123  51.084  0.00  0.00    +0.000 HD
ENDBRANCH   5  23
TORSDOF 2
