
 OpenBabel03272506573D

 24 25  0  0  0  0  0  0  0  0999 V2000
   38.5940   31.4130   46.2980 C   0  0  0  0  0  0  0  0  0  0  0  0
   39.9600   31.2360   46.2970 C   0  0  0  0  0  0  0  0  0  0  0  0
   40.8370   31.6720   45.3240 C   0  0  0  0  0  0  0  0  0  0  0  0
   40.2700   32.3380   44.2750 N   0  0  0  0  0  0  0  0  0  0  0  0
   38.9290   32.5240   44.2530 C   0  0  0  0  0  0  0  0  0  0  0  0
   38.1130   32.0790   45.2300 N   0  0  0  0  0  0  0  0  0  0  0  0
   40.4200   30.7090   47.1250 H   0  0  0  0  0  0  0  0  0  0  0  0
   41.9040   31.4880   45.4050 H   0  0  0  0  0  0  0  0  0  0  0  0
   38.3090   33.4830   40.9770 H   0  0  0  0  0  0  0  0  0  0  0  0
   38.7520   32.9380   41.8180 C   0  0  0  0  0  0  0  0  0  0  0  0
   39.6190   32.0380   41.6690 O   0  0  0  0  0  0  0  0  0  0  0  0
   38.3650   33.2210   43.1480 N   0  0  0  0  0  0  0  0  0  0  0  0
   37.6470   33.9650   43.2910 H   0  0  0  0  0  0  0  0  0  0  0  0
   35.6520   30.2080   48.0380 C   0  0  0  0  0  0  0  0  0  0  0  0
   36.0810   29.9560   49.3470 C   0  0  0  0  0  0  0  0  0  0  0  0
   37.4460   30.2210   49.6130 C   0  0  0  0  0  0  0  0  0  0  0  0
   38.2240   30.6870   48.6150 N   0  0  0  0  0  0  0  0  0  0  0  0
   37.7590   30.9100   47.3800 C   0  0  0  0  0  0  0  0  0  0  0  0
   36.4550   30.6740   47.0610 N   0  0  0  0  0  0  0  0  0  0  0  0
   34.6210   30.0260   47.7740 H   0  0  0  0  0  0  0  0  0  0  0  0
   37.8060   30.0350   50.6190 H   0  0  0  0  0  0  0  0  0  0  0  0
   35.1830   29.4640   50.3340 N   0  0  0  0  0  0  0  0  0  0  0  0
   35.5770   28.8870   51.1160 H   0  0  0  0  0  0  0  0  0  0  0  0
   34.1840   29.7240   50.1920 H   0  0  0  0  0  0  0  0  0  0  0  0
  1 18  1  0  0  0  0
  2  1  1  0  0  0  0
  2  7  1  0  0  0  0
  3  8  1  0  0  0  0
  3  2  2  0  0  0  0
  4  3  1  0  0  0  0
  5  4  2  0  0  0  0
  5  6  1  0  0  0  0
  6  1  2  0  0  0  0
  9 10  1  0  0  0  0
 10 12  1  0  0  0  0
 11 10  2  0  0  0  0
 12 13  1  0  0  0  0
 12  5  1  0  0  0  0
 14 15  1  0  0  0  0
 15 16  2  0  0  0  0
 15 22  1  0  0  0  0
 16 21  1  0  0  0  0
 17 16  1  0  0  0  0
 18 17  2  0  0  0  0
 19 18  1  0  0  0  0
 19 14  2  0  0  0  0
 20 14  1  0  0  0  0
 22 23  1  0  0  0  0
 24 22  1  0  0  0  0
M  END
>  <minimizedAffinity>
-4.70633459

>  <minimizedRMSD>
0.361950666

$$$$
