
 OpenBabel03272502003D

 38 41  0  0  0  0  0  0  0  0999 V2000
   33.0180   28.2090   47.7830 C   0  0  0  0  0  0  0  0  0  0  0  0
   32.0050   27.4320   48.3370 C   0  0  0  0  0  0  0  0  0  0  0  0
   30.7920   27.8490   47.8050 C   0  0  0  0  0  0  0  0  0  0  0  0
   31.1080   28.8590   46.9490 N   0  0  0  0  0  0  0  0  0  0  0  0
   32.4160   29.0620   46.9440 N   0  0  0  0  0  0  0  0  0  0  0  0
   28.7200   29.2920   46.3390 N   0  0  0  0  0  0  0  0  0  0  0  0
   30.0450   29.4900   46.2460 C   0  0  0  0  0  0  0  0  0  0  0  0
   30.2310   30.4620   45.3030 N   0  0  0  0  0  0  0  0  0  0  0  0
   29.0480   30.8510   44.8280 C   0  0  0  0  0  0  0  0  0  0  0  0
   28.7340   31.7920   43.8760 C   0  0  0  0  0  0  0  0  0  0  0  0
   27.4450   32.0030   43.5680 N   0  0  0  0  0  0  0  0  0  0  0  0
   26.4760   31.2870   44.1980 C   0  0  0  0  0  0  0  0  0  0  0  0
   26.7970   30.3630   45.1340 N   0  0  0  0  0  0  0  0  0  0  0  0
   28.0760   30.1270   45.4670 C   0  0  0  0  0  0  0  0  0  0  0  0
   32.1480   26.6340   49.0650 H   0  0  0  0  0  0  0  0  0  0  0  0
   29.8390   27.4080   48.0690 H   0  0  0  0  0  0  0  0  0  0  0  0
   28.2480   28.6140   46.9720 H   0  0  0  0  0  0  0  0  0  0  0  0
   29.4730   32.3860   43.3480 H   0  0  0  0  0  0  0  0  0  0  0  0
   25.4030   31.3490   44.0540 H   0  0  0  0  0  0  0  0  0  0  0  0
   34.4920   28.1030   48.0750 C   0  0  0  0  0  0  0  0  0  0  0  0
   34.8460   27.0830   47.7550 H   0  0  0  0  0  0  0  0  0  0  0  0
   35.0080   28.8540   47.4750 H   0  0  0  0  0  0  0  0  0  0  0  0
   34.6260   28.2990   49.5640 C   0  0  0  0  0  0  0  0  0  0  0  0
   33.7310   28.7710   50.0230 H   0  0  0  0  0  0  0  0  0  0  0  0
   34.7960   27.2980   50.0250 H   0  0  0  0  0  0  0  0  0  0  0  0
   37.2440   30.1640   51.3800 C   0  0  0  0  0  0  0  0  0  0  0  0
   38.0400   30.6610   50.3150 C   0  0  0  0  0  0  0  0  0  0  0  0
   37.6580   30.3440   48.9920 C   0  0  0  0  0  0  0  0  0  0  0  0
   36.5560   29.5850   48.8300 N   0  0  0  0  0  0  0  0  0  0  0  0
   35.8250   29.1300   49.8680 C   0  0  0  0  0  0  0  0  0  0  0  0
   36.1800   29.4260   51.0950 N   0  0  0  0  0  0  0  0  0  0  0  0
   37.5760   30.4320   52.3580 H   0  0  0  0  0  0  0  0  0  0  0  0
   38.9220   31.2680   50.4550 H   0  0  0  0  0  0  0  0  0  0  0  0
   39.5440   32.4420   46.9240 H   0  0  0  0  0  0  0  0  0  0  0  0
   38.9500   32.1680   47.7870 C   0  0  0  0  0  0  0  0  0  0  0  0
   38.8430   33.1790   48.5290 O   0  0  0  0  0  0  0  0  0  0  0  0
   38.4450   30.8350   47.9160 N   0  0  0  0  0  0  0  0  0  0  0  0
   38.6860   30.1810   47.1430 H   0  0  0  0  0  0  0  0  0  0  0  0
  1 20  1  0  0  0  0
  1  2  1  0  0  0  0
  2 15  1  0  0  0  0
  3 16  1  0  0  0  0
  3  2  2  0  0  0  0
  4  3  1  0  0  0  0
  5  4  1  0  0  0  0
  5  1  2  0  0  0  0
  6 17  1  0  0  0  0
  7  6  1  0  0  0  0
  7  4  1  0  0  0  0
  8  7  2  0  0  0  0
  9  8  1  0  0  0  0
  9 14  1  0  0  0  0
 10  9  2  0  0  0  0
 11 10  1  0  0  0  0
 11 12  2  0  0  0  0
 12 13  1  0  0  0  0
 13 14  2  0  0  0  0
 14  6  1  0  0  0  0
 18 10  1  0  0  0  0
 19 12  1  0  0  0  0
 20 23  1  0  0  0  0
 21 20  1  0  0  0  0
 22 20  1  0  0  0  0
 23 30  1  0  0  0  0
 23 24  1  0  0  0  0
 23 25  1  0  0  0  0
 26 32  1  0  0  0  0
 27 33  1  0  0  0  0
 27 26  2  0  0  0  0
 28 27  1  0  0  0  0
 29 28  2  0  0  0  0
 29 30  1  0  0  0  0
 30 31  2  0  0  0  0
 31 26  1  0  0  0  0
 34 35  1  0  0  0  0
 35 37  1  0  0  0  0
 35 36  2  0  0  0  0
 37 28  1  0  0  0  0
 38 37  1  0  0  0  0
M  END
>  <minimizedAffinity>
-6.66156483

>  <minimizedRMSD>
0.0472528636

$$$$
