
 OpenBabel03272506573D

 24 25  0  0  0  0  0  0  0  0999 V2000
   38.7600   32.1450   46.3810 C   0  0  0  0  0  0  0  0  0  0  0  0
   40.0210   32.5400   45.9950 C   0  0  0  0  0  0  0  0  0  0  0  0
   40.3840   32.9930   44.7420 C   0  0  0  0  0  0  0  0  0  0  0  0
   39.3790   33.0440   43.8190 N   0  0  0  0  0  0  0  0  0  0  0  0
   38.1300   32.6600   44.1760 C   0  0  0  0  0  0  0  0  0  0  0  0
   37.8250   32.2240   45.4150 N   0  0  0  0  0  0  0  0  0  0  0  0
   40.8270   32.5040   46.7190 H   0  0  0  0  0  0  0  0  0  0  0  0
   41.4070   33.2860   44.5240 H   0  0  0  0  0  0  0  0  0  0  0  0
   36.5560   33.2150   41.1340 H   0  0  0  0  0  0  0  0  0  0  0  0
   37.3590   33.1720   41.8790 C   0  0  0  0  0  0  0  0  0  0  0  0
   38.5440   33.5100   41.6270 O   0  0  0  0  0  0  0  0  0  0  0  0
   37.1010   32.7230   43.1940 N   0  0  0  0  0  0  0  0  0  0  0  0
   36.1230   32.4390   43.4220 H   0  0  0  0  0  0  0  0  0  0  0  0
   37.6360   29.9890   49.0700 C   0  0  0  0  0  0  0  0  0  0  0  0
   37.9210   30.6950   50.2460 C   0  0  0  0  0  0  0  0  0  0  0  0
   38.5250   31.9650   50.0750 C   0  0  0  0  0  0  0  0  0  0  0  0
   38.7800   32.4000   48.8240 N   0  0  0  0  0  0  0  0  0  0  0  0
   38.4870   31.6810   47.7350 C   0  0  0  0  0  0  0  0  0  0  0  0
   37.9050   30.4520   47.8330 N   0  0  0  0  0  0  0  0  0  0  0  0
   37.1750   29.0160   49.1350 H   0  0  0  0  0  0  0  0  0  0  0  0
   38.7560   32.5330   50.9690 H   0  0  0  0  0  0  0  0  0  0  0  0
   37.6130   30.1520   51.5230 N   0  0  0  0  0  0  0  0  0  0  0  0
   38.1980   30.4510   52.3400 H   0  0  0  0  0  0  0  0  0  0  0  0
   36.8120   29.4850   51.5390 H   0  0  0  0  0  0  0  0  0  0  0  0
  1 18  1  0  0  0  0
  2  1  1  0  0  0  0
  2  7  1  0  0  0  0
  3  2  2  0  0  0  0
  4  5  2  0  0  0  0
  4  3  1  0  0  0  0
  5  6  1  0  0  0  0
  6  1  2  0  0  0  0
  8  3  1  0  0  0  0
  9 10  1  0  0  0  0
 10 12  1  0  0  0  0
 11 10  2  0  0  0  0
 12 13  1  0  0  0  0
 12  5  1  0  0  0  0
 14 20  1  0  0  0  0
 14 15  1  0  0  0  0
 15 22  1  0  0  0  0
 16 15  2  0  0  0  0
 16 21  1  0  0  0  0
 17 16  1  0  0  0  0
 18 19  1  0  0  0  0
 18 17  2  0  0  0  0
 19 14  2  0  0  0  0
 22 24  1  0  0  0  0
 22 23  1  0  0  0  0
M  END
>  <minimizedAffinity>
-5.46423101

>  <minimizedRMSD>
1.64808381

$$$$
