
     RDKit          3D

 23 24  0  0  0  0  0  0  0  0999 V2000
   35.1941   30.4319   48.9801 C   0  0  0  0  0  0  0  0  0  0  0  0
   34.3398   30.1787   49.8611 O   0  0  0  0  0  0  0  0  0  0  0  0
   33.3100   30.0918   45.8849 C   0  0  0  0  0  0  0  0  0  0  0  0
   34.3251   30.0112   44.9150 C   0  0  0  0  0  0  0  0  0  0  0  0
   35.6475   30.0720   45.3091 C   0  0  0  0  0  0  0  0  0  0  0  0
   35.8915   30.2083   46.6327 N   0  0  0  0  0  0  0  0  0  0  0  0
   34.9136   30.2853   47.5603 C   0  0  0  0  0  0  0  0  0  0  0  0
   33.6255   30.2263   47.1782 N   0  0  0  0  0  0  0  0  0  0  0  0
   36.5166   30.8910   49.4258 C   0  0  0  0  0  0  0  0  0  0  0  0
   37.3062   30.2298   50.3352 C   0  0  0  0  0  0  0  0  0  0  0  0
   38.4361   31.0356   50.4316 C   0  0  0  0  0  0  0  0  0  0  0  0
   38.2794   32.1127   49.6004 C   0  0  0  0  0  0  0  0  0  0  0  0
   37.1256   31.9913   49.0196 O   0  0  0  0  0  0  0  0  0  0  0  0
   32.2533   30.0491   45.6291 H   0  0  0  0  0  0  0  0  0  0  0  0
   33.9799   29.9036   43.8951 H   0  0  0  0  0  0  0  0  0  0  0  0
   36.4053   30.0094   44.5604 H   0  0  0  0  0  0  0  0  0  0  0  0
   37.0860   29.3009   50.8474 H   0  0  0  0  0  0  0  0  0  0  0  0
   39.2678   30.7951   51.0759 H   0  0  0  0  0  0  0  0  0  0  0  0
   40.5434   34.7167   50.2001 H   0  0  0  0  0  0  0  0  0  0  0  0
   39.8624   33.8946   50.3899 C   0  0  0  0  0  0  0  0  0  0  0  0
   39.7074   33.5855   51.5917 O   0  0  0  0  0  0  0  0  0  0  0  0
   39.1751   33.1917   49.3739 N   0  0  0  0  0  0  0  0  0  0  0  0
   39.3881   33.5430   48.4205 H   0  0  0  0  0  0  0  0  0  0  0  0
  1  9  1  0
  1  2  2  0
  3  8  2  0
  4  5  2  0
  4  3  1  0
  5  6  1  0
  6  7  2  0
  7  1  1  0
  8  7  1  0
  9 10  2  0
 10 11  1  0
 12 11  2  0
 13  9  1  0
 13 12  1  0
  3 14  1  0
  4 15  1  0
  5 16  1  0
 10 17  1  0
 11 18  1  0
 19 20  1  0
 20 21  2  0
 20 22  1  0
 22 23  1  0
 12 22  1  0
M  ISO  6  14  14  15  14  16  14  17  14  18  14  19   1
M  END
>  <DihAtoms>  (1) 
10,11,21,19

>  <DihDeg>  (1) 
0.003430140817960274

$$$$
