REMARK  Name = 
REMARK  2 active torsions:
REMARK  status: ('A' for Active; 'I' for Inactive)
REMARK    1  A    between atoms: C_2  and  N_13
REMARK    2  A    between atoms: C_5  and  C_7
REMARK                            x       y       z     vdW  Elec       q    Type
REMARK                         _______ _______ _______ _____ _____    ______ ____
ROOT
ATOM      1  C   UNL     1      38.568  31.483  46.279  0.00  0.00    +0.000 A 
ATOM      2  C   UNL     1      39.902  31.186  46.108  0.00  0.00    +0.000 A 
ATOM      3  C   UNL     1      40.724  31.676  45.113  0.00  0.00    +0.000 A 
ATOM      4  N   UNL     1      40.133  32.533  44.228  0.00  0.00    +0.000 NA
ATOM      5  C   UNL     1      38.822  32.839  44.376  0.00  0.00    +0.000 A 
ATOM      6  N   UNL     1      38.060  32.334  45.367  0.00  0.00    +0.000 NA
ATOM      7  H   UNL     1      40.382  30.508  46.804  0.00  0.00    +0.000 HD
ATOM      8  H   UNL     1      41.769  31.388  45.053  0.00  0.00    +0.000 HD
ATOM      9  H   UNL     1      37.998  34.307  41.342  0.00  0.00    +0.000 HD
ATOM     10  C   UNL     1      38.460  33.610  42.051  0.00  0.00    +0.000 C 
ATOM     11  O   UNL     1      39.211  32.667  41.691  0.00  0.00    +0.000 OA
ATOM     12  N   UNL     1      38.231  33.734  43.440  0.00  0.00    +0.000 N 
ATOM     13  H   UNL     1      37.611  34.511  43.757  0.00  0.00    +0.000 HD
ENDROOT
BRANCH   1  18
ATOM     14  C   UNL     1      35.750  30.054  48.055  0.00  0.00    +0.000 A 
ATOM     15  C   UNL     1      36.222  29.810  49.351  0.00  0.00    +0.000 A 
ATOM     16  C   UNL     1      37.572  30.162  49.595  0.00  0.00    +0.000 A 
ATOM     17  N   UNL     1      38.296  30.696  48.590  0.00  0.00    +0.000 NA
ATOM     18  C   UNL     1      37.792  30.907  47.369  0.00  0.00    +0.000 A 
ATOM     19  N   UNL     1      36.500  30.589  47.071  0.00  0.00    +0.000 NA
ATOM     20  H   UNL     1      34.729  29.807  47.808  0.00  0.00    +0.000 HD
ATOM     21  H   UNL     1      37.964  29.984  50.590  0.00  0.00    +0.000 HD
BRANCH  15  22
ATOM     22  N   UNL     1      35.380  29.242  50.346  0.00  0.00    +0.000 N 
ATOM     23  H   UNL     1      35.828  28.681  51.110  0.00  0.00    +0.000 HD
ATOM     24  H   UNL     1      34.363  29.437  50.229  0.00  0.00    +0.000 HD
ENDBRANCH  15  22
ENDBRANCH   1  18
TORSDOF 2
