
 OpenBabel03272508433D

 23 24  0  0  0  0  0  0  0  0999 V2000
   36.5530   30.5080   50.0050 C   0  0  0  0  0  0  0  0  0  0  0  0
   37.7350   30.2950   50.6700 C   0  0  0  0  0  0  0  0  0  0  0  0
   38.5660   31.3030   50.1890 C   0  0  0  0  0  0  0  0  0  0  0  0
   37.8650   32.0540   49.2830 C   0  0  0  0  0  0  0  0  0  0  0  0
   36.6730   31.5500   49.2010 O   0  0  0  0  0  0  0  0  0  0  0  0
   37.9540   29.5210   51.3950 H   0  0  0  0  0  0  0  0  0  0  0  0
   39.5870   31.4200   50.5170 H   0  0  0  0  0  0  0  0  0  0  0  0
   39.5440   35.0090   48.4390 H   0  0  0  0  0  0  0  0  0  0  0  0
   39.2160   34.1530   49.0180 C   0  0  0  0  0  0  0  0  0  0  0  0
   39.7000   34.0590   50.1680 O   0  0  0  0  0  0  0  0  0  0  0  0
   38.3060   33.1820   48.5420 N   0  0  0  0  0  0  0  0  0  0  0  0
   37.9780   33.3710   47.5740 H   0  0  0  0  0  0  0  0  0  0  0  0
   35.3430   29.6920   50.1710 C   0  0  0  0  0  0  0  0  0  0  0  0
   35.0960   29.2460   51.3160 O   0  0  0  0  0  0  0  0  0  0  0  0
   32.8730   28.0470   48.0640 C   0  0  0  0  0  0  0  0  0  0  0  0
   32.8420   28.8730   46.9260 C   0  0  0  0  0  0  0  0  0  0  0  0
   33.6580   29.9870   46.8720 C   0  0  0  0  0  0  0  0  0  0  0  0
   34.4540   30.2210   47.9410 N   0  0  0  0  0  0  0  0  0  0  0  0
   34.4800   29.4250   49.0300 C   0  0  0  0  0  0  0  0  0  0  0  0
   33.6870   28.3400   49.0840 N   0  0  0  0  0  0  0  0  0  0  0  0
   32.2520   27.1580   48.1580 H   0  0  0  0  0  0  0  0  0  0  0  0
   32.1560   28.5620   46.1500 H   0  0  0  0  0  0  0  0  0  0  0  0
   33.6210   30.6020   46.0010 H   0  0  0  0  0  0  0  0  0  0  0  0
  1 13  1  0  0  0  0
  1  2  2  0  0  0  0
  2  6  1  0  0  0  0
  3  7  1  0  0  0  0
  3  2  1  0  0  0  0
  4  3  2  0  0  0  0
  5  4  1  0  0  0  0
  5  1  1  0  0  0  0
  8  9  1  0  0  0  0
  9 10  2  0  0  0  0
 11  9  1  0  0  0  0
 11  4  1  0  0  0  0
 12 11  1  0  0  0  0
 13 14  2  0  0  0  0
 15 21  1  0  0  0  0
 15 20  1  0  0  0  0
 16 15  2  0  0  0  0
 17 16  1  0  0  0  0
 17 18  2  0  0  0  0
 18 19  1  0  0  0  0
 19 20  2  0  0  0  0
 19 13  1  0  0  0  0
 22 16  1  0  0  0  0
 23 17  1  0  0  0  0
M  END
>  <minimizedAffinity>
-5.19624138

>  <minimizedRMSD>
1.76622593

$$$$
