
 OpenBabel03272508433D

 23 24  0  0  0  0  0  0  0  0999 V2000
   36.5260   30.5270   49.7740 C   0  0  0  0  0  0  0  0  0  0  0  0
   37.6400   30.3070   50.5460 C   0  0  0  0  0  0  0  0  0  0  0  0
   38.5170   31.3100   50.1450 C   0  0  0  0  0  0  0  0  0  0  0  0
   37.9080   32.0640   49.1770 C   0  0  0  0  0  0  0  0  0  0  0  0
   36.7260   31.5670   48.9850 O   0  0  0  0  0  0  0  0  0  0  0  0
   37.7860   29.5310   51.2880 H   0  0  0  0  0  0  0  0  0  0  0  0
   39.5050   31.4210   50.5660 H   0  0  0  0  0  0  0  0  0  0  0  0
   39.6830   35.0040   48.4900 H   0  0  0  0  0  0  0  0  0  0  0  0
   39.2990   34.1500   49.0370 C   0  0  0  0  0  0  0  0  0  0  0  0
   39.6790   34.0500   50.2240 O   0  0  0  0  0  0  0  0  0  0  0  0
   38.4230   33.1890   48.4800 N   0  0  0  0  0  0  0  0  0  0  0  0
   38.1820   33.3830   47.4890 H   0  0  0  0  0  0  0  0  0  0  0  0
   35.3010   29.7170   49.8280 C   0  0  0  0  0  0  0  0  0  0  0  0
   34.9020   29.3420   50.9540 O   0  0  0  0  0  0  0  0  0  0  0  0
   32.8610   28.1990   47.5950 C   0  0  0  0  0  0  0  0  0  0  0  0
   33.2370   28.7060   46.3380 C   0  0  0  0  0  0  0  0  0  0  0  0
   34.3170   29.5620   46.2470 C   0  0  0  0  0  0  0  0  0  0  0  0
   34.9620   29.8670   47.3970 N   0  0  0  0  0  0  0  0  0  0  0  0
   34.5970   29.3780   48.6000 C   0  0  0  0  0  0  0  0  0  0  0  0
   33.5450   28.5440   48.6910 N   0  0  0  0  0  0  0  0  0  0  0  0
   32.0180   27.5210   47.7230 H   0  0  0  0  0  0  0  0  0  0  0  0
   32.6290   28.3750   45.5070 H   0  0  0  0  0  0  0  0  0  0  0  0
   34.5890   29.9370   45.2860 H   0  0  0  0  0  0  0  0  0  0  0  0
  1 13  1  0  0  0  0
  1  2  2  0  0  0  0
  2  6  1  0  0  0  0
  3  2  1  0  0  0  0
  3  7  1  0  0  0  0
  4  3  2  0  0  0  0
  5  4  1  0  0  0  0
  5  1  1  0  0  0  0
  8  9  1  0  0  0  0
  9 10  2  0  0  0  0
 11  9  1  0  0  0  0
 11  4  1  0  0  0  0
 12 11  1  0  0  0  0
 13 14  2  0  0  0  0
 15 21  1  0  0  0  0
 15 20  1  0  0  0  0
 16 15  2  0  0  0  0
 17 16  1  0  0  0  0
 17 18  2  0  0  0  0
 18 19  1  0  0  0  0
 19 20  2  0  0  0  0
 19 13  1  0  0  0  0
 22 16  1  0  0  0  0
 23 17  1  0  0  0  0
M  END
>  <minimizedAffinity>
-5.03078651

>  <minimizedRMSD>
1.50658917

$$$$
