
 OpenBabel03272500343D

 17 17  0  0  0  0  0  0  0  0999 V2000
   37.3310   30.2910   50.0270 C   0  0  0  0  0  0  0  0  0  0  0  0
   38.3210   31.2780   50.0750 C   0  0  0  0  0  0  0  0  0  0  0  0
   38.5110   32.0620   48.9230 C   0  0  0  0  0  0  0  0  0  0  0  0
   37.7270   31.8190   47.8360 N   0  0  0  0  0  0  0  0  0  0  0  0
   36.7850   30.8560   47.8400 C   0  0  0  0  0  0  0  0  0  0  0  0
   36.5900   30.0960   48.9310 N   0  0  0  0  0  0  0  0  0  0  0  0
   38.9310   31.4500   50.9520 H   0  0  0  0  0  0  0  0  0  0  0  0
   39.2650   32.8420   48.9020 H   0  0  0  0  0  0  0  0  0  0  0  0
   34.0140   29.9030   46.1480 H   0  0  0  0  0  0  0  0  0  0  0  0
   34.6510   30.1000   47.0090 C   0  0  0  0  0  0  0  0  0  0  0  0
   34.1610   29.8630   48.1440 O   0  0  0  0  0  0  0  0  0  0  0  0
   35.9640   30.6040   46.6970 N   0  0  0  0  0  0  0  0  0  0  0  0
   36.3260   30.7860   45.7160 H   0  0  0  0  0  0  0  0  0  0  0  0
   37.1160   29.4490   51.2370 C   0  0  0  0  0  0  0  0  0  0  0  0
   35.7580   29.1910   51.3940 F   0  0  0  0  0  0  0  0  0  0  0  0
   37.8820   28.3330   51.1410 F   0  0  0  0  0  0  0  0  0  0  0  0
   37.4930   30.2180   52.3470 F   0  0  0  0  0  0  0  0  0  0  0  0
  1  2  1  0  0  0  0
  1 14  1  0  0  0  0
  2  7  1  0  0  0  0
  3  2  2  0  0  0  0
  4  5  2  0  0  0  0
  4  3  1  0  0  0  0
  5  6  1  0  0  0  0
  6  1  2  0  0  0  0
  8  3  1  0  0  0  0
  9 10  1  0  0  0  0
 10 11  2  0  0  0  0
 12 10  1  0  0  0  0
 12  5  1  0  0  0  0
 13 12  1  0  0  0  0
 14 15  1  0  0  0  0
 14 17  1  0  0  0  0
 16 14  1  0  0  0  0
M  END
>  <minimizedAffinity>
-5.31719351

>  <minimizedRMSD>
0.132781208

$$$$
