
 OpenBabel03272507453D

 29 30  0  0  0  0  0  0  0  0999 V2000
   38.8230   24.1360   35.8420 N   0  0  0  0  0  0  0  0  0  0  0  0
   38.4740   23.5120   37.0810 C   0  0  0  0  0  0  0  0  0  0  0  0
   39.5480   23.0650   37.9680 C   0  0  0  0  0  0  0  0  0  0  0  0
   40.8570   22.6970   37.3430 C   0  0  0  0  0  0  0  0  0  0  0  0
   41.1050   23.3520   36.0220 C   0  0  0  0  0  0  0  0  0  0  0  0
   39.8070   23.3200   35.2000 C   0  0  0  0  0  0  0  0  0  0  0  0
   37.7920   24.2280   37.6240 H   0  0  0  0  0  0  0  0  0  0  0  0
   37.7950   22.6560   36.8200 H   0  0  0  0  0  0  0  0  0  0  0  0
   39.6860   23.8140   38.7760 H   0  0  0  0  0  0  0  0  0  0  0  0
   39.1830   22.1530   38.5250 H   0  0  0  0  0  0  0  0  0  0  0  0
   41.6630   23.0200   38.0350 H   0  0  0  0  0  0  0  0  0  0  0  0
   41.9160   22.8190   35.4870 H   0  0  0  0  0  0  0  0  0  0  0  0
   41.4130   24.3980   36.1570 H   0  0  0  0  0  0  0  0  0  0  0  0
   40.0520   23.7190   34.1760 H   0  0  0  0  0  0  0  0  0  0  0  0
   39.4810   22.2700   35.0690 H   0  0  0  0  0  0  0  0  0  0  0  0
   38.2800   25.3550   35.3420 C   0  0  0  0  0  0  0  0  0  0  0  0
   38.3110   26.5720   36.0260 C   0  0  0  0  0  0  0  0  0  0  0  0
   37.7380   27.6720   35.4020 C   0  0  0  0  0  0  0  0  0  0  0  0
   37.1750   27.5210   34.1620 N   0  0  0  0  0  0  0  0  0  0  0  0
   37.1690   26.3340   33.5450 C   0  0  0  0  0  0  0  0  0  0  0  0
   37.7180   25.2710   34.1360 N   0  0  0  0  0  0  0  0  0  0  0  0
   38.7730   26.5640   36.9770 H   0  0  0  0  0  0  0  0  0  0  0  0
   37.7580   28.6170   35.9250 H   0  0  0  0  0  0  0  0  0  0  0  0
   36.7130   26.2640   32.5690 H   0  0  0  0  0  0  0  0  0  0  0  0
   42.2880   19.4890   37.0090 H   0  0  0  0  0  0  0  0  0  0  0  0
   42.2370   20.5700   37.0510 C   0  0  0  0  0  0  0  0  0  0  0  0
   43.2690   21.3090   36.9070 O   0  0  0  0  0  0  0  0  0  0  0  0
   41.0000   21.2360   37.2730 N   0  0  0  0  0  0  0  0  0  0  0  0
   40.1510   20.6380   37.3920 H   0  0  0  0  0  0  0  0  0  0  0  0
  1  2  1  0  0  0  0
  2  7  1  0  0  0  0
  2  3  1  0  0  0  0
  3 10  1  0  0  0  0
  3  9  1  0  0  0  0
  4  3  1  0  0  0  0
  4 11  1  0  0  0  0
  5 13  1  0  0  0  0
  5  4  1  0  0  0  0
  6  1  1  0  0  0  0
  6  5  1  0  0  0  0
  8  2  1  0  0  0  0
 12  5  1  0  0  0  0
 14  6  1  0  0  0  0
 15  6  1  0  0  0  0
 16  1  1  0  0  0  0
 16 17  1  0  0  0  0
 17 22  1  0  0  0  0
 18 23  1  0  0  0  0
 18 17  2  0  0  0  0
 19 18  1  0  0  0  0
 20 21  1  0  0  0  0
 20 19  2  0  0  0  0
 21 16  2  0  0  0  0
 24 20  1  0  0  0  0
 25 26  1  0  0  0  0
 26 28  1  0  0  0  0
 27 26  2  0  0  0  0
 28  4  1  0  0  0  0
 28 29  1  0  0  0  0
M  END
>  <minimizedAffinity>
-4.28587961

$$$$

 OpenBabel03272507453D

 29 30  0  0  0  0  0  0  0  0999 V2000
   38.5790   25.7670   35.1710 N   0  0  0  0  0  0  0  0  0  0  0  0
   38.2220   27.1250   35.4430 C   0  0  0  0  0  0  0  0  0  0  0  0
   37.1000   27.7150   34.7130 C   0  0  0  0  0  0  0  0  0  0  0  0
   36.7910   27.1690   33.3540 C   0  0  0  0  0  0  0  0  0  0  0  0
   37.2560   25.7640   33.1440 C   0  0  0  0  0  0  0  0  0  0  0  0
   38.6590   25.6090   33.7510 C   0  0  0  0  0  0  0  0  0  0  0  0
   38.0450   27.1970   36.5550 H   0  0  0  0  0  0  0  0  0  0  0  0
   39.1550   27.7310   35.2900 H   0  0  0  0  0  0  0  0  0  0  0  0
   36.1990   27.7060   35.3640 H   0  0  0  0  0  0  0  0  0  0  0  0
   37.3100   28.8170   34.5830 H   0  0  0  0  0  0  0  0  0  0  0  0
   35.6880   27.1800   33.2310 H   0  0  0  0  0  0  0  0  0  0  0  0
   37.2760   25.5350   32.0600 H   0  0  0  0  0  0  0  0  0  0  0  0
   36.5780   25.0510   33.6340 H   0  0  0  0  0  0  0  0  0  0  0  0
   39.0270   24.5790   33.4830 H   0  0  0  0  0  0  0  0  0  0  0  0
   39.3490   26.3330   33.2730 H   0  0  0  0  0  0  0  0  0  0  0  0
   38.8120   24.7570   36.1470 C   0  0  0  0  0  0  0  0  0  0  0  0
   38.0470   24.5830   37.3020 C   0  0  0  0  0  0  0  0  0  0  0  0
   38.4030   23.5480   38.1570 C   0  0  0  0  0  0  0  0  0  0  0  0
   39.4720   22.7530   37.8380 N   0  0  0  0  0  0  0  0  0  0  0  0
   40.1760   22.9570   36.7190 C   0  0  0  0  0  0  0  0  0  0  0  0
   39.8420   23.9490   35.8910 N   0  0  0  0  0  0  0  0  0  0  0  0
   37.2460   25.2600   37.4410 H   0  0  0  0  0  0  0  0  0  0  0  0
   37.8170   23.4080   39.0530 H   0  0  0  0  0  0  0  0  0  0  0  0
   41.0100   22.3050   36.5100 H   0  0  0  0  0  0  0  0  0  0  0  0
   36.8770   29.6530   30.8490 H   0  0  0  0  0  0  0  0  0  0  0  0
   36.4620   29.0040   31.6100 C   0  0  0  0  0  0  0  0  0  0  0  0
   35.2250   29.0250   31.9270 O   0  0  0  0  0  0  0  0  0  0  0  0
   37.2840   28.0780   32.3110 N   0  0  0  0  0  0  0  0  0  0  0  0
   38.2980   28.0550   32.0570 H   0  0  0  0  0  0  0  0  0  0  0  0
  1  2  1  0  0  0  0
  1 16  1  0  0  0  0
  2  7  1  0  0  0  0
  3  9  1  0  0  0  0
  3  2  1  0  0  0  0
  4  3  1  0  0  0  0
  5  4  1  0  0  0  0
  5 13  1  0  0  0  0
  5  6  1  0  0  0  0
  6  1  1  0  0  0  0
  8  2  1  0  0  0  0
 10  3  1  0  0  0  0
 11  4  1  0  0  0  0
 12  5  1  0  0  0  0
 14  6  1  0  0  0  0
 15  6  1  0  0  0  0
 16 17  1  0  0  0  0
 17 22  1  0  0  0  0
 17 18  2  0  0  0  0
 18 23  1  0  0  0  0
 19 18  1  0  0  0  0
 20 19  2  0  0  0  0
 21 16  2  0  0  0  0
 21 20  1  0  0  0  0
 24 20  1  0  0  0  0
 25 26  1  0  0  0  0
 26 27  2  0  0  0  0
 26 28  1  0  0  0  0
 28  4  1  0  0  0  0
 29 28  1  0  0  0  0
M  END
>  <minimizedAffinity>
-4.11722231

$$$$

 OpenBabel03272507453D

 29 30  0  0  0  0  0  0  0  0999 V2000
   38.4580   25.2500   35.3290 N   0  0  0  0  0  0  0  0  0  0  0  0
   39.8390   24.9160   35.1650 C   0  0  0  0  0  0  0  0  0  0  0  0
   40.2350   23.5090   35.2540 C   0  0  0  0  0  0  0  0  0  0  0  0
   39.3890   22.6010   36.0880 C   0  0  0  0  0  0  0  0  0  0  0  0
   37.9770   23.0660   36.2520 C   0  0  0  0  0  0  0  0  0  0  0  0
   37.9790   24.5820   36.5000 C   0  0  0  0  0  0  0  0  0  0  0  0
   40.1630   25.3500   34.1760 H   0  0  0  0  0  0  0  0  0  0  0  0
   40.4020   25.5320   35.9160 H   0  0  0  0  0  0  0  0  0  0  0  0
   40.3670   23.1050   34.2270 H   0  0  0  0  0  0  0  0  0  0  0  0
   41.2800   23.4680   35.6800 H   0  0  0  0  0  0  0  0  0  0  0  0
   39.3600   21.6120   35.5850 H   0  0  0  0  0  0  0  0  0  0  0  0
   37.5060   22.5350   37.1030 H   0  0  0  0  0  0  0  0  0  0  0  0
   37.3900   22.8560   35.3480 H   0  0  0  0  0  0  0  0  0  0  0  0
   36.9190   24.8840   36.7270 H   0  0  0  0  0  0  0  0  0  0  0  0
   38.5800   24.8070   37.4030 H   0  0  0  0  0  0  0  0  0  0  0  0
   37.7010   26.1010   34.4730 C   0  0  0  0  0  0  0  0  0  0  0  0
   37.4330   25.8320   33.1290 C   0  0  0  0  0  0  0  0  0  0  0  0
   36.6770   26.7630   32.4280 C   0  0  0  0  0  0  0  0  0  0  0  0
   36.2340   27.8880   33.0730 N   0  0  0  0  0  0  0  0  0  0  0  0
   36.5160   28.1030   34.3630 C   0  0  0  0  0  0  0  0  0  0  0  0
   37.2410   27.2140   35.0450 N   0  0  0  0  0  0  0  0  0  0  0  0
   37.8290   24.9310   32.7430 H   0  0  0  0  0  0  0  0  0  0  0  0
   36.4660   26.5630   31.3880 H   0  0  0  0  0  0  0  0  0  0  0  0
   36.1460   29.0040   34.8270 H   0  0  0  0  0  0  0  0  0  0  0  0
   41.6700   21.4100   38.5020 H   0  0  0  0  0  0  0  0  0  0  0  0
   41.2320   21.5750   37.5250 C   0  0  0  0  0  0  0  0  0  0  0  0
   41.7490   21.1090   36.4550 O   0  0  0  0  0  0  0  0  0  0  0  0
   40.0380   22.3350   37.3790 N   0  0  0  0  0  0  0  0  0  0  0  0
   39.6090   22.7210   38.2500 H   0  0  0  0  0  0  0  0  0  0  0  0
  1  6  1  0  0  0  0
  2  3  1  0  0  0  0
  2  1  1  0  0  0  0
  2  8  1  0  0  0  0
  3 10  1  0  0  0  0
  3  4  1  0  0  0  0
  4  5  1  0  0  0  0
  4 28  1  0  0  0  0
  5  6  1  0  0  0  0
  5 12  1  0  0  0  0
  6 14  1  0  0  0  0
  6 15  1  0  0  0  0
  7  2  1  0  0  0  0
  9  3  1  0  0  0  0
 11  4  1  0  0  0  0
 13  5  1  0  0  0  0
 16 21  1  0  0  0  0
 16  1  1  0  0  0  0
 17 16  2  0  0  0  0
 18 19  2  0  0  0  0
 18 17  1  0  0  0  0
 19 20  1  0  0  0  0
 20 24  1  0  0  0  0
 20 21  2  0  0  0  0
 22 17  1  0  0  0  0
 23 18  1  0  0  0  0
 26 25  1  0  0  0  0
 27 26  2  0  0  0  0
 28 26  1  0  0  0  0
 28 29  1  0  0  0  0
M  END
>  <minimizedAffinity>
-4.01385927

$$$$

 OpenBabel03272507453D

 29 30  0  0  0  0  0  0  0  0999 V2000
   37.7860   23.8030   33.2040 N   0  0  0  0  0  0  0  0  0  0  0  0
   37.6070   22.4180   33.5100 C   0  0  0  0  0  0  0  0  0  0  0  0
   37.7460   21.9840   34.9010 C   0  0  0  0  0  0  0  0  0  0  0  0
   38.6340   22.7890   35.7960 C   0  0  0  0  0  0  0  0  0  0  0  0
   38.8080   24.2090   35.3600 C   0  0  0  0  0  0  0  0  0  0  0  0
   38.9930   24.2420   33.8350 C   0  0  0  0  0  0  0  0  0  0  0  0
   36.5940   22.1250   33.1090 H   0  0  0  0  0  0  0  0  0  0  0  0
   38.3200   21.8570   32.8490 H   0  0  0  0  0  0  0  0  0  0  0  0
   36.7340   21.8610   35.3440 H   0  0  0  0  0  0  0  0  0  0  0  0
   38.1520   20.9300   34.8980 H   0  0  0  0  0  0  0  0  0  0  0  0
   38.1730   22.8010   36.8050 H   0  0  0  0  0  0  0  0  0  0  0  0
   39.6890   24.6500   35.8660 H   0  0  0  0  0  0  0  0  0  0  0  0
   37.9260   24.8080   35.6220 H   0  0  0  0  0  0  0  0  0  0  0  0
   39.2290   25.3050   33.5510 H   0  0  0  0  0  0  0  0  0  0  0  0
   39.8730   23.6300   33.5570 H   0  0  0  0  0  0  0  0  0  0  0  0
   36.9110   24.5990   32.4100 C   0  0  0  0  0  0  0  0  0  0  0  0
   35.9090   24.0870   31.5840 C   0  0  0  0  0  0  0  0  0  0  0  0
   35.1380   24.9960   30.8720 C   0  0  0  0  0  0  0  0  0  0  0  0
   35.3870   26.3360   31.0070 N   0  0  0  0  0  0  0  0  0  0  0  0
   36.3590   26.7820   31.8110 C   0  0  0  0  0  0  0  0  0  0  0  0
   37.1050   25.9160   32.5000 N   0  0  0  0  0  0  0  0  0  0  0  0
   35.8120   23.0340   31.5620 H   0  0  0  0  0  0  0  0  0  0  0  0
   34.3610   24.6070   30.2300 H   0  0  0  0  0  0  0  0  0  0  0  0
   36.5180   27.8460   31.8850 H   0  0  0  0  0  0  0  0  0  0  0  0
   41.5950   21.6010   37.3020 H   0  0  0  0  0  0  0  0  0  0  0  0
   40.6500   22.1220   37.2120 C   0  0  0  0  0  0  0  0  0  0  0  0
   40.1320   22.7720   38.1810 O   0  0  0  0  0  0  0  0  0  0  0  0
   39.9210   22.1080   35.9900 N   0  0  0  0  0  0  0  0  0  0  0  0
   40.3390   21.5770   35.1920 H   0  0  0  0  0  0  0  0  0  0  0  0
  1  2  1  0  0  0  0
  1  6  1  0  0  0  0
  2  3  1  0  0  0  0
  3  9  1  0  0  0  0
  3  4  1  0  0  0  0
  4 28  1  0  0  0  0
  4 11  1  0  0  0  0
  5 13  1  0  0  0  0
  5  4  1  0  0  0  0
  5 12  1  0  0  0  0
  6  5  1  0  0  0  0
  7  2  1  0  0  0  0
  8  2  1  0  0  0  0
 10  3  1  0  0  0  0
 14  6  1  0  0  0  0
 15  6  1  0  0  0  0
 16 21  1  0  0  0  0
 16  1  1  0  0  0  0
 17 16  2  0  0  0  0
 18 19  2  0  0  0  0
 18 17  1  0  0  0  0
 19 20  1  0  0  0  0
 20 24  1  0  0  0  0
 20 21  2  0  0  0  0
 22 17  1  0  0  0  0
 23 18  1  0  0  0  0
 26 25  1  0  0  0  0
 26 27  2  0  0  0  0
 28 26  1  0  0  0  0
 29 28  1  0  0  0  0
M  END
>  <minimizedAffinity>
-4.00777769

$$$$

 OpenBabel03272507453D

 29 30  0  0  0  0  0  0  0  0999 V2000
   37.9970   25.0520   35.1530 N   0  0  0  0  0  0  0  0  0  0  0  0
   37.9520   24.6810   33.7720 C   0  0  0  0  0  0  0  0  0  0  0  0
   38.3650   25.6640   32.7690 C   0  0  0  0  0  0  0  0  0  0  0  0
   38.2120   27.1120   33.1100 C   0  0  0  0  0  0  0  0  0  0  0  0
   38.2100   27.3930   34.5790 C   0  0  0  0  0  0  0  0  0  0  0  0
   37.3620   26.3260   35.2880 C   0  0  0  0  0  0  0  0  0  0  0  0
   38.5630   23.7380   33.6700 H   0  0  0  0  0  0  0  0  0  0  0  0
   36.9030   24.3340   33.5760 H   0  0  0  0  0  0  0  0  0  0  0  0
   39.4030   25.4350   32.4450 H   0  0  0  0  0  0  0  0  0  0  0  0
   37.7590   25.4810   31.8340 H   0  0  0  0  0  0  0  0  0  0  0  0
   39.0720   27.6550   32.6650 H   0  0  0  0  0  0  0  0  0  0  0  0
   37.7970   28.4040   34.7650 H   0  0  0  0  0  0  0  0  0  0  0  0
   39.2310   27.3600   34.9840 H   0  0  0  0  0  0  0  0  0  0  0  0
   37.2880   26.6240   36.3710 H   0  0  0  0  0  0  0  0  0  0  0  0
   36.3330   26.3430   34.8780 H   0  0  0  0  0  0  0  0  0  0  0  0
   38.5750   24.2810   36.2030 C   0  0  0  0  0  0  0  0  0  0  0  0
   38.0580   24.1970   37.4970 C   0  0  0  0  0  0  0  0  0  0  0  0
   38.7390   23.4000   38.4090 C   0  0  0  0  0  0  0  0  0  0  0  0
   39.8710   22.7420   38.0080 N   0  0  0  0  0  0  0  0  0  0  0  0
   40.3290   22.8520   36.7560 C   0  0  0  0  0  0  0  0  0  0  0  0
   39.6820   23.6150   35.8720 N   0  0  0  0  0  0  0  0  0  0  0  0
   37.1780   24.7510   37.6880 H   0  0  0  0  0  0  0  0  0  0  0  0
   38.3450   23.3310   39.4120 H   0  0  0  0  0  0  0  0  0  0  0  0
   41.2250   22.3140   36.4870 H   0  0  0  0  0  0  0  0  0  0  0  0
   36.1900   28.7750   30.7450 H   0  0  0  0  0  0  0  0  0  0  0  0
   37.0890   28.3790   31.2000 C   0  0  0  0  0  0  0  0  0  0  0  0
   38.2410   28.5110   30.6660 O   0  0  0  0  0  0  0  0  0  0  0  0
   37.0350   27.6770   32.4370 N   0  0  0  0  0  0  0  0  0  0  0  0
   36.0960   27.5640   32.8800 H   0  0  0  0  0  0  0  0  0  0  0  0
  1  6  1  0  0  0  0
  1 16  1  0  0  0  0
  2  1  1  0  0  0  0
  3  4  1  0  0  0  0
  3  2  1  0  0  0  0
  4  5  1  0  0  0  0
  5 12  1  0  0  0  0
  5 13  1  0  0  0  0
  5  6  1  0  0  0  0
  6 14  1  0  0  0  0
  7  2  1  0  0  0  0
  8  2  1  0  0  0  0
  9  3  1  0  0  0  0
 10  3  1  0  0  0  0
 11  4  1  0  0  0  0
 15  6  1  0  0  0  0
 16 17  1  0  0  0  0
 17 22  1  0  0  0  0
 17 18  2  0  0  0  0
 18 23  1  0  0  0  0
 19 18  1  0  0  0  0
 20 19  2  0  0  0  0
 21 16  2  0  0  0  0
 21 20  1  0  0  0  0
 24 20  1  0  0  0  0
 25 26  1  0  0  0  0
 26 28  1  0  0  0  0
 27 26  2  0  0  0  0
 28 29  1  0  0  0  0
 28  4  1  0  0  0  0
M  END
>  <minimizedAffinity>
-4.00483608

$$$$

 OpenBabel03272507453D

 29 30  0  0  0  0  0  0  0  0999 V2000
   38.7840   24.7160   35.5950 N   0  0  0  0  0  0  0  0  0  0  0  0
   38.1260   24.6150   34.3290 C   0  0  0  0  0  0  0  0  0  0  0  0
   38.0190   25.8150   33.4970 C   0  0  0  0  0  0  0  0  0  0  0  0
   38.0070   27.1410   34.1880 C   0  0  0  0  0  0  0  0  0  0  0  0
   38.6650   27.1320   35.5310 C   0  0  0  0  0  0  0  0  0  0  0  0
   38.2520   25.8550   36.2780 C   0  0  0  0  0  0  0  0  0  0  0  0
   38.6430   23.7900   33.7590 H   0  0  0  0  0  0  0  0  0  0  0  0
   37.1090   24.1880   34.5380 H   0  0  0  0  0  0  0  0  0  0  0  0
   38.8020   25.7790   32.7090 H   0  0  0  0  0  0  0  0  0  0  0  0
   37.0590   25.7440   32.9060 H   0  0  0  0  0  0  0  0  0  0  0  0
   38.5600   27.8590   33.5470 H   0  0  0  0  0  0  0  0  0  0  0  0
   38.3600   28.0310   36.1020 H   0  0  0  0  0  0  0  0  0  0  0  0
   39.7590   27.1450   35.4290 H   0  0  0  0  0  0  0  0  0  0  0  0
   38.6720   25.9280   37.3200 H   0  0  0  0  0  0  0  0  0  0  0  0
   37.1490   25.8250   36.3750 H   0  0  0  0  0  0  0  0  0  0  0  0
   39.7910   23.8340   36.0820 C   0  0  0  0  0  0  0  0  0  0  0  0
   39.6130   22.9400   37.1400 C   0  0  0  0  0  0  0  0  0  0  0  0
   40.6940   22.1440   37.4950 C   0  0  0  0  0  0  0  0  0  0  0  0
   41.8710   22.2670   36.8050 N   0  0  0  0  0  0  0  0  0  0  0  0
   41.9950   23.1370   35.7970 C   0  0  0  0  0  0  0  0  0  0  0  0
   40.9620   23.9060   35.4480 N   0  0  0  0  0  0  0  0  0  0  0  0
   38.6580   22.9370   37.5960 H   0  0  0  0  0  0  0  0  0  0  0  0
   40.5640   21.4520   38.3140 H   0  0  0  0  0  0  0  0  0  0  0  0
   42.9420   23.1980   35.2840 H   0  0  0  0  0  0  0  0  0  0  0  0
   35.0590   28.8780   33.3280 H   0  0  0  0  0  0  0  0  0  0  0  0
   36.0720   28.5090   33.2380 C   0  0  0  0  0  0  0  0  0  0  0  0
   36.8160   28.7860   32.2370 O   0  0  0  0  0  0  0  0  0  0  0  0
   36.6410   27.6790   34.2440 N   0  0  0  0  0  0  0  0  0  0  0  0
   36.0390   27.4470   35.0660 H   0  0  0  0  0  0  0  0  0  0  0  0
  1 16  1  0  0  0  0
  1  6  1  0  0  0  0
  2  8  1  0  0  0  0
  2  1  1  0  0  0  0
  3  4  1  0  0  0  0
  3  2  1  0  0  0  0
  4 28  1  0  0  0  0
  4  5  1  0  0  0  0
  5 12  1  0  0  0  0
  5  6  1  0  0  0  0
  6 15  1  0  0  0  0
  6 14  1  0  0  0  0
  7  2  1  0  0  0  0
  9  3  1  0  0  0  0
 10  3  1  0  0  0  0
 11  4  1  0  0  0  0
 13  5  1  0  0  0  0
 16 17  1  0  0  0  0
 17 18  2  0  0  0  0
 17 22  1  0  0  0  0
 18 23  1  0  0  0  0
 19 18  1  0  0  0  0
 20 19  2  0  0  0  0
 21 20  1  0  0  0  0
 21 16  2  0  0  0  0
 24 20  1  0  0  0  0
 26 25  1  0  0  0  0
 26 28  1  0  0  0  0
 27 26  2  0  0  0  0
 28 29  1  0  0  0  0
M  END
>  <minimizedAffinity>
-3.9509356

$$$$

 OpenBabel03272507453D

 29 30  0  0  0  0  0  0  0  0999 V2000
   38.2960   25.5180   33.5820 N   0  0  0  0  0  0  0  0  0  0  0  0
   38.4990   24.1060   33.4770 C   0  0  0  0  0  0  0  0  0  0  0  0
   38.1220   23.2580   34.6090 C   0  0  0  0  0  0  0  0  0  0  0  0
   38.1460   23.8690   35.9740 C   0  0  0  0  0  0  0  0  0  0  0  0
   37.9870   25.3560   35.9770 C   0  0  0  0  0  0  0  0  0  0  0  0
   38.8310   25.9480   34.8370 C   0  0  0  0  0  0  0  0  0  0  0  0
   37.9640   23.7700   32.5420 H   0  0  0  0  0  0  0  0  0  0  0  0
   39.5820   23.9640   33.2210 H   0  0  0  0  0  0  0  0  0  0  0  0
   37.1370   22.7880   34.3960 H   0  0  0  0  0  0  0  0  0  0  0  0
   38.8260   22.3750   34.6320 H   0  0  0  0  0  0  0  0  0  0  0  0
   37.3000   23.4390   36.5500 H   0  0  0  0  0  0  0  0  0  0  0  0
   38.3140   25.7640   36.9530 H   0  0  0  0  0  0  0  0  0  0  0  0
   36.9360   25.6360   35.8210 H   0  0  0  0  0  0  0  0  0  0  0  0
   38.7790   27.0680   34.9320 H   0  0  0  0  0  0  0  0  0  0  0  0
   39.8910   25.6600   34.9770 H   0  0  0  0  0  0  0  0  0  0  0  0
   37.6710   26.3430   32.6040 C   0  0  0  0  0  0  0  0  0  0  0  0
   38.2010   27.5450   32.1290 C   0  0  0  0  0  0  0  0  0  0  0  0
   37.4680   28.2340   31.1720 C   0  0  0  0  0  0  0  0  0  0  0  0
   36.2750   27.7170   30.7400 N   0  0  0  0  0  0  0  0  0  0  0  0
   35.8070   26.5610   31.2230 C   0  0  0  0  0  0  0  0  0  0  0  0
   36.5040   25.8900   32.1430 N   0  0  0  0  0  0  0  0  0  0  0  0
   39.1290   27.8420   32.5380 H   0  0  0  0  0  0  0  0  0  0  0  0
   37.8710   29.1650   30.8010 H   0  0  0  0  0  0  0  0  0  0  0  0
   34.8630   26.1930   30.8530 H   0  0  0  0  0  0  0  0  0  0  0  0
   40.2600   22.7880   38.5840 H   0  0  0  0  0  0  0  0  0  0  0  0
   39.3490   23.1010   38.0910 C   0  0  0  0  0  0  0  0  0  0  0  0
   38.2330   23.1870   38.7050 O   0  0  0  0  0  0  0  0  0  0  0  0
   39.3430   23.4380   36.7080 N   0  0  0  0  0  0  0  0  0  0  0  0
   40.2530   23.3700   36.1980 H   0  0  0  0  0  0  0  0  0  0  0  0
  1  6  1  0  0  0  0
  2  1  1  0  0  0  0
  2  3  1  0  0  0  0
  3 10  1  0  0  0  0
  3  4  1  0  0  0  0
  4  5  1  0  0  0  0
  4 11  1  0  0  0  0
  4 28  1  0  0  0  0
  5 12  1  0  0  0  0
  6 14  1  0  0  0  0
  6 15  1  0  0  0  0
  6  5  1  0  0  0  0
  7  2  1  0  0  0  0
  8  2  1  0  0  0  0
  9  3  1  0  0  0  0
 13  5  1  0  0  0  0
 16  1  1  0  0  0  0
 17 22  1  0  0  0  0
 17 16  2  0  0  0  0
 18 17  1  0  0  0  0
 19 18  2  0  0  0  0
 19 20  1  0  0  0  0
 20 21  2  0  0  0  0
 21 16  1  0  0  0  0
 23 18  1  0  0  0  0
 24 20  1  0  0  0  0
 26 25  1  0  0  0  0
 26 27  2  0  0  0  0
 28 26  1  0  0  0  0
 29 28  1  0  0  0  0
M  END
>  <minimizedAffinity>
-3.89196658

$$$$

 OpenBabel03272507453D

 29 30  0  0  0  0  0  0  0  0999 V2000
   38.7860   24.7640   35.5400 N   0  0  0  0  0  0  0  0  0  0  0  0
   38.1230   24.7430   34.2720 C   0  0  0  0  0  0  0  0  0  0  0  0
   37.9780   25.9990   33.5370 C   0  0  0  0  0  0  0  0  0  0  0  0
   37.9320   27.2680   34.3290 C   0  0  0  0  0  0  0  0  0  0  0  0
   38.5990   27.1730   35.6650 C   0  0  0  0  0  0  0  0  0  0  0  0
   38.2260   25.8310   36.3120 C   0  0  0  0  0  0  0  0  0  0  0  0
   38.6600   23.9800   33.6390 H   0  0  0  0  0  0  0  0  0  0  0  0
   37.1200   24.2720   34.4520 H   0  0  0  0  0  0  0  0  0  0  0  0
   38.7560   26.0480   32.7450 H   0  0  0  0  0  0  0  0  0  0  0  0
   37.0160   25.9470   32.9460 H   0  0  0  0  0  0  0  0  0  0  0  0
   38.4620   28.0490   33.7440 H   0  0  0  0  0  0  0  0  0  0  0  0
   38.2710   28.0160   36.3050 H   0  0  0  0  0  0  0  0  0  0  0  0
   39.6910   27.2250   35.5600 H   0  0  0  0  0  0  0  0  0  0  0  0
   38.6490   25.8350   37.3550 H   0  0  0  0  0  0  0  0  0  0  0  0
   37.1250   25.7620   36.4100 H   0  0  0  0  0  0  0  0  0  0  0  0
   39.8190   23.8750   35.9530 C   0  0  0  0  0  0  0  0  0  0  0  0
   41.0280   23.7010   35.2770 C   0  0  0  0  0  0  0  0  0  0  0  0
   41.9360   22.7950   35.8090 C   0  0  0  0  0  0  0  0  0  0  0  0
   41.6130   22.1200   36.9570 N   0  0  0  0  0  0  0  0  0  0  0  0
   40.4420   22.3190   37.5710 C   0  0  0  0  0  0  0  0  0  0  0  0
   39.5630   23.1890   37.0670 N   0  0  0  0  0  0  0  0  0  0  0  0
   41.1630   24.2780   34.4010 H   0  0  0  0  0  0  0  0  0  0  0  0
   42.8730   22.6540   35.2910 H   0  0  0  0  0  0  0  0  0  0  0  0
   40.2330   21.7650   38.4720 H   0  0  0  0  0  0  0  0  0  0  0  0
   34.9160   28.9430   33.5920 H   0  0  0  0  0  0  0  0  0  0  0  0
   35.9380   28.6090   33.4680 C   0  0  0  0  0  0  0  0  0  0  0  0
   36.6520   28.9460   32.4640 O   0  0  0  0  0  0  0  0  0  0  0  0
   36.5520   27.7610   34.4320 N   0  0  0  0  0  0  0  0  0  0  0  0
   35.9750   27.4800   35.2560 H   0  0  0  0  0  0  0  0  0  0  0  0
  1 16  1  0  0  0  0
  1  6  1  0  0  0  0
  2  8  1  0  0  0  0
  2  1  1  0  0  0  0
  3  2  1  0  0  0  0
  3  4  1  0  0  0  0
  4 28  1  0  0  0  0
  4  5  1  0  0  0  0
  5 12  1  0  0  0  0
  5  6  1  0  0  0  0
  6 15  1  0  0  0  0
  6 14  1  0  0  0  0
  7  2  1  0  0  0  0
  9  3  1  0  0  0  0
 10  3  1  0  0  0  0
 11  4  1  0  0  0  0
 13  5  1  0  0  0  0
 16 21  1  0  0  0  0
 17 18  1  0  0  0  0
 17 16  2  0  0  0  0
 18 19  2  0  0  0  0
 19 20  1  0  0  0  0
 20 24  1  0  0  0  0
 21 20  2  0  0  0  0
 22 17  1  0  0  0  0
 23 18  1  0  0  0  0
 26 25  1  0  0  0  0
 26 28  1  0  0  0  0
 27 26  2  0  0  0  0
 28 29  1  0  0  0  0
M  END
>  <minimizedAffinity>
-3.88000083

$$$$

 OpenBabel03272507453D

 29 30  0  0  0  0  0  0  0  0999 V2000
   37.2060   27.1810   33.4500 N   0  0  0  0  0  0  0  0  0  0  0  0
   37.2350   27.6930   34.7850 C   0  0  0  0  0  0  0  0  0  0  0  0
   38.2340   27.1660   35.7160 C   0  0  0  0  0  0  0  0  0  0  0  0
   38.7290   25.7720   35.4890 C   0  0  0  0  0  0  0  0  0  0  0  0
   38.6020   25.3060   34.0740 C   0  0  0  0  0  0  0  0  0  0  0  0
   37.2390   25.7530   33.5240 C   0  0  0  0  0  0  0  0  0  0  0  0
   37.3320   28.8130   34.7020 H   0  0  0  0  0  0  0  0  0  0  0  0
   36.2000   27.5520   35.1960 H   0  0  0  0  0  0  0  0  0  0  0  0
   39.0780   27.8850   35.7870 H   0  0  0  0  0  0  0  0  0  0  0  0
   37.7900   27.1910   36.7540 H   0  0  0  0  0  0  0  0  0  0  0  0
   39.8070   25.7510   35.7540 H   0  0  0  0  0  0  0  0  0  0  0  0
   38.6920   24.2020   34.0350 H   0  0  0  0  0  0  0  0  0  0  0  0
   39.3950   25.7370   33.4480 H   0  0  0  0  0  0  0  0  0  0  0  0
   37.1260   25.2960   32.5010 H   0  0  0  0  0  0  0  0  0  0  0  0
   36.4310   25.3340   34.1560 H   0  0  0  0  0  0  0  0  0  0  0  0
   37.1540   27.9640   32.2610 C   0  0  0  0  0  0  0  0  0  0  0  0
   38.0930   27.8980   31.2300 C   0  0  0  0  0  0  0  0  0  0  0  0
   37.9000   28.7280   30.1330 C   0  0  0  0  0  0  0  0  0  0  0  0
   36.8150   29.5630   30.1080 N   0  0  0  0  0  0  0  0  0  0  0  0
   35.9390   29.5920   31.1200 C   0  0  0  0  0  0  0  0  0  0  0  0
   36.1160   28.7970   32.1770 N   0  0  0  0  0  0  0  0  0  0  0  0
   38.8890   27.2150   31.3630 H   0  0  0  0  0  0  0  0  0  0  0  0
   38.6240   28.6840   29.3320 H   0  0  0  0  0  0  0  0  0  0  0  0
   35.1000   30.2660   31.0540 H   0  0  0  0  0  0  0  0  0  0  0  0
   38.2370   23.0370   37.6630 H   0  0  0  0  0  0  0  0  0  0  0  0
   38.7460   23.6890   36.9640 C   0  0  0  0  0  0  0  0  0  0  0  0
   39.9420   23.4730   36.5730 O   0  0  0  0  0  0  0  0  0  0  0  0
   38.1010   24.8430   36.4380 N   0  0  0  0  0  0  0  0  0  0  0  0
   37.1220   25.0270   36.7540 H   0  0  0  0  0  0  0  0  0  0  0  0
  1  6  1  0  0  0  0
  1  2  1  0  0  0  0
  2  8  1  0  0  0  0
  2  3  1  0  0  0  0
  3  9  1  0  0  0  0
  3 10  1  0  0  0  0
  4  3  1  0  0  0  0
  4 11  1  0  0  0  0
  4 28  1  0  0  0  0
  5  4  1  0  0  0  0
  6  5  1  0  0  0  0
  6 15  1  0  0  0  0
  7  2  1  0  0  0  0
 12  5  1  0  0  0  0
 13  5  1  0  0  0  0
 14  6  1  0  0  0  0
 16  1  1  0  0  0  0
 17 22  1  0  0  0  0
 17 16  2  0  0  0  0
 18 17  1  0  0  0  0
 19 18  2  0  0  0  0
 19 20  1  0  0  0  0
 20 21  2  0  0  0  0
 21 16  1  0  0  0  0
 23 18  1  0  0  0  0
 24 20  1  0  0  0  0
 26 25  1  0  0  0  0
 27 26  2  0  0  0  0
 28 29  1  0  0  0  0
 28 26  1  0  0  0  0
M  END
>  <minimizedAffinity>
-3.87542725

$$$$
