
 OpenBabel03272510003D

 17 17  0  0  0  0  0  0  0  0999 V2000
   38.2840   31.2500   50.0660 C   0  0  0  0  0  0  0  0  0  0  0  0
   38.2980   31.5350   48.6980 C   0  0  0  0  0  0  0  0  0  0  0  0
   37.2360   31.0780   47.9310 C   0  0  0  0  0  0  0  0  0  0  0  0
   36.2390   30.3800   48.5450 N   0  0  0  0  0  0  0  0  0  0  0  0
   36.2660   30.1290   49.8650 C   0  0  0  0  0  0  0  0  0  0  0  0
   37.2810   30.5590   50.6270 N   0  0  0  0  0  0  0  0  0  0  0  0
   39.1340   31.6270   50.6220 H   0  0  0  0  0  0  0  0  0  0  0  0
   39.0720   32.0850   48.1780 H   0  0  0  0  0  0  0  0  0  0  0  0
   38.0550   32.2680   44.8590 H   0  0  0  0  0  0  0  0  0  0  0  0
   38.1590   32.1170   45.9240 C   0  0  0  0  0  0  0  0  0  0  0  0
   39.0860   32.5930   46.6550 O   0  0  0  0  0  0  0  0  0  0  0  0
   37.1680   31.3220   46.5320 N   0  0  0  0  0  0  0  0  0  0  0  0
   36.3780   30.8980   46.0000 H   0  0  0  0  0  0  0  0  0  0  0  0
   35.1340   29.3610   50.4400 C   0  0  0  0  0  0  0  0  0  0  0  0
   35.2800   29.1330   51.7980 F   0  0  0  0  0  0  0  0  0  0  0  0
   33.9320   30.0760   50.3010 F   0  0  0  0  0  0  0  0  0  0  0  0
   34.9130   28.1570   49.8390 F   0  0  0  0  0  0  0  0  0  0  0  0
  1  7  1  0  0  0  0
  1  6  1  0  0  0  0
  2  1  2  0  0  0  0
  3  4  2  0  0  0  0
  3  2  1  0  0  0  0
  4  5  1  0  0  0  0
  5 14  1  0  0  0  0
  5  6  2  0  0  0  0
  8  2  1  0  0  0  0
  9 10  1  0  0  0  0
 10 12  1  0  0  0  0
 10 11  2  0  0  0  0
 12  3  1  0  0  0  0
 13 12  1  0  0  0  0
 14 15  1  0  0  0  0
 16 14  1  0  0  0  0
 17 14  1  0  0  0  0
M  END
>  <minimizedAffinity>
-4.9231739

>  <minimizedRMSD>
0.121258445

$$$$
