
 OpenBabel03272510003D

 17 17  0  0  0  0  0  0  0  0999 V2000
   38.4030   31.3410   50.1730 C   0  0  0  0  0  0  0  0  0  0  0  0
   38.4200   31.7810   48.8470 C   0  0  0  0  0  0  0  0  0  0  0  0
   37.3660   31.4060   48.0270 C   0  0  0  0  0  0  0  0  0  0  0  0
   36.3720   30.6330   48.5510 N   0  0  0  0  0  0  0  0  0  0  0  0
   36.3960   30.2330   49.8340 C   0  0  0  0  0  0  0  0  0  0  0  0
   37.4040   30.5820   50.6450 N   0  0  0  0  0  0  0  0  0  0  0  0
   39.2470   31.6600   50.7730 H   0  0  0  0  0  0  0  0  0  0  0  0
   39.1910   32.3940   48.3970 H   0  0  0  0  0  0  0  0  0  0  0  0
   38.0280   31.5110   44.6990 H   0  0  0  0  0  0  0  0  0  0  0  0
   38.1200   31.1630   45.7180 C   0  0  0  0  0  0  0  0  0  0  0  0
   38.8940   30.2340   46.1190 O   0  0  0  0  0  0  0  0  0  0  0  0
   37.3020   31.8080   46.6640 N   0  0  0  0  0  0  0  0  0  0  0  0
   36.6430   32.5770   46.4130 H   0  0  0  0  0  0  0  0  0  0  0  0
   35.2690   29.3940   50.3110 C   0  0  0  0  0  0  0  0  0  0  0  0
   35.3510   29.1110   51.6640 F   0  0  0  0  0  0  0  0  0  0  0  0
   34.0460   30.0660   50.1350 F   0  0  0  0  0  0  0  0  0  0  0  0
   35.1330   28.2110   49.6480 F   0  0  0  0  0  0  0  0  0  0  0  0
  1  6  1  0  0  0  0
  1  7  1  0  0  0  0
  2  1  2  0  0  0  0
  3  4  2  0  0  0  0
  3  2  1  0  0  0  0
  4  5  1  0  0  0  0
  5 14  1  0  0  0  0
  5  6  2  0  0  0  0
  8  2  1  0  0  0  0
  9 10  1  0  0  0  0
 10 11  2  0  0  0  0
 10 12  1  0  0  0  0
 12  3  1  0  0  0  0
 13 12  1  0  0  0  0
 14 15  1  0  0  0  0
 16 14  1  0  0  0  0
 17 14  1  0  0  0  0
M  END
>  <minimizedAffinity>
-4.58727121

>  <minimizedRMSD>
0.23931247

$$$$
