REMARK  Name = 
REMARK  2 active torsions:
REMARK  status: ('A' for Active; 'I' for Inactive)
REMARK    1  A    between atoms: C_3  and  N_16
REMARK    2  A    between atoms: C_5  and  C_7
REMARK                            x       y       z     vdW  Elec       q    Type
REMARK                         _______ _______ _______ _____ _____    ______ ____
ROOT
ATOM      1  C   UNL     1      38.302  31.244  50.119  0.00  0.00    +0.000 A 
ATOM      2  C   UNL     1      38.289  31.616  48.772  0.00  0.00    +0.000 A 
ATOM      3  C   UNL     1      37.204  31.222  48.002  0.00  0.00    +0.000 A 
ATOM      4  N   UNL     1      36.212  30.497  48.593  0.00  0.00    +0.000 NA
ATOM      5  C   UNL     1      36.265  30.161  49.893  0.00  0.00    +0.000 A 
ATOM      6  N   UNL     1      37.303  30.530  50.657  0.00  0.00    +0.000 NA
ATOM      7  H   UNL     1      39.169  31.575  50.678  0.00  0.00    +0.000 HD
ATOM      8  H   UNL     1      39.058  32.190  48.270  0.00  0.00    +0.000 HD
ENDROOT
BRANCH   3  12
ATOM      9  H   UNL     1      35.859  31.689  44.920  0.00  0.00    +0.000 HD
ATOM     10  C   UNL     1      35.871  31.420  45.966  0.00  0.00    +0.000 C 
ATOM     11  O   UNL     1      34.873  30.999  46.637  0.00  0.00    +0.000 OA
ATOM     12  N   UNL     1      37.108  31.556  46.623  0.00  0.00    +0.000 N 
ATOM     13  H   UNL     1      37.970  31.895  46.142  0.00  0.00    +0.000 HD
ENDBRANCH   3  12
BRANCH   5  14
ATOM     14  C   UNL     1      35.137  29.371  50.444  0.00  0.00    +0.000 C 
ATOM     15  F   UNL     1      35.268  29.128  51.801  0.00  0.00    +0.000 F 
ATOM     16  F   UNL     1      33.927  30.071  50.297  0.00  0.00    +0.000 F 
ATOM     17  F   UNL     1      34.941  28.171  49.826  0.00  0.00    +0.000 F 
ENDBRANCH   5  14
TORSDOF 2
