
 OpenBabel03272505183D

 29 30  0  0  0  0  0  0  0  0999 V2000
   38.8750   32.3670   47.5410 C   0  0  0  0  0  0  0  0  0  0  0  0
   38.4110   31.0920   47.3690 C   0  0  0  0  0  0  0  0  0  0  0  0
   38.8500   30.4060   46.2550 C   0  0  0  0  0  0  0  0  0  0  0  0
   39.6960   30.9450   45.3630 C   0  0  0  0  0  0  0  0  0  0  0  0
   40.1850   32.2350   45.5060 C   0  0  0  0  0  0  0  0  0  0  0  0
   39.7540   32.9250   46.6130 C   0  0  0  0  0  0  0  0  0  0  0  0
   38.4720   29.3970   46.1340 H   0  0  0  0  0  0  0  0  0  0  0  0
   39.9830   30.3290   44.5190 H   0  0  0  0  0  0  0  0  0  0  0  0
   40.8640   32.6210   44.7590 H   0  0  0  0  0  0  0  0  0  0  0  0
   40.1780   33.9200   46.6530 H   0  0  0  0  0  0  0  0  0  0  0  0
   37.2320   29.5520   50.5500 C   0  0  0  0  0  0  0  0  0  0  0  0
   38.0440   30.1060   49.5380 C   0  0  0  0  0  0  0  0  0  0  0  0
   37.5020   30.5420   48.3440 C   0  0  0  0  0  0  0  0  0  0  0  0
   36.1600   30.3790   48.2700 N   0  0  0  0  0  0  0  0  0  0  0  0
   35.3740   29.8600   49.2100 C   0  0  0  0  0  0  0  0  0  0  0  0
   35.9190   29.4420   50.3650 N   0  0  0  0  0  0  0  0  0  0  0  0
   37.7380   29.2370   51.4540 H   0  0  0  0  0  0  0  0  0  0  0  0
   39.1030   30.1830   49.7140 H   0  0  0  0  0  0  0  0  0  0  0  0
   32.3510   28.5080   48.5160 H   0  0  0  0  0  0  0  0  0  0  0  0
   33.4390   28.4640   48.6790 C   0  0  0  0  0  0  0  0  0  0  0  0
   34.1410   27.4260   48.6210 O   0  0  0  0  0  0  0  0  0  0  0  0
   33.9720   29.7600   48.9730 N   0  0  0  0  0  0  0  0  0  0  0  0
   33.3950   30.6430   49.0250 H   0  0  0  0  0  0  0  0  0  0  0  0
   39.3700   34.2850   48.8820 N   0  0  0  0  0  0  0  0  0  0  0  0
   38.5760   33.2740   48.6050 C   0  0  0  0  0  0  0  0  0  0  0  0
   37.6460   33.5580   49.6160 N   0  0  0  0  0  0  0  0  0  0  0  0
   39.1440   34.9290   49.6740 H   0  0  0  0  0  0  0  0  0  0  0  0
   37.7360   33.1460   50.5670 H   0  0  0  0  0  0  0  0  0  0  0  0
   36.8020   34.1720   49.5720 H   0  0  0  0  0  0  0  0  0  0  0  0
  1 25  1  0  0  0  0
  2  1  1  0  0  0  0
  2 13  1  0  0  0  0
  3  2  2  0  0  0  0
  4  5  2  0  0  0  0
  4  3  1  0  0  0  0
  5  6  1  0  0  0  0
  6 10  1  0  0  0  0
  6  1  2  0  0  0  0
  7  3  1  0  0  0  0
  8  4  1  0  0  0  0
  9  5  1  0  0  0  0
 11 17  1  0  0  0  0
 12 18  1  0  0  0  0
 12 11  2  0  0  0  0
 13 12  1  0  0  0  0
 14 13  2  0  0  0  0
 14 15  1  0  0  0  0
 15 16  2  0  0  0  0
 16 11  1  0  0  0  0
 19 20  1  0  0  0  0
 20 22  1  0  0  0  0
 21 20  2  0  0  0  0
 22 23  1  0  0  0  0
 22 15  1  0  0  0  0
 24 27  1  0  0  0  0
 25 24  2  0  0  0  0
 25 26  1  0  0  0  0
 26 28  1  0  0  0  0
 29 26  1  0  0  0  0
M  END
>  <minimizedAffinity>
-6.44270086

>  <minimizedRMSD>
0.57613802

$$$$
