
 OpenBabel03272506403D

 33 34  0  0  1  0  0  0  0  0999 V2000
   37.5710   24.7560   32.8640 O   0  0  0  0  0  0  0  0  0  0  0  0
   36.9800   23.7730   32.3850 C   0  0  0  0  0  0  0  0  0  0  0  0
   37.3490   22.4170   32.7380 C   0  0  2  0  0  0  0  0  0  0  0  0
   36.2060   21.6120   32.0500 C   0  0  0  0  0  0  0  0  0  0  0  0
   35.7940   22.4990   30.9180 C   0  0  0  0  0  0  0  0  0  0  0  0
   35.8850   23.8510   31.4490 N   0  0  0  0  0  0  0  0  0  0  0  0
   38.3090   22.0260   32.3920 H   0  0  0  0  0  0  0  0  0  0  0  0
   36.6900   20.7070   31.6360 H   0  0  0  0  0  0  0  0  0  0  0  0
   35.4070   21.3750   32.7530 H   0  0  0  0  0  0  0  0  0  0  0  0
   34.7000   22.3260   30.7670 H   0  0  0  0  0  0  0  0  0  0  0  0
   36.3960   22.3770   30.0180 H   0  0  0  0  0  0  0  0  0  0  0  0
   35.0640   24.9920   31.1110 C   0  0  0  0  0  0  0  0  0  0  0  0
   34.6610   25.4960   32.0210 H   0  0  0  0  0  0  0  0  0  0  0  0
   34.1910   24.6920   30.4940 H   0  0  0  0  0  0  0  0  0  0  0  0
   36.7330   27.9490   30.4180 H   0  0  0  0  0  0  0  0  0  0  0  0
   36.0940   27.2510   30.9790 C   0  0  0  0  0  0  0  0  0  0  0  0
   35.5660   27.6030   32.0760 O   0  0  0  0  0  0  0  0  0  0  0  0
   35.9080   25.9560   30.3990 N   0  0  0  0  0  0  0  0  0  0  0  0
   36.3680   25.7180   29.4910 H   0  0  0  0  0  0  0  0  0  0  0  0
   37.2390   22.1270   34.1350 O   0  0  0  0  0  0  0  0  0  0  0  0
   38.3920   22.2470   34.9070 C   0  0  0  0  0  0  0  0  0  0  0  0
   39.5950   22.2380   34.2270 C   0  0  0  0  0  0  0  0  0  0  0  0
   40.7660   22.3560   34.9640 C   0  0  0  0  0  0  0  0  0  0  0  0
   40.6770   22.4740   36.3170 N   0  0  0  0  0  0  0  0  0  0  0  0
   39.4990   22.4800   36.9620 C   0  0  0  0  0  0  0  0  0  0  0  0
   38.3900   22.3680   36.2490 N   0  0  0  0  0  0  0  0  0  0  0  0
   38.7130   23.7470   38.8030 C   0  0  0  0  0  0  0  0  0  0  0  0
   38.1450   24.6190   38.0910 O   0  0  0  0  0  0  0  0  0  0  0  0
   39.4410   22.6040   38.3810 N   0  0  0  0  0  0  0  0  0  0  0  0
   39.7360   22.1480   33.1590 H   0  0  0  0  0  0  0  0  0  0  0  0
   41.7250   22.3550   34.4880 H   0  0  0  0  0  0  0  0  0  0  0  0
   38.5990   23.9470   39.8740 H   0  0  0  0  0  0  0  0  0  0  0  0
   39.8620   21.9620   39.0810 H   0  0  0  0  0  0  0  0  0  0  0  0
  2  3  1  0  0  0  0
  2  1  2  0  0  0  0
  3  7  1  6  0  0  0
  3 20  1  0  0  0  0
  4  3  1  0  0  0  0
  4  9  1  0  0  0  0
  5  6  1  0  0  0  0
  5  4  1  0  0  0  0
  6  2  1  0  0  0  0
  8  4  1  0  0  0  0
 10  5  1  0  0  0  0
 11  5  1  0  0  0  0
 12  6  1  0  0  0  0
 12 13  1  0  0  0  0
 14 12  1  0  0  0  0
 15 16  1  0  0  0  0
 16 17  2  0  0  0  0
 18 16  1  0  0  0  0
 18 12  1  0  0  0  0
 19 18  1  0  0  0  0
 20 21  1  0  0  0  0
 21 26  1  0  0  0  0
 22 21  2  0  0  0  0
 22 23  1  0  0  0  0
 23 24  2  0  0  0  0
 24 25  1  0  0  0  0
 25 29  1  0  0  0  0
 26 25  2  0  0  0  0
 27 32  1  0  0  0  0
 28 27  2  0  0  0  0
 29 27  1  0  0  0  0
 29 33  1  0  0  0  0
 30 22  1  0  0  0  0
 31 23  1  0  0  0  0
M  END
>  <minimizedAffinity>
-5.12477541

$$$$

 OpenBabel03272506403D

 33 34  0  0  1  0  0  0  0  0999 V2000
   37.8840   23.8720   33.2270 O   0  0  0  0  0  0  0  0  0  0  0  0
   38.3540   25.0180   33.1250 C   0  0  0  0  0  0  0  0  0  0  0  0
   39.2370   25.5710   34.1320 C   0  0  2  0  0  0  0  0  0  0  0  0
   39.6810   26.8950   33.4400 C   0  0  0  0  0  0  0  0  0  0  0  0
   38.5350   27.2080   32.5310 C   0  0  0  0  0  0  0  0  0  0  0  0
   38.0920   25.9160   32.0260 N   0  0  0  0  0  0  0  0  0  0  0  0
   38.8270   25.8110   35.1160 H   0  0  0  0  0  0  0  0  0  0  0  0
   39.7140   27.6520   34.2460 H   0  0  0  0  0  0  0  0  0  0  0  0
   40.6400   26.7780   32.9350 H   0  0  0  0  0  0  0  0  0  0  0  0
   38.9740   27.7240   31.6410 H   0  0  0  0  0  0  0  0  0  0  0  0
   37.7240   27.7540   33.0110 H   0  0  0  0  0  0  0  0  0  0  0  0
   37.5290   25.6180   30.7290 C   0  0  0  0  0  0  0  0  0  0  0  0
   37.4130   24.5200   30.5710 H   0  0  0  0  0  0  0  0  0  0  0  0
   38.1780   25.9960   29.9120 H   0  0  0  0  0  0  0  0  0  0  0  0
   34.0810   25.8950   30.9280 H   0  0  0  0  0  0  0  0  0  0  0  0
   35.0650   25.4070   30.9840 C   0  0  0  0  0  0  0  0  0  0  0  0
   35.1600   24.1870   31.3100 O   0  0  0  0  0  0  0  0  0  0  0  0
   36.1960   26.2250   30.6690 N   0  0  0  0  0  0  0  0  0  0  0  0
   36.0600   27.2270   30.4060 H   0  0  0  0  0  0  0  0  0  0  0  0
   40.4380   24.8190   34.3330 O   0  0  0  0  0  0  0  0  0  0  0  0
   40.5100   24.0180   35.4700 C   0  0  0  0  0  0  0  0  0  0  0  0
   41.7560   23.5180   35.7950 C   0  0  0  0  0  0  0  0  0  0  0  0
   41.8670   22.7150   36.9230 C   0  0  0  0  0  0  0  0  0  0  0  0
   40.7490   22.4570   37.6530 N   0  0  0  0  0  0  0  0  0  0  0  0
   39.5440   22.9500   37.3220 C   0  0  0  0  0  0  0  0  0  0  0  0
   39.4510   23.7150   36.2460 N   0  0  0  0  0  0  0  0  0  0  0  0
   37.7790   23.8250   38.6390 C   0  0  0  0  0  0  0  0  0  0  0  0
   38.1330   25.0270   38.4950 O   0  0  0  0  0  0  0  0  0  0  0  0
   38.3910   22.6590   38.1080 N   0  0  0  0  0  0  0  0  0  0  0  0
   42.6810   23.6830   35.2610 H   0  0  0  0  0  0  0  0  0  0  0  0
   42.8090   22.3020   37.2200 H   0  0  0  0  0  0  0  0  0  0  0  0
   36.8820   23.7270   39.2590 H   0  0  0  0  0  0  0  0  0  0  0  0
   37.9920   21.7210   38.3060 H   0  0  0  0  0  0  0  0  0  0  0  0
  2  1  2  0  0  0  0
  2  3  1  0  0  0  0
  3 20  1  0  0  0  0
  3  7  1  1  0  0  0
  4  3  1  0  0  0  0
  4  8  1  0  0  0  0
  5 11  1  0  0  0  0
  5  4  1  0  0  0  0
  6  5  1  0  0  0  0
  6  2  1  0  0  0  0
  9  4  1  0  0  0  0
 10  5  1  0  0  0  0
 12  6  1  0  0  0  0
 13 12  1  0  0  0  0
 14 12  1  0  0  0  0
 15 16  1  0  0  0  0
 16 17  2  0  0  0  0
 18 12  1  0  0  0  0
 18 16  1  0  0  0  0
 19 18  1  0  0  0  0
 20 21  1  0  0  0  0
 21 22  2  0  0  0  0
 21 26  1  0  0  0  0
 22 23  1  0  0  0  0
 23 31  1  0  0  0  0
 23 24  2  0  0  0  0
 25 24  1  0  0  0  0
 25 29  1  0  0  0  0
 26 25  2  0  0  0  0
 27 32  1  0  0  0  0
 28 27  2  0  0  0  0
 29 33  1  0  0  0  0
 29 27  1  0  0  0  0
 30 22  1  0  0  0  0
M  END
>  <minimizedAffinity>
-4.89165878

$$$$

 OpenBabel03272506403D

 33 34  0  0  1  0  0  0  0  0999 V2000
   38.1390   26.8850   31.8780 O   0  0  0  0  0  0  0  0  0  0  0  0
   37.3970   27.5090   32.6560 C   0  0  0  0  0  0  0  0  0  0  0  0
   37.2560   27.1240   34.0460 C   0  0  2  0  0  0  0  0  0  0  0  0
   36.4080   28.3110   34.5960 C   0  0  0  0  0  0  0  0  0  0  0  0
   35.6630   28.7880   33.3890 C   0  0  0  0  0  0  0  0  0  0  0  0
   36.6060   28.6590   32.2890 N   0  0  0  0  0  0  0  0  0  0  0  0
   36.7430   26.1890   34.2840 H   0  0  0  0  0  0  0  0  0  0  0  0
   35.6890   27.8570   35.3030 H   0  0  0  0  0  0  0  0  0  0  0  0
   37.0390   29.0660   35.0650 H   0  0  0  0  0  0  0  0  0  0  0  0
   35.5280   29.8900   33.5210 H   0  0  0  0  0  0  0  0  0  0  0  0
   34.7390   28.2430   33.1960 H   0  0  0  0  0  0  0  0  0  0  0  0
   36.7170   29.4940   31.1150 C   0  0  0  0  0  0  0  0  0  0  0  0
   37.7070   30.0050   31.0620 H   0  0  0  0  0  0  0  0  0  0  0  0
   35.9420   30.2890   31.1120 H   0  0  0  0  0  0  0  0  0  0  0  0
   37.4360   28.1030   28.0240 H   0  0  0  0  0  0  0  0  0  0  0  0
   37.5600   28.7670   28.8920 C   0  0  0  0  0  0  0  0  0  0  0  0
   38.5170   29.5970   28.9350 O   0  0  0  0  0  0  0  0  0  0  0  0
   36.5930   28.6300   29.9370 N   0  0  0  0  0  0  0  0  0  0  0  0
   35.8230   27.9280   29.8490 H   0  0  0  0  0  0  0  0  0  0  0  0
   38.4800   27.1490   34.7860 O   0  0  0  0  0  0  0  0  0  0  0  0
   39.0240   25.9250   35.1660 C   0  0  0  0  0  0  0  0  0  0  0  0
   40.3060   25.6540   34.7250 C   0  0  0  0  0  0  0  0  0  0  0  0
   40.8810   24.4430   35.0850 C   0  0  0  0  0  0  0  0  0  0  0  0
   40.1610   23.5790   35.8500 N   0  0  0  0  0  0  0  0  0  0  0  0
   38.9150   23.8570   36.2690 C   0  0  0  0  0  0  0  0  0  0  0  0
   38.3770   25.0150   35.9210 N   0  0  0  0  0  0  0  0  0  0  0  0
   37.8170   23.4630   38.3320 C   0  0  0  0  0  0  0  0  0  0  0  0
   38.0570   24.6110   38.7940 O   0  0  0  0  0  0  0  0  0  0  0  0
   38.1860   22.9290   37.0690 N   0  0  0  0  0  0  0  0  0  0  0  0
   40.9310   26.2930   34.1180 H   0  0  0  0  0  0  0  0  0  0  0  0
   41.8710   24.1830   34.7710 H   0  0  0  0  0  0  0  0  0  0  0  0
   37.2510   22.8420   39.0340 H   0  0  0  0  0  0  0  0  0  0  0  0
   37.9220   21.9580   36.8120 H   0  0  0  0  0  0  0  0  0  0  0  0
  1  2  2  0  0  0  0
  2  3  1  0  0  0  0
  3  7  1  1  0  0  0
  3  4  1  0  0  0  0
  3 20  1  0  0  0  0
  4  9  1  0  0  0  0
  4  8  1  0  0  0  0
  5 10  1  0  0  0  0
  5  4  1  0  0  0  0
  6  2  1  0  0  0  0
  6  5  1  0  0  0  0
 11  5  1  0  0  0  0
 12  6  1  0  0  0  0
 13 12  1  0  0  0  0
 14 12  1  0  0  0  0
 15 16  1  0  0  0  0
 16 17  2  0  0  0  0
 16 18  1  0  0  0  0
 18 12  1  0  0  0  0
 19 18  1  0  0  0  0
 20 21  1  0  0  0  0
 21 26  1  0  0  0  0
 22 23  1  0  0  0  0
 22 21  2  0  0  0  0
 23 24  2  0  0  0  0
 24 25  1  0  0  0  0
 25 29  1  0  0  0  0
 26 25  2  0  0  0  0
 27 28  2  0  0  0  0
 27 32  1  0  0  0  0
 29 27  1  0  0  0  0
 30 22  1  0  0  0  0
 31 23  1  0  0  0  0
 33 29  1  0  0  0  0
M  END
>  <minimizedAffinity>
-4.88018799

$$$$

 OpenBabel03272506403D

 33 34  0  0  1  0  0  0  0  0999 V2000
   36.8930   25.0050   32.2750 O   0  0  0  0  0  0  0  0  0  0  0  0
   37.0070   26.0100   32.9980 C   0  0  0  0  0  0  0  0  0  0  0  0
   37.7670   25.9790   34.2300 C   0  0  2  0  0  0  0  0  0  0  0  0
   37.7610   27.4880   34.6190 C   0  0  0  0  0  0  0  0  0  0  0  0
   36.5090   28.0010   33.9810 C   0  0  0  0  0  0  0  0  0  0  0  0
   36.4170   27.2960   32.7110 N   0  0  0  0  0  0  0  0  0  0  0  0
   37.3800   25.4000   35.0730 H   0  0  0  0  0  0  0  0  0  0  0  0
   37.6360   27.5090   35.7180 H   0  0  0  0  0  0  0  0  0  0  0  0
   38.6730   27.9870   34.2900 H   0  0  0  0  0  0  0  0  0  0  0  0
   36.7140   29.0640   33.7000 H   0  0  0  0  0  0  0  0  0  0  0  0
   35.6140   27.8620   34.5860 H   0  0  0  0  0  0  0  0  0  0  0  0
   35.8670   27.7800   31.4650 C   0  0  0  0  0  0  0  0  0  0  0  0
   35.8330   28.8940   31.4340 H   0  0  0  0  0  0  0  0  0  0  0  0
   34.8280   27.4190   31.3170 H   0  0  0  0  0  0  0  0  0  0  0  0
   38.2900   27.8960   28.9910 H   0  0  0  0  0  0  0  0  0  0  0  0
   37.6470   28.2710   29.8010 C   0  0  0  0  0  0  0  0  0  0  0  0
   37.7250   29.4790   30.1770 O   0  0  0  0  0  0  0  0  0  0  0  0
   36.7440   27.3260   30.3820 N   0  0  0  0  0  0  0  0  0  0  0  0
   36.7220   26.3410   30.0330 H   0  0  0  0  0  0  0  0  0  0  0  0
   39.1440   25.6300   34.0590 O   0  0  0  0  0  0  0  0  0  0  0  0
   39.6940   24.7250   34.9640 C   0  0  0  0  0  0  0  0  0  0  0  0
   41.0560   24.5100   34.8720 C   0  0  0  0  0  0  0  0  0  0  0  0
   41.6390   23.6140   35.7580 C   0  0  0  0  0  0  0  0  0  0  0  0
   40.8480   22.9890   36.6720 N   0  0  0  0  0  0  0  0  0  0  0  0
   39.5250   23.2090   36.7460 C   0  0  0  0  0  0  0  0  0  0  0  0
   38.9800   24.0660   35.8970 N   0  0  0  0  0  0  0  0  0  0  0  0
   38.0620   23.4320   38.5970 C   0  0  0  0  0  0  0  0  0  0  0  0
   38.1100   24.6910   38.6120 O   0  0  0  0  0  0  0  0  0  0  0  0
   38.7230   22.5370   37.7140 N   0  0  0  0  0  0  0  0  0  0  0  0
   41.7400   24.9710   34.1730 H   0  0  0  0  0  0  0  0  0  0  0  0
   42.6900   23.4100   35.7310 H   0  0  0  0  0  0  0  0  0  0  0  0
   37.4150   23.0310   39.3840 H   0  0  0  0  0  0  0  0  0  0  0  0
   38.5950   21.5110   37.8140 H   0  0  0  0  0  0  0  0  0  0  0  0
  1  2  2  0  0  0  0
  2  3  1  0  0  0  0
  3  4  1  0  0  0  0
  3  7  1  1  0  0  0
  4  8  1  0  0  0  0
  5 11  1  0  0  0  0
  5  4  1  0  0  0  0
  6  2  1  0  0  0  0
  6  5  1  0  0  0  0
  9  4  1  0  0  0  0
 10  5  1  0  0  0  0
 12  6  1  0  0  0  0
 13 12  1  0  0  0  0
 14 12  1  0  0  0  0
 15 16  1  0  0  0  0
 16 17  2  0  0  0  0
 16 18  1  0  0  0  0
 18 12  1  0  0  0  0
 19 18  1  0  0  0  0
 20  3  1  0  0  0  0
 20 21  1  0  0  0  0
 21 26  1  0  0  0  0
 22 21  2  0  0  0  0
 22 23  1  0  0  0  0
 23 24  2  0  0  0  0
 24 25  1  0  0  0  0
 25 29  1  0  0  0  0
 26 25  2  0  0  0  0
 27 28  2  0  0  0  0
 27 32  1  0  0  0  0
 29 33  1  0  0  0  0
 29 27  1  0  0  0  0
 30 22  1  0  0  0  0
 31 23  1  0  0  0  0
M  END
>  <minimizedAffinity>
-4.76164818

$$$$

 OpenBabel03272506403D

 33 34  0  0  1  0  0  0  0  0999 V2000
   40.6400   24.8330   34.1900 O   0  0  0  0  0  0  0  0  0  0  0  0
   39.7670   25.5400   34.7220 C   0  0  0  0  0  0  0  0  0  0  0  0
   39.6660   26.9590   34.4490 C   0  0  2  0  0  0  0  0  0  0  0  0
   38.3330   27.3060   35.1780 C   0  0  0  0  0  0  0  0  0  0  0  0
   38.2530   26.2710   36.2560 C   0  0  0  0  0  0  0  0  0  0  0  0
   38.7730   25.0550   35.6490 N   0  0  0  0  0  0  0  0  0  0  0  0
   40.4500   27.6240   34.8200 H   0  0  0  0  0  0  0  0  0  0  0  0
   38.5010   28.2950   35.6450 H   0  0  0  0  0  0  0  0  0  0  0  0
   37.4900   27.3050   34.4880 H   0  0  0  0  0  0  0  0  0  0  0  0
   37.1650   26.0670   36.4130 H   0  0  0  0  0  0  0  0  0  0  0  0
   38.7950   26.5340   37.1640 H   0  0  0  0  0  0  0  0  0  0  0  0
   38.3770   23.6910   35.9180 C   0  0  0  0  0  0  0  0  0  0  0  0
   37.9660   23.1930   35.0100 H   0  0  0  0  0  0  0  0  0  0  0  0
   37.5870   23.6480   36.6970 H   0  0  0  0  0  0  0  0  0  0  0  0
   40.7390   22.2620   38.0120 H   0  0  0  0  0  0  0  0  0  0  0  0
   39.8340   22.8230   37.7350 C   0  0  0  0  0  0  0  0  0  0  0  0
   39.0850   23.3160   38.6300 O   0  0  0  0  0  0  0  0  0  0  0  0
   39.5720   22.9510   36.3350 N   0  0  0  0  0  0  0  0  0  0  0  0
   40.2240   22.5240   35.6390 H   0  0  0  0  0  0  0  0  0  0  0  0
   39.4450   27.2740   33.0710 O   0  0  0  0  0  0  0  0  0  0  0  0
   38.1840   27.0020   32.5450 C   0  0  0  0  0  0  0  0  0  0  0  0
   37.4220   28.0920   32.1700 C   0  0  0  0  0  0  0  0  0  0  0  0
   36.1590   27.8590   31.6420 C   0  0  0  0  0  0  0  0  0  0  0  0
   35.7300   26.5740   31.5190 N   0  0  0  0  0  0  0  0  0  0  0  0
   36.4830   25.5260   31.8900 C   0  0  0  0  0  0  0  0  0  0  0  0
   37.6850   25.7600   32.3910 N   0  0  0  0  0  0  0  0  0  0  0  0
   36.8230   23.3970   30.9050 C   0  0  0  0  0  0  0  0  0  0  0  0
   37.8750   23.7340   30.2990 O   0  0  0  0  0  0  0  0  0  0  0  0
   36.0020   24.1910   31.7500 N   0  0  0  0  0  0  0  0  0  0  0  0
   37.7020   29.1340   32.2410 H   0  0  0  0  0  0  0  0  0  0  0  0
   35.5280   28.6670   31.3350 H   0  0  0  0  0  0  0  0  0  0  0  0
   36.5540   22.3520   30.7230 H   0  0  0  0  0  0  0  0  0  0  0  0
   35.1540   23.7840   32.1900 H   0  0  0  0  0  0  0  0  0  0  0  0
  1  2  2  0  0  0  0
  2  6  1  0  0  0  0
  3  2  1  0  0  0  0
  3  7  1  1  0  0  0
  3  4  1  0  0  0  0
  4  8  1  0  0  0  0
  4  5  1  0  0  0  0
  5 10  1  0  0  0  0
  5 11  1  0  0  0  0
  6 12  1  0  0  0  0
  6  5  1  0  0  0  0
  9  4  1  0  0  0  0
 12 18  1  0  0  0  0
 12 14  1  0  0  0  0
 13 12  1  0  0  0  0
 16 15  1  0  0  0  0
 16 17  2  0  0  0  0
 18 16  1  0  0  0  0
 19 18  1  0  0  0  0
 20  3  1  0  0  0  0
 21 20  1  0  0  0  0
 22 30  1  0  0  0  0
 22 21  2  0  0  0  0
 23 22  1  0  0  0  0
 24 23  2  0  0  0  0
 24 25  1  0  0  0  0
 25 26  2  0  0  0  0
 26 21  1  0  0  0  0
 27 29  1  0  0  0  0
 28 27  2  0  0  0  0
 29 25  1  0  0  0  0
 29 33  1  0  0  0  0
 31 23  1  0  0  0  0
 32 27  1  0  0  0  0
M  END
>  <minimizedAffinity>
-4.72438955

$$$$

 OpenBabel03272506403D

 33 34  0  0  1  0  0  0  0  0999 V2000
   37.7550   22.6770   34.4410 O   0  0  0  0  0  0  0  0  0  0  0  0
   38.6860   23.4450   34.7360 C   0  0  0  0  0  0  0  0  0  0  0  0
   38.8020   24.7640   34.1470 C   0  0  2  0  0  0  0  0  0  0  0  0
   39.9750   25.3590   34.9820 C   0  0  0  0  0  0  0  0  0  0  0  0
   40.7470   24.1470   35.3990 C   0  0  0  0  0  0  0  0  0  0  0  0
   39.7390   23.1350   35.6730 N   0  0  0  0  0  0  0  0  0  0  0  0
   39.0510   24.8460   33.0860 H   0  0  0  0  0  0  0  0  0  0  0  0
   40.5840   25.9390   34.2630 H   0  0  0  0  0  0  0  0  0  0  0  0
   39.6080   25.9670   35.8080 H   0  0  0  0  0  0  0  0  0  0  0  0
   41.1880   24.3860   36.3990 H   0  0  0  0  0  0  0  0  0  0  0  0
   41.4720   23.8070   34.6600 H   0  0  0  0  0  0  0  0  0  0  0  0
   39.7900   22.0760   36.6560 C   0  0  0  0  0  0  0  0  0  0  0  0
   40.6710   21.4110   36.5030 H   0  0  0  0  0  0  0  0  0  0  0  0
   38.8860   21.4330   36.6020 H   0  0  0  0  0  0  0  0  0  0  0  0
   38.8790   23.7120   39.5720 H   0  0  0  0  0  0  0  0  0  0  0  0
   38.7460   23.2530   38.5800 C   0  0  0  0  0  0  0  0  0  0  0  0
   37.6050   23.2340   38.0290 O   0  0  0  0  0  0  0  0  0  0  0  0
   39.9180   22.6980   37.9780 N   0  0  0  0  0  0  0  0  0  0  0  0
   40.8350   22.7410   38.4780 H   0  0  0  0  0  0  0  0  0  0  0  0
   37.6800   25.6160   34.3970 O   0  0  0  0  0  0  0  0  0  0  0  0
   37.1040   26.2560   33.3030 C   0  0  0  0  0  0  0  0  0  0  0  0
   36.6720   25.4460   32.2700 C   0  0  0  0  0  0  0  0  0  0  0  0
   36.0930   26.0490   31.1610 C   0  0  0  0  0  0  0  0  0  0  0  0
   35.9780   27.4050   31.1400 N   0  0  0  0  0  0  0  0  0  0  0  0
   36.4050   28.1780   32.1530 C   0  0  0  0  0  0  0  0  0  0  0  0
   36.9540   27.5910   33.2040 N   0  0  0  0  0  0  0  0  0  0  0  0
   35.4820   30.1140   33.1600 C   0  0  0  0  0  0  0  0  0  0  0  0
   34.9160   29.4820   34.0920 O   0  0  0  0  0  0  0  0  0  0  0  0
   36.2710   29.5960   32.0990 N   0  0  0  0  0  0  0  0  0  0  0  0
   36.7330   24.3680   32.2220 H   0  0  0  0  0  0  0  0  0  0  0  0
   35.7400   25.4690   30.3330 H   0  0  0  0  0  0  0  0  0  0  0  0
   35.3090   31.1930   33.2240 H   0  0  0  0  0  0  0  0  0  0  0  0
   36.6820   30.2340   31.3900 H   0  0  0  0  0  0  0  0  0  0  0  0
  1  2  2  0  0  0  0
  2  6  1  0  0  0  0
  3  7  1  6  0  0  0
  3 20  1  0  0  0  0
  3  2  1  0  0  0  0
  3  4  1  0  0  0  0
  4  5  1  0  0  0  0
  4  9  1  0  0  0  0
  5  6  1  0  0  0  0
  5 10  1  0  0  0  0
  6 12  1  0  0  0  0
  8  4  1  0  0  0  0
 11  5  1  0  0  0  0
 12 18  1  0  0  0  0
 13 12  1  0  0  0  0
 14 12  1  0  0  0  0
 16 15  1  0  0  0  0
 17 16  2  0  0  0  0
 18 19  1  0  0  0  0
 18 16  1  0  0  0  0
 21 20  1  0  0  0  0
 22 21  2  0  0  0  0
 23 22  1  0  0  0  0
 24 23  2  0  0  0  0
 24 25  1  0  0  0  0
 25 26  2  0  0  0  0
 26 21  1  0  0  0  0
 27 32  1  0  0  0  0
 27 28  2  0  0  0  0
 29 25  1  0  0  0  0
 29 27  1  0  0  0  0
 30 22  1  0  0  0  0
 31 23  1  0  0  0  0
 33 29  1  0  0  0  0
M  END
>  <minimizedAffinity>
-4.69408894

$$$$

 OpenBabel03272506403D

 33 34  0  0  1  0  0  0  0  0999 V2000
   37.7670   24.0720   33.6290 O   0  0  0  0  0  0  0  0  0  0  0  0
   38.5060   24.9660   34.0740 C   0  0  0  0  0  0  0  0  0  0  0  0
   38.4480   26.3230   33.5690 C   0  0  2  0  0  0  0  0  0  0  0  0
   39.3940   27.0520   34.5710 C   0  0  0  0  0  0  0  0  0  0  0  0
   40.3190   25.9650   35.0200 C   0  0  0  0  0  0  0  0  0  0  0  0
   39.4850   24.7770   35.1180 N   0  0  0  0  0  0  0  0  0  0  0  0
   38.7970   26.5210   32.5520 H   0  0  0  0  0  0  0  0  0  0  0  0
   39.9650   27.7770   33.9620 H   0  0  0  0  0  0  0  0  0  0  0  0
   38.8320   27.5280   35.3740 H   0  0  0  0  0  0  0  0  0  0  0  0
   40.5940   26.2060   36.0770 H   0  0  0  0  0  0  0  0  0  0  0  0
   41.1720   25.8070   34.3600 H   0  0  0  0  0  0  0  0  0  0  0  0
   39.6140   23.6770   36.0470 C   0  0  0  0  0  0  0  0  0  0  0  0
   40.0860   23.9970   37.0040 H   0  0  0  0  0  0  0  0  0  0  0  0
   40.2470   22.8680   35.6260 H   0  0  0  0  0  0  0  0  0  0  0  0
   36.7530   22.9830   37.8740 H   0  0  0  0  0  0  0  0  0  0  0  0
   37.7680   23.3620   37.6810 C   0  0  0  0  0  0  0  0  0  0  0  0
   38.4340   23.9160   38.6050 O   0  0  0  0  0  0  0  0  0  0  0  0
   38.2660   23.1880   36.3510 N   0  0  0  0  0  0  0  0  0  0  0  0
   37.6730   22.7230   35.6270 H   0  0  0  0  0  0  0  0  0  0  0  0
   37.1710   26.9490   33.7210 O   0  0  0  0  0  0  0  0  0  0  0  0
   36.7590   27.8180   32.7130 C   0  0  0  0  0  0  0  0  0  0  0  0
   35.9740   28.8870   33.1020 C   0  0  0  0  0  0  0  0  0  0  0  0
   35.5440   29.7750   32.1250 C   0  0  0  0  0  0  0  0  0  0  0  0
   35.9120   29.5540   30.8340 N   0  0  0  0  0  0  0  0  0  0  0  0
   36.6750   28.5090   30.4730 C   0  0  0  0  0  0  0  0  0  0  0  0
   37.0790   27.6700   31.4130 N   0  0  0  0  0  0  0  0  0  0  0  0
   38.4490   28.3120   28.9140 C   0  0  0  0  0  0  0  0  0  0  0  0
   39.3570   28.4730   29.7730 O   0  0  0  0  0  0  0  0  0  0  0  0
   37.0420   28.3050   29.1100 N   0  0  0  0  0  0  0  0  0  0  0  0
   35.6460   29.1200   34.1060 H   0  0  0  0  0  0  0  0  0  0  0  0
   34.9340   30.6200   32.3710 H   0  0  0  0  0  0  0  0  0  0  0  0
   38.8510   28.1630   27.9060 H   0  0  0  0  0  0  0  0  0  0  0  0
   36.4010   28.1610   28.3070 H   0  0  0  0  0  0  0  0  0  0  0  0
  1  2  2  0  0  0  0
  2  6  1  0  0  0  0
  3  7  1  6  0  0  0
  3 20  1  0  0  0  0
  3  2  1  0  0  0  0
  3  4  1  0  0  0  0
  4  5  1  0  0  0  0
  4  9  1  0  0  0  0
  5  6  1  0  0  0  0
  5 10  1  0  0  0  0
  6 12  1  0  0  0  0
  8  4  1  0  0  0  0
 11  5  1  0  0  0  0
 12 18  1  0  0  0  0
 12 13  1  0  0  0  0
 14 12  1  0  0  0  0
 16 15  1  0  0  0  0
 16 17  2  0  0  0  0
 18 16  1  0  0  0  0
 19 18  1  0  0  0  0
 21 22  1  0  0  0  0
 21 20  1  0  0  0  0
 22 30  1  0  0  0  0
 23 31  1  0  0  0  0
 23 22  2  0  0  0  0
 24 23  1  0  0  0  0
 25 24  2  0  0  0  0
 25 26  1  0  0  0  0
 26 21  2  0  0  0  0
 27 29  1  0  0  0  0
 27 28  2  0  0  0  0
 29 25  1  0  0  0  0
 32 27  1  0  0  0  0
 33 29  1  0  0  0  0
M  END
>  <minimizedAffinity>
-4.69128036

$$$$

 OpenBabel03272506403D

 33 34  0  0  1  0  0  0  0  0999 V2000
   38.7070   25.1540   35.7420 O   0  0  0  0  0  0  0  0  0  0  0  0
   38.3540   24.5340   34.7240 C   0  0  0  0  0  0  0  0  0  0  0  0
   37.6290   25.1830   33.6510 C   0  0  2  0  0  0  0  0  0  0  0  0
   37.6190   24.0540   32.5760 C   0  0  0  0  0  0  0  0  0  0  0  0
   37.7120   22.8040   33.3920 C   0  0  0  0  0  0  0  0  0  0  0  0
   38.6130   23.1340   34.4860 N   0  0  0  0  0  0  0  0  0  0  0  0
   36.6000   25.5030   33.8300 H   0  0  0  0  0  0  0  0  0  0  0  0
   36.6180   24.1020   32.1090 H   0  0  0  0  0  0  0  0  0  0  0  0
   38.4260   24.1850   31.8550 H   0  0  0  0  0  0  0  0  0  0  0  0
   38.2790   22.0670   32.7710 H   0  0  0  0  0  0  0  0  0  0  0  0
   36.7520   22.4390   33.7550 H   0  0  0  0  0  0  0  0  0  0  0  0
   39.5440   22.2600   35.1630 C   0  0  0  0  0  0  0  0  0  0  0  0
   40.5920   22.6330   35.0880 H   0  0  0  0  0  0  0  0  0  0  0  0
   39.5320   21.2410   34.7220 H   0  0  0  0  0  0  0  0  0  0  0  0
   39.8800   22.4810   38.6040 H   0  0  0  0  0  0  0  0  0  0  0  0
   40.1910   22.5150   37.5490 C   0  0  0  0  0  0  0  0  0  0  0  0
   41.3860   22.7970   37.2400 O   0  0  0  0  0  0  0  0  0  0  0  0
   39.1780   22.2260   36.5810 N   0  0  0  0  0  0  0  0  0  0  0  0
   38.2060   22.0000   36.8930 H   0  0  0  0  0  0  0  0  0  0  0  0
   38.3270   26.2790   33.0530 O   0  0  0  0  0  0  0  0  0  0  0  0
   37.5780   27.1890   32.3110 C   0  0  0  0  0  0  0  0  0  0  0  0
   36.7190   28.0060   33.0220 C   0  0  0  0  0  0  0  0  0  0  0  0
   35.9550   28.9260   32.3150 C   0  0  0  0  0  0  0  0  0  0  0  0
   36.0840   28.9800   30.9620 N   0  0  0  0  0  0  0  0  0  0  0  0
   36.9240   28.1780   30.2870 C   0  0  0  0  0  0  0  0  0  0  0  0
   37.6470   27.3050   30.9710 N   0  0  0  0  0  0  0  0  0  0  0  0
   38.3490   28.5790   28.4370 C   0  0  0  0  0  0  0  0  0  0  0  0
   39.3720   28.7890   29.1430 O   0  0  0  0  0  0  0  0  0  0  0  0
   37.0340   28.2590   28.8680 N   0  0  0  0  0  0  0  0  0  0  0  0
   36.5680   28.0140   34.0920 H   0  0  0  0  0  0  0  0  0  0  0  0
   35.2740   29.5830   32.8150 H   0  0  0  0  0  0  0  0  0  0  0  0
   38.5570   28.6680   27.3660 H   0  0  0  0  0  0  0  0  0  0  0  0
   36.2760   28.1100   28.1740 H   0  0  0  0  0  0  0  0  0  0  0  0
  2  1  2  0  0  0  0
  3  7  1  1  0  0  0
  3  2  1  0  0  0  0
  4  5  1  0  0  0  0
  4  3  1  0  0  0  0
  5 11  1  0  0  0  0
  5  6  1  0  0  0  0
  6  2  1  0  0  0  0
  6 12  1  0  0  0  0
  8  4  1  0  0  0  0
  9  4  1  0  0  0  0
 10  5  1  0  0  0  0
 12 18  1  0  0  0  0
 13 12  1  0  0  0  0
 14 12  1  0  0  0  0
 16 15  1  0  0  0  0
 17 16  2  0  0  0  0
 18 19  1  0  0  0  0
 18 16  1  0  0  0  0
 20  3  1  0  0  0  0
 21 22  1  0  0  0  0
 21 20  1  0  0  0  0
 22 30  1  0  0  0  0
 23 31  1  0  0  0  0
 23 22  2  0  0  0  0
 24 23  1  0  0  0  0
 25 24  2  0  0  0  0
 25 26  1  0  0  0  0
 26 21  2  0  0  0  0
 27 29  1  0  0  0  0
 27 28  2  0  0  0  0
 29 25  1  0  0  0  0
 32 27  1  0  0  0  0
 33 29  1  0  0  0  0
M  END
>  <minimizedAffinity>
-4.65088034

$$$$

 OpenBabel03272506403D

 33 34  0  0  1  0  0  0  0  0999 V2000
   38.0400   24.5940   33.3340 O   0  0  0  0  0  0  0  0  0  0  0  0
   37.2140   25.2270   32.6560 C   0  0  0  0  0  0  0  0  0  0  0  0
   36.5930   24.6510   31.4800 C   0  0  2  0  0  0  0  0  0  0  0  0
   35.5310   25.7420   31.1430 C   0  0  0  0  0  0  0  0  0  0  0  0
   36.1320   26.9910   31.7060 C   0  0  0  0  0  0  0  0  0  0  0  0
   36.7780   26.5730   32.9420 N   0  0  0  0  0  0  0  0  0  0  0  0
   37.2070   24.4760   30.5930 H   0  0  0  0  0  0  0  0  0  0  0  0
   35.5250   25.8160   30.0390 H   0  0  0  0  0  0  0  0  0  0  0  0
   34.5540   25.4860   31.5520 H   0  0  0  0  0  0  0  0  0  0  0  0
   35.2750   27.6290   32.0360 H   0  0  0  0  0  0  0  0  0  0  0  0
   36.8290   27.4900   31.0340 H   0  0  0  0  0  0  0  0  0  0  0  0
   36.9360   27.3340   34.1600 C   0  0  0  0  0  0  0  0  0  0  0  0
   36.5160   26.7960   35.0420 H   0  0  0  0  0  0  0  0  0  0  0  0
   36.4100   28.3100   34.0960 H   0  0  0  0  0  0  0  0  0  0  0  0
   39.9920   27.2890   35.7920 H   0  0  0  0  0  0  0  0  0  0  0  0
   38.9110   27.1340   35.6550 C   0  0  0  0  0  0  0  0  0  0  0  0
   38.2100   26.6380   36.5870 O   0  0  0  0  0  0  0  0  0  0  0  0
   38.3720   27.5220   34.3890 N   0  0  0  0  0  0  0  0  0  0  0  0
   38.9970   27.9260   33.6550 H   0  0  0  0  0  0  0  0  0  0  0  0
   35.8490   23.4570   31.7380 O   0  0  0  0  0  0  0  0  0  0  0  0
   36.3940   22.2550   31.2930 C   0  0  0  0  0  0  0  0  0  0  0  0
   37.6670   22.3130   30.7590 C   0  0  0  0  0  0  0  0  0  0  0  0
   38.2430   21.1340   30.3040 C   0  0  0  0  0  0  0  0  0  0  0  0
   37.5310   19.9790   30.4030 N   0  0  0  0  0  0  0  0  0  0  0  0
   36.2930   19.9400   30.9240 C   0  0  0  0  0  0  0  0  0  0  0  0
   35.7560   21.0700   31.3550 N   0  0  0  0  0  0  0  0  0  0  0  0
   35.2260   18.3740   32.3470 C   0  0  0  0  0  0  0  0  0  0  0  0
   35.4790   19.0110   33.4050 O   0  0  0  0  0  0  0  0  0  0  0  0
   35.5730   18.7130   31.0120 N   0  0  0  0  0  0  0  0  0  0  0  0
   38.2860   23.1930   30.6510 H   0  0  0  0  0  0  0  0  0  0  0  0
   39.2270   21.1220   29.8820 H   0  0  0  0  0  0  0  0  0  0  0  0
   34.6690   17.4510   32.5390 H   0  0  0  0  0  0  0  0  0  0  0  0
   35.3010   18.0920   30.2250 H   0  0  0  0  0  0  0  0  0  0  0  0
  2  6  1  0  0  0  0
  2  1  2  0  0  0  0
  3  7  1  6  0  0  0
  3 20  1  0  0  0  0
  3  2  1  0  0  0  0
  4  3  1  0  0  0  0
  4  9  1  0  0  0  0
  4  5  1  0  0  0  0
  5 10  1  0  0  0  0
  5  6  1  0  0  0  0
  6 12  1  0  0  0  0
  8  4  1  0  0  0  0
 11  5  1  0  0  0  0
 12 18  1  0  0  0  0
 12 13  1  0  0  0  0
 14 12  1  0  0  0  0
 16 15  1  0  0  0  0
 16 17  2  0  0  0  0
 18 16  1  0  0  0  0
 19 18  1  0  0  0  0
 21 26  1  0  0  0  0
 21 20  1  0  0  0  0
 22 21  2  0  0  0  0
 23 24  2  0  0  0  0
 23 22  1  0  0  0  0
 24 25  1  0  0  0  0
 25 29  1  0  0  0  0
 25 26  2  0  0  0  0
 27 32  1  0  0  0  0
 27 28  2  0  0  0  0
 29 27  1  0  0  0  0
 30 22  1  0  0  0  0
 31 23  1  0  0  0  0
 33 29  1  0  0  0  0
M  END
>  <minimizedAffinity>
-4.63005543

$$$$
