REMARK  Name = 
REMARK  5 active torsions:
REMARK  status: ('A' for Active; 'I' for Inactive)
REMARK    1  A    between atoms: C_1  and  C_16
REMARK    2  A    between atoms: C_3  and  C_4
REMARK    3  A    between atoms: C_18  and  C_20
REMARK    4  A    between atoms: C_20  and  C_21
REMARK    5  A    between atoms: C_21  and  N_42
REMARK                            x       y       z     vdW  Elec       q    Type
REMARK                         _______ _______ _______ _____ _____    ______ ____
ROOT
ATOM      1  C   UNL     1      36.946  31.381  47.385  0.00  0.00    +0.000 C 
ATOM      2  C   UNL     1      38.123  32.005  48.043  0.00  0.00    +0.000 C 
ATOM      3  C   UNL     1      38.448  30.895  47.169  0.00  0.00    +0.000 C 
ATOM      4  H   UNL     1      36.505  31.691  46.440  0.00  0.00    +0.000 HD
ATOM      5  H   UNL     1      38.107  33.077  47.866  0.00  0.00    +0.000 HD
ATOM      6  H   UNL     1      38.180  31.804  49.159  0.00  0.00    +0.000 HD
ATOM      7  H   UNL     1      38.475  29.830  47.346  0.00  0.00    +0.000 HD
ENDROOT
BRANCH   3   8
ATOM      8  C   UNL     1      39.127  31.368  45.918  0.00  0.00    +0.000 A 
ATOM      9  C   UNL     1      39.625  32.663  46.105  0.00  0.00    +0.000 A 
ATOM     10  C   UNL     1      40.376  33.259  45.122  0.00  0.00    +0.000 A 
ATOM     11  C   UNL     1      40.661  32.599  43.920  0.00  0.00    +0.000 A 
ATOM     12  C   UNL     1      40.153  31.318  43.768  0.00  0.00    +0.000 A 
ATOM     13  C   UNL     1      40.343  30.571  42.639  0.00  0.00    +0.000 A 
ATOM     14  C   UNL     1      39.830  29.309  42.473  0.00  0.00    +0.000 A 
ATOM     15  C   UNL     1      39.084  28.753  43.487  0.00  0.00    +0.000 A 
ATOM     16  C   UNL     1      38.888  29.499  44.628  0.00  0.00    +0.000 A 
ATOM     17  C   UNL     1      39.421  30.771  44.759  0.00  0.00    +0.000 A 
ATOM     18  H   UNL     1      39.602  33.402  46.880  0.00  0.00    +0.000 HD
ATOM     19  H   UNL     1      40.835  34.237  45.090  0.00  0.00    +0.000 HD
ATOM     20  H   UNL     1      41.237  32.957  43.073  0.00  0.00    +0.000 HD
ATOM     21  H   UNL     1      40.922  30.962  41.812  0.00  0.00    +0.000 HD
ATOM     22  H   UNL     1      40.007  28.752  41.556  0.00  0.00    +0.000 HD
ATOM     23  H   UNL     1      38.648  27.766  43.429  0.00  0.00    +0.000 HD
ATOM     24  H   UNL     1      38.288  29.042  45.436  0.00  0.00    +0.000 HD
ENDBRANCH   3   8
BRANCH   1  27
ATOM     25  C   UNL     1      34.447  28.736  48.379  0.00  0.00    +0.000 A 
ATOM     26  C   UNL     1      35.190  29.657  47.583  0.00  0.00    +0.000 A 
ATOM     27  C   UNL     1      36.163  30.403  48.183  0.00  0.00    +0.000 A 
ATOM     28  N   UNL     1      36.352  30.200  49.536  0.00  0.00    +0.000 NA
ATOM     29  C   UNL     1      35.649  29.334  50.270  0.00  0.00    +0.000 A 
ATOM     30  N   UNL     1      34.688  28.588  49.714  0.00  0.00    +0.000 NA
ATOM     31  H   UNL     1      33.675  28.154  47.867  0.00  0.00    +0.000 HD
ATOM     32  H   UNL     1      34.950  29.727  46.530  0.00  0.00    +0.000 HD
BRANCH  29  33
ATOM     33  C   UNL     1      35.976  29.224  51.733  0.00  0.00    +0.000 C 
ATOM     34  H   UNL     1      35.197  29.797  52.265  0.00  0.00    +0.000 HD
ATOM     35  H   UNL     1      36.030  28.182  52.055  0.00  0.00    +0.000 HD
BRANCH  33  36
ATOM     36  C   UNL     1      37.335  29.926  51.941  0.00  0.00    +0.000 C 
ATOM     37  H   UNL     1      37.269  30.981  51.656  0.00  0.00    +0.000 HD
ATOM     38  H   UNL     1      38.116  29.376  51.378  0.00  0.00    +0.000 HD
BRANCH  36  42
ATOM     39  H   UNL     1      37.710  30.894  55.199  0.00  0.00    +0.000 HD
ATOM     40  C   UNL     1      37.475  31.000  54.141  0.00  0.00    +0.000 C 
ATOM     41  O   UNL     1      37.085  32.066  53.615  0.00  0.00    +0.000 OA
ATOM     42  N   UNL     1      37.640  29.815  53.352  0.00  0.00    +0.000 N 
ATOM     43  H   UNL     1      37.968  28.925  53.802  0.00  0.00    +0.000 HD
ENDBRANCH  36  42
ENDBRANCH  33  36
ENDBRANCH  29  33
ENDBRANCH   1  27
TORSDOF 5
