
 OpenBabel03272505403D

 41 43  0  0  0  0  0  0  0  0999 V2000
   36.1470   30.3050   46.0380 C   0  0  0  0  0  0  0  0  0  0  0  0
   34.8060   29.9170   46.1360 C   0  0  0  0  0  0  0  0  0  0  0  0
   34.1360   29.4960   45.0050 C   0  0  0  0  0  0  0  0  0  0  0  0
   34.7110   29.4300   43.7640 C   0  0  0  0  0  0  0  0  0  0  0  0
   36.0560   29.8150   43.6470 C   0  0  0  0  0  0  0  0  0  0  0  0
   36.7030   30.2350   44.8010 C   0  0  0  0  0  0  0  0  0  0  0  0
   34.3150   29.9540   47.0940 H   0  0  0  0  0  0  0  0  0  0  0  0
   33.0980   29.2020   45.1090 H   0  0  0  0  0  0  0  0  0  0  0  0
   34.1350   29.0920   42.9120 H   0  0  0  0  0  0  0  0  0  0  0  0
   36.4500   29.7460   42.6660 H   0  0  0  0  0  0  0  0  0  0  0  0
   38.0480   30.5850   44.5020 N   0  0  0  0  0  0  0  0  0  0  0  0
   39.3580   30.0040   44.6190 C   0  0  0  0  0  0  0  0  0  0  0  0
   40.2100   30.9720   45.3870 C   0  0  0  0  0  0  0  0  0  0  0  0
   40.4510   32.1340   44.5500 N   0  0  0  0  0  0  0  0  0  0  0  0
   39.4640   32.3220   43.5480 C   0  0  0  0  0  0  0  0  0  0  0  0
   38.0790   31.8900   43.9080 C   0  0  0  0  0  0  0  0  0  0  0  0
   39.2410   29.0550   45.1940 H   0  0  0  0  0  0  0  0  0  0  0  0
   39.8320   29.8210   43.6290 H   0  0  0  0  0  0  0  0  0  0  0  0
   40.1400   31.0690   46.4230 H   0  0  0  0  0  0  0  0  0  0  0  0
   41.2290   30.4570   45.2780 H   0  0  0  0  0  0  0  0  0  0  0  0
   40.7130   32.9820   45.0760 H   0  0  0  0  0  0  0  0  0  0  0  0
   39.8340   31.8600   42.6120 H   0  0  0  0  0  0  0  0  0  0  0  0
   39.3960   33.4210   43.3230 H   0  0  0  0  0  0  0  0  0  0  0  0
   37.6000   31.7080   42.8920 H   0  0  0  0  0  0  0  0  0  0  0  0
   37.4340   32.6520   44.3340 H   0  0  0  0  0  0  0  0  0  0  0  0
   37.4340   30.4970   49.4470 C   0  0  0  0  0  0  0  0  0  0  0  0
   38.2410   31.6570   49.4000 C   0  0  0  0  0  0  0  0  0  0  0  0
   38.3220   32.3460   48.1890 C   0  0  0  0  0  0  0  0  0  0  0  0
   37.6130   31.8360   47.1530 N   0  0  0  0  0  0  0  0  0  0  0  0
   36.8610   30.7490   47.2040 C   0  0  0  0  0  0  0  0  0  0  0  0
   36.7720   30.0730   48.3660 N   0  0  0  0  0  0  0  0  0  0  0  0
   38.7640   31.9750   50.2890 H   0  0  0  0  0  0  0  0  0  0  0  0
   40.2640   35.1600   48.6000 H   0  0  0  0  0  0  0  0  0  0  0  0
   39.7130   34.3550   49.1110 C   0  0  0  0  0  0  0  0  0  0  0  0
   39.5470   34.1020   50.3270 O   0  0  0  0  0  0  0  0  0  0  0  0
   39.1190   33.5030   48.1220 N   0  0  0  0  0  0  0  0  0  0  0  0
   39.1770   33.5980   47.0750 H   0  0  0  0  0  0  0  0  0  0  0  0
   37.3620   29.7810   50.7630 C   0  0  0  0  0  0  0  0  0  0  0  0
   36.0120   29.7190   51.1500 F   0  0  0  0  0  0  0  0  0  0  0  0
   37.8910   28.5610   50.6180 F   0  0  0  0  0  0  0  0  0  0  0  0
   37.9870   30.5420   51.7140 F   0  0  0  0  0  0  0  0  0  0  0  0
  1  2  1  0  0  0  0
  1 30  1  0  0  0  0
  2  7  1  0  0  0  0
  3  8  1  0  0  0  0
  3  2  2  0  0  0  0
  4  3  1  0  0  0  0
  5  4  2  0  0  0  0
  5  6  1  0  0  0  0
  6  1  2  0  0  0  0
  9  4  1  0  0  0  0
 10  5  1  0  0  0  0
 11 12  1  0  0  0  0
 11  6  1  0  0  0  0
 12 17  1  0  0  0  0
 12 13  1  0  0  0  0
 13 19  1  0  0  0  0
 14 21  1  0  0  0  0
 14 13  1  0  0  0  0
 15 16  1  0  0  0  0
 15 14  1  0  0  0  0
 16 25  1  0  0  0  0
 16 11  1  0  0  0  0
 18 12  1  0  0  0  0
 20 13  1  0  0  0  0
 22 15  1  0  0  0  0
 23 15  1  0  0  0  0
 24 16  1  0  0  0  0
 26 38  1  0  0  0  0
 27 26  1  0  0  0  0
 27 32  1  0  0  0  0
 28 27  2  0  0  0  0
 29 30  2  0  0  0  0
 29 28  1  0  0  0  0
 30 31  1  0  0  0  0
 31 26  2  0  0  0  0
 33 34  1  0  0  0  0
 34 35  2  0  0  0  0
 36 28  1  0  0  0  0
 36 34  1  0  0  0  0
 37 36  1  0  0  0  0
 38 39  1  0  0  0  0
 38 41  1  0  0  0  0
 40 38  1  0  0  0  0
M  END
>  <minimizedAffinity>
-7.02507591

>  <minimizedRMSD>
0.777023137

$$$$
