
 OpenBabel03272508383D

 28 29  0  0  1  0  0  0  0  0999 V2000
   36.9250   30.4340   47.2770 N   0  0  0  0  0  0  0  0  0  0  0  0
   37.0350   29.9860   48.6530 C   0  0  0  0  0  0  0  0  0  0  0  0
   37.7220   30.9470   49.5490 C   0  0  2  0  0  0  0  0  0  0  0  0
   38.7320   31.7740   48.9700 N   0  0  0  0  0  0  0  0  0  0  0  0
   38.3560   32.2750   47.6410 C   0  0  0  0  0  0  0  0  0  0  0  0
   38.1460   31.0330   46.8150 C   0  0  0  0  0  0  0  0  0  0  0  0
   37.5100   28.9650   48.6330 H   0  0  0  0  0  0  0  0  0  0  0  0
   36.0130   29.8030   49.0280 H   0  0  0  0  0  0  0  0  0  0  0  0
   36.9640   31.6030   50.0260 H   0  0  0  0  0  0  0  0  0  0  0  0
   38.8490   32.6040   49.6170 H   0  0  0  0  0  0  0  0  0  0  0  0
   39.2310   32.8700   47.2760 H   0  0  0  0  0  0  0  0  0  0  0  0
   37.4150   32.8380   47.6480 H   0  0  0  0  0  0  0  0  0  0  0  0
   38.0590   31.2760   45.7420 H   0  0  0  0  0  0  0  0  0  0  0  0
   39.0160   30.3830   46.9670 H   0  0  0  0  0  0  0  0  0  0  0  0
   35.7480   30.2830   46.5080 C   0  0  0  0  0  0  0  0  0  0  0  0
   35.7450   30.1750   45.1160 C   0  0  0  0  0  0  0  0  0  0  0  0
   34.5530   30.0210   44.4190 C   0  0  0  0  0  0  0  0  0  0  0  0
   33.4030   29.9830   45.1570 N   0  0  0  0  0  0  0  0  0  0  0  0
   33.4320   30.0900   46.5240 C   0  0  0  0  0  0  0  0  0  0  0  0
   34.5850   30.2390   47.1880 N   0  0  0  0  0  0  0  0  0  0  0  0
   36.6790   30.2130   44.5980 H   0  0  0  0  0  0  0  0  0  0  0  0
   34.5190   29.9350   43.3420 H   0  0  0  0  0  0  0  0  0  0  0  0
   32.4500   30.0460   47.0030 H   0  0  0  0  0  0  0  0  0  0  0  0
   38.4230   29.0990   52.3290 H   0  0  0  0  0  0  0  0  0  0  0  0
   37.6480   29.5790   51.7370 C   0  0  0  0  0  0  0  0  0  0  0  0
   36.4150   29.8090   51.6370 O   0  0  0  0  0  0  0  0  0  0  0  0
   38.3530   30.1790   50.6310 N   0  0  0  0  0  0  0  0  0  0  0  0
   39.3810   30.1930   50.3870 H   0  0  0  0  0  0  0  0  0  0  0  0
  1  2  1  0  0  0  0
  2  8  1  0  0  0  0
  2  3  1  0  0  0  0
  3  9  1  1  0  0  0
  3 27  1  0  0  0  0
  4  3  1  0  0  0  0
  4 10  1  0  0  0  0
  5 12  1  0  0  0  0
  5  4  1  0  0  0  0
  6 14  1  0  0  0  0
  6  1  1  0  0  0  0
  6  5  1  0  0  0  0
  7  2  1  0  0  0  0
 11  5  1  0  0  0  0
 13  6  1  0  0  0  0
 15 20  1  0  0  0  0
 15  1  1  0  0  0  0
 16 15  2  0  0  0  0
 17 16  1  0  0  0  0
 17 18  2  0  0  0  0
 18 19  1  0  0  0  0
 19 23  1  0  0  0  0
 19 20  2  0  0  0  0
 21 16  1  0  0  0  0
 22 17  1  0  0  0  0
 25 24  1  0  0  0  0
 26 25  2  0  0  0  0
 27 25  1  0  0  0  0
 28 27  1  0  0  0  0
M  END
>  <minimizedAffinity>
-4.35796165

>  <minimizedRMSD>
2.22266221

$$$$
