
 OpenBabel03272510093D

 23 24  0  0  0  0  0  0  0  0999 V2000
   37.4640   31.2600   48.7230 C   0  0  0  0  0  0  0  0  0  0  0  0
   38.0010   32.4870   49.0350 C   0  0  0  0  0  0  0  0  0  0  0  0
   38.8690   33.2070   48.2370 C   0  0  0  0  0  0  0  0  0  0  0  0
   39.2380   32.6620   47.0200 C   0  0  0  0  0  0  0  0  0  0  0  0
   38.6940   31.4250   46.7110 C   0  0  0  0  0  0  0  0  0  0  0  0
   37.8590   30.7840   47.5320 N   0  0  0  0  0  0  0  0  0  0  0  0
   37.7430   32.9580   49.9820 H   0  0  0  0  0  0  0  0  0  0  0  0
   39.2530   34.1630   48.5410 H   0  0  0  0  0  0  0  0  0  0  0  0
   38.9950   31.0120   45.7510 H   0  0  0  0  0  0  0  0  0  0  0  0
   36.9350   30.0070   50.8380 C   0  0  0  0  0  0  0  0  0  0  0  0
   36.5540   30.5330   49.5900 C   0  0  0  0  0  0  0  0  0  0  0  0
   35.2530   30.3520   49.1610 C   0  0  0  0  0  0  0  0  0  0  0  0
   34.4100   29.6610   49.9980 N   0  0  0  0  0  0  0  0  0  0  0  0
   34.7990   29.1710   51.1810 C   0  0  0  0  0  0  0  0  0  0  0  0
   36.0540   29.3380   51.6070 N   0  0  0  0  0  0  0  0  0  0  0  0
   37.9730   30.2130   51.0590 H   0  0  0  0  0  0  0  0  0  0  0  0
   34.8400   30.7090   48.2240 H   0  0  0  0  0  0  0  0  0  0  0  0
   34.1210   28.6300   51.8250 H   0  0  0  0  0  0  0  0  0  0  0  0
   40.9390   34.2720   44.4420 H   0  0  0  0  0  0  0  0  0  0  0  0
   40.1190   33.6590   44.8070 C   0  0  0  0  0  0  0  0  0  0  0  0
   39.2350   33.2140   44.0300 O   0  0  0  0  0  0  0  0  0  0  0  0
   40.1320   33.4090   46.2030 N   0  0  0  0  0  0  0  0  0  0  0  0
   40.8540   33.7670   46.8670 H   0  0  0  0  0  0  0  0  0  0  0  0
  1  2  1  0  0  0  0
  1 11  1  0  0  0  0
  2  7  1  0  0  0  0
  3  8  1  0  0  0  0
  3  2  2  0  0  0  0
  4  3  1  0  0  0  0
  5  4  2  0  0  0  0
  5  6  1  0  0  0  0
  6  1  2  0  0  0  0
  9  5  1  0  0  0  0
 10 16  1  0  0  0  0
 10 15  1  0  0  0  0
 11 10  2  0  0  0  0
 12 11  1  0  0  0  0
 12 13  2  0  0  0  0
 13 14  1  0  0  0  0
 14 15  2  0  0  0  0
 14 18  1  0  0  0  0
 17 12  1  0  0  0  0
 19 20  1  0  0  0  0
 20 22  1  0  0  0  0
 21 20  2  0  0  0  0
 22 23  1  0  0  0  0
 22  4  1  0  0  0  0
M  END
>  <minimizedAffinity>
-5.00466633

>  <minimizedRMSD>
1.21923637

$$$$
