
     RDKit          3D

 17 17  0  0  0  0  0  0  0  0999 V2000
   38.3021   31.2442   50.1189 C   0  0  0  0  0  0  0  0  0  0  0  0
   38.2891   31.6162   48.7715 C   0  0  0  0  0  0  0  0  0  0  0  0
   37.2040   31.2220   48.0021 C   0  0  0  0  0  0  0  0  0  0  0  0
   36.2121   30.4973   48.5932 N   0  0  0  0  0  0  0  0  0  0  0  0
   36.2654   30.1613   49.8933 C   0  0  0  0  0  0  0  0  0  0  0  0
   37.3034   30.5305   50.6570 N   0  0  0  0  0  0  0  0  0  0  0  0
   35.1368   29.3710   50.4440 C   0  0  0  0  0  0  0  0  0  0  0  0
   35.2680   29.1277   51.8011 F   0  0  0  0  0  0  0  0  0  0  0  0
   33.9272   30.0710   50.2965 F   0  0  0  0  0  0  0  0  0  0  0  0
   34.9409   28.1710   49.8264 F   0  0  0  0  0  0  0  0  0  0  0  0
   39.1692   31.5749   50.6778 H   0  0  0  0  0  0  0  0  0  0  0  0
   39.0578   32.1902   48.2696 H   0  0  0  0  0  0  0  0  0  0  0  0
   35.8274   31.9826   44.9939 H   0  0  0  0  0  0  0  0  0  0  0  0
   35.8371   31.7297   46.0437 C   0  0  0  0  0  0  0  0  0  0  0  0
   34.8095   31.5792   46.7820 O   0  0  0  0  0  0  0  0  0  0  0  0
   37.1084   31.5565   46.6229 N   0  0  0  0  0  0  0  0  0  0  0  0
   37.9950   31.6627   46.0839 H   0  0  0  0  0  0  0  0  0  0  0  0
  1  6  2  0
  2  1  1  0
  3  4  1  0
  3  2  2  0
  4  5  2  0
  5  7  1  0
  5  6  1  0
  7  8  1  0
  9  7  1  0
 10  7  1  0
  1 11  1  0
  2 12  1  0
 13 14  1  0
 14 15  2  0
 14 16  1  0
 16 17  1  0
  3 16  1  0
M  ISO  3  11  14  12  14  13   1
M  END
>  <DihAtoms>  (1) 
3,2,15,13

>  <DihDeg>  (1) 
0.000593116990041758

$$$$
