
 OpenBabel03272509323D

 37 40  0  0  1  0  0  0  0  0999 V2000
   37.0210   31.4500   48.2660 C   0  0  1  0  0  0  0  0  0  0  0  0
   38.3580   31.5230   48.8770 C   0  0  0  0  0  0  0  0  0  0  0  0
   38.2380   30.7170   47.6350 C   0  0  2  0  0  0  0  0  0  0  0  0
   36.6490   32.2700   47.6480 H   0  0  0  0  0  0  0  0  0  0  0  0
   38.6940   32.5300   49.0250 H   0  0  0  0  0  0  0  0  0  0  0  0
   38.4790   30.8780   49.8060 H   0  0  0  0  0  0  0  0  0  0  0  0
   37.9530   29.7090   47.4140 H   0  0  0  0  0  0  0  0  0  0  0  0
   38.9670   31.3710   46.5170 C   0  0  0  0  0  0  0  0  0  0  0  0
   39.4410   32.6310   46.9070 C   0  0  0  0  0  0  0  0  0  0  0  0
   40.2150   33.3910   46.0560 C   0  0  0  0  0  0  0  0  0  0  0  0
   40.5430   32.9220   44.7900 C   0  0  0  0  0  0  0  0  0  0  0  0
   40.0730   31.6850   44.4210 C   0  0  0  0  0  0  0  0  0  0  0  0
   40.3100   31.1060   43.1980 C   0  0  0  0  0  0  0  0  0  0  0  0
   39.8230   29.8660   42.8290 C   0  0  0  0  0  0  0  0  0  0  0  0
   39.0540   29.1490   43.7200 C   0  0  0  0  0  0  0  0  0  0  0  0
   38.8060   29.7130   44.9520 C   0  0  0  0  0  0  0  0  0  0  0  0
   39.3100   30.9530   45.2810 C   0  0  0  0  0  0  0  0  0  0  0  0
   39.3910   33.2510   47.7760 H   0  0  0  0  0  0  0  0  0  0  0  0
   40.6540   34.3670   46.1950 H   0  0  0  0  0  0  0  0  0  0  0  0
   41.1390   33.3910   44.0020 H   0  0  0  0  0  0  0  0  0  0  0  0
   40.9140   31.6410   42.4640 H   0  0  0  0  0  0  0  0  0  0  0  0
   40.0440   29.4580   41.8450 H   0  0  0  0  0  0  0  0  0  0  0  0
   38.6420   28.1740   43.4990 H   0  0  0  0  0  0  0  0  0  0  0  0
   38.1870   29.1220   45.6490 H   0  0  0  0  0  0  0  0  0  0  0  0
   35.1830   29.1840   50.6500 C   0  0  0  0  0  0  0  0  0  0  0  0
   36.1630   30.0850   50.1380 C   0  0  0  0  0  0  0  0  0  0  0  0
   36.0190   30.5310   48.8430 C   0  0  0  0  0  0  0  0  0  0  0  0
   34.9450   30.0730   48.1560 N   0  0  0  0  0  0  0  0  0  0  0  0
   34.0210   29.2240   48.6390 C   0  0  0  0  0  0  0  0  0  0  0  0
   34.1460   28.7720   49.9150 N   0  0  0  0  0  0  0  0  0  0  0  0
   35.3360   28.8550   51.6800 H   0  0  0  0  0  0  0  0  0  0  0  0
   36.9910   30.3980   50.7590 H   0  0  0  0  0  0  0  0  0  0  0  0
   32.3570   29.3110   45.6880 H   0  0  0  0  0  0  0  0  0  0  0  0
   33.0430   29.4370   46.5230 C   0  0  0  0  0  0  0  0  0  0  0  0
   33.9370   30.2390   46.0980 O   0  0  0  0  0  0  0  0  0  0  0  0
   32.9400   28.8240   47.8020 N   0  0  0  0  0  0  0  0  0  0  0  0
   32.1270   28.1890   47.9620 H   0  0  0  0  0  0  0  0  0  0  0  0
  1  4  1  6  0  0  0
  1 27  1  0  0  0  0
  1  2  1  0  0  0  0
  2  5  1  0  0  0  0
  2  6  1  0  0  0  0
  3  7  1  1  0  0  0
  3  1  1  0  0  0  0
  3  2  1  0  0  0  0
  8  9  1  0  0  0  0
  8  3  1  0  0  0  0
  9 18  1  0  0  0  0
 10 19  1  0  0  0  0
 10  9  2  0  0  0  0
 11 10  1  0  0  0  0
 12 11  2  0  0  0  0
 12 17  1  0  0  0  0
 13 12  1  0  0  0  0
 14 13  2  0  0  0  0
 14 15  1  0  0  0  0
 15 16  2  0  0  0  0
 16 17  1  0  0  0  0
 16 24  1  0  0  0  0
 17  8  2  0  0  0  0
 20 11  1  0  0  0  0
 21 13  1  0  0  0  0
 22 14  1  0  0  0  0
 23 15  1  0  0  0  0
 25 31  1  0  0  0  0
 26 25  1  0  0  0  0
 26 32  1  0  0  0  0
 27 26  2  0  0  0  0
 28 29  2  0  0  0  0
 28 27  1  0  0  0  0
 29 30  1  0  0  0  0
 30 25  2  0  0  0  0
 33 34  1  0  0  0  0
 34 36  1  0  0  0  0
 35 34  2  0  0  0  0
 36 37  1  0  0  0  0
 36 29  1  0  0  0  0
M  END
>  <minimizedAffinity>
-7.02714825

>  <minimizedRMSD>
3.31363678

$$$$
