
 OpenBabel03272510223D

 27 29  0  0  0  0  0  0  0  0999 V2000
   36.2690   30.1970   46.7560 C   0  0  0  0  0  0  0  0  0  0  0  0
   37.1120   30.7700   47.6950 C   0  0  0  0  0  0  0  0  0  0  0  0
   38.0720   31.6560   47.2920 C   0  0  0  0  0  0  0  0  0  0  0  0
   38.1850   31.9670   45.9420 C   0  0  0  0  0  0  0  0  0  0  0  0
   39.0410   32.8010   45.3060 N   0  0  0  0  0  0  0  0  0  0  0  0
   38.7630   32.7700   44.0020 C   0  0  0  0  0  0  0  0  0  0  0  0
   37.7460   31.9320   43.7890 N   0  0  0  0  0  0  0  0  0  0  0  0
   37.3660   31.4190   44.9740 C   0  0  0  0  0  0  0  0  0  0  0  0
   36.3870   30.5140   45.3850 C   0  0  0  0  0  0  0  0  0  0  0  0
   35.4910   29.4900   46.9980 H   0  0  0  0  0  0  0  0  0  0  0  0
   38.7220   32.1000   48.0060 H   0  0  0  0  0  0  0  0  0  0  0  0
   39.7720   33.3490   45.8080 H   0  0  0  0  0  0  0  0  0  0  0  0
   35.7290   30.0670   44.6520 H   0  0  0  0  0  0  0  0  0  0  0  0
   39.3410   34.1700   40.8270 H   0  0  0  0  0  0  0  0  0  0  0  0
   38.8740   33.6370   41.6340 C   0  0  0  0  0  0  0  0  0  0  0  0
   37.7660   33.1170   41.3620 O   0  0  0  0  0  0  0  0  0  0  0  0
   39.3920   33.4770   42.9460 N   0  0  0  0  0  0  0  0  0  0  0  0
   40.3080   33.9530   43.0320 H   0  0  0  0  0  0  0  0  0  0  0  0
   37.5350   30.2370   51.3960 C   0  0  0  0  0  0  0  0  0  0  0  0
   37.8250   30.6620   50.0940 C   0  0  0  0  0  0  0  0  0  0  0  0
   36.9080   30.3760   49.0780 C   0  0  0  0  0  0  0  0  0  0  0  0
   35.7750   29.6990   49.3890 N   0  0  0  0  0  0  0  0  0  0  0  0
   35.5170   29.2980   50.6660 C   0  0  0  0  0  0  0  0  0  0  0  0
   36.3830   29.5630   51.6550 N   0  0  0  0  0  0  0  0  0  0  0  0
   38.2790   30.4900   52.1260 H   0  0  0  0  0  0  0  0  0  0  0  0
   38.7150   31.1890   49.8650 H   0  0  0  0  0  0  0  0  0  0  0  0
   34.6100   28.7590   50.9080 H   0  0  0  0  0  0  0  0  0  0  0  0
  1 10  1  0  0  0  0
  1  2  1  0  0  0  0
  2 21  1  0  0  0  0
  3  2  2  0  0  0  0
  3 11  1  0  0  0  0
  4  3  1  0  0  0  0
  5 12  1  0  0  0  0
  5  4  1  0  0  0  0
  6  5  1  0  0  0  0
  7  6  2  0  0  0  0
  7  8  1  0  0  0  0
  8  9  1  0  0  0  0
  8  4  2  0  0  0  0
  9  1  2  0  0  0  0
 13  9  1  0  0  0  0
 14 15  1  0  0  0  0
 15 17  1  0  0  0  0
 16 15  2  0  0  0  0
 17 18  1  0  0  0  0
 17  6  1  0  0  0  0
 19 24  1  0  0  0  0
 19 25  1  0  0  0  0
 20 19  2  0  0  0  0
 21 22  2  0  0  0  0
 21 20  1  0  0  0  0
 22 23  1  0  0  0  0
 23 27  1  0  0  0  0
 23 24  2  0  0  0  0
 26 20  1  0  0  0  0
M  END
>  <minimizedAffinity>
-5.61610985

>  <minimizedRMSD>
1.30515528

$$$$
