
 OpenBabel03272510323D

 24 25  0  0  0  0  0  0  0  0999 V2000
   36.8410   30.8820   47.5130 C   0  0  0  0  0  0  0  0  0  0  0  0
   35.8740   30.2690   46.7750 C   0  0  0  0  0  0  0  0  0  0  0  0
   34.6720   29.8690   47.3210 C   0  0  0  0  0  0  0  0  0  0  0  0
   34.4700   30.1150   48.6740 C   0  0  0  0  0  0  0  0  0  0  0  0
   35.4240   30.7320   49.4520 C   0  0  0  0  0  0  0  0  0  0  0  0
   36.6170   31.1160   48.8600 C   0  0  0  0  0  0  0  0  0  0  0  0
   36.0230   30.0710   45.7100 H   0  0  0  0  0  0  0  0  0  0  0  0
   33.8780   29.3800   46.7730 H   0  0  0  0  0  0  0  0  0  0  0  0
   33.5530   29.8330   49.1820 H   0  0  0  0  0  0  0  0  0  0  0  0
   35.2780   30.9310   50.5170 H   0  0  0  0  0  0  0  0  0  0  0  0
   39.6270   32.9380   46.4100 C   0  0  0  0  0  0  0  0  0  0  0  0
   40.3940   32.0880   45.6150 C   0  0  0  0  0  0  0  0  0  0  0  0
   39.9260   30.7510   45.4570 C   0  0  0  0  0  0  0  0  0  0  0  0
   38.7830   30.4100   46.0830 N   0  0  0  0  0  0  0  0  0  0  0  0
   38.0730   31.2630   46.8420 C   0  0  0  0  0  0  0  0  0  0  0  0
   38.5000   32.5360   47.0050 N   0  0  0  0  0  0  0  0  0  0  0  0
   39.9730   33.9650   46.5400 H   0  0  0  0  0  0  0  0  0  0  0  0
   41.3100   32.4350   45.1390 H   0  0  0  0  0  0  0  0  0  0  0  0
   40.5090   30.0790   44.8430 H   0  0  0  0  0  0  0  0  0  0  0  0
   39.1240   30.9750   51.1330 H   0  0  0  0  0  0  0  0  0  0  0  0
   38.3030   30.7970   50.4360 C   0  0  0  0  0  0  0  0  0  0  0  0
   37.9300   29.5910   50.3580 O   0  0  0  0  0  0  0  0  0  0  0  0
   37.6250   31.7550   49.6270 N   0  0  0  0  0  0  0  0  0  0  0  0
   37.9590   32.7400   49.7180 H   0  0  0  0  0  0  0  0  0  0  0  0
  1  6  1  0  0  0  0
  2  3  1  0  0  0  0
  2  1  2  0  0  0  0
  3  4  2  0  0  0  0
  4  9  1  0  0  0  0
  4  5  1  0  0  0  0
  5 10  1  0  0  0  0
  6  5  2  0  0  0  0
  6 23  1  0  0  0  0
  7  2  1  0  0  0  0
  8  3  1  0  0  0  0
 11 17  1  0  0  0  0
 11 16  1  0  0  0  0
 12 11  2  0  0  0  0
 13 12  1  0  0  0  0
 13 14  2  0  0  0  0
 14 15  1  0  0  0  0
 15 16  2  0  0  0  0
 15  1  1  0  0  0  0
 18 12  1  0  0  0  0
 19 13  1  0  0  0  0
 21 20  1  0  0  0  0
 22 21  2  0  0  0  0
 23 24  1  0  0  0  0
 23 21  1  0  0  0  0
M  END
>  <minimizedAffinity>
-4.94336891

>  <minimizedRMSD>
2.46415687

$$$$
