
 OpenBabel03272509593D

 42 44  0  0  0  0  0  0  0  0999 V2000
   38.6840   27.1840   35.1120 C   0  0  0  0  0  0  0  0  0  0  0  0
   38.6340   26.7420   36.1260 H   0  0  0  0  0  0  0  0  0  0  0  0
   38.6980   28.2870   35.2510 H   0  0  0  0  0  0  0  0  0  0  0  0
   39.9150   26.8080   34.3580 C   0  0  0  0  0  0  0  0  0  0  0  0
   39.6010   26.5080   33.3150 H   0  0  0  0  0  0  0  0  0  0  0  0
   40.6470   27.6210   34.2240 H   0  0  0  0  0  0  0  0  0  0  0  0
   40.5750   25.5790   34.9070 C   0  0  0  0  0  0  0  0  0  0  0  0
   41.9500   25.5010   34.7930 C   0  0  0  0  0  0  0  0  0  0  0  0
   42.6490   24.4240   35.2600 C   0  0  0  0  0  0  0  0  0  0  0  0
   41.9970   23.4270   35.8380 N   0  0  0  0  0  0  0  0  0  0  0  0
   40.6380   23.5060   35.9490 C   0  0  0  0  0  0  0  0  0  0  0  0
   39.9170   24.5610   35.4960 N   0  0  0  0  0  0  0  0  0  0  0  0
   42.5260   26.2930   34.3280 H   0  0  0  0  0  0  0  0  0  0  0  0
   43.7280   24.3290   35.1880 H   0  0  0  0  0  0  0  0  0  0  0  0
   39.9090   22.3760   36.6020 C   0  0  0  0  0  0  0  0  0  0  0  0
   40.5530   21.4790   36.4920 H   0  0  0  0  0  0  0  0  0  0  0  0
   38.9800   22.1490   36.0360 H   0  0  0  0  0  0  0  0  0  0  0  0
   38.5840   23.3430   39.7060 H   0  0  0  0  0  0  0  0  0  0  0  0
   38.5490   23.2690   38.6250 C   0  0  0  0  0  0  0  0  0  0  0  0
   37.6390   23.6850   37.8590 O   0  0  0  0  0  0  0  0  0  0  0  0
   39.6720   22.6210   37.9940 N   0  0  0  0  0  0  0  0  0  0  0  0
   40.4690   22.2490   38.5700 H   0  0  0  0  0  0  0  0  0  0  0  0
   37.5190   26.9110   34.3500 O   0  0  0  0  0  0  0  0  0  0  0  0
   36.1840   29.2500   31.9360 C   0  0  0  0  0  0  0  0  0  0  0  0
   35.4880   30.1300   32.8040 C   0  0  0  0  0  0  0  0  0  0  0  0
   35.5260   29.8570   34.1670 C   0  0  0  0  0  0  0  0  0  0  0  0
   36.2410   28.7500   34.5440 N   0  0  0  0  0  0  0  0  0  0  0  0
   36.8890   27.9350   33.7060 C   0  0  0  0  0  0  0  0  0  0  0  0
   36.8550   28.1970   32.3840 N   0  0  0  0  0  0  0  0  0  0  0  0
   36.1230   29.5080   30.8840 H   0  0  0  0  0  0  0  0  0  0  0  0
   34.9320   30.9900   32.5230 H   0  0  0  0  0  0  0  0  0  0  0  0
   36.7210   31.7740   35.9670 F   0  0  0  0  0  0  0  0  0  0  0  0
   35.4200   31.5320   36.0420 C   0  0  0  0  0  0  0  0  0  0  0  0
   34.8810   30.6350   35.1970 C   0  0  0  0  0  0  0  0  0  0  0  0
   33.5040   30.4520   35.3580 C   0  0  0  0  0  0  0  0  0  0  0  0
   32.7770   31.1280   36.2970 C   0  0  0  0  0  0  0  0  0  0  0  0
   33.3730   32.0400   37.1440 C   0  0  0  0  0  0  0  0  0  0  0  0
   34.7200   32.2310   37.0000 C   0  0  0  0  0  0  0  0  0  0  0  0
   32.9560   29.7540   34.7340 H   0  0  0  0  0  0  0  0  0  0  0  0
   31.7080   30.9600   36.3950 H   0  0  0  0  0  0  0  0  0  0  0  0
   32.7470   32.5460   37.8690 H   0  0  0  0  0  0  0  0  0  0  0  0
   35.2020   32.9450   37.6580 H   0  0  0  0  0  0  0  0  0  0  0  0
  1  3  1  0  0  0  0
  1  2  1  0  0  0  0
  4  7  1  0  0  0  0
  4  1  1  0  0  0  0
  5  4  1  0  0  0  0
  6  4  1  0  0  0  0
  7 12  1  0  0  0  0
  8  7  2  0  0  0  0
  8  9  1  0  0  0  0
  9 10  2  0  0  0  0
 10 11  1  0  0  0  0
 11 15  1  0  0  0  0
 12 11  2  0  0  0  0
 13  8  1  0  0  0  0
 14  9  1  0  0  0  0
 15 21  1  0  0  0  0
 16 15  1  0  0  0  0
 17 15  1  0  0  0  0
 19 18  1  0  0  0  0
 20 19  2  0  0  0  0
 21 22  1  0  0  0  0
 21 19  1  0  0  0  0
 23  1  1  0  0  0  0
 24 29  2  0  0  0  0
 24 25  1  0  0  0  0
 25 26  2  0  0  0  0
 26 27  1  0  0  0  0
 26 34  1  0  0  0  0
 28 23  1  0  0  0  0
 28 27  2  0  0  0  0
 29 28  1  0  0  0  0
 30 24  1  0  0  0  0
 31 25  1  0  0  0  0
 32 33  1  0  0  0  0
 33 38  1  0  0  0  0
 34 35  1  0  0  0  0
 34 33  2  0  0  0  0
 35 36  2  0  0  0  0
 36 40  1  0  0  0  0
 36 37  1  0  0  0  0
 37 41  1  0  0  0  0
 38 37  2  0  0  0  0
 38 42  1  0  0  0  0
 39 35  1  0  0  0  0
M  END
>  <minimizedAffinity>
-6.14330482

$$$$

 OpenBabel03272509593D

 42 44  0  0  0  0  0  0  0  0999 V2000
   37.1240   26.6590   34.6470 C   0  0  0  0  0  0  0  0  0  0  0  0
   36.4180   25.9320   35.0940 H   0  0  0  0  0  0  0  0  0  0  0  0
   36.9840   27.6120   35.2030 H   0  0  0  0  0  0  0  0  0  0  0  0
   38.5560   26.2620   34.7850 C   0  0  0  0  0  0  0  0  0  0  0  0
   39.0210   26.2940   33.7560 H   0  0  0  0  0  0  0  0  0  0  0  0
   39.1680   26.9330   35.4070 H   0  0  0  0  0  0  0  0  0  0  0  0
   38.7190   24.8350   35.2140 C   0  0  0  0  0  0  0  0  0  0  0  0
   38.1710   23.8660   34.3950 C   0  0  0  0  0  0  0  0  0  0  0  0
   38.2630   22.5370   34.6950 C   0  0  0  0  0  0  0  0  0  0  0  0
   38.8930   22.1610   35.7970 N   0  0  0  0  0  0  0  0  0  0  0  0
   39.4330   23.1200   36.6050 C   0  0  0  0  0  0  0  0  0  0  0  0
   39.3580   24.4460   36.3360 N   0  0  0  0  0  0  0  0  0  0  0  0
   37.6470   24.1270   33.4830 H   0  0  0  0  0  0  0  0  0  0  0  0
   37.8450   21.7500   34.0750 H   0  0  0  0  0  0  0  0  0  0  0  0
   40.1420   22.6870   37.8480 C   0  0  0  0  0  0  0  0  0  0  0  0
   39.3680   22.5940   38.6380 H   0  0  0  0  0  0  0  0  0  0  0  0
   40.8250   23.4930   38.1930 H   0  0  0  0  0  0  0  0  0  0  0  0
   42.4090   20.1080   37.1160 H   0  0  0  0  0  0  0  0  0  0  0  0
   42.1140   21.1500   37.1480 C   0  0  0  0  0  0  0  0  0  0  0  0
   42.7870   22.1470   36.7720 O   0  0  0  0  0  0  0  0  0  0  0  0
   40.8020   21.4270   37.6810 N   0  0  0  0  0  0  0  0  0  0  0  0
   40.1840   20.6450   38.0130 H   0  0  0  0  0  0  0  0  0  0  0  0
   36.8070   26.9560   33.2970 O   0  0  0  0  0  0  0  0  0  0  0  0
   36.3000   30.1200   31.6210 C   0  0  0  0  0  0  0  0  0  0  0  0
   35.6930   30.8590   32.6680 C   0  0  0  0  0  0  0  0  0  0  0  0
   35.4990   30.2160   33.8850 C   0  0  0  0  0  0  0  0  0  0  0  0
   35.9180   28.9130   33.9560 N   0  0  0  0  0  0  0  0  0  0  0  0
   36.4880   28.2360   32.9530 C   0  0  0  0  0  0  0  0  0  0  0  0
   36.6780   28.8580   31.7720 N   0  0  0  0  0  0  0  0  0  0  0  0
   36.4280   30.6690   30.6940 H   0  0  0  0  0  0  0  0  0  0  0  0
   35.3650   31.8690   32.6250 H   0  0  0  0  0  0  0  0  0  0  0  0
   36.7350   31.9370   35.8480 F   0  0  0  0  0  0  0  0  0  0  0  0
   35.4590   31.6070   35.9830 C   0  0  0  0  0  0  0  0  0  0  0  0
   34.9000   30.8030   35.0590 C   0  0  0  0  0  0  0  0  0  0  0  0
   33.5520   30.5140   35.2920 C   0  0  0  0  0  0  0  0  0  0  0  0
   32.8690   31.0080   36.3690 C   0  0  0  0  0  0  0  0  0  0  0  0
   33.4830   31.8290   37.2910 C   0  0  0  0  0  0  0  0  0  0  0  0
   34.8030   32.1220   37.0780 C   0  0  0  0  0  0  0  0  0  0  0  0
   32.9910   29.8760   34.6170 H   0  0  0  0  0  0  0  0  0  0  0  0
   31.8220   30.7620   36.5180 H   0  0  0  0  0  0  0  0  0  0  0  0
   32.8930   32.1910   38.1240 H   0  0  0  0  0  0  0  0  0  0  0  0
   35.3000   32.7670   37.7940 H   0  0  0  0  0  0  0  0  0  0  0  0
  1  4  1  0  0  0  0
  1  2  1  0  0  0  0
  1  3  1  0  0  0  0
  4  7  1  0  0  0  0
  4  6  1  0  0  0  0
  5  4  1  0  0  0  0
  7 12  1  0  0  0  0
  8  9  1  0  0  0  0
  8  7  2  0  0  0  0
  9 10  2  0  0  0  0
 10 11  1  0  0  0  0
 11 15  1  0  0  0  0
 12 11  2  0  0  0  0
 13  8  1  0  0  0  0
 14  9  1  0  0  0  0
 15 17  1  0  0  0  0
 15 16  1  0  0  0  0
 18 19  1  0  0  0  0
 19 21  1  0  0  0  0
 20 19  2  0  0  0  0
 21 15  1  0  0  0  0
 21 22  1  0  0  0  0
 23  1  1  0  0  0  0
 24 29  2  0  0  0  0
 24 25  1  0  0  0  0
 25 26  2  0  0  0  0
 26 27  1  0  0  0  0
 26 34  1  0  0  0  0
 28 23  1  0  0  0  0
 28 27  2  0  0  0  0
 29 28  1  0  0  0  0
 30 24  1  0  0  0  0
 31 25  1  0  0  0  0
 32 33  1  0  0  0  0
 33 38  1  0  0  0  0
 34 35  1  0  0  0  0
 34 33  2  0  0  0  0
 35 36  2  0  0  0  0
 36 40  1  0  0  0  0
 36 37  1  0  0  0  0
 37 41  1  0  0  0  0
 38 37  2  0  0  0  0
 38 42  1  0  0  0  0
 39 35  1  0  0  0  0
M  END
>  <minimizedAffinity>
-6.0293169

$$$$

 OpenBabel03272509593D

 42 44  0  0  0  0  0  0  0  0999 V2000
   36.6460   22.0200   31.1830 C   0  0  0  0  0  0  0  0  0  0  0  0
   37.5880   22.6010   31.2020 H   0  0  0  0  0  0  0  0  0  0  0  0
   36.5060   21.6860   30.1320 H   0  0  0  0  0  0  0  0  0  0  0  0
   36.6790   20.8020   32.0440 C   0  0  0  0  0  0  0  0  0  0  0  0
   35.6980   20.2580   31.9070 H   0  0  0  0  0  0  0  0  0  0  0  0
   37.4610   20.0700   31.7860 H   0  0  0  0  0  0  0  0  0  0  0  0
   36.7130   21.1300   33.5050 C   0  0  0  0  0  0  0  0  0  0  0  0
   35.7060   20.6020   34.2910 C   0  0  0  0  0  0  0  0  0  0  0  0
   35.6440   20.8400   35.6350 C   0  0  0  0  0  0  0  0  0  0  0  0
   36.5720   21.5950   36.2050 N   0  0  0  0  0  0  0  0  0  0  0  0
   37.5650   22.1150   35.4260 C   0  0  0  0  0  0  0  0  0  0  0  0
   37.6540   21.8980   34.0910 N   0  0  0  0  0  0  0  0  0  0  0  0
   34.9270   19.9780   33.8690 H   0  0  0  0  0  0  0  0  0  0  0  0
   34.8690   20.4420   36.2810 H   0  0  0  0  0  0  0  0  0  0  0  0
   38.6080   22.9670   36.0770 C   0  0  0  0  0  0  0  0  0  0  0  0
   38.2470   24.0150   36.0110 H   0  0  0  0  0  0  0  0  0  0  0  0
   39.5460   22.9350   35.4830 H   0  0  0  0  0  0  0  0  0  0  0  0
   38.7810   22.9380   39.5840 H   0  0  0  0  0  0  0  0  0  0  0  0
   38.5570   23.4110   38.6350 C   0  0  0  0  0  0  0  0  0  0  0  0
   38.1080   24.5730   38.4470 O   0  0  0  0  0  0  0  0  0  0  0  0
   38.8030   22.6200   37.4540 N   0  0  0  0  0  0  0  0  0  0  0  0
   39.1780   21.6430   37.5330 H   0  0  0  0  0  0  0  0  0  0  0  0
   35.5140   22.8220   31.4820 O   0  0  0  0  0  0  0  0  0  0  0  0
   35.1940   26.3740   30.8800 C   0  0  0  0  0  0  0  0  0  0  0  0
   36.2120   26.8620   31.7380 C   0  0  0  0  0  0  0  0  0  0  0  0
   36.9430   25.9320   32.4690 C   0  0  0  0  0  0  0  0  0  0  0  0
   36.6040   24.6160   32.2870 N   0  0  0  0  0  0  0  0  0  0  0  0
   35.6390   24.1800   31.4710 C   0  0  0  0  0  0  0  0  0  0  0  0
   34.9280   25.0800   30.7600 N   0  0  0  0  0  0  0  0  0  0  0  0
   34.6550   27.1410   30.3340 H   0  0  0  0  0  0  0  0  0  0  0  0
   36.4840   27.8780   31.8870 H   0  0  0  0  0  0  0  0  0  0  0  0
   36.7690   26.4240   35.3100 F   0  0  0  0  0  0  0  0  0  0  0  0
   37.9500   26.4700   34.7120 C   0  0  0  0  0  0  0  0  0  0  0  0
   38.0120   26.2390   33.3880 C   0  0  0  0  0  0  0  0  0  0  0  0
   39.3020   26.3110   32.8530 C   0  0  0  0  0  0  0  0  0  0  0  0
   40.4000   26.5940   33.6180 C   0  0  0  0  0  0  0  0  0  0  0  0
   40.2890   26.8240   34.9730 C   0  0  0  0  0  0  0  0  0  0  0  0
   39.0330   26.7580   35.5120 C   0  0  0  0  0  0  0  0  0  0  0  0
   39.4810   26.1430   31.7970 H   0  0  0  0  0  0  0  0  0  0  0  0
   41.3880   26.6420   33.1690 H   0  0  0  0  0  0  0  0  0  0  0  0
   41.1930   27.0440   35.5280 H   0  0  0  0  0  0  0  0  0  0  0  0
   38.9300   26.9360   36.5760 H   0  0  0  0  0  0  0  0  0  0  0  0
  1  2  1  0  0  0  0
  1 23  1  0  0  0  0
  1  4  1  0  0  0  0
  3  1  1  0  0  0  0
  4  7  1  0  0  0  0
  5  4  1  0  0  0  0
  6  4  1  0  0  0  0
  7 12  2  0  0  0  0
  7  8  1  0  0  0  0
  8  9  2  0  0  0  0
  9 10  1  0  0  0  0
  9 14  1  0  0  0  0
 11 15  1  0  0  0  0
 11 10  2  0  0  0  0
 12 11  1  0  0  0  0
 13  8  1  0  0  0  0
 15 21  1  0  0  0  0
 16 15  1  0  0  0  0
 17 15  1  0  0  0  0
 19 18  1  0  0  0  0
 20 19  2  0  0  0  0
 21 22  1  0  0  0  0
 21 19  1  0  0  0  0
 24 25  1  0  0  0  0
 25 31  1  0  0  0  0
 25 26  2  0  0  0  0
 26 34  1  0  0  0  0
 27 26  1  0  0  0  0
 28 23  1  0  0  0  0
 28 27  2  0  0  0  0
 29 24  2  0  0  0  0
 29 28  1  0  0  0  0
 30 24  1  0  0  0  0
 33 32  1  0  0  0  0
 33 38  1  0  0  0  0
 34 33  2  0  0  0  0
 35 34  1  0  0  0  0
 35 36  2  0  0  0  0
 36 37  1  0  0  0  0
 37 38  2  0  0  0  0
 37 41  1  0  0  0  0
 38 42  1  0  0  0  0
 39 35  1  0  0  0  0
 40 36  1  0  0  0  0
M  END
>  <minimizedAffinity>
-5.98568249

$$$$

 OpenBabel03272509593D

 42 44  0  0  0  0  0  0  0  0999 V2000
   37.8690   27.1650   35.3410 C   0  0  0  0  0  0  0  0  0  0  0  0
   37.2100   27.1520   36.2310 H   0  0  0  0  0  0  0  0  0  0  0  0
   38.3290   28.1760   35.3060 H   0  0  0  0  0  0  0  0  0  0  0  0
   38.9750   26.1660   35.4040 C   0  0  0  0  0  0  0  0  0  0  0  0
   39.5110   26.1840   34.4100 H   0  0  0  0  0  0  0  0  0  0  0  0
   39.7490   26.3750   36.1610 H   0  0  0  0  0  0  0  0  0  0  0  0
   38.4760   24.7580   35.5240 C   0  0  0  0  0  0  0  0  0  0  0  0
   38.0010   24.3640   36.7610 C   0  0  0  0  0  0  0  0  0  0  0  0
   37.5230   23.1030   36.9770 C   0  0  0  0  0  0  0  0  0  0  0  0
   37.5120   22.2320   35.9800 N   0  0  0  0  0  0  0  0  0  0  0  0
   37.9820   22.6240   34.7590 C   0  0  0  0  0  0  0  0  0  0  0  0
   38.4620   23.8670   34.5130 N   0  0  0  0  0  0  0  0  0  0  0  0
   37.9900   25.0430   37.6060 H   0  0  0  0  0  0  0  0  0  0  0  0
   37.1430   22.7590   37.9340 H   0  0  0  0  0  0  0  0  0  0  0  0
   37.9660   21.6340   33.6390 C   0  0  0  0  0  0  0  0  0  0  0  0
   38.0670   20.6300   34.1020 H   0  0  0  0  0  0  0  0  0  0  0  0
   38.8720   21.7640   33.0080 H   0  0  0  0  0  0  0  0  0  0  0  0
   34.7150   21.1700   32.3960 H   0  0  0  0  0  0  0  0  0  0  0  0
   35.5170   20.9660   33.0970 C   0  0  0  0  0  0  0  0  0  0  0  0
   35.4940   20.1680   34.0720 O   0  0  0  0  0  0  0  0  0  0  0  0
   36.7470   21.6890   32.8880 N   0  0  0  0  0  0  0  0  0  0  0  0
   36.8390   22.3710   32.0940 H   0  0  0  0  0  0  0  0  0  0  0  0
   37.1390   27.0370   34.1310 O   0  0  0  0  0  0  0  0  0  0  0  0
   36.0010   29.6390   31.8910 C   0  0  0  0  0  0  0  0  0  0  0  0
   35.3670   30.5030   32.8190 C   0  0  0  0  0  0  0  0  0  0  0  0
   35.3740   30.1300   34.1590 C   0  0  0  0  0  0  0  0  0  0  0  0
   36.0010   28.9490   34.4560 N   0  0  0  0  0  0  0  0  0  0  0  0
   36.5930   28.1490   33.5620 C   0  0  0  0  0  0  0  0  0  0  0  0
   36.5880   28.5080   32.2620 N   0  0  0  0  0  0  0  0  0  0  0  0
   35.9670   29.9760   30.8600 H   0  0  0  0  0  0  0  0  0  0  0  0
   34.8790   31.4210   32.6010 H   0  0  0  0  0  0  0  0  0  0  0  0
   36.6600   31.9960   35.9500 F   0  0  0  0  0  0  0  0  0  0  0  0
   35.3640   31.7520   36.0840 C   0  0  0  0  0  0  0  0  0  0  0  0
   34.7830   30.8790   35.2410 C   0  0  0  0  0  0  0  0  0  0  0  0
   33.4150   30.6900   35.4650 C   0  0  0  0  0  0  0  0  0  0  0  0
   32.7360   31.3400   36.4590 C   0  0  0  0  0  0  0  0  0  0  0  0
   33.3750   32.2270   37.3010 C   0  0  0  0  0  0  0  0  0  0  0  0
   34.7130   32.4230   37.0950 C   0  0  0  0  0  0  0  0  0  0  0  0
   32.8360   30.0110   34.8500 H   0  0  0  0  0  0  0  0  0  0  0  0
   31.6740   31.1680   36.6050 H   0  0  0  0  0  0  0  0  0  0  0  0
   32.7860   32.7120   38.0700 H   0  0  0  0  0  0  0  0  0  0  0  0
   35.2290   33.1170   37.7480 H   0  0  0  0  0  0  0  0  0  0  0  0
  1  4  1  0  0  0  0
  1  2  1  0  0  0  0
  3  1  1  0  0  0  0
  4  7  1  0  0  0  0
  4  6  1  0  0  0  0
  5  4  1  0  0  0  0
  7  8  1  0  0  0  0
  8  9  2  0  0  0  0
  8 13  1  0  0  0  0
  9 14  1  0  0  0  0
 10  9  1  0  0  0  0
 11 10  2  0  0  0  0
 12 11  1  0  0  0  0
 12  7  2  0  0  0  0
 15 16  1  0  0  0  0
 15 11  1  0  0  0  0
 17 15  1  0  0  0  0
 18 19  1  0  0  0  0
 19 20  2  0  0  0  0
 21 19  1  0  0  0  0
 21 15  1  0  0  0  0
 22 21  1  0  0  0  0
 23  1  1  0  0  0  0
 24 29  2  0  0  0  0
 24 25  1  0  0  0  0
 25 26  2  0  0  0  0
 26 27  1  0  0  0  0
 26 34  1  0  0  0  0
 28 23  1  0  0  0  0
 28 27  2  0  0  0  0
 29 28  1  0  0  0  0
 30 24  1  0  0  0  0
 31 25  1  0  0  0  0
 32 33  1  0  0  0  0
 33 38  1  0  0  0  0
 34 35  1  0  0  0  0
 34 33  2  0  0  0  0
 35 36  2  0  0  0  0
 36 40  1  0  0  0  0
 36 37  1  0  0  0  0
 37 41  1  0  0  0  0
 38 37  2  0  0  0  0
 38 42  1  0  0  0  0
 39 35  1  0  0  0  0
M  END
>  <minimizedAffinity>
-5.92410326

$$$$

 OpenBabel03272509593D

 42 44  0  0  0  0  0  0  0  0999 V2000
   38.8060   26.6520   33.8670 C   0  0  0  0  0  0  0  0  0  0  0  0
   38.0830   26.3440   34.6460 H   0  0  0  0  0  0  0  0  0  0  0  0
   38.4730   27.6500   33.5070 H   0  0  0  0  0  0  0  0  0  0  0  0
   40.2020   26.7980   34.3730 C   0  0  0  0  0  0  0  0  0  0  0  0
   40.8650   27.0360   33.4900 H   0  0  0  0  0  0  0  0  0  0  0  0
   40.3550   27.6220   35.0880 H   0  0  0  0  0  0  0  0  0  0  0  0
   40.7580   25.5140   34.9090 C   0  0  0  0  0  0  0  0  0  0  0  0
   42.1200   25.3150   34.7760 C   0  0  0  0  0  0  0  0  0  0  0  0
   42.7270   24.1790   35.2300 C   0  0  0  0  0  0  0  0  0  0  0  0
   41.9970   23.2400   35.8140 N   0  0  0  0  0  0  0  0  0  0  0  0
   40.6520   23.4390   35.9440 C   0  0  0  0  0  0  0  0  0  0  0  0
   40.0210   24.5540   35.5040 N   0  0  0  0  0  0  0  0  0  0  0  0
   42.7560   26.0560   34.3060 H   0  0  0  0  0  0  0  0  0  0  0  0
   43.7920   23.9900   35.1430 H   0  0  0  0  0  0  0  0  0  0  0  0
   39.8360   22.3740   36.6030 C   0  0  0  0  0  0  0  0  0  0  0  0
   40.4020   21.4260   36.4920 H   0  0  0  0  0  0  0  0  0  0  0  0
   38.8880   22.2240   36.0430 H   0  0  0  0  0  0  0  0  0  0  0  0
   38.5960   23.4260   39.7160 H   0  0  0  0  0  0  0  0  0  0  0  0
   38.5450   23.3450   38.6360 C   0  0  0  0  0  0  0  0  0  0  0  0
   37.6470   23.7990   37.8770 O   0  0  0  0  0  0  0  0  0  0  0  0
   39.6280   22.6400   37.9960 N   0  0  0  0  0  0  0  0  0  0  0  0
   40.4130   22.2350   38.5650 H   0  0  0  0  0  0  0  0  0  0  0  0
   38.7650   25.8040   32.7300 O   0  0  0  0  0  0  0  0  0  0  0  0
   35.5020   25.8900   31.1730 C   0  0  0  0  0  0  0  0  0  0  0  0
   35.2390   24.5000   31.0740 C   0  0  0  0  0  0  0  0  0  0  0  0
   36.2070   23.6230   31.5520 C   0  0  0  0  0  0  0  0  0  0  0  0
   37.3360   24.1950   32.0790 N   0  0  0  0  0  0  0  0  0  0  0  0
   37.5610   25.5100   32.1610 C   0  0  0  0  0  0  0  0  0  0  0  0
   36.6240   26.3630   31.6990 N   0  0  0  0  0  0  0  0  0  0  0  0
   34.7150   26.5290   30.7860 H   0  0  0  0  0  0  0  0  0  0  0  0
   34.3690   24.0450   30.6680 H   0  0  0  0  0  0  0  0  0  0  0  0
   37.9610   21.7390   30.2410 F   0  0  0  0  0  0  0  0  0  0  0  0
   36.9230   21.2910   30.9330 C   0  0  0  0  0  0  0  0  0  0  0  0
   36.1170   22.1830   31.5360 C   0  0  0  0  0  0  0  0  0  0  0  0
   35.0520   21.6100   32.2390 C   0  0  0  0  0  0  0  0  0  0  0  0
   34.8550   20.2590   32.3010 C   0  0  0  0  0  0  0  0  0  0  0  0
   35.7080   19.3800   31.6660 C   0  0  0  0  0  0  0  0  0  0  0  0
   36.7550   19.9240   30.9740 C   0  0  0  0  0  0  0  0  0  0  0  0
   34.3330   22.2270   32.7670 H   0  0  0  0  0  0  0  0  0  0  0  0
   34.0160   19.8480   32.8560 H   0  0  0  0  0  0  0  0  0  0  0  0
   35.5030   18.3200   31.7500 H   0  0  0  0  0  0  0  0  0  0  0  0
   37.4350   19.2470   30.4700 H   0  0  0  0  0  0  0  0  0  0  0  0
  1  4  1  0  0  0  0
  1  2  1  0  0  0  0
  3  1  1  0  0  0  0
  4  7  1  0  0  0  0
  4  6  1  0  0  0  0
  5  4  1  0  0  0  0
  7 12  1  0  0  0  0
  8  7  2  0  0  0  0
  8  9  1  0  0  0  0
  9 10  2  0  0  0  0
 10 11  1  0  0  0  0
 11 15  1  0  0  0  0
 12 11  2  0  0  0  0
 13  8  1  0  0  0  0
 14  9  1  0  0  0  0
 15 21  1  0  0  0  0
 16 15  1  0  0  0  0
 17 15  1  0  0  0  0
 19 18  1  0  0  0  0
 20 19  2  0  0  0  0
 21 22  1  0  0  0  0
 21 19  1  0  0  0  0
 23  1  1  0  0  0  0
 24 29  1  0  0  0  0
 25 24  2  0  0  0  0
 25 26  1  0  0  0  0
 26 27  2  0  0  0  0
 27 28  1  0  0  0  0
 28 23  1  0  0  0  0
 29 28  2  0  0  0  0
 30 24  1  0  0  0  0
 31 25  1  0  0  0  0
 32 33  1  0  0  0  0
 33 38  2  0  0  0  0
 33 34  1  0  0  0  0
 34 26  1  0  0  0  0
 34 35  2  0  0  0  0
 35 36  1  0  0  0  0
 35 39  1  0  0  0  0
 36 40  1  0  0  0  0
 37 41  1  0  0  0  0
 37 36  2  0  0  0  0
 38 37  1  0  0  0  0
 42 38  1  0  0  0  0
M  END
>  <minimizedAffinity>
-5.87466574

$$$$

 OpenBabel03272509593D

 42 44  0  0  0  0  0  0  0  0999 V2000
   36.5790   22.3440   31.2610 C   0  0  0  0  0  0  0  0  0  0  0  0
   35.7280   22.4710   30.5630 H   0  0  0  0  0  0  0  0  0  0  0  0
   36.5130   23.1810   31.9900 H   0  0  0  0  0  0  0  0  0  0  0  0
   36.5320   21.0680   32.0330 C   0  0  0  0  0  0  0  0  0  0  0  0
   35.4990   20.6280   31.9060 H   0  0  0  0  0  0  0  0  0  0  0  0
   37.2290   20.2880   31.6880 H   0  0  0  0  0  0  0  0  0  0  0  0
   36.6570   21.2830   33.5100 C   0  0  0  0  0  0  0  0  0  0  0  0
   35.7060   20.6830   34.3150 C   0  0  0  0  0  0  0  0  0  0  0  0
   35.7290   20.8170   35.6740 C   0  0  0  0  0  0  0  0  0  0  0  0
   36.6840   21.5380   36.2410 N   0  0  0  0  0  0  0  0  0  0  0  0
   37.6210   22.1300   35.4440 C   0  0  0  0  0  0  0  0  0  0  0  0
   37.6260   22.0170   34.0940 N   0  0  0  0  0  0  0  0  0  0  0  0
   34.9070   20.0830   33.8950 H   0  0  0  0  0  0  0  0  0  0  0  0
   35.0000   20.3590   36.3360 H   0  0  0  0  0  0  0  0  0  0  0  0
   38.6950   22.9430   36.0920 C   0  0  0  0  0  0  0  0  0  0  0  0
   38.3970   24.0070   35.9840 H   0  0  0  0  0  0  0  0  0  0  0  0
   39.6430   22.8390   35.5220 H   0  0  0  0  0  0  0  0  0  0  0  0
   38.7010   22.9880   39.6030 H   0  0  0  0  0  0  0  0  0  0  0  0
   38.5000   23.4320   38.6350 C   0  0  0  0  0  0  0  0  0  0  0  0
   38.0040   24.5660   38.4020 O   0  0  0  0  0  0  0  0  0  0  0  0
   38.8410   22.6320   37.4840 N   0  0  0  0  0  0  0  0  0  0  0  0
   39.2590   21.6760   37.6010 H   0  0  0  0  0  0  0  0  0  0  0  0
   37.8320   22.5000   30.6140 O   0  0  0  0  0  0  0  0  0  0  0  0
   39.5130   25.5350   29.5930 C   0  0  0  0  0  0  0  0  0  0  0  0
   39.3770   26.3030   30.7760 C   0  0  0  0  0  0  0  0  0  0  0  0
   38.7120   25.7220   31.8510 C   0  0  0  0  0  0  0  0  0  0  0  0
   38.2470   24.4470   31.6590 N   0  0  0  0  0  0  0  0  0  0  0  0
   38.3890   23.7420   30.5310 C   0  0  0  0  0  0  0  0  0  0  0  0
   39.0330   24.3030   29.4880 N   0  0  0  0  0  0  0  0  0  0  0  0
   40.0390   26.0340   28.7860 H   0  0  0  0  0  0  0  0  0  0  0  0
   39.7320   27.2900   30.9370 H   0  0  0  0  0  0  0  0  0  0  0  0
   36.2980   26.9900   32.8030 F   0  0  0  0  0  0  0  0  0  0  0  0
   37.3620   26.9410   33.5910 C   0  0  0  0  0  0  0  0  0  0  0  0
   38.4780   26.3470   33.1300 C   0  0  0  0  0  0  0  0  0  0  0  0
   39.5430   26.3470   34.0370 C   0  0  0  0  0  0  0  0  0  0  0  0
   39.4500   26.9070   35.2810 C   0  0  0  0  0  0  0  0  0  0  0  0
   38.2840   27.5060   35.7110 C   0  0  0  0  0  0  0  0  0  0  0  0
   37.2320   27.5140   34.8360 C   0  0  0  0  0  0  0  0  0  0  0  0
   40.4960   25.8970   33.7810 H   0  0  0  0  0  0  0  0  0  0  0  0
   40.2980   26.8890   35.9590 H   0  0  0  0  0  0  0  0  0  0  0  0
   38.2680   27.9320   36.7060 H   0  0  0  0  0  0  0  0  0  0  0  0
   36.3090   27.9810   35.1600 H   0  0  0  0  0  0  0  0  0  0  0  0
  1  3  1  0  0  0  0
  1  4  1  0  0  0  0
  2  1  1  0  0  0  0
  4  7  1  0  0  0  0
  5  4  1  0  0  0  0
  6  4  1  0  0  0  0
  7 12  2  0  0  0  0
  7  8  1  0  0  0  0
  8  9  2  0  0  0  0
  9 10  1  0  0  0  0
  9 14  1  0  0  0  0
 11 15  1  0  0  0  0
 11 10  2  0  0  0  0
 12 11  1  0  0  0  0
 13  8  1  0  0  0  0
 15 21  1  0  0  0  0
 16 15  1  0  0  0  0
 17 15  1  0  0  0  0
 19 18  1  0  0  0  0
 20 19  2  0  0  0  0
 21 22  1  0  0  0  0
 21 19  1  0  0  0  0
 23  1  1  0  0  0  0
 24 25  1  0  0  0  0
 25 31  1  0  0  0  0
 25 26  2  0  0  0  0
 26 34  1  0  0  0  0
 27 26  1  0  0  0  0
 28 23  1  0  0  0  0
 28 27  2  0  0  0  0
 29 24  2  0  0  0  0
 29 28  1  0  0  0  0
 30 24  1  0  0  0  0
 32 33  1  0  0  0  0
 33 38  1  0  0  0  0
 34 33  2  0  0  0  0
 34 35  1  0  0  0  0
 35 36  2  0  0  0  0
 36 37  1  0  0  0  0
 36 40  1  0  0  0  0
 37 41  1  0  0  0  0
 38 42  1  0  0  0  0
 38 37  2  0  0  0  0
 39 35  1  0  0  0  0
M  END
>  <minimizedAffinity>
-5.74956751

$$$$

 OpenBabel03272509593D

 42 44  0  0  0  0  0  0  0  0999 V2000
   37.1200   26.8880   34.9040 C   0  0  0  0  0  0  0  0  0  0  0  0
   36.7840   25.8630   35.1530 H   0  0  0  0  0  0  0  0  0  0  0  0
   36.3970   27.5800   35.3890 H   0  0  0  0  0  0  0  0  0  0  0  0
   38.4780   27.2150   35.4280 C   0  0  0  0  0  0  0  0  0  0  0  0
   38.9000   28.0480   34.7920 H   0  0  0  0  0  0  0  0  0  0  0  0
   38.5010   27.5920   36.4630 H   0  0  0  0  0  0  0  0  0  0  0  0
   39.4510   26.0900   35.2460 C   0  0  0  0  0  0  0  0  0  0  0  0
   40.7220   26.4220   34.8150 C   0  0  0  0  0  0  0  0  0  0  0  0
   41.6840   25.4730   34.6170 C   0  0  0  0  0  0  0  0  0  0  0  0
   41.3980   24.2000   34.8440 N   0  0  0  0  0  0  0  0  0  0  0  0
   40.1410   23.8740   35.2690 C   0  0  0  0  0  0  0  0  0  0  0  0
   39.1660   24.7920   35.4740 N   0  0  0  0  0  0  0  0  0  0  0  0
   41.0020   27.4500   34.6180 H   0  0  0  0  0  0  0  0  0  0  0  0
   42.6910   25.6980   34.2800 H   0  0  0  0  0  0  0  0  0  0  0  0
   39.8270   22.4340   35.5210 C   0  0  0  0  0  0  0  0  0  0  0  0
   40.5080   21.8430   34.8750 H   0  0  0  0  0  0  0  0  0  0  0  0
   38.8000   22.2040   35.1640 H   0  0  0  0  0  0  0  0  0  0  0  0
   41.1600   21.3530   38.5840 H   0  0  0  0  0  0  0  0  0  0  0  0
   41.2320   21.5630   37.5230 C   0  0  0  0  0  0  0  0  0  0  0  0
   42.2390   21.4160   36.7820 O   0  0  0  0  0  0  0  0  0  0  0  0
   40.0380   22.0690   36.8910 N   0  0  0  0  0  0  0  0  0  0  0  0
   39.1590   22.2170   37.4470 H   0  0  0  0  0  0  0  0  0  0  0  0
   37.0330   27.1590   33.5140 O   0  0  0  0  0  0  0  0  0  0  0  0
   36.1770   30.1500   31.6690 C   0  0  0  0  0  0  0  0  0  0  0  0
   35.4600   30.8580   32.6670 C   0  0  0  0  0  0  0  0  0  0  0  0
   35.3190   30.2560   33.9120 C   0  0  0  0  0  0  0  0  0  0  0  0
   35.8940   29.0200   34.0570 N   0  0  0  0  0  0  0  0  0  0  0  0
   36.5660   28.3710   33.1000 C   0  0  0  0  0  0  0  0  0  0  0  0
   36.7050   28.9540   31.8910 N   0  0  0  0  0  0  0  0  0  0  0  0
   36.2570   30.6640   30.7170 H   0  0  0  0  0  0  0  0  0  0  0  0
   35.0100   31.8150   32.5670 H   0  0  0  0  0  0  0  0  0  0  0  0
   32.5630   29.8770   34.6900 F   0  0  0  0  0  0  0  0  0  0  0  0
   33.3450   30.6560   35.4230 C   0  0  0  0  0  0  0  0  0  0  0  0
   34.6260   30.8210   35.0440 C   0  0  0  0  0  0  0  0  0  0  0  0
   35.3670   31.6610   35.8820 C   0  0  0  0  0  0  0  0  0  0  0  0
   34.8270   32.2590   36.9870 C   0  0  0  0  0  0  0  0  0  0  0  0
   33.5080   32.0610   37.3370 C   0  0  0  0  0  0  0  0  0  0  0  0
   32.7690   31.2420   36.5270 C   0  0  0  0  0  0  0  0  0  0  0  0
   36.4120   31.8720   35.6820 H   0  0  0  0  0  0  0  0  0  0  0  0
   35.4330   32.9060   37.6150 H   0  0  0  0  0  0  0  0  0  0  0  0
   33.1350   32.5600   38.2220 H   0  0  0  0  0  0  0  0  0  0  0  0
   31.7300   31.0760   36.7890 H   0  0  0  0  0  0  0  0  0  0  0  0
  1  2  1  0  0  0  0
  1  3  1  0  0  0  0
  1  4  1  0  0  0  0
  4  6  1  0  0  0  0
  5  4  1  0  0  0  0
  7  4  1  0  0  0  0
  7 12  1  0  0  0  0
  8  7  2  0  0  0  0
  9  8  1  0  0  0  0
  9 10  2  0  0  0  0
 10 11  1  0  0  0  0
 11 12  2  0  0  0  0
 11 15  1  0  0  0  0
 13  8  1  0  0  0  0
 14  9  1  0  0  0  0
 15 21  1  0  0  0  0
 16 15  1  0  0  0  0
 17 15  1  0  0  0  0
 19 18  1  0  0  0  0
 20 19  2  0  0  0  0
 21 22  1  0  0  0  0
 21 19  1  0  0  0  0
 23  1  1  0  0  0  0
 24 29  2  0  0  0  0
 24 25  1  0  0  0  0
 25 26  2  0  0  0  0
 26 27  1  0  0  0  0
 26 34  1  0  0  0  0
 28 23  1  0  0  0  0
 28 27  2  0  0  0  0
 29 28  1  0  0  0  0
 30 24  1  0  0  0  0
 31 25  1  0  0  0  0
 32 33  1  0  0  0  0
 33 38  1  0  0  0  0
 34 33  2  0  0  0  0
 34 35  1  0  0  0  0
 35 36  2  0  0  0  0
 36 37  1  0  0  0  0
 36 40  1  0  0  0  0
 37 41  1  0  0  0  0
 38 42  1  0  0  0  0
 38 37  2  0  0  0  0
 39 35  1  0  0  0  0
M  END
>  <minimizedAffinity>
-5.73763895

$$$$

 OpenBabel03272509593D

 42 44  0  0  0  0  0  0  0  0999 V2000
   37.2900   26.7180   31.6590 C   0  0  0  0  0  0  0  0  0  0  0  0
   37.4120   26.9260   30.5780 H   0  0  0  0  0  0  0  0  0  0  0  0
   37.0630   25.6330   31.7450 H   0  0  0  0  0  0  0  0  0  0  0  0
   38.5200   26.9880   32.4590 C   0  0  0  0  0  0  0  0  0  0  0  0
   39.3680   26.4060   31.9920 H   0  0  0  0  0  0  0  0  0  0  0  0
   38.8520   28.0390   32.4660 H   0  0  0  0  0  0  0  0  0  0  0  0
   38.4310   26.4450   33.8530 C   0  0  0  0  0  0  0  0  0  0  0  0
   38.4310   27.3650   34.8860 C   0  0  0  0  0  0  0  0  0  0  0  0
   38.3540   26.9760   36.1930 C   0  0  0  0  0  0  0  0  0  0  0  0
   38.2760   25.6860   36.4840 N   0  0  0  0  0  0  0  0  0  0  0  0
   38.2780   24.7800   35.4620 C   0  0  0  0  0  0  0  0  0  0  0  0
   38.3530   25.1340   34.1560 N   0  0  0  0  0  0  0  0  0  0  0  0
   38.4920   28.4300   34.6950 H   0  0  0  0  0  0  0  0  0  0  0  0
   38.3510   27.6690   37.0280 H   0  0  0  0  0  0  0  0  0  0  0  0
   38.1910   23.3260   35.8000 C   0  0  0  0  0  0  0  0  0  0  0  0
   37.8880   22.8020   34.8690 H   0  0  0  0  0  0  0  0  0  0  0  0
   37.3640   23.1560   36.5220 H   0  0  0  0  0  0  0  0  0  0  0  0
   40.9450   22.2600   37.7000 H   0  0  0  0  0  0  0  0  0  0  0  0
   39.9570   22.6960   37.5950 C   0  0  0  0  0  0  0  0  0  0  0  0
   39.2080   23.1210   38.5150 O   0  0  0  0  0  0  0  0  0  0  0  0
   39.4460   22.8020   36.2510 N   0  0  0  0  0  0  0  0  0  0  0  0
   40.0150   22.4680   35.4340 H   0  0  0  0  0  0  0  0  0  0  0  0
   36.1680   27.3880   32.2110 O   0  0  0  0  0  0  0  0  0  0  0  0
   36.4320   30.8980   31.3830 C   0  0  0  0  0  0  0  0  0  0  0  0
   35.8760   31.4710   32.5550 C   0  0  0  0  0  0  0  0  0  0  0  0
   35.4460   30.6060   33.5550 C   0  0  0  0  0  0  0  0  0  0  0  0
   35.6040   29.2670   33.3090 N   0  0  0  0  0  0  0  0  0  0  0  0
   36.1310   28.7510   32.1940 C   0  0  0  0  0  0  0  0  0  0  0  0
   36.5490   29.5870   31.2210 N   0  0  0  0  0  0  0  0  0  0  0  0
   36.7500   31.6160   30.6340 H   0  0  0  0  0  0  0  0  0  0  0  0
   35.7500   32.5060   32.7570 H   0  0  0  0  0  0  0  0  0  0  0  0
   36.6970   32.0110   35.7480 F   0  0  0  0  0  0  0  0  0  0  0  0
   35.4230   31.6570   35.8430 C   0  0  0  0  0  0  0  0  0  0  0  0
   34.8580   31.0030   34.8120 C   0  0  0  0  0  0  0  0  0  0  0  0
   33.5130   30.6740   35.0110 C   0  0  0  0  0  0  0  0  0  0  0  0
   32.8400   30.9930   36.1570 C   0  0  0  0  0  0  0  0  0  0  0  0
   33.4610   31.6650   37.1890 C   0  0  0  0  0  0  0  0  0  0  0  0
   34.7770   31.9940   37.0110 C   0  0  0  0  0  0  0  0  0  0  0  0
   32.9480   30.1450   34.2510 H   0  0  0  0  0  0  0  0  0  0  0  0
   31.7950   30.7210   36.2770 H   0  0  0  0  0  0  0  0  0  0  0  0
   32.8780   31.8910   38.0730 H   0  0  0  0  0  0  0  0  0  0  0  0
   35.2790   32.5230   37.8130 H   0  0  0  0  0  0  0  0  0  0  0  0
  1  3  1  0  0  0  0
  1 23  1  0  0  0  0
  1  4  1  0  0  0  0
  2  1  1  0  0  0  0
  4  6  1  0  0  0  0
  4  7  1  0  0  0  0
  5  4  1  0  0  0  0
  7 12  2  0  0  0  0
  7  8  1  0  0  0  0
  8  9  2  0  0  0  0
  9 10  1  0  0  0  0
  9 14  1  0  0  0  0
 11 15  1  0  0  0  0
 11 10  2  0  0  0  0
 12 11  1  0  0  0  0
 13  8  1  0  0  0  0
 15 21  1  0  0  0  0
 15 17  1  0  0  0  0
 16 15  1  0  0  0  0
 19 18  1  0  0  0  0
 19 20  2  0  0  0  0
 21 19  1  0  0  0  0
 22 21  1  0  0  0  0
 24 25  1  0  0  0  0
 25 31  1  0  0  0  0
 25 26  2  0  0  0  0
 26 34  1  0  0  0  0
 27 26  1  0  0  0  0
 28 23  1  0  0  0  0
 28 27  2  0  0  0  0
 29 24  2  0  0  0  0
 29 28  1  0  0  0  0
 30 24  1  0  0  0  0
 32 33  1  0  0  0  0
 33 38  1  0  0  0  0
 34 35  1  0  0  0  0
 34 33  2  0  0  0  0
 35 36  2  0  0  0  0
 36 40  1  0  0  0  0
 36 37  1  0  0  0  0
 37 41  1  0  0  0  0
 38 37  2  0  0  0  0
 38 42  1  0  0  0  0
 39 35  1  0  0  0  0
M  END
>  <minimizedAffinity>
-5.70771694

$$$$

 OpenBabel03272509593D

 42 44  0  0  0  0  0  0  0  0999 V2000
   35.7220   25.2330   30.9630 C   0  0  0  0  0  0  0  0  0  0  0  0
   35.4680   25.7460   30.0150 H   0  0  0  0  0  0  0  0  0  0  0  0
   34.7880   24.7420   31.3130 H   0  0  0  0  0  0  0  0  0  0  0  0
   36.7580   24.1700   30.8060 C   0  0  0  0  0  0  0  0  0  0  0  0
   36.5070   23.5790   29.8770 H   0  0  0  0  0  0  0  0  0  0  0  0
   37.7850   24.5390   30.6520 H   0  0  0  0  0  0  0  0  0  0  0  0
   36.7140   23.1550   31.9070 C   0  0  0  0  0  0  0  0  0  0  0  0
   35.6800   22.2370   31.8730 C   0  0  0  0  0  0  0  0  0  0  0  0
   35.5470   21.2700   32.8280 C   0  0  0  0  0  0  0  0  0  0  0  0
   36.4280   21.2050   33.8150 N   0  0  0  0  0  0  0  0  0  0  0  0
   37.4480   22.1130   33.8470 C   0  0  0  0  0  0  0  0  0  0  0  0
   37.6070   23.0840   32.9140 N   0  0  0  0  0  0  0  0  0  0  0  0
   34.9360   22.2520   31.0850 H   0  0  0  0  0  0  0  0  0  0  0  0
   34.7490   20.5340   32.8330 H   0  0  0  0  0  0  0  0  0  0  0  0
   38.4380   22.0330   34.9640 C   0  0  0  0  0  0  0  0  0  0  0  0
   39.1470   22.8750   34.8200 H   0  0  0  0  0  0  0  0  0  0  0  0
   39.0460   21.1080   34.8630 H   0  0  0  0  0  0  0  0  0  0  0  0
   37.0320   23.1980   37.9630 H   0  0  0  0  0  0  0  0  0  0  0  0
   37.5140   23.3470   37.0040 C   0  0  0  0  0  0  0  0  0  0  0  0
   37.8430   24.4430   36.4760 O   0  0  0  0  0  0  0  0  0  0  0  0
   37.8130   22.1560   36.2480 N   0  0  0  0  0  0  0  0  0  0  0  0
   37.5670   21.2070   36.6250 H   0  0  0  0  0  0  0  0  0  0  0  0
   36.0820   26.1450   31.9880 O   0  0  0  0  0  0  0  0  0  0  0  0
   36.3030   29.4450   30.5250 C   0  0  0  0  0  0  0  0  0  0  0  0
   35.8410   30.2290   31.6130 C   0  0  0  0  0  0  0  0  0  0  0  0
   35.4830   29.5650   32.7810 C   0  0  0  0  0  0  0  0  0  0  0  0
   35.6130   28.2010   32.7680 N   0  0  0  0  0  0  0  0  0  0  0  0
   36.0520   27.4830   31.7280 C   0  0  0  0  0  0  0  0  0  0  0  0
   36.4000   28.1240   30.5940 N   0  0  0  0  0  0  0  0  0  0  0  0
   36.5690   30.0120   29.6390 H   0  0  0  0  0  0  0  0  0  0  0  0
   35.7370   31.2850   31.6350 H   0  0  0  0  0  0  0  0  0  0  0  0
   32.7570   29.7440   33.7210 F   0  0  0  0  0  0  0  0  0  0  0  0
   33.7310   30.2840   34.4400 C   0  0  0  0  0  0  0  0  0  0  0  0
   34.9940   30.1910   33.9860 C   0  0  0  0  0  0  0  0  0  0  0  0
   35.9460   30.7920   34.8160 C   0  0  0  0  0  0  0  0  0  0  0  0
   35.6130   31.4180   35.9850 C   0  0  0  0  0  0  0  0  0  0  0  0
   34.3030   31.4890   36.4110 C   0  0  0  0  0  0  0  0  0  0  0  0
   33.3580   30.9060   35.6100 C   0  0  0  0  0  0  0  0  0  0  0  0
   37.0000   30.7830   34.5580 H   0  0  0  0  0  0  0  0  0  0  0  0
   36.3790   31.8740   36.6050 H   0  0  0  0  0  0  0  0  0  0  0  0
   34.0970   31.9970   37.3450 H   0  0  0  0  0  0  0  0  0  0  0  0
   32.3240   30.9530   35.9320 H   0  0  0  0  0  0  0  0  0  0  0  0
  1  3  1  0  0  0  0
  1 23  1  0  0  0  0
  2  1  1  0  0  0  0
  4  1  1  0  0  0  0
  4  7  1  0  0  0  0
  5  4  1  0  0  0  0
  6  4  1  0  0  0  0
  7 12  1  0  0  0  0
  8  7  2  0  0  0  0
  8  9  1  0  0  0  0
  9 14  1  0  0  0  0
  9 10  2  0  0  0  0
 10 11  1  0  0  0  0
 11 15  1  0  0  0  0
 12 11  2  0  0  0  0
 13  8  1  0  0  0  0
 15 21  1  0  0  0  0
 16 15  1  0  0  0  0
 17 15  1  0  0  0  0
 19 18  1  0  0  0  0
 20 19  2  0  0  0  0
 21 22  1  0  0  0  0
 21 19  1  0  0  0  0
 24 29  2  0  0  0  0
 24 25  1  0  0  0  0
 25 31  1  0  0  0  0
 25 26  2  0  0  0  0
 26 34  1  0  0  0  0
 27 26  1  0  0  0  0
 28 23  1  0  0  0  0
 28 27  2  0  0  0  0
 29 28  1  0  0  0  0
 30 24  1  0  0  0  0
 32 33  1  0  0  0  0
 33 38  1  0  0  0  0
 34 33  2  0  0  0  0
 34 35  1  0  0  0  0
 35 36  2  0  0  0  0
 36 37  1  0  0  0  0
 36 40  1  0  0  0  0
 37 41  1  0  0  0  0
 38 42  1  0  0  0  0
 38 37  2  0  0  0  0
 39 35  1  0  0  0  0
M  END
>  <minimizedAffinity>
-5.60242319

$$$$
