
 OpenBabel03272507513D

 24 25  0  0  0  0  0  0  0  0999 V2000
   38.1120   24.6060   34.3550 C   0  0  0  0  0  0  0  0  0  0  0  0
   39.0470   25.0080   35.3330 C   0  0  0  0  0  0  0  0  0  0  0  0
   39.1730   26.3720   35.5970 C   0  0  0  0  0  0  0  0  0  0  0  0
   38.3920   27.2400   34.9020 N   0  0  0  0  0  0  0  0  0  0  0  0
   37.5130   26.8380   33.9810 C   0  0  0  0  0  0  0  0  0  0  0  0
   37.3590   25.5130   33.6930 N   0  0  0  0  0  0  0  0  0  0  0  0
   39.9000   26.6210   36.3500 H   0  0  0  0  0  0  0  0  0  0  0  0
   36.9430   27.6190   33.4880 H   0  0  0  0  0  0  0  0  0  0  0  0
   38.1730   21.1510   33.8030 H   0  0  0  0  0  0  0  0  0  0  0  0
   38.6300   22.0380   34.2240 C   0  0  0  0  0  0  0  0  0  0  0  0
   39.7130   22.0440   34.8650 O   0  0  0  0  0  0  0  0  0  0  0  0
   37.8850   23.2490   33.9900 N   0  0  0  0  0  0  0  0  0  0  0  0
   36.9820   23.2390   33.4560 H   0  0  0  0  0  0  0  0  0  0  0  0
   39.7990   23.9860   35.9820 N   0  0  0  0  0  0  0  0  0  0  0  0
   41.0580   23.6920   35.6320 C   0  0  0  0  0  0  0  0  0  0  0  0
   41.7490   22.6810   36.3000 C   0  0  0  0  0  0  0  0  0  0  0  0
   41.0320   22.0650   37.2930 C   0  0  0  0  0  0  0  0  0  0  0  0
   41.6640   21.1430   37.9020 O   0  0  0  0  0  0  0  0  0  0  0  0
   39.7760   22.3290   37.6710 N   0  0  0  0  0  0  0  0  0  0  0  0
   39.1650   23.3190   36.9820 C   0  0  0  0  0  0  0  0  0  0  0  0
   37.9710   23.5890   37.3220 O   0  0  0  0  0  0  0  0  0  0  0  0
   41.5540   24.2260   34.8360 H   0  0  0  0  0  0  0  0  0  0  0  0
   42.7630   22.4090   36.0560 H   0  0  0  0  0  0  0  0  0  0  0  0
   39.3140   21.8020   38.4420 H   0  0  0  0  0  0  0  0  0  0  0  0
  1  2  1  0  0  0  0
  2  3  2  0  0  0  0
  2 14  1  0  0  0  0
  3  7  1  0  0  0  0
  4  3  1  0  0  0  0
  5  4  2  0  0  0  0
  6  5  1  0  0  0  0
  6  1  2  0  0  0  0
  8  5  1  0  0  0  0
  9 10  1  0  0  0  0
 10 11  2  0  0  0  0
 12 10  1  0  0  0  0
 12  1  1  0  0  0  0
 13 12  1  0  0  0  0
 14 20  1  0  0  0  0
 15 14  1  0  0  0  0
 15 16  2  0  0  0  0
 16 17  1  0  0  0  0
 17 19  1  0  0  0  0
 17 18  2  0  0  0  0
 19 24  1  0  0  0  0
 20 21  2  0  0  0  0
 20 19  1  0  0  0  0
 22 15  1  0  0  0  0
 23 16  1  0  0  0  0
M  END
>  <minimizedAffinity>
-4.66383743

$$$$

 OpenBabel03272507513D

 24 25  0  0  0  0  0  0  0  0999 V2000
   37.5020   24.8100   33.3140 C   0  0  0  0  0  0  0  0  0  0  0  0
   38.1750   23.5690   33.3210 C   0  0  0  0  0  0  0  0  0  0  0  0
   38.0730   22.7630   32.1870 C   0  0  0  0  0  0  0  0  0  0  0  0
   37.3370   23.2130   31.1380 N   0  0  0  0  0  0  0  0  0  0  0  0
   36.7080   24.3900   31.1520 C   0  0  0  0  0  0  0  0  0  0  0  0
   36.7820   25.2090   32.2420 N   0  0  0  0  0  0  0  0  0  0  0  0
   38.6040   21.8290   32.2470 H   0  0  0  0  0  0  0  0  0  0  0  0
   36.1480   24.6470   30.2580 H   0  0  0  0  0  0  0  0  0  0  0  0
   37.8030   26.4980   36.3640 H   0  0  0  0  0  0  0  0  0  0  0  0
   37.9100   25.5890   35.7850 C   0  0  0  0  0  0  0  0  0  0  0  0
   38.3310   24.4970   36.2470 O   0  0  0  0  0  0  0  0  0  0  0  0
   37.5230   25.7250   34.4040 N   0  0  0  0  0  0  0  0  0  0  0  0
   37.1730   26.6380   34.0230 H   0  0  0  0  0  0  0  0  0  0  0  0
   38.9110   23.2270   34.4930 N   0  0  0  0  0  0  0  0  0  0  0  0
   40.1070   23.7630   34.7670 C   0  0  0  0  0  0  0  0  0  0  0  0
   40.7860   23.3920   35.9290 C   0  0  0  0  0  0  0  0  0  0  0  0
   40.1250   22.4760   36.7040 C   0  0  0  0  0  0  0  0  0  0  0  0
   40.7450   22.1390   37.7640 O   0  0  0  0  0  0  0  0  0  0  0  0
   38.9330   21.9190   36.4640 N   0  0  0  0  0  0  0  0  0  0  0  0
   38.3290   22.3210   35.3230 C   0  0  0  0  0  0  0  0  0  0  0  0
   37.1950   21.8070   35.0720 O   0  0  0  0  0  0  0  0  0  0  0  0
   40.5620   24.4820   34.1030 H   0  0  0  0  0  0  0  0  0  0  0  0
   41.7490   23.7960   36.1940 H   0  0  0  0  0  0  0  0  0  0  0  0
   38.5100   21.2270   37.1180 H   0  0  0  0  0  0  0  0  0  0  0  0
  1  2  1  0  0  0  0
  1 12  1  0  0  0  0
  2 14  1  0  0  0  0
  3  7  1  0  0  0  0
  3  2  2  0  0  0  0
  4  5  2  0  0  0  0
  4  3  1  0  0  0  0
  5  6  1  0  0  0  0
  6  1  2  0  0  0  0
  8  5  1  0  0  0  0
 10 11  2  0  0  0  0
 10  9  1  0  0  0  0
 12 10  1  0  0  0  0
 13 12  1  0  0  0  0
 14 15  1  0  0  0  0
 14 20  1  0  0  0  0
 15 16  2  0  0  0  0
 16 23  1  0  0  0  0
 16 17  1  0  0  0  0
 17 18  2  0  0  0  0
 19 17  1  0  0  0  0
 19 24  1  0  0  0  0
 20 19  1  0  0  0  0
 21 20  2  0  0  0  0
 22 15  1  0  0  0  0
M  END
>  <minimizedAffinity>
-4.54732227

$$$$

 OpenBabel03272507513D

 24 25  0  0  0  0  0  0  0  0999 V2000
   39.9700   22.6890   36.8560 C   0  0  0  0  0  0  0  0  0  0  0  0
   40.4240   23.4010   35.7250 C   0  0  0  0  0  0  0  0  0  0  0  0
   41.7420   23.2010   35.3120 C   0  0  0  0  0  0  0  0  0  0  0  0
   42.5150   22.3330   36.0150 N   0  0  0  0  0  0  0  0  0  0  0  0
   42.0650   21.6700   37.0820 C   0  0  0  0  0  0  0  0  0  0  0  0
   40.7830   21.8370   37.5200 N   0  0  0  0  0  0  0  0  0  0  0  0
   42.0350   23.7690   34.4460 H   0  0  0  0  0  0  0  0  0  0  0  0
   42.7720   21.0030   37.5660 H   0  0  0  0  0  0  0  0  0  0  0  0
   36.6950   23.5520   37.7380 H   0  0  0  0  0  0  0  0  0  0  0  0
   37.5950   23.7580   37.1720 C   0  0  0  0  0  0  0  0  0  0  0  0
   37.7380   24.7360   36.3930 O   0  0  0  0  0  0  0  0  0  0  0  0
   38.6520   22.8010   37.3820 N   0  0  0  0  0  0  0  0  0  0  0  0
   38.5290   21.9860   38.0320 H   0  0  0  0  0  0  0  0  0  0  0  0
   39.5000   24.2790   35.0860 N   0  0  0  0  0  0  0  0  0  0  0  0
   39.5180   25.6030   35.2850 C   0  0  0  0  0  0  0  0  0  0  0  0
   38.5890   26.4170   34.6340 C   0  0  0  0  0  0  0  0  0  0  0  0
   37.7150   25.7420   33.8210 C   0  0  0  0  0  0  0  0  0  0  0  0
   36.8690   26.4850   33.2280 O   0  0  0  0  0  0  0  0  0  0  0  0
   37.6660   24.4240   33.5990 N   0  0  0  0  0  0  0  0  0  0  0  0
   38.5930   23.6940   34.2600 C   0  0  0  0  0  0  0  0  0  0  0  0
   38.5680   22.4390   34.0650 O   0  0  0  0  0  0  0  0  0  0  0  0
   40.2410   26.0590   35.9430 H   0  0  0  0  0  0  0  0  0  0  0  0
   38.5640   27.4860   34.7600 H   0  0  0  0  0  0  0  0  0  0  0  0
   36.9600   24.0020   32.9590 H   0  0  0  0  0  0  0  0  0  0  0  0
  1 12  1  0  0  0  0
  1  6  1  0  0  0  0
  2  1  2  0  0  0  0
  3  2  1  0  0  0  0
  3  4  2  0  0  0  0
  4  5  1  0  0  0  0
  5  6  2  0  0  0  0
  5  8  1  0  0  0  0
  7  3  1  0  0  0  0
 10 12  1  0  0  0  0
 10  9  1  0  0  0  0
 11 10  2  0  0  0  0
 12 13  1  0  0  0  0
 14 15  1  0  0  0  0
 14  2  1  0  0  0  0
 15 22  1  0  0  0  0
 16 23  1  0  0  0  0
 16 15  2  0  0  0  0
 17 16  1  0  0  0  0
 18 17  2  0  0  0  0
 19 17  1  0  0  0  0
 19 20  1  0  0  0  0
 20 14  1  0  0  0  0
 21 20  2  0  0  0  0
 24 19  1  0  0  0  0
M  END
>  <minimizedAffinity>
-4.40082264

$$$$

 OpenBabel03272507513D

 24 25  0  0  0  0  0  0  0  0999 V2000
   40.1400   24.5880   35.2230 C   0  0  0  0  0  0  0  0  0  0  0  0
   38.7340   24.5010   35.1380 C   0  0  0  0  0  0  0  0  0  0  0  0
   38.1220   23.3310   35.5890 C   0  0  0  0  0  0  0  0  0  0  0  0
   38.9070   22.3410   36.0860 N   0  0  0  0  0  0  0  0  0  0  0  0
   40.2360   22.4430   36.1580 C   0  0  0  0  0  0  0  0  0  0  0  0
   40.8740   23.5700   35.7270 N   0  0  0  0  0  0  0  0  0  0  0  0
   37.0490   23.3190   35.5000 H   0  0  0  0  0  0  0  0  0  0  0  0
   40.7620   21.5900   36.5730 H   0  0  0  0  0  0  0  0  0  0  0  0
   41.3710   27.5590   33.8450 H   0  0  0  0  0  0  0  0  0  0  0  0
   40.5560   26.8590   33.9780 C   0  0  0  0  0  0  0  0  0  0  0  0
   39.4100   26.9970   33.4760 O   0  0  0  0  0  0  0  0  0  0  0  0
   40.8880   25.7220   34.7990 N   0  0  0  0  0  0  0  0  0  0  0  0
   41.8450   25.6110   35.2160 H   0  0  0  0  0  0  0  0  0  0  0  0
   38.0380   25.6200   34.5930 N   0  0  0  0  0  0  0  0  0  0  0  0
   37.5840   25.6350   33.3330 C   0  0  0  0  0  0  0  0  0  0  0  0
   36.9100   26.7570   32.8490 C   0  0  0  0  0  0  0  0  0  0  0  0
   36.7770   27.7740   33.7590 C   0  0  0  0  0  0  0  0  0  0  0  0
   36.1610   28.7960   33.3170 O   0  0  0  0  0  0  0  0  0  0  0  0
   37.2170   27.7960   35.0220 N   0  0  0  0  0  0  0  0  0  0  0  0
   37.8610   26.6780   35.4270 C   0  0  0  0  0  0  0  0  0  0  0  0
   38.2880   26.6740   36.6230 O   0  0  0  0  0  0  0  0  0  0  0  0
   37.7300   24.7900   32.6780 H   0  0  0  0  0  0  0  0  0  0  0  0
   36.5250   26.8160   31.8450 H   0  0  0  0  0  0  0  0  0  0  0  0
   37.0660   28.6220   35.6400 H   0  0  0  0  0  0  0  0  0  0  0  0
  1  6  1  0  0  0  0
  2  1  2  0  0  0  0
  2  3  1  0  0  0  0
  3  4  2  0  0  0  0
  4  5  1  0  0  0  0
  5  8  1  0  0  0  0
  6  5  2  0  0  0  0
  7  3  1  0  0  0  0
  9 10  1  0  0  0  0
 10 12  1  0  0  0  0
 11 10  2  0  0  0  0
 12 13  1  0  0  0  0
 12  1  1  0  0  0  0
 14  2  1  0  0  0  0
 14 20  1  0  0  0  0
 15 14  1  0  0  0  0
 16 15  2  0  0  0  0
 16 17  1  0  0  0  0
 17 19  1  0  0  0  0
 18 17  2  0  0  0  0
 19 20  1  0  0  0  0
 19 24  1  0  0  0  0
 20 21  2  0  0  0  0
 22 15  1  0  0  0  0
 23 16  1  0  0  0  0
M  END
>  <minimizedAffinity>
-4.2900939

$$$$

 OpenBabel03272507513D

 24 25  0  0  0  0  0  0  0  0999 V2000
   37.1180   24.1640   32.7000 C   0  0  0  0  0  0  0  0  0  0  0  0
   36.1850   23.6150   31.7940 C   0  0  0  0  0  0  0  0  0  0  0  0
   35.4240   24.4950   31.0240 C   0  0  0  0  0  0  0  0  0  0  0  0
   35.6210   25.8300   31.1850 N   0  0  0  0  0  0  0  0  0  0  0  0
   36.5090   26.3280   32.0470 C   0  0  0  0  0  0  0  0  0  0  0  0
   37.2730   25.5020   32.8200 N   0  0  0  0  0  0  0  0  0  0  0  0
   34.7300   24.0230   30.3520 H   0  0  0  0  0  0  0  0  0  0  0  0
   36.5810   27.4100   32.0920 H   0  0  0  0  0  0  0  0  0  0  0  0
   38.7250   21.7050   34.6010 H   0  0  0  0  0  0  0  0  0  0  0  0
   37.9240   21.9920   33.9310 C   0  0  0  0  0  0  0  0  0  0  0  0
   37.0320   21.2110   33.5120 O   0  0  0  0  0  0  0  0  0  0  0  0
   37.9550   23.3800   33.5430 N   0  0  0  0  0  0  0  0  0  0  0  0
   38.7010   24.0280   33.8950 H   0  0  0  0  0  0  0  0  0  0  0  0
   36.0870   22.1940   31.7330 N   0  0  0  0  0  0  0  0  0  0  0  0
   35.1010   21.5190   32.3390 C   0  0  0  0  0  0  0  0  0  0  0  0
   35.0530   20.1270   32.2470 C   0  0  0  0  0  0  0  0  0  0  0  0
   36.0670   19.5720   31.5110 C   0  0  0  0  0  0  0  0  0  0  0  0
   36.0210   18.3020   31.4280 O   0  0  0  0  0  0  0  0  0  0  0  0
   37.0670   20.2110   30.8940 N   0  0  0  0  0  0  0  0  0  0  0  0
   37.0540   21.5570   31.0220 C   0  0  0  0  0  0  0  0  0  0  0  0
   37.9940   22.1880   30.4440 O   0  0  0  0  0  0  0  0  0  0  0  0
   34.3370   22.0320   32.9010 H   0  0  0  0  0  0  0  0  0  0  0  0
   34.2800   19.5400   32.7150 H   0  0  0  0  0  0  0  0  0  0  0  0
   37.7950   19.6970   30.3550 H   0  0  0  0  0  0  0  0  0  0  0  0
  1  6  1  0  0  0  0
  1 12  1  0  0  0  0
  2  1  2  0  0  0  0
  3  4  2  0  0  0  0
  3  2  1  0  0  0  0
  4  5  1  0  0  0  0
  5  8  1  0  0  0  0
  5  6  2  0  0  0  0
  7  3  1  0  0  0  0
 10  9  1  0  0  0  0
 11 10  2  0  0  0  0
 12 13  1  0  0  0  0
 12 10  1  0  0  0  0
 14  2  1  0  0  0  0
 14 15  1  0  0  0  0
 15 22  1  0  0  0  0
 16 15  2  0  0  0  0
 16 23  1  0  0  0  0
 17 16  1  0  0  0  0
 18 17  2  0  0  0  0
 19 20  1  0  0  0  0
 19 17  1  0  0  0  0
 20 14  1  0  0  0  0
 21 20  2  0  0  0  0
 24 19  1  0  0  0  0
M  END
>  <minimizedAffinity>
-4.279809

$$$$

 OpenBabel03272507513D

 24 25  0  0  0  0  0  0  0  0999 V2000
   39.5860   24.1420   33.0140 C   0  0  0  0  0  0  0  0  0  0  0  0
   38.3070   24.3510   33.5730 C   0  0  0  0  0  0  0  0  0  0  0  0
   37.2990   24.8360   32.7380 C   0  0  0  0  0  0  0  0  0  0  0  0
   37.6000   25.0780   31.4350 N   0  0  0  0  0  0  0  0  0  0  0  0
   38.8170   24.8730   30.9270 C   0  0  0  0  0  0  0  0  0  0  0  0
   39.8310   24.4000   31.7100 N   0  0  0  0  0  0  0  0  0  0  0  0
   36.3460   24.9770   33.2150 H   0  0  0  0  0  0  0  0  0  0  0  0
   38.9430   25.1020   29.8740 H   0  0  0  0  0  0  0  0  0  0  0  0
   41.9220   23.1040   35.4040 H   0  0  0  0  0  0  0  0  0  0  0  0
   40.9520   23.5240   35.1670 C   0  0  0  0  0  0  0  0  0  0  0  0
   40.1000   23.8770   36.0230 O   0  0  0  0  0  0  0  0  0  0  0  0
   40.6990   23.6530   33.7540 N   0  0  0  0  0  0  0  0  0  0  0  0
   41.4120   23.3570   33.0430 H   0  0  0  0  0  0  0  0  0  0  0  0
   38.1370   24.0530   34.9560 N   0  0  0  0  0  0  0  0  0  0  0  0
   38.1370   25.0050   35.8980 C   0  0  0  0  0  0  0  0  0  0  0  0
   37.9670   24.6580   37.2400 C   0  0  0  0  0  0  0  0  0  0  0  0
   37.8100   23.3140   37.4610 C   0  0  0  0  0  0  0  0  0  0  0  0
   37.6550   22.9990   38.6840 O   0  0  0  0  0  0  0  0  0  0  0  0
   37.8050   22.3350   36.5490 N   0  0  0  0  0  0  0  0  0  0  0  0
   37.9740   22.7410   35.2700 C   0  0  0  0  0  0  0  0  0  0  0  0
   37.9730   21.8300   34.3850 O   0  0  0  0  0  0  0  0  0  0  0  0
   38.2670   26.0450   35.6410 H   0  0  0  0  0  0  0  0  0  0  0  0
   37.9590   25.3870   38.0320 H   0  0  0  0  0  0  0  0  0  0  0  0
   37.6770   21.3370   36.8180 H   0  0  0  0  0  0  0  0  0  0  0  0
  1  2  1  0  0  0  0
  1 12  1  0  0  0  0
  2 14  1  0  0  0  0
  3  7  1  0  0  0  0
  3  2  2  0  0  0  0
  4  3  1  0  0  0  0
  5  4  2  0  0  0  0
  5  6  1  0  0  0  0
  6  1  2  0  0  0  0
  8  5  1  0  0  0  0
 10  9  1  0  0  0  0
 10 11  2  0  0  0  0
 12 10  1  0  0  0  0
 13 12  1  0  0  0  0
 14 20  1  0  0  0  0
 14 15  1  0  0  0  0
 15 16  2  0  0  0  0
 16 17  1  0  0  0  0
 16 23  1  0  0  0  0
 17 18  2  0  0  0  0
 19 24  1  0  0  0  0
 19 17  1  0  0  0  0
 20 19  1  0  0  0  0
 21 20  2  0  0  0  0
 22 15  1  0  0  0  0
M  END
>  <minimizedAffinity>
-4.27517509

$$$$

 OpenBabel03272507513D

 24 25  0  0  0  0  0  0  0  0999 V2000
   37.3150   21.9940   35.8820 C   0  0  0  0  0  0  0  0  0  0  0  0
   38.0390   22.2280   34.6940 C   0  0  0  0  0  0  0  0  0  0  0  0
   37.5550   21.6680   33.5110 C   0  0  0  0  0  0  0  0  0  0  0  0
   36.4150   20.9310   33.5640 N   0  0  0  0  0  0  0  0  0  0  0  0
   35.7450   20.7220   34.6990 C   0  0  0  0  0  0  0  0  0  0  0  0
   36.1850   21.2510   35.8780 N   0  0  0  0  0  0  0  0  0  0  0  0
   38.1460   21.8780   32.6370 H   0  0  0  0  0  0  0  0  0  0  0  0
   34.8480   20.1160   34.6240 H   0  0  0  0  0  0  0  0  0  0  0  0
   38.8880   23.3740   38.6870 H   0  0  0  0  0  0  0  0  0  0  0  0
   38.9260   23.0780   37.6460 C   0  0  0  0  0  0  0  0  0  0  0  0
   39.9340   23.2100   36.9050 O   0  0  0  0  0  0  0  0  0  0  0  0
   37.6980   22.5050   37.1540 N   0  0  0  0  0  0  0  0  0  0  0  0
   36.8600   22.3970   37.7750 H   0  0  0  0  0  0  0  0  0  0  0  0
   39.2190   23.0220   34.7890 N   0  0  0  0  0  0  0  0  0  0  0  0
   40.4440   22.4820   34.8130 C   0  0  0  0  0  0  0  0  0  0  0  0
   41.5670   23.3060   34.9080 C   0  0  0  0  0  0  0  0  0  0  0  0
   41.2830   24.6450   34.9700 C   0  0  0  0  0  0  0  0  0  0  0  0
   42.3070   25.3960   35.0560 O   0  0  0  0  0  0  0  0  0  0  0  0
   40.0760   25.2220   34.9500 N   0  0  0  0  0  0  0  0  0  0  0  0
   39.0320   24.3670   34.8570 C   0  0  0  0  0  0  0  0  0  0  0  0
   37.8750   24.8890   34.8350 O   0  0  0  0  0  0  0  0  0  0  0  0
   40.5840   21.4130   34.7590 H   0  0  0  0  0  0  0  0  0  0  0  0
   42.5720   22.9190   34.9290 H   0  0  0  0  0  0  0  0  0  0  0  0
   39.9620   26.2560   35.0020 H   0  0  0  0  0  0  0  0  0  0  0  0
  1 12  1  0  0  0  0
  2 14  1  0  0  0  0
  2  1  2  0  0  0  0
  3  4  2  0  0  0  0
  3  2  1  0  0  0  0
  4  5  1  0  0  0  0
  5  6  2  0  0  0  0
  6  1  1  0  0  0  0
  7  3  1  0  0  0  0
  8  5  1  0  0  0  0
 10  9  1  0  0  0  0
 11 10  2  0  0  0  0
 12 10  1  0  0  0  0
 12 13  1  0  0  0  0
 14 15  1  0  0  0  0
 14 20  1  0  0  0  0
 15 16  2  0  0  0  0
 16 23  1  0  0  0  0
 16 17  1  0  0  0  0
 17 18  2  0  0  0  0
 19 17  1  0  0  0  0
 19 24  1  0  0  0  0
 20 19  1  0  0  0  0
 21 20  2  0  0  0  0
 22 15  1  0  0  0  0
M  END
>  <minimizedAffinity>
-4.23513412

$$$$

 OpenBabel03272507513D

 24 25  0  0  0  0  0  0  0  0999 V2000
   33.0050   30.2120   34.6300 C   0  0  0  0  0  0  0  0  0  0  0  0
   33.7920   31.3810   34.5500 C   0  0  0  0  0  0  0  0  0  0  0  0
   34.5580   31.5770   33.4010 C   0  0  0  0  0  0  0  0  0  0  0  0
   34.5060   30.6370   32.4210 N   0  0  0  0  0  0  0  0  0  0  0  0
   33.7550   29.5390   32.5170 C   0  0  0  0  0  0  0  0  0  0  0  0
   32.9910   29.3090   33.6250 N   0  0  0  0  0  0  0  0  0  0  0  0
   35.1390   32.4830   33.3940 H   0  0  0  0  0  0  0  0  0  0  0  0
   33.7910   28.8560   31.6740 H   0  0  0  0  0  0  0  0  0  0  0  0
   31.3550   29.9320   37.7030 H   0  0  0  0  0  0  0  0  0  0  0  0
   32.1140   30.4030   37.0900 C   0  0  0  0  0  0  0  0  0  0  0  0
   32.8840   31.3160   37.4860 O   0  0  0  0  0  0  0  0  0  0  0  0
   32.1790   29.8920   35.7440 N   0  0  0  0  0  0  0  0  0  0  0  0
   31.5350   29.1300   35.4180 H   0  0  0  0  0  0  0  0  0  0  0  0
   33.7480   32.2800   35.6560 N   0  0  0  0  0  0  0  0  0  0  0  0
   32.7300   33.1300   35.8450 C   0  0  0  0  0  0  0  0  0  0  0  0
   32.7370   33.9900   36.9450 C   0  0  0  0  0  0  0  0  0  0  0  0
   33.8370   33.8670   37.7530 C   0  0  0  0  0  0  0  0  0  0  0  0
   33.8420   34.6520   38.7560 O   0  0  0  0  0  0  0  0  0  0  0  0
   34.8710   33.0330   37.5970 N   0  0  0  0  0  0  0  0  0  0  0  0
   34.8010   32.2280   36.5120 C   0  0  0  0  0  0  0  0  0  0  0  0
   35.7710   31.4260   36.3420 O   0  0  0  0  0  0  0  0  0  0  0  0
   31.8970   33.1650   35.1600 H   0  0  0  0  0  0  0  0  0  0  0  0
   31.9420   34.6900   37.1410 H   0  0  0  0  0  0  0  0  0  0  0  0
   35.6660   33.0140   38.2700 H   0  0  0  0  0  0  0  0  0  0  0  0
  1 12  1  0  0  0  0
  2  1  1  0  0  0  0
  2 14  1  0  0  0  0
  3  2  2  0  0  0  0
  4  5  2  0  0  0  0
  4  3  1  0  0  0  0
  5  6  1  0  0  0  0
  6  1  2  0  0  0  0
  7  3  1  0  0  0  0
  8  5  1  0  0  0  0
 10 11  2  0  0  0  0
 10  9  1  0  0  0  0
 12 10  1  0  0  0  0
 13 12  1  0  0  0  0
 14 15  1  0  0  0  0
 14 20  1  0  0  0  0
 15 16  2  0  0  0  0
 16 23  1  0  0  0  0
 16 17  1  0  0  0  0
 17 18  2  0  0  0  0
 19 17  1  0  0  0  0
 19 24  1  0  0  0  0
 20 19  1  0  0  0  0
 21 20  2  0  0  0  0
 22 15  1  0  0  0  0
M  END
>  <minimizedAffinity>
-4.16601896

$$$$

 OpenBabel03272507513D

 24 25  0  0  0  0  0  0  0  0999 V2000
   33.8090   30.6070   35.1180 C   0  0  0  0  0  0  0  0  0  0  0  0
   35.0980   30.9310   34.6430 C   0  0  0  0  0  0  0  0  0  0  0  0
   35.8950   31.7640   35.4290 C   0  0  0  0  0  0  0  0  0  0  0  0
   35.3920   32.2170   36.6070 N   0  0  0  0  0  0  0  0  0  0  0  0
   34.1690   31.8990   37.0370 C   0  0  0  0  0  0  0  0  0  0  0  0
   33.3570   31.0880   36.2980 N   0  0  0  0  0  0  0  0  0  0  0  0
   36.8670   31.9770   35.0190 H   0  0  0  0  0  0  0  0  0  0  0  0
   33.8720   32.3190   37.9930 H   0  0  0  0  0  0  0  0  0  0  0  0
   32.0050   28.6620   32.8360 H   0  0  0  0  0  0  0  0  0  0  0  0
   32.8540   29.2980   33.0550 C   0  0  0  0  0  0  0  0  0  0  0  0
   33.7400   29.6150   32.2200 O   0  0  0  0  0  0  0  0  0  0  0  0
   32.8960   29.7710   34.4160 N   0  0  0  0  0  0  0  0  0  0  0  0
   32.1550   29.5040   35.1090 H   0  0  0  0  0  0  0  0  0  0  0  0
   35.4930   30.3820   33.3880 N   0  0  0  0  0  0  0  0  0  0  0  0
   35.4590   31.0940   32.2540 C   0  0  0  0  0  0  0  0  0  0  0  0
   35.8560   30.5070   31.0510 C   0  0  0  0  0  0  0  0  0  0  0  0
   36.2580   29.2010   31.1640 C   0  0  0  0  0  0  0  0  0  0  0  0
   36.6210   28.6670   30.0670 O   0  0  0  0  0  0  0  0  0  0  0  0
   36.3050   28.4580   32.2760 N   0  0  0  0  0  0  0  0  0  0  0  0
   35.9070   29.0880   33.4040 C   0  0  0  0  0  0  0  0  0  0  0  0
   35.9420   28.4040   34.4740 O   0  0  0  0  0  0  0  0  0  0  0  0
   35.1280   32.1210   32.2490 H   0  0  0  0  0  0  0  0  0  0  0  0
   35.8480   31.0380   30.1140 H   0  0  0  0  0  0  0  0  0  0  0  0
   36.6280   27.4680   32.2600 H   0  0  0  0  0  0  0  0  0  0  0  0
  1  6  1  0  0  0  0
  2  1  2  0  0  0  0
  2  3  1  0  0  0  0
  3  4  2  0  0  0  0
  4  5  1  0  0  0  0
  5  8  1  0  0  0  0
  6  5  2  0  0  0  0
  7  3  1  0  0  0  0
  9 10  1  0  0  0  0
 10 12  1  0  0  0  0
 11 10  2  0  0  0  0
 12 13  1  0  0  0  0
 12  1  1  0  0  0  0
 14 20  1  0  0  0  0
 14  2  1  0  0  0  0
 15 14  1  0  0  0  0
 16 17  1  0  0  0  0
 16 15  2  0  0  0  0
 17 19  1  0  0  0  0
 18 17  2  0  0  0  0
 19 20  1  0  0  0  0
 20 21  2  0  0  0  0
 22 15  1  0  0  0  0
 23 16  1  0  0  0  0
 24 19  1  0  0  0  0
M  END
>  <minimizedAffinity>
-4.16226053

$$$$
