
 OpenBabel03272506543D

 40 42  0  0  1  0  0  0  0  0999 V2000
   40.5600   26.7380   34.7090 C   0  0  1  0  0  0  0  0  0  0  0  0
   40.5880   27.2390   33.3550 C   0  0  0  0  0  0  0  0  0  0  0  0
   39.3600   26.9480   32.5120 C   0  0  0  0  0  0  0  0  0  0  0  0
   38.0780   27.0850   33.1580 C   0  0  2  0  0  0  0  0  0  0  0  0
   37.9980   26.6270   34.6230 C   0  0  0  0  0  0  0  0  0  0  0  0
   39.2310   27.0430   35.3690 C   0  0  0  0  0  0  0  0  0  0  0  0
   41.2830   27.3580   35.3320 H   0  0  0  0  0  0  0  0  0  0  0  0
   41.4500   26.9700   32.7370 H   0  0  0  0  0  0  0  0  0  0  0  0
   40.6080   28.3630   33.4070 H   0  0  0  0  0  0  0  0  0  0  0  0
   39.4320   27.5110   31.5860 H   0  0  0  0  0  0  0  0  0  0  0  0
   39.5020   25.8300   32.3370 H   0  0  0  0  0  0  0  0  0  0  0  0
   37.6470   28.1060   33.1880 H   0  0  0  0  0  0  0  0  0  0  0  0
   37.8590   25.5530   34.7300 H   0  0  0  0  0  0  0  0  0  0  0  0
   37.2310   27.2640   35.1030 H   0  0  0  0  0  0  0  0  0  0  0  0
   39.1660   26.6130   36.3880 H   0  0  0  0  0  0  0  0  0  0  0  0
   39.2270   28.1660   35.5200 H   0  0  0  0  0  0  0  0  0  0  0  0
   37.0800   26.2240   32.4490 C   0  0  0  0  0  0  0  0  0  0  0  0
   37.2730   24.8310   32.5640 C   0  0  0  0  0  0  0  0  0  0  0  0
   36.4480   23.9540   31.8910 C   0  0  0  0  0  0  0  0  0  0  0  0
   35.4500   24.4600   31.1190 C   0  0  0  0  0  0  0  0  0  0  0  0
   35.2620   25.8100   31.0050 C   0  0  0  0  0  0  0  0  0  0  0  0
   36.0810   26.7010   31.6720 C   0  0  0  0  0  0  0  0  0  0  0  0
   38.0000   24.2340   33.0970 H   0  0  0  0  0  0  0  0  0  0  0  0
   36.4830   22.8780   31.8910 H   0  0  0  0  0  0  0  0  0  0  0  0
   34.7420   23.8350   30.5470 H   0  0  0  0  0  0  0  0  0  0  0  0
   34.4560   26.2010   30.3780 H   0  0  0  0  0  0  0  0  0  0  0  0
   36.0060   29.9190   30.6350 H   0  0  0  0  0  0  0  0  0  0  0  0
   36.4040   28.9010   30.4920 C   0  0  0  0  0  0  0  0  0  0  0  0
   37.1900   28.2960   29.7150 O   0  0  0  0  0  0  0  0  0  0  0  0
   35.8250   28.0620   31.5150 N   0  0  0  0  0  0  0  0  0  0  0  0
   35.1350   28.2130   32.3120 H   0  0  0  0  0  0  0  0  0  0  0  0
   40.1720   24.3320   35.2520 C   0  0  0  0  0  0  0  0  0  0  0  0
   41.0400   25.3750   34.9690 C   0  0  0  0  0  0  0  0  0  0  0  0
   42.4050   25.0780   34.9330 C   0  0  0  0  0  0  0  0  0  0  0  0
   42.8030   23.7960   35.1740 N   0  0  0  0  0  0  0  0  0  0  0  0
   41.9180   22.8080   35.4470 C   0  0  0  0  0  0  0  0  0  0  0  0
   40.5840   23.0860   35.4850 N   0  0  0  0  0  0  0  0  0  0  0  0
   39.1090   24.3550   35.3050 H   0  0  0  0  0  0  0  0  0  0  0  0
   43.1100   25.8730   34.7150 H   0  0  0  0  0  0  0  0  0  0  0  0
   42.3560   21.8340   35.6200 H   0  0  0  0  0  0  0  0  0  0  0  0
  1 33  1  0  0  0  0
  1  7  1  1  0  0  0
  1  6  1  0  0  0  0
  2  9  1  0  0  0  0
  2  1  1  0  0  0  0
  3  4  1  0  0  0  0
  3  2  1  0  0  0  0
  4 12  1  6  0  0  0
  4  5  1  0  0  0  0
  5 13  1  0  0  0  0
  5 14  1  0  0  0  0
  5  6  1  0  0  0  0
  6 16  1  0  0  0  0
  6 15  1  0  0  0  0
  8  2  1  0  0  0  0
 10  3  1  0  0  0  0
 11  3  1  0  0  0  0
 17 18  1  0  0  0  0
 17  4  1  0  0  0  0
 18 23  1  0  0  0  0
 19 24  1  0  0  0  0
 19 18  2  0  0  0  0
 20 19  1  0  0  0  0
 21 20  2  0  0  0  0
 21 22  1  0  0  0  0
 22 17  2  0  0  0  0
 25 20  1  0  0  0  0
 26 21  1  0  0  0  0
 28 27  1  0  0  0  0
 28 30  1  0  0  0  0
 29 28  2  0  0  0  0
 30 22  1  0  0  0  0
 30 31  1  0  0  0  0
 32 38  1  0  0  0  0
 32 37  1  0  0  0  0
 33 32  2  0  0  0  0
 34 33  1  0  0  0  0
 34 35  2  0  0  0  0
 35 36  1  0  0  0  0
 36 37  2  0  0  0  0
 36 40  1  0  0  0  0
 39 34  1  0  0  0  0
M  END
>  <minimizedAffinity>
-5.41183949

$$$$

 OpenBabel03272506543D

 40 42  0  0  1  0  0  0  0  0999 V2000
   38.2970   22.7520   32.1210 C   0  0  1  0  0  0  0  0  0  0  0  0
   39.6140   23.1010   32.5950 C   0  0  0  0  0  0  0  0  0  0  0  0
   39.7530   23.2890   34.0950 C   0  0  0  0  0  0  0  0  0  0  0  0
   39.0600   22.3460   34.9370 C   0  0  2  0  0  0  0  0  0  0  0  0
   37.6750   21.8860   34.4540 C   0  0  0  0  0  0  0  0  0  0  0  0
   37.6890   21.6570   32.9720 C   0  0  0  0  0  0  0  0  0  0  0  0
   38.4080   22.2350   31.1120 H   0  0  0  0  0  0  0  0  0  0  0  0
   40.1020   23.9660   32.1360 H   0  0  0  0  0  0  0  0  0  0  0  0
   40.2970   22.2330   32.3780 H   0  0  0  0  0  0  0  0  0  0  0  0
   40.8070   23.3830   34.3390 H   0  0  0  0  0  0  0  0  0  0  0  0
   39.2020   24.2810   34.2210 H   0  0  0  0  0  0  0  0  0  0  0  0
   39.5850   21.3930   35.1470 H   0  0  0  0  0  0  0  0  0  0  0  0
   36.8800   22.5860   34.7020 H   0  0  0  0  0  0  0  0  0  0  0  0
   37.5460   20.8540   34.8300 H   0  0  0  0  0  0  0  0  0  0  0  0
   36.6530   21.4170   32.6620 H   0  0  0  0  0  0  0  0  0  0  0  0
   38.2930   20.7280   32.7340 H   0  0  0  0  0  0  0  0  0  0  0  0
   38.7920   22.9830   36.2650 C   0  0  0  0  0  0  0  0  0  0  0  0
   37.8570   24.0410   36.2660 C   0  0  0  0  0  0  0  0  0  0  0  0
   37.5940   24.7380   37.4270 C   0  0  0  0  0  0  0  0  0  0  0  0
   38.2500   24.3840   38.5630 C   0  0  0  0  0  0  0  0  0  0  0  0
   39.1570   23.3610   38.5640 C   0  0  0  0  0  0  0  0  0  0  0  0
   39.4330   22.6540   37.4100 C   0  0  0  0  0  0  0  0  0  0  0  0
   37.2550   24.4860   35.4870 H   0  0  0  0  0  0  0  0  0  0  0  0
   36.9110   25.5590   37.5670 H   0  0  0  0  0  0  0  0  0  0  0  0
   38.1020   24.8840   39.5370 H   0  0  0  0  0  0  0  0  0  0  0  0
   39.6780   23.0890   39.4870 H   0  0  0  0  0  0  0  0  0  0  0  0
   42.2300   20.7550   37.3450 H   0  0  0  0  0  0  0  0  0  0  0  0
   41.7700   21.7440   37.1910 C   0  0  0  0  0  0  0  0  0  0  0  0
   42.1200   22.9040   36.8420 O   0  0  0  0  0  0  0  0  0  0  0  0
   40.3630   21.6180   37.4880 N   0  0  0  0  0  0  0  0  0  0  0  0
   39.7290   20.8250   37.8130 H   0  0  0  0  0  0  0  0  0  0  0  0
   37.7380   25.1600   31.7720 C   0  0  0  0  0  0  0  0  0  0  0  0
   37.3520   23.8290   31.7970 C   0  0  0  0  0  0  0  0  0  0  0  0
   36.0190   23.5450   31.4910 C   0  0  0  0  0  0  0  0  0  0  0  0
   35.1810   24.5770   31.1890 N   0  0  0  0  0  0  0  0  0  0  0  0
   35.6020   25.8640   31.1770 C   0  0  0  0  0  0  0  0  0  0  0  0
   36.9000   26.1540   31.4750 N   0  0  0  0  0  0  0  0  0  0  0  0
   38.7030   25.5710   31.9550 H   0  0  0  0  0  0  0  0  0  0  0  0
   35.6870   22.5120   31.5020 H   0  0  0  0  0  0  0  0  0  0  0  0
   34.8440   26.5920   30.9230 H   0  0  0  0  0  0  0  0  0  0  0  0
  1  7  1  6  0  0  0
  1  2  1  0  0  0  0
  1  6  1  0  0  0  0
  2  3  1  0  0  0  0
  3 11  1  0  0  0  0
  3 10  1  0  0  0  0
  3  4  1  0  0  0  0
  4 12  1  1  0  0  0
  4 17  1  0  0  0  0
  5 13  1  0  0  0  0
  5 14  1  0  0  0  0
  5  4  1  0  0  0  0
  6  5  1  0  0  0  0
  8  2  1  0  0  0  0
  9  2  1  0  0  0  0
 15  6  1  0  0  0  0
 16  6  1  0  0  0  0
 17 18  2  0  0  0  0
 17 22  1  0  0  0  0
 18 19  1  0  0  0  0
 19 24  1  0  0  0  0
 19 20  2  0  0  0  0
 20 21  1  0  0  0  0
 20 25  1  0  0  0  0
 21 26  1  0  0  0  0
 22 30  1  0  0  0  0
 22 21  2  0  0  0  0
 23 18  1  0  0  0  0
 28 27  1  0  0  0  0
 28 30  1  0  0  0  0
 29 28  2  0  0  0  0
 30 31  1  0  0  0  0
 32 33  1  0  0  0  0
 32 38  1  0  0  0  0
 33  1  1  0  0  0  0
 34 39  1  0  0  0  0
 34 33  2  0  0  0  0
 35 34  1  0  0  0  0
 36 35  2  0  0  0  0
 36 37  1  0  0  0  0
 37 32  2  0  0  0  0
 40 36  1  0  0  0  0
M  END
>  <minimizedAffinity>
-5.37451267

$$$$

 OpenBabel03272506543D

 40 42  0  0  1  0  0  0  0  0999 V2000
   38.0380   26.6900   33.1450 C   0  0  1  0  0  0  0  0  0  0  0  0
   37.5750   25.3260   33.0500 C   0  0  0  0  0  0  0  0  0  0  0  0
   38.2470   24.3300   33.9770 C   0  0  0  0  0  0  0  0  0  0  0  0
   38.5040   24.7670   35.3270 C   0  0  2  0  0  0  0  0  0  0  0  0
   38.9400   26.2300   35.5010 C   0  0  0  0  0  0  0  0  0  0  0  0
   38.1500   27.1230   34.5910 C   0  0  0  0  0  0  0  0  0  0  0  0
   37.2130   27.3720   32.7550 H   0  0  0  0  0  0  0  0  0  0  0  0
   37.5740   24.8630   32.0580 H   0  0  0  0  0  0  0  0  0  0  0  0
   36.5000   25.3060   33.3810 H   0  0  0  0  0  0  0  0  0  0  0  0
   37.7050   23.3890   33.9300 H   0  0  0  0  0  0  0  0  0  0  0  0
   39.2690   24.2530   33.4750 H   0  0  0  0  0  0  0  0  0  0  0  0
   37.6680   24.6640   36.0460 H   0  0  0  0  0  0  0  0  0  0  0  0
   40.0020   26.3850   35.3230 H   0  0  0  0  0  0  0  0  0  0  0  0
   38.5650   26.5460   36.4920 H   0  0  0  0  0  0  0  0  0  0  0  0
   38.5620   28.1470   34.6880 H   0  0  0  0  0  0  0  0  0  0  0  0
   37.0810   27.1970   34.9610 H   0  0  0  0  0  0  0  0  0  0  0  0
   39.6440   23.9750   35.8870 C   0  0  0  0  0  0  0  0  0  0  0  0
   40.9160   24.2500   35.3400 C   0  0  0  0  0  0  0  0  0  0  0  0
   42.0190   23.5260   35.7400 C   0  0  0  0  0  0  0  0  0  0  0  0
   41.8550   22.5460   36.6670 C   0  0  0  0  0  0  0  0  0  0  0  0
   40.6240   22.2760   37.1980 C   0  0  0  0  0  0  0  0  0  0  0  0
   39.5090   22.9920   36.8070 C   0  0  0  0  0  0  0  0  0  0  0  0
   41.2550   24.9560   34.5950 H   0  0  0  0  0  0  0  0  0  0  0  0
   43.0380   23.6310   35.4080 H   0  0  0  0  0  0  0  0  0  0  0  0
   42.6800   21.9180   37.0470 H   0  0  0  0  0  0  0  0  0  0  0  0
   40.5070   21.4840   37.9420 H   0  0  0  0  0  0  0  0  0  0  0  0
   36.7300   22.8800   38.7300 H   0  0  0  0  0  0  0  0  0  0  0  0
   37.6850   23.3790   38.4980 C   0  0  0  0  0  0  0  0  0  0  0  0
   38.3640   24.3560   38.9120 O   0  0  0  0  0  0  0  0  0  0  0  0
   38.2870   22.6680   37.3950 N   0  0  0  0  0  0  0  0  0  0  0  0
   38.0110   21.8290   36.7970 H   0  0  0  0  0  0  0  0  0  0  0  0
   39.0250   27.5260   31.0090 C   0  0  0  0  0  0  0  0  0  0  0  0
   39.1800   27.1100   32.3220 C   0  0  0  0  0  0  0  0  0  0  0  0
   40.4760   27.1110   32.8430 C   0  0  0  0  0  0  0  0  0  0  0  0
   41.5040   27.5160   32.0440 N   0  0  0  0  0  0  0  0  0  0  0  0
   41.3060   27.9140   30.7650 C   0  0  0  0  0  0  0  0  0  0  0  0
   40.0450   27.9170   30.2450 N   0  0  0  0  0  0  0  0  0  0  0  0
   38.1250   27.6120   30.4460 H   0  0  0  0  0  0  0  0  0  0  0  0
   40.6300   26.7900   33.8680 H   0  0  0  0  0  0  0  0  0  0  0  0
   42.1990   28.2120   30.2330 H   0  0  0  0  0  0  0  0  0  0  0  0
  1  7  1  6  0  0  0
  1  6  1  0  0  0  0
  2  1  1  0  0  0  0
  2  9  1  0  0  0  0
  2  3  1  0  0  0  0
  3  4  1  0  0  0  0
  4  5  1  0  0  0  0
  4 17  1  0  0  0  0
  4 12  1  1  0  0  0
  5 14  1  0  0  0  0
  6 15  1  0  0  0  0
  6 16  1  0  0  0  0
  6  5  1  0  0  0  0
  8  2  1  0  0  0  0
 10  3  1  0  0  0  0
 11  3  1  0  0  0  0
 13  5  1  0  0  0  0
 17 22  1  0  0  0  0
 18 19  1  0  0  0  0
 18 17  2  0  0  0  0
 19 20  2  0  0  0  0
 20 25  1  0  0  0  0
 20 21  1  0  0  0  0
 21 26  1  0  0  0  0
 22 21  2  0  0  0  0
 22 30  1  0  0  0  0
 23 18  1  0  0  0  0
 24 19  1  0  0  0  0
 28 27  1  0  0  0  0
 28 29  2  0  0  0  0
 30 28  1  0  0  0  0
 31 30  1  0  0  0  0
 32 33  1  0  0  0  0
 33 34  2  0  0  0  0
 33  1  1  0  0  0  0
 34 39  1  0  0  0  0
 35 34  1  0  0  0  0
 36 35  2  0  0  0  0
 37 36  1  0  0  0  0
 37 32  2  0  0  0  0
 38 32  1  0  0  0  0
 40 36  1  0  0  0  0
M  END
>  <minimizedAffinity>
-5.31097317

$$$$

 OpenBabel03272506543D

 40 42  0  0  1  0  0  0  0  0999 V2000
   38.5350   26.6970   32.6070 C   0  0  1  0  0  0  0  0  0  0  0  0
   39.7610   26.9040   33.3390 C   0  0  0  0  0  0  0  0  0  0  0  0
   39.9340   26.0720   34.5970 C   0  0  0  0  0  0  0  0  0  0  0  0
   39.5220   24.6910   34.5260 C   0  0  2  0  0  0  0  0  0  0  0  0
   38.2560   24.3960   33.7070 C   0  0  0  0  0  0  0  0  0  0  0  0
   38.2410   25.2190   32.4530 C   0  0  0  0  0  0  0  0  0  0  0  0
   38.7070   27.0190   31.5290 H   0  0  0  0  0  0  0  0  0  0  0  0
   40.0120   27.9320   33.6210 H   0  0  0  0  0  0  0  0  0  0  0  0
   40.6120   26.5670   32.6850 H   0  0  0  0  0  0  0  0  0  0  0  0
   40.9510   26.1940   34.9600 H   0  0  0  0  0  0  0  0  0  0  0  0
   39.1780   26.5870   35.2800 H   0  0  0  0  0  0  0  0  0  0  0  0
   40.2620   23.9760   34.1160 H   0  0  0  0  0  0  0  0  0  0  0  0
   37.3360   24.5700   34.2610 H   0  0  0  0  0  0  0  0  0  0  0  0
   38.3870   23.3780   33.2950 H   0  0  0  0  0  0  0  0  0  0  0  0
   37.2730   25.0390   31.9470 H   0  0  0  0  0  0  0  0  0  0  0  0
   39.0280   24.8360   31.7340 H   0  0  0  0  0  0  0  0  0  0  0  0
   39.1880   24.2110   35.9040 C   0  0  0  0  0  0  0  0  0  0  0  0
   38.2260   24.9690   36.6070 C   0  0  0  0  0  0  0  0  0  0  0  0
   37.9010   24.6490   37.9080 C   0  0  0  0  0  0  0  0  0  0  0  0
   38.5230   23.5930   38.4950 C   0  0  0  0  0  0  0  0  0  0  0  0
   39.4560   22.8580   37.8170 C   0  0  0  0  0  0  0  0  0  0  0  0
   39.7940   23.1670   36.5140 C   0  0  0  0  0  0  0  0  0  0  0  0
   37.6420   25.8380   36.3390 H   0  0  0  0  0  0  0  0  0  0  0  0
   37.1920   25.1370   38.5540 H   0  0  0  0  0  0  0  0  0  0  0  0
   38.3260   23.2630   39.5300 H   0  0  0  0  0  0  0  0  0  0  0  0
   39.9500   22.0120   38.3030 H   0  0  0  0  0  0  0  0  0  0  0  0
   42.6510   21.7900   35.3390 H   0  0  0  0  0  0  0  0  0  0  0  0
   42.1750   22.5840   35.9360 C   0  0  0  0  0  0  0  0  0  0  0  0
   42.5180   23.5840   36.6220 O   0  0  0  0  0  0  0  0  0  0  0  0
   40.7480   22.3690   35.8820 N   0  0  0  0  0  0  0  0  0  0  0  0
   40.1110   21.6460   35.4260 H   0  0  0  0  0  0  0  0  0  0  0  0
   37.0720   27.8360   34.2790 C   0  0  0  0  0  0  0  0  0  0  0  0
   37.3530   27.4910   32.9660 C   0  0  0  0  0  0  0  0  0  0  0  0
   36.4640   27.9370   31.9850 C   0  0  0  0  0  0  0  0  0  0  0  0
   35.3850   28.6780   32.3660 N   0  0  0  0  0  0  0  0  0  0  0  0
   35.1490   28.9920   33.6610 C   0  0  0  0  0  0  0  0  0  0  0  0
   36.0090   28.5610   34.6280 N   0  0  0  0  0  0  0  0  0  0  0  0
   37.6320   27.6090   35.1550 H   0  0  0  0  0  0  0  0  0  0  0  0
   36.6570   27.6840   30.9480 H   0  0  0  0  0  0  0  0  0  0  0  0
   34.2620   29.5830   33.8370 H   0  0  0  0  0  0  0  0  0  0  0  0
  1  7  1  6  0  0  0
  1 33  1  0  0  0  0
  1  2  1  0  0  0  0
  2  8  1  0  0  0  0
  2  3  1  0  0  0  0
  3 10  1  0  0  0  0
  3 11  1  0  0  0  0
  4 12  1  6  0  0  0
  4  3  1  0  0  0  0
  4 17  1  0  0  0  0
  5 13  1  0  0  0  0
  5  4  1  0  0  0  0
  6  1  1  0  0  0  0
  6  5  1  0  0  0  0
  9  2  1  0  0  0  0
 14  5  1  0  0  0  0
 15  6  1  0  0  0  0
 16  6  1  0  0  0  0
 17 22  2  0  0  0  0
 17 18  1  0  0  0  0
 18 19  2  0  0  0  0
 19 20  1  0  0  0  0
 19 24  1  0  0  0  0
 20 25  1  0  0  0  0
 21 26  1  0  0  0  0
 21 20  2  0  0  0  0
 22 21  1  0  0  0  0
 23 18  1  0  0  0  0
 27 28  1  0  0  0  0
 28 29  2  0  0  0  0
 30 28  1  0  0  0  0
 30 22  1  0  0  0  0
 31 30  1  0  0  0  0
 32 37  1  0  0  0  0
 32 38  1  0  0  0  0
 33 32  2  0  0  0  0
 34 35  2  0  0  0  0
 34 33  1  0  0  0  0
 35 36  1  0  0  0  0
 36 40  1  0  0  0  0
 36 37  2  0  0  0  0
 39 34  1  0  0  0  0
M  END
>  <minimizedAffinity>
-5.25154114

$$$$

 OpenBabel03272506543D

 40 42  0  0  1  0  0  0  0  0999 V2000
   39.4660   24.0510   34.1770 C   0  0  1  0  0  0  0  0  0  0  0  0
   38.4670   23.7770   33.1720 C   0  0  0  0  0  0  0  0  0  0  0  0
   37.5930   24.9480   32.7660 C   0  0  0  0  0  0  0  0  0  0  0  0
   38.2440   26.2250   32.6080 C   0  0  2  0  0  0  0  0  0  0  0  0
   39.3620   26.5510   33.6110 C   0  0  0  0  0  0  0  0  0  0  0  0
   40.2040   25.3370   33.8680 C   0  0  0  0  0  0  0  0  0  0  0  0
   40.2910   23.2730   34.0800 H   0  0  0  0  0  0  0  0  0  0  0  0
   37.7860   22.9400   33.3550 H   0  0  0  0  0  0  0  0  0  0  0  0
   39.0050   23.5110   32.2200 H   0  0  0  0  0  0  0  0  0  0  0  0
   37.0040   24.6610   31.8990 H   0  0  0  0  0  0  0  0  0  0  0  0
   36.9450   25.0440   33.7010 H   0  0  0  0  0  0  0  0  0  0  0  0
   38.7210   26.4170   31.6260 H   0  0  0  0  0  0  0  0  0  0  0  0
   38.9900   26.9370   34.5570 H   0  0  0  0  0  0  0  0  0  0  0  0
   40.0780   27.2000   33.0720 H   0  0  0  0  0  0  0  0  0  0  0  0
   40.9340   25.5980   34.6600 H   0  0  0  0  0  0  0  0  0  0  0  0
   40.8310   25.1040   32.9530 H   0  0  0  0  0  0  0  0  0  0  0  0
   37.2390   27.3150   32.8110 C   0  0  0  0  0  0  0  0  0  0  0  0
   37.0020   27.6950   34.1500 C   0  0  0  0  0  0  0  0  0  0  0  0
   36.0440   28.6420   34.4480 C   0  0  0  0  0  0  0  0  0  0  0  0
   35.3380   29.1970   33.4280 C   0  0  0  0  0  0  0  0  0  0  0  0
   35.5650   28.8300   32.1310 C   0  0  0  0  0  0  0  0  0  0  0  0
   36.5190   27.8820   31.8160 C   0  0  0  0  0  0  0  0  0  0  0  0
   37.4280   27.3710   35.0890 H   0  0  0  0  0  0  0  0  0  0  0  0
   35.7640   29.0210   35.4160 H   0  0  0  0  0  0  0  0  0  0  0  0
   34.5540   29.9620   33.5710 H   0  0  0  0  0  0  0  0  0  0  0  0
   34.9870   29.2850   31.3210 H   0  0  0  0  0  0  0  0  0  0  0  0
   37.4840   27.7870   28.5770 H   0  0  0  0  0  0  0  0  0  0  0  0
   37.5560   28.2840   29.5580 C   0  0  0  0  0  0  0  0  0  0  0  0
   38.1530   29.2650   30.0770 O   0  0  0  0  0  0  0  0  0  0  0  0
   36.7020   27.5630   30.4720 N   0  0  0  0  0  0  0  0  0  0  0  0
   36.0730   26.7050   30.3990 H   0  0  0  0  0  0  0  0  0  0  0  0
   38.0190   24.5900   36.1400 C   0  0  0  0  0  0  0  0  0  0  0  0
   39.1010   23.9170   35.5940 C   0  0  0  0  0  0  0  0  0  0  0  0
   39.8350   23.0890   36.4470 C   0  0  0  0  0  0  0  0  0  0  0  0
   39.4530   22.9900   37.7530 N   0  0  0  0  0  0  0  0  0  0  0  0
   38.3890   23.6670   38.2430 C   0  0  0  0  0  0  0  0  0  0  0  0
   37.6650   24.4780   37.4200 N   0  0  0  0  0  0  0  0  0  0  0  0
   37.3350   25.2440   35.6520 H   0  0  0  0  0  0  0  0  0  0  0  0
   40.6870   22.5490   36.0490 H   0  0  0  0  0  0  0  0  0  0  0  0
   38.1860   23.5060   39.2930 H   0  0  0  0  0  0  0  0  0  0  0  0
  1  7  1  6  0  0  0
  1 33  1  0  0  0  0
  2  8  1  0  0  0  0
  2  1  1  0  0  0  0
  3  2  1  0  0  0  0
  3 11  1  0  0  0  0
  4 12  1  6  0  0  0
  4  3  1  0  0  0  0
  4 17  1  0  0  0  0
  4  5  1  0  0  0  0
  5  6  1  0  0  0  0
  5 13  1  0  0  0  0
  6  1  1  0  0  0  0
  6 15  1  0  0  0  0
  9  2  1  0  0  0  0
 10  3  1  0  0  0  0
 14  5  1  0  0  0  0
 16  6  1  0  0  0  0
 17 18  1  0  0  0  0
 18 19  2  0  0  0  0
 18 23  1  0  0  0  0
 19 24  1  0  0  0  0
 20 25  1  0  0  0  0
 20 19  1  0  0  0  0
 21 20  2  0  0  0  0
 22 21  1  0  0  0  0
 22 17  2  0  0  0  0
 26 21  1  0  0  0  0
 27 28  1  0  0  0  0
 28 29  2  0  0  0  0
 28 30  1  0  0  0  0
 30 22  1  0  0  0  0
 31 30  1  0  0  0  0
 32 37  1  0  0  0  0
 33 32  2  0  0  0  0
 33 34  1  0  0  0  0
 34 35  2  0  0  0  0
 35 36  1  0  0  0  0
 36 40  1  0  0  0  0
 37 36  2  0  0  0  0
 38 32  1  0  0  0  0
 39 34  1  0  0  0  0
M  END
>  <minimizedAffinity>
-5.14212656

$$$$

 OpenBabel03272506543D

 40 42  0  0  1  0  0  0  0  0999 V2000
   39.0780   25.8690   35.4500 C   0  0  1  0  0  0  0  0  0  0  0  0
   38.5060   27.0770   35.9940 C   0  0  0  0  0  0  0  0  0  0  0  0
   37.7150   27.9340   35.0230 C   0  0  0  0  0  0  0  0  0  0  0  0
   36.8490   27.2440   34.0990 C   0  0  2  0  0  0  0  0  0  0  0  0
   37.3750   25.9160   33.5310 C   0  0  0  0  0  0  0  0  0  0  0  0
   38.0650   25.1260   34.6040 C   0  0  0  0  0  0  0  0  0  0  0  0
   39.2510   25.1410   36.3080 H   0  0  0  0  0  0  0  0  0  0  0  0
   39.1800   27.7610   36.5200 H   0  0  0  0  0  0  0  0  0  0  0  0
   37.7390   26.7780   36.7610 H   0  0  0  0  0  0  0  0  0  0  0  0
   37.2050   28.7140   35.5820 H   0  0  0  0  0  0  0  0  0  0  0  0
   38.5680   28.3570   34.3930 H   0  0  0  0  0  0  0  0  0  0  0  0
   35.8410   26.9780   34.4730 H   0  0  0  0  0  0  0  0  0  0  0  0
   38.0530   26.0480   32.6910 H   0  0  0  0  0  0  0  0  0  0  0  0
   36.4850   25.2890   33.3410 H   0  0  0  0  0  0  0  0  0  0  0  0
   38.5030   24.2270   34.1270 H   0  0  0  0  0  0  0  0  0  0  0  0
   37.3000   24.7290   35.3390 H   0  0  0  0  0  0  0  0  0  0  0  0
   36.6410   28.1020   32.8910 C   0  0  0  0  0  0  0  0  0  0  0  0
   37.6040   27.9740   31.8670 C   0  0  0  0  0  0  0  0  0  0  0  0
   37.5390   28.7710   30.7440 C   0  0  0  0  0  0  0  0  0  0  0  0
   36.5320   29.6780   30.6450 C   0  0  0  0  0  0  0  0  0  0  0  0
   35.5990   29.8060   31.6360 C   0  0  0  0  0  0  0  0  0  0  0  0
   35.6510   29.0160   32.7680 C   0  0  0  0  0  0  0  0  0  0  0  0
   38.4760   27.3440   31.7580 H   0  0  0  0  0  0  0  0  0  0  0  0
   38.2020   28.7770   29.8950 H   0  0  0  0  0  0  0  0  0  0  0  0
   36.4010   30.3560   29.7840 H   0  0  0  0  0  0  0  0  0  0  0  0
   34.7950   30.5420   31.5430 H   0  0  0  0  0  0  0  0  0  0  0  0
   33.7810   30.0670   35.3820 H   0  0  0  0  0  0  0  0  0  0  0  0
   34.7040   30.1790   34.7910 C   0  0  0  0  0  0  0  0  0  0  0  0
   35.7400   30.8970   34.7830 O   0  0  0  0  0  0  0  0  0  0  0  0
   34.6610   29.1950   33.7340 N   0  0  0  0  0  0  0  0  0  0  0  0
   33.9660   28.4490   33.4260 H   0  0  0  0  0  0  0  0  0  0  0  0
   40.8780   27.0680   34.2020 C   0  0  0  0  0  0  0  0  0  0  0  0
   40.4130   25.9290   34.8410 C   0  0  0  0  0  0  0  0  0  0  0  0
   41.2740   24.8300   34.8920 C   0  0  0  0  0  0  0  0  0  0  0  0
   42.5070   24.9360   34.3190 N   0  0  0  0  0  0  0  0  0  0  0  0
   42.9190   26.0690   33.7050 C   0  0  0  0  0  0  0  0  0  0  0  0
   42.0880   27.1480   33.6480 N   0  0  0  0  0  0  0  0  0  0  0  0
   40.3830   28.0030   34.0780 H   0  0  0  0  0  0  0  0  0  0  0  0
   40.9390   23.9230   35.3860 H   0  0  0  0  0  0  0  0  0  0  0  0
   43.9170   26.0300   33.2900 H   0  0  0  0  0  0  0  0  0  0  0  0
  1  2  1  0  0  0  0
  1  7  1  1  0  0  0
  2  8  1  0  0  0  0
  2  9  1  0  0  0  0
  3 10  1  0  0  0  0
  3  2  1  0  0  0  0
  4 12  1  1  0  0  0
  4  3  1  0  0  0  0
  5  4  1  0  0  0  0
  5  6  1  0  0  0  0
  6 16  1  0  0  0  0
  6  1  1  0  0  0  0
 11  3  1  0  0  0  0
 13  5  1  0  0  0  0
 14  5  1  0  0  0  0
 15  6  1  0  0  0  0
 17  4  1  0  0  0  0
 18 17  2  0  0  0  0
 19 18  1  0  0  0  0
 20 19  2  0  0  0  0
 20 21  1  0  0  0  0
 21 22  2  0  0  0  0
 22 17  1  0  0  0  0
 22 30  1  0  0  0  0
 23 18  1  0  0  0  0
 24 19  1  0  0  0  0
 25 20  1  0  0  0  0
 26 21  1  0  0  0  0
 28 27  1  0  0  0  0
 29 28  2  0  0  0  0
 30 28  1  0  0  0  0
 31 30  1  0  0  0  0
 32 33  1  0  0  0  0
 33 34  2  0  0  0  0
 33  1  1  0  0  0  0
 34 39  1  0  0  0  0
 35 34  1  0  0  0  0
 36 35  2  0  0  0  0
 37 36  1  0  0  0  0
 37 32  2  0  0  0  0
 38 32  1  0  0  0  0
 40 36  1  0  0  0  0
M  END
>  <minimizedAffinity>
-5.07598019

$$$$

 OpenBabel03272506543D

 40 42  0  0  1  0  0  0  0  0999 V2000
   38.7240   27.1260   32.6790 C   0  0  1  0  0  0  0  0  0  0  0  0
   37.4600   27.3800   33.3280 C   0  0  0  0  0  0  0  0  0  0  0  0
   37.2110   26.6220   34.6190 C   0  0  0  0  0  0  0  0  0  0  0  0
   38.3230   26.5050   35.5310 C   0  0  2  0  0  0  0  0  0  0  0  0
   39.7070   26.2960   34.8990 C   0  0  0  0  0  0  0  0  0  0  0  0
   39.8610   27.1570   33.6800 C   0  0  0  0  0  0  0  0  0  0  0  0
   38.9680   28.0180   32.0150 H   0  0  0  0  0  0  0  0  0  0  0  0
   36.5530   27.2600   32.7280 H   0  0  0  0  0  0  0  0  0  0  0  0
   37.4530   28.4570   33.6530 H   0  0  0  0  0  0  0  0  0  0  0  0
   36.3160   27.0180   35.0890 H   0  0  0  0  0  0  0  0  0  0  0  0
   37.0400   25.5740   34.2030 H   0  0  0  0  0  0  0  0  0  0  0  0
   38.4850   27.3560   36.2220 H   0  0  0  0  0  0  0  0  0  0  0  0
   39.9060   25.2600   34.6330 H   0  0  0  0  0  0  0  0  0  0  0  0
   40.4340   26.7660   35.5870 H   0  0  0  0  0  0  0  0  0  0  0  0
   40.8330   26.9030   33.2120 H   0  0  0  0  0  0  0  0  0  0  0  0
   39.9540   28.2430   33.9880 H   0  0  0  0  0  0  0  0  0  0  0  0
   38.1240   25.2940   36.3890 C   0  0  0  0  0  0  0  0  0  0  0  0
   38.0810   25.5240   37.7810 C   0  0  0  0  0  0  0  0  0  0  0  0
   37.9720   24.4660   38.6590 C   0  0  0  0  0  0  0  0  0  0  0  0
   37.9070   23.2050   38.1570 C   0  0  0  0  0  0  0  0  0  0  0  0
   37.9500   22.9800   36.8080 C   0  0  0  0  0  0  0  0  0  0  0  0
   38.0610   24.0290   35.9160 C   0  0  0  0  0  0  0  0  0  0  0  0
   38.1370   26.4240   38.3770 H   0  0  0  0  0  0  0  0  0  0  0  0
   37.9280   24.4980   39.7350 H   0  0  0  0  0  0  0  0  0  0  0  0
   37.8180   22.3000   38.7830 H   0  0  0  0  0  0  0  0  0  0  0  0
   37.8990   21.9600   36.4190 H   0  0  0  0  0  0  0  0  0  0  0  0
   38.9000   22.9640   32.8180 H   0  0  0  0  0  0  0  0  0  0  0  0
   39.1770   23.0540   33.8810 C   0  0  0  0  0  0  0  0  0  0  0  0
   40.1390   22.7460   34.6350 O   0  0  0  0  0  0  0  0  0  0  0  0
   38.0910   23.7260   34.5550 N   0  0  0  0  0  0  0  0  0  0  0  0
   37.1430   24.1120   34.2590 H   0  0  0  0  0  0  0  0  0  0  0  0
   37.7000   25.3220   31.2900 C   0  0  0  0  0  0  0  0  0  0  0  0
   38.8190   26.0140   31.7250 C   0  0  0  0  0  0  0  0  0  0  0  0
   40.0550   25.6150   31.2100 C   0  0  0  0  0  0  0  0  0  0  0  0
   40.0930   24.5820   30.3200 N   0  0  0  0  0  0  0  0  0  0  0  0
   38.9730   23.9350   29.9240 C   0  0  0  0  0  0  0  0  0  0  0  0
   37.7610   24.3140   30.4200 N   0  0  0  0  0  0  0  0  0  0  0  0
   36.6810   25.4870   31.5500 H   0  0  0  0  0  0  0  0  0  0  0  0
   40.9510   26.1380   31.5310 H   0  0  0  0  0  0  0  0  0  0  0  0
   39.1320   23.1330   29.2150 H   0  0  0  0  0  0  0  0  0  0  0  0
  1  7  1  6  0  0  0
  1  2  1  0  0  0  0
  1  6  1  0  0  0  0
  2  9  1  0  0  0  0
  2  3  1  0  0  0  0
  3 10  1  0  0  0  0
  3  4  1  0  0  0  0
  4 12  1  1  0  0  0
  4 17  1  0  0  0  0
  5  4  1  0  0  0  0
  5 14  1  0  0  0  0
  6 16  1  0  0  0  0
  6  5  1  0  0  0  0
  8  2  1  0  0  0  0
 11  3  1  0  0  0  0
 13  5  1  0  0  0  0
 15  6  1  0  0  0  0
 17 18  1  0  0  0  0
 18 23  1  0  0  0  0
 18 19  2  0  0  0  0
 19 24  1  0  0  0  0
 20 19  1  0  0  0  0
 20 25  1  0  0  0  0
 21 20  2  0  0  0  0
 22 17  2  0  0  0  0
 22 21  1  0  0  0  0
 26 21  1  0  0  0  0
 27 28  1  0  0  0  0
 28 30  1  0  0  0  0
 28 29  2  0  0  0  0
 30 22  1  0  0  0  0
 31 30  1  0  0  0  0
 32 38  1  0  0  0  0
 32 33  1  0  0  0  0
 33  1  1  0  0  0  0
 34 39  1  0  0  0  0
 34 33  2  0  0  0  0
 35 34  1  0  0  0  0
 36 35  2  0  0  0  0
 36 37  1  0  0  0  0
 37 32  2  0  0  0  0
 40 36  1  0  0  0  0
M  END
>  <minimizedAffinity>
-4.96537495

$$$$

 OpenBabel03272506543D

 40 42  0  0  1  0  0  0  0  0999 V2000
   37.9820   26.8080   33.1160 C   0  0  1  0  0  0  0  0  0  0  0  0
   38.1280   27.0870   34.5240 C   0  0  0  0  0  0  0  0  0  0  0  0
   39.4090   26.5930   35.1710 C   0  0  0  0  0  0  0  0  0  0  0  0
   40.6260   26.7550   34.4140 C   0  0  2  0  0  0  0  0  0  0  0  0
   40.5230   26.5320   32.8970 C   0  0  0  0  0  0  0  0  0  0  0  0
   39.2560   27.1340   32.3650 C   0  0  0  0  0  0  0  0  0  0  0  0
   37.2490   27.5610   32.6790 H   0  0  0  0  0  0  0  0  0  0  0  0
   37.3150   26.7740   35.1870 H   0  0  0  0  0  0  0  0  0  0  0  0
   38.1890   28.2040   34.6470 H   0  0  0  0  0  0  0  0  0  0  0  0
   39.4750   27.0030   36.1740 H   0  0  0  0  0  0  0  0  0  0  0  0
   39.2010   25.4710   35.1880 H   0  0  0  0  0  0  0  0  0  0  0  0
   41.1280   27.7390   34.4920 H   0  0  0  0  0  0  0  0  0  0  0  0
   40.5680   25.4830   32.6130 H   0  0  0  0  0  0  0  0  0  0  0  0
   41.2840   27.1910   32.4380 H   0  0  0  0  0  0  0  0  0  0  0  0
   39.1860   26.8700   31.2920 H   0  0  0  0  0  0  0  0  0  0  0  0
   39.3300   28.2650   32.3880 H   0  0  0  0  0  0  0  0  0  0  0  0
   41.6230   25.7340   34.8680 C   0  0  0  0  0  0  0  0  0  0  0  0
   41.0910   24.4990   35.2970 C   0  0  0  0  0  0  0  0  0  0  0  0
   41.9210   23.5180   35.7990 C   0  0  0  0  0  0  0  0  0  0  0  0
   43.2550   23.7670   35.8690 C   0  0  0  0  0  0  0  0  0  0  0  0
   43.7720   24.9630   35.4560 C   0  0  0  0  0  0  0  0  0  0  0  0
   42.9540   25.9560   34.9520 C   0  0  0  0  0  0  0  0  0  0  0  0
   40.0820   24.1130   35.3440 H   0  0  0  0  0  0  0  0  0  0  0  0
   41.6500   22.5400   36.1580 H   0  0  0  0  0  0  0  0  0  0  0  0
   43.9930   23.0420   36.2550 H   0  0  0  0  0  0  0  0  0  0  0  0
   44.8480   25.1490   35.5200 H   0  0  0  0  0  0  0  0  0  0  0  0
   44.5280   28.4050   33.2310 H   0  0  0  0  0  0  0  0  0  0  0  0
   44.1440   27.3720   33.2440 C   0  0  0  0  0  0  0  0  0  0  0  0
   44.0810   26.3790   32.4710 O   0  0  0  0  0  0  0  0  0  0  0  0
   43.5520   27.1470   34.5420 N   0  0  0  0  0  0  0  0  0  0  0  0
   43.4120   27.7350   35.4190 H   0  0  0  0  0  0  0  0  0  0  0  0
   36.2860   25.4820   31.8490 C   0  0  0  0  0  0  0  0  0  0  0  0
   37.3750   25.5350   32.7060 C   0  0  0  0  0  0  0  0  0  0  0  0
   37.8860   24.3180   33.1630 C   0  0  0  0  0  0  0  0  0  0  0  0
   37.2940   23.1610   32.7490 N   0  0  0  0  0  0  0  0  0  0  0  0
   36.2310   23.1580   31.9110 C   0  0  0  0  0  0  0  0  0  0  0  0
   35.7230   24.3390   31.4590 N   0  0  0  0  0  0  0  0  0  0  0  0
   35.7730   26.2920   31.3850 H   0  0  0  0  0  0  0  0  0  0  0  0
   38.7380   24.3250   33.8350 H   0  0  0  0  0  0  0  0  0  0  0  0
   35.8510   22.1780   31.6560 H   0  0  0  0  0  0  0  0  0  0  0  0
  1  7  1  6  0  0  0
  1  2  1  0  0  0  0
  2  9  1  0  0  0  0
  2  3  1  0  0  0  0
  2  8  1  0  0  0  0
  3 11  1  0  0  0  0
  3 10  1  0  0  0  0
  4 12  1  1  0  0  0
  4 17  1  0  0  0  0
  4  3  1  0  0  0  0
  5  4  1  0  0  0  0
  6 16  1  0  0  0  0
  6  5  1  0  0  0  0
  6  1  1  0  0  0  0
 13  5  1  0  0  0  0
 14  5  1  0  0  0  0
 15  6  1  0  0  0  0
 17 22  2  0  0  0  0
 17 18  1  0  0  0  0
 18 23  1  0  0  0  0
 18 19  2  0  0  0  0
 19 20  1  0  0  0  0
 19 24  1  0  0  0  0
 20 25  1  0  0  0  0
 21 26  1  0  0  0  0
 21 20  2  0  0  0  0
 22 21  1  0  0  0  0
 27 28  1  0  0  0  0
 28 30  1  0  0  0  0
 29 28  2  0  0  0  0
 30 22  1  0  0  0  0
 30 31  1  0  0  0  0
 32 33  1  0  0  0  0
 33  1  1  0  0  0  0
 33 34  2  0  0  0  0
 34 39  1  0  0  0  0
 35 34  1  0  0  0  0
 36 35  2  0  0  0  0
 37 32  2  0  0  0  0
 37 36  1  0  0  0  0
 38 32  1  0  0  0  0
 40 36  1  0  0  0  0
M  END
>  <minimizedAffinity>
-4.95712996

$$$$

 OpenBabel03272506543D

 40 42  0  0  1  0  0  0  0  0999 V2000
   39.1890   22.9760   34.3570 C   0  0  1  0  0  0  0  0  0  0  0  0
   38.0000   22.7800   33.5630 C   0  0  0  0  0  0  0  0  0  0  0  0
   37.2670   24.0390   33.1410 C   0  0  0  0  0  0  0  0  0  0  0  0
   38.0770   25.1530   32.7120 C   0  0  2  0  0  0  0  0  0  0  0  0
   39.3900   25.3780   33.4790 C   0  0  0  0  0  0  0  0  0  0  0  0
   40.0590   24.0670   33.7670 C   0  0  0  0  0  0  0  0  0  0  0  0
   39.8490   22.0560   34.2410 H   0  0  0  0  0  0  0  0  0  0  0  0
   37.2350   22.1040   33.9600 H   0  0  0  0  0  0  0  0  0  0  0  0
   38.3140   22.3210   32.5860 H   0  0  0  0  0  0  0  0  0  0  0  0
   36.4980   23.7710   32.4210 H   0  0  0  0  0  0  0  0  0  0  0  0
   36.8160   24.3510   34.1420 H   0  0  0  0  0  0  0  0  0  0  0  0
   38.4000   25.1490   31.6520 H   0  0  0  0  0  0  0  0  0  0  0  0
   39.2550   25.9240   34.4100 H   0  0  0  0  0  0  0  0  0  0  0  0
   40.0960   25.8250   32.7540 H   0  0  0  0  0  0  0  0  0  0  0  0
   40.9470   24.2760   34.3950 H   0  0  0  0  0  0  0  0  0  0  0  0
   40.4710   23.6280   32.8070 H   0  0  0  0  0  0  0  0  0  0  0  0
   37.3100   26.4220   32.9170 C   0  0  0  0  0  0  0  0  0  0  0  0
   37.4630   27.0400   34.1770 C   0  0  0  0  0  0  0  0  0  0  0  0
   36.7460   28.1760   34.4890 C   0  0  0  0  0  0  0  0  0  0  0  0
   35.8920   28.6830   33.5610 C   0  0  0  0  0  0  0  0  0  0  0  0
   35.7410   28.0850   32.3410 C   0  0  0  0  0  0  0  0  0  0  0  0
   36.4510   26.9470   32.0140 C   0  0  0  0  0  0  0  0  0  0  0  0
   38.0590   26.7950   35.0450 H   0  0  0  0  0  0  0  0  0  0  0  0
   36.7660   28.7440   35.4040 H   0  0  0  0  0  0  0  0  0  0  0  0
   35.2790   29.5870   33.7220 H   0  0  0  0  0  0  0  0  0  0  0  0
   35.0490   28.5050   31.6050 H   0  0  0  0  0  0  0  0  0  0  0  0
   35.3090   25.2270   29.3360 H   0  0  0  0  0  0  0  0  0  0  0  0
   35.1950   25.4750   30.4030 C   0  0  0  0  0  0  0  0  0  0  0  0
   34.4280   25.1900   31.3620 O   0  0  0  0  0  0  0  0  0  0  0  0
   36.2520   26.3960   30.7480 N   0  0  0  0  0  0  0  0  0  0  0  0
   37.0530   26.8580   30.2180 H   0  0  0  0  0  0  0  0  0  0  0  0
   40.0970   22.7160   36.6690 C   0  0  0  0  0  0  0  0  0  0  0  0
   39.0590   23.0630   35.8180 C   0  0  0  0  0  0  0  0  0  0  0  0
   37.8740   23.5100   36.4060 C   0  0  0  0  0  0  0  0  0  0  0  0
   37.8020   23.5820   37.7660 N   0  0  0  0  0  0  0  0  0  0  0  0
   38.8420   23.2320   38.5590 C   0  0  0  0  0  0  0  0  0  0  0  0
   40.0040   22.7930   37.9970 N   0  0  0  0  0  0  0  0  0  0  0  0
   41.0730   22.3750   36.4150 H   0  0  0  0  0  0  0  0  0  0  0  0
   37.0430   23.7900   35.7660 H   0  0  0  0  0  0  0  0  0  0  0  0
   38.6640   23.3320   39.6210 H   0  0  0  0  0  0  0  0  0  0  0  0
  1  7  1  6  0  0  0
  1 33  1  0  0  0  0
  2  8  1  0  0  0  0
  2  1  1  0  0  0  0
  3  2  1  0  0  0  0
  3 11  1  0  0  0  0
  4 12  1  6  0  0  0
  4 17  1  0  0  0  0
  4  3  1  0  0  0  0
  4  5  1  0  0  0  0
  5  6  1  0  0  0  0
  5 13  1  0  0  0  0
  6  1  1  0  0  0  0
  6 15  1  0  0  0  0
  9  2  1  0  0  0  0
 10  3  1  0  0  0  0
 14  5  1  0  0  0  0
 16  6  1  0  0  0  0
 17 18  1  0  0  0  0
 18 19  2  0  0  0  0
 18 23  1  0  0  0  0
 19 24  1  0  0  0  0
 20 25  1  0  0  0  0
 20 19  1  0  0  0  0
 21 20  2  0  0  0  0
 22 21  1  0  0  0  0
 22 17  2  0  0  0  0
 26 21  1  0  0  0  0
 27 28  1  0  0  0  0
 28 30  1  0  0  0  0
 28 29  2  0  0  0  0
 30 22  1  0  0  0  0
 31 30  1  0  0  0  0
 32 37  1  0  0  0  0
 33 34  1  0  0  0  0
 33 32  2  0  0  0  0
 34 35  2  0  0  0  0
 35 36  1  0  0  0  0
 36 40  1  0  0  0  0
 37 36  2  0  0  0  0
 38 32  1  0  0  0  0
 39 34  1  0  0  0  0
M  END
>  <minimizedAffinity>
-4.94903278

$$$$
