
 OpenBabel03272505283D

 36 38  0  0  0  0  0  0  0  0999 V2000
   37.3640   31.0790   47.1030 N   0  0  0  0  0  0  0  0  0  0  0  0
   36.7670   30.7500   45.9270 C   0  0  0  0  0  0  0  0  0  0  0  0
   37.2340   31.2270   44.7110 C   0  0  0  0  0  0  0  0  0  0  0  0
   38.3490   32.0670   44.7210 C   0  0  0  0  0  0  0  0  0  0  0  0
   38.8050   32.5220   43.6480 O   0  0  0  0  0  0  0  0  0  0  0  0
   38.9530   32.4000   45.9190 N   0  0  0  0  0  0  0  0  0  0  0  0
   38.4120   31.8780   47.0170 C   0  0  0  0  0  0  0  0  0  0  0  0
   38.9910   32.2050   48.0730 O   0  0  0  0  0  0  0  0  0  0  0  0
   35.8990   30.0960   45.9170 H   0  0  0  0  0  0  0  0  0  0  0  0
   36.6320   30.9050   43.4320 C   0  0  0  0  0  0  0  0  0  0  0  0
   36.9340   29.7880   42.7060 C   0  0  0  0  0  0  0  0  0  0  0  0
   36.3870   29.4480   41.4940 C   0  0  0  0  0  0  0  0  0  0  0  0
   35.4380   30.3040   40.9380 C   0  0  0  0  0  0  0  0  0  0  0  0
   35.1460   31.4310   41.6890 C   0  0  0  0  0  0  0  0  0  0  0  0
   35.7170   31.7080   42.8720 N   0  0  0  0  0  0  0  0  0  0  0  0
   37.6710   29.0860   43.0970 H   0  0  0  0  0  0  0  0  0  0  0  0
   36.6400   28.5600   40.9340 H   0  0  0  0  0  0  0  0  0  0  0  0
   34.9360   30.1670   40.0110 H   0  0  0  0  0  0  0  0  0  0  0  0
   32.9890   34.1380   41.2420 H   0  0  0  0  0  0  0  0  0  0  0  0
   33.7320   33.6320   41.8510 C   0  0  0  0  0  0  0  0  0  0  0  0
   34.1770   34.0290   42.9690 O   0  0  0  0  0  0  0  0  0  0  0  0
   34.1890   32.4320   41.2760 N   0  0  0  0  0  0  0  0  0  0  0  0
   33.8790   32.0190   40.3530 H   0  0  0  0  0  0  0  0  0  0  0  0
   37.2490   29.5000   50.4600 C   0  0  0  0  0  0  0  0  0  0  0  0
   37.7280   29.9820   49.2360 C   0  0  0  0  0  0  0  0  0  0  0  0
   36.8910   30.5960   48.3250 C   0  0  0  0  0  0  0  0  0  0  0  0
   35.5890   30.7110   48.6680 N   0  0  0  0  0  0  0  0  0  0  0  0
   35.1020   30.2530   49.8460 C   0  0  0  0  0  0  0  0  0  0  0  0
   35.9390   29.6500   50.7360 N   0  0  0  0  0  0  0  0  0  0  0  0
   37.9770   29.0340   51.1090 H   0  0  0  0  0  0  0  0  0  0  0  0
   38.7650   29.8970   48.9480 H   0  0  0  0  0  0  0  0  0  0  0  0
   34.0440   30.3660   50.0860 H   0  0  0  0  0  0  0  0  0  0  0  0
   40.1040   33.2660   45.9210 C   0  0  0  0  0  0  0  0  0  0  0  0
   39.9780   34.2390   44.9830 F   0  0  0  0  0  0  0  0  0  0  0  0
   41.2930   32.6040   45.6420 F   0  0  0  0  0  0  0  0  0  0  0  0
   40.1910   33.8750   47.1670 F   0  0  0  0  0  0  0  0  0  0  0  0
  1 26  1  0  0  0  0
  2  1  1  0  0  0  0
  3  4  1  0  0  0  0
  3  2  2  0  0  0  0
  4  6  1  0  0  0  0
  5  4  2  0  0  0  0
  6 33  1  0  0  0  0
  6  7  1  0  0  0  0
  7  1  1  0  0  0  0
  7  8  2  0  0  0  0
  9  2  1  0  0  0  0
 10  3  1  0  0  0  0
 11 16  1  0  0  0  0
 11 10  2  0  0  0  0
 12 11  1  0  0  0  0
 13 12  2  0  0  0  0
 13 14  1  0  0  0  0
 14 15  2  0  0  0  0
 15 10  1  0  0  0  0
 17 12  1  0  0  0  0
 18 13  1  0  0  0  0
 19 20  1  0  0  0  0
 20 21  2  0  0  0  0
 22 14  1  0  0  0  0
 22 20  1  0  0  0  0
 23 22  1  0  0  0  0
 24 29  1  0  0  0  0
 24 30  1  0  0  0  0
 25 24  2  0  0  0  0
 26 27  2  0  0  0  0
 26 25  1  0  0  0  0
 27 28  1  0  0  0  0
 28 32  1  0  0  0  0
 28 29  2  0  0  0  0
 31 25  1  0  0  0  0
 33 36  1  0  0  0  0
 34 33  1  0  0  0  0
 35 33  1  0  0  0  0
M  END
>  <minimizedAffinity>
-6.49987078

>  <minimizedRMSD>
0.0747454315

$$$$
