
 OpenBabel03272509413D

 31 32  0  0  1  0  0  0  0  0999 V2000
   36.5230   28.6650   32.5440 C   0  0  0  0  0  0  0  0  0  0  0  0
   36.0420   29.7730   31.8290 C   0  0  0  0  0  0  0  0  0  0  0  0
   35.3970   30.8210   32.4530 C   0  0  0  0  0  0  0  0  0  0  0  0
   35.2040   30.8030   33.8380 C   0  0  0  0  0  0  0  0  0  0  0  0
   35.6770   29.7180   34.5200 C   0  0  0  0  0  0  0  0  0  0  0  0
   36.3210   28.6790   33.8760 C   0  0  0  0  0  0  0  0  0  0  0  0
   36.1760   29.8150   30.7550 H   0  0  0  0  0  0  0  0  0  0  0  0
   35.0470   31.6490   31.8510 H   0  0  0  0  0  0  0  0  0  0  0  0
   34.6930   31.6450   34.2920 H   0  0  0  0  0  0  0  0  0  0  0  0
   35.4880   29.7820   35.5870 H   0  0  0  0  0  0  0  0  0  0  0  0
   37.1870   27.6090   31.8130 C   0  0  2  0  0  3  0  0  0  0  0  0
   38.3010   27.9710   31.2660 O   0  0  0  0  0  1  0  0  0  0  0  0
   34.9320   24.9460   30.8560 C   0  0  0  0  0  0  0  0  0  0  0  0
   35.5570   23.7880   31.2950 C   0  0  0  0  0  0  0  0  0  0  0  0
   36.7860   23.9180   31.9380 C   0  0  0  0  0  0  0  0  0  0  0  0
   37.3170   25.1610   32.1060 N   0  0  0  0  0  0  0  0  0  0  0  0
   36.6900   26.2450   31.6740 C   0  0  0  0  0  0  0  0  0  0  0  0
   35.4940   26.1280   31.0470 N   0  0  0  0  0  0  0  0  0  0  0  0
   33.9720   24.8980   30.3490 H   0  0  0  0  0  0  0  0  0  0  0  0
   35.0530   22.8430   31.1130 H   0  0  0  0  0  0  0  0  0  0  0  0
   37.2720   23.0230   32.2790 H   0  0  0  0  0  0  0  0  0  0  0  0
   36.7570   27.6150   34.7570 C   0  0  0  0  0  3  0  0  0  0  0  0
   37.8840   27.5410   35.4320 C   0  0  0  0  0  3  0  0  0  0  0  0
   38.4470   26.5660   36.3550 C   0  0  0  0  0  0  0  0  0  0  0  0
   38.0290   26.7280   37.3770 H   0  0  0  0  0  0  0  0  0  0  0  0
   39.5530   26.6850   36.3630 H   0  0  0  0  0  0  0  0  0  0  0  0
   37.6770   23.4050   37.4290 H   0  0  0  0  0  0  0  0  0  0  0  0
   37.9270   24.4260   37.1950 C   0  0  0  0  0  0  0  0  0  0  0  0
   37.9840   24.6390   38.4380 O   0  0  0  0  0  0  0  0  0  0  0  0
   38.1160   25.2060   36.0150 N   0  0  0  0  0  0  0  0  0  0  0  0
   37.9530   24.5360   35.2060 H   0  0  0  0  0  0  0  0  0  0  0  0
  1  6  1  0  0  0  0
  2  3  1  0  0  0  0
  2  1  2  0  0  0  0
  3  4  2  0  0  0  0
  4  9  1  0  0  0  0
  4  5  1  0  0  0  0
  5 10  1  0  0  0  0
  6  5  2  0  0  0  0
  6 22  1  0  0  0  0
  7  2  1  0  0  0  0
  8  3  1  0  0  0  0
 11 12  1  6  0  0  0
 11  1  1  0  0  0  0
 13 18  2  0  0  0  0
 13 14  1  0  0  0  0
 14 15  2  0  0  0  0
 15 16  1  0  0  0  0
 15 21  1  0  0  0  0
 17 11  1  0  0  0  0
 17 16  2  0  0  0  0
 18 17  1  0  0  0  0
 19 13  1  0  0  0  0
 20 14  1  0  0  0  0
 22 23  2  0  0  0  0
 23 24  1  0  0  0  0
 24 26  1  0  0  0  0
 24 25  1  0  0  0  0
 28 27  1  0  0  0  0
 28 29  2  0  0  0  0
 30 24  1  0  0  0  0
 30 28  1  0  0  0  0
 31 30  1  0  0  0  0
M  END
>  <minimizedAffinity>
-5.1488409

$$$$

 OpenBabel03272509413D

 31 32  0  0  1  0  0  0  0  0999 V2000
   36.6630   22.5720   32.2810 C   0  0  0  0  0  0  0  0  0  0  0  0
   35.5460   22.0310   31.6230 C   0  0  0  0  0  0  0  0  0  0  0  0
   34.8870   20.9150   32.0990 C   0  0  0  0  0  0  0  0  0  0  0  0
   35.3250   20.2870   33.2700 C   0  0  0  0  0  0  0  0  0  0  0  0
   36.4130   20.8250   33.8980 C   0  0  0  0  0  0  0  0  0  0  0  0
   37.0580   21.9430   33.4040 C   0  0  0  0  0  0  0  0  0  0  0  0
   35.1840   22.4950   30.7140 H   0  0  0  0  0  0  0  0  0  0  0  0
   34.0330   20.5420   31.5520 H   0  0  0  0  0  0  0  0  0  0  0  0
   34.7820   19.4140   33.6130 H   0  0  0  0  0  0  0  0  0  0  0  0
   36.6860   20.2810   34.7960 H   0  0  0  0  0  0  0  0  0  0  0  0
   37.2950   23.7420   31.7140 C   0  0  2  0  0  3  0  0  0  0  0  0
   38.1980   23.4720   30.8280 O   0  0  0  0  0  1  0  0  0  0  0  0
   35.9320   27.0730   31.3450 C   0  0  0  0  0  0  0  0  0  0  0  0
   36.2820   27.7220   32.5200 C   0  0  0  0  0  0  0  0  0  0  0  0
   37.0050   27.0030   33.4680 C   0  0  0  0  0  0  0  0  0  0  0  0
   37.3350   25.7080   33.2060 N   0  0  0  0  0  0  0  0  0  0  0  0
   36.9830   25.1200   32.0720 C   0  0  0  0  0  0  0  0  0  0  0  0
   36.2790   25.8120   31.1430 N   0  0  0  0  0  0  0  0  0  0  0  0
   35.3670   27.5910   30.5740 H   0  0  0  0  0  0  0  0  0  0  0  0
   35.9710   28.7570   32.6340 H   0  0  0  0  0  0  0  0  0  0  0  0
   37.2770   27.5030   34.3780 H   0  0  0  0  0  0  0  0  0  0  0  0
   38.1890   22.3740   34.2010 C   0  0  0  0  0  3  0  0  0  0  0  0
   38.1730   22.8540   35.4260 C   0  0  0  0  0  3  0  0  0  0  0  0
   39.2050   23.3040   36.3480 C   0  0  0  0  0  0  0  0  0  0  0  0
   39.0550   24.3830   36.5860 H   0  0  0  0  0  0  0  0  0  0  0  0
   40.1980   23.1440   35.8710 H   0  0  0  0  0  0  0  0  0  0  0  0
   38.2850   23.3440   39.6480 H   0  0  0  0  0  0  0  0  0  0  0  0
   38.5330   23.4310   38.6040 C   0  0  0  0  0  0  0  0  0  0  0  0
   38.0090   24.5790   38.6300 O   0  0  0  0  0  0  0  0  0  0  0  0
   39.1700   22.6210   37.6150 N   0  0  0  0  0  0  0  0  0  0  0  0
   39.4400   21.7240   38.1190 H   0  0  0  0  0  0  0  0  0  0  0  0
  1  6  1  0  0  0  0
  2  3  1  0  0  0  0
  2  1  2  0  0  0  0
  3  4  2  0  0  0  0
  4  9  1  0  0  0  0
  4  5  1  0  0  0  0
  5 10  1  0  0  0  0
  6  5  2  0  0  0  0
  6 22  1  0  0  0  0
  7  2  1  0  0  0  0
  8  3  1  0  0  0  0
 11 12  1  1  0  0  0
 11 17  1  0  0  0  0
 11  1  1  0  0  0  0
 13 14  1  0  0  0  0
 14 20  1  0  0  0  0
 14 15  2  0  0  0  0
 15 21  1  0  0  0  0
 16 15  1  0  0  0  0
 17 16  2  0  0  0  0
 18 13  2  0  0  0  0
 18 17  1  0  0  0  0
 19 13  1  0  0  0  0
 22 23  2  0  0  0  0
 23 24  1  0  0  0  0
 24 25  1  0  0  0  0
 24 30  1  0  0  0  0
 26 24  1  0  0  0  0
 28 29  2  0  0  0  0
 28 27  1  0  0  0  0
 30 31  1  0  0  0  0
 30 28  1  0  0  0  0
M  END
>  <minimizedAffinity>
-5.08656645

$$$$

 OpenBabel03272509413D

 31 32  0  0  1  0  0  0  0  0999 V2000
   40.3130   26.6210   34.3240 C   0  0  0  0  0  0  0  0  0  0  0  0
   41.2010   27.4770   33.6530 C   0  0  0  0  0  0  0  0  0  0  0  0
   42.5230   27.1400   33.4430 C   0  0  0  0  0  0  0  0  0  0  0  0
   43.0170   25.9150   33.9030 C   0  0  0  0  0  0  0  0  0  0  0  0
   42.1410   25.0930   34.5540 C   0  0  0  0  0  0  0  0  0  0  0  0
   40.8210   25.4500   34.7530 C   0  0  0  0  0  0  0  0  0  0  0  0
   40.8480   28.4330   33.2850 H   0  0  0  0  0  0  0  0  0  0  0  0
   43.1620   27.8380   32.9200 H   0  0  0  0  0  0  0  0  0  0  0  0
   44.0600   25.6850   33.7190 H   0  0  0  0  0  0  0  0  0  0  0  0
   42.6020   24.1650   34.8770 H   0  0  0  0  0  0  0  0  0  0  0  0
   38.9450   27.0520   34.5020 C   0  0  2  0  0  3  0  0  0  0  0  0
   38.6900   27.5150   35.6820 O   0  0  0  0  0  1  0  0  0  0  0  0
   37.0610   25.7170   31.7160 C   0  0  0  0  0  0  0  0  0  0  0  0
   36.0620   26.6530   31.4930 C   0  0  0  0  0  0  0  0  0  0  0  0
   36.0290   27.7750   32.3180 C   0  0  0  0  0  0  0  0  0  0  0  0
   36.9660   27.9050   33.2970 N   0  0  0  0  0  0  0  0  0  0  0  0
   37.9060   26.9900   33.4810 C   0  0  0  0  0  0  0  0  0  0  0  0
   37.9470   25.8950   32.6820 N   0  0  0  0  0  0  0  0  0  0  0  0
   37.1310   24.8250   31.0990 H   0  0  0  0  0  0  0  0  0  0  0  0
   35.3610   26.4580   30.6860 H   0  0  0  0  0  0  0  0  0  0  0  0
   35.2560   28.5010   32.1480 H   0  0  0  0  0  0  0  0  0  0  0  0
   40.0380   24.4560   35.4600 C   0  0  0  0  0  3  0  0  0  0  0  0
   40.4740   23.3700   36.0610 C   0  0  0  0  0  3  0  0  0  0  0  0
   39.8290   22.3050   36.8150 C   0  0  0  0  0  0  0  0  0  0  0  0
   40.4140   21.3610   36.7120 H   0  0  0  0  0  0  0  0  0  0  0  0
   38.7970   22.1690   36.4210 H   0  0  0  0  0  0  0  0  0  0  0  0
   38.1050   23.6530   39.4510 H   0  0  0  0  0  0  0  0  0  0  0  0
   38.5670   23.2640   38.5590 C   0  0  0  0  0  0  0  0  0  0  0  0
   37.5690   23.6980   37.9190 O   0  0  0  0  0  0  0  0  0  0  0  0
   39.7680   22.5680   38.2300 N   0  0  0  0  0  0  0  0  0  0  0  0
   40.2830   22.4430   39.1520 H   0  0  0  0  0  0  0  0  0  0  0  0
  1 11  1  0  0  0  0
  1  6  1  0  0  0  0
  2  1  2  0  0  0  0
  3  2  1  0  0  0  0
  3  4  2  0  0  0  0
  4  5  1  0  0  0  0
  5  6  2  0  0  0  0
  5 10  1  0  0  0  0
  6 22  1  0  0  0  0
  7  2  1  0  0  0  0
  8  3  1  0  0  0  0
  9  4  1  0  0  0  0
 11 12  1  1  0  0  0
 13 18  1  0  0  0  0
 14 13  2  0  0  0  0
 14 15  1  0  0  0  0
 15 16  2  0  0  0  0
 16 17  1  0  0  0  0
 17 11  1  0  0  0  0
 18 17  2  0  0  0  0
 19 13  1  0  0  0  0
 20 14  1  0  0  0  0
 21 15  1  0  0  0  0
 22 23  2  0  0  0  0
 23 24  1  0  0  0  0
 24 30  1  0  0  0  0
 25 24  1  0  0  0  0
 26 24  1  0  0  0  0
 28 27  1  0  0  0  0
 29 28  2  0  0  0  0
 30 28  1  0  0  0  0
 30 31  1  0  0  0  0
M  END
>  <minimizedAffinity>
-4.92964411

$$$$

 OpenBabel03272509413D

 31 32  0  0  1  0  0  0  0  0999 V2000
   37.6650   25.7200   33.4040 C   0  0  0  0  0  0  0  0  0  0  0  0
   36.9860   26.7100   32.6750 C   0  0  0  0  0  0  0  0  0  0  0  0
   36.5730   27.8910   33.2570 C   0  0  0  0  0  0  0  0  0  0  0  0
   36.8270   28.1340   34.6110 C   0  0  0  0  0  0  0  0  0  0  0  0
   37.4870   27.1620   35.3070 C   0  0  0  0  0  0  0  0  0  0  0  0
   37.8930   25.9860   34.7050 C   0  0  0  0  0  0  0  0  0  0  0  0
   36.7750   26.5500   31.6250 H   0  0  0  0  0  0  0  0  0  0  0  0
   36.0540   28.6180   32.6470 H   0  0  0  0  0  0  0  0  0  0  0  0
   36.4870   29.0730   35.0320 H   0  0  0  0  0  0  0  0  0  0  0  0
   37.6440   27.4280   36.3470 H   0  0  0  0  0  0  0  0  0  0  0  0
   38.0630   24.5110   32.7180 C   0  0  2  0  0  3  0  0  0  0  0  0
   39.2230   24.5860   32.1530 O   0  0  0  0  0  1  0  0  0  0  0  0
   35.6220   22.1830   31.4100 C   0  0  0  0  0  0  0  0  0  0  0  0
   35.6680   21.1050   32.2820 C   0  0  0  0  0  0  0  0  0  0  0  0
   36.5590   21.1740   33.3500 C   0  0  0  0  0  0  0  0  0  0  0  0
   37.3390   22.2810   33.4920 N   0  0  0  0  0  0  0  0  0  0  0  0
   37.2670   23.2920   32.6390 C   0  0  0  0  0  0  0  0  0  0  0  0
   36.4020   23.2350   31.5960 N   0  0  0  0  0  0  0  0  0  0  0  0
   34.9430   22.1780   30.5610 H   0  0  0  0  0  0  0  0  0  0  0  0
   35.0060   20.2670   32.0820 H   0  0  0  0  0  0  0  0  0  0  0  0
   36.5970   20.3410   34.0270 H   0  0  0  0  0  0  0  0  0  0  0  0
   38.5820   25.0710   35.5940 C   0  0  0  0  0  3  0  0  0  0  0  0
   38.0520   24.2960   36.5150 C   0  0  0  0  0  3  0  0  0  0  0  0
   38.5970   23.3280   37.4560 C   0  0  0  0  0  0  0  0  0  0  0  0
   37.8080   23.0220   38.1830 H   0  0  0  0  0  0  0  0  0  0  0  0
   39.4550   23.7970   37.9880 H   0  0  0  0  0  0  0  0  0  0  0  0
   41.2080   21.3450   36.4620 H   0  0  0  0  0  0  0  0  0  0  0  0
   40.4610   22.0380   36.8100 C   0  0  0  0  0  0  0  0  0  0  0  0
   41.4070   22.7750   37.2050 O   0  0  0  0  0  0  0  0  0  0  0  0
   39.0350   22.1100   36.8260 N   0  0  0  0  0  0  0  0  0  0  0  0
   38.7040   21.2160   36.3550 H   0  0  0  0  0  0  0  0  0  0  0  0
  1  6  1  0  0  0  0
  2  3  1  0  0  0  0
  2  1  2  0  0  0  0
  3  4  2  0  0  0  0
  4  9  1  0  0  0  0
  4  5  1  0  0  0  0
  5 10  1  0  0  0  0
  6  5  2  0  0  0  0
  6 22  1  0  0  0  0
  7  2  1  0  0  0  0
  8  3  1  0  0  0  0
 11 12  1  6  0  0  0
 11  1  1  0  0  0  0
 13 18  2  0  0  0  0
 13 14  1  0  0  0  0
 14 15  2  0  0  0  0
 15 16  1  0  0  0  0
 15 21  1  0  0  0  0
 17 11  1  0  0  0  0
 17 16  2  0  0  0  0
 18 17  1  0  0  0  0
 19 13  1  0  0  0  0
 20 14  1  0  0  0  0
 22 23  2  0  0  0  0
 23 24  1  0  0  0  0
 24 26  1  0  0  0  0
 24 25  1  0  0  0  0
 27 28  1  0  0  0  0
 28 30  1  0  0  0  0
 28 29  2  0  0  0  0
 30 24  1  0  0  0  0
 31 30  1  0  0  0  0
M  END
>  <minimizedAffinity>
-4.86745358

$$$$

 OpenBabel03272509413D

 31 32  0  0  1  0  0  0  0  0999 V2000
   37.0160   21.6660   33.2840 C   0  0  0  0  0  0  0  0  0  0  0  0
   36.3160   20.5410   33.7490 C   0  0  0  0  0  0  0  0  0  0  0  0
   35.2160   20.0390   33.0840 C   0  0  0  0  0  0  0  0  0  0  0  0
   34.7650   20.6510   31.9100 C   0  0  0  0  0  0  0  0  0  0  0  0
   35.4560   21.7450   31.4710 C   0  0  0  0  0  0  0  0  0  0  0  0
   36.5560   22.2310   32.1520 C   0  0  0  0  0  0  0  0  0  0  0  0
   36.6410   20.0450   34.6560 H   0  0  0  0  0  0  0  0  0  0  0  0
   34.7160   19.1690   33.4880 H   0  0  0  0  0  0  0  0  0  0  0  0
   33.8980   20.2280   31.4160 H   0  0  0  0  0  0  0  0  0  0  0  0
   35.0430   22.1590   30.5570 H   0  0  0  0  0  0  0  0  0  0  0  0
   38.1580   22.1270   34.0420 C   0  0  1  0  0  3  0  0  0  0  0  0
   39.2800   21.6000   33.6730 O   0  0  0  0  0  1  0  0  0  0  0  0
   37.8660   23.3330   37.4400 C   0  0  0  0  0  0  0  0  0  0  0  0
   37.9770   24.7120   37.3300 C   0  0  0  0  0  0  0  0  0  0  0  0
   38.1580   25.2480   36.0570 C   0  0  0  0  0  0  0  0  0  0  0  0
   38.2170   24.4070   34.9870 N   0  0  0  0  0  0  0  0  0  0  0  0
   38.1060   23.0950   35.1310 C   0  0  0  0  0  0  0  0  0  0  0  0
   37.9300   22.5640   36.3660 N   0  0  0  0  0  0  0  0  0  0  0  0
   37.7240   22.8660   38.4120 H   0  0  0  0  0  0  0  0  0  0  0  0
   37.9180   25.2960   38.2440 H   0  0  0  0  0  0  0  0  0  0  0  0
   38.2450   26.3140   35.9690 H   0  0  0  0  0  0  0  0  0  0  0  0
   37.1640   23.3960   31.5410 C   0  0  0  0  0  3  0  0  0  0  0  0
   36.7310   24.6370   31.5700 C   0  0  0  0  0  3  0  0  0  0  0  0
   37.2290   25.8940   31.0320 C   0  0  0  0  0  0  0  0  0  0  0  0
   37.8610   25.6980   30.1340 H   0  0  0  0  0  0  0  0  0  0  0  0
   37.8230   26.4060   31.8220 H   0  0  0  0  0  0  0  0  0  0  0  0
   35.1510   28.5320   31.7130 H   0  0  0  0  0  0  0  0  0  0  0  0
   35.8420   27.7150   31.5990 C   0  0  0  0  0  0  0  0  0  0  0  0
   36.2320   27.9510   32.7760 O   0  0  0  0  0  0  0  0  0  0  0  0
   36.1810   26.7730   30.5810 N   0  0  0  0  0  0  0  0  0  0  0  0
   35.5420   27.0030   29.7620 H   0  0  0  0  0  0  0  0  0  0  0  0
  1  2  1  0  0  0  0
  1 11  1  0  0  0  0
  2  7  1  0  0  0  0
  3  8  1  0  0  0  0
  3  2  2  0  0  0  0
  4  3  1  0  0  0  0
  5  4  2  0  0  0  0
  5  6  1  0  0  0  0
  6  1  2  0  0  0  0
  9  4  1  0  0  0  0
 10  5  1  0  0  0  0
 11 12  1  6  0  0  0
 11 17  1  0  0  0  0
 13 19  1  0  0  0  0
 14 13  1  0  0  0  0
 14 20  1  0  0  0  0
 15 14  2  0  0  0  0
 16 17  2  0  0  0  0
 16 15  1  0  0  0  0
 17 18  1  0  0  0  0
 18 13  2  0  0  0  0
 21 15  1  0  0  0  0
 22 23  2  0  0  0  0
 22  6  1  0  0  0  0
 24 23  1  0  0  0  0
 24 26  1  0  0  0  0
 25 24  1  0  0  0  0
 28 27  1  0  0  0  0
 28 29  2  0  0  0  0
 30 24  1  0  0  0  0
 30 28  1  0  0  0  0
 31 30  1  0  0  0  0
M  END
>  <minimizedAffinity>
-4.85011768

$$$$

 OpenBabel03272509413D

 31 32  0  0  1  0  0  0  0  0999 V2000
   37.6650   22.1970   33.3590 C   0  0  0  0  0  0  0  0  0  0  0  0
   36.9270   21.0160   33.1790 C   0  0  0  0  0  0  0  0  0  0  0  0
   35.8460   20.9530   32.3230 C   0  0  0  0  0  0  0  0  0  0  0  0
   35.4540   22.0860   31.6030 C   0  0  0  0  0  0  0  0  0  0  0  0
   36.1800   23.2270   31.7890 C   0  0  0  0  0  0  0  0  0  0  0  0
   37.2610   23.2680   32.6500 C   0  0  0  0  0  0  0  0  0  0  0  0
   37.2070   20.1220   33.7230 H   0  0  0  0  0  0  0  0  0  0  0  0
   35.3150   20.0160   32.2230 H   0  0  0  0  0  0  0  0  0  0  0  0
   34.6000   21.9970   30.9410 H   0  0  0  0  0  0  0  0  0  0  0  0
   35.8120   24.0570   31.1950 H   0  0  0  0  0  0  0  0  0  0  0  0
   38.7830   22.1770   34.2750 C   0  0  2  0  0  3  0  0  0  0  0  0
   39.8740   21.7100   33.7610 O   0  0  0  0  0  1  0  0  0  0  0  0
   39.9330   22.6970   37.6660 C   0  0  0  0  0  0  0  0  0  0  0  0
   38.8910   23.3730   38.2850 C   0  0  0  0  0  0  0  0  0  0  0  0
   37.7610   23.6620   37.5230 C   0  0  0  0  0  0  0  0  0  0  0  0
   37.7260   23.2730   36.2180 N   0  0  0  0  0  0  0  0  0  0  0  0
   38.7400   22.6280   35.6610 C   0  0  0  0  0  0  0  0  0  0  0  0
   39.8440   22.3430   36.3940 N   0  0  0  0  0  0  0  0  0  0  0  0
   40.8360   22.4490   38.2180 H   0  0  0  0  0  0  0  0  0  0  0  0
   39.0160   23.6410   39.3300 H   0  0  0  0  0  0  0  0  0  0  0  0
   36.9540   24.1850   37.9990 H   0  0  0  0  0  0  0  0  0  0  0  0
   37.9130   24.5610   32.7210 C   0  0  0  0  0  3  0  0  0  0  0  0
   37.4730   25.6520   33.3090 C   0  0  0  0  0  3  0  0  0  0  0  0
   38.0100   26.9940   33.4800 C   0  0  0  0  0  0  0  0  0  0  0  0
   37.3640   27.5730   34.1810 H   0  0  0  0  0  0  0  0  0  0  0  0
   38.0460   27.4890   32.4840 H   0  0  0  0  0  0  0  0  0  0  0  0
   39.9270   26.9750   36.3200 H   0  0  0  0  0  0  0  0  0  0  0  0
   39.2380   26.9800   35.4920 C   0  0  0  0  0  0  0  0  0  0  0  0
   38.3030   26.9490   36.3400 O   0  0  0  0  0  0  0  0  0  0  0  0
   39.3250   27.0080   34.0670 N   0  0  0  0  0  0  0  0  0  0  0  0
   40.3650   27.0330   33.8500 H   0  0  0  0  0  0  0  0  0  0  0  0
  1 11  1  0  0  0  0
  2  1  1  0  0  0  0
  2  7  1  0  0  0  0
  3  2  2  0  0  0  0
  4  5  2  0  0  0  0
  4  3  1  0  0  0  0
  5  6  1  0  0  0  0
  6 22  1  0  0  0  0
  6  1  2  0  0  0  0
  8  3  1  0  0  0  0
  9  4  1  0  0  0  0
 10  5  1  0  0  0  0
 11 12  1  1  0  0  0
 11 17  1  0  0  0  0
 13 19  1  0  0  0  0
 13 14  1  0  0  0  0
 14 20  1  0  0  0  0
 15 21  1  0  0  0  0
 15 14  2  0  0  0  0
 16 15  1  0  0  0  0
 17 16  2  0  0  0  0
 17 18  1  0  0  0  0
 18 13  2  0  0  0  0
 22 23  2  0  0  0  0
 23 24  1  0  0  0  0
 24 30  1  0  0  0  0
 24 25  1  0  0  0  0
 26 24  1  0  0  0  0
 28 27  1  0  0  0  0
 28 29  2  0  0  0  0
 30 28  1  0  0  0  0
 31 30  1  0  0  0  0
M  END
>  <minimizedAffinity>
-4.80521107

$$$$

 OpenBabel03272509413D

 31 32  0  0  1  0  0  0  0  0999 V2000
   37.3990   27.4730   33.0350 C   0  0  0  0  0  0  0  0  0  0  0  0
   38.6070   26.7570   33.0570 C   0  0  0  0  0  0  0  0  0  0  0  0
   39.3330   26.5870   34.2180 C   0  0  0  0  0  0  0  0  0  0  0  0
   38.8750   27.1350   35.4210 C   0  0  0  0  0  0  0  0  0  0  0  0
   37.6990   27.8290   35.3820 C   0  0  0  0  0  0  0  0  0  0  0  0
   36.9860   27.9870   34.2090 C   0  0  0  0  0  0  0  0  0  0  0  0
   38.9880   26.3210   32.1420 H   0  0  0  0  0  0  0  0  0  0  0  0
   40.2570   26.0260   34.1770 H   0  0  0  0  0  0  0  0  0  0  0  0
   39.4730   26.9810   36.3110 H   0  0  0  0  0  0  0  0  0  0  0  0
   37.4140   28.2200   36.3540 H   0  0  0  0  0  0  0  0  0  0  0  0
   36.7000   27.6040   31.7760 C   0  0  2  0  0  3  0  0  0  0  0  0
   35.8320   26.6710   31.5580 O   0  0  0  0  0  1  0  0  0  0  0  0
   37.7740   29.1550   28.6890 C   0  0  0  0  0  0  0  0  0  0  0  0
   37.4270   30.4910   28.8320 C   0  0  0  0  0  0  0  0  0  0  0  0
   36.8060   30.8750   30.0190 C   0  0  0  0  0  0  0  0  0  0  0  0
   36.5690   29.9360   30.9760 N   0  0  0  0  0  0  0  0  0  0  0  0
   36.9160   28.6690   30.8040 C   0  0  0  0  0  0  0  0  0  0  0  0
   37.5200   28.2860   29.6530 N   0  0  0  0  0  0  0  0  0  0  0  0
   38.2600   28.8050   27.7820 H   0  0  0  0  0  0  0  0  0  0  0  0
   37.6570   31.1620   28.0100 H   0  0  0  0  0  0  0  0  0  0  0  0
   36.5360   31.9080   30.1330 H   0  0  0  0  0  0  0  0  0  0  0  0
   35.7620   28.7490   34.3570 C   0  0  0  0  0  3  0  0  0  0  0  0
   35.6270   29.9650   34.8410 C   0  0  0  0  0  3  0  0  0  0  0  0
   34.4920   30.8550   35.0340 C   0  0  0  0  0  0  0  0  0  0  0  0
   34.3630   31.5030   34.1350 H   0  0  0  0  0  0  0  0  0  0  0  0
   34.6800   31.4770   35.9380 H   0  0  0  0  0  0  0  0  0  0  0  0
   31.7120   30.2550   36.9440 H   0  0  0  0  0  0  0  0  0  0  0  0
   32.6190   30.5090   36.4220 C   0  0  0  0  0  0  0  0  0  0  0  0
   32.8980   31.2690   37.3900 O   0  0  0  0  0  0  0  0  0  0  0  0
   33.2430   30.1560   35.1880 N   0  0  0  0  0  0  0  0  0  0  0  0
   32.5830   29.4590   34.7290 H   0  0  0  0  0  0  0  0  0  0  0  0
  1  2  2  0  0  0  0
  1  6  1  0  0  0  0
  2  3  1  0  0  0  0
  3  4  2  0  0  0  0
  4  9  1  0  0  0  0
  5  4  1  0  0  0  0
  5 10  1  0  0  0  0
  6 22  1  0  0  0  0
  6  5  2  0  0  0  0
  7  2  1  0  0  0  0
  8  3  1  0  0  0  0
 11 12  1  6  0  0  0
 11  1  1  0  0  0  0
 13 14  2  0  0  0  0
 13 18  1  0  0  0  0
 14 15  1  0  0  0  0
 15 21  1  0  0  0  0
 15 16  2  0  0  0  0
 17 16  1  0  0  0  0
 17 11  1  0  0  0  0
 18 17  2  0  0  0  0
 19 13  1  0  0  0  0
 20 14  1  0  0  0  0
 22 23  2  0  0  0  0
 23 24  1  0  0  0  0
 24 30  1  0  0  0  0
 24 26  1  0  0  0  0
 25 24  1  0  0  0  0
 28 27  1  0  0  0  0
 28 29  2  0  0  0  0
 30 28  1  0  0  0  0
 31 30  1  0  0  0  0
M  END
>  <minimizedAffinity>
-4.67630529

$$$$

 OpenBabel03272509413D

 31 32  0  0  1  0  0  0  0  0999 V2000
   37.4690   22.8140   33.0100 C   0  0  0  0  0  0  0  0  0  0  0  0
   37.2190   21.5620   33.5940 C   0  0  0  0  0  0  0  0  0  0  0  0
   36.1300   20.7940   33.2370 C   0  0  0  0  0  0  0  0  0  0  0  0
   35.2330   21.2540   32.2670 C   0  0  0  0  0  0  0  0  0  0  0  0
   35.4900   22.4750   31.7080 C   0  0  0  0  0  0  0  0  0  0  0  0
   36.5880   23.2270   32.0800 C   0  0  0  0  0  0  0  0  0  0  0  0
   37.8960   21.1780   34.3490 H   0  0  0  0  0  0  0  0  0  0  0  0
   35.9870   19.8370   33.7200 H   0  0  0  0  0  0  0  0  0  0  0  0
   34.3900   20.6230   32.0130 H   0  0  0  0  0  0  0  0  0  0  0  0
   34.7500   22.7570   30.9670 H   0  0  0  0  0  0  0  0  0  0  0  0
   38.6340   23.5550   33.4420 C   0  0  2  0  0  3  0  0  0  0  0  0
   39.7480   23.1060   32.9640 O   0  0  0  0  0  1  0  0  0  0  0  0
   39.1260   26.9770   34.5090 C   0  0  0  0  0  0  0  0  0  0  0  0
   38.6690   27.0010   35.8180 C   0  0  0  0  0  0  0  0  0  0  0  0
   38.1760   25.8140   36.3550 C   0  0  0  0  0  0  0  0  0  0  0  0
   38.1640   24.6930   35.5820 N   0  0  0  0  0  0  0  0  0  0  0  0
   38.6110   24.7070   34.3350 C   0  0  0  0  0  0  0  0  0  0  0  0
   39.0920   25.8580   33.8040 N   0  0  0  0  0  0  0  0  0  0  0  0
   39.5210   27.8770   34.0440 H   0  0  0  0  0  0  0  0  0  0  0  0
   38.7200   27.9460   36.3520 H   0  0  0  0  0  0  0  0  0  0  0  0
   37.8210   25.8300   37.3680 H   0  0  0  0  0  0  0  0  0  0  0  0
   36.7020   24.4930   31.3830 C   0  0  0  0  0  3  0  0  0  0  0  0
   35.9660   25.5710   31.5480 C   0  0  0  0  0  3  0  0  0  0  0  0
   35.9690   26.8970   30.9500 C   0  0  0  0  0  0  0  0  0  0  0  0
   36.0630   27.6720   31.7470 H   0  0  0  0  0  0  0  0  0  0  0  0
   35.0200   27.0330   30.3850 H   0  0  0  0  0  0  0  0  0  0  0  0
   37.8250   29.1100   29.1070 H   0  0  0  0  0  0  0  0  0  0  0  0
   37.1800   28.4980   29.7130 C   0  0  0  0  0  0  0  0  0  0  0  0
   36.5300   29.5460   29.9830 O   0  0  0  0  0  0  0  0  0  0  0  0
   37.0850   27.1180   30.0660 N   0  0  0  0  0  0  0  0  0  0  0  0
   37.8900   26.6430   29.5580 H   0  0  0  0  0  0  0  0  0  0  0  0
  1 11  1  0  0  0  0
  1  2  1  0  0  0  0
  2  7  1  0  0  0  0
  3  2  2  0  0  0  0
  3  8  1  0  0  0  0
  4  3  1  0  0  0  0
  5  6  1  0  0  0  0
  5  4  2  0  0  0  0
  6  1  2  0  0  0  0
  9  4  1  0  0  0  0
 10  5  1  0  0  0  0
 11 12  1  1  0  0  0
 11 17  1  0  0  0  0
 13 14  1  0  0  0  0
 14 20  1  0  0  0  0
 14 15  2  0  0  0  0
 15 21  1  0  0  0  0
 16 15  1  0  0  0  0
 17 16  2  0  0  0  0
 18 17  1  0  0  0  0
 18 13  2  0  0  0  0
 19 13  1  0  0  0  0
 22 23  2  0  0  0  0
 22  6  1  0  0  0  0
 24 23  1  0  0  0  0
 24 25  1  0  0  0  0
 26 24  1  0  0  0  0
 27 28  1  0  0  0  0
 28 29  2  0  0  0  0
 28 30  1  0  0  0  0
 30 24  1  0  0  0  0
 31 30  1  0  0  0  0
M  END
>  <minimizedAffinity>
-4.6682601

$$$$

 OpenBabel03272509413D

 31 32  0  0  1  0  0  0  0  0999 V2000
   36.6880   28.8780   31.5980 C   0  0  0  0  0  0  0  0  0  0  0  0
   37.3770   28.9600   30.3780 C   0  0  0  0  0  0  0  0  0  0  0  0
   37.3590   30.1030   29.6040 C   0  0  0  0  0  0  0  0  0  0  0  0
   36.6410   31.2260   30.0260 C   0  0  0  0  0  0  0  0  0  0  0  0
   35.9750   31.1310   31.2150 C   0  0  0  0  0  0  0  0  0  0  0  0
   36.0070   29.9770   31.9760 C   0  0  0  0  0  0  0  0  0  0  0  0
   37.9420   28.1060   30.0240 H   0  0  0  0  0  0  0  0  0  0  0  0
   37.9090   30.1090   28.6720 H   0  0  0  0  0  0  0  0  0  0  0  0
   36.6510   32.1050   29.3920 H   0  0  0  0  0  0  0  0  0  0  0  0
   35.4450   32.0430   31.4700 H   0  0  0  0  0  0  0  0  0  0  0  0
   36.7580   27.6430   32.3470 C   0  0  2  0  0  3  0  0  0  0  0  0
   35.9640   26.7210   31.9120 O   0  0  0  0  0  1  0  0  0  0  0  0
   39.8110   26.9070   34.1440 C   0  0  0  0  0  0  0  0  0  0  0  0
   39.4400   26.9300   35.4810 C   0  0  0  0  0  0  0  0  0  0  0  0
   38.1080   27.2050   35.7800 C   0  0  0  0  0  0  0  0  0  0  0  0
   37.2350   27.4370   34.7600 N   0  0  0  0  0  0  0  0  0  0  0  0
   37.6250   27.4070   33.4950 C   0  0  0  0  0  0  0  0  0  0  0  0
   38.9200   27.1400   33.1940 N   0  0  0  0  0  0  0  0  0  0  0  0
   40.8390   26.6970   33.8590 H   0  0  0  0  0  0  0  0  0  0  0  0
   40.2110   26.7320   36.2200 H   0  0  0  0  0  0  0  0  0  0  0  0
   37.8180   27.2230   36.8140 H   0  0  0  0  0  0  0  0  0  0  0  0
   35.2460   30.0570   33.2070 C   0  0  0  0  0  3  0  0  0  0  0  0
   35.4770   30.8330   34.2440 C   0  0  0  0  0  3  0  0  0  0  0  0
   34.8070   31.0380   35.5200 C   0  0  0  0  0  0  0  0  0  0  0  0
   34.6610   30.0590   36.0330 H   0  0  0  0  0  0  0  0  0  0  0  0
   33.8270   31.5280   35.3290 H   0  0  0  0  0  0  0  0  0  0  0  0
   34.8160   33.3800   38.0210 H   0  0  0  0  0  0  0  0  0  0  0  0
   34.7060   32.6530   37.2340 C   0  0  0  0  0  0  0  0  0  0  0  0
   33.4590   32.8310   37.3190 O   0  0  0  0  0  0  0  0  0  0  0  0
   35.5710   31.8430   36.4380 N   0  0  0  0  0  0  0  0  0  0  0  0
   36.5550   32.0770   36.7660 H   0  0  0  0  0  0  0  0  0  0  0  0
  1  6  1  0  0  0  0
  1 11  1  0  0  0  0
  2  1  2  0  0  0  0
  3  4  2  0  0  0  0
  3  2  1  0  0  0  0
  4  5  1  0  0  0  0
  5 10  1  0  0  0  0
  5  6  2  0  0  0  0
  6 22  1  0  0  0  0
  7  2  1  0  0  0  0
  8  3  1  0  0  0  0
  9  4  1  0  0  0  0
 11 12  1  1  0  0  0
 11 17  1  0  0  0  0
 13 14  1  0  0  0  0
 14 15  2  0  0  0  0
 14 20  1  0  0  0  0
 15 21  1  0  0  0  0
 16 15  1  0  0  0  0
 17 16  2  0  0  0  0
 18 17  1  0  0  0  0
 18 13  2  0  0  0  0
 19 13  1  0  0  0  0
 22 23  2  0  0  0  0
 23 24  1  0  0  0  0
 24 25  1  0  0  0  0
 24 30  1  0  0  0  0
 26 24  1  0  0  0  0
 28 29  2  0  0  0  0
 28 27  1  0  0  0  0
 30 31  1  0  0  0  0
 30 28  1  0  0  0  0
M  END
>  <minimizedAffinity>
-4.64279413

$$$$
