
 OpenBabel03272506073D

 26 27  0  0  0  0  0  0  0  0999 V2000
   37.7600   27.6100   35.3320 C   0  0  0  0  0  0  0  0  0  0  0  0
   37.8590   28.6450   35.6980 H   0  0  0  0  0  0  0  0  0  0  0  0
   37.1380   27.0620   36.0730 H   0  0  0  0  0  0  0  0  0  0  0  0
   37.0860   27.5720   33.9870 C   0  0  0  0  0  0  0  0  0  0  0  0
   36.1020   28.5930   33.6950 C   0  0  0  0  0  0  0  0  0  0  0  0
   35.6050   28.1360   32.0550 S   0  0  0  0  0  0  0  0  0  0  0  0
   36.7600   26.6610   31.9750 C   0  0  0  0  0  0  0  0  0  0  0  0
   37.2990   26.6930   33.0400 N   0  0  0  0  0  0  0  0  0  0  0  0
   35.7930   29.3900   34.3360 H   0  0  0  0  0  0  0  0  0  0  0  0
   36.1800   23.6520   30.2820 H   0  0  0  0  0  0  0  0  0  0  0  0
   36.2120   24.5190   30.9280 C   0  0  0  0  0  0  0  0  0  0  0  0
   35.3360   23.6970   31.3040 O   0  0  0  0  0  0  0  0  0  0  0  0
   36.9990   25.6850   30.9270 N   0  0  0  0  0  0  0  0  0  0  0  0
   37.6760   25.7050   30.1510 H   0  0  0  0  0  0  0  0  0  0  0  0
   39.1280   26.9980   35.2590 C   0  0  0  0  0  0  0  0  0  0  0  0
   39.4390   26.9700   34.1990 H   0  0  0  0  0  0  0  0  0  0  0  0
   39.8610   27.5750   35.8540 H   0  0  0  0  0  0  0  0  0  0  0  0
   39.8490   23.3860   35.7710 C   0  0  0  0  0  0  0  0  0  0  0  0
   38.8720   23.0040   36.6880 C   0  0  0  0  0  0  0  0  0  0  0  0
   37.9730   23.9820   37.1250 C   0  0  0  0  0  0  0  0  0  0  0  0
   38.0950   25.2430   36.6410 N   0  0  0  0  0  0  0  0  0  0  0  0
   39.0680   25.5610   35.7480 C   0  0  0  0  0  0  0  0  0  0  0  0
   39.9400   24.6530   35.3110 N   0  0  0  0  0  0  0  0  0  0  0  0
   40.5370   22.6260   35.4400 H   0  0  0  0  0  0  0  0  0  0  0  0
   38.7680   22.0020   37.0780 H   0  0  0  0  0  0  0  0  0  0  0  0
   37.1770   23.8030   37.8310 H   0  0  0  0  0  0  0  0  0  0  0  0
  1  2  1  0  0  0  0
  1  3  1  0  0  0  0
  4  1  1  0  0  0  0
  5  4  2  0  0  0  0
  5  9  1  0  0  0  0
  6  5  1  0  0  0  0
  7  6  1  0  0  0  0
  7  8  2  0  0  0  0
  8  4  1  0  0  0  0
 10 11  1  0  0  0  0
 11 12  2  0  0  0  0
 13 11  1  0  0  0  0
 13  7  1  0  0  0  0
 14 13  1  0  0  0  0
 15  1  1  0  0  0  0
 15 22  1  0  0  0  0
 15 17  1  0  0  0  0
 16 15  1  0  0  0  0
 18 19  1  0  0  0  0
 19 25  1  0  0  0  0
 19 20  2  0  0  0  0
 20 26  1  0  0  0  0
 21 20  1  0  0  0  0
 22 21  2  0  0  0  0
 23 22  1  0  0  0  0
 23 18  2  0  0  0  0
 24 18  1  0  0  0  0
M  END
>  <minimizedAffinity>
-4.39472818

$$$$

 OpenBabel03272506073D

 26 27  0  0  0  0  0  0  0  0999 V2000
   36.0830   28.7100   34.2510 C   0  0  0  0  0  0  0  0  0  0  0  0
   35.3940   28.1340   34.8880 H   0  0  0  0  0  0  0  0  0  0  0  0
   36.9720   28.9550   34.8730 H   0  0  0  0  0  0  0  0  0  0  0  0
   36.5170   27.9060   33.0550 C   0  0  0  0  0  0  0  0  0  0  0  0
   37.0990   26.6020   33.2920 C   0  0  0  0  0  0  0  0  0  0  0  0
   37.4400   26.0700   31.6340 S   0  0  0  0  0  0  0  0  0  0  0  0
   36.7700   27.6370   30.8530 C   0  0  0  0  0  0  0  0  0  0  0  0
   36.4230   28.2740   31.8010 N   0  0  0  0  0  0  0  0  0  0  0  0
   37.2590   26.1320   34.2370 H   0  0  0  0  0  0  0  0  0  0  0  0
   37.9300   29.1620   27.9220 H   0  0  0  0  0  0  0  0  0  0  0  0
   37.7480   28.7490   28.9050 C   0  0  0  0  0  0  0  0  0  0  0  0
   38.8750   29.3070   28.8410 O   0  0  0  0  0  0  0  0  0  0  0  0
   36.6640   28.0470   29.4650 N   0  0  0  0  0  0  0  0  0  0  0  0
   35.8970   27.9040   28.7930 H   0  0  0  0  0  0  0  0  0  0  0  0
   35.3940   29.9720   33.8230 C   0  0  0  0  0  0  0  0  0  0  0  0
   36.1550   30.6600   33.4110 H   0  0  0  0  0  0  0  0  0  0  0  0
   34.6150   29.7710   33.0650 H   0  0  0  0  0  0  0  0  0  0  0  0
   34.9310   32.0440   36.8780 C   0  0  0  0  0  0  0  0  0  0  0  0
   33.5920   31.8280   37.1950 C   0  0  0  0  0  0  0  0  0  0  0  0
   32.8570   30.9760   36.3650 C   0  0  0  0  0  0  0  0  0  0  0  0
   33.4750   30.4080   35.3010 N   0  0  0  0  0  0  0  0  0  0  0  0
   34.7850   30.6540   35.0370 C   0  0  0  0  0  0  0  0  0  0  0  0
   35.5150   31.4590   35.8080 N   0  0  0  0  0  0  0  0  0  0  0  0
   35.4900   32.7000   37.5230 H   0  0  0  0  0  0  0  0  0  0  0  0
   33.0920   32.2760   38.0410 H   0  0  0  0  0  0  0  0  0  0  0  0
   31.8150   30.7360   36.5130 H   0  0  0  0  0  0  0  0  0  0  0  0
  1  3  1  0  0  0  0
  1  2  1  0  0  0  0
  4  5  2  0  0  0  0
  4  1  1  0  0  0  0
  5  9  1  0  0  0  0
  6  5  1  0  0  0  0
  7  6  1  0  0  0  0
  7  8  2  0  0  0  0
  8  4  1  0  0  0  0
 10 11  1  0  0  0  0
 11 13  1  0  0  0  0
 12 11  2  0  0  0  0
 13  7  1  0  0  0  0
 14 13  1  0  0  0  0
 15  1  1  0  0  0  0
 15 22  1  0  0  0  0
 16 15  1  0  0  0  0
 17 15  1  0  0  0  0
 18 19  1  0  0  0  0
 18 24  1  0  0  0  0
 19 25  1  0  0  0  0
 20 26  1  0  0  0  0
 20 19  2  0  0  0  0
 21 20  1  0  0  0  0
 22 21  2  0  0  0  0
 22 23  1  0  0  0  0
 23 18  2  0  0  0  0
M  END
>  <minimizedAffinity>
-4.28564835

$$$$

 OpenBabel03272506073D

 26 27  0  0  0  0  0  0  0  0999 V2000
   38.4220   25.7620   34.1960 C   0  0  0  0  0  0  0  0  0  0  0  0
   39.3350   25.1460   34.2200 H   0  0  0  0  0  0  0  0  0  0  0  0
   38.7470   26.8150   34.0430 H   0  0  0  0  0  0  0  0  0  0  0  0
   37.5180   25.3490   33.0660 C   0  0  0  0  0  0  0  0  0  0  0  0
   36.6590   26.3580   32.4830 C   0  0  0  0  0  0  0  0  0  0  0  0
   35.8140   25.4160   31.2410 S   0  0  0  0  0  0  0  0  0  0  0  0
   36.7060   23.8200   31.6560 C   0  0  0  0  0  0  0  0  0  0  0  0
   37.4260   24.1490   32.5500 N   0  0  0  0  0  0  0  0  0  0  0  0
   36.5910   27.3860   32.7660 H   0  0  0  0  0  0  0  0  0  0  0  0
   35.3940   20.5820   31.4290 H   0  0  0  0  0  0  0  0  0  0  0  0
   35.6690   21.6040   31.6520 C   0  0  0  0  0  0  0  0  0  0  0  0
   34.7640   21.1920   32.4240 O   0  0  0  0  0  0  0  0  0  0  0  0
   36.6060   22.4890   31.0860 N   0  0  0  0  0  0  0  0  0  0  0  0
   37.1270   22.0670   30.3050 H   0  0  0  0  0  0  0  0  0  0  0  0
   37.7220   25.6290   35.5150 C   0  0  0  0  0  0  0  0  0  0  0  0
   37.7850   26.5990   36.0410 H   0  0  0  0  0  0  0  0  0  0  0  0
   36.6630   25.3370   35.3840 H   0  0  0  0  0  0  0  0  0  0  0  0
   38.7070   23.4170   38.3390 C   0  0  0  0  0  0  0  0  0  0  0  0
   39.8240   22.7540   37.8350 C   0  0  0  0  0  0  0  0  0  0  0  0
   40.2330   23.0670   36.5350 C   0  0  0  0  0  0  0  0  0  0  0  0
   39.5310   23.9900   35.8340 N   0  0  0  0  0  0  0  0  0  0  0  0
   38.4480   24.6070   36.3740 C   0  0  0  0  0  0  0  0  0  0  0  0
   38.0310   24.3330   37.6100 N   0  0  0  0  0  0  0  0  0  0  0  0
   38.4000   23.1700   39.3410 H   0  0  0  0  0  0  0  0  0  0  0  0
   40.3900   22.0170   38.3860 H   0  0  0  0  0  0  0  0  0  0  0  0
   41.0820   22.6180   36.0410 H   0  0  0  0  0  0  0  0  0  0  0  0
  1  2  1  0  0  0  0
  1 15  1  0  0  0  0
  3  1  1  0  0  0  0
  4  1  1  0  0  0  0
  5  9  1  0  0  0  0
  5  4  2  0  0  0  0
  6  7  1  0  0  0  0
  6  5  1  0  0  0  0
  7  8  2  0  0  0  0
  8  4  1  0  0  0  0
 10 11  1  0  0  0  0
 11 12  2  0  0  0  0
 13 11  1  0  0  0  0
 13  7  1  0  0  0  0
 14 13  1  0  0  0  0
 15 16  1  0  0  0  0
 15 22  1  0  0  0  0
 17 15  1  0  0  0  0
 18 24  1  0  0  0  0
 19 18  1  0  0  0  0
 19 25  1  0  0  0  0
 20 19  2  0  0  0  0
 21 22  2  0  0  0  0
 21 20  1  0  0  0  0
 22 23  1  0  0  0  0
 23 18  2  0  0  0  0
 26 20  1  0  0  0  0
M  END
>  <minimizedAffinity>
-4.27573681

$$$$

 OpenBabel03272506073D

 26 27  0  0  0  0  0  0  0  0999 V2000
   38.4720   26.5840   34.1210 C   0  0  0  0  0  0  0  0  0  0  0  0
   39.3020   25.8710   33.9900 H   0  0  0  0  0  0  0  0  0  0  0  0
   38.9270   27.5920   34.2420 H   0  0  0  0  0  0  0  0  0  0  0  0
   37.5630   26.5870   32.9220 C   0  0  0  0  0  0  0  0  0  0  0  0
   36.8350   25.3720   32.6230 C   0  0  0  0  0  0  0  0  0  0  0  0
   35.9400   25.8540   31.1700 S   0  0  0  0  0  0  0  0  0  0  0  0
   36.6460   27.5910   31.1520 C   0  0  0  0  0  0  0  0  0  0  0  0
   37.3640   27.5910   32.1060 N   0  0  0  0  0  0  0  0  0  0  0  0
   36.8660   24.4530   33.1670 H   0  0  0  0  0  0  0  0  0  0  0  0
   37.3300   29.5310   28.3190 H   0  0  0  0  0  0  0  0  0  0  0  0
   37.2720   28.8180   29.1300 C   0  0  0  0  0  0  0  0  0  0  0  0
   38.2000   28.5310   28.3290 O   0  0  0  0  0  0  0  0  0  0  0  0
   36.4260   28.7070   30.2490 N   0  0  0  0  0  0  0  0  0  0  0  0
   35.7260   29.4600   30.2920 H   0  0  0  0  0  0  0  0  0  0  0  0
   37.7160   26.2120   35.3620 C   0  0  0  0  0  0  0  0  0  0  0  0
   37.7600   27.0650   36.0640 H   0  0  0  0  0  0  0  0  0  0  0  0
   36.6630   25.9610   35.1360 H   0  0  0  0  0  0  0  0  0  0  0  0
   40.0450   23.4150   36.1290 C   0  0  0  0  0  0  0  0  0  0  0  0
   39.5610   22.9360   37.3440 C   0  0  0  0  0  0  0  0  0  0  0  0
   38.4420   23.5710   37.8940 C   0  0  0  0  0  0  0  0  0  0  0  0
   37.8890   24.6120   37.2250 N   0  0  0  0  0  0  0  0  0  0  0  0
   38.4030   25.0390   36.0420 C   0  0  0  0  0  0  0  0  0  0  0  0
   39.4670   24.4560   35.4900 N   0  0  0  0  0  0  0  0  0  0  0  0
   40.9060   22.9190   35.7140 H   0  0  0  0  0  0  0  0  0  0  0  0
   39.9950   22.1070   37.8840 H   0  0  0  0  0  0  0  0  0  0  0  0
   37.9820   23.2870   38.8280 H   0  0  0  0  0  0  0  0  0  0  0  0
  1  3  1  0  0  0  0
  1 15  1  0  0  0  0
  2  1  1  0  0  0  0
  4  1  1  0  0  0  0
  5  4  2  0  0  0  0
  5  9  1  0  0  0  0
  6  5  1  0  0  0  0
  7  6  1  0  0  0  0
  7  8  2  0  0  0  0
  8  4  1  0  0  0  0
 10 11  1  0  0  0  0
 11 13  1  0  0  0  0
 12 11  2  0  0  0  0
 13 14  1  0  0  0  0
 13  7  1  0  0  0  0
 15 22  1  0  0  0  0
 15 16  1  0  0  0  0
 17 15  1  0  0  0  0
 18 19  1  0  0  0  0
 19 25  1  0  0  0  0
 19 20  2  0  0  0  0
 20 26  1  0  0  0  0
 21 20  1  0  0  0  0
 22 21  2  0  0  0  0
 23 22  1  0  0  0  0
 23 18  2  0  0  0  0
 24 18  1  0  0  0  0
M  END
>  <minimizedAffinity>
-4.23717308

$$$$

 OpenBabel03272506073D

 26 27  0  0  0  0  0  0  0  0999 V2000
   38.4850   24.9680   33.9920 C   0  0  0  0  0  0  0  0  0  0  0  0
   39.5090   25.1270   33.6160 H   0  0  0  0  0  0  0  0  0  0  0  0
   38.3450   25.6600   34.8520 H   0  0  0  0  0  0  0  0  0  0  0  0
   37.4630   25.2760   32.9310 C   0  0  0  0  0  0  0  0  0  0  0  0
   36.7880   24.1620   32.2990 C   0  0  0  0  0  0  0  0  0  0  0  0
   35.7240   25.0060   31.1580 S   0  0  0  0  0  0  0  0  0  0  0  0
   36.3120   26.7120   31.6670 C   0  0  0  0  0  0  0  0  0  0  0  0
   37.1200   26.4680   32.5120 N   0  0  0  0  0  0  0  0  0  0  0  0
   36.9320   23.1240   32.5030 H   0  0  0  0  0  0  0  0  0  0  0  0
   36.5860   29.5230   29.5980 H   0  0  0  0  0  0  0  0  0  0  0  0
   36.6550   28.5830   30.1280 C   0  0  0  0  0  0  0  0  0  0  0  0
   37.5160   28.6600   29.2130 O   0  0  0  0  0  0  0  0  0  0  0  0
   35.9330   28.0350   31.2050 N   0  0  0  0  0  0  0  0  0  0  0  0
   35.1940   28.6650   31.5470 H   0  0  0  0  0  0  0  0  0  0  0  0
   38.3630   23.5470   34.4540 C   0  0  0  0  0  0  0  0  0  0  0  0
   37.3270   23.2100   34.2670 H   0  0  0  0  0  0  0  0  0  0  0  0
   39.0770   22.8870   33.9280 H   0  0  0  0  0  0  0  0  0  0  0  0
   39.7640   22.7350   37.8030 C   0  0  0  0  0  0  0  0  0  0  0  0
   38.9140   23.4220   38.6670 C   0  0  0  0  0  0  0  0  0  0  0  0
   37.8670   24.1570   38.1000 C   0  0  0  0  0  0  0  0  0  0  0  0
   37.7330   24.1670   36.7510 N   0  0  0  0  0  0  0  0  0  0  0  0
   38.5910   23.4790   35.9550 C   0  0  0  0  0  0  0  0  0  0  0  0
   39.5980   22.7680   36.4620 N   0  0  0  0  0  0  0  0  0  0  0  0
   40.5660   22.1710   38.2480 H   0  0  0  0  0  0  0  0  0  0  0  0
   39.0130   23.4200   39.7420 H   0  0  0  0  0  0  0  0  0  0  0  0
   37.1490   24.7270   38.6690 H   0  0  0  0  0  0  0  0  0  0  0  0
  1 15  1  0  0  0  0
  1  3  1  0  0  0  0
  2  1  1  0  0  0  0
  4  1  1  0  0  0  0
  5  9  1  0  0  0  0
  5  4  2  0  0  0  0
  6  7  1  0  0  0  0
  6  5  1  0  0  0  0
  7  8  2  0  0  0  0
  8  4  1  0  0  0  0
 10 11  1  0  0  0  0
 11 13  1  0  0  0  0
 12 11  2  0  0  0  0
 13 14  1  0  0  0  0
 13  7  1  0  0  0  0
 15 22  1  0  0  0  0
 16 15  1  0  0  0  0
 17 15  1  0  0  0  0
 18 24  1  0  0  0  0
 18 19  1  0  0  0  0
 19 25  1  0  0  0  0
 20 19  2  0  0  0  0
 20 26  1  0  0  0  0
 21 20  1  0  0  0  0
 22 23  1  0  0  0  0
 22 21  2  0  0  0  0
 23 18  2  0  0  0  0
M  END
>  <minimizedAffinity>
-4.20748663

$$$$

 OpenBabel03272506073D

 26 27  0  0  0  0  0  0  0  0999 V2000
   38.0200   26.3020   35.6680 C   0  0  0  0  0  0  0  0  0  0  0  0
   36.9400   26.5010   35.5830 H   0  0  0  0  0  0  0  0  0  0  0  0
   38.3950   26.9070   36.5220 H   0  0  0  0  0  0  0  0  0  0  0  0
   38.2830   24.8440   35.9340 C   0  0  0  0  0  0  0  0  0  0  0  0
   39.6220   24.3450   35.7010 C   0  0  0  0  0  0  0  0  0  0  0  0
   39.4340   22.6360   36.1350 S   0  0  0  0  0  0  0  0  0  0  0  0
   37.6180   22.8090   36.5660 C   0  0  0  0  0  0  0  0  0  0  0  0
   37.4090   23.9660   36.3590 N   0  0  0  0  0  0  0  0  0  0  0  0
   40.4650   24.9030   35.3560 H   0  0  0  0  0  0  0  0  0  0  0  0
   35.1370   20.3750   36.1410 H   0  0  0  0  0  0  0  0  0  0  0  0
   35.9050   21.1340   36.0710 C   0  0  0  0  0  0  0  0  0  0  0  0
   35.5070   20.7740   34.9320 O   0  0  0  0  0  0  0  0  0  0  0  0
   36.6470   21.8380   37.0370 N   0  0  0  0  0  0  0  0  0  0  0  0
   36.4010   21.5670   37.9990 H   0  0  0  0  0  0  0  0  0  0  0  0
   38.6860   26.7410   34.3980 C   0  0  0  0  0  0  0  0  0  0  0  0
   39.0080   27.7920   34.5210 H   0  0  0  0  0  0  0  0  0  0  0  0
   39.5580   26.1040   34.1570 H   0  0  0  0  0  0  0  0  0  0  0  0
   36.7140   25.6900   31.4260 C   0  0  0  0  0  0  0  0  0  0  0  0
   35.8360   26.7560   31.2460 C   0  0  0  0  0  0  0  0  0  0  0  0
   35.9240   27.8280   32.1400 C   0  0  0  0  0  0  0  0  0  0  0  0
   36.8490   27.7770   33.1300 N   0  0  0  0  0  0  0  0  0  0  0  0
   37.6800   26.7110   33.2600 C   0  0  0  0  0  0  0  0  0  0  0  0
   37.6240   25.6740   32.4250 N   0  0  0  0  0  0  0  0  0  0  0  0
   36.6390   24.8700   30.7320 H   0  0  0  0  0  0  0  0  0  0  0  0
   35.0960   26.8060   30.4600 H   0  0  0  0  0  0  0  0  0  0  0  0
   35.2970   28.7060   32.0990 H   0  0  0  0  0  0  0  0  0  0  0  0
  1  4  1  0  0  0  0
  1  3  1  0  0  0  0
  2  1  1  0  0  0  0
  4  8  1  0  0  0  0
  5  4  2  0  0  0  0
  5  6  1  0  0  0  0
  6  7  1  0  0  0  0
  7 13  1  0  0  0  0
  8  7  2  0  0  0  0
  9  5  1  0  0  0  0
 11 10  1  0  0  0  0
 11 13  1  0  0  0  0
 12 11  2  0  0  0  0
 13 14  1  0  0  0  0
 15 16  1  0  0  0  0
 15  1  1  0  0  0  0
 17 15  1  0  0  0  0
 18 23  1  0  0  0  0
 19 18  2  0  0  0  0
 19 20  1  0  0  0  0
 20 21  2  0  0  0  0
 21 22  1  0  0  0  0
 22 15  1  0  0  0  0
 23 22  2  0  0  0  0
 24 18  1  0  0  0  0
 25 19  1  0  0  0  0
 26 20  1  0  0  0  0
M  END
>  <minimizedAffinity>
-4.163589

$$$$

 OpenBabel03272506073D

 26 27  0  0  0  0  0  0  0  0999 V2000
   37.7240   25.8270   35.6710 C   0  0  0  0  0  0  0  0  0  0  0  0
   37.6790   25.4650   34.6320 H   0  0  0  0  0  0  0  0  0  0  0  0
   36.6910   26.1250   35.9560 H   0  0  0  0  0  0  0  0  0  0  0  0
   38.2080   24.7490   36.6020 C   0  0  0  0  0  0  0  0  0  0  0  0
   37.8650   24.8610   38.0040 C   0  0  0  0  0  0  0  0  0  0  0  0
   38.6400   23.4090   38.6660 S   0  0  0  0  0  0  0  0  0  0  0  0
   39.3110   22.8500   37.0080 C   0  0  0  0  0  0  0  0  0  0  0  0
   38.9230   23.7040   36.2680 N   0  0  0  0  0  0  0  0  0  0  0  0
   37.2940   25.6360   38.4660 H   0  0  0  0  0  0  0  0  0  0  0  0
   42.3110   21.1350   36.4470 H   0  0  0  0  0  0  0  0  0  0  0  0
   41.5040   21.8200   36.6690 C   0  0  0  0  0  0  0  0  0  0  0  0
   42.6270   22.3620   36.8380 O   0  0  0  0  0  0  0  0  0  0  0  0
   40.1030   21.6930   36.6340 N   0  0  0  0  0  0  0  0  0  0  0  0
   39.7990   20.7550   36.3360 H   0  0  0  0  0  0  0  0  0  0  0  0
   38.6320   27.0210   35.7200 C   0  0  0  0  0  0  0  0  0  0  0  0
   38.0080   27.9320   35.6850 H   0  0  0  0  0  0  0  0  0  0  0  0
   39.2520   27.0210   36.6360 H   0  0  0  0  0  0  0  0  0  0  0  0
   41.5920   26.9820   33.4680 C   0  0  0  0  0  0  0  0  0  0  0  0
   41.0170   27.0720   32.2020 C   0  0  0  0  0  0  0  0  0  0  0  0
   39.6220   27.1470   32.1260 C   0  0  0  0  0  0  0  0  0  0  0  0
   38.9040   27.1260   33.2760 N   0  0  0  0  0  0  0  0  0  0  0  0
   39.5170   27.0360   34.4850 C   0  0  0  0  0  0  0  0  0  0  0  0
   40.8430   26.9640   34.5930 N   0  0  0  0  0  0  0  0  0  0  0  0
   42.6660   26.9250   33.5170 H   0  0  0  0  0  0  0  0  0  0  0  0
   41.5810   27.0900   31.2810 H   0  0  0  0  0  0  0  0  0  0  0  0
   39.0680   27.2200   31.2030 H   0  0  0  0  0  0  0  0  0  0  0  0
  1 15  1  0  0  0  0
  1  3  1  0  0  0  0
  1  4  1  0  0  0  0
  2  1  1  0  0  0  0
  4  5  2  0  0  0  0
  5  9  1  0  0  0  0
  5  6  1  0  0  0  0
  7  6  1  0  0  0  0
  8  4  1  0  0  0  0
  8  7  2  0  0  0  0
 10 11  1  0  0  0  0
 11 12  2  0  0  0  0
 13 11  1  0  0  0  0
 13  7  1  0  0  0  0
 14 13  1  0  0  0  0
 15 17  1  0  0  0  0
 16 15  1  0  0  0  0
 18 24  1  0  0  0  0
 18 23  1  0  0  0  0
 19 18  2  0  0  0  0
 20 19  1  0  0  0  0
 20 21  2  0  0  0  0
 21 22  1  0  0  0  0
 22 23  2  0  0  0  0
 22 15  1  0  0  0  0
 25 19  1  0  0  0  0
 26 20  1  0  0  0  0
M  END
>  <minimizedAffinity>
-4.16125107

$$$$

 OpenBabel03272506073D

 26 27  0  0  0  0  0  0  0  0999 V2000
   36.0790   24.1790   31.2760 C   0  0  0  0  0  0  0  0  0  0  0  0
   35.1180   23.7830   31.6440 H   0  0  0  0  0  0  0  0  0  0  0  0
   35.9730   24.3150   30.1780 H   0  0  0  0  0  0  0  0  0  0  0  0
   36.4000   25.5030   31.9150 C   0  0  0  0  0  0  0  0  0  0  0  0
   36.1300   26.7050   31.1530 C   0  0  0  0  0  0  0  0  0  0  0  0
   36.6620   27.9600   32.2880 S   0  0  0  0  0  0  0  0  0  0  0  0
   37.1690   26.7330   33.6120 C   0  0  0  0  0  0  0  0  0  0  0  0
   36.9100   25.6820   33.1070 N   0  0  0  0  0  0  0  0  0  0  0  0
   35.7180   26.7630   30.1690 H   0  0  0  0  0  0  0  0  0  0  0  0
   39.8040   27.0960   35.8880 H   0  0  0  0  0  0  0  0  0  0  0  0
   39.1360   26.9670   35.0470 C   0  0  0  0  0  0  0  0  0  0  0  0
   40.3420   26.9360   34.6860 O   0  0  0  0  0  0  0  0  0  0  0  0
   37.7340   26.9280   34.9350 N   0  0  0  0  0  0  0  0  0  0  0  0
   37.2610   27.0480   35.8410 H   0  0  0  0  0  0  0  0  0  0  0  0
   37.1510   23.1730   31.5680 C   0  0  0  0  0  0  0  0  0  0  0  0
   37.7400   23.0170   30.6450 H   0  0  0  0  0  0  0  0  0  0  0  0
   37.8130   23.5110   32.3870 H   0  0  0  0  0  0  0  0  0  0  0  0
   35.6960   19.7570   31.3440 C   0  0  0  0  0  0  0  0  0  0  0  0
   35.3650   19.4760   32.6680 C   0  0  0  0  0  0  0  0  0  0  0  0
   35.6390   20.4560   33.6280 C   0  0  0  0  0  0  0  0  0  0  0  0
   36.2100   21.6180   33.2280 N   0  0  0  0  0  0  0  0  0  0  0  0
   36.5140   21.8400   31.9230 C   0  0  0  0  0  0  0  0  0  0  0  0
   36.2650   20.9280   30.9830 N   0  0  0  0  0  0  0  0  0  0  0  0
   35.4800   18.9970   30.6120 H   0  0  0  0  0  0  0  0  0  0  0  0
   34.9090   18.5530   32.9950 H   0  0  0  0  0  0  0  0  0  0  0  0
   35.4270   20.3500   34.6810 H   0  0  0  0  0  0  0  0  0  0  0  0
  1 15  1  0  0  0  0
  1  2  1  0  0  0  0
  1  4  1  0  0  0  0
  3  1  1  0  0  0  0
  4  8  1  0  0  0  0
  5  4  2  0  0  0  0
  5  6  1  0  0  0  0
  6  7  1  0  0  0  0
  7 13  1  0  0  0  0
  8  7  2  0  0  0  0
  9  5  1  0  0  0  0
 11 10  1  0  0  0  0
 12 11  2  0  0  0  0
 13 11  1  0  0  0  0
 13 14  1  0  0  0  0
 15 22  1  0  0  0  0
 15 17  1  0  0  0  0
 16 15  1  0  0  0  0
 18 19  1  0  0  0  0
 19 25  1  0  0  0  0
 19 20  2  0  0  0  0
 20 26  1  0  0  0  0
 21 20  1  0  0  0  0
 22 21  2  0  0  0  0
 23 18  2  0  0  0  0
 23 22  1  0  0  0  0
 24 18  1  0  0  0  0
M  END
>  <minimizedAffinity>
-4.11120319

$$$$

 OpenBabel03272506073D

 26 27  0  0  0  0  0  0  0  0999 V2000
   35.1780   29.1970   33.6430 C   0  0  0  0  0  0  0  0  0  0  0  0
   34.8530   29.3620   32.6030 H   0  0  0  0  0  0  0  0  0  0  0  0
   34.3450   28.6790   34.1650 H   0  0  0  0  0  0  0  0  0  0  0  0
   36.4120   28.3380   33.6960 C   0  0  0  0  0  0  0  0  0  0  0  0
   37.0310   27.9650   32.4410 C   0  0  0  0  0  0  0  0  0  0  0  0
   38.3960   26.9840   33.0080 S   0  0  0  0  0  0  0  0  0  0  0  0
   37.9690   27.1990   34.8200 C   0  0  0  0  0  0  0  0  0  0  0  0
   36.9910   27.8840   34.7790 N   0  0  0  0  0  0  0  0  0  0  0  0
   36.7080   28.2350   31.4600 H   0  0  0  0  0  0  0  0  0  0  0  0
   38.4810   24.8560   37.3710 H   0  0  0  0  0  0  0  0  0  0  0  0
   38.1840   25.4490   36.5180 C   0  0  0  0  0  0  0  0  0  0  0  0
   37.5280   24.3770   36.5840 O   0  0  0  0  0  0  0  0  0  0  0  0
   38.6080   26.6960   36.0230 N   0  0  0  0  0  0  0  0  0  0  0  0
   39.3510   27.1180   36.5980 H   0  0  0  0  0  0  0  0  0  0  0  0
   35.4300   30.5320   34.2790 C   0  0  0  0  0  0  0  0  0  0  0  0
   36.4100   30.4940   34.7890 H   0  0  0  0  0  0  0  0  0  0  0  0
   35.4240   31.3450   33.5300 H   0  0  0  0  0  0  0  0  0  0  0  0
   33.6210   31.9020   37.2260 C   0  0  0  0  0  0  0  0  0  0  0  0
   32.4300   31.1790   37.2200 C   0  0  0  0  0  0  0  0  0  0  0  0
   32.2530   30.2280   36.2100 C   0  0  0  0  0  0  0  0  0  0  0  0
   33.2380   30.0580   35.2940 N   0  0  0  0  0  0  0  0  0  0  0  0
   34.3800   30.7910   35.3470 C   0  0  0  0  0  0  0  0  0  0  0  0
   34.5810   31.7050   36.2960 N   0  0  0  0  0  0  0  0  0  0  0  0
   33.7490   32.6310   38.0080 H   0  0  0  0  0  0  0  0  0  0  0  0
   31.6400   31.3070   37.9460 H   0  0  0  0  0  0  0  0  0  0  0  0
   31.3740   29.6110   36.1050 H   0  0  0  0  0  0  0  0  0  0  0  0
  1  4  1  0  0  0  0
  1  3  1  0  0  0  0
  1 15  1  0  0  0  0
  2  1  1  0  0  0  0
  4  8  1  0  0  0  0
  5  6  1  0  0  0  0
  5  4  2  0  0  0  0
  6  7  1  0  0  0  0
  7 13  1  0  0  0  0
  8  7  2  0  0  0  0
  9  5  1  0  0  0  0
 11 12  2  0  0  0  0
 11 10  1  0  0  0  0
 13 11  1  0  0  0  0
 13 14  1  0  0  0  0
 15 16  1  0  0  0  0
 15 22  1  0  0  0  0
 17 15  1  0  0  0  0
 18 24  1  0  0  0  0
 19 18  1  0  0  0  0
 19 25  1  0  0  0  0
 20 19  2  0  0  0  0
 21 22  2  0  0  0  0
 21 20  1  0  0  0  0
 22 23  1  0  0  0  0
 23 18  2  0  0  0  0
 26 20  1  0  0  0  0
M  END
>  <minimizedAffinity>
-4.08945179

$$$$
