
 OpenBabel03272505333D

 36 38  0  0  0  0  0  0  0  0999 V2000
   37.4540   25.0490   32.3820 N   0  0  0  0  0  0  0  0  0  0  0  0
   38.3770   24.6430   33.2930 C   0  0  0  0  0  0  0  0  0  0  0  0
   38.4640   23.3230   33.7080 C   0  0  0  0  0  0  0  0  0  0  0  0
   37.5650   22.4040   33.1610 C   0  0  0  0  0  0  0  0  0  0  0  0
   37.6050   21.2010   33.5070 O   0  0  0  0  0  0  0  0  0  0  0  0
   36.6270   22.8200   32.2350 N   0  0  0  0  0  0  0  0  0  0  0  0
   36.6460   24.1130   31.9190 C   0  0  0  0  0  0  0  0  0  0  0  0
   35.7830   24.4420   31.0790 O   0  0  0  0  0  0  0  0  0  0  0  0
   39.0770   25.3570   33.7190 H   0  0  0  0  0  0  0  0  0  0  0  0
   39.4290   22.8420   34.6760 C   0  0  0  0  0  0  0  0  0  0  0  0
   40.6090   22.2390   34.3420 C   0  0  0  0  0  0  0  0  0  0  0  0
   41.5480   21.7710   35.2260 C   0  0  0  0  0  0  0  0  0  0  0  0
   41.2950   21.9140   36.5900 C   0  0  0  0  0  0  0  0  0  0  0  0
   40.0950   22.5270   36.9080 C   0  0  0  0  0  0  0  0  0  0  0  0
   39.2150   22.9640   35.9930 N   0  0  0  0  0  0  0  0  0  0  0  0
   40.8530   22.1030   33.2890 H   0  0  0  0  0  0  0  0  0  0  0  0
   42.4750   21.2960   34.9430 H   0  0  0  0  0  0  0  0  0  0  0  0
   41.9310   21.5990   37.3810 H   0  0  0  0  0  0  0  0  0  0  0  0
   38.5290   23.3550   39.9140 H   0  0  0  0  0  0  0  0  0  0  0  0
   38.5140   23.3500   38.8290 C   0  0  0  0  0  0  0  0  0  0  0  0
   37.5910   23.8130   38.0930 O   0  0  0  0  0  0  0  0  0  0  0  0
   39.6610   22.7620   38.2650 N   0  0  0  0  0  0  0  0  0  0  0  0
   40.4800   22.3510   38.7940 H   0  0  0  0  0  0  0  0  0  0  0  0
   36.5630   28.6490   32.2490 C   0  0  0  0  0  0  0  0  0  0  0  0
   36.6430   27.3170   32.6710 C   0  0  0  0  0  0  0  0  0  0  0  0
   37.3710   26.3800   31.9650 C   0  0  0  0  0  0  0  0  0  0  0  0
   38.0040   26.8070   30.8500 N   0  0  0  0  0  0  0  0  0  0  0  0
   37.9420   28.0900   30.4230 C   0  0  0  0  0  0  0  0  0  0  0  0
   37.2200   29.0050   31.1280 N   0  0  0  0  0  0  0  0  0  0  0  0
   35.9690   29.3120   32.8640 H   0  0  0  0  0  0  0  0  0  0  0  0
   36.1420   26.9610   33.5590 H   0  0  0  0  0  0  0  0  0  0  0  0
   38.4680   28.3950   29.5160 H   0  0  0  0  0  0  0  0  0  0  0  0
   35.7050   21.8660   31.6760 C   0  0  0  0  0  0  0  0  0  0  0  0
   36.3390   20.7080   31.3600 F   0  0  0  0  0  0  0  0  0  0  0  0
   35.0940   22.3090   30.5090 F   0  0  0  0  0  0  0  0  0  0  0  0
   34.7360   21.5830   32.6300 F   0  0  0  0  0  0  0  0  0  0  0  0
  1  2  1  0  0  0  0
  2  3  2  0  0  0  0
  2  9  1  0  0  0  0
  3 10  1  0  0  0  0
  4  5  2  0  0  0  0
  4  3  1  0  0  0  0
  6  4  1  0  0  0  0
  7  6  1  0  0  0  0
  7  1  1  0  0  0  0
  8  7  2  0  0  0  0
 10 15  1  0  0  0  0
 11 10  2  0  0  0  0
 11 12  1  0  0  0  0
 12 13  2  0  0  0  0
 13 14  1  0  0  0  0
 13 18  1  0  0  0  0
 14 22  1  0  0  0  0
 15 14  2  0  0  0  0
 16 11  1  0  0  0  0
 17 12  1  0  0  0  0
 20 19  1  0  0  0  0
 21 20  2  0  0  0  0
 22 23  1  0  0  0  0
 22 20  1  0  0  0  0
 24 25  1  0  0  0  0
 24 30  1  0  0  0  0
 25 31  1  0  0  0  0
 26  1  1  0  0  0  0
 26 25  2  0  0  0  0
 27 26  1  0  0  0  0
 28 27  2  0  0  0  0
 28 29  1  0  0  0  0
 29 24  2  0  0  0  0
 32 28  1  0  0  0  0
 33  6  1  0  0  0  0
 33 36  1  0  0  0  0
 34 33  1  0  0  0  0
 35 33  1  0  0  0  0
M  END
>  <minimizedAffinity>
-6.49793243

$$$$

 OpenBabel03272505333D

 36 38  0  0  0  0  0  0  0  0999 V2000
   38.1270   24.9340   32.4080 N   0  0  0  0  0  0  0  0  0  0  0  0
   38.4170   24.8470   33.7330 C   0  0  0  0  0  0  0  0  0  0  0  0
   38.0880   23.7270   34.4820 C   0  0  0  0  0  0  0  0  0  0  0  0
   37.4400   22.6730   33.8350 C   0  0  0  0  0  0  0  0  0  0  0  0
   37.1220   21.6420   34.4710 O   0  0  0  0  0  0  0  0  0  0  0  0
   37.1450   22.7650   32.4880 N   0  0  0  0  0  0  0  0  0  0  0  0
   37.5130   23.8910   31.8800 C   0  0  0  0  0  0  0  0  0  0  0  0
   37.2270   23.9280   30.6650 O   0  0  0  0  0  0  0  0  0  0  0  0
   38.9220   25.6660   34.2380 H   0  0  0  0  0  0  0  0  0  0  0  0
   38.3770   23.5870   35.8960 C   0  0  0  0  0  0  0  0  0  0  0  0
   37.6410   24.1730   36.8860 C   0  0  0  0  0  0  0  0  0  0  0  0
   37.8800   24.0650   38.2330 C   0  0  0  0  0  0  0  0  0  0  0  0
   38.9650   23.2940   38.6480 C   0  0  0  0  0  0  0  0  0  0  0  0
   39.6980   22.7080   37.6290 C   0  0  0  0  0  0  0  0  0  0  0  0
   39.4120   22.8530   36.3250 N   0  0  0  0  0  0  0  0  0  0  0  0
   36.7820   24.7870   36.6150 H   0  0  0  0  0  0  0  0  0  0  0  0
   37.2870   24.5360   39.0020 H   0  0  0  0  0  0  0  0  0  0  0  0
   39.2660   23.1240   39.6530 H   0  0  0  0  0  0  0  0  0  0  0  0
   42.5140   20.6490   37.5570 H   0  0  0  0  0  0  0  0  0  0  0  0
   41.7420   21.1870   37.0160 C   0  0  0  0  0  0  0  0  0  0  0  0
   41.6020   21.2260   35.7570 O   0  0  0  0  0  0  0  0  0  0  0  0
   40.8550   21.8760   37.8630 N   0  0  0  0  0  0  0  0  0  0  0  0
   40.8900   21.9030   38.9200 H   0  0  0  0  0  0  0  0  0  0  0  0
   37.9490   28.2750   30.8030 C   0  0  0  0  0  0  0  0  0  0  0  0
   37.6100   27.1460   31.5560 C   0  0  0  0  0  0  0  0  0  0  0  0
   38.4600   26.0630   31.6570 C   0  0  0  0  0  0  0  0  0  0  0  0
   39.6370   26.1430   30.9960 N   0  0  0  0  0  0  0  0  0  0  0  0
   39.9880   27.2250   30.2610 C   0  0  0  0  0  0  0  0  0  0  0  0
   39.1390   28.2870   30.1700 N   0  0  0  0  0  0  0  0  0  0  0  0
   37.2210   29.0740   30.7810 H   0  0  0  0  0  0  0  0  0  0  0  0
   36.6740   27.0680   32.0900 H   0  0  0  0  0  0  0  0  0  0  0  0
   40.9470   27.2500   29.7410 H   0  0  0  0  0  0  0  0  0  0  0  0
   36.4770   21.6730   31.8270 C   0  0  0  0  0  0  0  0  0  0  0  0
   35.7120   22.1240   30.8010 F   0  0  0  0  0  0  0  0  0  0  0  0
   35.6280   20.9600   32.6650 F   0  0  0  0  0  0  0  0  0  0  0  0
   37.4420   20.8210   31.3060 F   0  0  0  0  0  0  0  0  0  0  0  0
  1  2  1  0  0  0  0
  2  9  1  0  0  0  0
  2  3  2  0  0  0  0
  3 10  1  0  0  0  0
  4  5  2  0  0  0  0
  4  3  1  0  0  0  0
  6  4  1  0  0  0  0
  7  1  1  0  0  0  0
  7  6  1  0  0  0  0
  8  7  2  0  0  0  0
 10 15  2  0  0  0  0
 10 11  1  0  0  0  0
 11 12  2  0  0  0  0
 12 13  1  0  0  0  0
 12 17  1  0  0  0  0
 13 18  1  0  0  0  0
 14 22  1  0  0  0  0
 14 13  2  0  0  0  0
 15 14  1  0  0  0  0
 16 11  1  0  0  0  0
 20 19  1  0  0  0  0
 20 22  1  0  0  0  0
 21 20  2  0  0  0  0
 22 23  1  0  0  0  0
 24 25  1  0  0  0  0
 25 26  2  0  0  0  0
 25 31  1  0  0  0  0
 26  1  1  0  0  0  0
 27 26  1  0  0  0  0
 28 27  2  0  0  0  0
 29 28  1  0  0  0  0
 29 24  2  0  0  0  0
 30 24  1  0  0  0  0
 32 28  1  0  0  0  0
 33  6  1  0  0  0  0
 33 35  1  0  0  0  0
 34 33  1  0  0  0  0
 36 33  1  0  0  0  0
M  END
>  <minimizedAffinity>
-6.4090023

$$$$

 OpenBabel03272505333D

 36 38  0  0  0  0  0  0  0  0999 V2000
   37.5960   22.8670   32.3640 N   0  0  0  0  0  0  0  0  0  0  0  0
   37.8610   22.6870   33.6840 C   0  0  0  0  0  0  0  0  0  0  0  0
   38.0660   23.7590   34.5420 C   0  0  0  0  0  0  0  0  0  0  0  0
   37.9930   25.0470   34.0090 C   0  0  0  0  0  0  0  0  0  0  0  0
   38.1720   26.0450   34.7450 O   0  0  0  0  0  0  0  0  0  0  0  0
   37.7240   25.2260   32.6650 N   0  0  0  0  0  0  0  0  0  0  0  0
   37.5460   24.1200   31.9480 C   0  0  0  0  0  0  0  0  0  0  0  0
   37.3050   24.3310   30.7410 O   0  0  0  0  0  0  0  0  0  0  0  0
   37.9180   21.6860   34.1010 H   0  0  0  0  0  0  0  0  0  0  0  0
   38.3510   23.6180   35.9560 C   0  0  0  0  0  0  0  0  0  0  0  0
   37.6120   24.2020   36.9450 C   0  0  0  0  0  0  0  0  0  0  0  0
   37.8480   24.0940   38.2930 C   0  0  0  0  0  0  0  0  0  0  0  0
   38.9330   23.3250   38.7090 C   0  0  0  0  0  0  0  0  0  0  0  0
   39.6700   22.7410   37.6920 C   0  0  0  0  0  0  0  0  0  0  0  0
   39.3870   22.8860   36.3880 N   0  0  0  0  0  0  0  0  0  0  0  0
   36.7520   24.8140   36.6720 H   0  0  0  0  0  0  0  0  0  0  0  0
   37.2510   24.5640   39.0600 H   0  0  0  0  0  0  0  0  0  0  0  0
   39.2320   23.1550   39.7150 H   0  0  0  0  0  0  0  0  0  0  0  0
   42.4910   20.6880   37.6260 H   0  0  0  0  0  0  0  0  0  0  0  0
   41.7190   21.2240   37.0840 C   0  0  0  0  0  0  0  0  0  0  0  0
   41.5820   21.2640   35.8240 O   0  0  0  0  0  0  0  0  0  0  0  0
   40.8280   21.9110   37.9290 N   0  0  0  0  0  0  0  0  0  0  0  0
   40.8600   21.9380   38.9860 H   0  0  0  0  0  0  0  0  0  0  0  0
   38.1930   20.1970   29.8560 C   0  0  0  0  0  0  0  0  0  0  0  0
   38.4050   21.2810   30.7160 C   0  0  0  0  0  0  0  0  0  0  0  0
   37.3900   21.7860   31.5040 C   0  0  0  0  0  0  0  0  0  0  0  0
   36.1820   21.1870   31.4080 N   0  0  0  0  0  0  0  0  0  0  0  0
   35.9530   20.1370   30.5840 C   0  0  0  0  0  0  0  0  0  0  0  0
   36.9630   19.6480   29.8120 N   0  0  0  0  0  0  0  0  0  0  0  0
   39.0460   19.8700   29.2780 H   0  0  0  0  0  0  0  0  0  0  0  0
   39.3640   21.7700   30.8040 H   0  0  0  0  0  0  0  0  0  0  0  0
   34.9630   19.6810   30.5350 H   0  0  0  0  0  0  0  0  0  0  0  0
   37.6500   26.5590   32.1240 C   0  0  0  0  0  0  0  0  0  0  0  0
   37.7800   26.5410   30.7740 F   0  0  0  0  0  0  0  0  0  0  0  0
   38.6450   27.4040   32.6020 F   0  0  0  0  0  0  0  0  0  0  0  0
   36.4020   27.0880   32.4320 F   0  0  0  0  0  0  0  0  0  0  0  0
  1  2  1  0  0  0  0
  2  9  1  0  0  0  0
  2  3  2  0  0  0  0
  3 10  1  0  0  0  0
  4  3  1  0  0  0  0
  4  5  2  0  0  0  0
  6  4  1  0  0  0  0
  7  1  1  0  0  0  0
  7  6  1  0  0  0  0
  8  7  2  0  0  0  0
 10 15  2  0  0  0  0
 10 11  1  0  0  0  0
 11 12  2  0  0  0  0
 12 13  1  0  0  0  0
 12 17  1  0  0  0  0
 13 18  1  0  0  0  0
 14 22  1  0  0  0  0
 14 13  2  0  0  0  0
 15 14  1  0  0  0  0
 16 11  1  0  0  0  0
 20 19  1  0  0  0  0
 20 22  1  0  0  0  0
 21 20  2  0  0  0  0
 22 23  1  0  0  0  0
 24 25  1  0  0  0  0
 25 31  1  0  0  0  0
 25 26  2  0  0  0  0
 26  1  1  0  0  0  0
 27 26  1  0  0  0  0
 28 27  2  0  0  0  0
 29 24  2  0  0  0  0
 29 28  1  0  0  0  0
 30 24  1  0  0  0  0
 32 28  1  0  0  0  0
 33 36  1  0  0  0  0
 33 35  1  0  0  0  0
 33  6  1  0  0  0  0
 34 33  1  0  0  0  0
M  END
>  <minimizedAffinity>
-6.37830591

$$$$

 OpenBabel03272505333D

 36 38  0  0  0  0  0  0  0  0999 V2000
   38.0570   23.5890   34.2380 N   0  0  0  0  0  0  0  0  0  0  0  0
   38.0100   24.8610   33.7630 C   0  0  0  0  0  0  0  0  0  0  0  0
   37.3330   25.1820   32.5950 C   0  0  0  0  0  0  0  0  0  0  0  0
   36.6910   24.1510   31.9070 C   0  0  0  0  0  0  0  0  0  0  0  0
   36.0680   24.3920   30.8470 O   0  0  0  0  0  0  0  0  0  0  0  0
   36.7420   22.8580   32.3920 N   0  0  0  0  0  0  0  0  0  0  0  0
   37.4220   22.6790   33.5210 C   0  0  0  0  0  0  0  0  0  0  0  0
   37.4400   21.4970   33.9220 O   0  0  0  0  0  0  0  0  0  0  0  0
   38.5090   25.6650   34.2980 H   0  0  0  0  0  0  0  0  0  0  0  0
   37.2530   26.5220   32.0490 C   0  0  0  0  0  0  0  0  0  0  0  0
   36.4900   27.5200   32.5840 C   0  0  0  0  0  0  0  0  0  0  0  0
   36.3880   28.8000   32.0980 C   0  0  0  0  0  0  0  0  0  0  0  0
   37.1210   29.1300   30.9600 C   0  0  0  0  0  0  0  0  0  0  0  0
   37.8890   28.1050   30.4320 C   0  0  0  0  0  0  0  0  0  0  0  0
   37.9460   26.8700   30.9560 N   0  0  0  0  0  0  0  0  0  0  0  0
   35.8970   27.3130   33.4750 H   0  0  0  0  0  0  0  0  0  0  0  0
   35.7770   29.5750   32.5350 H   0  0  0  0  0  0  0  0  0  0  0  0
   37.1370   30.0770   30.4780 H   0  0  0  0  0  0  0  0  0  0  0  0
   40.0340   27.8600   27.6910 H   0  0  0  0  0  0  0  0  0  0  0  0
   39.5630   27.3890   28.5470 C   0  0  0  0  0  0  0  0  0  0  0  0
   39.7220   26.1870   28.9200 O   0  0  0  0  0  0  0  0  0  0  0  0
   38.7140   28.2580   29.2570 N   0  0  0  0  0  0  0  0  0  0  0  0
   38.5190   29.2710   29.0260 H   0  0  0  0  0  0  0  0  0  0  0  0
   38.8950   23.2200   37.8350 C   0  0  0  0  0  0  0  0  0  0  0  0
   38.2070   23.5410   36.6590 C   0  0  0  0  0  0  0  0  0  0  0  0
   38.7400   23.2710   35.4140 C   0  0  0  0  0  0  0  0  0  0  0  0
   39.9550   22.6800   35.3820 N   0  0  0  0  0  0  0  0  0  0  0  0
   40.6400   22.3590   36.5050 C   0  0  0  0  0  0  0  0  0  0  0  0
   40.1020   22.6320   37.7270 N   0  0  0  0  0  0  0  0  0  0  0  0
   38.4000   23.4700   38.7630 H   0  0  0  0  0  0  0  0  0  0  0  0
   37.2350   24.0130   36.6680 H   0  0  0  0  0  0  0  0  0  0  0  0
   41.6190   21.8830   36.4370 H   0  0  0  0  0  0  0  0  0  0  0  0
   36.0760   21.8000   31.6750 C   0  0  0  0  0  0  0  0  0  0  0  0
   35.2440   22.3050   30.7310 F   0  0  0  0  0  0  0  0  0  0  0  0
   35.2970   20.9880   32.4910 F   0  0  0  0  0  0  0  0  0  0  0  0
   37.0410   21.0310   31.0360 F   0  0  0  0  0  0  0  0  0  0  0  0
  1 26  1  0  0  0  0
  2  1  1  0  0  0  0
  2  9  1  0  0  0  0
  3  2  2  0  0  0  0
  4  6  1  0  0  0  0
  4  3  1  0  0  0  0
  5  4  2  0  0  0  0
  6  7  1  0  0  0  0
  7  8  2  0  0  0  0
  7  1  1  0  0  0  0
 10 11  1  0  0  0  0
 10  3  1  0  0  0  0
 11 16  1  0  0  0  0
 12 17  1  0  0  0  0
 12 11  2  0  0  0  0
 13 12  1  0  0  0  0
 14 15  1  0  0  0  0
 14 13  2  0  0  0  0
 15 10  2  0  0  0  0
 18 13  1  0  0  0  0
 19 20  1  0  0  0  0
 20 21  2  0  0  0  0
 20 22  1  0  0  0  0
 22 14  1  0  0  0  0
 23 22  1  0  0  0  0
 24 30  1  0  0  0  0
 25 31  1  0  0  0  0
 25 24  2  0  0  0  0
 26 25  1  0  0  0  0
 27 26  2  0  0  0  0
 27 28  1  0  0  0  0
 28 29  2  0  0  0  0
 29 24  1  0  0  0  0
 32 28  1  0  0  0  0
 33  6  1  0  0  0  0
 33 35  1  0  0  0  0
 34 33  1  0  0  0  0
 36 33  1  0  0  0  0
M  END
>  <minimizedAffinity>
-6.0876956

$$$$

 OpenBabel03272505333D

 36 38  0  0  0  0  0  0  0  0999 V2000
   38.1180   23.6020   34.5650 N   0  0  0  0  0  0  0  0  0  0  0  0
   38.4660   24.6990   33.8430 C   0  0  0  0  0  0  0  0  0  0  0  0
   38.1020   24.8450   32.5120 C   0  0  0  0  0  0  0  0  0  0  0  0
   37.3590   23.8210   31.9200 C   0  0  0  0  0  0  0  0  0  0  0  0
   37.0090   23.9080   30.7210 O   0  0  0  0  0  0  0  0  0  0  0  0
   37.0070   22.7060   32.6580 N   0  0  0  0  0  0  0  0  0  0  0  0
   37.4160   22.6860   33.9240 C   0  0  0  0  0  0  0  0  0  0  0  0
   37.0740   21.6600   34.5500 O   0  0  0  0  0  0  0  0  0  0  0  0
   39.0440   25.4970   34.3010 H   0  0  0  0  0  0  0  0  0  0  0  0
   38.4480   25.9950   31.7010 C   0  0  0  0  0  0  0  0  0  0  0  0
   39.6070   26.1030   30.9850 C   0  0  0  0  0  0  0  0  0  0  0  0
   39.9710   27.1730   30.2070 C   0  0  0  0  0  0  0  0  0  0  0  0
   39.0960   28.2540   30.1240 C   0  0  0  0  0  0  0  0  0  0  0  0
   37.9270   28.1250   30.8570 C   0  0  0  0  0  0  0  0  0  0  0  0
   37.6280   27.0490   31.6020 N   0  0  0  0  0  0  0  0  0  0  0  0
   40.3260   25.2840   31.0160 H   0  0  0  0  0  0  0  0  0  0  0  0
   40.8930   27.2400   29.6480 H   0  0  0  0  0  0  0  0  0  0  0  0
   39.2490   29.1430   29.5620 H   0  0  0  0  0  0  0  0  0  0  0  0
   35.1430   30.1720   31.3390 H   0  0  0  0  0  0  0  0  0  0  0  0
   35.6580   29.2410   31.5470 C   0  0  0  0  0  0  0  0  0  0  0  0
   35.2340   28.3030   32.2870 O   0  0  0  0  0  0  0  0  0  0  0  0
   36.9010   29.1410   30.8950 N   0  0  0  0  0  0  0  0  0  0  0  0
   37.3360   29.8660   30.2600 H   0  0  0  0  0  0  0  0  0  0  0  0
   38.0980   23.8470   38.2680 C   0  0  0  0  0  0  0  0  0  0  0  0
   37.7250   23.9920   36.9270 C   0  0  0  0  0  0  0  0  0  0  0  0
   38.4850   23.4600   35.9050 C   0  0  0  0  0  0  0  0  0  0  0  0
   39.6050   22.7900   36.2580 N   0  0  0  0  0  0  0  0  0  0  0  0
   39.9860   22.6350   37.5480 C   0  0  0  0  0  0  0  0  0  0  0  0
   39.2270   23.1660   38.5470 N   0  0  0  0  0  0  0  0  0  0  0  0
   37.4430   24.2980   39.0000 H   0  0  0  0  0  0  0  0  0  0  0  0
   36.8340   24.5250   36.6300 H   0  0  0  0  0  0  0  0  0  0  0  0
   40.8980   22.0870   37.7910 H   0  0  0  0  0  0  0  0  0  0  0  0
   36.2400   21.6550   32.0400 C   0  0  0  0  0  0  0  0  0  0  0  0
   35.6770   22.0840   30.8820 F   0  0  0  0  0  0  0  0  0  0  0  0
   35.1990   21.1940   32.8350 F   0  0  0  0  0  0  0  0  0  0  0  0
   37.0990   20.6050   31.7410 F   0  0  0  0  0  0  0  0  0  0  0  0
  1 26  1  0  0  0  0
  2  9  1  0  0  0  0
  2  1  1  0  0  0  0
  3  2  2  0  0  0  0
  4  3  1  0  0  0  0
  4  6  1  0  0  0  0
  5  4  2  0  0  0  0
  6  7  1  0  0  0  0
  7  8  2  0  0  0  0
  7  1  1  0  0  0  0
 10  3  1  0  0  0  0
 11 16  1  0  0  0  0
 11 10  2  0  0  0  0
 12 11  1  0  0  0  0
 13 12  2  0  0  0  0
 13 14  1  0  0  0  0
 14 22  1  0  0  0  0
 14 15  2  0  0  0  0
 15 10  1  0  0  0  0
 17 12  1  0  0  0  0
 18 13  1  0  0  0  0
 19 20  1  0  0  0  0
 20 21  2  0  0  0  0
 22 20  1  0  0  0  0
 23 22  1  0  0  0  0
 24 29  1  0  0  0  0
 24 30  1  0  0  0  0
 25 24  2  0  0  0  0
 26 27  2  0  0  0  0
 26 25  1  0  0  0  0
 27 28  1  0  0  0  0
 28 32  1  0  0  0  0
 28 29  2  0  0  0  0
 31 25  1  0  0  0  0
 33  6  1  0  0  0  0
 33 35  1  0  0  0  0
 34 33  1  0  0  0  0
 36 33  1  0  0  0  0
M  END
>  <minimizedAffinity>
-6.04581451

$$$$

 OpenBabel03272505333D

 36 38  0  0  0  0  0  0  0  0999 V2000
   37.1270   24.3680   32.5480 N   0  0  0  0  0  0  0  0  0  0  0  0
   36.6060   25.5170   32.0440 C   0  0  0  0  0  0  0  0  0  0  0  0
   36.8090   26.7440   32.6590 C   0  0  0  0  0  0  0  0  0  0  0  0
   37.5720   26.7720   33.8280 C   0  0  0  0  0  0  0  0  0  0  0  0
   37.7810   27.8560   34.4190 O   0  0  0  0  0  0  0  0  0  0  0  0
   38.1000   25.6010   34.3380 N   0  0  0  0  0  0  0  0  0  0  0  0
   37.8350   24.4900   33.6560 C   0  0  0  0  0  0  0  0  0  0  0  0
   38.3330   23.4580   34.1540 O   0  0  0  0  0  0  0  0  0  0  0  0
   36.0120   25.4970   31.1350 H   0  0  0  0  0  0  0  0  0  0  0  0
   36.2750   27.9960   32.1610 C   0  0  0  0  0  0  0  0  0  0  0  0
   35.3070   28.7200   32.7970 C   0  0  0  0  0  0  0  0  0  0  0  0
   34.7760   29.9070   32.3590 C   0  0  0  0  0  0  0  0  0  0  0  0
   35.2530   30.4380   31.1630 C   0  0  0  0  0  0  0  0  0  0  0  0
   36.2340   29.6900   30.5330 C   0  0  0  0  0  0  0  0  0  0  0  0
   36.7130   28.5320   31.0140 N   0  0  0  0  0  0  0  0  0  0  0  0
   34.9000   28.3470   33.7370 H   0  0  0  0  0  0  0  0  0  0  0  0
   34.0100   30.4650   32.8770 H   0  0  0  0  0  0  0  0  0  0  0  0
   34.9340   31.3450   30.7080 H   0  0  0  0  0  0  0  0  0  0  0  0
   38.0550   30.0910   27.5840 H   0  0  0  0  0  0  0  0  0  0  0  0
   37.8390   29.5030   28.4690 C   0  0  0  0  0  0  0  0  0  0  0  0
   38.3890   28.4070   28.7910 O   0  0  0  0  0  0  0  0  0  0  0  0
   36.8480   30.0800   29.2850 N   0  0  0  0  0  0  0  0  0  0  0  0
   36.3340   30.9860   29.1030 H   0  0  0  0  0  0  0  0  0  0  0  0
   35.4910   21.2700   31.3220 C   0  0  0  0  0  0  0  0  0  0  0  0
   35.6920   22.5060   31.9480 C   0  0  0  0  0  0  0  0  0  0  0  0
   36.9210   23.1350   31.9250 C   0  0  0  0  0  0  0  0  0  0  0  0
   37.9210   22.5040   31.2700 N   0  0  0  0  0  0  0  0  0  0  0  0
   37.7510   21.3090   30.6560 C   0  0  0  0  0  0  0  0  0  0  0  0
   36.5340   20.6990   30.6860 N   0  0  0  0  0  0  0  0  0  0  0  0
   34.4970   20.8530   31.3920 H   0  0  0  0  0  0  0  0  0  0  0  0
   34.9030   23.0210   32.4750 H   0  0  0  0  0  0  0  0  0  0  0  0
   38.5850   20.8330   30.1370 H   0  0  0  0  0  0  0  0  0  0  0  0
   38.8870   25.6390   35.5440 C   0  0  0  0  0  0  0  0  0  0  0  0
   39.7320   26.7010   35.5370 F   0  0  0  0  0  0  0  0  0  0  0  0
   39.6770   24.5100   35.7220 F   0  0  0  0  0  0  0  0  0  0  0  0
   38.0240   25.7790   36.6250 F   0  0  0  0  0  0  0  0  0  0  0  0
  1  7  1  0  0  0  0
  2  1  1  0  0  0  0
  2  3  2  0  0  0  0
  3  4  1  0  0  0  0
  4  6  1  0  0  0  0
  4  5  2  0  0  0  0
  6 33  1  0  0  0  0
  7  8  2  0  0  0  0
  7  6  1  0  0  0  0
  9  2  1  0  0  0  0
 10  3  1  0  0  0  0
 10 11  1  0  0  0  0
 11 16  1  0  0  0  0
 12 11  2  0  0  0  0
 12 17  1  0  0  0  0
 13 12  1  0  0  0  0
 14 15  1  0  0  0  0
 14 13  2  0  0  0  0
 15 10  2  0  0  0  0
 18 13  1  0  0  0  0
 19 20  1  0  0  0  0
 20 21  2  0  0  0  0
 20 22  1  0  0  0  0
 22 14  1  0  0  0  0
 23 22  1  0  0  0  0
 24 30  1  0  0  0  0
 24 25  1  0  0  0  0
 25 31  1  0  0  0  0
 26 25  2  0  0  0  0
 26  1  1  0  0  0  0
 27 26  1  0  0  0  0
 28 29  1  0  0  0  0
 28 27  2  0  0  0  0
 29 24  2  0  0  0  0
 32 28  1  0  0  0  0
 33 35  1  0  0  0  0
 33 36  1  0  0  0  0
 34 33  1  0  0  0  0
M  END
>  <minimizedAffinity>
-5.93037796

$$$$

 OpenBabel03272505333D

 36 38  0  0  0  0  0  0  0  0999 V2000
   37.3200   27.5010   33.6220 N   0  0  0  0  0  0  0  0  0  0  0  0
   36.6110   28.2540   34.5040 C   0  0  0  0  0  0  0  0  0  0  0  0
   35.9170   29.3870   34.1060 C   0  0  0  0  0  0  0  0  0  0  0  0
   35.9640   29.7430   32.7560 C   0  0  0  0  0  0  0  0  0  0  0  0
   35.3540   30.7590   32.3510 O   0  0  0  0  0  0  0  0  0  0  0  0
   36.6870   28.9750   31.8630 N   0  0  0  0  0  0  0  0  0  0  0  0
   37.3080   27.9130   32.3680 C   0  0  0  0  0  0  0  0  0  0  0  0
   37.9470   27.2490   31.5240 O   0  0  0  0  0  0  0  0  0  0  0  0
   36.5740   27.9780   35.5540 H   0  0  0  0  0  0  0  0  0  0  0  0
   35.1480   30.2220   35.0070 C   0  0  0  0  0  0  0  0  0  0  0  0
   35.6900   31.2000   35.7900 C   0  0  0  0  0  0  0  0  0  0  0  0
   34.9980   32.0110   36.6550 C   0  0  0  0  0  0  0  0  0  0  0  0
   33.6190   31.8370   36.7560 C   0  0  0  0  0  0  0  0  0  0  0  0
   33.0880   30.8390   35.9540 C   0  0  0  0  0  0  0  0  0  0  0  0
   33.8210   30.0780   35.1260 N   0  0  0  0  0  0  0  0  0  0  0  0
   36.7650   31.3770   35.7480 H   0  0  0  0  0  0  0  0  0  0  0  0
   35.4450   32.7800   37.2670 H   0  0  0  0  0  0  0  0  0  0  0  0
   32.9610   32.3900   37.3810 H   0  0  0  0  0  0  0  0  0  0  0  0
   29.8620   29.6100   35.4470 H   0  0  0  0  0  0  0  0  0  0  0  0
   30.9200   29.5680   35.2110 C   0  0  0  0  0  0  0  0  0  0  0  0
   31.4700   28.7760   34.3890 O   0  0  0  0  0  0  0  0  0  0  0  0
   31.6810   30.5130   35.9230 N   0  0  0  0  0  0  0  0  0  0  0  0
   31.3150   31.2130   36.6250 H   0  0  0  0  0  0  0  0  0  0  0  0
   39.9250   25.2980   35.0840 C   0  0  0  0  0  0  0  0  0  0  0  0
   39.2310   26.4440   34.6800 C   0  0  0  0  0  0  0  0  0  0  0  0
   38.0170   26.3600   34.0270 C   0  0  0  0  0  0  0  0  0  0  0  0
   37.5280   25.1210   33.7970 N   0  0  0  0  0  0  0  0  0  0  0  0
   38.1810   23.9970   34.1790 C   0  0  0  0  0  0  0  0  0  0  0  0
   39.3780   24.0940   34.8220 N   0  0  0  0  0  0  0  0  0  0  0  0
   40.8680   25.4600   35.5870 H   0  0  0  0  0  0  0  0  0  0  0  0
   39.6090   27.4400   34.8570 H   0  0  0  0  0  0  0  0  0  0  0  0
   37.7520   23.0150   33.9740 H   0  0  0  0  0  0  0  0  0  0  0  0
   36.7300   29.3490   30.4720 C   0  0  0  0  0  0  0  0  0  0  0  0
   35.7680   30.2630   30.1870 F   0  0  0  0  0  0  0  0  0  0  0  0
   36.5240   28.2810   29.6080 F   0  0  0  0  0  0  0  0  0  0  0  0
   37.9670   29.9270   30.2130 F   0  0  0  0  0  0  0  0  0  0  0  0
  1 26  1  0  0  0  0
  1  2  1  0  0  0  0
  2  9  1  0  0  0  0
  3  2  2  0  0  0  0
  3 10  1  0  0  0  0
  4  3  1  0  0  0  0
  5  4  2  0  0  0  0
  6  7  1  0  0  0  0
  6  4  1  0  0  0  0
  7  1  1  0  0  0  0
  8  7  2  0  0  0  0
 10 15  2  0  0  0  0
 10 11  1  0  0  0  0
 11 12  2  0  0  0  0
 12 13  1  0  0  0  0
 12 17  1  0  0  0  0
 13 18  1  0  0  0  0
 14 13  2  0  0  0  0
 15 14  1  0  0  0  0
 16 11  1  0  0  0  0
 20 19  1  0  0  0  0
 20 22  1  0  0  0  0
 21 20  2  0  0  0  0
 22 14  1  0  0  0  0
 22 23  1  0  0  0  0
 24 30  1  0  0  0  0
 25 31  1  0  0  0  0
 25 24  2  0  0  0  0
 26 25  1  0  0  0  0
 27 26  2  0  0  0  0
 27 28  1  0  0  0  0
 28 29  2  0  0  0  0
 29 24  1  0  0  0  0
 32 28  1  0  0  0  0
 33  6  1  0  0  0  0
 34 33  1  0  0  0  0
 35 33  1  0  0  0  0
 36 33  1  0  0  0  0
M  END
>  <minimizedAffinity>
-5.92338324

$$$$

 OpenBabel03272505333D

 36 38  0  0  0  0  0  0  0  0999 V2000
   36.0700   28.0980   32.0270 N   0  0  0  0  0  0  0  0  0  0  0  0
   35.6000   28.6480   33.1770 C   0  0  0  0  0  0  0  0  0  0  0  0
   35.4780   30.0210   33.3350 C   0  0  0  0  0  0  0  0  0  0  0  0
   35.8550   30.8390   32.2680 C   0  0  0  0  0  0  0  0  0  0  0  0
   35.7630   32.0840   32.3650 O   0  0  0  0  0  0  0  0  0  0  0  0
   36.3330   30.2760   31.1000 N   0  0  0  0  0  0  0  0  0  0  0  0
   36.4020   28.9470   31.0720 C   0  0  0  0  0  0  0  0  0  0  0  0
   36.8380   28.4840   29.9970 O   0  0  0  0  0  0  0  0  0  0  0  0
   35.3060   28.0140   34.0090 H   0  0  0  0  0  0  0  0  0  0  0  0
   34.9830   30.6550   34.5410 C   0  0  0  0  0  0  0  0  0  0  0  0
   35.7770   31.3070   35.4410 C   0  0  0  0  0  0  0  0  0  0  0  0
   35.3480   31.9190   36.5920 C   0  0  0  0  0  0  0  0  0  0  0  0
   33.9860   31.8850   36.8860 C   0  0  0  0  0  0  0  0  0  0  0  0
   33.1980   31.2200   35.9610 C   0  0  0  0  0  0  0  0  0  0  0  0
   33.6790   30.6390   34.8500 N   0  0  0  0  0  0  0  0  0  0  0  0
   36.8500   31.3610   35.2580 H   0  0  0  0  0  0  0  0  0  0  0  0
   35.9920   32.4290   37.2930 H   0  0  0  0  0  0  0  0  0  0  0  0
   33.5170   32.3150   37.7380 H   0  0  0  0  0  0  0  0  0  0  0  0
   29.7780   30.5640   35.7300 H   0  0  0  0  0  0  0  0  0  0  0  0
   30.7730   30.4670   35.3090 C   0  0  0  0  0  0  0  0  0  0  0  0
   31.0720   29.8760   34.2280 O   0  0  0  0  0  0  0  0  0  0  0  0
   31.7660   31.0810   36.0950 N   0  0  0  0  0  0  0  0  0  0  0  0
   31.6160   31.5950   37.0070 H   0  0  0  0  0  0  0  0  0  0  0  0
   37.3740   24.6300   32.2430 C   0  0  0  0  0  0  0  0  0  0  0  0
   37.2580   26.0160   32.4010 C   0  0  0  0  0  0  0  0  0  0  0  0
   36.1910   26.7150   31.8720 C   0  0  0  0  0  0  0  0  0  0  0  0
   35.2630   26.0010   31.1960 N   0  0  0  0  0  0  0  0  0  0  0  0
   35.3530   24.6600   31.0310 C   0  0  0  0  0  0  0  0  0  0  0  0
   36.4110   23.9820   31.5570 N   0  0  0  0  0  0  0  0  0  0  0  0
   38.2430   24.1670   32.6900 H   0  0  0  0  0  0  0  0  0  0  0  0
   37.9910   26.6000   32.9380 H   0  0  0  0  0  0  0  0  0  0  0  0
   34.5830   24.1200   30.4780 H   0  0  0  0  0  0  0  0  0  0  0  0
   36.7190   31.1270   30.0030 C   0  0  0  0  0  0  0  0  0  0  0  0
   35.7520   32.0400   29.7360 F   0  0  0  0  0  0  0  0  0  0  0  0
   36.9420   30.4330   28.8200 F   0  0  0  0  0  0  0  0  0  0  0  0
   37.8730   31.8110   30.3670 F   0  0  0  0  0  0  0  0  0  0  0  0
  1  2  1  0  0  0  0
  2  3  2  0  0  0  0
  2  9  1  0  0  0  0
  3 10  1  0  0  0  0
  4  5  2  0  0  0  0
  4  3  1  0  0  0  0
  6  4  1  0  0  0  0
  7  6  1  0  0  0  0
  7  1  1  0  0  0  0
  8  7  2  0  0  0  0
 10 15  2  0  0  0  0
 10 11  1  0  0  0  0
 11 12  2  0  0  0  0
 12 13  1  0  0  0  0
 12 17  1  0  0  0  0
 13 18  1  0  0  0  0
 14 22  1  0  0  0  0
 14 13  2  0  0  0  0
 15 14  1  0  0  0  0
 16 11  1  0  0  0  0
 20 19  1  0  0  0  0
 20 22  1  0  0  0  0
 21 20  2  0  0  0  0
 22 23  1  0  0  0  0
 24 25  1  0  0  0  0
 24 30  1  0  0  0  0
 25 31  1  0  0  0  0
 26  1  1  0  0  0  0
 26 25  2  0  0  0  0
 27 26  1  0  0  0  0
 28 27  2  0  0  0  0
 28 29  1  0  0  0  0
 29 24  2  0  0  0  0
 32 28  1  0  0  0  0
 33 36  1  0  0  0  0
 33  6  1  0  0  0  0
 34 33  1  0  0  0  0
 35 33  1  0  0  0  0
M  END
>  <minimizedAffinity>
-5.90491629

$$$$

 OpenBabel03272505333D

 36 38  0  0  0  0  0  0  0  0999 V2000
   38.1500   24.2810   33.9950 N   0  0  0  0  0  0  0  0  0  0  0  0
   37.9270   25.6020   33.7670 C   0  0  0  0  0  0  0  0  0  0  0  0
   37.0540   26.0370   32.7800 C   0  0  0  0  0  0  0  0  0  0  0  0
   36.3980   25.0710   32.0140 C   0  0  0  0  0  0  0  0  0  0  0  0
   35.6020   25.4160   31.1120 O   0  0  0  0  0  0  0  0  0  0  0  0
   36.6280   23.7280   32.2490 N   0  0  0  0  0  0  0  0  0  0  0  0
   37.4870   23.4400   33.2230 C   0  0  0  0  0  0  0  0  0  0  0  0
   37.6610   22.2160   33.3990 O   0  0  0  0  0  0  0  0  0  0  0  0
   38.4370   26.3550   34.3620 H   0  0  0  0  0  0  0  0  0  0  0  0
   36.7840   27.4320   32.4980 C   0  0  0  0  0  0  0  0  0  0  0  0
   36.0900   28.2590   33.3350 C   0  0  0  0  0  0  0  0  0  0  0  0
   35.8130   29.5840   33.1050 C   0  0  0  0  0  0  0  0  0  0  0  0
   36.2730   30.1550   31.9200 C   0  0  0  0  0  0  0  0  0  0  0  0
   36.9750   29.3000   31.0850 C   0  0  0  0  0  0  0  0  0  0  0  0
   37.2130   28.0100   31.3680 N   0  0  0  0  0  0  0  0  0  0  0  0
   35.7080   27.8610   34.2750 H   0  0  0  0  0  0  0  0  0  0  0  0
   35.2610   30.2220   33.7800 H   0  0  0  0  0  0  0  0  0  0  0  0
   36.1330   31.1630   31.6140 H   0  0  0  0  0  0  0  0  0  0  0  0
   38.5160   29.6870   27.9790 H   0  0  0  0  0  0  0  0  0  0  0  0
   38.2610   29.0460   28.8160 C   0  0  0  0  0  0  0  0  0  0  0  0
   38.5650   27.8210   28.9380 O   0  0  0  0  0  0  0  0  0  0  0  0
   37.5280   29.7110   29.8160 N   0  0  0  0  0  0  0  0  0  0  0  0
   37.2290   30.7260   29.8050 H   0  0  0  0  0  0  0  0  0  0  0  0
   41.2720   23.3840   35.7900 C   0  0  0  0  0  0  0  0  0  0  0  0
   40.3950   23.8190   34.7900 C   0  0  0  0  0  0  0  0  0  0  0  0
   39.0290   23.8470   34.9900 C   0  0  0  0  0  0  0  0  0  0  0  0
   38.5770   23.4360   36.1960 N   0  0  0  0  0  0  0  0  0  0  0  0
   39.4050   23.0110   37.1790 C   0  0  0  0  0  0  0  0  0  0  0  0
   40.7510   22.9890   36.9680 N   0  0  0  0  0  0  0  0  0  0  0  0
   42.3250   23.3960   35.5440 H   0  0  0  0  0  0  0  0  0  0  0  0
   40.7420   24.1500   33.8220 H   0  0  0  0  0  0  0  0  0  0  0  0
   39.0000   22.6870   38.1390 H   0  0  0  0  0  0  0  0  0  0  0  0
   35.9460   22.7380   31.4540 C   0  0  0  0  0  0  0  0  0  0  0  0
   35.1450   21.9650   32.2280 F   0  0  0  0  0  0  0  0  0  0  0  0
   36.8100   21.8720   30.7950 F   0  0  0  0  0  0  0  0  0  0  0  0
   35.1490   23.3970   30.5260 F   0  0  0  0  0  0  0  0  0  0  0  0
  1 26  1  0  0  0  0
  2  1  1  0  0  0  0
  2  9  1  0  0  0  0
  3  2  2  0  0  0  0
  4  6  1  0  0  0  0
  4  3  1  0  0  0  0
  5  4  2  0  0  0  0
  6  7  1  0  0  0  0
  7  8  2  0  0  0  0
  7  1  1  0  0  0  0
 10  3  1  0  0  0  0
 10 11  1  0  0  0  0
 11 16  1  0  0  0  0
 12 11  2  0  0  0  0
 12 17  1  0  0  0  0
 13 12  1  0  0  0  0
 14 15  1  0  0  0  0
 14 13  2  0  0  0  0
 15 10  2  0  0  0  0
 18 13  1  0  0  0  0
 19 20  1  0  0  0  0
 20 21  2  0  0  0  0
 20 22  1  0  0  0  0
 22 14  1  0  0  0  0
 23 22  1  0  0  0  0
 24 29  1  0  0  0  0
 25 26  1  0  0  0  0
 25 24  2  0  0  0  0
 26 27  2  0  0  0  0
 27 28  1  0  0  0  0
 28 32  1  0  0  0  0
 29 28  2  0  0  0  0
 30 24  1  0  0  0  0
 31 25  1  0  0  0  0
 33 34  1  0  0  0  0
 33  6  1  0  0  0  0
 35 33  1  0  0  0  0
 36 33  1  0  0  0  0
M  END
>  <minimizedAffinity>
-5.85117817

$$$$
