
 OpenBabel03272508193D

 27 28  0  0  0  0  0  0  0  0999 V2000
   36.5230   30.2700   49.0630 C   0  0  0  0  0  0  0  0  0  0  0  0
   37.0340   30.5720   47.7960 C   0  0  0  0  0  0  0  0  0  0  0  0
   36.0600   30.4870   46.8030 C   0  0  0  0  0  0  0  0  0  0  0  0
   34.7810   30.1480   47.0620 N   0  0  0  0  0  0  0  0  0  0  0  0
   34.3410   29.8670   48.2880 C   0  0  0  0  0  0  0  0  0  0  0  0
   35.2110   29.9270   49.2900 N   0  0  0  0  0  0  0  0  0  0  0  0
   36.3330   30.6990   45.7760 H   0  0  0  0  0  0  0  0  0  0  0  0
   33.3720   29.5840   48.6620 H   0  0  0  0  0  0  0  0  0  0  0  0
   37.4990   30.4420   50.2180 C   0  0  0  0  0  0  0  0  0  0  0  0
   37.1280   30.1820   51.5550 C   0  0  0  0  0  0  0  0  0  0  0  0
   37.7920   29.0300   50.8300 C   0  0  0  0  0  0  0  0  0  0  0  0
   38.4800   30.9170   49.9280 H   0  0  0  0  0  0  0  0  0  0  0  0
   36.0390   30.0230   51.8090 H   0  0  0  0  0  0  0  0  0  0  0  0
   37.7340   30.5880   52.3890 H   0  0  0  0  0  0  0  0  0  0  0  0
   38.8590   28.8400   51.0170 H   0  0  0  0  0  0  0  0  0  0  0  0
   37.2030   28.1830   50.5060 H   0  0  0  0  0  0  0  0  0  0  0  0
   38.4260   30.9110   47.5410 C   0  0  0  0  0  0  0  0  0  0  0  0
   39.0580   30.2660   48.1870 H   0  0  0  0  0  0  0  0  0  0  0  0
   38.6810   31.9720   47.8400 H   0  0  0  0  0  0  0  0  0  0  0  0
   38.8780   30.7880   46.1330 C   0  0  0  0  0  0  0  0  0  0  0  0
   38.3890   29.9160   45.6420 H   0  0  0  0  0  0  0  0  0  0  0  0
   38.5000   31.6750   45.5750 H   0  0  0  0  0  0  0  0  0  0  0  0
   42.1410   31.6700   45.2210 H   0  0  0  0  0  0  0  0  0  0  0  0
   41.0500   31.7500   45.3160 C   0  0  0  0  0  0  0  0  0  0  0  0
   40.4770   32.7450   44.8300 O   0  0  0  0  0  0  0  0  0  0  0  0
   40.3000   30.7410   45.9780 N   0  0  0  0  0  0  0  0  0  0  0  0
   40.8830   29.9350   46.3550 H   0  0  0  0  0  0  0  0  0  0  0  0
  1  6  1  0  0  0  0
  1  9  1  0  0  0  0
  2  1  2  0  0  0  0
  3  4  2  0  0  0  0
  3  2  1  0  0  0  0
  4  5  1  0  0  0  0
  5  8  1  0  0  0  0
  5  6  2  0  0  0  0
  7  3  1  0  0  0  0
  9 11  1  0  0  0  0
  9 10  1  0  0  0  0
 10 13  1  0  0  0  0
 10 14  1  0  0  0  0
 11 15  1  0  0  0  0
 11 10  1  0  0  0  0
 12  9  1  0  0  0  0
 16 11  1  0  0  0  0
 17  2  1  0  0  0  0
 17 19  1  0  0  0  0
 17 18  1  0  0  0  0
 20 17  1  0  0  0  0
 21 20  1  0  0  0  0
 22 20  1  0  0  0  0
 23 24  1  0  0  0  0
 24 26  1  0  0  0  0
 25 24  2  0  0  0  0
 26 20  1  0  0  0  0
 26 27  1  0  0  0  0
M  END
>  <minimizedAffinity>
-4.68457079

>  <minimizedRMSD>
3.97016859

$$$$
