
 OpenBabel03272501143D

 31 33  0  0  1  0  0  0  0  0999 V2000
   36.8340   31.1720   50.2290 C   0  0  1  0  0  0  0  0  0  0  0  0
   36.5250   29.7790   50.1960 C   0  0  1  0  0  0  0  0  0  0  0  0
   37.5650   30.2250   51.1940 C   0  0  0  0  0  0  0  0  0  0  0  0
   36.1710   31.9230   50.7000 H   0  0  0  0  0  0  0  0  0  0  0  0
   36.9690   29.1460   49.3720 H   0  0  0  0  0  0  0  0  0  0  0  0
   38.6260   29.9980   51.0190 H   0  0  0  0  0  0  0  0  0  0  0  0
   37.1690   30.2770   52.2260 H   0  0  0  0  0  0  0  0  0  0  0  0
   37.7900   31.8010   49.2330 C   0  0  0  0  0  0  0  0  0  0  0  0
   38.2480   33.0650   49.5610 C   0  0  0  0  0  0  0  0  0  0  0  0
   39.1110   33.6390   48.6070 C   0  0  0  0  0  0  0  0  0  0  0  0
   39.4370   32.9770   47.4810 N   0  0  0  0  0  0  0  0  0  0  0  0
   38.9600   31.7290   47.2020 C   0  0  0  0  0  0  0  0  0  0  0  0
   38.1160   31.1290   48.1040 N   0  0  0  0  0  0  0  0  0  0  0  0
   37.9460   33.5410   50.4820 H   0  0  0  0  0  0  0  0  0  0  0  0
   39.4950   34.6290   48.8180 H   0  0  0  0  0  0  0  0  0  0  0  0
   39.1950   31.1660   46.3170 H   0  0  0  0  0  0  0  0  0  0  0  0
   35.1740   29.3020   50.6210 C   0  0  0  0  0  0  0  0  0  0  0  0
   35.3340   28.2910   51.0940 H   0  0  0  0  0  0  0  0  0  0  0  0
   34.7140   29.9150   51.4010 H   0  0  0  0  0  0  0  0  0  0  0  0
   34.2660   29.0480   49.4650 C   0  0  0  0  0  0  0  0  0  0  0  0
   34.2750   29.8320   48.3310 C   0  0  0  0  0  0  0  0  0  0  0  0
   33.3770   29.4210   47.4270 N   0  0  0  0  0  0  0  0  0  0  0  0
   32.7890   28.3530   48.0070 C   0  0  0  0  0  0  0  0  0  0  0  0
   33.3160   28.1250   49.2250 N   0  0  0  0  0  0  0  0  0  0  0  0
   34.9190   30.6980   48.1400 H   0  0  0  0  0  0  0  0  0  0  0  0
   33.1810   29.8330   46.4910 H   0  0  0  0  0  0  0  0  0  0  0  0
   29.8830   26.6530   47.3750 H   0  0  0  0  0  0  0  0  0  0  0  0
   30.5570   27.2070   48.0270 C   0  0  0  0  0  0  0  0  0  0  0  0
   30.4270   27.5260   49.2530 O   0  0  0  0  0  0  0  0  0  0  0  0
   31.7530   27.6130   47.3550 N   0  0  0  0  0  0  0  0  0  0  0  0
   31.9920   27.4210   46.3560 H   0  0  0  0  0  0  0  0  0  0  0  0
  1  4  1  1  0  0  0
  1  3  1  0  0  0  0
  2  5  1  6  0  0  0
  2  1  1  0  0  0  0
  2 17  1  0  0  0  0
  2  3  1  0  0  0  0
  3  7  1  0  0  0  0
  6  3  1  0  0  0  0
  8  9  1  0  0  0  0
  8  1  1  0  0  0  0
  9 14  1  0  0  0  0
 10 15  1  0  0  0  0
 10  9  2  0  0  0  0
 11 10  1  0  0  0  0
 12 11  2  0  0  0  0
 12 13  1  0  0  0  0
 13  8  2  0  0  0  0
 16 12  1  0  0  0  0
 17 18  1  0  0  0  0
 17 19  1  0  0  0  0
 20 17  1  0  0  0  0
 21 20  2  0  0  0  0
 22 23  1  0  0  0  0
 22 21  1  0  0  0  0
 23 24  2  0  0  0  0
 24 20  1  0  0  0  0
 25 21  1  0  0  0  0
 26 22  1  0  0  0  0
 27 28  1  0  0  0  0
 28 29  2  0  0  0  0
 30 23  1  0  0  0  0
 30 28  1  0  0  0  0
 31 30  1  0  0  0  0
M  END
>  <minimizedAffinity>
-5.78599405

>  <minimizedRMSD>
0.147541165

$$$$
