
 OpenBabel03272506533D

 40 42  0  0  1  0  0  0  0  0999 V2000
   35.2000   30.4830   48.1400 C   0  0  1  0  0  0  0  0  0  0  0  0
   33.8500   30.5530   47.6350 C   0  0  0  0  0  0  0  0  0  0  0  0
   33.1810   29.2230   47.3380 C   0  0  0  0  0  0  0  0  0  0  0  0
   33.3950   28.1590   48.2880 C   0  0  2  0  0  0  0  0  0  0  0  0
   34.7970   28.0690   48.9110 C   0  0  0  0  0  0  0  0  0  0  0  0
   35.3150   29.4400   49.2320 C   0  0  0  0  0  0  0  0  0  0  0  0
   35.4170   31.4460   48.7070 H   0  0  0  0  0  0  0  0  0  0  0  0
   33.6720   31.1820   46.7570 H   0  0  0  0  0  0  0  0  0  0  0  0
   33.2040   30.9930   48.4440 H   0  0  0  0  0  0  0  0  0  0  0  0
   32.1310   29.4000   47.1270 H   0  0  0  0  0  0  0  0  0  0  0  0
   33.7540   28.9200   46.3980 H   0  0  0  0  0  0  0  0  0  0  0  0
   32.7240   28.1430   49.1700 H   0  0  0  0  0  0  0  0  0  0  0  0
   35.5160   27.5540   48.2770 H   0  0  0  0  0  0  0  0  0  0  0  0
   34.6570   27.6490   49.9240 H   0  0  0  0  0  0  0  0  0  0  0  0
   36.3560   29.3280   49.5920 H   0  0  0  0  0  0  0  0  0  0  0  0
   34.7420   29.8690   50.1110 H   0  0  0  0  0  0  0  0  0  0  0  0
   33.2160   26.8440   47.5960 C   0  0  0  0  0  0  0  0  0  0  0  0
   34.2500   26.4640   46.7130 C   0  0  0  0  0  0  0  0  0  0  0  0
   34.1460   25.3030   45.9750 C   0  0  0  0  0  0  0  0  0  0  0  0
   33.0330   24.5370   46.1180 C   0  0  0  0  0  0  0  0  0  0  0  0
   32.0290   24.9040   46.9720 C   0  0  0  0  0  0  0  0  0  0  0  0
   32.1170   26.0640   47.7160 C   0  0  0  0  0  0  0  0  0  0  0  0
   35.1880   26.9280   46.4420 H   0  0  0  0  0  0  0  0  0  0  0  0
   34.8540   24.8990   45.2720 H   0  0  0  0  0  0  0  0  0  0  0  0
   32.8640   23.5930   45.5710 H   0  0  0  0  0  0  0  0  0  0  0  0
   31.1380   24.2780   47.0750 H   0  0  0  0  0  0  0  0  0  0  0  0
   29.2570   27.2190   49.1010 H   0  0  0  0  0  0  0  0  0  0  0  0
   29.9050   27.1580   48.2120 C   0  0  0  0  0  0  0  0  0  0  0  0
   29.9130   27.5680   47.0210 O   0  0  0  0  0  0  0  0  0  0  0  0
   31.0600   26.3700   48.5720 N   0  0  0  0  0  0  0  0  0  0  0  0
   31.3830   25.8650   49.4530 H   0  0  0  0  0  0  0  0  0  0  0  0
   36.1060   30.3090   45.8200 C   0  0  0  0  0  0  0  0  0  0  0  0
   36.3140   30.4480   47.1830 C   0  0  0  0  0  0  0  0  0  0  0  0
   37.6360   30.5630   47.6180 C   0  0  0  0  0  0  0  0  0  0  0  0
   38.6360   30.5330   46.6920 N   0  0  0  0  0  0  0  0  0  0  0  0
   38.3860   30.3950   45.3690 C   0  0  0  0  0  0  0  0  0  0  0  0
   37.0990   30.2810   44.9320 N   0  0  0  0  0  0  0  0  0  0  0  0
   35.1810   30.2270   45.2990 H   0  0  0  0  0  0  0  0  0  0  0  0
   37.8320   30.6740   48.6800 H   0  0  0  0  0  0  0  0  0  0  0  0
   39.2620   30.3850   44.7340 H   0  0  0  0  0  0  0  0  0  0  0  0
  1  7  1  1  0  0  0
  1  6  1  0  0  0  0
  2  1  1  0  0  0  0
  2  9  1  0  0  0  0
  3  2  1  0  0  0  0
  3  4  1  0  0  0  0
  4  5  1  0  0  0  0
  4 12  1  1  0  0  0
  5  6  1  0  0  0  0
  5 14  1  0  0  0  0
  6 15  1  0  0  0  0
  6 16  1  0  0  0  0
  8  2  1  0  0  0  0
 10  3  1  0  0  0  0
 11  3  1  0  0  0  0
 13  5  1  0  0  0  0
 17 22  1  0  0  0  0
 17  4  1  0  0  0  0
 18 17  2  0  0  0  0
 19 20  2  0  0  0  0
 19 18  1  0  0  0  0
 20 21  1  0  0  0  0
 21 26  1  0  0  0  0
 21 22  2  0  0  0  0
 22 30  1  0  0  0  0
 23 18  1  0  0  0  0
 24 19  1  0  0  0  0
 25 20  1  0  0  0  0
 28 30  1  0  0  0  0
 28 27  1  0  0  0  0
 29 28  2  0  0  0  0
 30 31  1  0  0  0  0
 32 33  1  0  0  0  0
 33 34  2  0  0  0  0
 33  1  1  0  0  0  0
 34 39  1  0  0  0  0
 35 34  1  0  0  0  0
 36 35  2  0  0  0  0
 37 36  1  0  0  0  0
 37 32  2  0  0  0  0
 38 32  1  0  0  0  0
 40 36  1  0  0  0  0
M  END
>  <minimizedAffinity>
-4.38308382

>  <minimizedRMSD>
2.12436628

$$$$
