
 OpenBabel03272507383D

 30 31  0  0  0  0  0  0  0  0999 V2000
   38.5020   32.4600   46.9210 C   0  0  0  0  0  0  0  0  0  0  0  0
   38.0400   32.6320   48.2090 C   0  0  0  0  0  0  0  0  0  0  0  0
   38.6880   33.4890   49.0900 C   0  0  0  0  0  0  0  0  0  0  0  0
   39.8100   34.1780   48.6750 C   0  0  0  0  0  0  0  0  0  0  0  0
   40.2830   34.0060   47.3640 C   0  0  0  0  0  0  0  0  0  0  0  0
   39.6150   33.1400   46.4980 C   0  0  0  0  0  0  0  0  0  0  0  0
   38.3930   33.6750   50.0990 H   0  0  0  0  0  0  0  0  0  0  0  0
   40.3390   34.8520   49.3360 H   0  0  0  0  0  0  0  0  0  0  0  0
   41.1580   34.5260   46.9960 H   0  0  0  0  0  0  0  0  0  0  0  0
   41.3420   31.5910   43.9090 H   0  0  0  0  0  0  0  0  0  0  0  0
   40.9460   31.8450   44.8720 C   0  0  0  0  0  0  0  0  0  0  0  0
   41.3130   31.1130   45.8240 O   0  0  0  0  0  0  0  0  0  0  0  0
   40.0530   32.9300   45.1600 N   0  0  0  0  0  0  0  0  0  0  0  0
   39.7800   33.5060   44.3370 H   0  0  0  0  0  0  0  0  0  0  0  0
   37.2140   30.8290   45.4080 N   0  0  0  0  0  0  0  0  0  0  0  0
   37.7860   31.5570   46.0960 C   0  0  0  0  0  0  0  0  0  0  0  0
   36.9400   32.0230   48.7770 O   0  0  0  0  0  0  0  0  0  0  0  0
   37.0060   31.0280   49.7100 C   0  0  0  0  0  0  0  0  0  0  0  0
   36.4040   29.8560   49.2660 C   0  0  0  0  0  0  0  0  0  0  0  0
   36.3660   28.7380   50.0590 C   0  0  0  0  0  0  0  0  0  0  0  0
   36.9490   28.8280   51.3030 N   0  0  0  0  0  0  0  0  0  0  0  0
   37.5300   29.9650   51.7240 C   0  0  0  0  0  0  0  0  0  0  0  0
   37.5540   31.0350   50.9410 N   0  0  0  0  0  0  0  0  0  0  0  0
   35.9190   27.7910   49.7910 H   0  0  0  0  0  0  0  0  0  0  0  0
   38.0140   30.1600   52.6620 H   0  0  0  0  0  0  0  0  0  0  0  0
   34.4940   29.1430   47.9210 C   0  0  0  0  0  0  0  0  0  0  0  0
   33.5770   28.8070   48.7770 O   0  0  0  0  0  0  0  0  0  0  0  0
   35.7970   29.7020   48.0160 N   0  0  0  0  0  0  0  0  0  0  0  0
   33.5890   28.7330   47.4860 H   0  0  0  0  0  0  0  0  0  0  0  0
   35.8480   29.8060   47.0000 H   0  0  0  0  0  0  0  0  0  0  0  0
  1  2  1  0  0  0  0
  2 17  1  0  0  0  0
  2  3  2  0  0  0  0
  3  7  1  0  0  0  0
  4  3  1  0  0  0  0
  4  8  1  0  0  0  0
  5  4  2  0  0  0  0
  6  1  2  0  0  0  0
  6  5  1  0  0  0  0
  9  5  1  0  0  0  0
 10 11  1  0  0  0  0
 11 13  1  0  0  0  0
 11 12  2  0  0  0  0
 13  6  1  0  0  0  0
 14 13  1  0  0  0  0
 15 16  3  0  0  0  0
 16  1  1  0  0  0  0
 17 18  1  0  0  0  0
 18 23  1  0  0  0  0
 19 18  2  0  0  0  0
 19 20  1  0  0  0  0
 20 21  2  0  0  0  0
 21 22  1  0  0  0  0
 22 25  1  0  0  0  0
 23 22  2  0  0  0  0
 24 20  1  0  0  0  0
 26 28  1  0  0  0  0
 26 27  2  0  0  0  0
 28 19  1  0  0  0  0
 29 26  1  0  0  0  0
 30 28  1  0  0  0  0
M  END
>  <minimizedAffinity>
-4.9006238

>  <minimizedRMSD>
0.920302212

$$$$
