
     RDKit          3D

 24 25  0  0  0  0  0  0  0  0999 V2000
   37.9885   33.1707   49.4335 C   0  0  0  0  0  0  0  0  0  0  0  0
   39.0301   33.1563   48.4521 C   0  0  0  0  0  0  0  0  0  0  0  0
   39.0110   32.1207   47.5342 C   0  0  0  0  0  0  0  0  0  0  0  0
   38.0192   31.1805   47.6067 N   0  0  0  0  0  0  0  0  0  0  0  0
   37.0518   31.2326   48.5531 C   0  0  0  0  0  0  0  0  0  0  0  0
   37.0384   32.2258   49.4629 N   0  0  0  0  0  0  0  0  0  0  0  0
   37.2645   29.3584   51.0521 Br  0  0  0  0  0  0  0  0  0  0  0  0
   35.9462   29.3137   49.6573 C   0  0  0  0  0  0  0  0  0  0  0  0
   35.9980   30.2206   48.6183 C   0  0  0  0  0  0  0  0  0  0  0  0
   35.0150   30.1284   47.6495 C   0  0  0  0  0  0  0  0  0  0  0  0
   34.0078   29.1767   47.6928 C   0  0  0  0  0  0  0  0  0  0  0  0
   33.9996   28.2976   48.7464 C   0  0  0  0  0  0  0  0  0  0  0  0
   34.9678   28.3690   49.7240 C   0  0  0  0  0  0  0  0  0  0  0  0
   38.0011   33.9813   50.1541 H   0  0  0  0  0  0  0  0  0  0  0  0
   39.7940   33.9231   48.4348 H   0  0  0  0  0  0  0  0  0  0  0  0
   39.7749   32.0473   46.7578 H   0  0  0  0  0  0  0  0  0  0  0  0
   35.1050   30.8672   46.8553 H   0  0  0  0  0  0  0  0  0  0  0  0
   33.1986   27.5744   48.7403 H   0  0  0  0  0  0  0  0  0  0  0  0
   34.8636   27.6298   50.5030 H   0  0  0  0  0  0  0  0  0  0  0  0
   33.3011   29.4964   44.2955 H   0  0  0  0  0  0  0  0  0  0  0  0
   33.6444   29.4075   45.3057 C   0  0  0  0  0  0  0  0  0  0  0  0
   34.8263   29.5058   44.8849 O   0  0  0  0  0  0  0  0  0  0  0  0
   33.1025   29.2468   46.6133 N   0  0  0  0  0  0  0  0  0  0  0  0
   32.0652   29.2105   46.5014 H   0  0  0  0  0  0  0  0  0  0  0  0
  1  6  2  0
  2  1  1  0
  3  4  1  0
  3  2  2  0
  4  5  2  0
  5  9  1  0
  5  6  1  0
  8 13  2  0
  8  7  1  0
  9  8  1  0
 10 11  1  0
 10  9  2  0
 11 12  2  0
 12 13  1  0
  1 14  1  0
  2 15  1  0
  3 16  1  0
 10 17  1  0
 12 18  1  0
 13 19  1  0
 20 21  1  0
 21 22  2  0
 21 23  1  0
 23 24  1  0
 11 23  1  0
M  ISO  7  14  14  15  14  16  14  17  14  18  14  19  14  20   1
M  END
>  <DihAtoms>  (1) 
9,10,22,20

>  <DihDeg>  (1) 
89.99706868859354

$$$$
