
 OpenBabel03272500493D

 41 45  0  0  1  0  0  0  0  0999 V2000
   31.9110   27.9380   48.0060 C   0  0  1  0  0  0  0  0  0  0  0  0
   32.7680   26.7450   47.4340 C   0  0  0  0  0  0  0  0  0  0  0  0
   32.6380   28.0700   46.7440 C   0  0  2  0  0  0  0  0  0  0  0  0
   32.3440   28.3330   48.9650 H   0  0  0  0  0  0  0  0  0  0  0  0
   32.1800   25.8980   47.0560 H   0  0  0  0  0  0  0  0  0  0  0  0
   33.7380   26.5670   47.9070 H   0  0  0  0  0  0  0  0  0  0  0  0
   32.0580   28.0510   45.7990 H   0  0  0  0  0  0  0  0  0  0  0  0
   28.3370   28.2480   48.3000 C   0  0  0  0  0  0  0  0  0  0  0  0
   28.4430   26.9470   47.8110 C   0  0  0  0  0  0  0  0  0  0  0  0
   29.8130   26.6560   47.6350 C   0  0  0  0  0  0  0  0  0  0  0  0
   30.4740   27.7570   48.0110 N   0  0  0  0  0  0  0  0  0  0  0  0
   29.5860   28.6500   48.3870 N   0  0  0  0  0  0  0  0  0  0  0  0
   27.6810   26.1940   47.5700 H   0  0  0  0  0  0  0  0  0  0  0  0
   30.2540   25.7500   47.2770 H   0  0  0  0  0  0  0  0  0  0  0  0
   25.9410   28.1410   49.0370 C   0  0  0  0  0  0  0  0  0  0  0  0
   27.0870   28.8770   48.5960 C   0  0  0  0  0  0  0  0  0  0  0  0
   26.9420   30.2410   48.4630 C   0  0  0  0  0  0  0  0  0  0  0  0
   25.7360   30.8090   48.7530 N   0  0  0  0  0  0  0  0  0  0  0  0
   24.6860   30.0870   49.1640 C   0  0  0  0  0  0  0  0  0  0  0  0
   24.7740   28.7260   49.3140 N   0  0  0  0  0  0  0  0  0  0  0  0
   26.0300   27.0730   49.1490 H   0  0  0  0  0  0  0  0  0  0  0  0
   27.7510   30.8820   48.1360 H   0  0  0  0  0  0  0  0  0  0  0  0
   23.7200   30.5220   49.4000 H   0  0  0  0  0  0  0  0  0  0  0  0
   33.8370   28.9680   46.6650 C   0  0  0  0  0  0  0  0  0  0  0  0
   34.2990   29.5920   45.5200 C   0  0  0  0  0  0  0  0  0  0  0  0
   35.3900   30.3290   45.8600 N   0  0  0  0  0  0  0  0  0  0  0  0
   35.6200   30.1810   47.1890 C   0  0  0  0  0  0  0  0  0  0  0  0
   34.6710   29.3500   47.6710 N   0  0  0  0  0  0  0  0  0  0  0  0
   33.8960   29.5330   44.5160 H   0  0  0  0  0  0  0  0  0  0  0  0
   35.9600   30.9170   45.2010 H   0  0  0  0  0  0  0  0  0  0  0  0
   36.7060   30.8100   47.9920 C   0  0  0  0  0  0  0  0  0  0  0  0
   36.9650   30.4290   49.3100 C   0  0  0  0  0  0  0  0  0  0  0  0
   38.3620   31.5000   49.8050 S   0  0  0  0  0  0  0  0  0  0  0  0
   38.3640   32.3140   48.0850 C   0  0  0  0  0  0  0  0  0  0  0  0
   37.5140   31.7650   47.5670 N   0  0  0  0  0  0  0  0  0  0  0  0
   36.4240   29.6610   49.8660 H   0  0  0  0  0  0  0  0  0  0  0  0
   40.6860   33.5200   45.9120 H   0  0  0  0  0  0  0  0  0  0  0  0
   39.9780   32.9300   46.4540 C   0  0  0  0  0  0  0  0  0  0  0  0
   39.8500   31.7580   45.9770 O   0  0  0  0  0  0  0  0  0  0  0  0
   39.2370   33.3630   47.5900 N   0  0  0  0  0  0  0  0  0  0  0  0
   39.3870   34.3370   47.9330 H   0  0  0  0  0  0  0  0  0  0  0  0
  1 11  1  0  0  0  0
  1  4  1  1  0  0  0
  2  6  1  0  0  0  0
  2  1  1  0  0  0  0
  3  7  1  6  0  0  0
  3  2  1  0  0  0  0
  3  1  1  0  0  0  0
  5  2  1  0  0  0  0
  8 12  2  0  0  0  0
  8 16  1  0  0  0  0
  9  8  1  0  0  0  0
 10  9  2  0  0  0  0
 10 11  1  0  0  0  0
 11 12  1  0  0  0  0
 13  9  1  0  0  0  0
 14 10  1  0  0  0  0
 15 21  1  0  0  0  0
 15 20  1  0  0  0  0
 16 15  2  0  0  0  0
 17 16  1  0  0  0  0
 17 18  2  0  0  0  0
 18 19  1  0  0  0  0
 19 20  2  0  0  0  0
 19 23  1  0  0  0  0
 22 17  1  0  0  0  0
 24  3  1  0  0  0  0
 24 28  1  0  0  0  0
 25 26  1  0  0  0  0
 25 24  2  0  0  0  0
 26 27  1  0  0  0  0
 27 28  2  0  0  0  0
 27 31  1  0  0  0  0
 29 25  1  0  0  0  0
 30 26  1  0  0  0  0
 31 32  2  0  0  0  0
 32 33  1  0  0  0  0
 32 36  1  0  0  0  0
 34 33  1  0  0  0  0
 35 31  1  0  0  0  0
 35 34  2  0  0  0  0
 37 38  1  0  0  0  0
 38 40  1  0  0  0  0
 39 38  2  0  0  0  0
 40 41  1  0  0  0  0
 40 34  1  0  0  0  0
M  END
>  <minimizedAffinity>
-6.66586781

>  <minimizedRMSD>
0.891153991

$$$$
