REMARK  Name = 
REMARK  2 active torsions:
REMARK  status: ('A' for Active; 'I' for Inactive)
REMARK    1  A    between atoms: C_5  and  C_9
REMARK    2  A    between atoms: C_11  and  N_23
REMARK                            x       y       z     vdW  Elec       q    Type
REMARK                         _______ _______ _______ _____ _____    ______ ____
ROOT
ATOM      1 BR   UNL     1      37.264  29.358  51.052  0.00  0.00    +0.000 Br
ATOM      2  C   UNL     1      35.946  29.314  49.657  0.00  0.00    +0.000 A 
ATOM      3  C   UNL     1      35.998  30.221  48.618  0.00  0.00    +0.000 A 
ATOM      4  C   UNL     1      35.015  30.128  47.650  0.00  0.00    +0.000 A 
ATOM      5  C   UNL     1      34.008  29.177  47.693  0.00  0.00    +0.000 A 
ATOM      6  C   UNL     1      34.000  28.298  48.746  0.00  0.00    +0.000 A 
ATOM      7  C   UNL     1      34.968  28.369  49.724  0.00  0.00    +0.000 A 
ATOM      8  H   UNL     1      35.105  30.867  46.855  0.00  0.00    +0.000 HD
ATOM      9  H   UNL     1      33.199  27.574  48.740  0.00  0.00    +0.000 HD
ATOM     10  H   UNL     1      34.864  27.630  50.503  0.00  0.00    +0.000 HD
ENDROOT
BRANCH   3  15
ATOM     11  C   UNL     1      37.989  33.171  49.434  0.00  0.00    +0.000 A 
ATOM     12  C   UNL     1      39.030  33.156  48.452  0.00  0.00    +0.000 A 
ATOM     13  C   UNL     1      39.011  32.121  47.534  0.00  0.00    +0.000 A 
ATOM     14  N   UNL     1      38.019  31.180  47.607  0.00  0.00    +0.000 NA
ATOM     15  C   UNL     1      37.052  31.233  48.553  0.00  0.00    +0.000 A 
ATOM     16  N   UNL     1      37.038  32.226  49.463  0.00  0.00    +0.000 NA
ATOM     17  H   UNL     1      38.001  33.981  50.154  0.00  0.00    +0.000 HD
ATOM     18  H   UNL     1      39.794  33.923  48.435  0.00  0.00    +0.000 HD
ATOM     19  H   UNL     1      39.775  32.047  46.758  0.00  0.00    +0.000 HD
ENDBRANCH   3  15
BRANCH   5  23
ATOM     20  H   UNL     1      33.170  28.654  44.351  0.00  0.00    +0.000 HD
ATOM     21  C   UNL     1      33.544  28.763  45.348  0.00  0.00    +0.000 C 
ATOM     22  O   UNL     1      34.632  28.258  44.967  0.00  0.00    +0.000 OA
ATOM     23  N   UNL     1      33.102  29.247  46.613  0.00  0.00    +0.000 N 
ATOM     24  H   UNL     1      32.123  29.581  46.477  0.00  0.00    +0.000 HD
ENDBRANCH   5  23
TORSDOF 2
