
 OpenBabel03272510143D

 24 25  0  0  0  0  0  0  0  0999 V2000
   37.0490   29.6830   51.2520 Br  0  0  0  0  0  0  0  0  0  0  0  0
   35.9640   29.3780   49.6980 C   0  0  0  0  0  0  0  0  0  0  0  0
   36.1390   30.1410   48.5620 C   0  0  0  0  0  0  0  0  0  0  0  0
   35.3210   29.8630   47.4820 C   0  0  0  0  0  0  0  0  0  0  0  0
   34.3570   28.8680   47.5090 C   0  0  0  0  0  0  0  0  0  0  0  0
   34.2220   28.1360   48.6620 C   0  0  0  0  0  0  0  0  0  0  0  0
   35.0250   28.3930   49.7520 C   0  0  0  0  0  0  0  0  0  0  0  0
   35.5030   30.4950   46.6140 H   0  0  0  0  0  0  0  0  0  0  0  0
   33.4600   27.3710   48.6390 H   0  0  0  0  0  0  0  0  0  0  0  0
   34.8310   27.7580   50.6020 H   0  0  0  0  0  0  0  0  0  0  0  0
   37.9890   33.1750   49.4030 C   0  0  0  0  0  0  0  0  0  0  0  0
   39.0470   33.2020   48.4390 C   0  0  0  0  0  0  0  0  0  0  0  0
   39.0880   32.1650   47.5250 C   0  0  0  0  0  0  0  0  0  0  0  0
   38.1360   31.1830   47.5830 N   0  0  0  0  0  0  0  0  0  0  0  0
   37.1510   31.1970   48.5120 C   0  0  0  0  0  0  0  0  0  0  0  0
   37.0790   32.1910   49.4180 N   0  0  0  0  0  0  0  0  0  0  0  0
   37.9540   33.9870   50.1200 H   0  0  0  0  0  0  0  0  0  0  0  0
   39.7780   34.0000   48.4330 H   0  0  0  0  0  0  0  0  0  0  0  0
   39.8680   32.1210   46.7620 H   0  0  0  0  0  0  0  0  0  0  0  0
   32.1480   30.1060   45.1150 H   0  0  0  0  0  0  0  0  0  0  0  0
   32.8100   29.8400   45.9130 C   0  0  0  0  0  0  0  0  0  0  0  0
   32.5910   30.9630   46.4350 O   0  0  0  0  0  0  0  0  0  0  0  0
   33.6260   28.7410   46.3090 N   0  0  0  0  0  0  0  0  0  0  0  0
   33.5110   28.0070   45.5760 H   0  0  0  0  0  0  0  0  0  0  0  0
  2  7  1  0  0  0  0
  2  1  1  0  0  0  0
  3  2  2  0  0  0  0
  4  5  2  0  0  0  0
  4  3  1  0  0  0  0
  5  6  1  0  0  0  0
  6  7  2  0  0  0  0
  7 10  1  0  0  0  0
  8  4  1  0  0  0  0
  9  6  1  0  0  0  0
 11 16  1  0  0  0  0
 11 17  1  0  0  0  0
 12 11  2  0  0  0  0
 13 14  2  0  0  0  0
 13 12  1  0  0  0  0
 14 15  1  0  0  0  0
 15  3  1  0  0  0  0
 15 16  2  0  0  0  0
 18 12  1  0  0  0  0
 19 13  1  0  0  0  0
 20 21  1  0  0  0  0
 21 23  1  0  0  0  0
 21 22  2  0  0  0  0
 23  5  1  0  0  0  0
 24 23  1  0  0  0  0
M  END
>  <minimizedAffinity>
-5.58797312

>  <minimizedRMSD>
0.410784572

$$$$
