
 OpenBabel03272504133D

 27 28  0  0  0  0  0  0  0  0999 V2000
   38.3740   32.5120   47.8670 Cl  0  0  0  0  0  0  0  0  0  0  0  0
   37.7020   31.7420   46.4180 C   0  0  0  0  0  0  0  0  0  0  0  0
   36.6910   30.7920   46.4800 C   0  0  0  0  0  0  0  0  0  0  0  0
   36.2750   30.2900   45.2950 C   0  0  0  0  0  0  0  0  0  0  0  0
   36.8020   30.6760   44.0930 C   0  0  0  0  0  0  0  0  0  0  0  0
   37.8120   31.6240   44.0100 C   0  0  0  0  0  0  0  0  0  0  0  0
   38.2430   32.1420   45.2160 C   0  0  0  0  0  0  0  0  0  0  0  0
   35.4880   29.5470   45.3040 H   0  0  0  0  0  0  0  0  0  0  0  0
   36.4160   30.2280   43.1880 H   0  0  0  0  0  0  0  0  0  0  0  0
   38.2300   31.9330   43.0680 H   0  0  0  0  0  0  0  0  0  0  0  0
   36.5160   29.8900   50.1150 C   0  0  0  0  0  0  0  0  0  0  0  0
   37.0270   30.2400   48.8680 C   0  0  0  0  0  0  0  0  0  0  0  0
   36.1810   30.4310   47.7800 C   0  0  0  0  0  0  0  0  0  0  0  0
   34.8470   30.2530   48.0220 N   0  0  0  0  0  0  0  0  0  0  0  0
   34.3650   29.9170   49.2260 C   0  0  0  0  0  0  0  0  0  0  0  0
   35.2090   29.7400   50.2590 N   0  0  0  0  0  0  0  0  0  0  0  0
   38.0990   30.3700   48.7190 H   0  0  0  0  0  0  0  0  0  0  0  0
   33.2920   29.8050   49.3000 H   0  0  0  0  0  0  0  0  0  0  0  0
   37.4640   29.6930   51.2650 C   0  0  0  0  0  0  0  0  0  0  0  0
   36.8060   29.9330   52.4530 F   0  0  0  0  0  0  0  0  0  0  0  0
   37.9960   28.4340   51.1450 F   0  0  0  0  0  0  0  0  0  0  0  0
   38.4660   30.6560   51.1420 F   0  0  0  0  0  0  0  0  0  0  0  0
   41.1070   34.0780   45.1260 H   0  0  0  0  0  0  0  0  0  0  0  0
   40.7070   33.0560   45.2050 C   0  0  0  0  0  0  0  0  0  0  0  0
   41.1880   31.9000   45.3240 O   0  0  0  0  0  0  0  0  0  0  0  0
   39.2880   33.1260   45.1570 N   0  0  0  0  0  0  0  0  0  0  0  0
   38.6840   33.9960   45.0620 H   0  0  0  0  0  0  0  0  0  0  0  0
  2  3  1  0  0  0  0
  2  1  1  0  0  0  0
  3 13  1  0  0  0  0
  4  8  1  0  0  0  0
  4  3  2  0  0  0  0
  5  4  1  0  0  0  0
  6  5  2  0  0  0  0
  6  7  1  0  0  0  0
  7  2  2  0  0  0  0
  9  5  1  0  0  0  0
 10  6  1  0  0  0  0
 11 16  1  0  0  0  0
 11 19  1  0  0  0  0
 12 11  2  0  0  0  0
 13 14  2  0  0  0  0
 13 12  1  0  0  0  0
 14 15  1  0  0  0  0
 15 18  1  0  0  0  0
 15 16  2  0  0  0  0
 17 12  1  0  0  0  0
 19 20  1  0  0  0  0
 21 19  1  0  0  0  0
 22 19  1  0  0  0  0
 23 24  1  0  0  0  0
 24 25  2  0  0  0  0
 26 24  1  0  0  0  0
 26  7  1  0  0  0  0
 27 26  1  0  0  0  0
M  END
>  <minimizedAffinity>
-6.18586063

>  <minimizedRMSD>
2.06782866

$$$$
