
 OpenBabel03262523003D

 34 37  0  0  0  0  0  0  0  0999 V2000
   37.7190   25.5040   35.0670 C   0  0  0  0  0  0  0  0  0  0  0  0
   37.8070   25.0870   33.7360 C   0  0  0  0  0  0  0  0  0  0  0  0
   37.3130   26.0910   32.9430 C   0  0  0  0  0  0  0  0  0  0  0  0
   36.9320   27.1040   33.8070 N   0  0  0  0  0  0  0  0  0  0  0  0
   37.1930   26.7050   35.0390 N   0  0  0  0  0  0  0  0  0  0  0  0
   36.4640   28.7540   32.0480 N   0  0  0  0  0  0  0  0  0  0  0  0
   36.3650   28.3170   33.3210 C   0  0  0  0  0  0  0  0  0  0  0  0
   35.6430   29.2370   33.9910 N   0  0  0  0  0  0  0  0  0  0  0  0
   35.2860   30.2420   33.1650 C   0  0  0  0  0  0  0  0  0  0  0  0
   34.5800   31.4100   33.2380 C   0  0  0  0  0  0  0  0  0  0  0  0
   34.4310   32.1770   32.1480 N   0  0  0  0  0  0  0  0  0  0  0  0
   34.9620   31.8330   30.9550 C   0  0  0  0  0  0  0  0  0  0  0  0
   35.6620   30.6990   30.8310 N   0  0  0  0  0  0  0  0  0  0  0  0
   35.8090   29.9290   31.9350 C   0  0  0  0  0  0  0  0  0  0  0  0
   38.2100   24.1130   33.4290 H   0  0  0  0  0  0  0  0  0  0  0  0
   37.2420   26.0800   31.8570 H   0  0  0  0  0  0  0  0  0  0  0  0
   36.9690   28.2640   31.2530 H   0  0  0  0  0  0  0  0  0  0  0  0
   34.8130   32.4880   30.1050 H   0  0  0  0  0  0  0  0  0  0  0  0
   38.2190   24.3870   38.5210 C   0  0  0  0  0  0  0  0  0  0  0  0
   38.9650   23.1910   38.3370 C   0  0  0  0  0  0  0  0  0  0  0  0
   39.2840   22.7870   37.0350 C   0  0  0  0  0  0  0  0  0  0  0  0
   38.8480   23.5840   36.0290 N   0  0  0  0  0  0  0  0  0  0  0  0
   38.1410   24.7190   36.2140 C   0  0  0  0  0  0  0  0  0  0  0  0
   37.8420   25.0950   37.4510 N   0  0  0  0  0  0  0  0  0  0  0  0
   37.9870   24.6740   39.5400 H   0  0  0  0  0  0  0  0  0  0  0  0
   39.2920   22.5850   39.1720 H   0  0  0  0  0  0  0  0  0  0  0  0
   41.8910   20.5690   36.7610 H   0  0  0  0  0  0  0  0  0  0  0  0
   41.4370   21.5240   36.9970 C   0  0  0  0  0  0  0  0  0  0  0  0
   41.9130   22.6050   37.4380 O   0  0  0  0  0  0  0  0  0  0  0  0
   40.0270   21.6010   36.7750 N   0  0  0  0  0  0  0  0  0  0  0  0
   39.4950   20.7810   36.4100 H   0  0  0  0  0  0  0  0  0  0  0  0
   34.0290   31.7490   34.5000 N   0  0  0  0  0  0  0  0  0  0  0  0
   33.0600   31.3440   34.3860 H   0  0  0  0  0  0  0  0  0  0  0  0
   34.4060   32.2440   35.3310 H   0  0  0  0  0  0  0  0  0  0  0  0
  1 23  1  0  0  0  0
  2  1  1  0  0  0  0
  3  2  2  0  0  0  0
  3  4  1  0  0  0  0
  4  5  1  0  0  0  0
  5  1  2  0  0  0  0
  6  7  1  0  0  0  0
  7  4  1  0  0  0  0
  7  8  2  0  0  0  0
  9 10  1  0  0  0  0
  9  8  1  0  0  0  0
 10 32  1  0  0  0  0
 11 10  2  0  0  0  0
 12 11  1  0  0  0  0
 13 12  2  0  0  0  0
 13 14  1  0  0  0  0
 14  6  1  0  0  0  0
 14  9  2  0  0  0  0
 15  2  1  0  0  0  0
 16  3  1  0  0  0  0
 17  6  1  0  0  0  0
 18 12  1  0  0  0  0
 19 25  1  0  0  0  0
 20 19  1  0  0  0  0
 20 26  1  0  0  0  0
 21 20  2  0  0  0  0
 22 23  2  0  0  0  0
 22 21  1  0  0  0  0
 23 24  1  0  0  0  0
 24 19  2  0  0  0  0
 27 28  1  0  0  0  0
 28 29  2  0  0  0  0
 30 28  1  0  0  0  0
 30 21  1  0  0  0  0
 31 30  1  0  0  0  0
 32 34  1  0  0  0  0
 33 32  1  0  0  0  0
M  END
>  <minimizedAffinity>
-5.98311138

$$$$

 OpenBabel03262523003D

 34 37  0  0  0  0  0  0  0  0999 V2000
   37.5610   27.4690   33.1290 C   0  0  0  0  0  0  0  0  0  0  0  0
   38.7080   27.3810   32.3350 C   0  0  0  0  0  0  0  0  0  0  0  0
   39.5120   26.4010   32.8580 C   0  0  0  0  0  0  0  0  0  0  0  0
   38.8390   25.9080   33.9630 N   0  0  0  0  0  0  0  0  0  0  0  0
   37.7020   26.5700   34.0740 N   0  0  0  0  0  0  0  0  0  0  0  0
   40.3800   24.0370   34.3640 N   0  0  0  0  0  0  0  0  0  0  0  0
   39.3930   24.8650   34.7610 C   0  0  0  0  0  0  0  0  0  0  0  0
   39.0680   24.5050   36.0190 N   0  0  0  0  0  0  0  0  0  0  0  0
   39.8330   23.4690   36.4200 C   0  0  0  0  0  0  0  0  0  0  0  0
   39.9810   22.6920   37.5350 C   0  0  0  0  0  0  0  0  0  0  0  0
   40.8960   21.7120   37.5560 N   0  0  0  0  0  0  0  0  0  0  0  0
   41.6940   21.4560   36.4960 C   0  0  0  0  0  0  0  0  0  0  0  0
   41.5880   22.1890   35.3810 N   0  0  0  0  0  0  0  0  0  0  0  0
   40.6620   23.1760   35.3660 C   0  0  0  0  0  0  0  0  0  0  0  0
   38.8870   28.0110   31.4550 H   0  0  0  0  0  0  0  0  0  0  0  0
   40.4790   26.0850   32.4710 H   0  0  0  0  0  0  0  0  0  0  0  0
   40.8680   24.0470   33.4200 H   0  0  0  0  0  0  0  0  0  0  0  0
   42.4170   20.6530   36.5650 H   0  0  0  0  0  0  0  0  0  0  0  0
   35.2830   29.8290   31.4960 C   0  0  0  0  0  0  0  0  0  0  0  0
   34.3660   30.1230   32.5420 C   0  0  0  0  0  0  0  0  0  0  0  0
   34.5420   29.5090   33.7880 C   0  0  0  0  0  0  0  0  0  0  0  0
   35.5970   28.6640   33.9040 N   0  0  0  0  0  0  0  0  0  0  0  0
   36.4620   28.3920   32.9040 C   0  0  0  0  0  0  0  0  0  0  0  0
   36.2880   28.9770   31.7250 N   0  0  0  0  0  0  0  0  0  0  0  0
   35.1210   30.3190   30.5430 H   0  0  0  0  0  0  0  0  0  0  0  0
   33.5380   30.8050   32.4030 H   0  0  0  0  0  0  0  0  0  0  0  0
   32.9890   31.0430   36.4370 H   0  0  0  0  0  0  0  0  0  0  0  0
   33.7050   30.9720   35.6280 C   0  0  0  0  0  0  0  0  0  0  0  0
   34.5880   31.7670   35.2050 O   0  0  0  0  0  0  0  0  0  0  0  0
   33.6650   29.7550   34.8800 N   0  0  0  0  0  0  0  0  0  0  0  0
   32.9830   29.0020   35.1170 H   0  0  0  0  0  0  0  0  0  0  0  0
   39.1350   22.9800   38.6350 N   0  0  0  0  0  0  0  0  0  0  0  0
   39.7680   23.6260   39.1820 H   0  0  0  0  0  0  0  0  0  0  0  0
   38.1740   22.6830   38.8910 H   0  0  0  0  0  0  0  0  0  0  0  0
  1  5  2  0  0  0  0
  2  3  2  0  0  0  0
  2  1  1  0  0  0  0
  3  4  1  0  0  0  0
  4  5  1  0  0  0  0
  4  7  1  0  0  0  0
  6  7  1  0  0  0  0
  6 14  1  0  0  0  0
  7  8  2  0  0  0  0
  8  9  1  0  0  0  0
  9 10  1  0  0  0  0
 10 11  2  0  0  0  0
 10 32  1  0  0  0  0
 12 18  1  0  0  0  0
 12 11  1  0  0  0  0
 13 12  2  0  0  0  0
 14 13  1  0  0  0  0
 14  9  2  0  0  0  0
 15  2  1  0  0  0  0
 16  3  1  0  0  0  0
 17  6  1  0  0  0  0
 19 24  2  0  0  0  0
 19 20  1  0  0  0  0
 20 21  2  0  0  0  0
 21 22  1  0  0  0  0
 21 30  1  0  0  0  0
 23  1  1  0  0  0  0
 23 22  2  0  0  0  0
 24 23  1  0  0  0  0
 25 19  1  0  0  0  0
 26 20  1  0  0  0  0
 28 27  1  0  0  0  0
 29 28  2  0  0  0  0
 30 31  1  0  0  0  0
 30 28  1  0  0  0  0
 32 34  1  0  0  0  0
 32 33  1  0  0  0  0
M  END
>  <minimizedAffinity>
-5.97005796

$$$$

 OpenBabel03262523003D

 34 37  0  0  0  0  0  0  0  0999 V2000
   36.5910   28.2270   32.6510 C   0  0  0  0  0  0  0  0  0  0  0  0
   37.7180   27.9370   31.8770 C   0  0  0  0  0  0  0  0  0  0  0  0
   38.4380   26.9660   32.5240 C   0  0  0  0  0  0  0  0  0  0  0  0
   37.7350   26.6810   33.6830 N   0  0  0  0  0  0  0  0  0  0  0  0
   36.6620   27.4500   33.7050 N   0  0  0  0  0  0  0  0  0  0  0  0
   39.1100   24.7490   34.3260 N   0  0  0  0  0  0  0  0  0  0  0  0
   38.2030   25.7050   34.6100 C   0  0  0  0  0  0  0  0  0  0  0  0
   37.8600   25.5410   35.9040 N   0  0  0  0  0  0  0  0  0  0  0  0
   38.5350   24.5020   36.4370 C   0  0  0  0  0  0  0  0  0  0  0  0
   38.6250   23.8660   37.6440 C   0  0  0  0  0  0  0  0  0  0  0  0
   39.4510   22.8200   37.7940 N   0  0  0  0  0  0  0  0  0  0  0  0
   40.2130   22.3600   36.7770 C   0  0  0  0  0  0  0  0  0  0  0  0
   40.1610   22.9480   35.5770 N   0  0  0  0  0  0  0  0  0  0  0  0
   39.3250   24.0040   35.4310 C   0  0  0  0  0  0  0  0  0  0  0  0
   37.9440   28.4300   30.9230 H   0  0  0  0  0  0  0  0  0  0  0  0
   39.3710   26.5190   32.1840 H   0  0  0  0  0  0  0  0  0  0  0  0
   39.5880   24.5940   33.3890 H   0  0  0  0  0  0  0  0  0  0  0  0
   40.8630   21.5120   36.9510 H   0  0  0  0  0  0  0  0  0  0  0  0
   34.9740   31.2480   31.3510 C   0  0  0  0  0  0  0  0  0  0  0  0
   33.6110   31.0150   31.6800 C   0  0  0  0  0  0  0  0  0  0  0  0
   33.2670   29.8300   32.3410 C   0  0  0  0  0  0  0  0  0  0  0  0
   34.2830   28.9770   32.6220 N   0  0  0  0  0  0  0  0  0  0  0  0
   35.5750   29.2070   32.3060 C   0  0  0  0  0  0  0  0  0  0  0  0
   35.8930   30.3330   31.6790 N   0  0  0  0  0  0  0  0  0  0  0  0
   35.2100   32.1740   30.8400 H   0  0  0  0  0  0  0  0  0  0  0  0
   32.8330   31.7260   31.4340 H   0  0  0  0  0  0  0  0  0  0  0  0
   30.2490   29.8570   33.9760 H   0  0  0  0  0  0  0  0  0  0  0  0
   31.2710   30.1690   33.7990 C   0  0  0  0  0  0  0  0  0  0  0  0
   32.0160   31.0030   34.3820 O   0  0  0  0  0  0  0  0  0  0  0  0
   31.9240   29.5290   32.7000 N   0  0  0  0  0  0  0  0  0  0  0  0
   31.4290   28.8140   32.1240 H   0  0  0  0  0  0  0  0  0  0  0  0
   37.8180   24.3670   38.6960 N   0  0  0  0  0  0  0  0  0  0  0  0
   38.5110   25.0200   39.1550 H   0  0  0  0  0  0  0  0  0  0  0  0
   36.8370   24.1910   38.9860 H   0  0  0  0  0  0  0  0  0  0  0  0
  1  5  2  0  0  0  0
  2  3  2  0  0  0  0
  2  1  1  0  0  0  0
  3  4  1  0  0  0  0
  4  5  1  0  0  0  0
  4  7  1  0  0  0  0
  6  7  1  0  0  0  0
  6 14  1  0  0  0  0
  7  8  2  0  0  0  0
  8  9  1  0  0  0  0
  9 10  1  0  0  0  0
 10 11  2  0  0  0  0
 10 32  1  0  0  0  0
 12 18  1  0  0  0  0
 12 11  1  0  0  0  0
 13 12  2  0  0  0  0
 14 13  1  0  0  0  0
 14  9  2  0  0  0  0
 15  2  1  0  0  0  0
 16  3  1  0  0  0  0
 17  6  1  0  0  0  0
 19 24  2  0  0  0  0
 19 20  1  0  0  0  0
 20 21  2  0  0  0  0
 21 22  1  0  0  0  0
 21 30  1  0  0  0  0
 23 22  2  0  0  0  0
 23  1  1  0  0  0  0
 24 23  1  0  0  0  0
 25 19  1  0  0  0  0
 26 20  1  0  0  0  0
 28 27  1  0  0  0  0
 28 29  2  0  0  0  0
 30 28  1  0  0  0  0
 31 30  1  0  0  0  0
 32 34  1  0  0  0  0
 32 33  1  0  0  0  0
M  END
>  <minimizedAffinity>
-5.93999434

$$$$

 OpenBabel03262523003D

 34 37  0  0  0  0  0  0  0  0999 V2000
   36.4610   28.1690   33.8770 C   0  0  0  0  0  0  0  0  0  0  0  0
   37.3380   27.9570   32.8100 C   0  0  0  0  0  0  0  0  0  0  0  0
   38.1420   26.8920   33.1270 C   0  0  0  0  0  0  0  0  0  0  0  0
   37.7400   26.4730   34.3830 N   0  0  0  0  0  0  0  0  0  0  0  0
   36.7510   27.2570   34.7750 N   0  0  0  0  0  0  0  0  0  0  0  0
   39.1210   24.4420   34.4110 N   0  0  0  0  0  0  0  0  0  0  0  0
   38.3710   25.3740   35.0340 C   0  0  0  0  0  0  0  0  0  0  0  0
   38.3570   25.0480   36.3420 N   0  0  0  0  0  0  0  0  0  0  0  0
   39.0840   23.9320   36.5530 C   0  0  0  0  0  0  0  0  0  0  0  0
   39.4400   23.1400   37.6090 C   0  0  0  0  0  0  0  0  0  0  0  0
   40.2170   22.0650   37.4130 N   0  0  0  0  0  0  0  0  0  0  0  0
   40.6710   21.7250   36.1860 C   0  0  0  0  0  0  0  0  0  0  0  0
   40.3500   22.4680   35.1200 N   0  0  0  0  0  0  0  0  0  0  0  0
   39.5660   23.5530   35.3250 C   0  0  0  0  0  0  0  0  0  0  0  0
   37.3430   28.5660   31.8970 H   0  0  0  0  0  0  0  0  0  0  0  0
   38.9320   26.4730   32.5060 H   0  0  0  0  0  0  0  0  0  0  0  0
   39.3380   24.4010   33.3710 H   0  0  0  0  0  0  0  0  0  0  0  0
   41.2950   20.8470   36.0820 H   0  0  0  0  0  0  0  0  0  0  0  0
   34.5740   31.2220   33.1390 C   0  0  0  0  0  0  0  0  0  0  0  0
   33.5030   31.1370   34.0690 C   0  0  0  0  0  0  0  0  0  0  0  0
   33.4440   30.0380   34.9340 C   0  0  0  0  0  0  0  0  0  0  0  0
   34.4340   29.1190   34.8150 N   0  0  0  0  0  0  0  0  0  0  0  0
   35.4480   29.2090   33.9280 C   0  0  0  0  0  0  0  0  0  0  0  0
   35.4960   30.2540   33.1110 N   0  0  0  0  0  0  0  0  0  0  0  0
   34.5930   32.0840   32.4830 H   0  0  0  0  0  0  0  0  0  0  0  0
   32.7340   31.8950   34.1290 H   0  0  0  0  0  0  0  0  0  0  0  0
   31.5140   30.4520   37.7430 H   0  0  0  0  0  0  0  0  0  0  0  0
   32.3550   30.6580   37.0920 C   0  0  0  0  0  0  0  0  0  0  0  0
   33.3230   31.4610   37.1850 O   0  0  0  0  0  0  0  0  0  0  0  0
   32.4020   29.8850   35.8910 N   0  0  0  0  0  0  0  0  0  0  0  0
   31.6650   29.1780   35.6780 H   0  0  0  0  0  0  0  0  0  0  0  0
   38.9540   23.5170   38.8860 N   0  0  0  0  0  0  0  0  0  0  0  0
   39.7760   24.0870   39.2280 H   0  0  0  0  0  0  0  0  0  0  0  0
   38.0700   23.3270   39.3950 H   0  0  0  0  0  0  0  0  0  0  0  0
  1 23  1  0  0  0  0
  1  5  2  0  0  0  0
  2  3  2  0  0  0  0
  2  1  1  0  0  0  0
  3  4  1  0  0  0  0
  4  5  1  0  0  0  0
  4  7  1  0  0  0  0
  6  7  1  0  0  0  0
  6 14  1  0  0  0  0
  7  8  2  0  0  0  0
  8  9  1  0  0  0  0
  9 10  1  0  0  0  0
 10 32  1  0  0  0  0
 11 10  2  0  0  0  0
 12 11  1  0  0  0  0
 13 14  1  0  0  0  0
 13 12  2  0  0  0  0
 14  9  2  0  0  0  0
 15  2  1  0  0  0  0
 16  3  1  0  0  0  0
 17  6  1  0  0  0  0
 18 12  1  0  0  0  0
 19 20  1  0  0  0  0
 20 26  1  0  0  0  0
 20 21  2  0  0  0  0
 21 30  1  0  0  0  0
 22 21  1  0  0  0  0
 23 22  2  0  0  0  0
 24 19  2  0  0  0  0
 24 23  1  0  0  0  0
 25 19  1  0  0  0  0
 28 29  2  0  0  0  0
 28 27  1  0  0  0  0
 30 28  1  0  0  0  0
 31 30  1  0  0  0  0
 32 33  1  0  0  0  0
 32 34  1  0  0  0  0
M  END
>  <minimizedAffinity>
-5.83895397

$$$$

 OpenBabel03262523003D

 34 37  0  0  0  0  0  0  0  0999 V2000
   36.7220   27.0710   33.1150 C   0  0  0  0  0  0  0  0  0  0  0  0
   36.2680   27.5410   31.8790 C   0  0  0  0  0  0  0  0  0  0  0  0
   35.8180   28.8240   32.0530 C   0  0  0  0  0  0  0  0  0  0  0  0
   36.0060   29.1140   33.3940 N   0  0  0  0  0  0  0  0  0  0  0  0
   36.5390   28.0510   33.9680 N   0  0  0  0  0  0  0  0  0  0  0  0
   35.4300   31.4950   33.2060 N   0  0  0  0  0  0  0  0  0  0  0  0
   35.6390   30.3800   33.9360 C   0  0  0  0  0  0  0  0  0  0  0  0
   35.4300   30.7160   35.2240 N   0  0  0  0  0  0  0  0  0  0  0  0
   35.0930   32.0190   35.3180 C   0  0  0  0  0  0  0  0  0  0  0  0
   34.7700   32.9130   36.3010 C   0  0  0  0  0  0  0  0  0  0  0  0
   34.4780   34.1830   35.9860 N   0  0  0  0  0  0  0  0  0  0  0  0
   34.4910   34.6240   34.7090 C   0  0  0  0  0  0  0  0  0  0  0  0
   34.8010   33.7880   33.7110 N   0  0  0  0  0  0  0  0  0  0  0  0
   35.0950   32.5070   34.0350 C   0  0  0  0  0  0  0  0  0  0  0  0
   36.2900   26.9460   30.9580 H   0  0  0  0  0  0  0  0  0  0  0  0
   35.4000   29.4720   31.2840 H   0  0  0  0  0  0  0  0  0  0  0  0
   35.5110   31.5800   32.1500 H   0  0  0  0  0  0  0  0  0  0  0  0
   34.2470   35.6600   34.5090 H   0  0  0  0  0  0  0  0  0  0  0  0
   37.6570   23.5600   32.6420 C   0  0  0  0  0  0  0  0  0  0  0  0
   38.3520   23.2760   33.8490 C   0  0  0  0  0  0  0  0  0  0  0  0
   38.4890   24.2900   34.8040 C   0  0  0  0  0  0  0  0  0  0  0  0
   37.9370   25.4900   34.4980 N   0  0  0  0  0  0  0  0  0  0  0  0
   37.2780   25.7490   33.3490 C   0  0  0  0  0  0  0  0  0  0  0  0
   37.1520   24.7830   32.4480 N   0  0  0  0  0  0  0  0  0  0  0  0
   37.5660   22.7550   31.9210 H   0  0  0  0  0  0  0  0  0  0  0  0
   38.7770   22.3020   34.0500 H   0  0  0  0  0  0  0  0  0  0  0  0
   39.2080   23.2440   37.9940 H   0  0  0  0  0  0  0  0  0  0  0  0
   38.5920   23.3360   37.1080 C   0  0  0  0  0  0  0  0  0  0  0  0
   37.4390   22.9090   36.8280 O   0  0  0  0  0  0  0  0  0  0  0  0
   39.1730   24.0800   36.0340 N   0  0  0  0  0  0  0  0  0  0  0  0
   40.1260   24.4950   36.1220 H   0  0  0  0  0  0  0  0  0  0  0  0
   34.7600   32.4270   37.6320 N   0  0  0  0  0  0  0  0  0  0  0  0
   33.7360   32.1810   37.7240 H   0  0  0  0  0  0  0  0  0  0  0  0
   35.4970   32.3170   38.3550 H   0  0  0  0  0  0  0  0  0  0  0  0
  1 23  1  0  0  0  0
  1  5  2  0  0  0  0
  2  3  2  0  0  0  0
  2  1  1  0  0  0  0
  3  4  1  0  0  0  0
  4  7  1  0  0  0  0
  4  5  1  0  0  0  0
  6  7  1  0  0  0  0
  6 14  1  0  0  0  0
  7  8  2  0  0  0  0
  8  9  1  0  0  0  0
  9 10  1  0  0  0  0
 10 32  1  0  0  0  0
 11 10  2  0  0  0  0
 12 11  1  0  0  0  0
 13 14  1  0  0  0  0
 13 12  2  0  0  0  0
 14  9  2  0  0  0  0
 15  2  1  0  0  0  0
 16  3  1  0  0  0  0
 17  6  1  0  0  0  0
 18 12  1  0  0  0  0
 19 20  1  0  0  0  0
 20 26  1  0  0  0  0
 20 21  2  0  0  0  0
 21 30  1  0  0  0  0
 22 21  1  0  0  0  0
 23 22  2  0  0  0  0
 24 19  2  0  0  0  0
 24 23  1  0  0  0  0
 25 19  1  0  0  0  0
 28 27  1  0  0  0  0
 29 28  2  0  0  0  0
 30 31  1  0  0  0  0
 30 28  1  0  0  0  0
 32 33  1  0  0  0  0
 32 34  1  0  0  0  0
M  END
>  <minimizedAffinity>
-5.70279121

$$$$

 OpenBabel03262523003D

 34 37  0  0  0  0  0  0  0  0999 V2000
   37.5630   27.8700   31.8930 C   0  0  0  0  0  0  0  0  0  0  0  0
   36.5360   28.2620   32.7570 C   0  0  0  0  0  0  0  0  0  0  0  0
   36.6340   27.5100   33.8990 C   0  0  0  0  0  0  0  0  0  0  0  0
   37.7200   26.6730   33.7110 N   0  0  0  0  0  0  0  0  0  0  0  0
   38.2260   26.9270   32.5180 N   0  0  0  0  0  0  0  0  0  0  0  0
   37.7510   25.8030   36.0080 N   0  0  0  0  0  0  0  0  0  0  0  0
   38.1170   25.7390   34.7120 C   0  0  0  0  0  0  0  0  0  0  0  0
   38.8960   24.6470   34.5820 N   0  0  0  0  0  0  0  0  0  0  0  0
   39.0270   24.0230   35.7710 C   0  0  0  0  0  0  0  0  0  0  0  0
   39.6560   22.9170   36.2710 C   0  0  0  0  0  0  0  0  0  0  0  0
   39.5420   22.6060   37.5700 N   0  0  0  0  0  0  0  0  0  0  0  0
   38.8140   23.3600   38.4240 C   0  0  0  0  0  0  0  0  0  0  0  0
   38.1800   24.4520   37.9840 N   0  0  0  0  0  0  0  0  0  0  0  0
   38.2980   24.7610   36.6710 C   0  0  0  0  0  0  0  0  0  0  0  0
   35.8030   29.0420   32.5150 H   0  0  0  0  0  0  0  0  0  0  0  0
   35.9830   27.5710   34.7700 H   0  0  0  0  0  0  0  0  0  0  0  0
   37.1330   26.5440   36.4520 H   0  0  0  0  0  0  0  0  0  0  0  0
   38.7550   23.0640   39.4640 H   0  0  0  0  0  0  0  0  0  0  0  0
   38.8030   28.3090   28.4720 C   0  0  0  0  0  0  0  0  0  0  0  0
   38.2040   29.5440   28.1000 C   0  0  0  0  0  0  0  0  0  0  0  0
   37.3870   30.2050   29.0240 C   0  0  0  0  0  0  0  0  0  0  0  0
   37.2260   29.6050   30.2300 N   0  0  0  0  0  0  0  0  0  0  0  0
   37.8000   28.4320   30.5740 C   0  0  0  0  0  0  0  0  0  0  0  0
   38.5720   27.8110   29.6920 N   0  0  0  0  0  0  0  0  0  0  0  0
   39.4300   27.8210   27.7360 H   0  0  0  0  0  0  0  0  0  0  0  0
   38.3610   29.9850   27.1250 H   0  0  0  0  0  0  0  0  0  0  0  0
   36.8860   33.5520   28.4440 H   0  0  0  0  0  0  0  0  0  0  0  0
   37.4770   32.6760   28.6850 C   0  0  0  0  0  0  0  0  0  0  0  0
   38.7000   32.5230   28.9470 O   0  0  0  0  0  0  0  0  0  0  0  0
   36.7540   31.4430   28.7210 N   0  0  0  0  0  0  0  0  0  0  0  0
   35.7300   31.4140   28.5250 H   0  0  0  0  0  0  0  0  0  0  0  0
   40.4110   22.1410   35.3560 N   0  0  0  0  0  0  0  0  0  0  0  0
   39.6830   21.4230   35.0880 H   0  0  0  0  0  0  0  0  0  0  0  0
   41.3870   22.2000   35.0080 H   0  0  0  0  0  0  0  0  0  0  0  0
  1  5  2  0  0  0  0
  1  2  1  0  0  0  0
  2  3  2  0  0  0  0
  3 16  1  0  0  0  0
  4  3  1  0  0  0  0
  4  7  1  0  0  0  0
  5  4  1  0  0  0  0
  6 17  1  0  0  0  0
  6 14  1  0  0  0  0
  7  6  1  0  0  0  0
  8  7  2  0  0  0  0
  8  9  1  0  0  0  0
  9 10  2  0  0  0  0
  9 14  1  0  0  0  0
 10 11  1  0  0  0  0
 11 12  2  0  0  0  0
 12 18  1  0  0  0  0
 13 12  1  0  0  0  0
 14 13  2  0  0  0  0
 15  2  1  0  0  0  0
 19 24  1  0  0  0  0
 20 19  2  0  0  0  0
 20 21  1  0  0  0  0
 21 22  2  0  0  0  0
 22 23  1  0  0  0  0
 23  1  1  0  0  0  0
 24 23  2  0  0  0  0
 25 19  1  0  0  0  0
 26 20  1  0  0  0  0
 27 28  1  0  0  0  0
 28 30  1  0  0  0  0
 28 29  2  0  0  0  0
 30 21  1  0  0  0  0
 31 30  1  0  0  0  0
 32 10  1  0  0  0  0
 33 32  1  0  0  0  0
 34 32  1  0  0  0  0
M  END
>  <minimizedAffinity>
-5.70167446

$$$$

 OpenBabel03262523003D

 34 37  0  0  0  0  0  0  0  0999 V2000
   38.1790   24.9160   33.7690 C   0  0  0  0  0  0  0  0  0  0  0  0
   38.1360   24.1380   32.6080 C   0  0  0  0  0  0  0  0  0  0  0  0
   37.9930   24.9830   31.5370 C   0  0  0  0  0  0  0  0  0  0  0  0
   37.9520   26.2620   32.0650 N   0  0  0  0  0  0  0  0  0  0  0  0
   38.0650   26.1620   33.3770 N   0  0  0  0  0  0  0  0  0  0  0  0
   38.0440   27.4170   29.8990 N   0  0  0  0  0  0  0  0  0  0  0  0
   37.8050   27.4040   31.2260 C   0  0  0  0  0  0  0  0  0  0  0  0
   37.4120   28.6490   31.5610 N   0  0  0  0  0  0  0  0  0  0  0  0
   37.3980   29.4430   30.4700 C   0  0  0  0  0  0  0  0  0  0  0  0
   37.1020   30.7430   30.1680 C   0  0  0  0  0  0  0  0  0  0  0  0
   37.2120   31.1830   28.9060 N   0  0  0  0  0  0  0  0  0  0  0  0
   37.6120   30.3750   27.9000 C   0  0  0  0  0  0  0  0  0  0  0  0
   37.9120   29.0940   28.1440 N   0  0  0  0  0  0  0  0  0  0  0  0
   37.8000   28.6560   29.4200 C   0  0  0  0  0  0  0  0  0  0  0  0
   38.2080   23.0430   32.6070 H   0  0  0  0  0  0  0  0  0  0  0  0
   37.9280   24.6920   30.4900 H   0  0  0  0  0  0  0  0  0  0  0  0
   38.3710   26.5940   29.3110 H   0  0  0  0  0  0  0  0  0  0  0  0
   37.6830   30.7800   26.8980 H   0  0  0  0  0  0  0  0  0  0  0  0
   37.8660   24.5260   37.3990 C   0  0  0  0  0  0  0  0  0  0  0  0
   38.6290   23.3490   37.6350 C   0  0  0  0  0  0  0  0  0  0  0  0
   39.2380   22.7100   36.5480 C   0  0  0  0  0  0  0  0  0  0  0  0
   39.0490   23.2740   35.3290 N   0  0  0  0  0  0  0  0  0  0  0  0
   38.3230   24.3910   35.1160 C   0  0  0  0  0  0  0  0  0  0  0  0
   37.7480   24.9920   36.1510 N   0  0  0  0  0  0  0  0  0  0  0  0
   37.4070   24.9990   38.2590 H   0  0  0  0  0  0  0  0  0  0  0  0
   38.7520   22.9350   38.6260 H   0  0  0  0  0  0  0  0  0  0  0  0
   41.8280   20.5950   37.3250 H   0  0  0  0  0  0  0  0  0  0  0  0
   41.3350   21.5570   37.2540 C   0  0  0  0  0  0  0  0  0  0  0  0
   41.7020   22.7230   37.5640 O   0  0  0  0  0  0  0  0  0  0  0  0
   40.0150   21.5290   36.7070 N   0  0  0  0  0  0  0  0  0  0  0  0
   39.5770   20.6310   36.4050 H   0  0  0  0  0  0  0  0  0  0  0  0
   36.6830   31.5720   31.2390 N   0  0  0  0  0  0  0  0  0  0  0  0
   35.6360   31.4670   31.1450 H   0  0  0  0  0  0  0  0  0  0  0  0
   37.1940   32.1390   31.9420 H   0  0  0  0  0  0  0  0  0  0  0  0
  1 23  1  0  0  0  0
  2  1  1  0  0  0  0
  3  4  1  0  0  0  0
  3  2  2  0  0  0  0
  4  5  1  0  0  0  0
  5  1  2  0  0  0  0
  6  7  1  0  0  0  0
  7  8  2  0  0  0  0
  7  4  1  0  0  0  0
  9  8  1  0  0  0  0
 10  9  1  0  0  0  0
 10 32  1  0  0  0  0
 11 10  2  0  0  0  0
 12 13  2  0  0  0  0
 12 11  1  0  0  0  0
 13 14  1  0  0  0  0
 14  6  1  0  0  0  0
 14  9  2  0  0  0  0
 15  2  1  0  0  0  0
 16  3  1  0  0  0  0
 17  6  1  0  0  0  0
 18 12  1  0  0  0  0
 19 20  1  0  0  0  0
 19 25  1  0  0  0  0
 20 26  1  0  0  0  0
 21 30  1  0  0  0  0
 21 20  2  0  0  0  0
 22 21  1  0  0  0  0
 23 22  2  0  0  0  0
 23 24  1  0  0  0  0
 24 19  2  0  0  0  0
 28 27  1  0  0  0  0
 28 29  2  0  0  0  0
 30 28  1  0  0  0  0
 31 30  1  0  0  0  0
 32 34  1  0  0  0  0
 33 32  1  0  0  0  0
M  END
>  <minimizedAffinity>
-5.68670797

$$$$

 OpenBabel03262523003D

 34 37  0  0  0  0  0  0  0  0999 V2000
   36.1670   28.9980   33.0390 C   0  0  0  0  0  0  0  0  0  0  0  0
   36.9060   28.4820   31.9700 C   0  0  0  0  0  0  0  0  0  0  0  0
   37.5090   27.3250   32.3910 C   0  0  0  0  0  0  0  0  0  0  0  0
   37.1270   27.1550   33.7100 N   0  0  0  0  0  0  0  0  0  0  0  0
   36.3410   28.1650   34.0370 N   0  0  0  0  0  0  0  0  0  0  0  0
   38.0860   24.9070   33.9500 N   0  0  0  0  0  0  0  0  0  0  0  0
   37.5780   26.0410   34.4740 C   0  0  0  0  0  0  0  0  0  0  0  0
   37.5980   25.8900   35.8140 N   0  0  0  0  0  0  0  0  0  0  0  0
   38.1090   24.6860   36.1410 C   0  0  0  0  0  0  0  0  0  0  0  0
   38.3810   23.9760   37.2780 C   0  0  0  0  0  0  0  0  0  0  0  0
   38.9180   22.7500   37.1940 N   0  0  0  0  0  0  0  0  0  0  0  0
   39.2060   22.1760   36.0050 C   0  0  0  0  0  0  0  0  0  0  0  0
   38.9580   22.8300   34.8640 N   0  0  0  0  0  0  0  0  0  0  0  0
   38.4170   24.0670   34.9550 C   0  0  0  0  0  0  0  0  0  0  0  0
   36.9610   28.9590   30.9830 H   0  0  0  0  0  0  0  0  0  0  0  0
   38.1550   26.6800   31.7970 H   0  0  0  0  0  0  0  0  0  0  0  0
   38.2140   24.6940   32.9170 H   0  0  0  0  0  0  0  0  0  0  0  0
   39.6390   21.1830   35.9930 H   0  0  0  0  0  0  0  0  0  0  0  0
   34.6030   32.1630   34.0200 C   0  0  0  0  0  0  0  0  0  0  0  0
   33.8840   32.5110   32.8450 C   0  0  0  0  0  0  0  0  0  0  0  0
   33.9450   31.6580   31.7370 C   0  0  0  0  0  0  0  0  0  0  0  0
   34.7020   30.5410   31.8730 N   0  0  0  0  0  0  0  0  0  0  0  0
   35.3810   30.2190   32.9940 C   0  0  0  0  0  0  0  0  0  0  0  0
   35.3190   31.0330   34.0400 N   0  0  0  0  0  0  0  0  0  0  0  0
   34.5360   32.8420   34.8620 H   0  0  0  0  0  0  0  0  0  0  0  0
   33.2920   33.4140   32.7820 H   0  0  0  0  0  0  0  0  0  0  0  0
   31.4240   32.0220   29.4340 H   0  0  0  0  0  0  0  0  0  0  0  0
   31.8380   31.7740   30.4040 C   0  0  0  0  0  0  0  0  0  0  0  0
   31.3100   31.3580   31.4710 O   0  0  0  0  0  0  0  0  0  0  0  0
   33.2520   31.9420   30.5270 N   0  0  0  0  0  0  0  0  0  0  0  0
   33.8240   32.2810   29.7230 H   0  0  0  0  0  0  0  0  0  0  0  0
   38.0720   24.5990   38.5130 N   0  0  0  0  0  0  0  0  0  0  0  0
   39.0120   25.0300   38.7340 H   0  0  0  0  0  0  0  0  0  0  0  0
   37.2090   24.6570   39.0840 H   0  0  0  0  0  0  0  0  0  0  0  0
  1  5  2  0  0  0  0
  2  3  2  0  0  0  0
  2  1  1  0  0  0  0
  3  4  1  0  0  0  0
  4  5  1  0  0  0  0
  4  7  1  0  0  0  0
  6  7  1  0  0  0  0
  6 14  1  0  0  0  0
  7  8  2  0  0  0  0
  8  9  1  0  0  0  0
  9 10  1  0  0  0  0
 10 32  1  0  0  0  0
 11 10  2  0  0  0  0
 12 11  1  0  0  0  0
 13 14  1  0  0  0  0
 13 12  2  0  0  0  0
 14  9  2  0  0  0  0
 15  2  1  0  0  0  0
 16  3  1  0  0  0  0
 17  6  1  0  0  0  0
 18 12  1  0  0  0  0
 19 24  1  0  0  0  0
 19 25  1  0  0  0  0
 20 19  2  0  0  0  0
 21 22  2  0  0  0  0
 21 20  1  0  0  0  0
 22 23  1  0  0  0  0
 23  1  1  0  0  0  0
 23 24  2  0  0  0  0
 26 20  1  0  0  0  0
 27 28  1  0  0  0  0
 28 30  1  0  0  0  0
 28 29  2  0  0  0  0
 30 21  1  0  0  0  0
 31 30  1  0  0  0  0
 32 33  1  0  0  0  0
 32 34  1  0  0  0  0
M  END
>  <minimizedAffinity>
-5.68658066

$$$$

 OpenBabel03262523003D

 34 37  0  0  0  0  0  0  0  0999 V2000
   37.8750   25.7010   33.2120 C   0  0  0  0  0  0  0  0  0  0  0  0
   38.8110   26.2530   32.3310 C   0  0  0  0  0  0  0  0  0  0  0  0
   38.2910   27.4220   31.8380 C   0  0  0  0  0  0  0  0  0  0  0  0
   37.0460   27.5620   32.4270 N   0  0  0  0  0  0  0  0  0  0  0  0
   36.8550   26.5250   33.2220 N   0  0  0  0  0  0  0  0  0  0  0  0
   36.6390   29.8340   31.5870 N   0  0  0  0  0  0  0  0  0  0  0  0
   36.2110   28.6790   32.1350 C   0  0  0  0  0  0  0  0  0  0  0  0
   34.8840   28.8120   32.3300 N   0  0  0  0  0  0  0  0  0  0  0  0
   34.4700   30.0270   31.9140 C   0  0  0  0  0  0  0  0  0  0  0  0
   33.2990   30.7290   31.8450 C   0  0  0  0  0  0  0  0  0  0  0  0
   33.2870   31.9710   31.3400 N   0  0  0  0  0  0  0  0  0  0  0  0
   34.4110   32.5690   30.8880 C   0  0  0  0  0  0  0  0  0  0  0  0
   35.5820   31.9240   30.9340 N   0  0  0  0  0  0  0  0  0  0  0  0
   35.5880   30.6700   31.4440 C   0  0  0  0  0  0  0  0  0  0  0  0
   39.7810   25.7910   32.1070 H   0  0  0  0  0  0  0  0  0  0  0  0
   38.7710   28.0930   31.1270 H   0  0  0  0  0  0  0  0  0  0  0  0
   37.6380   30.0650   31.3060 H   0  0  0  0  0  0  0  0  0  0  0  0
   34.3470   33.5740   30.4900 H   0  0  0  0  0  0  0  0  0  0  0  0
   37.8010   22.1450   34.0910 C   0  0  0  0  0  0  0  0  0  0  0  0
   38.4210   22.1460   35.3700 C   0  0  0  0  0  0  0  0  0  0  0  0
   38.8540   23.3630   35.9100 C   0  0  0  0  0  0  0  0  0  0  0  0
   38.6440   24.4700   35.1560 N   0  0  0  0  0  0  0  0  0  0  0  0
   38.0530   24.4580   33.9420 C   0  0  0  0  0  0  0  0  0  0  0  0
   37.6460   23.3010   33.4360 N   0  0  0  0  0  0  0  0  0  0  0  0
   37.4760   21.1880   33.6980 H   0  0  0  0  0  0  0  0  0  0  0  0
   38.5680   21.2360   35.9360 H   0  0  0  0  0  0  0  0  0  0  0  0
   39.3360   23.3960   39.3090 H   0  0  0  0  0  0  0  0  0  0  0  0
   38.7470   23.3190   38.4030 C   0  0  0  0  0  0  0  0  0  0  0  0
   37.5150   23.1390   38.2050 O   0  0  0  0  0  0  0  0  0  0  0  0
   39.4830   23.4400   37.1840 N   0  0  0  0  0  0  0  0  0  0  0  0
   40.5160   23.5930   37.1920 H   0  0  0  0  0  0  0  0  0  0  0  0
   32.1330   30.0800   32.3230 N   0  0  0  0  0  0  0  0  0  0  0  0
   31.7710   29.6750   31.4170 H   0  0  0  0  0  0  0  0  0  0  0  0
   31.7040   29.9900   33.2640 H   0  0  0  0  0  0  0  0  0  0  0  0
  1  5  2  0  0  0  0
  1 23  1  0  0  0  0
  2  1  1  0  0  0  0
  3  2  2  0  0  0  0
  3  4  1  0  0  0  0
  4  5  1  0  0  0  0
  6  7  1  0  0  0  0
  7  8  2  0  0  0  0
  7  4  1  0  0  0  0
  9  8  1  0  0  0  0
 10  9  1  0  0  0  0
 10 32  1  0  0  0  0
 11 10  2  0  0  0  0
 12 13  2  0  0  0  0
 12 11  1  0  0  0  0
 13 14  1  0  0  0  0
 14  6  1  0  0  0  0
 14  9  2  0  0  0  0
 15  2  1  0  0  0  0
 16  3  1  0  0  0  0
 17  6  1  0  0  0  0
 18 12  1  0  0  0  0
 19 20  1  0  0  0  0
 20 21  2  0  0  0  0
 20 26  1  0  0  0  0
 21 30  1  0  0  0  0
 22 21  1  0  0  0  0
 23 22  2  0  0  0  0
 24 23  1  0  0  0  0
 24 19  2  0  0  0  0
 25 19  1  0  0  0  0
 28 27  1  0  0  0  0
 29 28  2  0  0  0  0
 30 31  1  0  0  0  0
 30 28  1  0  0  0  0
 32 34  1  0  0  0  0
 33 32  1  0  0  0  0
M  END
>  <minimizedAffinity>
-5.60011578

$$$$
