
 OpenBabel03272501003D

 24 25  0  0  0  0  0  0  0  0999 V2000
   38.5910   30.4000   49.0080 F   0  0  0  0  0  0  0  0  0  0  0  0
   37.5000   30.2670   48.2040 C   0  0  0  0  0  0  0  0  0  0  0  0
   37.4850   30.6670   46.8790 C   0  0  0  0  0  0  0  0  0  0  0  0
   36.3230   30.4880   46.1440 C   0  0  0  0  0  0  0  0  0  0  0  0
   35.1820   29.9260   46.6790 C   0  0  0  0  0  0  0  0  0  0  0  0
   35.2240   29.5290   48.0250 C   0  0  0  0  0  0  0  0  0  0  0  0
   36.3830   29.6990   48.7850 C   0  0  0  0  0  0  0  0  0  0  0  0
   36.3310   30.8080   45.1100 H   0  0  0  0  0  0  0  0  0  0  0  0
   34.2900   29.8020   46.0690 H   0  0  0  0  0  0  0  0  0  0  0  0
   34.3240   29.0850   48.4500 H   0  0  0  0  0  0  0  0  0  0  0  0
   40.0240   33.1880   46.1670 C   0  0  0  0  0  0  0  0  0  0  0  0
   40.9260   32.5200   45.2970 C   0  0  0  0  0  0  0  0  0  0  0  0
   40.6400   31.1870   44.9630 C   0  0  0  0  0  0  0  0  0  0  0  0
   39.5250   30.6120   45.4860 N   0  0  0  0  0  0  0  0  0  0  0  0
   38.6840   31.2620   46.3070 C   0  0  0  0  0  0  0  0  0  0  0  0
   38.9430   32.5530   46.6420 N   0  0  0  0  0  0  0  0  0  0  0  0
   40.2680   34.2200   46.4090 H   0  0  0  0  0  0  0  0  0  0  0  0
   41.8150   32.9710   44.8760 H   0  0  0  0  0  0  0  0  0  0  0  0
   41.2610   30.5850   44.3080 H   0  0  0  0  0  0  0  0  0  0  0  0
   35.4070   28.9670   51.9390 H   0  0  0  0  0  0  0  0  0  0  0  0
   35.2140   29.3070   50.9430 C   0  0  0  0  0  0  0  0  0  0  0  0
   34.1060   29.6870   50.4700 O   0  0  0  0  0  0  0  0  0  0  0  0
   36.3980   29.2890   50.1460 N   0  0  0  0  0  0  0  0  0  0  0  0
   37.3470   28.9960   50.4360 H   0  0  0  0  0  0  0  0  0  0  0  0
  2  7  1  0  0  0  0
  2  1  1  0  0  0  0
  3  2  2  0  0  0  0
  4  5  2  0  0  0  0
  4  3  1  0  0  0  0
  5  6  1  0  0  0  0
  6 10  1  0  0  0  0
  6  7  2  0  0  0  0
  7 23  1  0  0  0  0
  8  4  1  0  0  0  0
  9  5  1  0  0  0  0
 11 17  1  0  0  0  0
 11 16  1  0  0  0  0
 12 11  2  0  0  0  0
 13 12  1  0  0  0  0
 13 14  2  0  0  0  0
 14 15  1  0  0  0  0
 15 16  2  0  0  0  0
 15  3  1  0  0  0  0
 18 12  1  0  0  0  0
 19 13  1  0  0  0  0
 21 20  1  0  0  0  0
 22 21  2  0  0  0  0
 23 24  1  0  0  0  0
 23 21  1  0  0  0  0
M  END
>  <minimizedAffinity>
-5.11958647

>  <minimizedRMSD>
2.65059471

$$$$
