
 OpenBabel03272509123D

 24 25  0  0  0  0  0  0  0  0999 V2000
   40.2170   22.1900   36.9790 C   0  0  0  0  0  0  0  0  0  0  0  0
   39.3000   23.1600   36.5230 C   0  0  0  0  0  0  0  0  0  0  0  0
   39.7240   24.2060   35.7300 C   0  0  0  0  0  0  0  0  0  0  0  0
   41.0470   24.2710   35.4020 N   0  0  0  0  0  0  0  0  0  0  0  0
   41.9080   23.3070   35.8650 C   0  0  0  0  0  0  0  0  0  0  0  0
   41.5120   22.2930   36.6310 N   0  0  0  0  0  0  0  0  0  0  0  0
   39.9620   21.3590   37.5920 H   0  0  0  0  0  0  0  0  0  0  0  0
   42.9180   23.4830   35.5310 H   0  0  0  0  0  0  0  0  0  0  0  0
   38.8330   25.2270   35.2410 C   0  0  0  0  0  0  0  0  0  0  0  0
   38.1590   24.9970   34.0750 C   0  0  0  0  0  0  0  0  0  0  0  0
   37.2860   25.9710   33.5650 C   0  0  0  0  0  0  0  0  0  0  0  0
   37.1360   27.1550   34.2800 C   0  0  0  0  0  0  0  0  0  0  0  0
   37.7880   27.4340   35.4540 C   0  0  0  0  0  0  0  0  0  0  0  0
   38.6260   26.4260   35.8850 C   0  0  0  0  0  0  0  0  0  0  0  0
   38.1870   24.1490   33.4300 H   0  0  0  0  0  0  0  0  0  0  0  0
   36.7200   25.8810   32.6680 H   0  0  0  0  0  0  0  0  0  0  0  0
   36.4550   27.9280   33.8930 H   0  0  0  0  0  0  0  0  0  0  0  0
   37.6700   28.3530   36.0040 H   0  0  0  0  0  0  0  0  0  0  0  0
   39.1790   26.5920   36.8240 H   0  0  0  0  0  0  0  0  0  0  0  0
   36.8920   23.7100   38.8400 H   0  0  0  0  0  0  0  0  0  0  0  0
   37.7900   23.6560   38.2050 C   0  0  0  0  0  0  0  0  0  0  0  0
   38.3580   24.4400   39.0320 O   0  0  0  0  0  0  0  0  0  0  0  0
   38.0010   22.9280   36.9780 N   0  0  0  0  0  0  0  0  0  0  0  0
   37.1100   22.4270   36.7940 H   0  0  0  0  0  0  0  0  0  0  0  0
  1  7  1  0  0  0  0
  2 23  1  0  0  0  0
  2  1  2  0  0  0  0
  3  2  1  0  0  0  0
  4  3  2  0  0  0  0
  4  5  1  0  0  0  0
  5  6  2  0  0  0  0
  6  1  1  0  0  0  0
  8  5  1  0  0  0  0
  9  3  1  0  0  0  0
  9 14  1  0  0  0  0
 10  9  2  0  0  0  0
 11 10  1  0  0  0  0
 11 12  2  0  0  0  0
 12 13  1  0  0  0  0
 13 14  2  0  0  0  0
 13 18  1  0  0  0  0
 14 19  1  0  0  0  0
 15 10  1  0  0  0  0
 16 11  1  0  0  0  0
 17 12  1  0  0  0  0
 21 20  1  0  0  0  0
 21 22  2  0  0  0  0
 23 21  1  0  0  0  0
 24 23  1  0  0  0  0
M  END
>  <minimizedAffinity>
-4.45463943

$$$$

 OpenBabel03272509123D

 24 25  0  0  0  0  0  0  0  0999 V2000
   38.8410   25.7630   32.7940 C   0  0  0  0  0  0  0  0  0  0  0  0
   39.0290   25.4680   34.1610 C   0  0  0  0  0  0  0  0  0  0  0  0
   38.5310   24.3010   34.7000 C   0  0  0  0  0  0  0  0  0  0  0  0
   37.8560   23.4460   33.8770 N   0  0  0  0  0  0  0  0  0  0  0  0
   37.6940   23.7690   32.5520 C   0  0  0  0  0  0  0  0  0  0  0  0
   38.1690   24.8920   32.0190 N   0  0  0  0  0  0  0  0  0  0  0  0
   39.1960   26.6410   32.3110 H   0  0  0  0  0  0  0  0  0  0  0  0
   37.1440   23.0080   32.0220 H   0  0  0  0  0  0  0  0  0  0  0  0
   38.6890   23.9510   36.0890 C   0  0  0  0  0  0  0  0  0  0  0  0
   39.7470   23.1640   36.4440 C   0  0  0  0  0  0  0  0  0  0  0  0
   39.9320   22.7980   37.7870 C   0  0  0  0  0  0  0  0  0  0  0  0
   39.0120   23.2620   38.7230 C   0  0  0  0  0  0  0  0  0  0  0  0
   37.9350   24.0540   38.4180 C   0  0  0  0  0  0  0  0  0  0  0  0
   37.8270   24.3660   37.0790 C   0  0  0  0  0  0  0  0  0  0  0  0
   40.5110   22.7370   35.8350 H   0  0  0  0  0  0  0  0  0  0  0  0
   40.7230   22.1900   38.1570 H   0  0  0  0  0  0  0  0  0  0  0  0
   39.1430   22.9840   39.7800 H   0  0  0  0  0  0  0  0  0  0  0  0
   37.2250   24.4100   39.1470 H   0  0  0  0  0  0  0  0  0  0  0  0
   36.9800   25.0000   36.7720 H   0  0  0  0  0  0  0  0  0  0  0  0
   38.9790   28.3360   35.9610 H   0  0  0  0  0  0  0  0  0  0  0  0
   38.7890   27.4240   35.3740 C   0  0  0  0  0  0  0  0  0  0  0  0
   37.5470   27.6880   35.4610 O   0  0  0  0  0  0  0  0  0  0  0  0
   39.7270   26.4700   34.8360 N   0  0  0  0  0  0  0  0  0  0  0  0
   40.6680   26.8200   35.1060 H   0  0  0  0  0  0  0  0  0  0  0  0
  1  2  1  0  0  0  0
  2  3  2  0  0  0  0
  2 23  1  0  0  0  0
  3  9  1  0  0  0  0
  4  3  1  0  0  0  0
  5  4  2  0  0  0  0
  6  5  1  0  0  0  0
  6  1  2  0  0  0  0
  7  1  1  0  0  0  0
  8  5  1  0  0  0  0
  9 10  2  0  0  0  0
  9 14  1  0  0  0  0
 10 11  1  0  0  0  0
 11 16  1  0  0  0  0
 11 12  2  0  0  0  0
 12 17  1  0  0  0  0
 13 12  1  0  0  0  0
 13 18  1  0  0  0  0
 14 13  2  0  0  0  0
 15 10  1  0  0  0  0
 19 14  1  0  0  0  0
 21 22  2  0  0  0  0
 21 20  1  0  0  0  0
 23 24  1  0  0  0  0
 23 21  1  0  0  0  0
M  END
>  <minimizedAffinity>
-4.36514521

$$$$

 OpenBabel03272509123D

 24 25  0  0  0  0  0  0  0  0999 V2000
   38.2500   25.8160   32.8020 C   0  0  0  0  0  0  0  0  0  0  0  0
   38.4940   25.5570   34.1670 C   0  0  0  0  0  0  0  0  0  0  0  0
   38.3090   24.2920   34.6830 C   0  0  0  0  0  0  0  0  0  0  0  0
   37.8860   23.3060   33.8390 N   0  0  0  0  0  0  0  0  0  0  0  0
   37.6590   23.5990   32.5160 C   0  0  0  0  0  0  0  0  0  0  0  0
   37.8330   24.8150   32.0060 N   0  0  0  0  0  0  0  0  0  0  0  0
   38.3710   26.7640   32.3360 H   0  0  0  0  0  0  0  0  0  0  0  0
   37.3300   22.7310   31.9690 H   0  0  0  0  0  0  0  0  0  0  0  0
   38.5380   23.9720   36.0690 C   0  0  0  0  0  0  0  0  0  0  0  0
   39.6190   23.2000   36.3870 C   0  0  0  0  0  0  0  0  0  0  0  0
   39.8730   22.8630   37.7260 C   0  0  0  0  0  0  0  0  0  0  0  0
   38.9960   23.3380   38.6970 C   0  0  0  0  0  0  0  0  0  0  0  0
   37.8980   24.1150   38.4300 C   0  0  0  0  0  0  0  0  0  0  0  0
   37.7210   24.3990   37.0920 C   0  0  0  0  0  0  0  0  0  0  0  0
   40.3570   22.7680   35.7500 H   0  0  0  0  0  0  0  0  0  0  0  0
   40.6870   22.2700   38.0690 H   0  0  0  0  0  0  0  0  0  0  0  0
   39.1810   23.0820   39.7520 H   0  0  0  0  0  0  0  0  0  0  0  0
   37.2210   24.4790   39.1860 H   0  0  0  0  0  0  0  0  0  0  0  0
   36.8550   25.0200   36.8150 H   0  0  0  0  0  0  0  0  0  0  0  0
   41.0090   27.5220   35.3010 H   0  0  0  0  0  0  0  0  0  0  0  0
   40.3430   26.7660   34.8540 C   0  0  0  0  0  0  0  0  0  0  0  0
   41.3880   26.1690   34.4360 O   0  0  0  0  0  0  0  0  0  0  0  0
   38.9030   26.6940   34.8650 N   0  0  0  0  0  0  0  0  0  0  0  0
   38.5870   27.5210   35.4090 H   0  0  0  0  0  0  0  0  0  0  0  0
  1  2  1  0  0  0  0
  2  3  2  0  0  0  0
  2 23  1  0  0  0  0
  3  9  1  0  0  0  0
  4  3  1  0  0  0  0
  5  4  2  0  0  0  0
  6  5  1  0  0  0  0
  6  1  2  0  0  0  0
  7  1  1  0  0  0  0
  8  5  1  0  0  0  0
  9 10  2  0  0  0  0
  9 14  1  0  0  0  0
 10 11  1  0  0  0  0
 11 16  1  0  0  0  0
 11 12  2  0  0  0  0
 12 17  1  0  0  0  0
 13 12  1  0  0  0  0
 13 18  1  0  0  0  0
 14 13  2  0  0  0  0
 15 10  1  0  0  0  0
 19 14  1  0  0  0  0
 21 23  1  0  0  0  0
 21 20  1  0  0  0  0
 22 21  2  0  0  0  0
 23 24  1  0  0  0  0
M  END
>  <minimizedAffinity>
-4.27645636

$$$$

 OpenBabel03272509123D

 24 25  0  0  0  0  0  0  0  0999 V2000
   38.1050   23.6390   32.3610 C   0  0  0  0  0  0  0  0  0  0  0  0
   38.4560   23.8680   33.7080 C   0  0  0  0  0  0  0  0  0  0  0  0
   38.0830   22.9750   34.6890 C   0  0  0  0  0  0  0  0  0  0  0  0
   37.3700   21.8710   34.3200 N   0  0  0  0  0  0  0  0  0  0  0  0
   37.0480   21.6840   32.9990 C   0  0  0  0  0  0  0  0  0  0  0  0
   37.4020   22.5380   32.0410 N   0  0  0  0  0  0  0  0  0  0  0  0
   38.3580   24.2830   31.5530 H   0  0  0  0  0  0  0  0  0  0  0  0
   36.4860   20.7760   32.8520 H   0  0  0  0  0  0  0  0  0  0  0  0
   38.4100   23.1610   36.0810 C   0  0  0  0  0  0  0  0  0  0  0  0
   39.5720   22.6210   36.5530 C   0  0  0  0  0  0  0  0  0  0  0  0
   39.9220   22.7770   37.9030 C   0  0  0  0  0  0  0  0  0  0  0  0
   39.0550   23.4900   38.7250 C   0  0  0  0  0  0  0  0  0  0  0  0
   37.8780   24.0520   38.3010 C   0  0  0  0  0  0  0  0  0  0  0  0
   37.6090   23.8520   36.9630 C   0  0  0  0  0  0  0  0  0  0  0  0
   40.3140   22.0500   36.0410 H   0  0  0  0  0  0  0  0  0  0  0  0
   40.8040   22.3930   38.3600 H   0  0  0  0  0  0  0  0  0  0  0  0
   39.3150   23.6210   39.7870 H   0  0  0  0  0  0  0  0  0  0  0  0
   37.2090   24.6020   38.9420 H   0  0  0  0  0  0  0  0  0  0  0  0
   36.6760   24.2790   36.5620 H   0  0  0  0  0  0  0  0  0  0  0  0
   38.4420   27.2170   34.2130 H   0  0  0  0  0  0  0  0  0  0  0  0
   38.2410   26.1460   34.0520 C   0  0  0  0  0  0  0  0  0  0  0  0
   36.9990   26.4260   34.1010 O   0  0  0  0  0  0  0  0  0  0  0  0
   39.1690   25.0550   33.8840 N   0  0  0  0  0  0  0  0  0  0  0  0
   40.1140   25.4830   33.9340 H   0  0  0  0  0  0  0  0  0  0  0  0
  1  2  1  0  0  0  0
  2 23  1  0  0  0  0
  2  3  2  0  0  0  0
  3  9  1  0  0  0  0
  4  3  1  0  0  0  0
  5  4  2  0  0  0  0
  6  1  2  0  0  0  0
  6  5  1  0  0  0  0
  7  1  1  0  0  0  0
  8  5  1  0  0  0  0
  9 10  2  0  0  0  0
  9 14  1  0  0  0  0
 10 11  1  0  0  0  0
 11 16  1  0  0  0  0
 11 12  2  0  0  0  0
 12 17  1  0  0  0  0
 13 12  1  0  0  0  0
 13 18  1  0  0  0  0
 14 13  2  0  0  0  0
 15 10  1  0  0  0  0
 19 14  1  0  0  0  0
 21 22  2  0  0  0  0
 21 20  1  0  0  0  0
 23 24  1  0  0  0  0
 23 21  1  0  0  0  0
M  END
>  <minimizedAffinity>
-4.18821669

$$$$

 OpenBabel03272509123D

 24 25  0  0  0  0  0  0  0  0999 V2000
   35.1320   25.7040   30.8770 C   0  0  0  0  0  0  0  0  0  0  0  0
   35.9940   26.3090   31.8160 C   0  0  0  0  0  0  0  0  0  0  0  0
   36.8540   25.5420   32.5730 C   0  0  0  0  0  0  0  0  0  0  0  0
   36.8460   24.1890   32.3860 N   0  0  0  0  0  0  0  0  0  0  0  0
   35.9920   23.6390   31.4620 C   0  0  0  0  0  0  0  0  0  0  0  0
   35.1570   24.3680   30.7260 N   0  0  0  0  0  0  0  0  0  0  0  0
   34.4450   26.2320   30.2610 H   0  0  0  0  0  0  0  0  0  0  0  0
   36.0910   22.5660   31.4200 H   0  0  0  0  0  0  0  0  0  0  0  0
   37.7510   26.1050   33.5490 C   0  0  0  0  0  0  0  0  0  0  0  0
   37.2840   26.3150   34.8160 C   0  0  0  0  0  0  0  0  0  0  0  0
   38.1270   26.8670   35.7940 C   0  0  0  0  0  0  0  0  0  0  0  0
   39.4310   27.1840   35.4290 C   0  0  0  0  0  0  0  0  0  0  0  0
   39.9490   26.9930   34.1720 C   0  0  0  0  0  0  0  0  0  0  0  0
   39.0560   26.4480   33.2730 C   0  0  0  0  0  0  0  0  0  0  0  0
   36.3160   26.1280   35.2230 H   0  0  0  0  0  0  0  0  0  0  0  0
   37.8520   27.0650   36.8020 H   0  0  0  0  0  0  0  0  0  0  0  0
   40.1050   27.6180   36.1840 H   0  0  0  0  0  0  0  0  0  0  0  0
   40.9600   27.2420   33.8950 H   0  0  0  0  0  0  0  0  0  0  0  0
   39.4140   26.2710   32.2460 H   0  0  0  0  0  0  0  0  0  0  0  0
   36.7430   29.3660   30.5640 H   0  0  0  0  0  0  0  0  0  0  0  0
   36.6240   28.3020   30.8220 C   0  0  0  0  0  0  0  0  0  0  0  0
   37.4080   28.0340   29.8550 O   0  0  0  0  0  0  0  0  0  0  0  0
   35.8420   27.6950   31.8710 N   0  0  0  0  0  0  0  0  0  0  0  0
   35.3920   28.4850   32.3750 H   0  0  0  0  0  0  0  0  0  0  0  0
  1  2  1  0  0  0  0
  2 23  1  0  0  0  0
  2  3  2  0  0  0  0
  3  9  1  0  0  0  0
  4  3  1  0  0  0  0
  5  4  2  0  0  0  0
  6  1  2  0  0  0  0
  6  5  1  0  0  0  0
  7  1  1  0  0  0  0
  8  5  1  0  0  0  0
  9 10  1  0  0  0  0
 10 15  1  0  0  0  0
 10 11  2  0  0  0  0
 11 16  1  0  0  0  0
 12 11  1  0  0  0  0
 12 17  1  0  0  0  0
 13 12  2  0  0  0  0
 14  9  2  0  0  0  0
 14 13  1  0  0  0  0
 18 13  1  0  0  0  0
 19 14  1  0  0  0  0
 20 21  1  0  0  0  0
 21 23  1  0  0  0  0
 22 21  2  0  0  0  0
 23 24  1  0  0  0  0
M  END
>  <minimizedAffinity>
-4.18376255

$$$$

 OpenBabel03272509123D

 24 25  0  0  0  0  0  0  0  0999 V2000
   37.7030   24.2280   32.2380 C   0  0  0  0  0  0  0  0  0  0  0  0
   38.1220   23.7070   33.4800 C   0  0  0  0  0  0  0  0  0  0  0  0
   38.0650   24.4830   34.6190 C   0  0  0  0  0  0  0  0  0  0  0  0
   37.5950   25.7600   34.5070 N   0  0  0  0  0  0  0  0  0  0  0  0
   37.1970   26.2300   33.2800 C   0  0  0  0  0  0  0  0  0  0  0  0
   37.2470   25.4920   32.1730 N   0  0  0  0  0  0  0  0  0  0  0  0
   37.7190   23.6900   31.3210 H   0  0  0  0  0  0  0  0  0  0  0  0
   36.8510   27.2490   33.3380 H   0  0  0  0  0  0  0  0  0  0  0  0
   38.4850   24.0050   35.9120 C   0  0  0  0  0  0  0  0  0  0  0  0
   37.6480   24.1920   36.9760 C   0  0  0  0  0  0  0  0  0  0  0  0
   38.0230   23.7440   38.2520 C   0  0  0  0  0  0  0  0  0  0  0  0
   39.2560   23.1140   38.3870 C   0  0  0  0  0  0  0  0  0  0  0  0
   40.1320   22.9020   37.3520 C   0  0  0  0  0  0  0  0  0  0  0  0
   39.6870   23.3720   36.1340 C   0  0  0  0  0  0  0  0  0  0  0  0
   36.6910   24.6610   37.0140 H   0  0  0  0  0  0  0  0  0  0  0  0
   37.4400   23.8450   39.1360 H   0  0  0  0  0  0  0  0  0  0  0  0
   39.5660   22.7580   39.3820 H   0  0  0  0  0  0  0  0  0  0  0  0
   41.0860   22.4140   37.4630 H   0  0  0  0  0  0  0  0  0  0  0  0
   40.3470   23.2310   35.2640 H   0  0  0  0  0  0  0  0  0  0  0  0
   37.4470   20.3900   33.3930 H   0  0  0  0  0  0  0  0  0  0  0  0
   37.4610   21.4900   33.4400 C   0  0  0  0  0  0  0  0  0  0  0  0
   36.1930   21.4510   33.5440 O   0  0  0  0  0  0  0  0  0  0  0  0
   38.5830   22.3940   33.3840 N   0  0  0  0  0  0  0  0  0  0  0  0
   39.4240   21.7900   33.2970 H   0  0  0  0  0  0  0  0  0  0  0  0
  1  2  1  0  0  0  0
  2  3  2  0  0  0  0
  3  9  1  0  0  0  0
  4  3  1  0  0  0  0
  5  8  1  0  0  0  0
  5  4  2  0  0  0  0
  6  1  2  0  0  0  0
  6  5  1  0  0  0  0
  7  1  1  0  0  0  0
  9 14  2  0  0  0  0
  9 10  1  0  0  0  0
 10 15  1  0  0  0  0
 10 11  2  0  0  0  0
 11 12  1  0  0  0  0
 11 16  1  0  0  0  0
 12 17  1  0  0  0  0
 13 18  1  0  0  0  0
 13 12  2  0  0  0  0
 14 13  1  0  0  0  0
 19 14  1  0  0  0  0
 20 21  1  0  0  0  0
 21 22  2  0  0  0  0
 23 21  1  0  0  0  0
 23  2  1  0  0  0  0
 24 23  1  0  0  0  0
M  END
>  <minimizedAffinity>
-4.12941122

$$$$

 OpenBabel03272509123D

 24 25  0  0  0  0  0  0  0  0999 V2000
   38.0820   24.0730   36.2990 C   0  0  0  0  0  0  0  0  0  0  0  0
   39.3830   23.6420   35.9640 C   0  0  0  0  0  0  0  0  0  0  0  0
   40.2030   23.0820   36.9210 C   0  0  0  0  0  0  0  0  0  0  0  0
   39.7200   22.9570   38.1910 N   0  0  0  0  0  0  0  0  0  0  0  0
   38.4470   23.3880   38.4770 C   0  0  0  0  0  0  0  0  0  0  0  0
   37.6460   23.9310   37.5630 N   0  0  0  0  0  0  0  0  0  0  0  0
   37.3970   24.5120   35.6150 H   0  0  0  0  0  0  0  0  0  0  0  0
   38.1980   23.2300   39.5140 H   0  0  0  0  0  0  0  0  0  0  0  0
   41.5410   22.6300   36.6370 C   0  0  0  0  0  0  0  0  0  0  0  0
   41.7610   21.2880   36.5120 C   0  0  0  0  0  0  0  0  0  0  0  0
   43.0520   20.8090   36.2400 C   0  0  0  0  0  0  0  0  0  0  0  0
   44.0790   21.7390   36.1040 C   0  0  0  0  0  0  0  0  0  0  0  0
   43.9110   23.0950   36.2200 C   0  0  0  0  0  0  0  0  0  0  0  0
   42.6140   23.4810   36.4870 C   0  0  0  0  0  0  0  0  0  0  0  0
   41.0760   20.4760   36.6000 H   0  0  0  0  0  0  0  0  0  0  0  0
   43.3190   19.7850   36.1270 H   0  0  0  0  0  0  0  0  0  0  0  0
   45.0980   21.3800   35.8910 H   0  0  0  0  0  0  0  0  0  0  0  0
   44.7100   23.8110   36.1150 H   0  0  0  0  0  0  0  0  0  0  0  0
   42.4160   24.5600   36.5920 H   0  0  0  0  0  0  0  0  0  0  0  0
   40.4150   25.7730   33.5420 H   0  0  0  0  0  0  0  0  0  0  0  0
   40.0990   25.2440   34.4550 C   0  0  0  0  0  0  0  0  0  0  0  0
   40.2760   26.3350   35.0870 O   0  0  0  0  0  0  0  0  0  0  0  0
   39.6960   23.8690   34.6230 N   0  0  0  0  0  0  0  0  0  0  0  0
   39.7500   23.4450   33.6760 H   0  0  0  0  0  0  0  0  0  0  0  0
  1  6  1  0  0  0  0
  2  1  2  0  0  0  0
  2  3  1  0  0  0  0
  3  4  2  0  0  0  0
  4  5  1  0  0  0  0
  5  8  1  0  0  0  0
  6  5  2  0  0  0  0
  7  1  1  0  0  0  0
  9  3  1  0  0  0  0
 10 15  1  0  0  0  0
 10  9  1  0  0  0  0
 11 10  2  0  0  0  0
 12 13  2  0  0  0  0
 12 11  1  0  0  0  0
 13 14  1  0  0  0  0
 14 19  1  0  0  0  0
 14  9  2  0  0  0  0
 16 11  1  0  0  0  0
 17 12  1  0  0  0  0
 18 13  1  0  0  0  0
 20 21  1  0  0  0  0
 21 23  1  0  0  0  0
 21 22  2  0  0  0  0
 23  2  1  0  0  0  0
 24 23  1  0  0  0  0
M  END
>  <minimizedAffinity>
-4.06983709

$$$$

 OpenBabel03272509123D

 24 25  0  0  0  0  0  0  0  0999 V2000
   37.6940   24.9830   32.0600 C   0  0  0  0  0  0  0  0  0  0  0  0
   37.5220   23.5860   32.1640 C   0  0  0  0  0  0  0  0  0  0  0  0
   36.3250   23.0000   31.8120 C   0  0  0  0  0  0  0  0  0  0  0  0
   35.3190   23.8060   31.3630 N   0  0  0  0  0  0  0  0  0  0  0  0
   35.5250   25.1610   31.2760 C   0  0  0  0  0  0  0  0  0  0  0  0
   36.6760   25.7400   31.6120 N   0  0  0  0  0  0  0  0  0  0  0  0
   38.5860   25.5020   32.3120 H   0  0  0  0  0  0  0  0  0  0  0  0
   34.6510   25.6730   30.9080 H   0  0  0  0  0  0  0  0  0  0  0  0
   36.0920   21.5810   31.9040 C   0  0  0  0  0  0  0  0  0  0  0  0
   35.6260   21.0740   33.0840 C   0  0  0  0  0  0  0  0  0  0  0  0
   35.3920   19.6960   33.2140 C   0  0  0  0  0  0  0  0  0  0  0  0
   35.6480   18.8830   32.1140 C   0  0  0  0  0  0  0  0  0  0  0  0
   36.1160   19.3420   30.9080 C   0  0  0  0  0  0  0  0  0  0  0  0
   36.3190   20.7060   30.8660 C   0  0  0  0  0  0  0  0  0  0  0  0
   35.3990   21.5760   33.9970 H   0  0  0  0  0  0  0  0  0  0  0  0
   35.0300   19.2120   34.0900 H   0  0  0  0  0  0  0  0  0  0  0  0
   35.4700   17.8000   32.1990 H   0  0  0  0  0  0  0  0  0  0  0  0
   36.3140   18.7080   30.0600 H   0  0  0  0  0  0  0  0  0  0  0  0
   36.6950   21.1340   29.9230 H   0  0  0  0  0  0  0  0  0  0  0  0
   39.3790   22.5980   34.8180 H   0  0  0  0  0  0  0  0  0  0  0  0
   38.6490   23.0000   34.0980 C   0  0  0  0  0  0  0  0  0  0  0  0
   37.9800   23.4270   35.0940 O   0  0  0  0  0  0  0  0  0  0  0  0
   38.6570   22.9410   32.6570 N   0  0  0  0  0  0  0  0  0  0  0  0
   39.5270   22.4330   32.4030 H   0  0  0  0  0  0  0  0  0  0  0  0
  1  2  1  0  0  0  0
  1  7  1  0  0  0  0
  2 23  1  0  0  0  0
  3  9  1  0  0  0  0
  3  2  2  0  0  0  0
  4  3  1  0  0  0  0
  5  4  2  0  0  0  0
  5  6  1  0  0  0  0
  6  1  2  0  0  0  0
  8  5  1  0  0  0  0
  9 10  1  0  0  0  0
 10 11  2  0  0  0  0
 10 15  1  0  0  0  0
 11 16  1  0  0  0  0
 12 17  1  0  0  0  0
 12 11  1  0  0  0  0
 13 12  2  0  0  0  0
 14 13  1  0  0  0  0
 14  9  2  0  0  0  0
 18 13  1  0  0  0  0
 19 14  1  0  0  0  0
 21 20  1  0  0  0  0
 21 22  2  0  0  0  0
 23 21  1  0  0  0  0
 24 23  1  0  0  0  0
M  END
>  <minimizedAffinity>
-4.06008339

$$$$

 OpenBabel03272509123D

 24 25  0  0  0  0  0  0  0  0999 V2000
   37.1120   25.5250   32.6160 C   0  0  0  0  0  0  0  0  0  0  0  0
   37.0410   24.1180   32.5440 C   0  0  0  0  0  0  0  0  0  0  0  0
   36.1310   23.5040   31.7100 C   0  0  0  0  0  0  0  0  0  0  0  0
   35.3070   24.2940   30.9620 N   0  0  0  0  0  0  0  0  0  0  0  0
   35.4060   25.6600   31.0600 C   0  0  0  0  0  0  0  0  0  0  0  0
   36.2800   26.2650   31.8610 N   0  0  0  0  0  0  0  0  0  0  0  0
   37.7870   26.0650   33.2340 H   0  0  0  0  0  0  0  0  0  0  0  0
   34.6980   26.1570   30.4170 H   0  0  0  0  0  0  0  0  0  0  0  0
   36.0110   22.0720   31.6010 C   0  0  0  0  0  0  0  0  0  0  0  0
   35.0470   21.4430   32.3370 C   0  0  0  0  0  0  0  0  0  0  0  0
   34.9030   20.0490   32.2620 C   0  0  0  0  0  0  0  0  0  0  0  0
   35.7640   19.3470   31.4230 C   0  0  0  0  0  0  0  0  0  0  0  0
   36.7470   19.9310   30.6640 C   0  0  0  0  0  0  0  0  0  0  0  0
   36.8210   21.3020   30.7970 C   0  0  0  0  0  0  0  0  0  0  0  0
   34.3360   21.8530   33.0180 H   0  0  0  0  0  0  0  0  0  0  0  0
   34.1840   19.4740   32.7950 H   0  0  0  0  0  0  0  0  0  0  0  0
   35.6640   18.2530   31.3530 H   0  0  0  0  0  0  0  0  0  0  0  0
   37.4110   19.3820   30.0170 H   0  0  0  0  0  0  0  0  0  0  0  0
   37.5920   21.8280   30.2120 H   0  0  0  0  0  0  0  0  0  0  0  0
   40.1630   22.9210   33.0840 H   0  0  0  0  0  0  0  0  0  0  0  0
   39.2210   23.3610   32.7220 C   0  0  0  0  0  0  0  0  0  0  0  0
   39.8210   23.6150   31.6270 O   0  0  0  0  0  0  0  0  0  0  0  0
   37.9520   23.4900   33.3950 N   0  0  0  0  0  0  0  0  0  0  0  0
   38.0880   23.0600   34.3310 H   0  0  0  0  0  0  0  0  0  0  0  0
  1  7  1  0  0  0  0
  2  1  1  0  0  0  0
  2 23  1  0  0  0  0
  3  2  2  0  0  0  0
  4  5  2  0  0  0  0
  4  3  1  0  0  0  0
  5  6  1  0  0  0  0
  6  1  2  0  0  0  0
  8  5  1  0  0  0  0
  9  3  1  0  0  0  0
  9 10  1  0  0  0  0
 10 15  1  0  0  0  0
 11 10  2  0  0  0  0
 11 16  1  0  0  0  0
 12 11  1  0  0  0  0
 13 14  1  0  0  0  0
 13 12  2  0  0  0  0
 14  9  2  0  0  0  0
 17 12  1  0  0  0  0
 18 13  1  0  0  0  0
 19 14  1  0  0  0  0
 21 20  1  0  0  0  0
 21 23  1  0  0  0  0
 22 21  2  0  0  0  0
 23 24  1  0  0  0  0
M  END
>  <minimizedAffinity>
-4.01689053

$$$$
