
 OpenBabel03262522153D

 42 45  0  0  1  0  0  0  0  0999 V2000
   40.5730   33.2040   45.2080 S   0  0  0  0  0  0  0  0  0  0  0  0
   37.7920   31.7970   47.6580 C   0  0  0  0  0  0  0  0  0  0  0  0
   37.9610   32.5280   48.8340 C   0  0  0  0  0  0  0  0  0  0  0  0
   38.9460   33.4980   48.9350 C   0  0  0  0  0  0  0  0  0  0  0  0
   39.7310   33.6850   47.8090 C   0  0  0  0  0  0  0  0  0  0  0  0
   39.5380   32.9540   46.6800 C   0  0  0  0  0  0  0  0  0  0  0  0
   38.5820   32.0080   46.5750 N   0  0  0  0  0  0  0  0  0  0  0  0
   37.3300   32.3560   49.6930 H   0  0  0  0  0  0  0  0  0  0  0  0
   39.1120   34.0830   49.8180 H   0  0  0  0  0  0  0  0  0  0  0  0
   40.5300   34.4200   47.7880 H   0  0  0  0  0  0  0  0  0  0  0  0
   36.7430   30.8070   47.6390 C   0  0  0  0  0  0  0  0  0  0  0  0
   36.2800   30.3880   46.5790 O   0  0  0  0  0  0  0  0  0  0  0  0
   37.0580   29.6360   49.7890 C   0  0  0  0  0  0  0  0  0  0  0  0
   36.1710   30.2450   48.8760 C   0  0  0  0  0  0  0  0  0  0  0  0
   34.7960   30.2990   49.1590 C   0  0  0  0  0  0  0  0  0  0  0  0
   34.3550   29.7500   50.3330 N   0  0  0  0  0  0  0  0  0  0  0  0
   35.2310   29.1680   51.1990 C   0  0  0  0  0  0  0  0  0  0  0  0
   36.5270   29.1180   50.9300 N   0  0  0  0  0  0  0  0  0  0  0  0
   38.1140   29.5700   49.6160 H   0  0  0  0  0  0  0  0  0  0  0  0
   34.1620   30.7660   48.4460 H   0  0  0  0  0  0  0  0  0  0  0  0
   34.7370   28.7820   52.0790 H   0  0  0  0  0  0  0  0  0  0  0  0
   39.4820   32.9610   43.7860 C   0  0  0  0  0  0  0  0  0  0  0  0
   39.5090   33.8760   43.1470 H   0  0  0  0  0  0  0  0  0  0  0  0
   38.4310   32.7360   44.0580 H   0  0  0  0  0  0  0  0  0  0  0  0
   39.0830   29.7390   42.3650 C   0  0  1  0  0  0  0  0  0  0  0  0
   38.9540   31.2310   42.0770 C   0  0  0  0  0  0  0  0  0  0  0  0
   40.0110   31.7810   42.9920 C   0  0  2  0  0  0  0  0  0  0  0  0
   40.4580   30.7700   43.8010 O   0  0  0  0  0  0  0  0  0  0  0  0
   39.4970   29.7590   43.8100 C   0  0  0  0  0  0  0  0  0  0  0  0
   39.8340   29.2610   41.7320 H   0  0  0  0  0  0  0  0  0  0  0  0
   39.1020   31.4890   41.0210 H   0  0  0  0  0  0  0  0  0  0  0  0
   37.9660   31.5460   42.4910 H   0  0  0  0  0  0  0  0  0  0  0  0
   40.8660   32.1650   42.3720 H   0  0  0  0  0  0  0  0  0  0  0  0
   38.6510   29.9600   44.4720 H   0  0  0  0  0  0  0  0  0  0  0  0
   40.0630   28.8340   44.1040 H   0  0  0  0  0  0  0  0  0  0  0  0
   37.8530   29.0980   42.1840 O   0  0  0  0  0  0  0  0  0  0  0  0
   39.1510   27.6950   40.0110 H   0  0  0  0  0  0  0  0  0  0  0  0
   39.1930   27.5020   41.0450 N   0  0  0  0  0  0  0  0  0  0  0  0
   39.2580   26.0410   41.1950 C   0  0  0  0  0  2  0  0  0  0  0  0
   39.0090   25.9730   42.7090 C   0  0  0  0  0  2  0  0  0  0  0  0
   37.6960   26.7600   42.7410 C   0  0  0  0  0  2  0  0  0  0  0  0
   37.9590   27.8220   41.7010 C   0  0  1  0  0  3  0  0  0  0  0  0
  1  6  1  0  0  0  0
  2  3  1  0  0  0  0
  3  4  2  0  0  0  0
  3  8  1  0  0  0  0
  4  9  1  0  0  0  0
  5  4  1  0  0  0  0
  6  5  2  0  0  0  0
  7  6  1  0  0  0  0
  7  2  2  0  0  0  0
 10  5  1  0  0  0  0
 11  2  1  0  0  0  0
 11 14  1  0  0  0  0
 12 11  2  0  0  0  0
 13 18  1  0  0  0  0
 14 15  1  0  0  0  0
 14 13  2  0  0  0  0
 15 16  2  0  0  0  0
 16 17  1  0  0  0  0
 17 21  1  0  0  0  0
 18 17  2  0  0  0  0
 19 13  1  0  0  0  0
 20 15  1  0  0  0  0
 22 24  1  0  0  0  0
 22  1  1  0  0  0  0
 23 22  1  0  0  0  0
 25 30  1  6  0  0  0
 25 29  1  0  0  0  0
 26 25  1  0  0  0  0
 26 32  1  0  0  0  0
 26 27  1  0  0  0  0
 27 33  1  6  0  0  0
 27 22  1  0  0  0  0
 27 28  1  0  0  0  0
 28 29  1  0  0  0  0
 29 35  1  0  0  0  0
 29 34  1  0  0  0  0
 31 26  1  0  0  0  0
 36 25  1  0  0  0  0
 37 38  1  0  0  0  0
 38 39  1  0  0  0  0
 38 42  1  0  0  0  0
 39 40  1  0  0  0  0
 40 41  1  0  0  0  0
 42 36  1  1  0  0  0
 42 41  1  0  0  0  0
M  END
>  <minimizedAffinity>
-5.39810181

>  <minimizedRMSD>
0.676671445

$$$$
