
 OpenBabel03272509303D

 35 37  0  0  1  0  0  0  0  0999 V2000
   36.5460   30.8530   48.8790 C   0  0  2  0  0  0  0  0  0  0  0  0
   37.4110   31.5780   49.8600 C   0  0  0  0  0  0  0  0  0  0  0  0
   38.0610   30.6580   50.8700 C   0  0  0  0  0  0  0  0  0  0  0  0
   37.0140   29.8340   51.6100 C   0  0  0  0  0  0  0  0  0  0  0  0
   35.8410   29.4230   50.7570 C   0  0  0  0  0  0  0  0  0  0  0  0
   36.2980   29.4360   49.2860 C   0  0  1  0  0  0  0  0  0  0  0  0
   35.5210   31.3250   48.7430 H   0  0  0  0  0  0  0  0  0  0  0  0
   36.6780   32.1900   50.4880 H   0  0  0  0  0  0  0  0  0  0  0  0
   38.1020   32.3000   49.4700 H   0  0  0  0  0  0  0  0  0  0  0  0
   38.5560   31.2990   51.6200 H   0  0  0  0  0  0  0  0  0  0  0  0
   38.7810   29.9600   50.4380 H   0  0  0  0  0  0  0  0  0  0  0  0
   36.6660   30.3680   52.5260 H   0  0  0  0  0  0  0  0  0  0  0  0
   37.4830   28.8920   51.9660 H   0  0  0  0  0  0  0  0  0  0  0  0
   35.5340   28.3690   50.9590 H   0  0  0  0  0  0  0  0  0  0  0  0
   34.9490   30.0470   50.9000 H   0  0  0  0  0  0  0  0  0  0  0  0
   37.2060   28.8920   49.3620 H   0  0  0  0  0  0  0  0  0  0  0  0
   34.1240   28.3170   48.6060 C   0  0  0  0  0  0  0  0  0  0  0  0
   33.2760   28.6500   49.4890 O   0  0  0  0  0  0  0  0  0  0  0  0
   35.4780   28.6950   48.4000 N   0  0  0  0  0  0  0  0  0  0  0  0
   35.8680   28.3600   47.4600 H   0  0  0  0  0  0  0  0  0  0  0  0
   33.5250   27.3930   47.6920 N   0  0  0  0  0  0  0  0  0  0  0  0
   33.5200   27.2780   46.2540 C   0  0  0  0  0  2  0  0  0  0  0  0
   33.8750   25.8550   45.8970 C   0  0  0  0  0  2  0  0  0  0  0  0
   33.3140   25.1070   47.0840 C   0  0  0  0  0  2  0  0  0  0  0  0
   32.6950   26.2230   47.8620 C   0  0  0  0  0  3  0  0  0  0  0  0
   32.6360   26.0240   48.9500 H   0  0  0  0  0  0  0  0  0  0  0  0
   37.1470   30.8610   47.5210 C   0  0  0  0  0  0  0  0  0  0  0  0
   38.5160   31.1390   47.4650 C   0  0  0  0  0  0  0  0  0  0  0  0
   39.1150   31.1500   46.2020 C   0  0  0  0  0  0  0  0  0  0  0  0
   38.3300   30.8870   45.1000 N   0  0  0  0  0  0  0  0  0  0  0  0
   36.9920   30.6190   45.2060 C   0  0  0  0  0  0  0  0  0  0  0  0
   36.4220   30.6110   46.4220 N   0  0  0  0  0  0  0  0  0  0  0  0
   39.2480   31.3490   48.2200 H   0  0  0  0  0  0  0  0  0  0  0  0
   40.1490   31.3460   45.9950 H   0  0  0  0  0  0  0  0  0  0  0  0
   36.5050   30.4340   44.2760 H   0  0  0  0  0  0  0  0  0  0  0  0
  1  7  1  6  0  0  0
  1  6  1  0  0  0  0
  1  2  1  0  0  0  0
  2  8  1  0  0  0  0
  2  3  1  0  0  0  0
  3  4  1  0  0  0  0
  3 10  1  0  0  0  0
  4 13  1  0  0  0  0
  4 12  1  0  0  0  0
  5 15  1  0  0  0  0
  5 14  1  0  0  0  0
  5  4  1  0  0  0  0
  6 16  1  6  0  0  0
  6  5  1  0  0  0  0
  9  2  1  0  0  0  0
 11  3  1  0  0  0  0
 17 18  2  0  0  0  0
 19 17  1  0  0  0  0
 19  6  1  0  0  0  0
 20 19  1  0  0  0  0
 21 25  1  0  0  0  0
 21 17  1  0  0  0  0
 22 21  1  0  0  0  0
 23 22  1  0  0  0  0
 23 24  1  0  0  0  0
 24 25  1  0  0  0  0
 25 26  1  0  0  0  0
 27  1  1  0  0  0  0
 28 27  1  0  0  0  0
 28 33  1  0  0  0  0
 29 28  2  0  0  0  0
 30 31  2  0  0  0  0
 30 29  1  0  0  0  0
 31 32  1  0  0  0  0
 32 27  2  0  0  0  0
 34 29  1  0  0  0  0
 35 31  1  0  0  0  0
M  END
>  <minimizedAffinity>
-5.95761919

>  <minimizedRMSD>
1.12809289

$$$$
