
 OpenBabel03272507403D

 38 41  0  0  0  0  0  0  0  0999 V2000
   38.1700   32.1930   47.2920 C   0  0  0  0  0  0  0  0  0  0  0  0
   37.7710   32.6250   48.5430 C   0  0  0  0  0  0  0  0  0  0  0  0
   38.5110   33.5620   49.2440 C   0  0  0  0  0  0  0  0  0  0  0  0
   39.6740   34.0770   48.6760 C   0  0  0  0  0  0  0  0  0  0  0  0
   40.0790   33.6480   47.4200 C   0  0  0  0  0  0  0  0  0  0  0  0
   39.3050   32.7130   46.7680 C   0  0  0  0  0  0  0  0  0  0  0  0
   38.2480   33.9330   50.2200 H   0  0  0  0  0  0  0  0  0  0  0  0
   40.2690   34.8100   49.2040 H   0  0  0  0  0  0  0  0  0  0  0  0
   40.9830   34.0760   47.0260 H   0  0  0  0  0  0  0  0  0  0  0  0
   39.7530   32.2620   45.4180 C   0  0  0  0  0  0  0  0  0  0  0  0
   40.5870   31.2410   45.0740 C   0  0  0  0  0  0  0  0  0  0  0  0
   40.6860   31.2320   43.6930 C   0  0  0  0  0  0  0  0  0  0  0  0
   39.8800   32.2800   43.2720 C   0  0  0  0  0  0  0  0  0  0  0  0
   39.3400   32.8730   44.3200 O   0  0  0  0  0  0  0  0  0  0  0  0
   41.0690   30.5770   45.7730 H   0  0  0  0  0  0  0  0  0  0  0  0
   41.2640   30.5560   43.0690 H   0  0  0  0  0  0  0  0  0  0  0  0
   39.7090   32.5820   42.2350 H   0  0  0  0  0  0  0  0  0  0  0  0
   36.7020   30.4480   46.1090 N   0  0  0  0  0  0  0  0  0  0  0  0
   37.3540   31.2310   46.6450 C   0  0  0  0  0  0  0  0  0  0  0  0
   36.6380   32.1970   49.2270 O   0  0  0  0  0  0  0  0  0  0  0  0
   36.6150   31.1590   50.0960 C   0  0  0  0  0  0  0  0  0  0  0  0
   35.5160   30.3110   49.8640 C   0  0  0  0  0  0  0  0  0  0  0  0
   35.3190   29.1920   50.6520 C   0  0  0  0  0  0  0  0  0  0  0  0
   36.2230   28.9550   51.6410 N   0  0  0  0  0  0  0  0  0  0  0  0
   37.2800   29.7890   51.8470 C   0  0  0  0  0  0  0  0  0  0  0  0
   37.4530   30.8520   51.0880 N   0  0  0  0  0  0  0  0  0  0  0  0
   34.5020   28.5020   50.5290 H   0  0  0  0  0  0  0  0  0  0  0  0
   37.9410   29.5150   52.6580 H   0  0  0  0  0  0  0  0  0  0  0  0
   34.2390   29.3940   48.0110 C   0  0  0  0  0  0  0  0  0  0  0  0
   34.7550   28.2140   47.8130 O   0  0  0  0  0  0  0  0  0  0  0  0
   34.5390   30.4850   48.8660 N   0  0  0  0  0  0  0  0  0  0  0  0
   33.9650   31.3270   48.6340 H   0  0  0  0  0  0  0  0  0  0  0  0
   33.1680   29.3680   47.0700 N   0  0  0  0  0  0  0  0  0  0  0  0
   33.3580   29.8310   45.7080 C   0  0  0  0  0  2  0  0  0  0  0  0
   32.8800   28.5950   44.9360 C   0  0  0  0  0  2  0  0  0  0  0  0
   31.5680   28.3280   45.6440 C   0  0  0  0  0  2  0  0  0  0  0  0
   31.7500   28.9850   46.9990 C   0  0  0  0  0  3  0  0  0  0  0  0
   31.4690   28.3110   47.8230 H   0  0  0  0  0  0  0  0  0  0  0  0
  1  2  1  0  0  0  0
  2 20  1  0  0  0  0
  2  3  2  0  0  0  0
  3  7  1  0  0  0  0
  4  8  1  0  0  0  0
  4  3  1  0  0  0  0
  5  4  2  0  0  0  0
  6  1  2  0  0  0  0
  6  5  1  0  0  0  0
  9  5  1  0  0  0  0
 10  6  1  0  0  0  0
 11 10  2  0  0  0  0
 11 15  1  0  0  0  0
 12 11  1  0  0  0  0
 13 12  2  0  0  0  0
 13 14  1  0  0  0  0
 14 10  1  0  0  0  0
 16 12  1  0  0  0  0
 17 13  1  0  0  0  0
 18 19  3  0  0  0  0
 19  1  1  0  0  0  0
 20 21  1  0  0  0  0
 21 26  1  0  0  0  0
 22 21  2  0  0  0  0
 22 23  1  0  0  0  0
 23 24  2  0  0  0  0
 24 25  1  0  0  0  0
 25 28  1  0  0  0  0
 26 25  2  0  0  0  0
 27 23  1  0  0  0  0
 29 31  1  0  0  0  0
 30 29  2  0  0  0  0
 31 22  1  0  0  0  0
 32 31  1  0  0  0  0
 33 29  1  0  0  0  0
 34 33  1  0  0  0  0
 35 36  1  0  0  0  0
 35 34  1  0  0  0  0
 36 37  1  0  0  0  0
 37 33  1  0  0  0  0
 37 38  1  0  0  0  0
M  END
>  <minimizedAffinity>
-5.94792032

>  <minimizedRMSD>
0.346356869

$$$$
