
 OpenBabel03272509293D

 35 37  0  0  1  0  0  0  0  0999 V2000
   36.3050   30.7220   48.9760 C   0  0  2  0  0  0  0  0  0  0  0  0
   37.2540   31.5390   49.7930 C   0  0  0  0  0  0  0  0  0  0  0  0
   38.0820   30.7080   50.7490 C   0  0  0  0  0  0  0  0  0  0  0  0
   37.1880   29.8790   51.6650 C   0  0  0  0  0  0  0  0  0  0  0  0
   35.9350   29.3690   51.0010 C   0  0  0  0  0  0  0  0  0  0  0  0
   36.1890   29.3210   49.4820 C   0  0  1  0  0  0  0  0  0  0  0  0
   35.2480   31.1390   48.9590 H   0  0  0  0  0  0  0  0  0  0  0  0
   36.5810   32.1520   50.4840 H   0  0  0  0  0  0  0  0  0  0  0  0
   37.8480   32.2690   49.2770 H   0  0  0  0  0  0  0  0  0  0  0  0
   38.6380   31.4130   51.3920 H   0  0  0  0  0  0  0  0  0  0  0  0
   38.7730   30.0210   50.2580 H   0  0  0  0  0  0  0  0  0  0  0  0
   36.9380   30.4480   52.5930 H   0  0  0  0  0  0  0  0  0  0  0  0
   37.7490   28.9820   52.0000 H   0  0  0  0  0  0  0  0  0  0  0  0
   35.7140   28.3150   51.2940 H   0  0  0  0  0  0  0  0  0  0  0  0
   35.0390   29.9590   51.2340 H   0  0  0  0  0  0  0  0  0  0  0  0
   37.1270   28.8230   49.4610 H   0  0  0  0  0  0  0  0  0  0  0  0
   33.9210   28.2760   49.0270 C   0  0  0  0  0  0  0  0  0  0  0  0
   33.1170   28.8420   49.8280 O   0  0  0  0  0  0  0  0  0  0  0  0
   35.2980   28.4940   48.7550 N   0  0  0  0  0  0  0  0  0  0  0  0
   35.6460   27.9530   47.8970 H   0  0  0  0  0  0  0  0  0  0  0  0
   33.2350   27.2470   48.3070 N   0  0  0  0  0  0  0  0  0  0  0  0
   31.8410   26.9310   48.1120 C   0  0  0  0  0  2  0  0  0  0  0  0
   31.6080   26.7310   46.6350 C   0  0  0  0  0  2  0  0  0  0  0  0
   32.9520   26.1970   46.1960 C   0  0  0  0  0  2  0  0  0  0  0  0
   33.6760   26.1320   47.5010 C   0  0  0  0  0  3  0  0  0  0  0  0
   34.7760   26.2210   47.4020 H   0  0  0  0  0  0  0  0  0  0  0  0
   36.7180   30.6810   47.5500 C   0  0  0  0  0  0  0  0  0  0  0  0
   38.0630   30.9650   47.3000 C   0  0  0  0  0  0  0  0  0  0  0  0
   38.4870   30.9310   45.9670 C   0  0  0  0  0  0  0  0  0  0  0  0
   37.5630   30.6220   44.9930 N   0  0  0  0  0  0  0  0  0  0  0  0
   36.2550   30.3500   45.2880 C   0  0  0  0  0  0  0  0  0  0  0  0
   35.8540   30.3850   46.5700 N   0  0  0  0  0  0  0  0  0  0  0  0
   38.8880   31.2080   47.9410 H   0  0  0  0  0  0  0  0  0  0  0  0
   39.4810   31.1250   45.6160 H   0  0  0  0  0  0  0  0  0  0  0  0
   35.6490   30.1270   44.4400 H   0  0  0  0  0  0  0  0  0  0  0  0
  1  7  1  1  0  0  0
  1  6  1  0  0  0  0
  1  2  1  0  0  0  0
  2  8  1  0  0  0  0
  2  3  1  0  0  0  0
  3 10  1  0  0  0  0
  3  4  1  0  0  0  0
  4 13  1  0  0  0  0
  4 12  1  0  0  0  0
  5 15  1  0  0  0  0
  5 14  1  0  0  0  0
  5  4  1  0  0  0  0
  6 16  1  6  0  0  0
  6  5  1  0  0  0  0
  9  2  1  0  0  0  0
 11  3  1  0  0  0  0
 17 18  2  0  0  0  0
 19 17  1  0  0  0  0
 19  6  1  0  0  0  0
 20 19  1  0  0  0  0
 21 17  1  0  0  0  0
 22 21  1  0  0  0  0
 23 22  1  0  0  0  0
 24 23  1  0  0  0  0
 24 25  1  0  0  0  0
 25 21  1  0  0  0  0
 26 25  1  0  0  0  0
 27  1  1  0  0  0  0
 28 27  1  0  0  0  0
 28 33  1  0  0  0  0
 29 28  2  0  0  0  0
 30 31  2  0  0  0  0
 30 29  1  0  0  0  0
 31 32  1  0  0  0  0
 32 27  2  0  0  0  0
 34 29  1  0  0  0  0
 35 31  1  0  0  0  0
M  END
>  <minimizedAffinity>
-6.00018215

>  <minimizedRMSD>
0.500801563

$$$$
