REMARK  Name = 
REMARK  2 active torsions:
REMARK  status: ('A' for Active; 'I' for Inactive)
REMARK    1  A    between atoms: C_1  and  O_10
REMARK    2  A    between atoms: O_10  and  C_20
REMARK                            x       y       z     vdW  Elec       q    Type
REMARK                         _______ _______ _______ _____ _____    ______ ____
ROOT
ATOM      1  C   UNL     1      37.391  30.131  51.095  0.00  0.00    +0.000 A 
ATOM      2  C   UNL     1      38.228  30.891  50.256  0.00  0.00    +0.000 A 
ATOM      3  C   UNL     1      37.692  31.439  49.093  0.00  0.00    +0.000 A 
ATOM      4  N   UNL     1      36.364  31.207  48.822  0.00  0.00    +0.000 NA
ATOM      5  C   UNL     1      35.587  30.467  49.656  0.00  0.00    +0.000 A 
ATOM      6  N   UNL     1      36.098  29.935  50.781  0.00  0.00    +0.000 NA
ATOM      7  C   UNL     1      33.912  28.834  49.202  0.00  0.00    +0.000 C 
ATOM      8  O   UNL     1      34.694  27.838  49.319  0.00  0.00    +0.000 OA
ATOM      9  N   UNL     1      34.206  30.245  49.343  0.00  0.00    +0.000 N 
ATOM     10  H   UNL     1      39.259  31.093  50.431  0.00  0.00    +0.000 HD
ATOM     11  H   UNL     1      38.252  32.025  48.406  0.00  0.00    +0.000 HD
ATOM     12  H   UNL     1      32.925  28.454  48.966  0.00  0.00    +0.000 HD
ATOM     13  H   UNL     1      33.420  30.895  49.206  0.00  0.00    +0.000 HD
ENDROOT
BRANCH   1  14
ATOM     14  O   UNL     1      38.058  29.659  52.198  0.00  0.00    +0.000 OA
BRANCH  14  20
ATOM     15  H   UNL     1      35.895  27.637  53.116  0.00  0.00    +0.000 HD
ATOM     16  N   UNL     1      36.778  27.807  52.608  0.00  0.00    +0.000 NA
ATOM     17  C   UNL     1      37.641  26.680  52.448  0.00  0.00    +0.000 C 
ATOM     18  C   UNL     1      39.046  27.137  52.799  0.00  0.00    +0.000 C 
ATOM     19  C   UNL     1      38.705  28.154  53.896  0.00  0.00    +0.000 C 
ATOM     20  C   UNL     1      37.551  28.879  53.231  0.00  0.00    +0.000 C 
ENDBRANCH  14  20
ENDBRANCH   1  14
TORSDOF 2
