
 OpenBabel03272509293D

 35 37  0  0  1  0  0  0  0  0999 V2000
   36.2730   30.6870   48.8670 C   0  0  2  0  0  0  0  0  0  0  0  0
   37.1590   31.4070   49.8330 C   0  0  0  0  0  0  0  0  0  0  0  0
   37.8090   30.4850   50.8430 C   0  0  0  0  0  0  0  0  0  0  0  0
   36.7590   29.6810   51.6000 C   0  0  0  0  0  0  0  0  0  0  0  0
   35.5710   29.2800   50.7640 C   0  0  0  0  0  0  0  0  0  0  0  0
   36.0110   29.2770   49.2870 C   0  0  1  0  0  0  0  0  0  0  0  0
   35.2540   31.1720   48.7400 H   0  0  0  0  0  0  0  0  0  0  0  0
   36.4420   32.0330   50.4650 H   0  0  0  0  0  0  0  0  0  0  0  0
   37.8550   32.1170   49.4300 H   0  0  0  0  0  0  0  0  0  0  0  0
   38.3200   31.1260   51.5830 H   0  0  0  0  0  0  0  0  0  0  0  0
   38.5140   29.7750   50.4080 H   0  0  0  0  0  0  0  0  0  0  0  0
   36.4280   30.2270   52.5170 H   0  0  0  0  0  0  0  0  0  0  0  0
   37.2190   28.7360   51.9580 H   0  0  0  0  0  0  0  0  0  0  0  0
   35.2520   28.2320   50.9760 H   0  0  0  0  0  0  0  0  0  0  0  0
   34.6890   29.9170   50.9120 H   0  0  0  0  0  0  0  0  0  0  0  0
   36.9120   28.7200   49.3580 H   0  0  0  0  0  0  0  0  0  0  0  0
   33.8070   28.2040   48.6290 C   0  0  0  0  0  0  0  0  0  0  0  0
   32.9690   28.5790   49.5030 O   0  0  0  0  0  0  0  0  0  0  0  0
   35.1710   28.5400   48.4160 N   0  0  0  0  0  0  0  0  0  0  0  0
   35.5530   28.1740   47.4840 H   0  0  0  0  0  0  0  0  0  0  0  0
   33.1830   27.2780   47.7330 N   0  0  0  0  0  0  0  0  0  0  0  0
   32.3210   26.1370   47.9260 C   0  0  0  0  0  2  0  0  0  0  0  0
   31.1360   26.2840   47.0050 C   0  0  0  0  0  2  0  0  0  0  0  0
   31.7530   27.0430   45.8530 C   0  0  0  0  0  2  0  0  0  0  0  0
   33.1770   27.1330   46.2960 C   0  0  0  0  0  3  0  0  0  0  0  0
   33.7150   28.0080   45.8810 H   0  0  0  0  0  0  0  0  0  0  0  0
   36.8590   30.6760   47.5030 C   0  0  0  0  0  0  0  0  0  0  0  0
   38.2400   30.8810   47.4340 C   0  0  0  0  0  0  0  0  0  0  0  0
   38.8260   30.8730   46.1640 C   0  0  0  0  0  0  0  0  0  0  0  0
   38.0150   30.6650   45.0690 N   0  0  0  0  0  0  0  0  0  0  0  0
   36.6660   30.4690   45.1880 C   0  0  0  0  0  0  0  0  0  0  0  0
   36.1100   30.4780   46.4100 N   0  0  0  0  0  0  0  0  0  0  0  0
   38.9910   31.0430   48.1830 H   0  0  0  0  0  0  0  0  0  0  0  0
   39.8660   31.0150   45.9470 H   0  0  0  0  0  0  0  0  0  0  0  0
   36.1600   30.3200   44.2620 H   0  0  0  0  0  0  0  0  0  0  0  0
  1  7  1  6  0  0  0
  1  6  1  0  0  0  0
  1  2  1  0  0  0  0
  2  8  1  0  0  0  0
  2  3  1  0  0  0  0
  3 10  1  0  0  0  0
  3  4  1  0  0  0  0
  4 13  1  0  0  0  0
  4 12  1  0  0  0  0
  5 15  1  0  0  0  0
  5 14  1  0  0  0  0
  5  4  1  0  0  0  0
  6 16  1  6  0  0  0
  6  5  1  0  0  0  0
  9  2  1  0  0  0  0
 11  3  1  0  0  0  0
 17 18  2  0  0  0  0
 19 17  1  0  0  0  0
 19  6  1  0  0  0  0
 20 19  1  0  0  0  0
 21 22  1  0  0  0  0
 21 17  1  0  0  0  0
 23 22  1  0  0  0  0
 24 25  1  0  0  0  0
 24 23  1  0  0  0  0
 25 21  1  0  0  0  0
 26 25  1  0  0  0  0
 27  1  1  0  0  0  0
 28 27  1  0  0  0  0
 28 33  1  0  0  0  0
 29 28  2  0  0  0  0
 30 31  2  0  0  0  0
 30 29  1  0  0  0  0
 31 32  1  0  0  0  0
 32 27  2  0  0  0  0
 34 29  1  0  0  0  0
 35 31  1  0  0  0  0
M  END
>  <minimizedAffinity>
-5.81643343

>  <minimizedRMSD>
0.90844804

$$$$
