
 OpenBabel03262523313D

 30 33  0  0  0  0  0  0  0  0999 V2000
   35.3880   30.0610   32.0480 C   0  0  0  0  0  0  0  0  0  0  0  0
   36.2800   29.0690   32.4170 C   0  0  0  0  0  0  0  0  0  0  0  0
   36.1820   28.5080   33.6780 C   0  0  0  0  0  0  0  0  0  0  0  0
   35.2020   28.9480   34.5290 N   0  0  0  0  0  0  0  0  0  0  0  0
   34.3430   29.9240   34.1340 C   0  0  0  0  0  0  0  0  0  0  0  0
   34.4410   30.4690   32.9060 N   0  0  0  0  0  0  0  0  0  0  0  0
   35.4720   30.4950   31.0600 H   0  0  0  0  0  0  0  0  0  0  0  0
   37.0560   28.7150   31.7510 H   0  0  0  0  0  0  0  0  0  0  0  0
   37.7660   27.7350   35.3530 C   0  0  0  0  0  0  0  0  0  0  0  0
   37.0570   27.4590   34.1780 C   0  0  0  0  0  0  0  0  0  0  0  0
   37.1920   26.2350   33.5370 C   0  0  0  0  0  0  0  0  0  0  0  0
   38.0570   25.3080   34.1130 C   0  0  0  0  0  0  0  0  0  0  0  0
   38.3520   24.0660   33.6800 N   0  0  0  0  0  0  0  0  0  0  0  0
   39.2350   23.5560   34.5630 C   0  0  0  0  0  0  0  0  0  0  0  0
   39.4930   24.4410   35.5240 N   0  0  0  0  0  0  0  0  0  0  0  0
   38.7770   25.5500   35.2770 C   0  0  0  0  0  0  0  0  0  0  0  0
   38.6250   26.7810   35.9010 C   0  0  0  0  0  0  0  0  0  0  0  0
   37.7030   28.6540   35.8880 H   0  0  0  0  0  0  0  0  0  0  0  0
   36.6470   26.0250   32.6350 H   0  0  0  0  0  0  0  0  0  0  0  0
   37.9620   23.5900   32.8170 H   0  0  0  0  0  0  0  0  0  0  0  0
   39.6630   22.5590   34.4860 H   0  0  0  0  0  0  0  0  0  0  0  0
   39.1820   26.9710   36.8040 H   0  0  0  0  0  0  0  0  0  0  0  0
   33.3150   30.3550   35.0910 C   0  0  0  0  0  0  0  0  0  0  0  0
   32.1240   29.9390   34.9340 O   0  0  0  0  0  0  0  0  0  0  0  0
   33.7940   31.2230   36.1250 N   0  0  0  0  0  0  0  0  0  0  0  0
   35.1200   31.7550   36.3970 C   0  0  0  0  0  2  0  0  0  0  0  0
   34.9100   33.1840   36.8390 C   0  0  0  0  0  2  0  0  0  0  0  0
   33.5150   33.1860   37.4210 C   0  0  0  0  0  2  0  0  0  0  0  0
   32.9750   31.7940   37.2030 C   0  0  0  0  0  3  0  0  0  0  0  0
   31.9290   31.7960   36.8470 H   0  0  0  0  0  0  0  0  0  0  0  0
  1  2  2  0  0  0  0
  1  6  1  0  0  0  0
  2  3  1  0  0  0  0
  3 10  1  0  0  0  0
  3  4  2  0  0  0  0
  5  4  1  0  0  0  0
  5 23  1  0  0  0  0
  6  5  2  0  0  0  0
  7  1  1  0  0  0  0
  8  2  1  0  0  0  0
  9 18  1  0  0  0  0
  9 17  1  0  0  0  0
 10  9  2  0  0  0  0
 11 12  2  0  0  0  0
 11 10  1  0  0  0  0
 12 16  1  0  0  0  0
 13 12  1  0  0  0  0
 13 14  1  0  0  0  0
 14 15  2  0  0  0  0
 16 15  1  0  0  0  0
 16 17  2  0  0  0  0
 17 22  1  0  0  0  0
 19 11  1  0  0  0  0
 20 13  1  0  0  0  0
 21 14  1  0  0  0  0
 23 25  1  0  0  0  0
 24 23  2  0  0  0  0
 25 26  1  0  0  0  0
 25 29  1  0  0  0  0
 26 27  1  0  0  0  0
 27 28  1  0  0  0  0
 29 28  1  0  0  0  0
 30 29  1  0  0  0  0
M  END
>  <minimizedAffinity>
-5.72202682

$$$$

 OpenBabel03262523313D

 30 33  0  0  0  0  0  0  0  0999 V2000
   36.0930   29.5050   31.9320 C   0  0  0  0  0  0  0  0  0  0  0  0
   36.5930   28.2530   32.2440 C   0  0  0  0  0  0  0  0  0  0  0  0
   36.6970   27.8790   33.5720 C   0  0  0  0  0  0  0  0  0  0  0  0
   36.3000   28.7600   34.5450 N   0  0  0  0  0  0  0  0  0  0  0  0
   35.8140   29.9810   34.2030 C   0  0  0  0  0  0  0  0  0  0  0  0
   35.7150   30.3420   32.9090 N   0  0  0  0  0  0  0  0  0  0  0  0
   36.0160   29.7910   30.8900 H   0  0  0  0  0  0  0  0  0  0  0  0
   36.9080   27.5520   31.4820 H   0  0  0  0  0  0  0  0  0  0  0  0
   37.4130   25.6170   33.0430 C   0  0  0  0  0  0  0  0  0  0  0  0
   37.2030   26.5920   34.0240 C   0  0  0  0  0  0  0  0  0  0  0  0
   37.4730   26.3280   35.3600 C   0  0  0  0  0  0  0  0  0  0  0  0
   37.9570   25.0600   35.6710 C   0  0  0  0  0  0  0  0  0  0  0  0
   38.2880   24.5720   36.8830 N   0  0  0  0  0  0  0  0  0  0  0  0
   38.7040   23.3040   36.6810 C   0  0  0  0  0  0  0  0  0  0  0  0
   38.6400   22.9960   35.3870 N   0  0  0  0  0  0  0  0  0  0  0  0
   38.1760   24.0680   34.7230 C   0  0  0  0  0  0  0  0  0  0  0  0
   37.9000   24.3560   33.3930 C   0  0  0  0  0  0  0  0  0  0  0  0
   37.2250   25.7610   32.0040 H   0  0  0  0  0  0  0  0  0  0  0  0
   37.3100   27.0790   36.1110 H   0  0  0  0  0  0  0  0  0  0  0  0
   38.2320   25.0870   37.8070 H   0  0  0  0  0  0  0  0  0  0  0  0
   39.0410   22.6430   37.4750 H   0  0  0  0  0  0  0  0  0  0  0  0
   38.0690   23.5880   32.6550 H   0  0  0  0  0  0  0  0  0  0  0  0
   35.4060   30.8800   35.2900 C   0  0  0  0  0  0  0  0  0  0  0  0
   36.2890   31.6110   35.8410 O   0  0  0  0  0  0  0  0  0  0  0  0
   34.0110   30.8260   35.6130 N   0  0  0  0  0  0  0  0  0  0  0  0
   32.9250   30.0370   35.0550 C   0  0  0  0  0  2  0  0  0  0  0  0
   32.0670   29.6240   36.2280 C   0  0  0  0  0  2  0  0  0  0  0  0
   32.3100   30.7040   37.2570 C   0  0  0  0  0  2  0  0  0  0  0  0
   33.3490   31.6200   36.6570 C   0  0  0  0  0  3  0  0  0  0  0  0
   34.1280   31.9110   37.3850 H   0  0  0  0  0  0  0  0  0  0  0  0
  1  2  2  0  0  0  0
  1  6  1  0  0  0  0
  2  3  1  0  0  0  0
  3 10  1  0  0  0  0
  3  4  2  0  0  0  0
  5  4  1  0  0  0  0
  5 23  1  0  0  0  0
  6  5  2  0  0  0  0
  7  1  1  0  0  0  0
  8  2  1  0  0  0  0
  9 17  2  0  0  0  0
  9 10  1  0  0  0  0
 10 11  2  0  0  0  0
 11 12  1  0  0  0  0
 11 19  1  0  0  0  0
 12 13  1  0  0  0  0
 13 20  1  0  0  0  0
 14 13  1  0  0  0  0
 14 21  1  0  0  0  0
 15 14  2  0  0  0  0
 16 15  1  0  0  0  0
 16 12  2  0  0  0  0
 17 16  1  0  0  0  0
 18  9  1  0  0  0  0
 22 17  1  0  0  0  0
 23 25  1  0  0  0  0
 23 24  2  0  0  0  0
 25 29  1  0  0  0  0
 26 25  1  0  0  0  0
 26 27  1  0  0  0  0
 27 28  1  0  0  0  0
 29 28  1  0  0  0  0
 29 30  1  0  0  0  0
M  END
>  <minimizedAffinity>
-5.65019655

$$$$

 OpenBabel03262523313D

 30 33  0  0  0  0  0  0  0  0999 V2000
   37.4350   26.8370   33.6400 C   0  0  0  0  0  0  0  0  0  0  0  0
   38.4660   26.2520   34.3540 C   0  0  0  0  0  0  0  0  0  0  0  0
   38.7420   24.9100   34.1640 C   0  0  0  0  0  0  0  0  0  0  0  0
   37.9860   24.1930   33.2710 N   0  0  0  0  0  0  0  0  0  0  0  0
   36.9810   24.8010   32.5870 C   0  0  0  0  0  0  0  0  0  0  0  0
   36.7160   26.1080   32.7750 N   0  0  0  0  0  0  0  0  0  0  0  0
   37.2250   27.8880   33.7950 H   0  0  0  0  0  0  0  0  0  0  0  0
   39.0670   26.8090   35.0600 H   0  0  0  0  0  0  0  0  0  0  0  0
   41.1130   24.5930   34.5980 C   0  0  0  0  0  0  0  0  0  0  0  0
   39.7990   24.1840   34.8520 C   0  0  0  0  0  0  0  0  0  0  0  0
   39.5350   23.1370   35.7240 C   0  0  0  0  0  0  0  0  0  0  0  0
   40.6290   22.5210   36.3270 C   0  0  0  0  0  0  0  0  0  0  0  0
   40.6270   21.4940   37.2000 N   0  0  0  0  0  0  0  0  0  0  0  0
   41.9200   21.2500   37.5010 C   0  0  0  0  0  0  0  0  0  0  0  0
   42.7160   22.0910   36.8420 N   0  0  0  0  0  0  0  0  0  0  0  0
   41.9460   22.9000   36.0970 C   0  0  0  0  0  0  0  0  0  0  0  0
   42.1850   23.9500   35.2210 C   0  0  0  0  0  0  0  0  0  0  0  0
   41.3770   25.3880   33.9400 H   0  0  0  0  0  0  0  0  0  0  0  0
   38.5250   22.8250   35.9180 H   0  0  0  0  0  0  0  0  0  0  0  0
   39.7760   20.9860   37.5740 H   0  0  0  0  0  0  0  0  0  0  0  0
   42.2460   20.4720   38.1870 H   0  0  0  0  0  0  0  0  0  0  0  0
   43.2060   24.2470   35.0400 H   0  0  0  0  0  0  0  0  0  0  0  0
   36.2070   23.9810   31.6460 C   0  0  0  0  0  0  0  0  0  0  0  0
   35.6640   24.5490   30.6460 O   0  0  0  0  0  0  0  0  0  0  0  0
   36.1550   22.5880   31.9770 N   0  0  0  0  0  0  0  0  0  0  0  0
   36.7320   21.8390   33.0820 C   0  0  0  0  0  2  0  0  0  0  0  0
   35.6860   20.8290   33.4900 C   0  0  0  0  0  2  0  0  0  0  0  0
   34.8810   20.6070   32.2300 C   0  0  0  0  0  2  0  0  0  0  0  0
   35.4490   21.5560   31.2040 C   0  0  0  0  0  3  0  0  0  0  0  0
   34.6630   22.0700   30.6210 H   0  0  0  0  0  0  0  0  0  0  0  0
  1  7  1  0  0  0  0
  1  2  1  0  0  0  0
  2  8  1  0  0  0  0
  3  2  2  0  0  0  0
  3 10  1  0  0  0  0
  4  3  1  0  0  0  0
  5  6  1  0  0  0  0
  5  4  2  0  0  0  0
  6  1  2  0  0  0  0
  9 10  2  0  0  0  0
  9 17  1  0  0  0  0
 10 11  1  0  0  0  0
 11 19  1  0  0  0  0
 11 12  2  0  0  0  0
 12 13  1  0  0  0  0
 13 14  1  0  0  0  0
 13 20  1  0  0  0  0
 14 21  1  0  0  0  0
 15 14  2  0  0  0  0
 16 12  1  0  0  0  0
 16 15  1  0  0  0  0
 17 16  2  0  0  0  0
 18  9  1  0  0  0  0
 22 17  1  0  0  0  0
 23 25  1  0  0  0  0
 23  5  1  0  0  0  0
 24 23  2  0  0  0  0
 25 26  1  0  0  0  0
 26 27  1  0  0  0  0
 28 27  1  0  0  0  0
 29 25  1  0  0  0  0
 29 28  1  0  0  0  0
 30 29  1  0  0  0  0
M  END
>  <minimizedAffinity>
-5.64996862

$$$$

 OpenBabel03262523313D

 30 33  0  0  0  0  0  0  0  0999 V2000
   36.3400   29.8290   30.4640 C   0  0  0  0  0  0  0  0  0  0  0  0
   36.6050   28.4720   30.5340 C   0  0  0  0  0  0  0  0  0  0  0  0
   35.9660   27.7080   31.4940 C   0  0  0  0  0  0  0  0  0  0  0  0
   35.0830   28.3140   32.3500 N   0  0  0  0  0  0  0  0  0  0  0  0
   34.8460   29.6490   32.2520 C   0  0  0  0  0  0  0  0  0  0  0  0
   35.4710   30.3900   31.3180 N   0  0  0  0  0  0  0  0  0  0  0  0
   36.8440   30.4200   29.7110 H   0  0  0  0  0  0  0  0  0  0  0  0
   37.3000   27.9860   29.8630 H   0  0  0  0  0  0  0  0  0  0  0  0
   35.2870   25.4330   30.9670 C   0  0  0  0  0  0  0  0  0  0  0  0
   36.1600   26.2760   31.6640 C   0  0  0  0  0  0  0  0  0  0  0  0
   37.1600   25.7530   32.4730 C   0  0  0  0  0  0  0  0  0  0  0  0
   37.2500   24.3660   32.5550 C   0  0  0  0  0  0  0  0  0  0  0  0
   38.1280   23.6310   33.2670 N   0  0  0  0  0  0  0  0  0  0  0  0
   37.8210   22.3390   33.0290 C   0  0  0  0  0  0  0  0  0  0  0  0
   36.7860   22.2540   32.1960 N   0  0  0  0  0  0  0  0  0  0  0  0
   36.4000   23.5000   31.8780 C   0  0  0  0  0  0  0  0  0  0  0  0
   35.4080   24.0470   31.0750 C   0  0  0  0  0  0  0  0  0  0  0  0
   34.5020   25.7760   30.3330 H   0  0  0  0  0  0  0  0  0  0  0  0
   37.8290   26.4020   33.0070 H   0  0  0  0  0  0  0  0  0  0  0  0
   38.9030   24.0010   33.8870 H   0  0  0  0  0  0  0  0  0  0  0  0
   38.3570   21.4990   33.4650 H   0  0  0  0  0  0  0  0  0  0  0  0
   34.7470   23.3770   30.5480 H   0  0  0  0  0  0  0  0  0  0  0  0
   33.8910   30.2410   33.1980 C   0  0  0  0  0  0  0  0  0  0  0  0
   32.6920   30.4270   32.8180 O   0  0  0  0  0  0  0  0  0  0  0  0
   34.4430   30.5480   34.4840 N   0  0  0  0  0  0  0  0  0  0  0  0
   35.7840   30.3790   35.0210 C   0  0  0  0  0  2  0  0  0  0  0  0
   36.0570   31.6100   35.8510 C   0  0  0  0  0  2  0  0  0  0  0  0
   34.6830   32.0750   36.2790 C   0  0  0  0  0  2  0  0  0  0  0  0
   33.7050   31.1440   35.6060 C   0  0  0  0  0  3  0  0  0  0  0  0
   32.8390   31.6800   35.1750 H   0  0  0  0  0  0  0  0  0  0  0  0
  1  2  2  0  0  0  0
  1  6  1  0  0  0  0
  2  3  1  0  0  0  0
  3 10  1  0  0  0  0
  3  4  2  0  0  0  0
  5  4  1  0  0  0  0
  5 23  1  0  0  0  0
  6  5  2  0  0  0  0
  7  1  1  0  0  0  0
  8  2  1  0  0  0  0
  9 17  2  0  0  0  0
  9 10  1  0  0  0  0
 10 11  2  0  0  0  0
 11 12  1  0  0  0  0
 11 19  1  0  0  0  0
 12 13  1  0  0  0  0
 13 20  1  0  0  0  0
 14 13  1  0  0  0  0
 14 21  1  0  0  0  0
 15 14  2  0  0  0  0
 16 15  1  0  0  0  0
 16 12  2  0  0  0  0
 17 16  1  0  0  0  0
 18  9  1  0  0  0  0
 22 17  1  0  0  0  0
 23 25  1  0  0  0  0
 24 23  2  0  0  0  0
 25 26  1  0  0  0  0
 25 29  1  0  0  0  0
 26 27  1  0  0  0  0
 27 28  1  0  0  0  0
 29 28  1  0  0  0  0
 30 29  1  0  0  0  0
M  END
>  <minimizedAffinity>
-5.53990126

$$$$

 OpenBabel03262523313D

 30 33  0  0  0  0  0  0  0  0999 V2000
   35.8440   29.6690   31.7960 C   0  0  0  0  0  0  0  0  0  0  0  0
   36.7290   28.6670   32.1580 C   0  0  0  0  0  0  0  0  0  0  0  0
   36.6520   28.1270   33.4290 C   0  0  0  0  0  0  0  0  0  0  0  0
   35.7000   28.5960   34.2970 N   0  0  0  0  0  0  0  0  0  0  0  0
   34.8470   29.5800   33.9080 C   0  0  0  0  0  0  0  0  0  0  0  0
   34.9250   30.1040   32.6700 N   0  0  0  0  0  0  0  0  0  0  0  0
   35.9110   30.0870   30.7990 H   0  0  0  0  0  0  0  0  0  0  0  0
   37.4830   28.2910   31.4800 H   0  0  0  0  0  0  0  0  0  0  0  0
   38.6820   26.8110   33.1870 C   0  0  0  0  0  0  0  0  0  0  0  0
   37.5220   27.0710   33.9250 C   0  0  0  0  0  0  0  0  0  0  0  0
   37.2330   26.3480   35.0740 C   0  0  0  0  0  0  0  0  0  0  0  0
   38.1430   25.3640   35.4510 C   0  0  0  0  0  0  0  0  0  0  0  0
   38.0810   24.5400   36.5170 N   0  0  0  0  0  0  0  0  0  0  0  0
   39.1850   23.7660   36.4620 C   0  0  0  0  0  0  0  0  0  0  0  0
   39.9230   24.0850   35.4000 N   0  0  0  0  0  0  0  0  0  0  0  0
   39.3030   25.0790   34.7420 C   0  0  0  0  0  0  0  0  0  0  0  0
   39.5720   25.8160   33.5970 C   0  0  0  0  0  0  0  0  0  0  0  0
   38.9570   27.3320   32.2990 H   0  0  0  0  0  0  0  0  0  0  0  0
   36.3410   26.5500   35.6390 H   0  0  0  0  0  0  0  0  0  0  0  0
   37.3160   24.5130   37.2490 H   0  0  0  0  0  0  0  0  0  0  0  0
   39.4220   22.9950   37.1910 H   0  0  0  0  0  0  0  0  0  0  0  0
   40.4720   25.5970   33.0440 H   0  0  0  0  0  0  0  0  0  0  0  0
   33.8500   30.0410   34.8820 C   0  0  0  0  0  0  0  0  0  0  0  0
   32.6700   29.5720   34.8150 O   0  0  0  0  0  0  0  0  0  0  0  0
   34.3430   30.9980   35.8270 N   0  0  0  0  0  0  0  0  0  0  0  0
   35.6570   31.5970   35.9930 C   0  0  0  0  0  2  0  0  0  0  0  0
   35.4130   33.0450   36.3440 C   0  0  0  0  0  2  0  0  0  0  0  0
   34.0470   33.0390   36.9930 C   0  0  0  0  0  2  0  0  0  0  0  0
   33.5540   31.6160   36.9020 C   0  0  0  0  0  3  0  0  0  0  0  0
   32.4920   31.5550   36.6000 H   0  0  0  0  0  0  0  0  0  0  0  0
  1  2  2  0  0  0  0
  1  6  1  0  0  0  0
  2  3  1  0  0  0  0
  3 10  1  0  0  0  0
  3  4  2  0  0  0  0
  5  4  1  0  0  0  0
  5 23  1  0  0  0  0
  6  5  2  0  0  0  0
  7  1  1  0  0  0  0
  8  2  1  0  0  0  0
  9 17  2  0  0  0  0
  9 10  1  0  0  0  0
 10 11  2  0  0  0  0
 11 12  1  0  0  0  0
 11 19  1  0  0  0  0
 12 13  1  0  0  0  0
 13 20  1  0  0  0  0
 14 13  1  0  0  0  0
 14 21  1  0  0  0  0
 15 14  2  0  0  0  0
 16 15  1  0  0  0  0
 16 12  2  0  0  0  0
 17 16  1  0  0  0  0
 18  9  1  0  0  0  0
 22 17  1  0  0  0  0
 23 25  1  0  0  0  0
 24 23  2  0  0  0  0
 25 26  1  0  0  0  0
 25 29  1  0  0  0  0
 26 27  1  0  0  0  0
 27 28  1  0  0  0  0
 29 28  1  0  0  0  0
 30 29  1  0  0  0  0
M  END
>  <minimizedAffinity>
-5.50030375

$$$$

 OpenBabel03262523313D

 30 33  0  0  0  0  0  0  0  0999 V2000
   35.8860   31.5020   32.1100 C   0  0  0  0  0  0  0  0  0  0  0  0
   36.2110   30.1830   31.8440 C   0  0  0  0  0  0  0  0  0  0  0  0
   36.0870   29.2410   32.8500 C   0  0  0  0  0  0  0  0  0  0  0  0
   35.6420   29.6390   34.0850 N   0  0  0  0  0  0  0  0  0  0  0  0
   35.3310   30.9430   34.3100 C   0  0  0  0  0  0  0  0  0  0  0  0
   35.4540   31.8570   33.3290 N   0  0  0  0  0  0  0  0  0  0  0  0
   35.9860   32.2330   31.3170 H   0  0  0  0  0  0  0  0  0  0  0  0
   36.5630   29.8600   30.8740 H   0  0  0  0  0  0  0  0  0  0  0  0
   37.1610   27.2330   33.7030 C   0  0  0  0  0  0  0  0  0  0  0  0
   36.3950   27.8280   32.6930 C   0  0  0  0  0  0  0  0  0  0  0  0
   35.9570   27.0890   31.6030 C   0  0  0  0  0  0  0  0  0  0  0  0
   36.3120   25.7430   31.5640 C   0  0  0  0  0  0  0  0  0  0  0  0
   36.0090   24.8310   30.6180 N   0  0  0  0  0  0  0  0  0  0  0  0
   36.5710   23.6710   31.0170 C   0  0  0  0  0  0  0  0  0  0  0  0
   37.2090   23.8380   32.1740 N   0  0  0  0  0  0  0  0  0  0  0  0
   37.0710   25.1210   32.5470 C   0  0  0  0  0  0  0  0  0  0  0  0
   37.4980   25.8800   33.6290 C   0  0  0  0  0  0  0  0  0  0  0  0
   37.5240   27.7480   34.5610 H   0  0  0  0  0  0  0  0  0  0  0  0
   35.3700   27.5480   30.8290 H   0  0  0  0  0  0  0  0  0  0  0  0
   35.4410   24.9980   29.7400 H   0  0  0  0  0  0  0  0  0  0  0  0
   36.5010   22.7400   30.4590 H   0  0  0  0  0  0  0  0  0  0  0  0
   38.0870   25.4000   34.3940 H   0  0  0  0  0  0  0  0  0  0  0  0
   34.8610   31.3070   35.6530 C   0  0  0  0  0  0  0  0  0  0  0  0
   35.6710   31.8830   36.4470 O   0  0  0  0  0  0  0  0  0  0  0  0
   33.4970   30.9590   35.9190 N   0  0  0  0  0  0  0  0  0  0  0  0
   32.4930   30.3070   35.0940 C   0  0  0  0  0  2  0  0  0  0  0  0
   31.7380   29.3790   36.0160 C   0  0  0  0  0  2  0  0  0  0  0  0
   31.8900   30.0140   37.3790 C   0  0  0  0  0  2  0  0  0  0  0  0
   32.7850   31.2120   37.1790 C   0  0  0  0  0  3  0  0  0  0  0  0
   33.5510   31.3040   37.9710 H   0  0  0  0  0  0  0  0  0  0  0  0
  1  6  1  0  0  0  0
  2  1  2  0  0  0  0
  2  3  1  0  0  0  0
  3  4  2  0  0  0  0
  4  5  1  0  0  0  0
  5 23  1  0  0  0  0
  6  5  2  0  0  0  0
  7  1  1  0  0  0  0
  8  2  1  0  0  0  0
  9 18  1  0  0  0  0
 10  3  1  0  0  0  0
 10  9  2  0  0  0  0
 11 10  1  0  0  0  0
 12 11  2  0  0  0  0
 12 16  1  0  0  0  0
 13 14  1  0  0  0  0
 13 12  1  0  0  0  0
 14 15  2  0  0  0  0
 15 16  1  0  0  0  0
 16 17  2  0  0  0  0
 17  9  1  0  0  0  0
 17 22  1  0  0  0  0
 19 11  1  0  0  0  0
 20 13  1  0  0  0  0
 21 14  1  0  0  0  0
 23 25  1  0  0  0  0
 23 24  2  0  0  0  0
 25 29  1  0  0  0  0
 26 25  1  0  0  0  0
 26 27  1  0  0  0  0
 27 28  1  0  0  0  0
 29 28  1  0  0  0  0
 29 30  1  0  0  0  0
M  END
>  <minimizedAffinity>
-5.49660254

$$$$

 OpenBabel03262523313D

 30 33  0  0  0  0  0  0  0  0999 V2000
   35.9680   28.9890   31.8540 C   0  0  0  0  0  0  0  0  0  0  0  0
   36.5870   27.8460   32.3300 C   0  0  0  0  0  0  0  0  0  0  0  0
   36.7300   27.6740   33.6950 C   0  0  0  0  0  0  0  0  0  0  0  0
   36.2510   28.6410   34.5430 N   0  0  0  0  0  0  0  0  0  0  0  0
   35.6490   29.7500   34.0410 C   0  0  0  0  0  0  0  0  0  0  0  0
   35.5120   29.9150   32.7110 N   0  0  0  0  0  0  0  0  0  0  0  0
   35.8610   29.1170   30.7840 H   0  0  0  0  0  0  0  0  0  0  0  0
   36.9670   27.0790   31.6690 H   0  0  0  0  0  0  0  0  0  0  0  0
   37.7750   26.6620   35.6430 C   0  0  0  0  0  0  0  0  0  0  0  0
   37.3580   26.5180   34.3150 C   0  0  0  0  0  0  0  0  0  0  0  0
   37.5420   25.3200   33.6370 C   0  0  0  0  0  0  0  0  0  0  0  0
   38.1530   24.2820   34.3360 C   0  0  0  0  0  0  0  0  0  0  0  0
   38.4360   23.0390   33.8970 N   0  0  0  0  0  0  0  0  0  0  0  0
   39.0250   22.3980   34.9290 C   0  0  0  0  0  0  0  0  0  0  0  0
   39.1130   23.2040   35.9860 N   0  0  0  0  0  0  0  0  0  0  0  0
   38.5790   24.3910   35.6540 C   0  0  0  0  0  0  0  0  0  0  0  0
   38.3850   25.5980   36.3110 C   0  0  0  0  0  0  0  0  0  0  0  0
   37.6610   27.5540   36.2130 H   0  0  0  0  0  0  0  0  0  0  0  0
   37.2210   25.2120   32.6180 H   0  0  0  0  0  0  0  0  0  0  0  0
   38.2330   22.6490   32.9340 H   0  0  0  0  0  0  0  0  0  0  0  0
   39.3710   21.3680   34.8840 H   0  0  0  0  0  0  0  0  0  0  0  0
   38.7150   25.6860   37.3340 H   0  0  0  0  0  0  0  0  0  0  0  0
   35.1580   30.7500   34.9980 C   0  0  0  0  0  0  0  0  0  0  0  0
   35.9570   31.6540   35.3990 O   0  0  0  0  0  0  0  0  0  0  0  0
   33.7870   30.5820   35.3810 N   0  0  0  0  0  0  0  0  0  0  0  0
   32.7930   29.5960   34.9900 C   0  0  0  0  0  2  0  0  0  0  0  0
   32.0180   29.2690   36.2430 C   0  0  0  0  0  2  0  0  0  0  0  0
   32.1500   30.5130   37.0910 C   0  0  0  0  0  2  0  0  0  0  0  0
   33.0560   31.4420   36.3210 C   0  0  0  0  0  3  0  0  0  0  0  0
   33.8090   31.9300   36.9670 H   0  0  0  0  0  0  0  0  0  0  0  0
  1  2  2  0  0  0  0
  1  6  1  0  0  0  0
  2  3  1  0  0  0  0
  3 10  1  0  0  0  0
  3  4  2  0  0  0  0
  5  4  1  0  0  0  0
  5 23  1  0  0  0  0
  6  5  2  0  0  0  0
  7  1  1  0  0  0  0
  8  2  1  0  0  0  0
  9 18  1  0  0  0  0
  9 17  1  0  0  0  0
 10  9  2  0  0  0  0
 11 10  1  0  0  0  0
 11 12  2  0  0  0  0
 12 16  1  0  0  0  0
 13 12  1  0  0  0  0
 13 14  1  0  0  0  0
 14 15  2  0  0  0  0
 16 15  1  0  0  0  0
 16 17  2  0  0  0  0
 17 22  1  0  0  0  0
 19 11  1  0  0  0  0
 20 13  1  0  0  0  0
 21 14  1  0  0  0  0
 23 25  1  0  0  0  0
 23 24  2  0  0  0  0
 25 29  1  0  0  0  0
 26 25  1  0  0  0  0
 26 27  1  0  0  0  0
 27 28  1  0  0  0  0
 29 30  1  0  0  0  0
 29 28  1  0  0  0  0
M  END
>  <minimizedAffinity>
-5.46781254

$$$$

 OpenBabel03262523313D

 30 33  0  0  0  0  0  0  0  0999 V2000
   36.6600   29.0940   30.7590 C   0  0  0  0  0  0  0  0  0  0  0  0
   35.9780   29.8270   31.7140 C   0  0  0  0  0  0  0  0  0  0  0  0
   35.7740   29.2800   32.9680 C   0  0  0  0  0  0  0  0  0  0  0  0
   36.2550   28.0230   33.2330 N   0  0  0  0  0  0  0  0  0  0  0  0
   36.9210   27.3310   32.2720 C   0  0  0  0  0  0  0  0  0  0  0  0
   37.1170   27.8670   31.0520 N   0  0  0  0  0  0  0  0  0  0  0  0
   36.8160   29.5290   29.7800 H   0  0  0  0  0  0  0  0  0  0  0  0
   35.5950   30.8190   31.5130 H   0  0  0  0  0  0  0  0  0  0  0  0
   33.7390   29.5920   34.2620 C   0  0  0  0  0  0  0  0  0  0  0  0
   35.0750   29.9520   34.0520 C   0  0  0  0  0  0  0  0  0  0  0  0
   35.6890   30.9070   34.8520 C   0  0  0  0  0  0  0  0  0  0  0  0
   34.9190   31.4790   35.8610 C   0  0  0  0  0  0  0  0  0  0  0  0
   35.2890   32.4170   36.7570 N   0  0  0  0  0  0  0  0  0  0  0  0
   34.2060   32.6520   37.5280 C   0  0  0  0  0  0  0  0  0  0  0  0
   33.1850   31.8920   37.1370 N   0  0  0  0  0  0  0  0  0  0  0  0
   33.5910   31.1460   36.0970 C   0  0  0  0  0  0  0  0  0  0  0  0
   32.9990   30.1890   35.2840 C   0  0  0  0  0  0  0  0  0  0  0  0
   33.2160   28.8680   33.6820 H   0  0  0  0  0  0  0  0  0  0  0  0
   36.7150   31.1820   34.6890 H   0  0  0  0  0  0  0  0  0  0  0  0
   36.2410   32.8740   36.8350 H   0  0  0  0  0  0  0  0  0  0  0  0
   34.1900   33.3660   38.3480 H   0  0  0  0  0  0  0  0  0  0  0  0
   31.9680   29.9280   35.4650 H   0  0  0  0  0  0  0  0  0  0  0  0
   37.4110   25.9900   32.6160 C   0  0  0  0  0  0  0  0  0  0  0  0
   36.6600   24.9900   32.3910 O   0  0  0  0  0  0  0  0  0  0  0  0
   38.7260   25.9680   33.1840 N   0  0  0  0  0  0  0  0  0  0  0  0
   39.6640   27.0380   33.4830 C   0  0  0  0  0  2  0  0  0  0  0  0
   40.3020   26.6760   34.8020 C   0  0  0  0  0  2  0  0  0  0  0  0
   40.2040   25.1680   34.8540 C   0  0  0  0  0  2  0  0  0  0  0  0
   39.4460   24.7610   33.6150 C   0  0  0  0  0  3  0  0  0  0  0  0
   38.6850   23.9860   33.8190 H   0  0  0  0  0  0  0  0  0  0  0  0
  1  6  2  0  0  0  0
  1  2  1  0  0  0  0
  2  3  2  0  0  0  0
  3  4  1  0  0  0  0
  3 10  1  0  0  0  0
  5 23  1  0  0  0  0
  5  4  2  0  0  0  0
  6  5  1  0  0  0  0
  7  1  1  0  0  0  0
  8  2  1  0  0  0  0
  9 17  1  0  0  0  0
 10  9  2  0  0  0  0
 10 11  1  0  0  0  0
 11 12  2  0  0  0  0
 12 16  1  0  0  0  0
 12 13  1  0  0  0  0
 13 20  1  0  0  0  0
 13 14  1  0  0  0  0
 14 21  1  0  0  0  0
 15 14  2  0  0  0  0
 16 15  1  0  0  0  0
 17 22  1  0  0  0  0
 17 16  2  0  0  0  0
 18  9  1  0  0  0  0
 19 11  1  0  0  0  0
 23 25  1  0  0  0  0
 24 23  2  0  0  0  0
 25 26  1  0  0  0  0
 25 29  1  0  0  0  0
 26 27  1  0  0  0  0
 27 28  1  0  0  0  0
 29 30  1  0  0  0  0
 29 28  1  0  0  0  0
M  END
>  <minimizedAffinity>
-5.45950127

$$$$

 OpenBabel03262523313D

 30 33  0  0  0  0  0  0  0  0999 V2000
   39.9310   26.1460   31.8550 C   0  0  0  0  0  0  0  0  0  0  0  0
   39.0750   27.2340   31.8370 C   0  0  0  0  0  0  0  0  0  0  0  0
   37.8300   27.1240   32.4300 C   0  0  0  0  0  0  0  0  0  0  0  0
   37.4760   25.9380   33.0220 N   0  0  0  0  0  0  0  0  0  0  0  0
   38.3420   24.8900   33.0210 C   0  0  0  0  0  0  0  0  0  0  0  0
   39.5530   25.0020   32.4420 N   0  0  0  0  0  0  0  0  0  0  0  0
   40.9030   26.2410   31.3880 H   0  0  0  0  0  0  0  0  0  0  0  0
   39.3460   28.1730   31.3730 H   0  0  0  0  0  0  0  0  0  0  0  0
   36.2450   28.4440   33.7160 C   0  0  0  0  0  0  0  0  0  0  0  0
   36.8470   28.1950   32.4780 C   0  0  0  0  0  0  0  0  0  0  0  0
   36.5120   28.9460   31.3590 C   0  0  0  0  0  0  0  0  0  0  0  0
   35.5590   29.9470   31.5290 C   0  0  0  0  0  0  0  0  0  0  0  0
   35.0750   30.7990   30.6030 N   0  0  0  0  0  0  0  0  0  0  0  0
   34.1780   31.5810   31.2390 C   0  0  0  0  0  0  0  0  0  0  0  0
   34.0940   31.2400   32.5240 N   0  0  0  0  0  0  0  0  0  0  0  0
   34.9420   30.2220   32.7440 C   0  0  0  0  0  0  0  0  0  0  0  0
   35.2940   29.4570   33.8480 C   0  0  0  0  0  0  0  0  0  0  0  0
   36.4620   27.9020   34.6080 H   0  0  0  0  0  0  0  0  0  0  0  0
   36.9750   28.7520   30.4100 H   0  0  0  0  0  0  0  0  0  0  0  0
   35.3500   30.8410   29.5810 H   0  0  0  0  0  0  0  0  0  0  0  0
   33.6130   32.3740   30.7540 H   0  0  0  0  0  0  0  0  0  0  0  0
   34.8160   29.6680   34.7920 H   0  0  0  0  0  0  0  0  0  0  0  0
   37.9050   23.6470   33.6700 C   0  0  0  0  0  0  0  0  0  0  0  0
   37.3300   22.7600   32.9630 O   0  0  0  0  0  0  0  0  0  0  0  0
   38.1890   23.5790   35.0720 N   0  0  0  0  0  0  0  0  0  0  0  0
   38.8340   24.5230   35.9700 C   0  0  0  0  0  2  0  0  0  0  0  0
   38.0570   24.4630   37.2640 C   0  0  0  0  0  2  0  0  0  0  0  0
   37.4640   23.0720   37.2690 C   0  0  0  0  0  2  0  0  0  0  0  0
   37.8580   22.4500   35.9530 C   0  0  0  0  0  3  0  0  0  0  0  0
   37.0240   21.9030   35.4770 H   0  0  0  0  0  0  0  0  0  0  0  0
  1  6  1  0  0  0  0
  2  1  2  0  0  0  0
  2  3  1  0  0  0  0
  3 10  1  0  0  0  0
  3  4  2  0  0  0  0
  5  4  1  0  0  0  0
  5 23  1  0  0  0  0
  6  5  2  0  0  0  0
  7  1  1  0  0  0  0
  8  2  1  0  0  0  0
  9 17  1  0  0  0  0
  9 18  1  0  0  0  0
 10  9  2  0  0  0  0
 11 12  2  0  0  0  0
 11 10  1  0  0  0  0
 12 16  1  0  0  0  0
 13 14  1  0  0  0  0
 13 12  1  0  0  0  0
 14 15  2  0  0  0  0
 15 16  1  0  0  0  0
 16 17  2  0  0  0  0
 17 22  1  0  0  0  0
 19 11  1  0  0  0  0
 20 13  1  0  0  0  0
 21 14  1  0  0  0  0
 23 25  1  0  0  0  0
 24 23  2  0  0  0  0
 25 29  1  0  0  0  0
 25 26  1  0  0  0  0
 26 27  1  0  0  0  0
 27 28  1  0  0  0  0
 29 28  1  0  0  0  0
 30 29  1  0  0  0  0
M  END
>  <minimizedAffinity>
-5.44154501

$$$$
