
 OpenBabel03262522083D

 17 18  0  0  0  0  0  0  0  0999 V2000
   37.9620   30.7650   49.7650 C   0  0  0  0  0  0  0  0  0  0  0  0
   36.8490   30.4420   48.9300 C   0  0  0  0  0  0  0  0  0  0  0  0
   35.7860   29.7420   49.5240 C   0  0  0  0  0  0  0  0  0  0  0  0
   35.8750   29.4170   50.8370 N   0  0  0  0  0  0  0  0  0  0  0  0
   36.9400   29.7420   51.5840 C   0  0  0  0  0  0  0  0  0  0  0  0
   37.9870   30.4080   51.0780 N   0  0  0  0  0  0  0  0  0  0  0  0
   38.7710   31.3090   49.2690 H   0  0  0  0  0  0  0  0  0  0  0  0
   34.9560   29.5010   48.9030 H   0  0  0  0  0  0  0  0  0  0  0  0
   37.0330   29.4910   52.6380 H   0  0  0  0  0  0  0  0  0  0  0  0
   36.8800   30.8530   47.5240 C   0  0  0  0  0  0  0  0  0  0  0  0
   35.9720   30.3670   46.8290 O   0  0  0  0  0  0  0  0  0  0  0  0
   37.8140   31.7110   46.9380 N   0  0  0  0  0  0  0  0  0  0  0  0
   37.9550   31.8030   45.4970 C   0  0  0  0  0  0  0  0  0  0  0  0
   39.4810   31.6980   45.3830 C   0  0  0  0  0  0  0  0  0  0  0  0
   39.8590   32.7770   46.3950 C   0  0  0  0  0  0  0  0  0  0  0  0
   38.7910   32.6390   47.4320 C   0  0  0  0  0  0  0  0  0  0  0  0
   38.2850   33.6320   47.5840 H   0  0  0  0  0  0  0  0  0  0  0  0
  1  6  1  0  0  0  0
  2  3  1  0  0  0  0
  2  1  2  0  0  0  0
  3  4  2  0  0  0  0
  4  5  1  0  0  0  0
  5  9  1  0  0  0  0
  6  5  2  0  0  0  0
  7  1  1  0  0  0  0
  8  3  1  0  0  0  0
 10  2  1  0  0  0  0
 11 10  2  0  0  0  0
 12 16  1  0  0  0  0
 12 10  1  0  0  0  0
 13 12  1  0  0  0  0
 14 13  1  0  0  0  0
 14 15  1  0  0  0  0
 15 16  1  0  0  0  0
 16 17  1  0  0  0  0
M  END
>  <minimizedAffinity>
-4.51374388

>  <minimizedRMSD>
4.04196644

$$$$
