
 OpenBabel03272508503D

 26 28  0  0  1  0  0  0  0  0999 V2000
   38.3130   30.7700   46.4990 C   0  0  2  0  0  0  0  0  0  0  0  0
   39.7050   31.1020   46.2330 C   0  0  0  0  0  0  0  0  0  0  0  0
   38.5440   32.0030   45.7620 C   0  0  1  0  0  0  0  0  0  0  0  0
   37.8160   29.9580   45.8660 H   0  0  0  0  0  0  0  0  0  0  0  0
   40.2360   30.6220   45.4050 H   0  0  0  0  0  0  0  0  0  0  0  0
   40.3380   31.5000   47.0550 H   0  0  0  0  0  0  0  0  0  0  0  0
   38.6240   33.0010   46.2110 H   0  0  0  0  0  0  0  0  0  0  0  0
   39.0690   32.8970   43.5210 C   0  0  0  0  0  0  0  0  0  0  0  0
   39.9170   33.6640   44.0390 O   0  0  0  0  0  0  0  0  0  0  0  0
   38.3230   31.9510   44.3140 N   0  0  0  0  0  0  0  0  0  0  0  0
   37.6640   31.2630   43.9320 H   0  0  0  0  0  0  0  0  0  0  0  0
   38.7560   32.8730   42.1240 N   0  0  0  0  0  0  0  0  0  0  0  0
   37.8030   33.5570   41.2700 C   0  0  0  0  0  2  0  0  0  0  0  0
   37.1780   32.5470   40.3630 C   0  0  0  0  0  2  0  0  0  0  0  0
   38.1820   31.4120   40.3770 C   0  0  0  0  0  2  0  0  0  0  0  0
   39.3630   32.0810   41.0670 C   0  0  0  0  0  3  0  0  0  0  0  0
   40.0000   32.6610   40.3840 H   0  0  0  0  0  0  0  0  0  0  0  0
   35.8490   30.7160   49.2560 C   0  0  0  0  0  0  0  0  0  0  0  0
   36.6630   30.9690   50.3940 C   0  0  0  0  0  0  0  0  0  0  0  0
   38.0710   31.1560   50.1750 C   0  0  0  0  0  0  0  0  0  0  0  0
   38.5500   31.0840   48.9160 N   0  0  0  0  0  0  0  0  0  0  0  0
   37.7180   30.8370   47.8680 C   0  0  0  0  0  0  0  0  0  0  0  0
   36.3760   30.6510   48.0080 N   0  0  0  0  0  0  0  0  0  0  0  0
   34.7940   30.5720   49.3720 H   0  0  0  0  0  0  0  0  0  0  0  0
   36.2360   31.0180   51.3760 H   0  0  0  0  0  0  0  0  0  0  0  0
   38.7040   31.3500   51.0280 H   0  0  0  0  0  0  0  0  0  0  0  0
  1  4  1  6  0  0  0
  1 22  1  0  0  0  0
  2  1  1  0  0  0  0
  2  6  1  0  0  0  0
  3  7  1  1  0  0  0
  3  2  1  0  0  0  0
  3  1  1  0  0  0  0
  5  2  1  0  0  0  0
  8  9  2  0  0  0  0
  8 10  1  0  0  0  0
 10  3  1  0  0  0  0
 11 10  1  0  0  0  0
 12  8  1  0  0  0  0
 13 12  1  0  0  0  0
 14 15  1  0  0  0  0
 14 13  1  0  0  0  0
 15 16  1  0  0  0  0
 16 12  1  0  0  0  0
 17 16  1  0  0  0  0
 18 24  1  0  0  0  0
 18 19  1  0  0  0  0
 19 25  1  0  0  0  0
 20 19  2  0  0  0  0
 20 26  1  0  0  0  0
 21 20  1  0  0  0  0
 22 23  1  0  0  0  0
 22 21  2  0  0  0  0
 23 18  2  0  0  0  0
M  END
>  <minimizedAffinity>
-4.56382751

>  <minimizedRMSD>
8.02729797

$$$$
