
 OpenBabel03272509303D

 35 37  0  0  1  0  0  0  0  0999 V2000
   36.5160   30.8240   48.8690 C   0  0  2  0  0  0  0  0  0  0  0  0
   37.4180   31.5610   49.8060 C   0  0  0  0  0  0  0  0  0  0  0  0
   38.0950   30.6570   50.8120 C   0  0  0  0  0  0  0  0  0  0  0  0
   37.0680   29.8550   51.6030 C   0  0  0  0  0  0  0  0  0  0  0  0
   35.8650   29.4360   50.7970 C   0  0  0  0  0  0  0  0  0  0  0  0
   36.2720   29.4170   49.3120 C   0  0  1  0  0  0  0  0  0  0  0  0
   35.4910   31.3000   48.7580 H   0  0  0  0  0  0  0  0  0  0  0  0
   36.7100   32.1910   50.4460 H   0  0  0  0  0  0  0  0  0  0  0  0
   38.1000   32.2710   49.3790 H   0  0  0  0  0  0  0  0  0  0  0  0
   38.6190   31.3100   51.5330 H   0  0  0  0  0  0  0  0  0  0  0  0
   38.7960   29.9460   50.3710 H   0  0  0  0  0  0  0  0  0  0  0  0
   36.7540   30.4100   52.5190 H   0  0  0  0  0  0  0  0  0  0  0  0
   37.5420   28.9170   51.9620 H   0  0  0  0  0  0  0  0  0  0  0  0
   35.5580   28.3880   51.0300 H   0  0  0  0  0  0  0  0  0  0  0  0
   34.9820   30.0690   50.9570 H   0  0  0  0  0  0  0  0  0  0  0  0
   37.1790   28.8670   49.3690 H   0  0  0  0  0  0  0  0  0  0  0  0
   34.0730   28.2940   48.7290 C   0  0  0  0  0  0  0  0  0  0  0  0
   33.2580   28.6450   49.6360 O   0  0  0  0  0  0  0  0  0  0  0  0
   35.4190   28.6640   48.4680 N   0  0  0  0  0  0  0  0  0  0  0  0
   35.7750   28.3120   47.5200 H   0  0  0  0  0  0  0  0  0  0  0  0
   33.4380   27.3570   47.8530 N   0  0  0  0  0  0  0  0  0  0  0  0
   32.2710   27.4210   47.0060 C   0  0  0  0  0  2  0  0  0  0  0  0
   32.6560   26.9130   45.6390 C   0  0  0  0  0  2  0  0  0  0  0  0
   33.7350   25.9150   45.9900 C   0  0  0  0  0  2  0  0  0  0  0  0
   33.7230   25.9900   47.4820 C   0  0  0  0  0  3  0  0  0  0  0  0
   34.6940   25.7260   47.9470 H   0  0  0  0  0  0  0  0  0  0  0  0
   37.0720   30.8000   47.4920 C   0  0  0  0  0  0  0  0  0  0  0  0
   38.4450   31.0400   47.3880 C   0  0  0  0  0  0  0  0  0  0  0  0
   39.0030   31.0210   46.1060 C   0  0  0  0  0  0  0  0  0  0  0  0
   38.1740   30.7690   45.0340 N   0  0  0  0  0  0  0  0  0  0  0  0
   36.8340   30.5390   45.1870 C   0  0  0  0  0  0  0  0  0  0  0  0
   36.3040   30.5590   46.4200 N   0  0  0  0  0  0  0  0  0  0  0  0
   39.2080   31.2370   48.1160 H   0  0  0  0  0  0  0  0  0  0  0  0
   40.0340   31.1850   45.8630 H   0  0  0  0  0  0  0  0  0  0  0  0
   36.3120   30.3580   44.2750 H   0  0  0  0  0  0  0  0  0  0  0  0
  1  7  1  6  0  0  0
  1  6  1  0  0  0  0
  1  2  1  0  0  0  0
  2  8  1  0  0  0  0
  2  3  1  0  0  0  0
  3 10  1  0  0  0  0
  3  4  1  0  0  0  0
  4 13  1  0  0  0  0
  4 12  1  0  0  0  0
  5 15  1  0  0  0  0
  5 14  1  0  0  0  0
  5  4  1  0  0  0  0
  6 16  1  6  0  0  0
  6  5  1  0  0  0  0
  9  2  1  0  0  0  0
 11  3  1  0  0  0  0
 17 18  2  0  0  0  0
 19 17  1  0  0  0  0
 19  6  1  0  0  0  0
 20 19  1  0  0  0  0
 21 17  1  0  0  0  0
 22 21  1  0  0  0  0
 23 24  1  0  0  0  0
 23 22  1  0  0  0  0
 24 25  1  0  0  0  0
 25 21  1  0  0  0  0
 25 26  1  0  0  0  0
 27  1  1  0  0  0  0
 28 27  1  0  0  0  0
 28 33  1  0  0  0  0
 29 28  2  0  0  0  0
 30 31  2  0  0  0  0
 30 29  1  0  0  0  0
 31 32  1  0  0  0  0
 32 27  2  0  0  0  0
 34 29  1  0  0  0  0
 35 31  1  0  0  0  0
M  END
>  <minimizedAffinity>
-5.9777627

>  <minimizedRMSD>
0.972905159

$$$$
