REMARK  Name = 
REMARK  7 active torsions:
REMARK  status: ('A' for Active; 'I' for Inactive)
REMARK    1  A    between atoms: C_1  and  C_7
REMARK    2  A    between atoms: C_5  and  S_15
REMARK    3  A    between atoms: C_7  and  C_10
REMARK    4  A    between atoms: S_15  and  C_16
REMARK    5  A    between atoms: C_16  and  C_19
REMARK    6  A    between atoms: C_17  and  O_22
REMARK    7  A    between atoms: O_22  and  C_42
REMARK                            x       y       z     vdW  Elec       q    Type
REMARK                         _______ _______ _______ _____ _____    ______ ____
ROOT
ATOM      1  S   UNL     1      40.660  32.976  45.235  0.00  0.00    +0.000 S 
ENDROOT
BRANCH   1   6
ATOM      2  C   UNL     1      37.773  31.750  47.659  0.00  0.00    +0.000 A 
ATOM      3  C   UNL     1      37.923  32.533  48.804  0.00  0.00    +0.000 A 
ATOM      4  C   UNL     1      38.927  33.484  48.891  0.00  0.00    +0.000 A 
ATOM      5  C   UNL     1      39.751  33.599  47.783  0.00  0.00    +0.000 A 
ATOM      6  C   UNL     1      39.575  32.820  46.684  0.00  0.00    +0.000 A 
ATOM      7  N   UNL     1      38.600  31.892  46.593  0.00  0.00    +0.000 NA
ATOM      8  H   UNL     1      37.262  32.416  49.650  0.00  0.00    +0.000 HD
ATOM      9  H   UNL     1      39.080  34.107  49.750  0.00  0.00    +0.000 HD
ATOM     10  H   UNL     1      40.567  34.314  47.752  0.00  0.00    +0.000 HD
BRANCH   2  11
ATOM     11  C   UNL     1      36.701  30.784  47.653  0.00  0.00    +0.000 C 
ATOM     12  O   UNL     1      36.210  30.383  46.600  0.00  0.00    +0.000 OA
BRANCH  11  14
ATOM     13  C   UNL     1      37.034  29.627  49.808  0.00  0.00    +0.000 A 
ATOM     14  C   UNL     1      36.139  30.227  48.897  0.00  0.00    +0.000 A 
ATOM     15  C   UNL     1      34.766  30.278  49.189  0.00  0.00    +0.000 A 
ATOM     16  N   UNL     1      34.335  29.735  50.369  0.00  0.00    +0.000 NA
ATOM     17  C   UNL     1      35.218  29.161  51.233  0.00  0.00    +0.000 A 
ATOM     18  N   UNL     1      36.513  29.114  50.955  0.00  0.00    +0.000 NA
ATOM     19  H   UNL     1      38.089  29.564  49.629  0.00  0.00    +0.000 HD
ATOM     20  H   UNL     1      34.126  30.739  48.477  0.00  0.00    +0.000 HD
ATOM     21  H   UNL     1      34.731  28.778  52.118  0.00  0.00    +0.000 HD
ENDBRANCH  11  14
ENDBRANCH   2  11
ENDBRANCH   1   6
BRANCH   1  22
ATOM     22  C   UNL     1      39.571  32.934  43.791  0.00  0.00    +0.000 C 
ATOM     23  H   UNL     1      39.738  33.855  43.183  0.00  0.00    +0.000 HD
ATOM     24  H   UNL     1      38.495  32.851  44.042  0.00  0.00    +0.000 HD
BRANCH  22  27
ATOM     25  C   UNL     1      38.782  29.791  42.354  0.00  0.00    +0.000 C 
ATOM     26  C   UNL     1      38.801  31.293  42.087  0.00  0.00    +0.000 C 
ATOM     27  C   UNL     1      39.943  31.716  42.966  0.00  0.00    +0.000 C 
ATOM     28  O   UNL     1      40.311  30.652  43.747  0.00  0.00    +0.000 OA
ATOM     29  C   UNL     1      39.249  29.748  43.783  0.00  0.00    +0.000 C 
ATOM     30  H   UNL     1      39.455  29.246  41.689  0.00  0.00    +0.000 HD
ATOM     31  H   UNL     1      38.936  31.548  41.028  0.00  0.00    +0.000 HD
ATOM     32  H   UNL     1      37.868  31.704  42.541  0.00  0.00    +0.000 HD
ATOM     33  H   UNL     1      40.811  32.016  42.318  0.00  0.00    +0.000 HD
ATOM     34  H   UNL     1      38.454  30.027  44.479  0.00  0.00    +0.000 HD
ATOM     35  H   UNL     1      39.725  28.764  44.046  0.00  0.00    +0.000 HD
BRANCH  25  36
ATOM     36  O   UNL     1      37.486  29.286  42.214  0.00  0.00    +0.000 OA
BRANCH  36  42
ATOM     37  H   UNL     1      39.173  27.863  40.341  0.00  0.00    +0.000 HD
ATOM     38  N   UNL     1      38.568  27.481  41.114  0.00  0.00    +0.000 NA
ATOM     39  C   UNL     1      38.022  26.206  40.624  0.00  0.00    +0.000 C 
ATOM     40  C   UNL     1      36.977  25.987  41.727  0.00  0.00    +0.000 C 
ATOM     41  C   UNL     1      36.240  27.322  41.587  0.00  0.00    +0.000 C 
ATOM     42  C   UNL     1      37.384  28.266  41.307  0.00  0.00    +0.000 C 
ENDBRANCH  36  42
ENDBRANCH  25  36
ENDBRANCH  22  27
ENDBRANCH   1  22
TORSDOF 7
