
 OpenBabel03272506363D

 20 21  0  0  1  0  0  0  0  0999 V2000
   37.8620   30.7090   47.0440 C   0  0  0  0  0  0  0  0  0  0  0  0
   39.0630   30.5420   46.3300 C   0  0  0  0  0  0  0  0  0  0  0  0
   39.0180   30.5270   44.9370 C   0  0  0  0  0  0  0  0  0  0  0  0
   37.7940   30.6770   44.3290 N   0  0  0  0  0  0  0  0  0  0  0  0
   36.6550   30.8350   45.0530 C   0  0  0  0  0  0  0  0  0  0  0  0
   36.6910   30.8500   46.3980 N   0  0  0  0  0  0  0  0  0  0  0  0
   34.4680   29.9380   44.7510 C   0  0  0  0  0  0  0  0  0  0  0  0
   34.6390   28.9600   45.5470 O   0  0  0  0  0  0  0  0  0  0  0  0
   35.3960   30.9880   44.3860 N   0  0  0  0  0  0  0  0  0  0  0  0
   40.0290   30.4240   46.7630 H   0  0  0  0  0  0  0  0  0  0  0  0
   39.8760   30.4070   44.3220 H   0  0  0  0  0  0  0  0  0  0  0  0
   33.4610   29.8710   44.3570 H   0  0  0  0  0  0  0  0  0  0  0  0
   35.0540   31.6910   43.7170 H   0  0  0  0  0  0  0  0  0  0  0  0
   38.0650   30.7020   48.4020 O   0  0  0  0  0  0  0  0  0  0  0  0
   35.1490   31.1690   49.3480 H   0  0  0  0  0  0  0  0  0  0  0  0
   35.9400   30.5150   49.2320 N   0  0  0  0  0  0  0  0  0  0  0  0
   35.9430   29.3700   50.0860 C   0  0  0  0  0  2  0  0  0  0  0  0
   37.3500   29.2270   50.6410 C   0  0  0  0  0  2  0  0  0  0  0  0
   37.7260   30.7120   50.7370 C   0  0  0  0  0  2  0  0  0  0  0  0
   37.2220   31.1960   49.3910 C   0  0  1  0  0  3  0  0  0  0  0  0
  1 14  1  0  0  0  0
  2 10  1  0  0  0  0
  2  1  2  0  0  0  0
  3  2  1  0  0  0  0
  4  3  2  0  0  0  0
  4  5  1  0  0  0  0
  5  6  2  0  0  0  0
  6  1  1  0  0  0  0
  7  8  2  0  0  0  0
  9  7  1  0  0  0  0
  9  5  1  0  0  0  0
 11  3  1  0  0  0  0
 12  7  1  0  0  0  0
 13  9  1  0  0  0  0
 16 15  1  0  0  0  0
 16 20  1  0  0  0  0
 16 17  1  0  0  0  0
 17 18  1  0  0  0  0
 18 19  1  0  0  0  0
 20 14  1  6  0  0  0
 20 19  1  0  0  0  0
M  END
>  <minimizedAffinity>
-4.2534008

>  <minimizedRMSD>
4.21402645

$$$$
