REMARK  Name = 
REMARK  2 active torsions:
REMARK  status: ('A' for Active; 'I' for Inactive)
REMARK    1  A    between atoms: C_1  and  C_7
REMARK    2  A    between atoms: C_6  and  N_15
REMARK                            x       y       z     vdW  Elec       q    Type
REMARK                         _______ _______ _______ _____ _____    ______ ____
ROOT
ATOM      1  C   UNL     1      36.078  30.689  49.068  0.00  0.00    +0.000 C 
ATOM      2  C   UNL     1      37.012  31.641  49.744  0.00  0.00    +0.000 C 
ATOM      3  C   UNL     1      38.044  30.948  50.607  0.00  0.00    +0.000 C 
ATOM      4  C   UNL     1      37.375  30.052  51.643  0.00  0.00    +0.000 C 
ATOM      5  C   UNL     1      36.123  29.373  51.150  0.00  0.00    +0.000 C 
ATOM      6  C   UNL     1      36.196  29.302  49.613  0.00  0.00    +0.000 C 
ATOM      7  H   UNL     1      34.984  30.976  49.173  0.00  0.00    +0.000 HD
ATOM      8  H   UNL     1      36.357  32.193  50.501  0.00  0.00    +0.000 HD
ATOM      9  H   UNL     1      37.445  32.418  49.144  0.00  0.00    +0.000 HD
ATOM     10  H   UNL     1      38.583  31.736  51.162  0.00  0.00    +0.000 HD
ATOM     11  H   UNL     1      38.750  30.331  50.048  0.00  0.00    +0.000 HD
ATOM     12  H   UNL     1      37.171  30.619  52.583  0.00  0.00    +0.000 HD
ATOM     13  H   UNL     1      38.078  29.240  51.924  0.00  0.00    +0.000 HD
ATOM     14  H   UNL     1      36.069  28.311  51.490  0.00  0.00    +0.000 HD
ATOM     15  H   UNL     1      35.196  29.860  51.480  0.00  0.00    +0.000 HD
ATOM     16  H   UNL     1      37.178  28.919  49.486  0.00  0.00    +0.000 HD
ENDROOT
BRANCH   6  19
ATOM     17  C   UNL     1      33.942  28.190  49.263  0.00  0.00    +0.000 C 
ATOM     18  O   UNL     1      33.107  28.900  49.901  0.00  0.00    +0.000 OA
ATOM     19  N   UNL     1      35.332  28.350  49.018  0.00  0.00    +0.000 N 
ATOM     20  H   UNL     1      35.714  27.654  48.298  0.00  0.00    +0.000 HD
ATOM     21  N   UNL     1      33.280  27.041  48.724  0.00  0.00    +0.000 N 
ATOM     22  C   UNL     1      33.457  25.619  48.897  0.00  0.00    +0.000 C 
ATOM     23  C   UNL     1      32.109  25.013  49.197  0.00  0.00    +0.000 C 
ATOM     24  C   UNL     1      31.192  25.946  48.439  0.00  0.00    +0.000 C 
ATOM     25  C   UNL     1      32.181  26.867  47.802  0.00  0.00    +0.000 C 
ATOM     26  H   UNL     1      31.774  27.875  47.590  0.00  0.00    +0.000 HD
ENDBRANCH   6  19
BRANCH   1  27
ATOM     27  C   UNL     1      36.318  30.647  47.603  0.00  0.00    +0.000 A 
ATOM     28  C   UNL     1      37.560  31.127  47.178  0.00  0.00    +0.000 A 
ATOM     29  C   UNL     1      37.821  31.098  45.804  0.00  0.00    +0.000 A 
ATOM     30  N   UNL     1      36.849  30.603  44.962  0.00  0.00    +0.000 NA
ATOM     31  C   UNL     1      35.647  30.143  45.427  0.00  0.00    +0.000 A 
ATOM     32  N   UNL     1      35.402  30.174  46.747  0.00  0.00    +0.000 NA
ATOM     33  H   UNL     1      38.406  31.526  47.703  0.00  0.00    +0.000 HD
ATOM     34  H   UNL     1      38.721  31.429  45.325  0.00  0.00    +0.000 HD
ATOM     35  H   UNL     1      34.988  29.788  44.668  0.00  0.00    +0.000 HD
ENDBRANCH   1  27
TORSDOF 2
