
 OpenBabel03262522153D

 42 45  0  0  1  0  0  0  0  0999 V2000
   40.5770   33.0190   45.1820 S   0  0  0  0  0  0  0  0  0  0  0  0
   37.7490   31.7540   47.6550 C   0  0  0  0  0  0  0  0  0  0  0  0
   37.9310   32.5130   48.8110 C   0  0  0  0  0  0  0  0  0  0  0  0
   38.9400   33.4590   48.8910 C   0  0  0  0  0  0  0  0  0  0  0  0
   39.7360   33.5940   47.7650 C   0  0  0  0  0  0  0  0  0  0  0  0
   39.5290   32.8370   46.6550 C   0  0  0  0  0  0  0  0  0  0  0  0
   38.5490   31.9140   46.5710 N   0  0  0  0  0  0  0  0  0  0  0  0
   37.2910   32.3810   49.6710 H   0  0  0  0  0  0  0  0  0  0  0  0
   39.1170   34.0640   49.7580 H   0  0  0  0  0  0  0  0  0  0  0  0
   40.5530   34.3070   47.7270 H   0  0  0  0  0  0  0  0  0  0  0  0
   36.6730   30.7910   47.6570 C   0  0  0  0  0  0  0  0  0  0  0  0
   36.1710   30.3950   46.6080 O   0  0  0  0  0  0  0  0  0  0  0  0
   37.0250   29.6350   49.8100 C   0  0  0  0  0  0  0  0  0  0  0  0
   36.1220   30.2330   48.9050 C   0  0  0  0  0  0  0  0  0  0  0  0
   34.7510   30.2810   49.2070 C   0  0  0  0  0  0  0  0  0  0  0  0
   34.3300   29.7370   50.3900 N   0  0  0  0  0  0  0  0  0  0  0  0
   35.2210   29.1650   51.2480 C   0  0  0  0  0  0  0  0  0  0  0  0
   36.5140   29.1210   50.9610 N   0  0  0  0  0  0  0  0  0  0  0  0
   38.0790   29.5750   49.6230 H   0  0  0  0  0  0  0  0  0  0  0  0
   34.1050   30.7400   48.5000 H   0  0  0  0  0  0  0  0  0  0  0  0
   34.7410   28.7810   52.1370 H   0  0  0  0  0  0  0  0  0  0  0  0
   39.4600   32.9260   43.7620 C   0  0  0  0  0  0  0  0  0  0  0  0
   39.6750   33.7780   43.0750 H   0  0  0  0  0  0  0  0  0  0  0  0
   38.3860   32.9360   44.0340 H   0  0  0  0  0  0  0  0  0  0  0  0
   38.5970   29.5910   42.9270 C   0  0  1  0  0  0  0  0  0  0  0  0
   38.4720   31.0420   42.4730 C   0  0  0  0  0  0  0  0  0  0  0  0
   39.7360   31.6200   43.0410 C   0  0  2  0  0  0  0  0  0  0  0  0
   40.3140   30.6860   43.8600 O   0  0  0  0  0  0  0  0  0  0  0  0
   39.3370   29.7600   44.2260 C   0  0  0  0  0  0  0  0  0  0  0  0
   39.1580   28.9830   42.2150 H   0  0  0  0  0  0  0  0  0  0  0  0
   38.3810   31.1540   41.3850 H   0  0  0  0  0  0  0  0  0  0  0  0
   37.6230   31.4790   43.0500 H   0  0  0  0  0  0  0  0  0  0  0  0
   40.4400   31.8570   42.1980 H   0  0  0  0  0  0  0  0  0  0  0  0
   38.6780   30.1040   45.0270 H   0  0  0  0  0  0  0  0  0  0  0  0
   39.9140   28.8380   44.5100 H   0  0  0  0  0  0  0  0  0  0  0  0
   37.3310   29.0280   43.1180 O   0  0  0  0  0  0  0  0  0  0  0  0
   38.8770   26.9640   41.8020 H   0  0  0  0  0  0  0  0  0  0  0  0
   38.1140   26.8660   42.5230 N   0  0  0  0  0  0  0  0  0  0  0  0
   37.3650   25.6490   42.1730 C   0  0  0  0  0  2  0  0  0  0  0  0
   36.1730   25.8600   43.1190 C   0  0  0  0  0  2  0  0  0  0  0  0
   35.7690   27.2570   42.6410 C   0  0  0  0  0  2  0  0  0  0  0  0
   37.1170   27.8880   42.3910 C   0  0  1  0  0  3  0  0  0  0  0  0
  1  6  1  0  0  0  0
  2 11  1  0  0  0  0
  2  3  1  0  0  0  0
  3  4  2  0  0  0  0
  3  8  1  0  0  0  0
  4  9  1  0  0  0  0
  5  4  1  0  0  0  0
  6  5  2  0  0  0  0
  7  6  1  0  0  0  0
  7  2  2  0  0  0  0
 10  5  1  0  0  0  0
 11 14  1  0  0  0  0
 12 11  2  0  0  0  0
 13 18  1  0  0  0  0
 14 15  1  0  0  0  0
 14 13  2  0  0  0  0
 15 16  2  0  0  0  0
 16 17  1  0  0  0  0
 17 21  1  0  0  0  0
 18 17  2  0  0  0  0
 19 13  1  0  0  0  0
 20 15  1  0  0  0  0
 22 24  1  0  0  0  0
 22  1  1  0  0  0  0
 23 22  1  0  0  0  0
 25 30  1  6  0  0  0
 25 36  1  0  0  0  0
 25 29  1  0  0  0  0
 26 25  1  0  0  0  0
 26 27  1  0  0  0  0
 26 32  1  0  0  0  0
 27 33  1  6  0  0  0
 27 22  1  0  0  0  0
 27 28  1  0  0  0  0
 28 29  1  0  0  0  0
 29 35  1  0  0  0  0
 29 34  1  0  0  0  0
 31 26  1  0  0  0  0
 37 38  1  0  0  0  0
 39 38  1  0  0  0  0
 39 40  1  0  0  0  0
 41 40  1  0  0  0  0
 42 38  1  0  0  0  0
 42 41  1  0  0  0  0
 42 36  1  1  0  0  0
M  END
>  <minimizedAffinity>
-5.24069023

>  <minimizedRMSD>
0.810886145

$$$$
