
 OpenBabel03262522153D

 42 45  0  0  1  0  0  0  0  0999 V2000
   40.5990   33.1810   45.2330 S   0  0  0  0  0  0  0  0  0  0  0  0
   37.7940   31.8030   47.6720 C   0  0  0  0  0  0  0  0  0  0  0  0
   37.9560   32.5430   48.8440 C   0  0  0  0  0  0  0  0  0  0  0  0
   38.9430   33.5100   48.9450 C   0  0  0  0  0  0  0  0  0  0  0  0
   39.7380   33.6850   47.8240 C   0  0  0  0  0  0  0  0  0  0  0  0
   39.5510   32.9460   46.6990 C   0  0  0  0  0  0  0  0  0  0  0  0
   38.5930   32.0030   46.5940 N   0  0  0  0  0  0  0  0  0  0  0  0
   37.3180   32.3800   49.6990 H   0  0  0  0  0  0  0  0  0  0  0  0
   39.1050   34.1020   49.8240 H   0  0  0  0  0  0  0  0  0  0  0  0
   40.5400   34.4170   47.8030 H   0  0  0  0  0  0  0  0  0  0  0  0
   36.7410   30.8160   47.6530 C   0  0  0  0  0  0  0  0  0  0  0  0
   36.2740   30.4030   46.5930 O   0  0  0  0  0  0  0  0  0  0  0  0
   37.0590   29.6380   49.7980 C   0  0  0  0  0  0  0  0  0  0  0  0
   36.1710   30.2510   48.8890 C   0  0  0  0  0  0  0  0  0  0  0  0
   34.7970   30.3080   49.1770 C   0  0  0  0  0  0  0  0  0  0  0  0
   34.3590   29.7570   50.3500 N   0  0  0  0  0  0  0  0  0  0  0  0
   35.2350   29.1700   51.2120 C   0  0  0  0  0  0  0  0  0  0  0  0
   36.5310   29.1180   50.9390 N   0  0  0  0  0  0  0  0  0  0  0  0
   38.1140   29.5700   49.6230 H   0  0  0  0  0  0  0  0  0  0  0  0
   34.1630   30.7790   48.4670 H   0  0  0  0  0  0  0  0  0  0  0  0
   34.7420   28.7820   52.0920 H   0  0  0  0  0  0  0  0  0  0  0  0
   39.5180   32.9300   43.8040 C   0  0  0  0  0  0  0  0  0  0  0  0
   39.6120   33.8060   43.1190 H   0  0  0  0  0  0  0  0  0  0  0  0
   38.4510   32.7830   44.0680 H   0  0  0  0  0  0  0  0  0  0  0  0
   38.9770   29.6280   42.6330 C   0  0  1  0  0  0  0  0  0  0  0  0
   38.8850   31.1000   42.2420 C   0  0  0  0  0  0  0  0  0  0  0  0
   39.9860   31.6790   43.0840 C   0  0  2  0  0  0  0  0  0  0  0  0
   40.4270   30.7140   43.9510 O   0  0  0  0  0  0  0  0  0  0  0  0
   39.4360   29.7390   44.0610 C   0  0  0  0  0  0  0  0  0  0  0  0
   39.6930   29.0820   42.0160 H   0  0  0  0  0  0  0  0  0  0  0  0
   39.0080   31.2750   41.1660 H   0  0  0  0  0  0  0  0  0  0  0  0
   37.9210   31.4750   42.6600 H   0  0  0  0  0  0  0  0  0  0  0  0
   40.8330   31.9890   42.4140 H   0  0  0  0  0  0  0  0  0  0  0  0
   38.6170   30.0140   44.7310 H   0  0  0  0  0  0  0  0  0  0  0  0
   39.9820   28.8190   44.4050 H   0  0  0  0  0  0  0  0  0  0  0  0
   37.7230   29.0170   42.5350 O   0  0  0  0  0  0  0  0  0  0  0  0
   35.9070   28.1460   40.4570 H   0  0  0  0  0  0  0  0  0  0  0  0
   36.9260   28.4020   40.3840 N   0  0  0  0  0  0  0  0  0  0  0  0
   37.5100   27.5020   39.3780 C   0  0  0  0  0  2  0  0  0  0  0  0
   38.9880   27.8220   39.6460 C   0  0  0  0  0  2  0  0  0  0  0  0
   39.0010   27.5190   41.1460 C   0  0  0  0  0  2  0  0  0  0  0  0
   37.6530   28.0500   41.5680 C   0  0  1  0  0  3  0  0  0  0  0  0
  1  6  1  0  0  0  0
  2  3  1  0  0  0  0
  3  4  2  0  0  0  0
  3  8  1  0  0  0  0
  4  9  1  0  0  0  0
  5  4  1  0  0  0  0
  6  5  2  0  0  0  0
  7  6  1  0  0  0  0
  7  2  2  0  0  0  0
 10  5  1  0  0  0  0
 11  2  1  0  0  0  0
 11 14  1  0  0  0  0
 12 11  2  0  0  0  0
 13 18  1  0  0  0  0
 14 15  1  0  0  0  0
 14 13  2  0  0  0  0
 15 16  2  0  0  0  0
 16 17  1  0  0  0  0
 17 21  1  0  0  0  0
 18 17  2  0  0  0  0
 19 13  1  0  0  0  0
 20 15  1  0  0  0  0
 22 24  1  0  0  0  0
 22  1  1  0  0  0  0
 23 22  1  0  0  0  0
 25 30  1  6  0  0  0
 25 29  1  0  0  0  0
 26 25  1  0  0  0  0
 26 32  1  0  0  0  0
 26 27  1  0  0  0  0
 27 33  1  6  0  0  0
 27 22  1  0  0  0  0
 27 28  1  0  0  0  0
 28 29  1  0  0  0  0
 29 35  1  0  0  0  0
 29 34  1  0  0  0  0
 31 26  1  0  0  0  0
 36 25  1  0  0  0  0
 38 37  1  0  0  0  0
 38 42  1  0  0  0  0
 39 40  1  0  0  0  0
 39 38  1  0  0  0  0
 40 41  1  0  0  0  0
 41 42  1  0  0  0  0
 42 36  1  1  0  0  0
M  END
>  <minimizedAffinity>
-5.08416843

>  <minimizedRMSD>
0.228480875

$$$$
