
 OpenBabel03262521433D

 27 29  0  0  1  0  0  0  0  0999 V2000
   38.6870   31.0010   46.7290 C   0  0  1  0  0  0  0  0  0  0  0  0
   37.5010   30.0400   46.6470 C   0  0  2  0  0  0  0  0  0  0  0  0
   36.8940   30.6370   45.3970 C   0  0  0  0  0  0  0  0  0  0  0  0
   37.9590   30.8500   44.5340 O   0  0  0  0  0  0  0  0  0  0  0  0
   39.1250   30.9220   45.2640 C   0  0  0  0  0  0  0  0  0  0  0  0
   39.4150   30.5460   47.4180 H   0  0  0  0  0  0  0  0  0  0  0  0
   37.9050   29.0400   46.4750 H   0  0  0  0  0  0  0  0  0  0  0  0
   36.1450   29.9490   44.9370 H   0  0  0  0  0  0  0  0  0  0  0  0
   36.4210   31.6130   45.6310 H   0  0  0  0  0  0  0  0  0  0  0  0
   39.6460   31.8650   45.0030 H   0  0  0  0  0  0  0  0  0  0  0  0
   39.8050   30.0670   45.0810 H   0  0  0  0  0  0  0  0  0  0  0  0
   36.6390   30.1140   47.8340 C   0  0  0  0  0  0  0  0  0  0  0  0
   37.1750   29.8870   49.1080 C   0  0  0  0  0  0  0  0  0  0  0  0
   36.2910   29.9480   50.1910 C   0  0  0  0  0  0  0  0  0  0  0  0
   34.9710   30.2240   49.9500 N   0  0  0  0  0  0  0  0  0  0  0  0
   34.4850   30.4400   48.6910 C   0  0  0  0  0  0  0  0  0  0  0  0
   35.3370   30.3830   47.6350 N   0  0  0  0  0  0  0  0  0  0  0  0
   38.2160   29.6720   49.2690 H   0  0  0  0  0  0  0  0  0  0  0  0
   36.6270   29.7830   51.2070 H   0  0  0  0  0  0  0  0  0  0  0  0
   33.4280   30.6500   48.6000 H   0  0  0  0  0  0  0  0  0  0  0  0
   38.3260   32.2780   46.9840 O   0  0  0  0  0  0  0  0  0  0  0  0
   38.9360   34.7580   47.2540 H   0  0  0  0  0  0  0  0  0  0  0  0
   39.7450   34.1020   47.4770 N   0  0  0  0  0  0  0  0  0  0  0  0
   40.3340   34.6140   48.7000 C   0  0  0  0  0  0  0  0  0  0  0  0
   39.4530   34.1440   49.8470 C   0  0  0  0  0  0  0  0  0  0  0  0
   38.3230   33.4170   49.1070 C   0  0  0  0  0  0  0  0  0  0  0  0
   39.1360   32.8640   47.9300 C   0  0  1  0  0  0  0  0  0  0  0  0
  1 21  1  0  0  0  0
  1  6  1  1  0  0  0
  2  7  1  6  0  0  0
  2  1  1  0  0  0  0
  2 12  1  0  0  0  0
  3  9  1  0  0  0  0
  3  2  1  0  0  0  0
  4  5  1  0  0  0  0
  4  3  1  0  0  0  0
  5  1  1  0  0  0  0
  8  3  1  0  0  0  0
 10  5  1  0  0  0  0
 11  5  1  0  0  0  0
 12 13  1  0  0  0  0
 13 18  1  0  0  0  0
 13 14  2  0  0  0  0
 14 19  1  0  0  0  0
 15 14  1  0  0  0  0
 16 15  2  0  0  0  0
 17 12  2  0  0  0  0
 17 16  1  0  0  0  0
 20 16  1  0  0  0  0
 22 23  1  0  0  0  0
 23 27  1  0  0  0  0
 23 24  1  0  0  0  0
 24 25  1  0  0  0  0
 26 25  1  0  0  0  0
 27 21  1  6  0  0  0
 27 26  1  0  0  0  0
M  END
>  <minimizedAffinity>
-4.25893593

>  <minimizedRMSD>
1.83677137

$$$$
