REMARK  Name = 
REMARK  2 active torsions:
REMARK  status: ('A' for Active; 'I' for Inactive)
REMARK    1  A    between atoms: C_1  and  C_8
REMARK    2  A    between atoms: C_3  and  N_12
REMARK                            x       y       z     vdW  Elec       q    Type
REMARK                         _______ _______ _______ _____ _____    ______ ____
ROOT
ATOM      1  C   UNL     1      38.376  30.595  47.103  0.00  0.00    +0.000 C 
ATOM      2  C   UNL     1      36.984  30.561  47.529  0.00  0.00    +0.000 C 
ATOM      3  C   UNL     1      38.101  31.140  48.423  0.00  0.00    +0.000 C 
ATOM      4  H   UNL     1      38.980  29.625  47.137  0.00  0.00    +0.000 HD
ATOM      5  H   UNL     1      36.554  29.637  47.928  0.00  0.00    +0.000 HD
ATOM      6  H   UNL     1      36.265  31.291  47.101  0.00  0.00    +0.000 HD
ATOM      7  H   UNL     1      37.910  32.198  48.642  0.00  0.00    +0.000 HD
ENDROOT
BRANCH   3  10
ATOM      8  C   UNL     1      37.671  30.511  50.772  0.00  0.00    +0.000 C 
ATOM      9  O   UNL     1      36.731  31.343  50.810  0.00  0.00    +0.000 OA
ATOM     10  N   UNL     1      38.429  30.283  49.567  0.00  0.00    +0.000 N 
ATOM     11  H   UNL     1      39.164  29.574  49.467  0.00  0.00    +0.000 HD
ATOM     12  N   UNL     1      38.084  29.716  51.889  0.00  0.00    +0.000 N 
ATOM     13  C   UNL     1      39.040  29.874  52.969  0.00  0.00    +0.000 C 
ATOM     14  C   UNL     1      39.805  28.597  53.108  0.00  0.00    +0.000 C 
ATOM     15  C   UNL     1      38.893  27.583  52.448  0.00  0.00    +0.000 C 
ATOM     16  C   UNL     1      37.617  28.400  52.294  0.00  0.00    +0.000 C 
ATOM     17  H   UNL     1      36.988  28.407  53.195  0.00  0.00    +0.000 HD
ENDBRANCH   3  10
BRANCH   1  22
ATOM     18  C   UNL     1      40.610  32.679  45.020  0.00  0.00    +0.000 A 
ATOM     19  C   UNL     1      39.721  33.178  44.029  0.00  0.00    +0.000 A 
ATOM     20  C   UNL     1      38.344  32.774  44.108  0.00  0.00    +0.000 A 
ATOM     21  N   UNL     1      37.963  31.950  45.105  0.00  0.00    +0.000 NA
ATOM     22  C   UNL     1      38.864  31.505  46.023  0.00  0.00    +0.000 A 
ATOM     23  N   UNL     1      40.181  31.851  46.004  0.00  0.00    +0.000 NA
ATOM     24  H   UNL     1      41.645  32.955  45.000  0.00  0.00    +0.000 HD
ATOM     25  H   UNL     1      40.071  33.832  43.255  0.00  0.00    +0.000 HD
ATOM     26  H   UNL     1      37.655  33.144  43.364  0.00  0.00    +0.000 HD
ENDBRANCH   1  22
TORSDOF 2
