REMARK  Name = 
REMARK  5 active torsions:
REMARK  status: ('A' for Active; 'I' for Inactive)
REMARK    1  A    between atoms: C_1  and  C_13
REMARK    2  A    between atoms: C_2  and  O_14
REMARK    3  A    between atoms: C_6  and  C_7
REMARK    4  A    between atoms: O_14  and  C_15
REMARK    5  A    between atoms: C_16  and  N_23
REMARK                            x       y       z     vdW  Elec       q    Type
REMARK                         _______ _______ _______ _____ _____    ______ ____
ROOT
ATOM      1  C   UNL     1      38.262  32.284  47.393  0.00  0.00    +0.000 A 
ATOM      2  C   UNL     1      37.911  32.733  48.652  0.00  0.00    +0.000 A 
ATOM      3  C   UNL     1      38.672  33.687  49.308  0.00  0.00    +0.000 A 
ATOM      4  C   UNL     1      39.807  34.200  48.684  0.00  0.00    +0.000 A 
ATOM      5  C   UNL     1      40.164  33.754  47.420  0.00  0.00    +0.000 A 
ATOM      6  C   UNL     1      39.371  32.803  46.815  0.00  0.00    +0.000 A 
ATOM      7  H   UNL     1      38.446  34.072  50.288  0.00  0.00    +0.000 HD
ATOM      8  H   UNL     1      40.417  34.946  49.176  0.00  0.00    +0.000 HD
ATOM      9  H   UNL     1      41.047  34.181  46.983  0.00  0.00    +0.000 HD
ENDROOT
BRANCH   6  10
ATOM     10  C   UNL     1      39.767  32.333  45.455  0.00  0.00    +0.000 A 
ATOM     11  C   UNL     1      40.618  31.333  45.094  0.00  0.00    +0.000 A 
ATOM     12  C   UNL     1      40.648  31.292  43.710  0.00  0.00    +0.000 A 
ATOM     13  C   UNL     1      39.786  32.301  43.306  0.00  0.00    +0.000 A 
ATOM     14  O   UNL     1      39.278  32.902  44.365  0.00  0.00    +0.000 OA
ATOM     15  H   UNL     1      41.158  30.704  45.783  0.00  0.00    +0.000 HD
ATOM     16  H   UNL     1      41.218  30.621  43.074  0.00  0.00    +0.000 HD
ATOM     17  H   UNL     1      39.553  32.570  42.272  0.00  0.00    +0.000 HD
ENDBRANCH   6  10
BRANCH   1  19
ATOM     18  N   UNL     1      36.760  30.510  46.299  0.00  0.00    +0.000 NA
ATOM     19  C   UNL     1      37.427  31.306  46.796  0.00  0.00    +0.000 C 
ENDBRANCH   1  19
BRANCH   2  20
ATOM     20  O   UNL     1      36.810  32.309  49.389  0.00  0.00    +0.000 OA
BRANCH  20  21
ATOM     21  C   UNL     1      36.791  31.202  50.168  0.00  0.00    +0.000 A 
ATOM     22  C   UNL     1      35.636  30.429  49.945  0.00  0.00    +0.000 A 
ATOM     23  C   UNL     1      35.434  29.256  50.649  0.00  0.00    +0.000 A 
ATOM     24  N   UNL     1      36.389  28.893  51.549  0.00  0.00    +0.000 NA
ATOM     25  C   UNL     1      37.499  29.656  51.748  0.00  0.00    +0.000 A 
ATOM     26  N   UNL     1      37.676  30.772  51.069  0.00  0.00    +0.000 NA
ATOM     27  H   UNL     1      34.576  28.618  50.528  0.00  0.00    +0.000 HD
ATOM     28  H   UNL     1      38.198  29.283  52.484  0.00  0.00    +0.000 HD
BRANCH  22  31
ATOM     29  C   UNL     1      34.149  29.715  48.161  0.00  0.00    +0.000 C 
ATOM     30  O   UNL     1      34.544  28.509  47.870  0.00  0.00    +0.000 OA
ATOM     31  N   UNL     1      34.605  30.733  49.037  0.00  0.00    +0.000 N 
ATOM     32  H   UNL     1      34.090  31.630  48.889  0.00  0.00    +0.000 HD
ATOM     33  N   UNL     1      33.011  29.826  47.308  0.00  0.00    +0.000 N 
ATOM     34  C   UNL     1      33.137  30.340  45.957  0.00  0.00    +0.000 C 
ATOM     35  C   UNL     1      32.497  29.189  45.171  0.00  0.00    +0.000 C 
ATOM     36  C   UNL     1      31.224  28.995  45.969  0.00  0.00    +0.000 C 
ATOM     37  C   UNL     1      31.564  29.565  47.333  0.00  0.00    +0.000 C 
ATOM     38  H   UNL     1      31.289  28.876  48.146  0.00  0.00    +0.000 HD
ENDBRANCH  22  31
ENDBRANCH  20  21
ENDBRANCH   2  20
TORSDOF 5
