
     RDKit          3D

 33 35  0  0  0  0  0  0  0  0999 V2000
   38.3758   30.5950   47.1032 C   0  0  2  0  0  0  0  0  0  0  0  0
   36.9842   30.5606   47.5285 C   0  0  0  0  0  0  0  0  0  0  0  0
   38.1014   31.1402   48.4235 C   0  0  1  0  0  0  0  0  0  0  0  0
   40.6098   32.6788   45.0198 C   0  0  0  0  0  0  0  0  0  0  0  0
   39.7205   33.1781   44.0294 C   0  0  0  0  0  0  0  0  0  0  0  0
   38.3443   32.7738   44.1083 C   0  0  0  0  0  0  0  0  0  0  0  0
   37.9631   31.9498   45.1045 N   0  0  0  0  0  0  0  0  0  0  0  0
   38.8636   31.5051   46.0229 C   0  0  0  0  0  0  0  0  0  0  0  0
   40.1806   31.8511   46.0037 N   0  0  0  0  0  0  0  0  0  0  0  0
   37.6707   30.5110   50.7717 C   0  0  0  0  0  0  0  0  0  0  0  0
   36.7313   31.3435   50.8097 O   0  0  0  0  0  0  0  0  0  0  0  0
   38.4287   30.2830   49.5668 N   0  0  0  0  0  0  0  0  0  0  0  0
   38.9802   29.6245   47.1369 H   0  0  0  0  0  0  0  0  0  0  0  0
   36.5545   29.6370   47.9276 H   0  0  0  0  0  0  0  0  0  0  0  0
   36.2651   31.2915   47.1014 H   0  0  0  0  0  0  0  0  0  0  0  0
   37.9101   32.1979   48.6415 H   0  0  0  0  0  0  0  0  0  0  0  0
   41.6452   32.9550   44.9999 H   0  0  0  0  0  0  0  0  0  0  0  0
   40.0711   33.8316   43.2555 H   0  0  0  0  0  0  0  0  0  0  0  0
   37.6546   33.1439   43.3638 H   0  0  0  0  0  0  0  0  0  0  0  0
   39.1645   29.5736   49.4670 H   0  0  0  0  0  0  0  0  0  0  0  0
   38.0844   29.7156   51.8895 N   0  0  0  0  0  0  0  0  0  0  0  0
   39.0399   29.8739   52.9689 C   0  0  0  0  0  0  0  0  0  0  0  0
   39.8053   28.5967   53.1076 C   0  0  0  0  0  0  0  0  0  0  0  0
   38.8926   27.5829   52.4484 C   0  0  0  0  0  0  0  0  0  0  0  0
   37.6170   28.4004   52.2938 C   0  0  1  0  0  0  0  0  0  0  0  0
   36.9880   28.4068   53.1952 H   0  0  0  0  0  0  0  0  0  0  0  0
   39.7371   30.7077   52.7164 H   0  0  0  0  0  0  0  0  0  0  0  0
   38.4968   30.0684   53.9244 H   0  0  0  0  0  0  0  0  0  0  0  0
   39.8621   28.2923   54.1814 H   0  0  0  0  0  0  0  0  0  0  0  0
   40.8145   28.6143   52.6507 H   0  0  0  0  0  0  0  0  0  0  0  0
   39.2481   27.2927   51.4321 H   0  0  0  0  0  0  0  0  0  0  0  0
   38.6920   26.7019   53.0916 H   0  0  0  0  0  0  0  0  0  0  0  0
   37.0747   27.9366   51.4239 H   0  0  0  0  0  0  0  0  0  0  0  0
  1  2  1  0
  1  3  1  0
  2  3  1  0
  3 12  1  0
  4  9  2  0
  5  6  2  0
  5  4  1  0
  6  7  1  0
  7  8  2  0
  8  1  1  0
  9  8  1  0
 10 11  2  0
 12 10  1  0
  1 13  1  1
  2 14  1  0
  2 15  1  0
  3 16  1  1
  4 17  1  0
  5 18  1  0
  6 19  1  0
 12 20  1  0
 21 22  1  0
 22 23  1  0
 23 24  1  0
 24 25  1  0
 25 26  1  1
 25 21  1  0
 22 27  1  0
 22 28  1  0
 23 29  1  0
 23 30  1  0
 24 31  1  0
 24 32  1  0
 25 33  1  0
 10 21  1  0
M  ISO  8  13  13  14  13  15  13  16  13  17  14  18  14  19  14  26  13
M  END
>  <DihAtoms>  (1) 
10,9,20,21

>  <DihDeg>  (1) 
179.99863944451937

$$$$
