
 OpenBabel03262521303D

 28 30  0  0  1  0  0  0  0  0999 V2000
   38.6310   25.2890   33.3520 C   0  0  1  0  0  0  0  0  0  0  0  0
   39.0170   26.6810   32.9410 C   0  0  2  0  0  0  0  0  0  0  0  0
   39.6890   27.2800   33.9850 O   0  0  0  0  0  0  0  0  0  0  0  0
   40.2040   26.2500   34.7750 C   0  0  0  0  0  0  0  0  0  0  0  0
   39.0340   25.2800   34.7980 C   0  0  2  0  0  0  0  0  0  0  0  0
   39.2870   24.5180   32.8520 H   0  0  0  0  0  0  0  0  0  0  0  0
   39.7110   26.5990   32.0790 H   0  0  0  0  0  0  0  0  0  0  0  0
   41.1230   25.8110   34.3630 H   0  0  0  0  0  0  0  0  0  0  0  0
   40.3460   26.6680   35.8020 H   0  0  0  0  0  0  0  0  0  0  0  0
   38.2600   25.7130   35.4570 H   0  0  0  0  0  0  0  0  0  0  0  0
   36.6900   28.7850   30.8270 C   0  0  0  0  0  0  0  0  0  0  0  0
   37.8050   27.9740   31.1630 C   0  0  0  0  0  0  0  0  0  0  0  0
   37.8930   27.5240   32.4810 C   0  0  0  0  0  0  0  0  0  0  0  0
   36.9100   27.8770   33.3850 N   0  0  0  0  0  0  0  0  0  0  0  0
   35.8680   28.6510   33.0160 C   0  0  0  0  0  0  0  0  0  0  0  0
   35.7610   29.0990   31.7520 N   0  0  0  0  0  0  0  0  0  0  0  0
   36.6020   29.1440   29.8140 H   0  0  0  0  0  0  0  0  0  0  0  0
   38.5430   27.7200   30.4440 H   0  0  0  0  0  0  0  0  0  0  0  0
   35.1530   28.8760   33.7860 H   0  0  0  0  0  0  0  0  0  0  0  0
   37.3470   24.9390   33.1000 O   0  0  0  0  0  0  0  0  0  0  0  0
   37.2370   24.3820   32.3000 H   0  0  0  0  0  0  0  0  0  0  0  0
   39.3750   24.0360   35.2580 O   0  0  0  0  0  0  0  0  0  0  0  0
   38.4510   21.6150   37.0720 H   0  0  0  0  0  0  0  0  0  0  0  0
   39.0430   22.4790   36.9470 N   0  0  0  0  0  0  0  0  0  0  0  0
   39.2420   23.1380   38.2220 C   0  0  0  0  0  2  0  0  0  0  0  0
   37.9200   23.8890   38.3660 C   0  0  0  0  0  2  0  0  0  0  0  0
   37.8880   24.5670   36.9890 C   0  0  0  0  0  2  0  0  0  0  0  0
   38.4410   23.4600   36.0920 C   0  0  1  0  0  3  0  0  0  0  0  0
  1  6  1  6  0  0  0
  1  5  1  0  0  0  0
  2  7  1  6  0  0  0
  2  1  1  0  0  0  0
  2  3  1  0  0  0  0
  3  4  1  0  0  0  0
  4  5  1  0  0  0  0
  4  9  1  0  0  0  0
  5 22  1  0  0  0  0
  5 10  1  1  0  0  0
  8  4  1  0  0  0  0
 11 12  2  0  0  0  0
 11 16  1  0  0  0  0
 12 13  1  0  0  0  0
 13  2  1  0  0  0  0
 13 14  2  0  0  0  0
 15 14  1  0  0  0  0
 15 19  1  0  0  0  0
 16 15  2  0  0  0  0
 17 11  1  0  0  0  0
 18 12  1  0  0  0  0
 20  1  1  0  0  0  0
 21 20  1  0  0  0  0
 24 23  1  0  0  0  0
 24 25  1  0  0  0  0
 25 26  1  0  0  0  0
 27 26  1  0  0  0  0
 28 22  1  6  0  0  0
 28 24  1  0  0  0  0
 28 27  1  0  0  0  0
M  END
>  <minimizedAffinity>
-4.58421898

$$$$

 OpenBabel03262521303D

 28 30  0  0  1  0  0  0  0  0999 V2000
   38.9110   26.2330   34.4540 C   0  0  1  0  0  0  0  0  0  0  0  0
   38.8840   24.7350   34.5530 C   0  0  2  0  0  0  0  0  0  0  0  0
   37.7760   24.2680   33.8770 O   0  0  0  0  0  0  0  0  0  0  0  0
   37.4230   25.2540   32.9540 C   0  0  0  0  0  0  0  0  0  0  0  0
   37.5970   26.5150   33.7860 C   0  0  2  0  0  0  0  0  0  0  0  0
   39.7000   26.5810   33.7250 H   0  0  0  0  0  0  0  0  0  0  0  0
   39.7910   24.3460   34.0480 H   0  0  0  0  0  0  0  0  0  0  0  0
   38.0470   25.2410   32.0510 H   0  0  0  0  0  0  0  0  0  0  0  0
   36.3360   25.1160   32.7320 H   0  0  0  0  0  0  0  0  0  0  0  0
   36.7560   26.5550   34.5020 H   0  0  0  0  0  0  0  0  0  0  0  0
   39.8670   22.8690   37.6930 C   0  0  0  0  0  0  0  0  0  0  0  0
   39.9230   23.3240   36.3500 C   0  0  0  0  0  0  0  0  0  0  0  0
   38.9250   24.2060   35.9330 C   0  0  0  0  0  0  0  0  0  0  0  0
   37.9450   24.5920   36.8260 N   0  0  0  0  0  0  0  0  0  0  0  0
   37.9350   24.1300   38.0940 C   0  0  0  0  0  0  0  0  0  0  0  0
   38.8850   23.2790   38.5210 N   0  0  0  0  0  0  0  0  0  0  0  0
   40.6280   22.1870   38.0370 H   0  0  0  0  0  0  0  0  0  0  0  0
   40.6910   23.0090   35.6890 H   0  0  0  0  0  0  0  0  0  0  0  0
   37.1340   24.4840   38.7170 H   0  0  0  0  0  0  0  0  0  0  0  0
   39.1300   26.8930   35.6170 O   0  0  0  0  0  0  0  0  0  0  0  0
   40.0520   27.2090   35.7260 H   0  0  0  0  0  0  0  0  0  0  0  0
   37.6050   27.6590   33.0340 O   0  0  0  0  0  0  0  0  0  0  0  0
   35.0430   27.6290   31.1800 H   0  0  0  0  0  0  0  0  0  0  0  0
   35.7650   28.1780   31.7180 N   0  0  0  0  0  0  0  0  0  0  0  0
   36.0090   29.4530   31.0730 C   0  0  0  0  0  2  0  0  0  0  0  0
   36.9560   29.0300   29.9520 C   0  0  0  0  0  2  0  0  0  0  0  0
   37.9620   28.2290   30.7890 C   0  0  0  0  0  2  0  0  0  0  0  0
   37.0390   27.5250   31.7840 C   0  0  1  0  0  3  0  0  0  0  0  0
  1  6  1  6  0  0  0
  1  2  1  0  0  0  0
  1 20  1  0  0  0  0
  2  7  1  6  0  0  0
  2 13  1  0  0  0  0
  3  2  1  0  0  0  0
  4  5  1  0  0  0  0
  4  3  1  0  0  0  0
  5  1  1  0  0  0  0
  5 10  1  1  0  0  0
  8  4  1  0  0  0  0
  9  4  1  0  0  0  0
 11 17  1  0  0  0  0
 11 16  1  0  0  0  0
 12 11  2  0  0  0  0
 13 12  1  0  0  0  0
 13 14  2  0  0  0  0
 14 15  1  0  0  0  0
 15 16  2  0  0  0  0
 15 19  1  0  0  0  0
 18 12  1  0  0  0  0
 20 21  1  0  0  0  0
 22  5  1  0  0  0  0
 23 24  1  0  0  0  0
 24 28  1  0  0  0  0
 25 24  1  0  0  0  0
 26 27  1  0  0  0  0
 26 25  1  0  0  0  0
 27 28  1  0  0  0  0
 28 22  1  1  0  0  0
M  END
>  <minimizedAffinity>
-4.58111858

$$$$

 OpenBabel03262521303D

 28 30  0  0  1  0  0  0  0  0999 V2000
   38.3820   27.0010   35.1160 C   0  0  1  0  0  0  0  0  0  0  0  0
   38.6160   25.5610   34.7600 C   0  0  2  0  0  0  0  0  0  0  0  0
   37.5790   25.1290   33.9600 O   0  0  0  0  0  0  0  0  0  0  0  0
   37.0250   26.2670   33.3720 C   0  0  0  0  0  0  0  0  0  0  0  0
   37.0130   27.2320   34.5470 C   0  0  2  0  0  0  0  0  0  0  0  0
   39.0690   27.6830   34.5360 H   0  0  0  0  0  0  0  0  0  0  0  0
   39.5560   25.5060   34.1730 H   0  0  0  0  0  0  0  0  0  0  0  0
   37.6050   26.6340   32.5150 H   0  0  0  0  0  0  0  0  0  0  0  0
   35.9690   26.0130   33.1040 H   0  0  0  0  0  0  0  0  0  0  0  0
   36.2070   26.9090   35.2310 H   0  0  0  0  0  0  0  0  0  0  0  0
   40.0010   22.9970   37.1720 C   0  0  0  0  0  0  0  0  0  0  0  0
   39.9210   23.8300   36.0260 C   0  0  0  0  0  0  0  0  0  0  0  0
   38.8050   24.6600   35.9170 C   0  0  0  0  0  0  0  0  0  0  0  0
   37.8440   24.6390   36.9100 N   0  0  0  0  0  0  0  0  0  0  0  0
   37.9670   23.8290   37.9820 C   0  0  0  0  0  0  0  0  0  0  0  0
   39.0320   23.0180   38.1100 N   0  0  0  0  0  0  0  0  0  0  0  0
   40.8550   22.3480   37.2780 H   0  0  0  0  0  0  0  0  0  0  0  0
   40.6770   23.8230   35.2810 H   0  0  0  0  0  0  0  0  0  0  0  0
   37.1710   23.8780   38.7030 H   0  0  0  0  0  0  0  0  0  0  0  0
   38.5310   27.3110   36.4270 O   0  0  0  0  0  0  0  0  0  0  0  0
   39.3880   27.7380   36.6380 H   0  0  0  0  0  0  0  0  0  0  0  0
   36.7940   28.5310   34.1740 O   0  0  0  0  0  0  0  0  0  0  0  0
   33.6620   28.9210   33.9650 H   0  0  0  0  0  0  0  0  0  0  0  0
   34.6130   29.3270   34.1710 N   0  0  0  0  0  0  0  0  0  0  0  0
   34.6400   30.7360   33.8340 C   0  0  0  0  0  2  0  0  0  0  0  0
   34.8390   30.6640   32.3210 C   0  0  0  0  0  2  0  0  0  0  0  0
   36.0330   29.7000   32.2910 C   0  0  0  0  0  2  0  0  0  0  0  0
   35.6640   28.7230   33.4060 C   0  0  1  0  0  3  0  0  0  0  0  0
  1  6  1  6  0  0  0
  1 20  1  0  0  0  0
  2  7  1  6  0  0  0
  2  1  1  0  0  0  0
  2 13  1  0  0  0  0
  3  2  1  0  0  0  0
  4  3  1  0  0  0  0
  4  5  1  0  0  0  0
  5  1  1  0  0  0  0
  5 10  1  1  0  0  0
  8  4  1  0  0  0  0
  9  4  1  0  0  0  0
 11 17  1  0  0  0  0
 11 16  1  0  0  0  0
 12 11  2  0  0  0  0
 13 12  1  0  0  0  0
 13 14  2  0  0  0  0
 14 15  1  0  0  0  0
 15 16  2  0  0  0  0
 15 19  1  0  0  0  0
 18 12  1  0  0  0  0
 20 21  1  0  0  0  0
 22  5  1  0  0  0  0
 23 24  1  0  0  0  0
 25 24  1  0  0  0  0
 26 25  1  0  0  0  0
 27 26  1  0  0  0  0
 27 28  1  0  0  0  0
 28 24  1  0  0  0  0
 28 22  1  1  0  0  0
M  END
>  <minimizedAffinity>
-4.52851677

$$$$

 OpenBabel03262521303D

 28 30  0  0  1  0  0  0  0  0999 V2000
   39.1830   24.3230   34.2170 C   0  0  1  0  0  0  0  0  0  0  0  0
   38.4400   25.6120   34.4270 C   0  0  2  0  0  0  0  0  0  0  0  0
   37.6140   25.4720   35.5220 O   0  0  0  0  0  0  0  0  0  0  0  0
   38.1480   24.4430   36.3000 C   0  0  0  0  0  0  0  0  0  0  0  0
   38.5290   23.4310   35.2310 C   0  0  2  0  0  0  0  0  0  0  0  0
   40.2590   24.4140   34.5440 H   0  0  0  0  0  0  0  0  0  0  0  0
   39.1880   26.4000   34.6520 H   0  0  0  0  0  0  0  0  0  0  0  0
   38.9990   24.7650   36.9150 H   0  0  0  0  0  0  0  0  0  0  0  0
   37.3080   24.0250   36.9080 H   0  0  0  0  0  0  0  0  0  0  0  0
   37.5920   22.9780   34.8570 H   0  0  0  0  0  0  0  0  0  0  0  0
   37.0850   27.7340   31.6040 C   0  0  0  0  0  0  0  0  0  0  0  0
   37.8670   27.3710   32.7310 C   0  0  0  0  0  0  0  0  0  0  0  0
   37.6840   26.0890   33.2490 C   0  0  0  0  0  0  0  0  0  0  0  0
   36.7690   25.2410   32.6560 N   0  0  0  0  0  0  0  0  0  0  0  0
   36.0490   25.6330   31.5840 C   0  0  0  0  0  0  0  0  0  0  0  0
   36.2060   26.8640   31.0650 N   0  0  0  0  0  0  0  0  0  0  0  0
   37.2100   28.7200   31.1860 H   0  0  0  0  0  0  0  0  0  0  0  0
   38.5630   28.0460   33.1640 H   0  0  0  0  0  0  0  0  0  0  0  0
   35.3610   24.9080   31.1890 H   0  0  0  0  0  0  0  0  0  0  0  0
   39.1950   23.8550   32.9450 O   0  0  0  0  0  0  0  0  0  0  0  0
   40.0290   24.0360   32.4640 H   0  0  0  0  0  0  0  0  0  0  0  0
   39.3550   22.4430   35.6950 O   0  0  0  0  0  0  0  0  0  0  0  0
   40.5310   22.2720   38.6260 H   0  0  0  0  0  0  0  0  0  0  0  0
   40.4550   21.8650   37.6560 N   0  0  0  0  0  0  0  0  0  0  0  0
   41.6770   21.1690   37.3070 C   0  0  0  0  0  2  0  0  0  0  0  0
   42.5690   22.3410   36.9030 C   0  0  0  0  0  2  0  0  0  0  0  0
   41.6100   23.0360   35.9270 C   0  0  0  0  0  2  0  0  0  0  0  0
   40.2690   22.8590   36.6400 C   0  0  1  0  0  3  0  0  0  0  0  0
  1  2  1  0  0  0  0
  1  6  1  1  0  0  0
  1  5  1  0  0  0  0
  2  7  1  1  0  0  0
  2  3  1  0  0  0  0
  3  4  1  0  0  0  0
  4  9  1  0  0  0  0
  4  8  1  0  0  0  0
  5 10  1  6  0  0  0
  5 22  1  0  0  0  0
  5  4  1  0  0  0  0
 11 12  1  0  0  0  0
 12 18  1  0  0  0  0
 12 13  2  0  0  0  0
 13  2  1  0  0  0  0
 14 13  1  0  0  0  0
 15 14  2  0  0  0  0
 16 15  1  0  0  0  0
 16 11  2  0  0  0  0
 17 11  1  0  0  0  0
 19 15  1  0  0  0  0
 20  1  1  0  0  0  0
 21 20  1  0  0  0  0
 24 23  1  0  0  0  0
 25 24  1  0  0  0  0
 26 25  1  0  0  0  0
 27 28  1  0  0  0  0
 27 26  1  0  0  0  0
 28 22  1  6  0  0  0
 28 24  1  0  0  0  0
M  END
>  <minimizedAffinity>
-4.43880367

$$$$

 OpenBabel03262521303D

 28 30  0  0  1  0  0  0  0  0999 V2000
   37.5310   23.7240   32.0910 C   0  0  1  0  0  0  0  0  0  0  0  0
   36.7030   23.1290   30.9870 C   0  0  2  0  0  0  0  0  0  0  0  0
   35.6410   23.9700   30.7300 O   0  0  0  0  0  0  0  0  0  0  0  0
   36.0140   25.2370   31.1810 C   0  0  0  0  0  0  0  0  0  0  0  0
   36.6890   24.8970   32.4990 C   0  0  2  0  0  0  0  0  0  0  0  0
   38.4900   24.1650   31.6900 H   0  0  0  0  0  0  0  0  0  0  0  0
   37.3380   23.0780   30.0780 H   0  0  0  0  0  0  0  0  0  0  0  0
   36.6730   25.7670   30.4800 H   0  0  0  0  0  0  0  0  0  0  0  0
   35.0700   25.7970   31.3940 H   0  0  0  0  0  0  0  0  0  0  0  0
   35.8940   24.6200   33.2150 H   0  0  0  0  0  0  0  0  0  0  0  0
   36.2710   19.3720   30.8820 C   0  0  0  0  0  0  0  0  0  0  0  0
   36.7960   20.6550   30.5750 C   0  0  0  0  0  0  0  0  0  0  0  0
   36.2390   21.7480   31.2390 C   0  0  0  0  0  0  0  0  0  0  0  0
   35.2220   21.5420   32.1510 N   0  0  0  0  0  0  0  0  0  0  0  0
   34.7570   20.3010   32.4090 C   0  0  0  0  0  0  0  0  0  0  0  0
   35.2770   19.2310   31.7820 N   0  0  0  0  0  0  0  0  0  0  0  0
   36.6870   18.5130   30.3810 H   0  0  0  0  0  0  0  0  0  0  0  0
   37.5790   20.7790   29.8690 H   0  0  0  0  0  0  0  0  0  0  0  0
   33.9640   20.2370   33.1320 H   0  0  0  0  0  0  0  0  0  0  0  0
   37.8760   22.8730   33.0880 O   0  0  0  0  0  0  0  0  0  0  0  0
   38.7940   22.5360   33.0230 H   0  0  0  0  0  0  0  0  0  0  0  0
   37.4200   25.9350   33.0140 O   0  0  0  0  0  0  0  0  0  0  0  0
   38.4500   24.8440   35.7980 H   0  0  0  0  0  0  0  0  0  0  0  0
   38.6220   25.4190   34.9310 N   0  0  0  0  0  0  0  0  0  0  0  0
   39.4990   26.5330   35.2350 C   0  0  0  0  0  2  0  0  0  0  0  0
   38.5090   27.5120   35.8640 C   0  0  0  0  0  2  0  0  0  0  0  0
   37.4270   27.4780   34.7760 C   0  0  0  0  0  2  0  0  0  0  0  0
   37.4280   26.0000   34.3910 C   0  0  1  0  0  3  0  0  0  0  0  0
  1  6  1  6  0  0  0
  1  5  1  0  0  0  0
  1 20  1  0  0  0  0
  2  7  1  6  0  0  0
  2 13  1  0  0  0  0
  2  1  1  0  0  0  0
  3  2  1  0  0  0  0
  3  4  1  0  0  0  0
  4  9  1  0  0  0  0
  4  5  1  0  0  0  0
  5 22  1  0  0  0  0
  5 10  1  1  0  0  0
  8  4  1  0  0  0  0
 11 16  1  0  0  0  0
 12 11  2  0  0  0  0
 12 13  1  0  0  0  0
 13 14  2  0  0  0  0
 14 15  1  0  0  0  0
 15 19  1  0  0  0  0
 16 15  2  0  0  0  0
 17 11  1  0  0  0  0
 18 12  1  0  0  0  0
 21 20  1  0  0  0  0
 24 25  1  0  0  0  0
 24 23  1  0  0  0  0
 25 26  1  0  0  0  0
 27 26  1  0  0  0  0
 28 22  1  6  0  0  0
 28 27  1  0  0  0  0
 28 24  1  0  0  0  0
M  END
>  <minimizedAffinity>
-4.43405342

$$$$

 OpenBabel03262521303D

 28 30  0  0  1  0  0  0  0  0999 V2000
   38.0310   26.0530   34.1520 C   0  0  1  0  0  0  0  0  0  0  0  0
   37.0430   25.8620   33.0360 C   0  0  2  0  0  0  0  0  0  0  0  0
   37.1820   24.5840   32.5370 O   0  0  0  0  0  0  0  0  0  0  0  0
   37.7680   23.8200   33.5490 C   0  0  0  0  0  0  0  0  0  0  0  0
   38.8220   24.7810   34.0740 C   0  0  2  0  0  0  0  0  0  0  0  0
   37.5200   26.0300   35.1580 H   0  0  0  0  0  0  0  0  0  0  0  0
   36.0250   25.9610   33.4660 H   0  0  0  0  0  0  0  0  0  0  0  0
   37.0510   23.5000   34.3170 H   0  0  0  0  0  0  0  0  0  0  0  0
   38.2800   22.9600   33.0500 H   0  0  0  0  0  0  0  0  0  0  0  0
   39.6300   24.8280   33.3210 H   0  0  0  0  0  0  0  0  0  0  0  0
   36.3340   28.7690   30.7210 C   0  0  0  0  0  0  0  0  0  0  0  0
   36.1620   27.8590   31.7970 C   0  0  0  0  0  0  0  0  0  0  0  0
   37.1290   26.8660   31.9550 C   0  0  0  0  0  0  0  0  0  0  0  0
   38.1940   26.8110   31.0760 N   0  0  0  0  0  0  0  0  0  0  0  0
   38.3130   27.7000   30.0680 C   0  0  0  0  0  0  0  0  0  0  0  0
   37.3940   28.6660   29.8940 N   0  0  0  0  0  0  0  0  0  0  0  0
   35.5990   29.5440   30.5810 H   0  0  0  0  0  0  0  0  0  0  0  0
   35.3320   27.9300   32.4560 H   0  0  0  0  0  0  0  0  0  0  0  0
   39.1730   27.5790   29.4340 H   0  0  0  0  0  0  0  0  0  0  0  0
   38.7540   27.1980   34.1030 O   0  0  0  0  0  0  0  0  0  0  0  0
   38.4310   27.8990   34.7070 H   0  0  0  0  0  0  0  0  0  0  0  0
   39.3490   24.3960   35.2780 O   0  0  0  0  0  0  0  0  0  0  0  0
   38.5370   21.6390   36.5980 H   0  0  0  0  0  0  0  0  0  0  0  0
   39.1460   22.5000   36.6010 N   0  0  0  0  0  0  0  0  0  0  0  0
   39.5160   22.8470   37.9590 C   0  0  0  0  0  2  0  0  0  0  0  0
   38.2500   23.5650   38.4250 C   0  0  0  0  0  2  0  0  0  0  0  0
   38.0910   24.5390   37.2500 C   0  0  0  0  0  2  0  0  0  0  0  0
   38.4920   23.6580   36.0670 C   0  0  1  0  0  3  0  0  0  0  0  0
  1  6  1  1  0  0  0
  2  7  1  1  0  0  0
  2  1  1  0  0  0  0
  3  2  1  0  0  0  0
  3  4  1  0  0  0  0
  4  5  1  0  0  0  0
  4  8  1  0  0  0  0
  5 10  1  6  0  0  0
  5  1  1  0  0  0  0
  5 22  1  0  0  0  0
  9  4  1  0  0  0  0
 11 12  1  0  0  0  0
 12 13  2  0  0  0  0
 12 18  1  0  0  0  0
 13  2  1  0  0  0  0
 14 13  1  0  0  0  0
 15 14  2  0  0  0  0
 16 15  1  0  0  0  0
 16 11  2  0  0  0  0
 17 11  1  0  0  0  0
 19 15  1  0  0  0  0
 20  1  1  0  0  0  0
 20 21  1  0  0  0  0
 23 24  1  0  0  0  0
 24 25  1  0  0  0  0
 25 26  1  0  0  0  0
 27 26  1  0  0  0  0
 28 22  1  6  0  0  0
 28 24  1  0  0  0  0
 28 27  1  0  0  0  0
M  END
>  <minimizedAffinity>
-4.32661629

$$$$

 OpenBabel03262521303D

 28 30  0  0  1  0  0  0  0  0999 V2000
   37.9770   25.6390   33.8490 C   0  0  1  0  0  0  0  0  0  0  0  0
   38.5800   26.9560   33.4480 C   0  0  2  0  0  0  0  0  0  0  0  0
   38.5470   27.8050   34.5340 O   0  0  0  0  0  0  0  0  0  0  0  0
   38.4750   26.9990   35.6720 C   0  0  0  0  0  0  0  0  0  0  0  0
   37.4710   25.9480   35.2280 C   0  0  2  0  0  0  0  0  0  0  0  0
   38.7730   24.8510   33.9890 H   0  0  0  0  0  0  0  0  0  0  0  0
   39.6400   26.7740   33.1780 H   0  0  0  0  0  0  0  0  0  0  0  0
   39.4460   26.5770   35.9630 H   0  0  0  0  0  0  0  0  0  0  0  0
   38.0130   27.6190   36.4800 H   0  0  0  0  0  0  0  0  0  0  0  0
   36.4750   26.4260   35.2180 H   0  0  0  0  0  0  0  0  0  0  0  0
   37.9460   28.3010   29.9700 C   0  0  0  0  0  0  0  0  0  0  0  0
   38.6280   27.6700   31.0420 C   0  0  0  0  0  0  0  0  0  0  0  0
   37.9580   27.5850   32.2630 C   0  0  0  0  0  0  0  0  0  0  0  0
   36.6850   28.1070   32.3760 N   0  0  0  0  0  0  0  0  0  0  0  0
   36.0780   28.6990   31.3260 C   0  0  0  0  0  0  0  0  0  0  0  0
   36.7020   28.7940   30.1380 N   0  0  0  0  0  0  0  0  0  0  0  0
   38.4450   28.3780   29.0170 H   0  0  0  0  0  0  0  0  0  0  0  0
   39.6070   27.2780   30.9230 H   0  0  0  0  0  0  0  0  0  0  0  0
   35.0880   29.0770   31.5060 H   0  0  0  0  0  0  0  0  0  0  0  0
   37.0620   25.1290   32.9900 O   0  0  0  0  0  0  0  0  0  0  0  0
   37.4140   24.4200   32.4100 H   0  0  0  0  0  0  0  0  0  0  0  0
   37.4390   24.8530   36.0500 O   0  0  0  0  0  0  0  0  0  0  0  0
   38.5480   25.1640   38.9960 H   0  0  0  0  0  0  0  0  0  0  0  0
   38.0120   24.5990   38.2850 N   0  0  0  0  0  0  0  0  0  0  0  0
   38.1490   23.1830   38.5640 C   0  0  0  0  0  2  0  0  0  0  0  0
   39.5250   22.9050   37.9610 C   0  0  0  0  0  2  0  0  0  0  0  0
   39.3060   23.5420   36.5820 C   0  0  0  0  0  2  0  0  0  0  0  0
   38.4860   24.7790   36.9440 C   0  0  1  0  0  3  0  0  0  0  0  0
  1  6  1  1  0  0  0
  1  5  1  0  0  0  0
  2  7  1  6  0  0  0
  2  1  1  0  0  0  0
  2  3  1  0  0  0  0
  3  4  1  0  0  0  0
  4  8  1  0  0  0  0
  4  9  1  0  0  0  0
  5 10  1  6  0  0  0
  5  4  1  0  0  0  0
  5 22  1  0  0  0  0
 11 16  2  0  0  0  0
 11 12  1  0  0  0  0
 12 13  2  0  0  0  0
 13 14  1  0  0  0  0
 13  2  1  0  0  0  0
 15 19  1  0  0  0  0
 15 14  2  0  0  0  0
 16 15  1  0  0  0  0
 17 11  1  0  0  0  0
 18 12  1  0  0  0  0
 20  1  1  0  0  0  0
 21 20  1  0  0  0  0
 24 25  1  0  0  0  0
 24 23  1  0  0  0  0
 26 25  1  0  0  0  0
 27 28  1  0  0  0  0
 27 26  1  0  0  0  0
 28 22  1  6  0  0  0
 28 24  1  0  0  0  0
M  END
>  <minimizedAffinity>
-4.23268557

$$$$

 OpenBabel03262521303D

 28 30  0  0  1  0  0  0  0  0999 V2000
   36.4130   24.5210   31.0220 C   0  0  1  0  0  0  0  0  0  0  0  0
   37.4380   25.5140   31.4920 C   0  0  2  0  0  0  0  0  0  0  0  0
   38.4520   24.8330   32.1320 O   0  0  0  0  0  0  0  0  0  0  0  0
   38.4190   23.5210   31.6520 C   0  0  0  0  0  0  0  0  0  0  0  0
   36.9240   23.2490   31.6330 C   0  0  2  0  0  0  0  0  0  0  0  0
   36.4770   24.3660   29.9050 H   0  0  0  0  0  0  0  0  0  0  0  0
   37.8620   26.0120   30.5960 H   0  0  0  0  0  0  0  0  0  0  0  0
   38.8930   23.4120   30.6670 H   0  0  0  0  0  0  0  0  0  0  0  0
   38.8930   22.8780   32.4340 H   0  0  0  0  0  0  0  0  0  0  0  0
   36.5990   23.1210   32.6820 H   0  0  0  0  0  0  0  0  0  0  0  0
   36.6790   27.7760   34.4270 C   0  0  0  0  0  0  0  0  0  0  0  0
   37.2550   26.7070   33.6930 C   0  0  0  0  0  0  0  0  0  0  0  0
   36.9040   26.5950   32.3470 C   0  0  0  0  0  0  0  0  0  0  0  0
   36.0290   27.5110   31.7960 N   0  0  0  0  0  0  0  0  0  0  0  0
   35.5080   28.5110   32.5370 C   0  0  0  0  0  0  0  0  0  0  0  0
   35.8300   28.6410   33.8370 N   0  0  0  0  0  0  0  0  0  0  0  0
   36.9370   27.8820   35.4690 H   0  0  0  0  0  0  0  0  0  0  0  0
   37.9250   26.0200   34.1460 H   0  0  0  0  0  0  0  0  0  0  0  0
   34.8350   29.1750   32.0250 H   0  0  0  0  0  0  0  0  0  0  0  0
   35.1250   24.8310   31.3040 O   0  0  0  0  0  0  0  0  0  0  0  0
   34.6310   25.2080   30.5460 H   0  0  0  0  0  0  0  0  0  0  0  0
   36.5900   22.1310   30.9170 O   0  0  0  0  0  0  0  0  0  0  0  0
   34.7350   19.5700   30.8550 H   0  0  0  0  0  0  0  0  0  0  0  0
   35.6700   20.0060   31.0740 N   0  0  0  0  0  0  0  0  0  0  0  0
   36.2960   19.3170   32.1850 C   0  0  0  0  0  2  0  0  0  0  0  0
   35.5620   19.9510   33.3650 C   0  0  0  0  0  2  0  0  0  0  0  0
   35.7510   21.4270   32.9880 C   0  0  0  0  0  2  0  0  0  0  0  0
   35.5750   21.3800   31.4710 C   0  0  1  0  0  3  0  0  0  0  0  0
  1  6  1  6  0  0  0
  1 20  1  0  0  0  0
  1  2  1  0  0  0  0
  1  5  1  0  0  0  0
  2  7  1  6  0  0  0
  2  3  1  0  0  0  0
  2 13  1  0  0  0  0
  4  3  1  0  0  0  0
  4  9  1  0  0  0  0
  5  4  1  0  0  0  0
  5 10  1  1  0  0  0
  8  4  1  0  0  0  0
 11 17  1  0  0  0  0
 12 18  1  0  0  0  0
 12 11  2  0  0  0  0
 13 12  1  0  0  0  0
 14 13  2  0  0  0  0
 14 15  1  0  0  0  0
 15 16  2  0  0  0  0
 16 11  1  0  0  0  0
 19 15  1  0  0  0  0
 21 20  1  0  0  0  0
 22  5  1  0  0  0  0
 23 24  1  0  0  0  0
 24 28  1  0  0  0  0
 24 25  1  0  0  0  0
 25 26  1  0  0  0  0
 27 26  1  0  0  0  0
 28 22  1  6  0  0  0
 28 27  1  0  0  0  0
M  END
>  <minimizedAffinity>
-4.22974777

$$$$

 OpenBabel03262521303D

 28 30  0  0  1  0  0  0  0  0999 V2000
   39.5060   24.8620   33.8390 C   0  0  1  0  0  0  0  0  0  0  0  0
   38.9590   23.5650   34.3640 C   0  0  2  0  0  0  0  0  0  0  0  0
   37.7010   23.3700   33.8330 O   0  0  0  0  0  0  0  0  0  0  0  0
   37.6390   24.1250   32.6600 C   0  0  0  0  0  0  0  0  0  0  0  0
   38.3220   25.4100   33.0980 C   0  0  2  0  0  0  0  0  0  0  0  0
   40.2980   24.6850   33.0540 H   0  0  0  0  0  0  0  0  0  0  0  0
   39.6200   22.7500   34.0060 H   0  0  0  0  0  0  0  0  0  0  0  0
   38.1330   23.6390   31.8080 H   0  0  0  0  0  0  0  0  0  0  0  0
   36.5580   24.3390   32.4690 H   0  0  0  0  0  0  0  0  0  0  0  0
   37.6190   25.9490   33.7590 H   0  0  0  0  0  0  0  0  0  0  0  0
   37.9180   23.7350   37.9960 C   0  0  0  0  0  0  0  0  0  0  0  0
   37.8360   23.8760   36.5870 C   0  0  0  0  0  0  0  0  0  0  0  0
   38.9350   23.4550   35.8380 C   0  0  0  0  0  0  0  0  0  0  0  0
   40.0350   22.9280   36.4850 N   0  0  0  0  0  0  0  0  0  0  0  0
   40.0660   22.8140   37.8300 C   0  0  0  0  0  0  0  0  0  0  0  0
   39.0190   23.2130   38.5750 N   0  0  0  0  0  0  0  0  0  0  0  0
   37.0800   24.0540   38.5950 H   0  0  0  0  0  0  0  0  0  0  0  0
   36.9750   24.2850   36.1200 H   0  0  0  0  0  0  0  0  0  0  0  0
   40.9630   22.3940   38.2460 H   0  0  0  0  0  0  0  0  0  0  0  0
   40.0490   25.6860   34.7680 O   0  0  0  0  0  0  0  0  0  0  0  0
   41.0290   25.6610   34.7970 H   0  0  0  0  0  0  0  0  0  0  0  0
   38.6670   26.2210   32.0500 O   0  0  0  0  0  0  0  0  0  0  0  0
   38.0740   29.0600   30.7880 H   0  0  0  0  0  0  0  0  0  0  0  0
   37.7580   28.0740   30.9880 N   0  0  0  0  0  0  0  0  0  0  0  0
   36.3180   28.0330   31.1480 C   0  0  0  0  0  2  0  0  0  0  0  0
   36.1760   28.5250   32.5880 C   0  0  0  0  0  2  0  0  0  0  0  0
   37.1910   27.5860   33.2530 C   0  0  0  0  0  2  0  0  0  0  0  0
   38.3000   27.5410   32.2030 C   0  0  1  0  0  3  0  0  0  0  0  0
  1  6  1  6  0  0  0
  1  2  1  0  0  0  0
  1 20  1  0  0  0  0
  2  7  1  6  0  0  0
  2 13  1  0  0  0  0
  3  2  1  0  0  0  0
  4  5  1  0  0  0  0
  4  3  1  0  0  0  0
  5 10  1  1  0  0  0
  5  1  1  0  0  0  0
  8  4  1  0  0  0  0
  9  4  1  0  0  0  0
 11 16  1  0  0  0  0
 11 17  1  0  0  0  0
 12 11  2  0  0  0  0
 13 14  2  0  0  0  0
 13 12  1  0  0  0  0
 14 15  1  0  0  0  0
 15 19  1  0  0  0  0
 15 16  2  0  0  0  0
 18 12  1  0  0  0  0
 20 21  1  0  0  0  0
 22  5  1  0  0  0  0
 23 24  1  0  0  0  0
 24 25  1  0  0  0  0
 24 28  1  0  0  0  0
 25 26  1  0  0  0  0
 26 27  1  0  0  0  0
 28 22  1  6  0  0  0
 28 27  1  0  0  0  0
M  END
>  <minimizedAffinity>
-4.2103405

$$$$
