
 OpenBabel03272509293D

 35 37  0  0  1  0  0  0  0  0999 V2000
   36.4000   30.7320   48.9130 C   0  0  2  0  0  0  0  0  0  0  0  0
   37.3180   31.4780   49.8280 C   0  0  0  0  0  0  0  0  0  0  0  0
   38.0190   30.5820   50.8250 C   0  0  0  0  0  0  0  0  0  0  0  0
   37.0110   29.7800   51.6400 C   0  0  0  0  0  0  0  0  0  0  0  0
   35.7940   29.3520   50.8610 C   0  0  0  0  0  0  0  0  0  0  0  0
   36.1710   29.3270   49.3680 C   0  0  1  0  0  0  0  0  0  0  0  0
   35.3710   31.2040   48.8200 H   0  0  0  0  0  0  0  0  0  0  0  0
   36.6200   32.1080   50.4790 H   0  0  0  0  0  0  0  0  0  0  0  0
   37.9880   32.1880   49.3840 H   0  0  0  0  0  0  0  0  0  0  0  0
   38.5540   31.2410   51.5320 H   0  0  0  0  0  0  0  0  0  0  0  0
   38.7140   29.8710   50.3740 H   0  0  0  0  0  0  0  0  0  0  0  0
   36.7130   30.3380   52.5600 H   0  0  0  0  0  0  0  0  0  0  0  0
   37.4960   28.8460   51.9950 H   0  0  0  0  0  0  0  0  0  0  0  0
   35.4960   28.3040   51.1050 H   0  0  0  0  0  0  0  0  0  0  0  0
   34.9120   29.9820   51.0360 H   0  0  0  0  0  0  0  0  0  0  0  0
   37.0810   28.7810   49.4100 H   0  0  0  0  0  0  0  0  0  0  0  0
   33.9370   28.2700   48.7930 C   0  0  0  0  0  0  0  0  0  0  0  0
   33.1190   28.7050   49.6590 O   0  0  0  0  0  0  0  0  0  0  0  0
   35.3040   28.5650   48.5460 N   0  0  0  0  0  0  0  0  0  0  0  0
   35.6650   28.1470   47.6280 H   0  0  0  0  0  0  0  0  0  0  0  0
   33.2810   27.3140   47.9530 N   0  0  0  0  0  0  0  0  0  0  0  0
   33.7100   26.5170   46.8300 C   0  0  0  0  0  2  0  0  0  0  0  0
   33.2920   25.0900   47.0800 C   0  0  0  0  0  2  0  0  0  0  0  0
   32.0380   25.2920   47.8990 C   0  0  0  0  0  2  0  0  0  0  0  0
   31.9380   26.7820   47.9110 C   0  0  0  0  0  3  0  0  0  0  0  0
   31.4050   27.1830   48.7960 H   0  0  0  0  0  0  0  0  0  0  0  0
   36.9280   30.7040   47.5250 C   0  0  0  0  0  0  0  0  0  0  0  0
   38.3060   30.9050   47.3970 C   0  0  0  0  0  0  0  0  0  0  0  0
   38.8380   30.8800   46.1030 C   0  0  0  0  0  0  0  0  0  0  0  0
   37.9820   30.6600   45.0460 N   0  0  0  0  0  0  0  0  0  0  0  0
   36.6390   30.4670   45.2230 C   0  0  0  0  0  0  0  0  0  0  0  0
   36.1340   30.4930   46.4670 N   0  0  0  0  0  0  0  0  0  0  0  0
   39.0880   31.0750   48.1110 H   0  0  0  0  0  0  0  0  0  0  0  0
   39.8680   31.0180   45.8410 H   0  0  0  0  0  0  0  0  0  0  0  0
   36.0940   30.3080   44.3210 H   0  0  0  0  0  0  0  0  0  0  0  0
  1  7  1  6  0  0  0
  1  6  1  0  0  0  0
  1  2  1  0  0  0  0
  2  8  1  0  0  0  0
  2  3  1  0  0  0  0
  3 10  1  0  0  0  0
  3  4  1  0  0  0  0
  4 13  1  0  0  0  0
  4 12  1  0  0  0  0
  5 15  1  0  0  0  0
  5 14  1  0  0  0  0
  5  4  1  0  0  0  0
  6 16  1  6  0  0  0
  6  5  1  0  0  0  0
  9  2  1  0  0  0  0
 11  3  1  0  0  0  0
 17 18  2  0  0  0  0
 19 17  1  0  0  0  0
 19  6  1  0  0  0  0
 20 19  1  0  0  0  0
 21 17  1  0  0  0  0
 22 23  1  0  0  0  0
 22 21  1  0  0  0  0
 23 24  1  0  0  0  0
 24 25  1  0  0  0  0
 25 21  1  0  0  0  0
 25 26  1  0  0  0  0
 27  1  1  0  0  0  0
 28 27  1  0  0  0  0
 28 33  1  0  0  0  0
 29 28  2  0  0  0  0
 30 31  2  0  0  0  0
 30 29  1  0  0  0  0
 31 32  1  0  0  0  0
 32 27  2  0  0  0  0
 34 29  1  0  0  0  0
 35 31  1  0  0  0  0
M  END
>  <minimizedAffinity>
-6.09137106

>  <minimizedRMSD>
0.84011358

$$$$
