
 OpenBabel03272506363D

 20 21  0  0  1  0  0  0  0  0999 V2000
   37.4200   30.4360   47.4270 C   0  0  0  0  0  0  0  0  0  0  0  0
   38.7390   30.4110   46.9360 C   0  0  0  0  0  0  0  0  0  0  0  0
   38.9430   30.4800   45.5600 C   0  0  0  0  0  0  0  0  0  0  0  0
   37.8380   30.5690   44.7470 N   0  0  0  0  0  0  0  0  0  0  0  0
   36.5790   30.5900   45.2570 C   0  0  0  0  0  0  0  0  0  0  0  0
   36.3740   30.5230   46.5850 N   0  0  0  0  0  0  0  0  0  0  0  0
   34.5710   29.5410   44.5200 C   0  0  0  0  0  0  0  0  0  0  0  0
   34.6850   28.5320   45.2860 O   0  0  0  0  0  0  0  0  0  0  0  0
   35.4500   30.6830   44.3800 N   0  0  0  0  0  0  0  0  0  0  0  0
   39.6190   30.3430   47.5330 H   0  0  0  0  0  0  0  0  0  0  0  0
   39.9040   30.4680   45.1070 H   0  0  0  0  0  0  0  0  0  0  0  0
   33.6600   29.4190   43.9460 H   0  0  0  0  0  0  0  0  0  0  0  0
   35.1710   31.3970   43.6940 H   0  0  0  0  0  0  0  0  0  0  0  0
   37.3780   30.3610   48.7970 O   0  0  0  0  0  0  0  0  0  0  0  0
   35.9450   27.7710   49.7180 H   0  0  0  0  0  0  0  0  0  0  0  0
   36.7630   28.3960   49.7960 N   0  0  0  0  0  0  0  0  0  0  0  0
   37.5040   28.3180   51.0150 C   0  0  0  0  0  2  0  0  0  0  0  0
   37.7670   29.7420   51.4740 C   0  0  0  0  0  2  0  0  0  0  0  0
   36.4730   30.4000   50.9750 C   0  0  0  0  0  2  0  0  0  0  0  0
   36.3860   29.7930   49.5890 C   0  0  1  0  0  3  0  0  0  0  0  0
  1 14  1  0  0  0  0
  2  1  1  0  0  0  0
  2 10  1  0  0  0  0
  3  2  2  0  0  0  0
  4  5  2  0  0  0  0
  4  3  1  0  0  0  0
  5  6  1  0  0  0  0
  6  1  2  0  0  0  0
  7  8  2  0  0  0  0
  9  7  1  0  0  0  0
  9  5  1  0  0  0  0
 11  3  1  0  0  0  0
 12  7  1  0  0  0  0
 13  9  1  0  0  0  0
 15 16  1  0  0  0  0
 16 17  1  0  0  0  0
 17 18  1  0  0  0  0
 19 18  1  0  0  0  0
 20 14  1  6  0  0  0
 20 16  1  0  0  0  0
 20 19  1  0  0  0  0
M  END
>  <minimizedAffinity>
-2.26656365

>  <minimizedRMSD>
4.07130527

$$$$
