
 OpenBabel03272508523D

 26 28  0  0  1  0  0  0  0  0999 V2000
   36.7320   27.4460   33.3950 C   0  0  2  0  0  0  0  0  0  0  0  0
   36.3810   28.3410   34.4890 C   0  0  0  0  0  0  0  0  0  0  0  0
   37.6540   27.4680   34.5200 C   0  0  1  0  0  0  0  0  0  0  0  0
   36.1690   26.4570   33.2980 H   0  0  0  0  0  0  0  0  0  0  0  0
   35.6360   28.0350   35.2310 H   0  0  0  0  0  0  0  0  0  0  0  0
   36.5340   29.4340   34.3700 H   0  0  0  0  0  0  0  0  0  0  0  0
   38.5510   28.0970   34.5890 H   0  0  0  0  0  0  0  0  0  0  0  0
   38.7340   25.5110   35.5690 C   0  0  0  0  0  0  0  0  0  0  0  0
   39.7930   25.7770   34.9480 O   0  0  0  0  0  0  0  0  0  0  0  0
   37.5650   26.3470   35.4610 N   0  0  0  0  0  0  0  0  0  0  0  0
   36.6980   26.2080   35.9930 H   0  0  0  0  0  0  0  0  0  0  0  0
   38.5730   24.3780   36.4300 N   0  0  0  0  0  0  0  0  0  0  0  0
   37.7870   24.0880   37.6140 C   0  0  0  0  0  2  0  0  0  0  0  0
   38.6720   23.4040   38.6070 C   0  0  0  0  0  2  0  0  0  0  0  0
   39.7910   22.8590   37.7430 C   0  0  0  0  0  2  0  0  0  0  0  0
   39.2130   23.0760   36.3510 C   0  0  0  0  0  3  0  0  0  0  0  0
   38.5430   22.2660   36.0240 H   0  0  0  0  0  0  0  0  0  0  0  0
   38.7920   27.9780   30.3710 C   0  0  0  0  0  0  0  0  0  0  0  0
   37.9990   28.8890   29.6210 C   0  0  0  0  0  0  0  0  0  0  0  0
   36.7480   29.3060   30.1920 C   0  0  0  0  0  0  0  0  0  0  0  0
   36.3870   28.8190   31.3960 N   0  0  0  0  0  0  0  0  0  0  0  0
   37.1910   27.9470   32.0640 C   0  0  0  0  0  0  0  0  0  0  0  0
   38.3870   27.5140   31.5780 N   0  0  0  0  0  0  0  0  0  0  0  0
   39.7330   27.6410   29.9840 H   0  0  0  0  0  0  0  0  0  0  0  0
   38.3290   29.2490   28.6670 H   0  0  0  0  0  0  0  0  0  0  0  0
   36.1330   29.9980   29.6360 H   0  0  0  0  0  0  0  0  0  0  0  0
  1  4  1  6  0  0  0
  1  2  1  0  0  0  0
  1  3  1  0  0  0  0
  2  3  1  0  0  0  0
  2  5  1  0  0  0  0
  3  7  1  6  0  0  0
  3 10  1  0  0  0  0
  6  2  1  0  0  0  0
  8 12  1  0  0  0  0
  9  8  2  0  0  0  0
 10  8  1  0  0  0  0
 10 11  1  0  0  0  0
 12 13  1  0  0  0  0
 13 14  1  0  0  0  0
 15 14  1  0  0  0  0
 16 12  1  0  0  0  0
 16 15  1  0  0  0  0
 17 16  1  0  0  0  0
 18 23  1  0  0  0  0
 19 20  1  0  0  0  0
 19 18  2  0  0  0  0
 20 21  2  0  0  0  0
 21 22  1  0  0  0  0
 22  1  1  0  0  0  0
 23 22  2  0  0  0  0
 24 18  1  0  0  0  0
 25 19  1  0  0  0  0
 26 20  1  0  0  0  0
M  END
>  <minimizedAffinity>
-4.7869463

$$$$

 OpenBabel03272508523D

 26 28  0  0  1  0  0  0  0  0999 V2000
   36.8770   27.2550   33.1810 C   0  0  2  0  0  0  0  0  0  0  0  0
   36.4530   28.1810   34.2230 C   0  0  0  0  0  0  0  0  0  0  0  0
   37.7400   27.3380   34.3490 C   0  0  1  0  0  0  0  0  0  0  0  0
   36.3380   26.2510   33.0940 H   0  0  0  0  0  0  0  0  0  0  0  0
   35.6780   27.8870   34.9370 H   0  0  0  0  0  0  0  0  0  0  0  0
   36.5900   29.2720   34.0700 H   0  0  0  0  0  0  0  0  0  0  0  0
   38.6190   27.9880   34.4400 H   0  0  0  0  0  0  0  0  0  0  0  0
   38.7920   25.4210   35.4960 C   0  0  0  0  0  0  0  0  0  0  0  0
   39.8670   25.6680   34.8970 O   0  0  0  0  0  0  0  0  0  0  0  0
   37.6250   26.2510   35.3270 N   0  0  0  0  0  0  0  0  0  0  0  0
   36.7440   26.1280   35.8380 H   0  0  0  0  0  0  0  0  0  0  0  0
   38.6080   24.3180   36.3910 N   0  0  0  0  0  0  0  0  0  0  0  0
   37.7890   24.0680   37.5630 C   0  0  0  0  0  2  0  0  0  0  0  0
   38.6460   23.4210   38.6040 C   0  0  0  0  0  2  0  0  0  0  0  0
   39.7890   22.8490   37.7910 C   0  0  0  0  0  2  0  0  0  0  0  0
   39.2510   23.0150   36.3770 C   0  0  0  0  0  3  0  0  0  0  0  0
   38.5920   22.1940   36.0590 H   0  0  0  0  0  0  0  0  0  0  0  0
   37.0070   28.7210   29.7890 C   0  0  0  0  0  0  0  0  0  0  0  0
   38.3730   28.5470   29.4370 C   0  0  0  0  0  0  0  0  0  0  0  0
   39.2320   27.9140   30.4000 C   0  0  0  0  0  0  0  0  0  0  0  0
   38.7100   27.5200   31.5790 N   0  0  0  0  0  0  0  0  0  0  0  0
   37.3920   27.7170   31.8570 C   0  0  0  0  0  0  0  0  0  0  0  0
   36.5260   28.3090   30.9880 N   0  0  0  0  0  0  0  0  0  0  0  0
   36.3300   29.1870   29.1010 H   0  0  0  0  0  0  0  0  0  0  0  0
   38.7420   28.8770   28.4860 H   0  0  0  0  0  0  0  0  0  0  0  0
   40.2720   27.7730   30.1480 H   0  0  0  0  0  0  0  0  0  0  0  0
  1  4  1  6  0  0  0
  1  2  1  0  0  0  0
  1  3  1  0  0  0  0
  2  3  1  0  0  0  0
  2  5  1  0  0  0  0
  3  7  1  6  0  0  0
  3 10  1  0  0  0  0
  6  2  1  0  0  0  0
  8 12  1  0  0  0  0
  9  8  2  0  0  0  0
 10  8  1  0  0  0  0
 10 11  1  0  0  0  0
 12 13  1  0  0  0  0
 13 14  1  0  0  0  0
 15 14  1  0  0  0  0
 16 12  1  0  0  0  0
 16 15  1  0  0  0  0
 17 16  1  0  0  0  0
 18 23  1  0  0  0  0
 19 18  2  0  0  0  0
 19 20  1  0  0  0  0
 20 21  2  0  0  0  0
 21 22  1  0  0  0  0
 22  1  1  0  0  0  0
 23 22  2  0  0  0  0
 24 18  1  0  0  0  0
 25 19  1  0  0  0  0
 26 20  1  0  0  0  0
M  END
>  <minimizedAffinity>
-4.76053524

$$$$

 OpenBabel03272508523D

 26 28  0  0  1  0  0  0  0  0999 V2000
   38.2880   24.1120   34.4940 C   0  0  2  0  0  0  0  0  0  0  0  0
   39.2850   23.7920   33.4820 C   0  0  0  0  0  0  0  0  0  0  0  0
   38.9490   25.2480   33.8710 C   0  0  1  0  0  0  0  0  0  0  0  0
   37.1820   24.0300   34.2150 H   0  0  0  0  0  0  0  0  0  0  0  0
   38.9730   23.5390   32.4640 H   0  0  0  0  0  0  0  0  0  0  0  0
   40.2800   23.4140   33.7980 H   0  0  0  0  0  0  0  0  0  0  0  0
   39.8370   25.7560   34.2660 H   0  0  0  0  0  0  0  0  0  0  0  0
   37.4710   27.1330   33.2720 C   0  0  0  0  0  0  0  0  0  0  0  0
   37.5560   27.5590   34.4500 O   0  0  0  0  0  0  0  0  0  0  0  0
   38.1900   25.9610   32.8380 N   0  0  0  0  0  0  0  0  0  0  0  0
   38.2020   25.6090   31.8750 H   0  0  0  0  0  0  0  0  0  0  0  0
   36.6720   27.7470   32.2540 N   0  0  0  0  0  0  0  0  0  0  0  0
   36.7550   27.8640   30.8100 C   0  0  0  0  0  2  0  0  0  0  0  0
   36.4570   29.2810   30.4370 C   0  0  0  0  0  2  0  0  0  0  0  0
   35.6990   29.7950   31.6440 C   0  0  0  0  0  2  0  0  0  0  0  0
   35.4350   28.4960   32.3940 C   0  0  0  0  0  3  0  0  0  0  0  0
   34.5430   27.9590   32.0410 H   0  0  0  0  0  0  0  0  0  0  0  0
   37.8500   24.1440   38.1660 C   0  0  0  0  0  0  0  0  0  0  0  0
   38.9380   23.3420   38.6070 C   0  0  0  0  0  0  0  0  0  0  0  0
   39.8130   22.8010   37.6040 C   0  0  0  0  0  0  0  0  0  0  0  0
   39.5660   23.0730   36.3070 N   0  0  0  0  0  0  0  0  0  0  0  0
   38.5050   23.8470   35.9490 C   0  0  0  0  0  0  0  0  0  0  0  0
   37.6400   24.3900   36.8490 N   0  0  0  0  0  0  0  0  0  0  0  0
   37.1720   24.5690   38.8790 H   0  0  0  0  0  0  0  0  0  0  0  0
   39.0940   23.1530   39.6510 H   0  0  0  0  0  0  0  0  0  0  0  0
   40.6450   22.1900   37.9220 H   0  0  0  0  0  0  0  0  0  0  0  0
  1  4  1  6  0  0  0
  1 22  1  0  0  0  0
  2  6  1  0  0  0  0
  2  3  1  0  0  0  0
  2  1  1  0  0  0  0
  3  7  1  1  0  0  0
  3  1  1  0  0  0  0
  5  2  1  0  0  0  0
  8  9  2  0  0  0  0
 10  8  1  0  0  0  0
 10  3  1  0  0  0  0
 11 10  1  0  0  0  0
 12 16  1  0  0  0  0
 12  8  1  0  0  0  0
 13 12  1  0  0  0  0
 14 13  1  0  0  0  0
 14 15  1  0  0  0  0
 15 16  1  0  0  0  0
 17 16  1  0  0  0  0
 18 19  1  0  0  0  0
 18 24  1  0  0  0  0
 19 25  1  0  0  0  0
 20 26  1  0  0  0  0
 20 19  2  0  0  0  0
 21 20  1  0  0  0  0
 22 21  2  0  0  0  0
 22 23  1  0  0  0  0
 23 18  2  0  0  0  0
M  END
>  <minimizedAffinity>
-4.53703403

$$$$

 OpenBabel03272508523D

 26 28  0  0  1  0  0  0  0  0999 V2000
   37.4360   26.9490   34.5650 C   0  0  2  0  0  0  0  0  0  0  0  0
   38.1720   27.5230   35.6820 C   0  0  0  0  0  0  0  0  0  0  0  0
   38.8210   26.5250   34.6990 C   0  0  1  0  0  0  0  0  0  0  0  0
   36.6890   26.1100   34.7780 H   0  0  0  0  0  0  0  0  0  0  0  0
   38.0510   27.1120   36.6890 H   0  0  0  0  0  0  0  0  0  0  0  0
   38.5220   28.5750   35.6210 H   0  0  0  0  0  0  0  0  0  0  0  0
   39.6750   26.9870   34.1880 H   0  0  0  0  0  0  0  0  0  0  0  0
   40.3830   24.6720   35.1720 C   0  0  0  0  0  0  0  0  0  0  0  0
   41.3160   25.3460   34.6690 O   0  0  0  0  0  0  0  0  0  0  0  0
   39.0460   25.2000   35.2850 N   0  0  0  0  0  0  0  0  0  0  0  0
   38.2660   24.7150   35.7410 H   0  0  0  0  0  0  0  0  0  0  0  0
   40.5370   23.3410   35.6760 N   0  0  0  0  0  0  0  0  0  0  0  0
   39.9050   22.5540   36.7170 C   0  0  0  0  0  2  0  0  0  0  0  0
   40.9760   21.8540   37.4920 C   0  0  0  0  0  2  0  0  0  0  0  0
   42.1450   21.8560   36.5270 C   0  0  0  0  0  2  0  0  0  0  0  0
   41.4600   22.3040   35.2440 C   0  0  0  0  0  3  0  0  0  0  0  0
   40.9830   21.4820   34.6910 H   0  0  0  0  0  0  0  0  0  0  0  0
   35.5560   29.2520   32.3660 C   0  0  0  0  0  0  0  0  0  0  0  0
   36.3140   29.2090   31.1640 C   0  0  0  0  0  0  0  0  0  0  0  0
   37.4790   28.3670   31.1430 C   0  0  0  0  0  0  0  0  0  0  0  0
   37.7960   27.6670   32.2510 N   0  0  0  0  0  0  0  0  0  0  0  0
   37.0300   27.7520   33.3720 C   0  0  0  0  0  0  0  0  0  0  0  0
   35.9150   28.5300   33.4560 N   0  0  0  0  0  0  0  0  0  0  0  0
   34.6790   29.8650   32.4260 H   0  0  0  0  0  0  0  0  0  0  0  0
   36.0210   29.7840   30.3080 H   0  0  0  0  0  0  0  0  0  0  0  0
   38.0660   28.3220   30.2390 H   0  0  0  0  0  0  0  0  0  0  0  0
  1  3  1  0  0  0  0
  1  4  1  1  0  0  0
  1  2  1  0  0  0  0
  2  5  1  0  0  0  0
  3  7  1  6  0  0  0
  3 10  1  0  0  0  0
  3  2  1  0  0  0  0
  6  2  1  0  0  0  0
  8 10  1  0  0  0  0
  8 12  1  0  0  0  0
  9  8  2  0  0  0  0
 10 11  1  0  0  0  0
 12 13  1  0  0  0  0
 13 14  1  0  0  0  0
 15 14  1  0  0  0  0
 16 12  1  0  0  0  0
 16 15  1  0  0  0  0
 17 16  1  0  0  0  0
 18 24  1  0  0  0  0
 18 23  1  0  0  0  0
 19 18  2  0  0  0  0
 20 19  1  0  0  0  0
 20 21  2  0  0  0  0
 21 22  1  0  0  0  0
 22 23  2  0  0  0  0
 22  1  1  0  0  0  0
 25 19  1  0  0  0  0
 26 20  1  0  0  0  0
M  END
>  <minimizedAffinity>
-4.46451473

$$$$

 OpenBabel03272508523D

 26 28  0  0  1  0  0  0  0  0999 V2000
   39.9300   25.3800   34.6420 C   0  0  2  0  0  0  0  0  0  0  0  0
   40.3090   26.7580   34.9190 C   0  0  0  0  0  0  0  0  0  0  0  0
   38.8330   26.3200   34.8070 C   0  0  1  0  0  0  0  0  0  0  0  0
   40.0290   24.9920   33.5710 H   0  0  0  0  0  0  0  0  0  0  0  0
   40.6230   27.4160   34.1030 H   0  0  0  0  0  0  0  0  0  0  0  0
   40.6680   27.0310   35.9340 H   0  0  0  0  0  0  0  0  0  0  0  0
   38.3020   26.5120   35.7470 H   0  0  0  0  0  0  0  0  0  0  0  0
   37.1490   27.7810   33.7450 C   0  0  0  0  0  0  0  0  0  0  0  0
   36.8800   28.2690   34.8700 O   0  0  0  0  0  0  0  0  0  0  0  0
   38.1830   26.7900   33.5790 N   0  0  0  0  0  0  0  0  0  0  0  0
   38.4810   26.4050   32.6760 H   0  0  0  0  0  0  0  0  0  0  0  0
   36.4800   28.1450   32.5320 N   0  0  0  0  0  0  0  0  0  0  0  0
   36.8490   28.2110   31.1310 C   0  0  0  0  0  2  0  0  0  0  0  0
   36.3400   29.5010   30.5730 C   0  0  0  0  0  2  0  0  0  0  0  0
   35.2430   29.8800   31.5460 C   0  0  0  0  0  2  0  0  0  0  0  0
   35.1090   28.5920   32.3470 C   0  0  0  0  0  3  0  0  0  0  0  0
   34.4540   27.8470   31.8730 H   0  0  0  0  0  0  0  0  0  0  0  0
   41.4440   22.6230   36.5870 C   0  0  0  0  0  0  0  0  0  0  0  0
   40.3940   22.2710   37.4790 C   0  0  0  0  0  0  0  0  0  0  0  0
   39.1650   23.0090   37.3840 C   0  0  0  0  0  0  0  0  0  0  0  0
   39.0650   23.9910   36.4640 N   0  0  0  0  0  0  0  0  0  0  0  0
   40.1080   24.2810   35.6390 C   0  0  0  0  0  0  0  0  0  0  0  0
   41.2970   23.6190   35.6790 N   0  0  0  0  0  0  0  0  0  0  0  0
   42.3770   22.0980   36.6230 H   0  0  0  0  0  0  0  0  0  0  0  0
   40.5210   21.4820   38.1940 H   0  0  0  0  0  0  0  0  0  0  0  0
   38.3570   22.7540   38.0530 H   0  0  0  0  0  0  0  0  0  0  0  0
  1  4  1  6  0  0  0
  1  3  1  0  0  0  0
  1  2  1  0  0  0  0
  1 22  1  0  0  0  0
  2  6  1  0  0  0  0
  3  2  1  0  0  0  0
  3  7  1  1  0  0  0
  5  2  1  0  0  0  0
  8  9  2  0  0  0  0
 10  8  1  0  0  0  0
 10  3  1  0  0  0  0
 11 10  1  0  0  0  0
 12  8  1  0  0  0  0
 13 12  1  0  0  0  0
 14 13  1  0  0  0  0
 14 15  1  0  0  0  0
 15 16  1  0  0  0  0
 16 12  1  0  0  0  0
 17 16  1  0  0  0  0
 18 24  1  0  0  0  0
 18 19  1  0  0  0  0
 19 25  1  0  0  0  0
 20 19  2  0  0  0  0
 20 26  1  0  0  0  0
 21 20  1  0  0  0  0
 22 23  1  0  0  0  0
 22 21  2  0  0  0  0
 23 18  2  0  0  0  0
M  END
>  <minimizedAffinity>
-4.32742023

$$$$

 OpenBabel03272508523D

 26 28  0  0  1  0  0  0  0  0999 V2000
   36.9380   23.7460   30.7840 C   0  0  2  0  0  0  0  0  0  0  0  0
   38.2640   23.8110   30.1850 C   0  0  0  0  0  0  0  0  0  0  0  0
   37.7660   24.8700   31.1920 C   0  0  1  0  0  0  0  0  0  0  0  0
   36.0390   24.0600   30.1510 H   0  0  0  0  0  0  0  0  0  0  0  0
   38.3910   24.2100   29.1740 H   0  0  0  0  0  0  0  0  0  0  0  0
   39.0580   23.1230   30.5440 H   0  0  0  0  0  0  0  0  0  0  0  0
   38.4090   24.8900   32.0800 H   0  0  0  0  0  0  0  0  0  0  0  0
   37.0690   27.2230   31.4640 C   0  0  0  0  0  0  0  0  0  0  0  0
   37.0570   27.0630   32.7090 O   0  0  0  0  0  0  0  0  0  0  0  0
   37.4670   26.1640   30.5700 N   0  0  0  0  0  0  0  0  0  0  0  0
   37.5510   26.2620   29.5520 H   0  0  0  0  0  0  0  0  0  0  0  0
   36.7000   28.4410   30.8080 N   0  0  0  0  0  0  0  0  0  0  0  0
   37.0830   29.1060   29.5770 C   0  0  0  0  0  2  0  0  0  0  0  0
   37.3050   30.5550   29.8760 C   0  0  0  0  0  2  0  0  0  0  0  0
   36.5260   30.7570   31.1590 C   0  0  0  0  0  2  0  0  0  0  0  0
   35.7460   29.4520   31.2330 C   0  0  0  0  0  3  0  0  0  0  0  0
   34.8150   29.4640   30.6470 H   0  0  0  0  0  0  0  0  0  0  0  0
   35.1010   21.0420   32.5110 C   0  0  0  0  0  0  0  0  0  0  0  0
   35.9010   20.8220   33.6650 C   0  0  0  0  0  0  0  0  0  0  0  0
   37.0790   21.6300   33.8210 C   0  0  0  0  0  0  0  0  0  0  0  0
   37.3680   22.5490   32.8760 N   0  0  0  0  0  0  0  0  0  0  0  0
   36.5610   22.7100   31.7920 C   0  0  0  0  0  0  0  0  0  0  0  0
   35.4320   21.9770   31.5870 N   0  0  0  0  0  0  0  0  0  0  0  0
   34.2130   20.4620   32.3560 H   0  0  0  0  0  0  0  0  0  0  0  0
   35.6300   20.0790   34.3900 H   0  0  0  0  0  0  0  0  0  0  0  0
   37.6980   21.4770   34.6910 H   0  0  0  0  0  0  0  0  0  0  0  0
  1  4  1  6  0  0  0
  1  3  1  0  0  0  0
  1 22  1  0  0  0  0
  2  6  1  0  0  0  0
  2  1  1  0  0  0  0
  2  3  1  0  0  0  0
  3  7  1  1  0  0  0
  5  2  1  0  0  0  0
  8  9  2  0  0  0  0
 10  3  1  0  0  0  0
 10  8  1  0  0  0  0
 11 10  1  0  0  0  0
 12 16  1  0  0  0  0
 12  8  1  0  0  0  0
 13 14  1  0  0  0  0
 13 12  1  0  0  0  0
 14 15  1  0  0  0  0
 15 16  1  0  0  0  0
 17 16  1  0  0  0  0
 18 19  1  0  0  0  0
 19 20  2  0  0  0  0
 19 25  1  0  0  0  0
 20 26  1  0  0  0  0
 21 20  1  0  0  0  0
 22 21  2  0  0  0  0
 23 22  1  0  0  0  0
 23 18  2  0  0  0  0
 24 18  1  0  0  0  0
M  END
>  <minimizedAffinity>
-4.27812767

$$$$

 OpenBabel03272508523D

 26 28  0  0  1  0  0  0  0  0999 V2000
   37.2530   27.3080   33.2570 C   0  0  2  0  0  0  0  0  0  0  0  0
   38.0980   27.0860   34.4220 C   0  0  0  0  0  0  0  0  0  0  0  0
   36.6710   27.6610   34.5420 C   0  0  1  0  0  0  0  0  0  0  0  0
   37.4630   28.2170   32.5970 H   0  0  0  0  0  0  0  0  0  0  0  0
   38.8740   27.8130   34.6840 H   0  0  0  0  0  0  0  0  0  0  0  0
   38.2480   26.0520   34.7980 H   0  0  0  0  0  0  0  0  0  0  0  0
   36.0400   27.0010   35.1520 H   0  0  0  0  0  0  0  0  0  0  0  0
   35.4360   29.7990   34.5590 C   0  0  0  0  0  0  0  0  0  0  0  0
   34.4330   29.2100   34.0870 O   0  0  0  0  0  0  0  0  0  0  0  0
   36.6470   29.0870   34.8810 N   0  0  0  0  0  0  0  0  0  0  0  0
   37.4710   29.5100   35.3240 H   0  0  0  0  0  0  0  0  0  0  0  0
   35.4890   31.2060   34.8240 N   0  0  0  0  0  0  0  0  0  0  0  0
   36.1840   32.0490   35.7780 C   0  0  0  0  0  2  0  0  0  0  0  0
   35.2070   33.0410   36.3250 C   0  0  0  0  0  2  0  0  0  0  0  0
   34.1210   33.0610   35.2690 C   0  0  0  0  0  2  0  0  0  0  0  0
   34.7960   32.2870   34.1450 C   0  0  0  0  0  3  0  0  0  0  0  0
   35.4460   32.9100   33.5120 H   0  0  0  0  0  0  0  0  0  0  0  0
   35.1250   25.4320   30.8850 C   0  0  0  0  0  0  0  0  0  0  0  0
   35.5980   24.1000   31.0430 C   0  0  0  0  0  0  0  0  0  0  0  0
   36.6600   23.8800   31.9850 C   0  0  0  0  0  0  0  0  0  0  0  0
   37.1560   24.9330   32.6670 N   0  0  0  0  0  0  0  0  0  0  0  0
   36.6610   26.1850   32.4690 C   0  0  0  0  0  0  0  0  0  0  0  0
   35.6550   26.4600   31.5920 N   0  0  0  0  0  0  0  0  0  0  0  0
   34.3340   25.6420   30.1950 H   0  0  0  0  0  0  0  0  0  0  0  0
   35.1710   23.2950   30.4790 H   0  0  0  0  0  0  0  0  0  0  0  0
   37.0310   22.8750   32.1180 H   0  0  0  0  0  0  0  0  0  0  0  0
  1  4  1  6  0  0  0
  1  2  1  0  0  0  0
  1  3  1  0  0  0  0
  2  3  1  0  0  0  0
  2  5  1  0  0  0  0
  2  6  1  0  0  0  0
  3 10  1  0  0  0  0
  3  7  1  1  0  0  0
  8 12  1  0  0  0  0
  8 10  1  0  0  0  0
  9  8  2  0  0  0  0
 10 11  1  0  0  0  0
 12 13  1  0  0  0  0
 13 14  1  0  0  0  0
 15 14  1  0  0  0  0
 16 12  1  0  0  0  0
 16 15  1  0  0  0  0
 17 16  1  0  0  0  0
 18 19  2  0  0  0  0
 18 23  1  0  0  0  0
 19 20  1  0  0  0  0
 20 26  1  0  0  0  0
 20 21  2  0  0  0  0
 22 21  1  0  0  0  0
 22  1  1  0  0  0  0
 23 22  2  0  0  0  0
 24 18  1  0  0  0  0
 25 19  1  0  0  0  0
M  END
>  <minimizedAffinity>
-4.22744226

$$$$

 OpenBabel03272508523D

 26 28  0  0  1  0  0  0  0  0999 V2000
   38.1530   26.4650   33.3350 C   0  0  2  0  0  0  0  0  0  0  0  0
   38.0970   25.2050   32.6070 C   0  0  0  0  0  0  0  0  0  0  0  0
   38.0320   25.2650   34.1480 C   0  0  1  0  0  0  0  0  0  0  0  0
   39.1650   26.9830   33.4500 H   0  0  0  0  0  0  0  0  0  0  0  0
   39.0170   24.7440   32.2360 H   0  0  0  0  0  0  0  0  0  0  0  0
   37.1600   24.9190   32.0830 H   0  0  0  0  0  0  0  0  0  0  0  0
   37.0870   24.8410   34.5110 H   0  0  0  0  0  0  0  0  0  0  0  0
   39.1150   23.6450   35.6650 C   0  0  0  0  0  0  0  0  0  0  0  0
   38.0170   23.0480   35.7910 O   0  0  0  0  0  0  0  0  0  0  0  0
   39.2570   24.7880   34.7970 N   0  0  0  0  0  0  0  0  0  0  0  0
   40.1430   25.2720   34.6130 H   0  0  0  0  0  0  0  0  0  0  0  0
   40.3160   23.2680   36.3470 N   0  0  0  0  0  0  0  0  0  0  0  0
   41.7350   23.3520   36.0580 C   0  0  0  0  0  2  0  0  0  0  0  0
   42.3630   22.0410   36.4090 C   0  0  0  0  0  2  0  0  0  0  0  0
   41.3670   21.4380   37.3780 C   0  0  0  0  0  2  0  0  0  0  0  0
   40.4650   22.6350   37.6470 C   0  0  0  0  0  3  0  0  0  0  0  0
   40.8470   23.3050   38.4310 H   0  0  0  0  0  0  0  0  0  0  0  0
   35.6910   28.9910   34.4460 C   0  0  0  0  0  0  0  0  0  0  0  0
   34.9690   29.2560   33.2500 C   0  0  0  0  0  0  0  0  0  0  0  0
   35.3590   28.5400   32.0660 C   0  0  0  0  0  0  0  0  0  0  0  0
   36.3790   27.6610   32.1430 N   0  0  0  0  0  0  0  0  0  0  0  0
   37.0320   27.4530   33.3180 C   0  0  0  0  0  0  0  0  0  0  0  0
   36.7110   28.0990   34.4740 N   0  0  0  0  0  0  0  0  0  0  0  0
   35.4340   29.5010   35.3520 H   0  0  0  0  0  0  0  0  0  0  0  0
   34.1640   29.9640   33.2380 H   0  0  0  0  0  0  0  0  0  0  0  0
   34.8210   28.7290   31.1490 H   0  0  0  0  0  0  0  0  0  0  0  0
  1  4  1  1  0  0  0
  1  3  1  0  0  0  0
  2  1  1  0  0  0  0
  2  3  1  0  0  0  0
  3  7  1  1  0  0  0
  3 10  1  0  0  0  0
  5  2  1  0  0  0  0
  6  2  1  0  0  0  0
  8  9  2  0  0  0  0
  8 12  1  0  0  0  0
 10  8  1  0  0  0  0
 11 10  1  0  0  0  0
 12 16  1  0  0  0  0
 13 12  1  0  0  0  0
 13 14  1  0  0  0  0
 14 15  1  0  0  0  0
 15 16  1  0  0  0  0
 16 17  1  0  0  0  0
 18 23  1  0  0  0  0
 18 24  1  0  0  0  0
 19 18  2  0  0  0  0
 20 21  2  0  0  0  0
 20 19  1  0  0  0  0
 21 22  1  0  0  0  0
 22  1  1  0  0  0  0
 22 23  2  0  0  0  0
 25 19  1  0  0  0  0
 26 20  1  0  0  0  0
M  END
>  <minimizedAffinity>
-4.21286201

$$$$

 OpenBabel03272508523D

 26 28  0  0  1  0  0  0  0  0999 V2000
   38.9420   24.3240   35.3430 C   0  0  2  0  0  0  0  0  0  0  0  0
   39.0180   23.5990   36.6030 C   0  0  0  0  0  0  0  0  0  0  0  0
   39.1080   22.8830   35.2380 C   0  0  1  0  0  0  0  0  0  0  0  0
   37.9190   24.6840   34.9820 H   0  0  0  0  0  0  0  0  0  0  0  0
   38.1030   23.3550   37.1520 H   0  0  0  0  0  0  0  0  0  0  0  0
   39.9520   23.6410   37.2010 H   0  0  0  0  0  0  0  0  0  0  0  0
   40.0700   22.3640   35.1380 H   0  0  0  0  0  0  0  0  0  0  0  0
   37.6190   21.9420   33.5080 C   0  0  0  0  0  0  0  0  0  0  0  0
   38.3970   22.3710   32.6210 O   0  0  0  0  0  0  0  0  0  0  0  0
   37.9070   22.1080   34.9110 N   0  0  0  0  0  0  0  0  0  0  0  0
   37.3360   21.7240   35.6720 H   0  0  0  0  0  0  0  0  0  0  0  0
   36.3910   21.2570   33.2350 N   0  0  0  0  0  0  0  0  0  0  0  0
   35.6080   20.2380   33.9080 C   0  0  0  0  0  2  0  0  0  0  0  0
   35.1890   19.2230   32.8930 C   0  0  0  0  0  2  0  0  0  0  0  0
   35.3060   19.9820   31.5880 C   0  0  0  0  0  2  0  0  0  0  0  0
   35.5000   21.4040   32.0970 C   0  0  0  0  0  3  0  0  0  0  0  0
   34.5560   21.9190   32.3300 H   0  0  0  0  0  0  0  0  0  0  0  0
   42.3120   25.6710   34.6330 C   0  0  0  0  0  0  0  0  0  0  0  0
   42.0160   26.8990   33.9810 C   0  0  0  0  0  0  0  0  0  0  0  0
   40.6310   27.2380   33.8000 C   0  0  0  0  0  0  0  0  0  0  0  0
   39.6880   26.3860   34.2500 N   0  0  0  0  0  0  0  0  0  0  0  0
   40.0370   25.2230   34.8660 C   0  0  0  0  0  0  0  0  0  0  0  0
   41.3290   24.8450   35.0690 N   0  0  0  0  0  0  0  0  0  0  0  0
   43.3310   25.3790   34.7900 H   0  0  0  0  0  0  0  0  0  0  0  0
   42.8010   27.5440   33.6400 H   0  0  0  0  0  0  0  0  0  0  0  0
   40.3880   28.1670   33.3070 H   0  0  0  0  0  0  0  0  0  0  0  0
  1  4  1  6  0  0  0
  1  2  1  0  0  0  0
  2  5  1  0  0  0  0
  2  6  1  0  0  0  0
  3  7  1  6  0  0  0
  3  1  1  0  0  0  0
  3  2  1  0  0  0  0
  8 10  1  0  0  0  0
  9  8  2  0  0  0  0
 10  3  1  0  0  0  0
 10 11  1  0  0  0  0
 12  8  1  0  0  0  0
 12 13  1  0  0  0  0
 14 13  1  0  0  0  0
 15 16  1  0  0  0  0
 15 14  1  0  0  0  0
 16 17  1  0  0  0  0
 16 12  1  0  0  0  0
 18 24  1  0  0  0  0
 18 23  1  0  0  0  0
 19 18  2  0  0  0  0
 20 19  1  0  0  0  0
 20 21  2  0  0  0  0
 21 22  1  0  0  0  0
 22 23  2  0  0  0  0
 22  1  1  0  0  0  0
 25 19  1  0  0  0  0
 26 20  1  0  0  0  0
M  END
>  <minimizedAffinity>
-4.19862938

$$$$
