
 OpenBabel03262521433D

 27 29  0  0  1  0  0  0  0  0999 V2000
   38.8000   26.0110   34.8290 C   0  0  1  0  0  0  0  0  0  0  0  0
   38.1880   26.7040   33.6110 C   0  0  2  0  0  0  0  0  0  0  0  0
   37.0720   27.3950   34.3610 C   0  0  0  0  0  0  0  0  0  0  0  0
   37.6590   27.9110   35.5070 O   0  0  0  0  0  0  0  0  0  0  0  0
   38.8200   27.2180   35.7710 C   0  0  0  0  0  0  0  0  0  0  0  0
   39.8080   25.6830   34.5330 H   0  0  0  0  0  0  0  0  0  0  0  0
   38.9320   27.4090   33.2320 H   0  0  0  0  0  0  0  0  0  0  0  0
   36.6130   28.2090   33.7520 H   0  0  0  0  0  0  0  0  0  0  0  0
   36.2970   26.6580   34.6560 H   0  0  0  0  0  0  0  0  0  0  0  0
   38.7780   26.8470   36.8150 H   0  0  0  0  0  0  0  0  0  0  0  0
   39.7320   27.8320   35.6370 H   0  0  0  0  0  0  0  0  0  0  0  0
   37.7330   25.7470   32.5940 C   0  0  0  0  0  0  0  0  0  0  0  0
   38.6570   24.9140   31.9480 C   0  0  0  0  0  0  0  0  0  0  0  0
   38.1570   24.0450   30.9720 C   0  0  0  0  0  0  0  0  0  0  0  0
   36.8140   24.0550   30.7050 N   0  0  0  0  0  0  0  0  0  0  0  0
   35.9430   24.8830   31.3580 C   0  0  0  0  0  0  0  0  0  0  0  0
   36.4200   25.7280   32.3070 N   0  0  0  0  0  0  0  0  0  0  0  0
   39.7080   24.9270   32.1770 H   0  0  0  0  0  0  0  0  0  0  0  0
   38.8070   23.3710   30.4280 H   0  0  0  0  0  0  0  0  0  0  0  0
   34.9000   24.8200   31.0790 H   0  0  0  0  0  0  0  0  0  0  0  0
   37.9930   25.0740   35.3750 O   0  0  0  0  0  0  0  0  0  0  0  0
   37.0870   23.1670   36.8350 H   0  0  0  0  0  0  0  0  0  0  0  0
   37.4800   23.9760   37.4030 N   0  0  0  0  0  0  0  0  0  0  0  0
   38.2830   23.3670   38.4470 C   0  0  0  0  0  2  0  0  0  0  0  0
   39.6110   22.9820   37.8140 C   0  0  0  0  0  2  0  0  0  0  0  0
   39.3950   23.3730   36.3460 C   0  0  0  0  0  2  0  0  0  0  0  0
   38.4910   24.5930   36.5640 C   0  0  1  0  0  3  0  0  0  0  0  0
  1  6  1  6  0  0  0
  1 21  1  0  0  0  0
  1  5  1  0  0  0  0
  2  7  1  6  0  0  0
  2  3  1  0  0  0  0
  2  1  1  0  0  0  0
  3  9  1  0  0  0  0
  3  4  1  0  0  0  0
  4  5  1  0  0  0  0
  5 10  1  0  0  0  0
  8  3  1  0  0  0  0
 11  5  1  0  0  0  0
 12  2  1  0  0  0  0
 13 18  1  0  0  0  0
 13 12  2  0  0  0  0
 14 13  1  0  0  0  0
 15 14  2  0  0  0  0
 15 16  1  0  0  0  0
 16 17  2  0  0  0  0
 17 12  1  0  0  0  0
 19 14  1  0  0  0  0
 20 16  1  0  0  0  0
 22 23  1  0  0  0  0
 23 24  1  0  0  0  0
 25 24  1  0  0  0  0
 26 27  1  0  0  0  0
 26 25  1  0  0  0  0
 27 21  1  6  0  0  0
 27 23  1  0  0  0  0
M  END
>  <minimizedAffinity>
-4.58426714

$$$$

 OpenBabel03262521433D

 27 29  0  0  1  0  0  0  0  0999 V2000
   37.3780   25.1990   31.7520 C   0  0  1  0  0  0  0  0  0  0  0  0
   36.5370   24.2140   30.9390 C   0  0  2  0  0  0  0  0  0  0  0  0
   35.2190   24.9320   31.1270 C   0  0  0  0  0  0  0  0  0  0  0  0
   35.4980   26.2760   30.9290 O   0  0  0  0  0  0  0  0  0  0  0  0
   36.8430   26.4940   31.1340 C   0  0  0  0  0  0  0  0  0  0  0  0
   38.4300   25.0050   31.4930 H   0  0  0  0  0  0  0  0  0  0  0  0
   36.8910   24.2610   29.9070 H   0  0  0  0  0  0  0  0  0  0  0  0
   34.4520   24.5760   30.3990 H   0  0  0  0  0  0  0  0  0  0  0  0
   34.8530   24.7910   32.1650 H   0  0  0  0  0  0  0  0  0  0  0  0
   36.9580   27.3090   31.8770 H   0  0  0  0  0  0  0  0  0  0  0  0
   37.3850   26.7650   30.2070 H   0  0  0  0  0  0  0  0  0  0  0  0
   36.5730   22.8560   31.4970 C   0  0  0  0  0  0  0  0  0  0  0  0
   37.7730   22.1330   31.5140 C   0  0  0  0  0  0  0  0  0  0  0  0
   37.7280   20.8370   32.0370 C   0  0  0  0  0  0  0  0  0  0  0  0
   36.5330   20.3520   32.4980 N   0  0  0  0  0  0  0  0  0  0  0  0
   35.3810   21.0890   32.4650 C   0  0  0  0  0  0  0  0  0  0  0  0
   35.4170   22.3480   31.9600 N   0  0  0  0  0  0  0  0  0  0  0  0
   38.6990   22.5380   31.1450 H   0  0  0  0  0  0  0  0  0  0  0  0
   38.6130   20.2140   32.0840 H   0  0  0  0  0  0  0  0  0  0  0  0
   34.4860   20.6210   32.8510 H   0  0  0  0  0  0  0  0  0  0  0  0
   37.0690   25.2100   33.0670 O   0  0  0  0  0  0  0  0  0  0  0  0
   36.8930   25.8520   35.5470 H   0  0  0  0  0  0  0  0  0  0  0  0
   37.0170   26.6920   34.9060 N   0  0  0  0  0  0  0  0  0  0  0  0
   38.0110   27.5300   35.5500 C   0  0  0  0  0  2  0  0  0  0  0  0
   39.3700   26.9190   35.2420 C   0  0  0  0  0  2  0  0  0  0  0  0
   38.9860   25.6590   34.4550 C   0  0  0  0  0  2  0  0  0  0  0  0
   37.7390   26.2020   33.7460 C   0  0  1  0  0  3  0  0  0  0  0  0
  1  6  1  6  0  0  0
  1 21  1  0  0  0  0
  2  7  1  6  0  0  0
  2  3  1  0  0  0  0
  2 12  1  0  0  0  0
  2  1  1  0  0  0  0
  3  9  1  0  0  0  0
  4  3  1  0  0  0  0
  4  5  1  0  0  0  0
  5  1  1  0  0  0  0
  5 10  1  0  0  0  0
  8  3  1  0  0  0  0
 11  5  1  0  0  0  0
 12 13  2  0  0  0  0
 12 17  1  0  0  0  0
 13 14  1  0  0  0  0
 14 19  1  0  0  0  0
 14 15  2  0  0  0  0
 16 15  1  0  0  0  0
 16 20  1  0  0  0  0
 17 16  2  0  0  0  0
 18 13  1  0  0  0  0
 23 22  1  0  0  0  0
 23 24  1  0  0  0  0
 25 24  1  0  0  0  0
 26 25  1  0  0  0  0
 27 21  1  1  0  0  0
 27 26  1  0  0  0  0
 27 23  1  0  0  0  0
M  END
>  <minimizedAffinity>
-4.30551004

$$$$

 OpenBabel03262521433D

 27 29  0  0  1  0  0  0  0  0999 V2000
   38.7040   23.3830   33.5710 C   0  0  1  0  0  0  0  0  0  0  0  0
   38.6470   22.1740   34.5050 C   0  0  2  0  0  0  0  0  0  0  0  0
   37.2790   21.6980   34.0700 C   0  0  0  0  0  0  0  0  0  0  0  0
   37.2790   21.7830   32.6860 O   0  0  0  0  0  0  0  0  0  0  0  0
   38.2450   22.6820   32.2900 C   0  0  0  0  0  0  0  0  0  0  0  0
   39.7560   23.7010   33.5310 H   0  0  0  0  0  0  0  0  0  0  0  0
   39.4410   21.4900   34.1980 H   0  0  0  0  0  0  0  0  0  0  0  0
   37.0870   20.6490   34.4010 H   0  0  0  0  0  0  0  0  0  0  0  0
   36.4940   22.3720   34.4720 H   0  0  0  0  0  0  0  0  0  0  0  0
   37.7730   23.4360   31.6280 H   0  0  0  0  0  0  0  0  0  0  0  0
   39.0890   22.2040   31.7540 H   0  0  0  0  0  0  0  0  0  0  0  0
   38.7340   22.5570   35.9200 C   0  0  0  0  0  0  0  0  0  0  0  0
   39.9670   22.5220   36.5840 C   0  0  0  0  0  0  0  0  0  0  0  0
   39.9720   22.8750   37.9380 C   0  0  0  0  0  0  0  0  0  0  0  0
   38.7890   23.2300   38.5310 N   0  0  0  0  0  0  0  0  0  0  0  0
   37.6040   23.2520   37.8490 C   0  0  0  0  0  0  0  0  0  0  0  0
   37.5920   22.9110   36.5350 N   0  0  0  0  0  0  0  0  0  0  0  0
   40.8810   22.2390   36.0940 H   0  0  0  0  0  0  0  0  0  0  0  0
   40.8840   22.8730   38.5210 H   0  0  0  0  0  0  0  0  0  0  0  0
   36.7230   23.5450   38.4030 H   0  0  0  0  0  0  0  0  0  0  0  0
   37.7930   24.3350   33.8700 O   0  0  0  0  0  0  0  0  0  0  0  0
   38.7340   25.2510   36.0760 H   0  0  0  0  0  0  0  0  0  0  0  0
   38.2510   25.9950   35.4880 N   0  0  0  0  0  0  0  0  0  0  0  0
   39.1290   27.1490   35.5220 C   0  0  0  0  0  2  0  0  0  0  0  0
   40.2450   26.8850   34.5240 C   0  0  0  0  0  2  0  0  0  0  0  0
   39.9110   25.4710   34.0330 C   0  0  0  0  0  2  0  0  0  0  0  0
   38.3820   25.5550   34.1100 C   0  0  1  0  0  3  0  0  0  0  0  0
  1  6  1  6  0  0  0
  1 21  1  0  0  0  0
  1  2  1  0  0  0  0
  2  7  1  6  0  0  0
  2 12  1  0  0  0  0
  3  8  1  0  0  0  0
  3  9  1  0  0  0  0
  3  2  1  0  0  0  0
  4  3  1  0  0  0  0
  5  4  1  0  0  0  0
  5  1  1  0  0  0  0
 10  5  1  0  0  0  0
 11  5  1  0  0  0  0
 12 17  2  0  0  0  0
 12 13  1  0  0  0  0
 13 14  2  0  0  0  0
 14 19  1  0  0  0  0
 14 15  1  0  0  0  0
 16 20  1  0  0  0  0
 16 15  2  0  0  0  0
 17 16  1  0  0  0  0
 18 13  1  0  0  0  0
 23 24  1  0  0  0  0
 23 22  1  0  0  0  0
 25 24  1  0  0  0  0
 26 27  1  0  0  0  0
 26 25  1  0  0  0  0
 27 21  1  1  0  0  0
 27 23  1  0  0  0  0
M  END
>  <minimizedAffinity>
-4.24527979

$$$$

 OpenBabel03262521433D

 27 29  0  0  1  0  0  0  0  0999 V2000
   39.1210   25.0300   34.2540 C   0  0  1  0  0  0  0  0  0  0  0  0
   38.6170   25.6040   32.9300 C   0  0  2  0  0  0  0  0  0  0  0  0
   38.0260   26.8670   33.5140 C   0  0  0  0  0  0  0  0  0  0  0  0
   38.9720   27.3380   34.4120 O   0  0  0  0  0  0  0  0  0  0  0  0
   39.7920   26.2970   34.7910 C   0  0  0  0  0  0  0  0  0  0  0  0
   39.8430   24.2390   34.0020 H   0  0  0  0  0  0  0  0  0  0  0  0
   39.4930   25.8040   32.3090 H   0  0  0  0  0  0  0  0  0  0  0  0
   37.8210   27.6270   32.7230 H   0  0  0  0  0  0  0  0  0  0  0  0
   37.0930   26.6320   34.0660 H   0  0  0  0  0  0  0  0  0  0  0  0
   39.8040   26.2440   35.8990 H   0  0  0  0  0  0  0  0  0  0  0  0
   40.8300   26.4050   34.4200 H   0  0  0  0  0  0  0  0  0  0  0  0
   37.6390   24.7230   32.2760 C   0  0  0  0  0  0  0  0  0  0  0  0
   38.0170   23.4410   31.8570 C   0  0  0  0  0  0  0  0  0  0  0  0
   37.0420   22.6670   31.2180 C   0  0  0  0  0  0  0  0  0  0  0  0
   35.7910   23.1960   31.0420 N   0  0  0  0  0  0  0  0  0  0  0  0
   35.4600   24.4530   31.4660 C   0  0  0  0  0  0  0  0  0  0  0  0
   36.4000   25.2100   32.0870 N   0  0  0  0  0  0  0  0  0  0  0  0
   39.0080   23.0500   32.0070 H   0  0  0  0  0  0  0  0  0  0  0  0
   37.2560   21.6660   30.8640 H   0  0  0  0  0  0  0  0  0  0  0  0
   34.4470   24.7830   31.2820 H   0  0  0  0  0  0  0  0  0  0  0  0
   38.1280   24.6960   35.1070 O   0  0  0  0  0  0  0  0  0  0  0  0
   37.0430   23.2370   36.9200 H   0  0  0  0  0  0  0  0  0  0  0  0
   37.5550   24.0820   37.3160 N   0  0  0  0  0  0  0  0  0  0  0  0
   38.3130   23.5830   38.4480 C   0  0  0  0  0  2  0  0  0  0  0  0
   39.5590   22.9150   37.8870 C   0  0  0  0  0  2  0  0  0  0  0  0
   39.3390   23.0440   36.3740 C   0  0  0  0  0  2  0  0  0  0  0  0
   38.6050   24.3900   36.3610 C   0  0  1  0  0  3  0  0  0  0  0  0
  1  6  1  6  0  0  0
  1  5  1  0  0  0  0
  1 21  1  0  0  0  0
  2  7  1  6  0  0  0
  2  3  1  0  0  0  0
  2  1  1  0  0  0  0
  3  9  1  0  0  0  0
  3  4  1  0  0  0  0
  4  5  1  0  0  0  0
  5 10  1  0  0  0  0
  8  3  1  0  0  0  0
 11  5  1  0  0  0  0
 12  2  1  0  0  0  0
 13 18  1  0  0  0  0
 13 12  2  0  0  0  0
 14 13  1  0  0  0  0
 15 14  2  0  0  0  0
 15 16  1  0  0  0  0
 16 17  2  0  0  0  0
 17 12  1  0  0  0  0
 19 14  1  0  0  0  0
 20 16  1  0  0  0  0
 22 23  1  0  0  0  0
 23 24  1  0  0  0  0
 25 24  1  0  0  0  0
 26 25  1  0  0  0  0
 27 21  1  6  0  0  0
 27 26  1  0  0  0  0
 27 23  1  0  0  0  0
M  END
>  <minimizedAffinity>
-4.23547554

$$$$

 OpenBabel03262521433D

 27 29  0  0  1  0  0  0  0  0999 V2000
   37.8520   23.4230   33.6330 C   0  0  1  0  0  0  0  0  0  0  0  0
   38.9800   24.1310   34.3840 C   0  0  2  0  0  0  0  0  0  0  0  0
   40.1140   23.4890   33.6160 C   0  0  0  0  0  0  0  0  0  0  0  0
   39.7330   23.5380   32.2840 O   0  0  0  0  0  0  0  0  0  0  0  0
   38.3630   23.6640   32.2100 C   0  0  0  0  0  0  0  0  0  0  0  0
   36.9280   23.9780   33.8550 H   0  0  0  0  0  0  0  0  0  0  0  0
   38.8880   25.1990   34.1740 H   0  0  0  0  0  0  0  0  0  0  0  0
   41.0740   24.0370   33.7720 H   0  0  0  0  0  0  0  0  0  0  0  0
   40.2270   22.4280   33.9190 H   0  0  0  0  0  0  0  0  0  0  0  0
   37.9700   22.8580   31.5570 H   0  0  0  0  0  0  0  0  0  0  0  0
   38.0380   24.6460   31.8130 H   0  0  0  0  0  0  0  0  0  0  0  0
   38.9710   23.8250   35.8210 C   0  0  0  0  0  0  0  0  0  0  0  0
   40.0060   23.0660   36.3840 C   0  0  0  0  0  0  0  0  0  0  0  0
   39.9200   22.7910   37.7530 C   0  0  0  0  0  0  0  0  0  0  0  0
   38.8480   23.2710   38.4570 N   0  0  0  0  0  0  0  0  0  0  0  0
   37.8580   24.0090   37.8710 C   0  0  0  0  0  0  0  0  0  0  0  0
   37.9340   24.2810   36.5430 N   0  0  0  0  0  0  0  0  0  0  0  0
   40.8370   22.7010   35.8080 H   0  0  0  0  0  0  0  0  0  0  0  0
   40.6790   22.2100   38.2630 H   0  0  0  0  0  0  0  0  0  0  0  0
   37.0510   24.3450   38.5080 H   0  0  0  0  0  0  0  0  0  0  0  0
   37.8230   22.0880   33.8420 O   0  0  0  0  0  0  0  0  0  0  0  0
   37.7640   19.6160   33.1530 H   0  0  0  0  0  0  0  0  0  0  0  0
   37.5000   20.2760   32.3610 N   0  0  0  0  0  0  0  0  0  0  0  0
   36.3310   19.6850   31.7360 C   0  0  0  0  0  2  0  0  0  0  0  0
   35.1380   20.0330   32.6130 C   0  0  0  0  0  2  0  0  0  0  0  0
   35.8000   20.7820   33.7770 C   0  0  0  0  0  2  0  0  0  0  0  0
   36.9390   21.4530   33.0000 C   0  0  1  0  0  3  0  0  0  0  0  0
  1 21  1  0  0  0  0
  1  6  1  1  0  0  0
  1  2  1  0  0  0  0
  2  7  1  6  0  0  0
  2 12  1  0  0  0  0
  3  8  1  0  0  0  0
  3  9  1  0  0  0  0
  3  2  1  0  0  0  0
  4  3  1  0  0  0  0
  5  4  1  0  0  0  0
  5  1  1  0  0  0  0
 10  5  1  0  0  0  0
 11  5  1  0  0  0  0
 12 13  2  0  0  0  0
 12 17  1  0  0  0  0
 13 14  1  0  0  0  0
 14 19  1  0  0  0  0
 14 15  2  0  0  0  0
 16 15  1  0  0  0  0
 16 20  1  0  0  0  0
 17 16  2  0  0  0  0
 18 13  1  0  0  0  0
 23 27  1  0  0  0  0
 23 22  1  0  0  0  0
 24 23  1  0  0  0  0
 24 25  1  0  0  0  0
 25 26  1  0  0  0  0
 27 26  1  0  0  0  0
 27 21  1  1  0  0  0
M  END
>  <minimizedAffinity>
-4.12332964

$$$$

 OpenBabel03262521433D

 27 29  0  0  1  0  0  0  0  0999 V2000
   35.9410   21.1140   33.1860 C   0  0  1  0  0  0  0  0  0  0  0  0
   35.8750   21.3680   31.6790 C   0  0  2  0  0  0  0  0  0  0  0  0
   36.6620   20.1420   31.2730 C   0  0  0  0  0  0  0  0  0  0  0  0
   36.1600   19.1060   32.0470 O   0  0  0  0  0  0  0  0  0  0  0  0
   35.5530   19.6330   33.1670 C   0  0  0  0  0  0  0  0  0  0  0  0
   35.1720   21.7510   33.6470 H   0  0  0  0  0  0  0  0  0  0  0  0
   34.8250   21.3030   31.3860 H   0  0  0  0  0  0  0  0  0  0  0  0
   36.5370   19.9180   30.1870 H   0  0  0  0  0  0  0  0  0  0  0  0
   37.7360   20.2810   31.5120 H   0  0  0  0  0  0  0  0  0  0  0  0
   35.9870   19.1460   34.0640 H   0  0  0  0  0  0  0  0  0  0  0  0
   34.4540   19.4920   33.1710 H   0  0  0  0  0  0  0  0  0  0  0  0
   36.5000   22.6420   31.3010 C   0  0  0  0  0  0  0  0  0  0  0  0
   35.8320   23.8510   31.5370 C   0  0  0  0  0  0  0  0  0  0  0  0
   36.4750   25.0240   31.1270 C   0  0  0  0  0  0  0  0  0  0  0  0
   37.7030   24.9290   30.5270 N   0  0  0  0  0  0  0  0  0  0  0  0
   38.3230   23.7290   30.3140 C   0  0  0  0  0  0  0  0  0  0  0  0
   37.7060   22.5860   30.7090 N   0  0  0  0  0  0  0  0  0  0  0  0
   34.8680   23.8980   32.0100 H   0  0  0  0  0  0  0  0  0  0  0  0
   36.0250   25.9980   31.2730 H   0  0  0  0  0  0  0  0  0  0  0  0
   39.2910   23.7540   29.8320 H   0  0  0  0  0  0  0  0  0  0  0  0
   37.1910   21.2070   33.6920 O   0  0  0  0  0  0  0  0  0  0  0  0
   38.7000   21.3100   35.7650 H   0  0  0  0  0  0  0  0  0  0  0  0
   37.7400   21.7390   35.9270 N   0  0  0  0  0  0  0  0  0  0  0  0
   37.9830   22.9840   36.6320 C   0  0  0  0  0  2  0  0  0  0  0  0
   38.4190   24.0040   35.5920 C   0  0  0  0  0  2  0  0  0  0  0  0
   38.4540   23.1620   34.3100 C   0  0  0  0  0  2  0  0  0  0  0  0
   37.2950   22.2100   34.6270 C   0  0  1  0  0  3  0  0  0  0  0  0
  1  6  1  1  0  0  0
  1 21  1  0  0  0  0
  2  7  1  6  0  0  0
  2  1  1  0  0  0  0
  3  9  1  0  0  0  0
  3  2  1  0  0  0  0
  3  4  1  0  0  0  0
  4  5  1  0  0  0  0
  5 11  1  0  0  0  0
  5  1  1  0  0  0  0
  5 10  1  0  0  0  0
  8  3  1  0  0  0  0
 12 13  1  0  0  0  0
 12  2  1  0  0  0  0
 13 18  1  0  0  0  0
 14 19  1  0  0  0  0
 14 13  2  0  0  0  0
 15 14  1  0  0  0  0
 16 15  2  0  0  0  0
 16 17  1  0  0  0  0
 17 12  2  0  0  0  0
 20 16  1  0  0  0  0
 22 23  1  0  0  0  0
 23 24  1  0  0  0  0
 25 24  1  0  0  0  0
 26 27  1  0  0  0  0
 26 25  1  0  0  0  0
 27 21  1  6  0  0  0
 27 23  1  0  0  0  0
M  END
>  <minimizedAffinity>
-3.99939752

$$$$

 OpenBabel03262521433D

 27 29  0  0  1  0  0  0  0  0999 V2000
   38.7590   24.0800   33.8380 C   0  0  1  0  0  0  0  0  0  0  0  0
   38.1030   24.1450   32.4580 C   0  0  2  0  0  0  0  0  0  0  0  0
   37.1420   25.2660   32.7880 C   0  0  0  0  0  0  0  0  0  0  0  0
   37.8900   26.2010   33.4880 O   0  0  0  0  0  0  0  0  0  0  0  0
   38.9950   25.5810   34.0290 C   0  0  0  0  0  0  0  0  0  0  0  0
   39.6940   23.5130   33.7160 H   0  0  0  0  0  0  0  0  0  0  0  0
   38.8730   24.4540   31.7470 H   0  0  0  0  0  0  0  0  0  0  0  0
   36.7100   25.7190   31.8640 H   0  0  0  0  0  0  0  0  0  0  0  0
   36.3300   24.8920   33.4440 H   0  0  0  0  0  0  0  0  0  0  0  0
   39.0200   25.7940   35.1170 H   0  0  0  0  0  0  0  0  0  0  0  0
   39.9470   25.9120   33.5700 H   0  0  0  0  0  0  0  0  0  0  0  0
   37.4540   22.8800   32.0890 C   0  0  0  0  0  0  0  0  0  0  0  0
   36.0930   22.8590   31.7530 C   0  0  0  0  0  0  0  0  0  0  0  0
   35.5350   21.6160   31.4370 C   0  0  0  0  0  0  0  0  0  0  0  0
   36.3360   20.5050   31.4720 N   0  0  0  0  0  0  0  0  0  0  0  0
   37.6610   20.5660   31.8040 C   0  0  0  0  0  0  0  0  0  0  0  0
   38.2100   21.7690   32.1110 N   0  0  0  0  0  0  0  0  0  0  0  0
   35.4870   23.7470   31.7350 H   0  0  0  0  0  0  0  0  0  0  0  0
   34.4910   21.5160   31.1680 H   0  0  0  0  0  0  0  0  0  0  0  0
   38.2110   19.6360   31.8040 H   0  0  0  0  0  0  0  0  0  0  0  0
   37.9200   23.6660   34.8120 O   0  0  0  0  0  0  0  0  0  0  0  0
   37.1750   22.5490   37.0010 H   0  0  0  0  0  0  0  0  0  0  0  0
   37.5500   23.5360   37.1420 N   0  0  0  0  0  0  0  0  0  0  0  0
   38.4270   23.4580   38.2960 C   0  0  0  0  0  2  0  0  0  0  0  0
   39.7450   22.8760   37.8100 C   0  0  0  0  0  2  0  0  0  0  0  0
   39.4470   22.5900   36.3330 C   0  0  0  0  0  2  0  0  0  0  0  0
   38.4920   23.7590   36.0600 C   0  0  1  0  0  3  0  0  0  0  0  0
  1  6  1  6  0  0  0
  1  5  1  0  0  0  0
  1 21  1  0  0  0  0
  2  7  1  6  0  0  0
  2  3  1  0  0  0  0
  2  1  1  0  0  0  0
  3  9  1  0  0  0  0
  3  4  1  0  0  0  0
  4  5  1  0  0  0  0
  5 10  1  0  0  0  0
  8  3  1  0  0  0  0
 11  5  1  0  0  0  0
 12 17  1  0  0  0  0
 12  2  1  0  0  0  0
 13 12  2  0  0  0  0
 14 15  2  0  0  0  0
 14 13  1  0  0  0  0
 15 16  1  0  0  0  0
 16 17  2  0  0  0  0
 18 13  1  0  0  0  0
 19 14  1  0  0  0  0
 20 16  1  0  0  0  0
 22 23  1  0  0  0  0
 23 24  1  0  0  0  0
 25 24  1  0  0  0  0
 26 25  1  0  0  0  0
 27 21  1  6  0  0  0
 27 26  1  0  0  0  0
 27 23  1  0  0  0  0
M  END
>  <minimizedAffinity>
-3.98760867

$$$$

 OpenBabel03262521433D

 27 29  0  0  1  0  0  0  0  0999 V2000
   38.6570   26.2540   33.4570 C   0  0  1  0  0  0  0  0  0  0  0  0
   39.5580   26.1510   34.6890 C   0  0  2  0  0  0  0  0  0  0  0  0
   40.8380   25.8780   33.9300 C   0  0  0  0  0  0  0  0  0  0  0  0
   40.8390   26.7720   32.8700 O   0  0  0  0  0  0  0  0  0  0  0  0
   39.5460   27.1790   32.6220 C   0  0  0  0  0  0  0  0  0  0  0  0
   37.7260   26.7390   33.7870 H   0  0  0  0  0  0  0  0  0  0  0  0
   39.5620   27.1320   35.1700 H   0  0  0  0  0  0  0  0  0  0  0  0
   41.7360   26.0300   34.5760 H   0  0  0  0  0  0  0  0  0  0  0  0
   40.8300   24.8440   33.5280 H   0  0  0  0  0  0  0  0  0  0  0  0
   39.3220   27.0040   31.5500 H   0  0  0  0  0  0  0  0  0  0  0  0
   39.3740   28.2470   32.8620 H   0  0  0  0  0  0  0  0  0  0  0  0
   39.1470   25.0690   35.5920 C   0  0  0  0  0  0  0  0  0  0  0  0
   37.9350   25.1580   36.2910 C   0  0  0  0  0  0  0  0  0  0  0  0
   37.6190   24.1040   37.1540 C   0  0  0  0  0  0  0  0  0  0  0  0
   38.4960   23.0580   37.2680 N   0  0  0  0  0  0  0  0  0  0  0  0
   39.6700   23.0070   36.5680 C   0  0  0  0  0  0  0  0  0  0  0  0
   39.9830   24.0260   35.7280 N   0  0  0  0  0  0  0  0  0  0  0  0
   37.2640   25.9920   36.1840 H   0  0  0  0  0  0  0  0  0  0  0  0
   36.7020   24.0980   37.7300 H   0  0  0  0  0  0  0  0  0  0  0  0
   40.2980   22.1410   36.7240 H   0  0  0  0  0  0  0  0  0  0  0  0
   38.5290   25.0870   32.7870 O   0  0  0  0  0  0  0  0  0  0  0  0
   37.3940   25.2430   30.4890 H   0  0  0  0  0  0  0  0  0  0  0  0
   36.7620   25.5520   31.2890 N   0  0  0  0  0  0  0  0  0  0  0  0
   35.4750   24.9330   31.0300 C   0  0  0  0  0  2  0  0  0  0  0  0
   35.5810   23.4870   31.4870 C   0  0  0  0  0  2  0  0  0  0  0  0
   37.0470   23.3940   31.9280 C   0  0  0  0  0  2  0  0  0  0  0  0
   37.2190   24.8230   32.4580 C   0  0  1  0  0  3  0  0  0  0  0  0
  1  6  1  1  0  0  0
  1  2  1  0  0  0  0
  2  7  1  1  0  0  0
  2 12  1  0  0  0  0
  3  8  1  0  0  0  0
  3  2  1  0  0  0  0
  4  3  1  0  0  0  0
  5 11  1  0  0  0  0
  5  4  1  0  0  0  0
  5  1  1  0  0  0  0
  9  3  1  0  0  0  0
 10  5  1  0  0  0  0
 12 17  2  0  0  0  0
 12 13  1  0  0  0  0
 13 14  2  0  0  0  0
 14 15  1  0  0  0  0
 14 19  1  0  0  0  0
 16 20  1  0  0  0  0
 16 15  2  0  0  0  0
 17 16  1  0  0  0  0
 18 13  1  0  0  0  0
 21  1  1  0  0  0  0
 22 23  1  0  0  0  0
 23 27  1  0  0  0  0
 24 23  1  0  0  0  0
 24 25  1  0  0  0  0
 25 26  1  0  0  0  0
 26 27  1  0  0  0  0
 27 21  1  6  0  0  0
M  END
>  <minimizedAffinity>
-3.98460364

$$$$

 OpenBabel03262521433D

 27 29  0  0  1  0  0  0  0  0999 V2000
   37.8910   25.7670   32.9980 C   0  0  1  0  0  0  0  0  0  0  0  0
   37.9870   27.2910   33.0790 C   0  0  2  0  0  0  0  0  0  0  0  0
   36.8870   27.4680   34.1020 C   0  0  0  0  0  0  0  0  0  0  0  0
   37.1080   26.4870   35.0570 O   0  0  0  0  0  0  0  0  0  0  0  0
   37.8630   25.4780   34.5010 C   0  0  0  0  0  0  0  0  0  0  0  0
   38.8150   25.4190   32.5130 H   0  0  0  0  0  0  0  0  0  0  0  0
   38.9730   27.5330   33.4830 H   0  0  0  0  0  0  0  0  0  0  0  0
   36.9190   28.4840   34.5650 H   0  0  0  0  0  0  0  0  0  0  0  0
   35.8970   27.2960   33.6330 H   0  0  0  0  0  0  0  0  0  0  0  0
   37.3350   24.5150   34.6610 H   0  0  0  0  0  0  0  0  0  0  0  0
   38.8820   25.4110   34.9290 H   0  0  0  0  0  0  0  0  0  0  0  0
   37.7220   27.9370   31.7870 C   0  0  0  0  0  0  0  0  0  0  0  0
   36.6500   28.8300   31.6530 C   0  0  0  0  0  0  0  0  0  0  0  0
   36.4400   29.3880   30.3880 C   0  0  0  0  0  0  0  0  0  0  0  0
   37.2800   29.0380   29.3640 N   0  0  0  0  0  0  0  0  0  0  0  0
   38.3170   28.1620   29.5340 C   0  0  0  0  0  0  0  0  0  0  0  0
   38.5270   27.6170   30.7600 N   0  0  0  0  0  0  0  0  0  0  0  0
   36.0050   29.0870   32.4740 H   0  0  0  0  0  0  0  0  0  0  0  0
   35.6330   30.0860   30.2030 H   0  0  0  0  0  0  0  0  0  0  0  0
   38.9260   27.9460   28.6670 H   0  0  0  0  0  0  0  0  0  0  0  0
   36.7270   25.3300   32.4700 O   0  0  0  0  0  0  0  0  0  0  0  0
   35.4380   24.0220   30.6760 H   0  0  0  0  0  0  0  0  0  0  0  0
   35.5340   23.4890   31.5930 N   0  0  0  0  0  0  0  0  0  0  0  0
   35.9050   22.1370   31.2210 C   0  0  0  0  0  2  0  0  0  0  0  0
   37.3940   22.1560   30.9140 C   0  0  0  0  0  2  0  0  0  0  0  0
   37.7390   23.6410   31.0840 C   0  0  0  0  0  2  0  0  0  0  0  0
   36.7540   23.9800   32.2080 C   0  0  1  0  0  3  0  0  0  0  0  0
  1  6  1  6  0  0  0
  1  2  1  0  0  0  0
  1  5  1  0  0  0  0
  2  7  1  1  0  0  0
  2  3  1  0  0  0  0
  3  8  1  0  0  0  0
  3  4  1  0  0  0  0
  5 10  1  0  0  0  0
  5 11  1  0  0  0  0
  5  4  1  0  0  0  0
  9  3  1  0  0  0  0
 12  2  1  0  0  0  0
 13 12  1  0  0  0  0
 13 18  1  0  0  0  0
 14 13  2  0  0  0  0
 15 16  2  0  0  0  0
 15 14  1  0  0  0  0
 16 17  1  0  0  0  0
 17 12  2  0  0  0  0
 19 14  1  0  0  0  0
 20 16  1  0  0  0  0
 21  1  1  0  0  0  0
 22 23  1  0  0  0  0
 23 27  1  0  0  0  0
 24 23  1  0  0  0  0
 25 26  1  0  0  0  0
 25 24  1  0  0  0  0
 26 27  1  0  0  0  0
 27 21  1  6  0  0  0
M  END
>  <minimizedAffinity>
-3.89663839

$$$$
