
 OpenBabel03272500593D

 32 35  0  0  1  0  0  0  0  0999 V2000
   38.4920   25.4740   35.3070 C   0  0  0  0  0  0  0  0  0  0  0  0
   38.5450   26.6960   35.9090 C   0  0  0  0  0  0  0  0  0  0  0  0
   37.8690   27.8020   35.3960 C   0  0  0  0  0  0  0  0  0  0  0  0
   37.0970   27.6070   34.1820 C   0  0  0  0  0  0  0  0  0  0  0  0
   37.0850   26.3600   33.6290 C   0  0  0  0  0  0  0  0  0  0  0  0
   37.7390   25.3080   34.1300 C   0  0  0  0  0  0  0  0  0  0  0  0
   39.1150   26.8810   36.8250 H   0  0  0  0  0  0  0  0  0  0  0  0
   37.9390   28.7590   35.9100 H   0  0  0  0  0  0  0  0  0  0  0  0
   36.6300   28.5330   33.8980 H   0  0  0  0  0  0  0  0  0  0  0  0
   36.4420   26.4430   32.7700 H   0  0  0  0  0  0  0  0  0  0  0  0
   38.6280   23.8590   37.1420 C   0  0  0  0  0  0  0  0  0  0  0  0
   39.2240   24.4210   35.9780 C   0  0  0  0  0  0  0  0  0  0  0  0
   40.4330   23.8710   35.6390 C   0  0  0  0  0  0  0  0  0  0  0  0
   40.9720   22.8870   36.3700 N   0  0  0  0  0  0  0  0  0  0  0  0
   40.4100   22.3780   37.4410 C   0  0  0  0  0  0  0  0  0  0  0  0
   39.2420   22.8690   37.8190 N   0  0  0  0  0  0  0  0  0  0  0  0
   37.6620   24.2340   37.4900 H   0  0  0  0  0  0  0  0  0  0  0  0
   40.8570   24.3300   34.7390 H   0  0  0  0  0  0  0  0  0  0  0  0
   40.9300   21.5840   37.9610 H   0  0  0  0  0  0  0  0  0  0  0  0
   38.7170   24.0170   32.4360 C   0  0  0  0  0  0  0  0  0  0  0  0
   39.4100   25.0640   32.1470 O   0  0  0  0  0  0  0  0  0  0  0  0
   37.7110   24.0820   33.5150 N   0  0  0  0  0  0  0  0  0  0  0  0
   37.0990   23.2780   33.7300 H   0  0  0  0  0  0  0  0  0  0  0  0
   38.8970   22.8090   31.7450 O   0  0  0  0  0  0  0  0  0  0  0  0
   37.9590   21.8240   31.6960 C   0  0  2  0  0  3  0  0  0  0  0  0
   38.3700   20.6370   31.5400 O   0  0  0  0  0  0  0  0  0  0  0  0
   36.9880   20.8040   31.6450 N   0  0  1  0  0  4  0  0  0  0  0  0
   36.9380   19.4010   31.9590 C   0  0  0  0  0  2  0  0  0  0  0  0
   35.6090   19.2680   32.6830 C   0  0  0  0  0  2  0  0  0  0  0  0
   34.7250   20.3660   32.1470 C   0  0  0  0  0  2  0  0  0  0  0  0
   35.6170   21.0670   31.1710 C   0  0  0  0  0  3  0  0  0  0  0  0
   35.4230   22.1550   31.1050 H   0  0  0  0  0  0  0  0  0  0  0  0
  1  2  1  0  0  0  0
  1 12  1  0  0  0  0
  2  7  1  0  0  0  0
  3  2  2  0  0  0  0
  3  8  1  0  0  0  0
  4  3  1  0  0  0  0
  5  6  1  0  0  0  0
  5  4  2  0  0  0  0
  6  1  2  0  0  0  0
  9  4  1  0  0  0  0
 10  5  1  0  0  0  0
 11 17  1  0  0  0  0
 11 16  1  0  0  0  0
 12 11  2  0  0  0  0
 13 12  1  0  0  0  0
 13 14  2  0  0  0  0
 14 15  1  0  0  0  0
 15 16  2  0  0  0  0
 15 19  1  0  0  0  0
 18 13  1  0  0  0  0
 20 22  1  0  0  0  0
 21 20  2  0  0  0  0
 22 23  1  0  0  0  0
 22  6  1  0  0  0  0
 24 20  1  0  0  0  0
 25 24  1  6  0  0  0
 26 27  1  0  0  0  0
 26 25  1  0  0  0  0
 27 25  1  0  0  0  0
 27 28  1  1  0  0  0
 28 29  1  0  0  0  0
 30 29  1  0  0  0  0
 31 27  1  0  0  0  0
 31 30  1  0  0  0  0
 32 31  1  0  0  0  0
M  END
>  <minimizedAffinity>
-5.39856911

$$$$

 OpenBabel03272500593D

 32 35  0  0  1  0  0  0  0  0999 V2000
   39.6300   25.6240   34.3140 C   0  0  0  0  0  0  0  0  0  0  0  0
   40.6010   26.5150   34.6630 C   0  0  0  0  0  0  0  0  0  0  0  0
   41.2350   27.3220   33.7210 C   0  0  0  0  0  0  0  0  0  0  0  0
   40.8220   27.1820   32.3370 C   0  0  0  0  0  0  0  0  0  0  0  0
   39.8450   26.2730   32.0540 C   0  0  0  0  0  0  0  0  0  0  0  0
   39.2460   25.5030   32.9660 C   0  0  0  0  0  0  0  0  0  0  0  0
   40.9370   26.6500   35.6960 H   0  0  0  0  0  0  0  0  0  0  0  0
   42.0050   28.0200   34.0450 H   0  0  0  0  0  0  0  0  0  0  0  0
   41.3870   27.8590   31.7200 H   0  0  0  0  0  0  0  0  0  0  0  0
   39.6870   26.3560   30.9920 H   0  0  0  0  0  0  0  0  0  0  0  0
   39.7290   23.7020   35.8280 C   0  0  0  0  0  0  0  0  0  0  0  0
   39.0480   24.8800   35.4120 C   0  0  0  0  0  0  0  0  0  0  0  0
   37.9130   25.1610   36.1270 C   0  0  0  0  0  0  0  0  0  0  0  0
   37.5150   24.3660   37.1270 N   0  0  0  0  0  0  0  0  0  0  0  0
   38.1540   23.2820   37.5010 C   0  0  0  0  0  0  0  0  0  0  0  0
   39.2560   22.9580   36.8470 N   0  0  0  0  0  0  0  0  0  0  0  0
   40.6450   23.3970   35.3150 H   0  0  0  0  0  0  0  0  0  0  0  0
   37.4200   26.0740   35.7760 H   0  0  0  0  0  0  0  0  0  0  0  0
   37.7460   22.7080   38.3240 H   0  0  0  0  0  0  0  0  0  0  0  0
   36.9830   25.2480   32.4120 C   0  0  0  0  0  0  0  0  0  0  0  0
   36.8670   26.5110   32.6410 O   0  0  0  0  0  0  0  0  0  0  0  0
   38.2860   24.5860   32.6180 N   0  0  0  0  0  0  0  0  0  0  0  0
   38.3970   23.5660   32.4990 H   0  0  0  0  0  0  0  0  0  0  0  0
   35.8940   24.4830   31.9670 O   0  0  0  0  0  0  0  0  0  0  0  0
   35.9360   23.1320   31.8150 C   0  0  1  0  0  3  0  0  0  0  0  0
   36.6450   22.6740   30.8710 O   0  0  0  0  0  0  0  0  0  0  0  0
   35.9810   21.7320   31.6580 N   0  0  1  0  0  4  0  0  0  0  0  0
   36.9180   20.7750   31.1350 C   0  0  0  0  0  2  0  0  0  0  0  0
   36.8750   19.6640   32.1720 C   0  0  0  0  0  2  0  0  0  0  0  0
   35.5010   19.7190   32.7910 C   0  0  0  0  0  2  0  0  0  0  0  0
   34.8610   20.8720   32.0840 C   0  0  0  0  0  3  0  0  0  0  0  0
   34.1500   21.4350   32.7200 H   0  0  0  0  0  0  0  0  0  0  0  0
  1  2  1  0  0  0  0
  1 12  1  0  0  0  0
  2  7  1  0  0  0  0
  3  8  1  0  0  0  0
  3  2  2  0  0  0  0
  4  3  1  0  0  0  0
  5  4  2  0  0  0  0
  5  6  1  0  0  0  0
  6  1  2  0  0  0  0
  9  4  1  0  0  0  0
 10  5  1  0  0  0  0
 11 16  1  0  0  0  0
 12 11  2  0  0  0  0
 12 13  1  0  0  0  0
 13 14  2  0  0  0  0
 14 15  1  0  0  0  0
 15 19  1  0  0  0  0
 16 15  2  0  0  0  0
 17 11  1  0  0  0  0
 18 13  1  0  0  0  0
 20 22  1  0  0  0  0
 20 21  2  0  0  0  0
 22  6  1  0  0  0  0
 23 22  1  0  0  0  0
 24 20  1  0  0  0  0
 25 24  1  1  0  0  0
 26 27  1  0  0  0  0
 26 25  1  0  0  0  0
 27 28  1  1  0  0  0
 27 25  1  0  0  0  0
 27 31  1  0  0  0  0
 28 29  1  0  0  0  0
 29 30  1  0  0  0  0
 31 32  1  0  0  0  0
 31 30  1  0  0  0  0
M  END
>  <minimizedAffinity>
-5.34366131

$$$$

 OpenBabel03272500593D

 32 35  0  0  1  0  0  0  0  0999 V2000
   36.7280   26.8030   31.8330 C   0  0  0  0  0  0  0  0  0  0  0  0
   36.6870   27.4860   30.6530 C   0  0  0  0  0  0  0  0  0  0  0  0
   36.5180   28.8690   30.6060 C   0  0  0  0  0  0  0  0  0  0  0  0
   36.3880   29.5680   31.8720 C   0  0  0  0  0  0  0  0  0  0  0  0
   36.4380   28.8260   33.0160 C   0  0  0  0  0  0  0  0  0  0  0  0
   36.5980   27.5000   33.0480 C   0  0  0  0  0  0  0  0  0  0  0  0
   36.7840   26.9940   29.6800 H   0  0  0  0  0  0  0  0  0  0  0  0
   36.4910   29.3730   29.6420 H   0  0  0  0  0  0  0  0  0  0  0  0
   36.2650   30.6210   31.6930 H   0  0  0  0  0  0  0  0  0  0  0  0
   36.3470   29.5420   33.8150 H   0  0  0  0  0  0  0  0  0  0  0  0
   35.7950   24.5750   31.4330 C   0  0  0  0  0  0  0  0  0  0  0  0
   36.9380   25.3750   31.7150 C   0  0  0  0  0  0  0  0  0  0  0  0
   38.1080   24.6710   31.8310 C   0  0  0  0  0  0  0  0  0  0  0  0
   38.1300   23.3410   31.6830 N   0  0  0  0  0  0  0  0  0  0  0  0
   37.0680   22.6160   31.4220 C   0  0  0  0  0  0  0  0  0  0  0  0
   35.9080   23.2390   31.3000 N   0  0  0  0  0  0  0  0  0  0  0  0
   34.8170   25.0490   31.3230 H   0  0  0  0  0  0  0  0  0  0  0  0
   38.9620   25.3230   32.0470 H   0  0  0  0  0  0  0  0  0  0  0  0
   37.1940   21.5450   31.3220 H   0  0  0  0  0  0  0  0  0  0  0  0
   37.9530   26.8620   34.8500 C   0  0  0  0  0  0  0  0  0  0  0  0
   38.9190   27.4450   34.2280 O   0  0  0  0  0  0  0  0  0  0  0  0
   36.6150   26.8040   34.2300 N   0  0  0  0  0  0  0  0  0  0  0  0
   35.8360   26.2920   34.6760 H   0  0  0  0  0  0  0  0  0  0  0  0
   38.1450   26.2770   36.1110 O   0  0  0  0  0  0  0  0  0  0  0  0
   38.5460   24.9890   36.2890 C   0  0  1  0  0  3  0  0  0  0  0  0
   38.1540   24.1350   35.4400 O   0  0  0  0  0  0  0  0  0  0  0  0
   38.9610   23.6550   36.4720 N   0  0  1  0  0  4  0  0  0  0  0  0
   39.2000   22.5160   35.6280 C   0  0  0  0  0  2  0  0  0  0  0  0
   40.4990   21.9540   36.1830 C   0  0  0  0  0  2  0  0  0  0  0  0
   40.5360   22.3430   37.6400 C   0  0  0  0  0  2  0  0  0  0  0  0
   39.2690   23.1200   37.8120 C   0  0  0  0  0  3  0  0  0  0  0  0
   39.3550   23.9380   38.5540 H   0  0  0  0  0  0  0  0  0  0  0  0
  1  6  1  0  0  0  0
  2  1  2  0  0  0  0
  3  2  1  0  0  0  0
  3  4  2  0  0  0  0
  4  5  1  0  0  0  0
  5  6  2  0  0  0  0
  5 10  1  0  0  0  0
  6 22  1  0  0  0  0
  7  2  1  0  0  0  0
  8  3  1  0  0  0  0
  9  4  1  0  0  0  0
 11 12  1  0  0  0  0
 12 13  2  0  0  0  0
 12  1  1  0  0  0  0
 13 18  1  0  0  0  0
 14 13  1  0  0  0  0
 15 14  2  0  0  0  0
 16 15  1  0  0  0  0
 16 11  2  0  0  0  0
 17 11  1  0  0  0  0
 19 15  1  0  0  0  0
 20 24  1  0  0  0  0
 21 20  2  0  0  0  0
 22 23  1  0  0  0  0
 22 20  1  0  0  0  0
 25 24  1  6  0  0  0
 25 27  1  0  0  0  0
 26 25  1  0  0  0  0
 26 27  1  0  0  0  0
 27 28  1  6  0  0  0
 27 31  1  0  0  0  0
 28 29  1  0  0  0  0
 29 30  1  0  0  0  0
 30 31  1  0  0  0  0
 31 32  1  0  0  0  0
M  END
>  <minimizedAffinity>
-5.11083603

$$$$

 OpenBabel03272500593D

 32 35  0  0  1  0  0  0  0  0999 V2000
   36.2390   28.8020   32.4450 C   0  0  0  0  0  0  0  0  0  0  0  0
   36.4080   29.4940   31.2820 C   0  0  0  0  0  0  0  0  0  0  0  0
   37.1700   28.9930   30.2290 C   0  0  0  0  0  0  0  0  0  0  0  0
   37.7870   27.6920   30.4110 C   0  0  0  0  0  0  0  0  0  0  0  0
   37.5790   27.0510   31.5980 C   0  0  0  0  0  0  0  0  0  0  0  0
   36.8480   27.5430   32.6020 C   0  0  0  0  0  0  0  0  0  0  0  0
   35.9570   30.4760   31.1070 H   0  0  0  0  0  0  0  0  0  0  0  0
   37.2780   29.5810   29.3180 H   0  0  0  0  0  0  0  0  0  0  0  0
   38.3420   27.4270   29.5290 H   0  0  0  0  0  0  0  0  0  0  0  0
   38.1000   26.1130   31.5020 H   0  0  0  0  0  0  0  0  0  0  0  0
   33.9890   29.2990   33.2720 C   0  0  0  0  0  0  0  0  0  0  0  0
   35.3950   29.4440   33.4310 C   0  0  0  0  0  0  0  0  0  0  0  0
   35.7690   30.1810   34.5250 C   0  0  0  0  0  0  0  0  0  0  0  0
   34.8540   30.7020   35.3500 N   0  0  0  0  0  0  0  0  0  0  0  0
   33.5580   30.5600   35.1910 C   0  0  0  0  0  0  0  0  0  0  0  0
   33.1360   29.8590   34.1520 N   0  0  0  0  0  0  0  0  0  0  0  0
   33.5960   28.7270   32.4270 H   0  0  0  0  0  0  0  0  0  0  0  0
   36.8580   30.2670   34.6110 H   0  0  0  0  0  0  0  0  0  0  0  0
   32.9020   31.0230   35.9170 H   0  0  0  0  0  0  0  0  0  0  0  0
   37.9280   26.9390   34.5920 C   0  0  0  0  0  0  0  0  0  0  0  0
   38.9710   27.5210   34.1090 O   0  0  0  0  0  0  0  0  0  0  0  0
   36.6950   26.8630   33.7830 N   0  0  0  0  0  0  0  0  0  0  0  0
   35.8620   26.3520   34.1180 H   0  0  0  0  0  0  0  0  0  0  0  0
   37.9350   26.3730   35.8760 O   0  0  0  0  0  0  0  0  0  0  0  0
   38.3490   25.1030   36.1350 C   0  0  1  0  0  3  0  0  0  0  0  0
   38.0750   24.2150   35.2750 O   0  0  0  0  0  0  0  0  0  0  0  0
   38.7780   23.7870   36.4020 N   0  0  1  0  0  4  0  0  0  0  0  0
   39.1370   22.6330   35.6230 C   0  0  0  0  0  2  0  0  0  0  0  0
   40.3840   22.1270   36.3320 C   0  0  0  0  0  2  0  0  0  0  0  0
   40.2540   22.5560   37.7710 C   0  0  0  0  0  2  0  0  0  0  0  0
   38.9550   23.2990   37.7830 C   0  0  0  0  0  3  0  0  0  0  0  0
   38.9380   24.1390   38.5040 H   0  0  0  0  0  0  0  0  0  0  0  0
  1  6  1  0  0  0  0
  1 12  1  0  0  0  0
  2  1  2  0  0  0  0
  3  4  2  0  0  0  0
  3  2  1  0  0  0  0
  4  5  1  0  0  0  0
  5  6  2  0  0  0  0
  6 22  1  0  0  0  0
  7  2  1  0  0  0  0
  8  3  1  0  0  0  0
  9  4  1  0  0  0  0
 10  5  1  0  0  0  0
 11 12  2  0  0  0  0
 11 16  1  0  0  0  0
 12 13  1  0  0  0  0
 13 18  1  0  0  0  0
 13 14  2  0  0  0  0
 15 14  1  0  0  0  0
 15 19  1  0  0  0  0
 16 15  2  0  0  0  0
 17 11  1  0  0  0  0
 20 24  1  0  0  0  0
 21 20  2  0  0  0  0
 22 23  1  0  0  0  0
 22 20  1  0  0  0  0
 25 24  1  6  0  0  0
 25 27  1  0  0  0  0
 26 25  1  0  0  0  0
 26 27  1  0  0  0  0
 27 28  1  6  0  0  0
 27 31  1  0  0  0  0
 28 29  1  0  0  0  0
 29 30  1  0  0  0  0
 30 31  1  0  0  0  0
 31 32  1  0  0  0  0
M  END
>  <minimizedAffinity>
-5.1077795

$$$$

 OpenBabel03272500593D

 32 35  0  0  1  0  0  0  0  0999 V2000
   36.9300   28.8530   31.6430 C   0  0  0  0  0  0  0  0  0  0  0  0
   36.5300   30.1530   31.7280 C   0  0  0  0  0  0  0  0  0  0  0  0
   35.7190   30.6090   32.7650 C   0  0  0  0  0  0  0  0  0  0  0  0
   35.3090   29.6410   33.7670 C   0  0  0  0  0  0  0  0  0  0  0  0
   35.7440   28.3560   33.6240 C   0  0  0  0  0  0  0  0  0  0  0  0
   36.5200   27.9300   32.6230 C   0  0  0  0  0  0  0  0  0  0  0  0
   36.8190   30.9110   30.9940 H   0  0  0  0  0  0  0  0  0  0  0  0
   35.4230   31.6570   32.7930 H   0  0  0  0  0  0  0  0  0  0  0  0
   34.6920   30.1220   34.5040 H   0  0  0  0  0  0  0  0  0  0  0  0
   35.3470   27.8320   34.4760 H   0  0  0  0  0  0  0  0  0  0  0  0
   37.3030   28.8500   29.2230 C   0  0  0  0  0  0  0  0  0  0  0  0
   37.7940   28.5420   30.5230 C   0  0  0  0  0  0  0  0  0  0  0  0
   39.0480   27.9890   30.5390 C   0  0  0  0  0  0  0  0  0  0  0  0
   39.7210   27.7740   29.4020 N   0  0  0  0  0  0  0  0  0  0  0  0
   39.2560   28.0630   28.2090 C   0  0  0  0  0  0  0  0  0  0  0  0
   38.0490   28.5990   28.1290 N   0  0  0  0  0  0  0  0  0  0  0  0
   36.3110   29.2940   29.1100 H   0  0  0  0  0  0  0  0  0  0  0  0
   39.3880   27.7690   31.5560 H   0  0  0  0  0  0  0  0  0  0  0  0
   39.8810   27.8490   27.3520 H   0  0  0  0  0  0  0  0  0  0  0  0
   37.9560   26.3020   33.5060 C   0  0  0  0  0  0  0  0  0  0  0  0
   38.4280   27.2380   34.2550 O   0  0  0  0  0  0  0  0  0  0  0  0
   36.9060   26.6180   32.5180 N   0  0  0  0  0  0  0  0  0  0  0  0
   36.5500   25.9030   31.8630 H   0  0  0  0  0  0  0  0  0  0  0  0
   38.4190   24.9810   33.6080 O   0  0  0  0  0  0  0  0  0  0  0  0
   38.4600   24.2880   34.7780 C   0  0  2  0  0  3  0  0  0  0  0  0
   39.0580   23.1710   34.7720 O   0  0  0  0  0  0  0  0  0  0  0  0
   38.5030   23.5690   35.9890 N   0  0  1  0  0  4  0  0  0  0  0  0
   39.3840   22.6070   36.5960 C   0  0  0  0  0  2  0  0  0  0  0  0
   39.4770   23.0980   38.0310 C   0  0  0  0  0  2  0  0  0  0  0  0
   38.1850   23.8230   38.3130 C   0  0  0  0  0  2  0  0  0  0  0  0
   37.4520   23.7180   37.0130 C   0  0  0  0  0  3  0  0  0  0  0  0
   36.8140   24.5980   36.7980 H   0  0  0  0  0  0  0  0  0  0  0  0
  1  2  2  0  0  0  0
  1  6  1  0  0  0  0
  2  3  1  0  0  0  0
  3  8  1  0  0  0  0
  3  4  2  0  0  0  0
  4  9  1  0  0  0  0
  5  4  1  0  0  0  0
  5 10  1  0  0  0  0
  6  5  2  0  0  0  0
  7  2  1  0  0  0  0
 11 12  1  0  0  0  0
 12 13  2  0  0  0  0
 12  1  1  0  0  0  0
 13 18  1  0  0  0  0
 14 13  1  0  0  0  0
 15 14  2  0  0  0  0
 16 15  1  0  0  0  0
 16 11  2  0  0  0  0
 17 11  1  0  0  0  0
 19 15  1  0  0  0  0
 20 24  1  0  0  0  0
 20 21  2  0  0  0  0
 22  6  1  0  0  0  0
 22 20  1  0  0  0  0
 23 22  1  0  0  0  0
 25 24  1  6  0  0  0
 25 27  1  0  0  0  0
 26 25  1  0  0  0  0
 26 27  1  0  0  0  0
 27 28  1  1  0  0  0
 27 31  1  0  0  0  0
 28 29  1  0  0  0  0
 29 30  1  0  0  0  0
 31 30  1  0  0  0  0
 32 31  1  0  0  0  0
M  END
>  <minimizedAffinity>
-5.10236549

$$$$

 OpenBabel03272500593D

 32 35  0  0  1  0  0  0  0  0999 V2000
   39.6780   23.5110   36.4860 C   0  0  0  0  0  0  0  0  0  0  0  0
   40.0340   23.0360   37.7140 C   0  0  0  0  0  0  0  0  0  0  0  0
   39.2120   23.1860   38.8290 C   0  0  0  0  0  0  0  0  0  0  0  0
   37.9480   23.8730   38.6390 C   0  0  0  0  0  0  0  0  0  0  0  0
   37.6520   24.3240   37.3860 C   0  0  0  0  0  0  0  0  0  0  0  0
   38.4480   24.1760   36.3240 C   0  0  0  0  0  0  0  0  0  0  0  0
   40.9770   22.5110   37.8960 H   0  0  0  0  0  0  0  0  0  0  0  0
   39.5360   22.7900   39.7910 H   0  0  0  0  0  0  0  0  0  0  0  0
   37.4160   23.9190   39.5730 H   0  0  0  0  0  0  0  0  0  0  0  0
   36.6750   24.7690   37.4740 H   0  0  0  0  0  0  0  0  0  0  0  0
   40.4890   22.0200   34.7210 C   0  0  0  0  0  0  0  0  0  0  0  0
   40.6260   23.2500   35.4230 C   0  0  0  0  0  0  0  0  0  0  0  0
   41.6550   24.0430   34.9830 C   0  0  0  0  0  0  0  0  0  0  0  0
   42.4400   23.6530   33.9720 N   0  0  0  0  0  0  0  0  0  0  0  0
   42.3010   22.5150   33.3320 C   0  0  0  0  0  0  0  0  0  0  0  0
   41.3260   21.7070   33.7130 N   0  0  0  0  0  0  0  0  0  0  0  0
   39.6960   21.3220   35.0020 H   0  0  0  0  0  0  0  0  0  0  0  0
   41.7250   24.9780   35.5480 H   0  0  0  0  0  0  0  0  0  0  0  0
   42.9910   22.2950   32.5280 H   0  0  0  0  0  0  0  0  0  0  0  0
   38.4170   26.1150   35.0090 C   0  0  0  0  0  0  0  0  0  0  0  0
   38.8640   26.7320   36.0470 O   0  0  0  0  0  0  0  0  0  0  0  0
   38.1080   24.6740   35.0920 N   0  0  0  0  0  0  0  0  0  0  0  0
   37.6940   24.1650   34.2940 H   0  0  0  0  0  0  0  0  0  0  0  0
   38.2170   26.7850   33.7910 O   0  0  0  0  0  0  0  0  0  0  0  0
   37.5370   26.2480   32.7420 C   0  0  2  0  0  3  0  0  0  0  0  0
   38.1580   25.4250   32.0070 O   0  0  0  0  0  0  0  0  0  0  0  0
   36.8340   25.6920   31.6540 N   0  0  1  0  0  4  0  0  0  0  0  0
   36.8890   24.4710   30.8970 C   0  0  0  0  0  2  0  0  0  0  0  0
   35.4210   24.0980   30.7590 C   0  0  0  0  0  2  0  0  0  0  0  0
   34.6510   25.3940   30.8110 C   0  0  0  0  0  2  0  0  0  0  0  0
   35.7270   26.4150   31.0000 C   0  0  0  0  0  3  0  0  0  0  0  0
   35.4060   27.2810   31.6120 H   0  0  0  0  0  0  0  0  0  0  0  0
  1  2  1  0  0  0  0
  2  7  1  0  0  0  0
  2  3  2  0  0  0  0
  3  8  1  0  0  0  0
  4  3  1  0  0  0  0
  4  9  1  0  0  0  0
  5 10  1  0  0  0  0
  5  4  2  0  0  0  0
  6  1  2  0  0  0  0
  6  5  1  0  0  0  0
 11 17  1  0  0  0  0
 11 12  1  0  0  0  0
 12  1  1  0  0  0  0
 13 12  2  0  0  0  0
 13 18  1  0  0  0  0
 14 13  1  0  0  0  0
 15 16  1  0  0  0  0
 15 14  2  0  0  0  0
 16 11  2  0  0  0  0
 19 15  1  0  0  0  0
 20 22  1  0  0  0  0
 20 21  2  0  0  0  0
 22  6  1  0  0  0  0
 23 22  1  0  0  0  0
 24 20  1  0  0  0  0
 25 24  1  6  0  0  0
 26 25  1  0  0  0  0
 27 28  1  1  0  0  0
 27 26  1  0  0  0  0
 27 25  1  0  0  0  0
 29 30  1  0  0  0  0
 29 28  1  0  0  0  0
 30 31  1  0  0  0  0
 31 32  1  0  0  0  0
 31 27  1  0  0  0  0
M  END
>  <minimizedAffinity>
-5.09098244

$$$$

 OpenBabel03272500593D

 32 35  0  0  1  0  0  0  0  0999 V2000
   39.7860   22.5560   36.7180 C   0  0  0  0  0  0  0  0  0  0  0  0
   40.0220   23.0940   37.9480 C   0  0  0  0  0  0  0  0  0  0  0  0
   38.9940   23.5970   38.7430 C   0  0  0  0  0  0  0  0  0  0  0  0
   37.6460   23.5300   38.2110 C   0  0  0  0  0  0  0  0  0  0  0  0
   37.4770   22.9800   36.9740 C   0  0  0  0  0  0  0  0  0  0  0  0
   38.4710   22.5020   36.2200 C   0  0  0  0  0  0  0  0  0  0  0  0
   41.0240   23.1600   38.3830 H   0  0  0  0  0  0  0  0  0  0  0  0
   39.2290   24.0170   39.7200 H   0  0  0  0  0  0  0  0  0  0  0  0
   36.9540   23.9490   38.9210 H   0  0  0  0  0  0  0  0  0  0  0  0
   36.4150   23.0110   36.7970 H   0  0  0  0  0  0  0  0  0  0  0  0
   41.7450   21.0870   36.7160 C   0  0  0  0  0  0  0  0  0  0  0  0
   40.9550   22.0500   36.0280 C   0  0  0  0  0  0  0  0  0  0  0  0
   41.4130   22.3690   34.7760 C   0  0  0  0  0  0  0  0  0  0  0  0
   42.5160   21.7980   34.2800 N   0  0  0  0  0  0  0  0  0  0  0  0
   43.2350   20.9090   34.9260 C   0  0  0  0  0  0  0  0  0  0  0  0
   42.8440   20.5620   36.1400 N   0  0  0  0  0  0  0  0  0  0  0  0
   41.4580   20.7700   37.7220 H   0  0  0  0  0  0  0  0  0  0  0  0
   40.7770   23.1120   34.2820 H   0  0  0  0  0  0  0  0  0  0  0  0
   44.1120   20.5080   34.4330 H   0  0  0  0  0  0  0  0  0  0  0  0
   38.0300   23.0650   33.9880 C   0  0  0  0  0  0  0  0  0  0  0  0
   37.9980   24.2900   34.3860 O   0  0  0  0  0  0  0  0  0  0  0  0
   38.2440   21.9840   34.9700 N   0  0  0  0  0  0  0  0  0  0  0  0
   38.2150   20.9890   34.6920 H   0  0  0  0  0  0  0  0  0  0  0  0
   37.8650   22.7320   32.6350 O   0  0  0  0  0  0  0  0  0  0  0  0
   37.1500   21.6570   32.2070 C   0  0  2  0  0  3  0  0  0  0  0  0
   37.2130   21.3690   30.9750 O   0  0  0  0  0  0  0  0  0  0  0  0
   36.4090   20.5430   31.7630 N   0  0  1  0  0  4  0  0  0  0  0  0
   36.5140   19.5840   30.6960 C   0  0  0  0  0  2  0  0  0  0  0  0
   36.1920   18.2720   31.3940 C   0  0  0  0  0  2  0  0  0  0  0  0
   35.2910   18.6210   32.5520 C   0  0  0  0  0  2  0  0  0  0  0  0
   35.1800   20.1090   32.4520 C   0  0  0  0  0  3  0  0  0  0  0  0
   35.0820   20.6080   33.4370 H   0  0  0  0  0  0  0  0  0  0  0  0
  1  2  1  0  0  0  0
  2  7  1  0  0  0  0
  2  3  2  0  0  0  0
  3  8  1  0  0  0  0
  4  3  1  0  0  0  0
  4  9  1  0  0  0  0
  5  4  2  0  0  0  0
  6  1  2  0  0  0  0
  6  5  1  0  0  0  0
 10  5  1  0  0  0  0
 11 17  1  0  0  0  0
 12 11  2  0  0  0  0
 12  1  1  0  0  0  0
 13 12  1  0  0  0  0
 14 13  2  0  0  0  0
 14 15  1  0  0  0  0
 15 16  2  0  0  0  0
 16 11  1  0  0  0  0
 18 13  1  0  0  0  0
 19 15  1  0  0  0  0
 20 21  2  0  0  0  0
 20 22  1  0  0  0  0
 22  6  1  0  0  0  0
 23 22  1  0  0  0  0
 24 20  1  0  0  0  0
 25 24  1  6  0  0  0
 26 27  1  0  0  0  0
 26 25  1  0  0  0  0
 27 28  1  1  0  0  0
 27 25  1  0  0  0  0
 27 31  1  0  0  0  0
 28 29  1  0  0  0  0
 29 30  1  0  0  0  0
 31 30  1  0  0  0  0
 31 32  1  0  0  0  0
M  END
>  <minimizedAffinity>
-5.051373

$$$$

 OpenBabel03272500593D

 32 35  0  0  1  0  0  0  0  0999 V2000
   39.8030   23.4560   36.2740 C   0  0  0  0  0  0  0  0  0  0  0  0
   39.8590   23.0010   37.5580 C   0  0  0  0  0  0  0  0  0  0  0  0
   38.8660   23.2980   38.4900 C   0  0  0  0  0  0  0  0  0  0  0  0
   37.7560   24.1200   38.0430 C   0  0  0  0  0  0  0  0  0  0  0  0
   37.7610   24.5440   36.7460 C   0  0  0  0  0  0  0  0  0  0  0  0
   38.7190   24.2530   35.8620 C   0  0  0  0  0  0  0  0  0  0  0  0
   40.6780   22.3780   37.9310 H   0  0  0  0  0  0  0  0  0  0  0  0
   38.9510   22.9130   39.5050 H   0  0  0  0  0  0  0  0  0  0  0  0
   37.0680   24.2720   38.8550 H   0  0  0  0  0  0  0  0  0  0  0  0
   36.8490   25.1050   36.6340 H   0  0  0  0  0  0  0  0  0  0  0  0
   42.0920   23.8040   35.4760 C   0  0  0  0  0  0  0  0  0  0  0  0
   40.8950   23.0360   35.4200 C   0  0  0  0  0  0  0  0  0  0  0  0
   40.9420   21.9760   34.5530 C   0  0  0  0  0  0  0  0  0  0  0  0
   42.0430   21.7200   33.8370 N   0  0  0  0  0  0  0  0  0  0  0  0
   43.1410   22.4360   33.8990 C   0  0  0  0  0  0  0  0  0  0  0  0
   43.1560   23.4740   34.7180 N   0  0  0  0  0  0  0  0  0  0  0  0
   42.1490   24.6710   36.1400 H   0  0  0  0  0  0  0  0  0  0  0  0
   40.0030   21.4120   34.5400 H   0  0  0  0  0  0  0  0  0  0  0  0
   43.9770   22.1430   33.2770 H   0  0  0  0  0  0  0  0  0  0  0  0
   39.1810   26.1180   34.5200 C   0  0  0  0  0  0  0  0  0  0  0  0
   39.4980   26.7250   35.6100 O   0  0  0  0  0  0  0  0  0  0  0  0
   38.6830   24.7290   34.5760 N   0  0  0  0  0  0  0  0  0  0  0  0
   38.3640   24.2360   33.7260 H   0  0  0  0  0  0  0  0  0  0  0  0
   39.2990   26.7480   33.2710 O   0  0  0  0  0  0  0  0  0  0  0  0
   38.2470   27.2900   32.6000 C   0  0  2  0  0  3  0  0  0  0  0  0
   37.0860   27.0360   33.0370 O   0  0  0  0  0  0  0  0  0  0  0  0
   37.1560   27.8500   31.9060 N   0  0  1  0  0  4  0  0  0  0  0  0
   35.8150   28.2550   32.2310 C   0  0  0  0  0  2  0  0  0  0  0  0
   35.6850   29.5870   31.5090 C   0  0  0  0  0  2  0  0  0  0  0  0
   36.6190   29.5180   30.3260 C   0  0  0  0  0  2  0  0  0  0  0  0
   37.2370   28.1630   30.4670 C   0  0  0  0  0  3  0  0  0  0  0  0
   38.2850   28.1220   30.1110 H   0  0  0  0  0  0  0  0  0  0  0  0
  1  2  1  0  0  0  0
  2  7  1  0  0  0  0
  2  3  2  0  0  0  0
  3  8  1  0  0  0  0
  4  3  1  0  0  0  0
  4  9  1  0  0  0  0
  5  4  2  0  0  0  0
  6  1  2  0  0  0  0
  6  5  1  0  0  0  0
 10  5  1  0  0  0  0
 11 17  1  0  0  0  0
 12 11  1  0  0  0  0
 12  1  1  0  0  0  0
 13 12  2  0  0  0  0
 14 15  2  0  0  0  0
 14 13  1  0  0  0  0
 15 16  1  0  0  0  0
 16 11  2  0  0  0  0
 18 13  1  0  0  0  0
 19 15  1  0  0  0  0
 20 22  1  0  0  0  0
 20 21  2  0  0  0  0
 22  6  1  0  0  0  0
 23 22  1  0  0  0  0
 24 20  1  0  0  0  0
 25 26  1  0  0  0  0
 25 24  1  6  0  0  0
 27 28  1  1  0  0  0
 27 25  1  0  0  0  0
 27 26  1  0  0  0  0
 29 28  1  0  0  0  0
 30 31  1  0  0  0  0
 30 29  1  0  0  0  0
 31 27  1  0  0  0  0
 32 31  1  0  0  0  0
M  END
>  <minimizedAffinity>
-5.04478073

$$$$

 OpenBabel03272500593D

 32 35  0  0  1  0  0  0  0  0999 V2000
   37.1140   27.8970   32.8410 C   0  0  0  0  0  0  0  0  0  0  0  0
   36.5030   29.0490   33.2390 C   0  0  0  0  0  0  0  0  0  0  0  0
   35.8830   29.9080   32.3330 C   0  0  0  0  0  0  0  0  0  0  0  0
   35.9090   29.5300   30.9310 C   0  0  0  0  0  0  0  0  0  0  0  0
   36.5370   28.3650   30.5990 C   0  0  0  0  0  0  0  0  0  0  0  0
   37.1290   27.5510   31.4770 C   0  0  0  0  0  0  0  0  0  0  0  0
   36.4610   29.3660   34.2860 H   0  0  0  0  0  0  0  0  0  0  0  0
   35.4070   30.8170   32.6960 H   0  0  0  0  0  0  0  0  0  0  0  0
   35.3980   30.2730   30.3460 H   0  0  0  0  0  0  0  0  0  0  0  0
   36.4120   28.2760   29.5330 H   0  0  0  0  0  0  0  0  0  0  0  0
   39.1050   27.1020   34.0240 C   0  0  0  0  0  0  0  0  0  0  0  0
   37.6860   27.1000   33.9050 C   0  0  0  0  0  0  0  0  0  0  0  0
   37.0400   26.3320   34.8390 C   0  0  0  0  0  0  0  0  0  0  0  0
   37.7260   25.6580   35.7700 N   0  0  0  0  0  0  0  0  0  0  0  0
   39.0350   25.6690   35.8680 C   0  0  0  0  0  0  0  0  0  0  0  0
   39.7140   26.3910   34.9930 N   0  0  0  0  0  0  0  0  0  0  0  0
   39.7060   27.6850   33.3220 H   0  0  0  0  0  0  0  0  0  0  0  0
   35.9520   26.3590   34.7130 H   0  0  0  0  0  0  0  0  0  0  0  0
   39.4920   25.0870   36.6580 H   0  0  0  0  0  0  0  0  0  0  0  0
   36.8260   25.2670   31.0460 C   0  0  0  0  0  0  0  0  0  0  0  0
   35.6110   25.4350   31.4410 O   0  0  0  0  0  0  0  0  0  0  0  0
   37.7680   26.4040   31.0800 N   0  0  0  0  0  0  0  0  0  0  0  0
   38.7630   26.2860   30.8260 H   0  0  0  0  0  0  0  0  0  0  0  0
   37.2780   24.0230   30.5810 O   0  0  0  0  0  0  0  0  0  0  0  0
   36.9510   22.8380   31.1660 C   0  0  1  0  0  3  0  0  0  0  0  0
   37.7450   22.3830   32.0400 O   0  0  0  0  0  0  0  0  0  0  0  0
   36.6130   21.6120   31.7720 N   0  0  1  0  0  4  0  0  0  0  0  0
   36.8650   20.9740   33.0360 C   0  0  0  0  0  2  0  0  0  0  0  0
   35.5060   20.3910   33.3920 C   0  0  0  0  0  2  0  0  0  0  0  0
   34.8040   20.1300   32.0830 C   0  0  0  0  0  2  0  0  0  0  0  0
   35.7970   20.6030   31.0700 C   0  0  0  0  0  3  0  0  0  0  0  0
   35.3270   21.0360   30.1650 H   0  0  0  0  0  0  0  0  0  0  0  0
  1  2  1  0  0  0  0
  1 12  1  0  0  0  0
  2  7  1  0  0  0  0
  3  8  1  0  0  0  0
  3  2  2  0  0  0  0
  4  3  1  0  0  0  0
  5  4  2  0  0  0  0
  5  6  1  0  0  0  0
  6  1  2  0  0  0  0
  9  4  1  0  0  0  0
 10  5  1  0  0  0  0
 11 16  1  0  0  0  0
 12 11  2  0  0  0  0
 12 13  1  0  0  0  0
 13 14  2  0  0  0  0
 14 15  1  0  0  0  0
 15 19  1  0  0  0  0
 16 15  2  0  0  0  0
 17 11  1  0  0  0  0
 18 13  1  0  0  0  0
 20 22  1  0  0  0  0
 20 21  2  0  0  0  0
 22  6  1  0  0  0  0
 23 22  1  0  0  0  0
 24 20  1  0  0  0  0
 25 24  1  1  0  0  0
 25 27  1  0  0  0  0
 25 26  1  0  0  0  0
 27 26  1  0  0  0  0
 27 28  1  1  0  0  0
 28 29  1  0  0  0  0
 30 29  1  0  0  0  0
 31 27  1  0  0  0  0
 31 30  1  0  0  0  0
 32 31  1  0  0  0  0
M  END
>  <minimizedAffinity>
-5.03876686

$$$$
