
 OpenBabel03262520103D

 33 35  0  0  1  0  0  0  0  0999 V2000
   37.4370   31.7880   48.4650 Br  0  0  0  0  0  0  0  0  0  0  0  0
   36.5490   30.9160   47.0040 C   0  0  0  0  0  0  0  0  0  0  0  0
   37.1680   30.8250   45.7760 C   0  0  0  0  0  0  0  0  0  0  0  0
   36.4860   30.1940   44.7700 C   0  0  0  0  0  0  0  0  0  0  0  0
   35.2180   29.6530   44.9420 C   0  0  0  0  0  0  0  0  0  0  0  0
   34.6430   29.7710   46.1940 C   0  0  0  0  0  0  0  0  0  0  0  0
   35.3160   30.4050   47.2200 C   0  0  0  0  0  0  0  0  0  0  0  0
   37.0040   30.1400   43.8160 H   0  0  0  0  0  0  0  0  0  0  0  0
   34.7800   29.1780   44.0750 H   0  0  0  0  0  0  0  0  0  0  0  0
   33.6640   29.3140   46.1920 H   0  0  0  0  0  0  0  0  0  0  0  0
   39.8090   33.1900   44.9020 C   0  0  0  0  0  0  0  0  0  0  0  0
   41.0050   32.4660   45.1100 C   0  0  0  0  0  0  0  0  0  0  0  0
   40.8790   31.1590   45.5520 C   0  0  0  0  0  0  0  0  0  0  0  0
   39.6310   30.6260   45.7690 N   0  0  0  0  0  0  0  0  0  0  0  0
   38.5060   31.3830   45.5490 C   0  0  0  0  0  0  0  0  0  0  0  0
   38.6210   32.6470   45.1200 N   0  0  0  0  0  0  0  0  0  0  0  0
   39.9570   34.2040   44.5580 H   0  0  0  0  0  0  0  0  0  0  0  0
   42.0050   32.8510   44.9500 H   0  0  0  0  0  0  0  0  0  0  0  0
   41.7010   30.4820   45.7550 H   0  0  0  0  0  0  0  0  0  0  0  0
   34.5820   30.4550   48.5020 C   0  0  0  0  0  0  0  0  0  0  0  0
   33.6430   31.0320   48.2730 H   0  0  0  0  0  0  0  0  0  0  0  0
   35.1230   31.0290   49.2670 H   0  0  0  0  0  0  0  0  0  0  0  0
   34.1570   29.1410   49.0330 C   0  0  0  0  0  0  0  0  0  0  0  0
   33.8180   29.3380   50.0990 H   0  0  0  0  0  0  0  0  0  0  0  0
   33.3140   28.6630   48.5610 H   0  0  0  0  0  0  0  0  0  0  0  0
   35.2700   28.2270   49.1230 N   0  0  0  0  0  0  0  0  0  0  0  0
   35.0630   27.2560   48.8770 H   0  0  0  0  0  0  0  0  0  0  0  0
   38.0570   28.3380   49.3810 H   0  0  0  0  0  0  0  0  0  0  0  0
   37.4400   28.9470   49.9320 N   0  0  0  0  0  0  0  0  0  0  0  0
   37.9440   29.1480   51.3000 C   0  0  0  0  0  2  0  0  0  0  0  0
   36.7550   29.7430   52.0350 C   0  0  0  0  0  2  0  0  0  0  0  0
   35.5670   29.5320   51.0880 C   0  0  0  0  0  2  0  0  0  0  0  0
   36.1430   28.4130   50.2210 C   0  0  1  0  0  3  0  0  0  0  0  0
  2  7  1  0  0  0  0
  2  1  1  0  0  0  0
  3  2  2  0  0  0  0
  4  5  2  0  0  0  0
  4  3  1  0  0  0  0
  5  6  1  0  0  0  0
  6  7  2  0  0  0  0
  7 20  1  0  0  0  0
  8  4  1  0  0  0  0
  9  5  1  0  0  0  0
 10  6  1  0  0  0  0
 11 12  2  0  0  0  0
 11 16  1  0  0  0  0
 12 13  1  0  0  0  0
 13 19  1  0  0  0  0
 13 14  2  0  0  0  0
 15 14  1  0  0  0  0
 15  3  1  0  0  0  0
 16 15  2  0  0  0  0
 17 11  1  0  0  0  0
 18 12  1  0  0  0  0
 20 23  1  0  0  0  0
 20 22  1  0  0  0  0
 21 20  1  0  0  0  0
 23 26  1  0  0  0  0
 23 24  1  0  0  0  0
 25 23  1  0  0  0  0
 27 26  1  0  0  0  0
 28 29  1  0  0  0  0
 29 33  1  0  0  0  0
 29 30  1  0  0  0  0
 30 31  1  0  0  0  0
 32 31  1  0  0  0  0
 33 26  1  6  0  0  0
 33 32  1  0  0  0  0
M  END
>  <minimizedAffinity>
-4.36386633

>  <minimizedRMSD>
0.822987258

$$$$
