
     RDKit          3D

 46 49  0  0  0  0  0  0  0  0999 V2000
   35.6847   29.8129   48.4987 C   0  0  0  0  0  0  0  0  0  0  0  0
   35.4709   28.8813   49.4522 C   0  0  0  0  0  0  0  0  0  0  0  0
   34.6743   27.8295   49.2243 C   0  0  0  0  0  0  0  0  0  0  0  0
   34.0734   27.7031   48.0101 N   0  0  0  0  0  0  0  0  0  0  0  0
   34.2920   28.6261   47.0803 C   0  0  0  0  0  0  0  0  0  0  0  0
   35.0889   29.6844   47.3000 N   0  0  0  0  0  0  0  0  0  0  0  0
   32.2632   28.0773   45.8069 C   0  0  0  0  0  0  0  0  0  0  0  0
   33.6257   28.3839   45.8223 C   0  0  0  0  0  0  0  0  0  0  0  0
   34.4155   28.4508   44.6899 C   0  0  0  0  0  0  0  0  0  0  0  0
   33.8481   28.2026   43.4602 C   0  0  0  0  0  0  0  0  0  0  0  0
   32.5101   27.8907   43.3511 C   0  0  0  0  0  0  0  0  0  0  0  0
   31.8129   27.8485   44.5141 C   0  0  0  0  0  0  0  0  0  0  0  0
   31.2760   28.0105   47.1480 S   0  0  0  0  0  0  0  0  0  0  0  0
   30.4684   26.7408   46.7197 O   0  0  0  0  0  0  0  0  0  0  0  0
   30.3575   29.2034   47.0863 O   0  0  0  0  0  0  0  0  0  0  0  0
   30.9777   27.6190   48.6678 C   0  0  0  0  0  0  0  0  0  0  0  0
   30.5398   26.3493   49.1049 F   0  0  0  0  0  0  0  0  0  0  0  0
   29.6858   28.1913   49.0816 F   0  0  0  0  0  0  0  0  0  0  0  0
   31.5480   28.3435   49.7538 F   0  0  0  0  0  0  0  0  0  0  0  0
   37.3138   32.7519   49.9716 C   0  0  0  0  0  0  0  0  0  0  0  0
   38.2494   33.1096   48.9829 C   0  0  0  0  0  0  0  0  0  0  0  0
   38.2971   32.3291   47.8282 C   0  0  0  0  0  0  0  0  0  0  0  0
   37.4415   31.2796   47.7339 N   0  0  0  0  0  0  0  0  0  0  0  0
   36.5463   30.9608   48.7127 C   0  0  0  0  0  0  0  0  0  0  0  0
   36.4960   31.7031   49.8184 N   0  0  0  0  0  0  0  0  0  0  0  0
   35.9510   28.9855   50.4170 H   0  0  0  0  0  0  0  0  0  0  0  0
   34.5078   27.0871   49.9934 H   0  0  0  0  0  0  0  0  0  0  0  0
   35.4678   28.6938   44.7524 H   0  0  0  0  0  0  0  0  0  0  0  0
   34.4765   28.2577   42.5782 H   0  0  0  0  0  0  0  0  0  0  0  0
   32.0349   27.6901   42.4013 H   0  0  0  0  0  0  0  0  0  0  0  0
   30.7467   27.5994   44.4219 H   0  0  0  0  0  0  0  0  0  0  0  0
   37.3124   33.3775   50.8386 H   0  0  0  0  0  0  0  0  0  0  0  0
   38.9326   33.9373   49.0439 H   0  0  0  0  0  0  0  0  0  0  0  0
   39.1593   32.5322   46.7420 N   0  0  0  0  0  0  0  0  0  0  0  0
   39.7522   33.7426   46.2046 C   0  0  0  0  0  0  0  0  0  0  0  0
   41.1531   33.2695   45.8762 C   0  0  0  0  0  0  0  0  0  0  0  0
   40.8920   31.9201   45.2621 C   0  0  0  0  0  0  0  0  0  0  0  0
   39.6255   31.4331   45.9181 C   0  0  1  0  0  0  0  0  0  0  0  0
   39.8443   30.5602   46.5696 H   0  0  0  0  0  0  0  0  0  0  0  0
   39.7562   34.5623   46.9495 H   0  0  0  0  0  0  0  0  0  0  0  0
   39.2810   34.0365   45.2567 H   0  0  0  0  0  0  0  0  0  0  0  0
   41.6738   33.9610   45.1864 H   0  0  0  0  0  0  0  0  0  0  0  0
   41.6695   33.1172   46.8431 H   0  0  0  0  0  0  0  0  0  0  0  0
   40.6899   32.0567   44.1786 H   0  0  0  0  0  0  0  0  0  0  0  0
   41.7290   31.2107   45.4262 H   0  0  0  0  0  0  0  0  0  0  0  0
   38.8555   31.1626   45.1588 H   0  0  0  0  0  0  0  0  0  0  0  0
  1 24  1  0
  1  2  2  0
  3  2  1  0
  4  3  2  0
  5  6  2  0
  5  4  1  0
  6  1  1  0
  7  8  2  0
  7 13  1  0
  8  5  1  0
  9  8  1  0
 10  9  2  0
 11 10  1  0
 11 12  2  0
 12  7  1  0
 13 16  1  0
 14 13  2  0
 15 13  2  0
 16 18  1  0
 16 17  1  0
 16 19  1  0
 21 20  2  0
 22 21  1  0
 23 22  2  0
 23 24  1  0
 24 25  2  0
 25 20  1  0
  2 26  1  0
  3 27  1  0
  9 28  1  0
 10 29  1  0
 11 30  1  0
 12 31  1  0
 20 32  1  0
 21 33  1  0
 34 35  1  0
 35 36  1  0
 36 37  1  0
 37 38  1  0
 38 39  1  1
 38 34  1  0
 35 40  1  0
 35 41  1  0
 36 42  1  0
 36 43  1  0
 37 44  1  0
 37 45  1  0
 38 46  1  0
 22 34  1  0
M  ISO  8  26  14  27  14  28  14  29  14  30  14  31  14  32  14  33  14
M  ISO  1  39  13
M  END
>  <DihAtoms>  (1) 
20,21,33,34

>  <DihDeg>  (1) 
179.99532219988964

$$$$
