
     RDKit          3D

 48 51  0  0  0  0  0  0  0  0999 V2000
   34.8296   28.3572   49.4161 C   0  0  0  0  0  0  0  0  0  0  0  0
   33.5922   28.3056   48.5555 C   0  0  0  0  0  0  0  0  0  0  0  0
   33.6828   28.6937   47.1786 C   0  0  0  0  0  0  0  0  0  0  0  0
   32.0074   28.4560   46.6427 S   0  0  0  0  0  0  0  0  0  0  0  0
   31.4009   27.8715   48.3162 C   0  0  0  0  0  0  0  0  0  0  0  0
   32.4101   27.9340   48.9414 N   0  0  0  0  0  0  0  0  0  0  0  0
   30.0806   27.4507   48.7689 N   0  0  0  0  0  0  0  0  0  0  0  0
   29.2460   26.8369   47.8000 C   0  0  0  0  0  0  0  0  0  0  0  0
   27.7974   26.8012   48.1620 C   0  0  0  0  0  0  0  0  0  0  0  0
   27.4855   27.5634   49.3794 N   0  0  0  0  0  0  0  0  0  0  0  0
   28.3779   27.0434   50.4045 C   0  0  0  0  0  0  0  0  0  0  0  0
   29.7137   27.6812   50.1485 C   0  0  0  0  0  0  0  0  0  0  0  0
   34.9611   29.6425   50.1264 C   0  0  0  0  0  0  0  0  0  0  0  0
   37.4964   32.3043   49.5451 C   0  0  0  0  0  0  0  0  0  0  0  0
   38.2831   31.7727   48.5211 C   0  0  0  0  0  0  0  0  0  0  0  0
   37.9186   30.5102   48.0580 C   0  0  0  0  0  0  0  0  0  0  0  0
   36.8652   29.8516   48.5775 N   0  0  0  0  0  0  0  0  0  0  0  0
   36.1314   30.4246   49.5807 C   0  0  0  0  0  0  0  0  0  0  0  0
   36.4612   31.6353   50.0421 N   0  0  0  0  0  0  0  0  0  0  0  0
   34.7909   27.4970   50.1422 H   0  0  0  0  0  0  0  0  0  0  0  0
   35.7317   28.1412   48.7995 H   0  0  0  0  0  0  0  0  0  0  0  0
   34.5459   29.0272   46.6640 H   0  0  0  0  0  0  0  0  0  0  0  0
   29.3179   27.4638   46.8632 H   0  0  0  0  0  0  0  0  0  0  0  0
   29.5789   25.8240   47.4577 H   0  0  0  0  0  0  0  0  0  0  0  0
   27.1115   27.1445   47.3478 H   0  0  0  0  0  0  0  0  0  0  0  0
   27.5018   25.7489   48.3909 H   0  0  0  0  0  0  0  0  0  0  0  0
   27.7557   28.5564   49.1598 H   0  0  0  0  0  0  0  0  0  0  0  0
   27.9865   27.4285   51.3779 H   0  0  0  0  0  0  0  0  0  0  0  0
   28.4297   25.9352   50.3661 H   0  0  0  0  0  0  0  0  0  0  0  0
   30.4863   27.3631   50.8778 H   0  0  0  0  0  0  0  0  0  0  0  0
   29.5809   28.7812   50.2519 H   0  0  0  0  0  0  0  0  0  0  0  0
   34.0404   30.2594   50.1224 H   0  0  0  0  0  0  0  0  0  0  0  0
   35.1882   29.4575   51.2033 H   0  0  0  0  0  0  0  0  0  0  0  0
   37.7539   33.2812   49.9250 H   0  0  0  0  0  0  0  0  0  0  0  0
   39.1032   32.3348   48.1471 H   0  0  0  0  0  0  0  0  0  0  0  0
   38.6700   29.9095   47.0224 N   0  0  0  0  0  0  0  0  0  0  0  0
   39.9817   30.2803   46.5302 C   0  0  0  0  0  0  0  0  0  0  0  0
   40.6975   28.9433   46.5040 C   0  0  0  0  0  0  0  0  0  0  0  0
   39.6087   27.9927   46.0549 C   0  0  0  0  0  0  0  0  0  0  0  0
   38.2970   28.7722   46.2057 C   0  0  1  0  0  0  0  0  0  0  0  0
   37.4933   28.1743   46.6370 H   0  0  0  0  0  0  0  0  0  0  0  0
   40.5014   31.0185   47.1545 H   0  0  0  0  0  0  0  0  0  0  0  0
   39.8737   30.6420   45.4679 H   0  0  0  0  0  0  0  0  0  0  0  0
   41.0058   28.7525   47.5604 H   0  0  0  0  0  0  0  0  0  0  0  0
   41.5663   28.9614   45.8113 H   0  0  0  0  0  0  0  0  0  0  0  0
   39.5365   27.1051   46.7277 H   0  0  0  0  0  0  0  0  0  0  0  0
   39.8117   27.7502   45.0043 H   0  0  0  0  0  0  0  0  0  0  0  0
   38.0458   29.1549   45.1807 H   0  0  0  0  0  0  0  0  0  0  0  0
  1 13  1  0
  2  6  1  0
  2  1  1  0
  3  2  2  0
  4  3  1  0
  4  5  1  0
  5  7  1  0
  5  6  2  0
  7 12  1  0
  8  9  1  0
  8  7  1  0
  9 10  1  0
 10 11  1  0
 12 11  1  0
 14 19  2  0
 15 14  1  0
 16 15  2  0
 16 17  1  0
 17 18  2  0
 18 19  1  0
 18 13  1  0
  1 20  1  0
  1 21  1  0
  3 22  1  0
  8 23  1  0
  8 24  1  0
  9 25  1  0
  9 26  1  0
 10 27  1  0
 11 28  1  0
 11 29  1  0
 12 30  1  0
 12 31  1  0
 13 32  1  0
 13 33  1  0
 14 34  1  0
 15 35  1  0
 36 37  1  0
 37 38  1  0
 38 39  1  0
 39 40  1  0
 40 41  1  1
 40 36  1  0
 37 42  1  0
 37 43  1  0
 38 44  1  0
 38 45  1  0
 39 46  1  0
 39 47  1  0
 40 48  1  0
 16 36  1  0
M  ISO  8  20   8  21   8  22  14  23  13  24  13  25  13  26  13  27   5
M  ISO  8  28  13  29  13  30  13  31  13  32   8  33   8  34  14  35  14
M  ISO  1  41  13
M  END
>  <DihAtoms>  (1) 
14,15,35,36

>  <DihDeg>  (1) 
0.04947329293345578

$$$$
