
 OpenBabel03272504253D

 39 42  0  0  0  0  0  0  0  0999 V2000
   35.6230   29.6500   48.4450 C   0  0  0  0  0  0  0  0  0  0  0  0
   35.4080   28.7350   49.4140 C   0  0  0  0  0  0  0  0  0  0  0  0
   34.5620   27.7130   49.2250 C   0  0  0  0  0  0  0  0  0  0  0  0
   33.9120   27.6010   48.0350 N   0  0  0  0  0  0  0  0  0  0  0  0
   34.1330   28.5070   47.0890 C   0  0  0  0  0  0  0  0  0  0  0  0
   34.9790   29.5340   47.2690 N   0  0  0  0  0  0  0  0  0  0  0  0
   35.9270   28.8280   50.3600 H   0  0  0  0  0  0  0  0  0  0  0  0
   34.3960   26.9850   50.0070 H   0  0  0  0  0  0  0  0  0  0  0  0
   37.3270   32.6190   49.7620 C   0  0  0  0  0  0  0  0  0  0  0  0
   38.3440   32.8340   48.8130 C   0  0  0  0  0  0  0  0  0  0  0  0
   38.4190   31.9490   47.7370 C   0  0  0  0  0  0  0  0  0  0  0  0
   37.5090   30.9430   47.6770 N   0  0  0  0  0  0  0  0  0  0  0  0
   36.5360   30.7640   48.6160 C   0  0  0  0  0  0  0  0  0  0  0  0
   36.4600   31.6060   49.6450 N   0  0  0  0  0  0  0  0  0  0  0  0
   37.3070   33.3210   50.5690 H   0  0  0  0  0  0  0  0  0  0  0  0
   39.0710   33.6250   48.8480 H   0  0  0  0  0  0  0  0  0  0  0  0
   39.3590   32.0050   46.7000 N   0  0  0  0  0  0  0  0  0  0  0  0
   39.9460   30.9590   45.8840 C   0  0  0  0  0  2  0  0  0  0  0  0
   39.9640   31.6180   44.5200 C   0  0  0  0  0  2  0  0  0  0  0  0
   40.4270   33.0120   44.8520 C   0  0  0  0  0  2  0  0  0  0  0  0
   39.9370   33.2590   46.2560 C   0  0  0  0  0  3  0  0  0  0  0  0
   39.1460   34.0390   46.2520 H   0  0  0  0  0  0  0  0  0  0  0  0
   32.0410   28.0170   45.8970 C   0  0  0  0  0  0  0  0  0  0  0  0
   33.4120   28.2810   45.8590 C   0  0  0  0  0  0  0  0  0  0  0  0
   34.1600   28.3190   44.6970 C   0  0  0  0  0  0  0  0  0  0  0  0
   33.5380   28.0840   43.4910 C   0  0  0  0  0  0  0  0  0  0  0  0
   32.1880   27.8140   43.4340 C   0  0  0  0  0  0  0  0  0  0  0  0
   31.5350   27.7980   44.6230 C   0  0  0  0  0  0  0  0  0  0  0  0
   35.2210   28.5290   44.7170 H   0  0  0  0  0  0  0  0  0  0  0  0
   34.1340   28.1160   42.5850 H   0  0  0  0  0  0  0  0  0  0  0  0
   31.6710   27.6240   42.5040 H   0  0  0  0  0  0  0  0  0  0  0  0
   30.4590   27.5820   44.5730 H   0  0  0  0  0  0  0  0  0  0  0  0
   31.1040   27.9870   47.2750 S   0  0  0  0  0  0  0  0  0  0  0  0
   30.3290   26.6690   46.9430 O   0  0  0  0  0  0  0  0  0  0  0  0
   30.1420   29.1420   47.1860 O   0  0  0  0  0  0  0  0  0  0  0  0
   30.8740   27.6660   48.8230 C   0  0  0  0  0  0  0  0  0  0  0  0
   30.4180   26.4300   49.3330 F   0  0  0  0  0  0  0  0  0  0  0  0
   29.6250   28.2980   49.2790 F   0  0  0  0  0  0  0  0  0  0  0  0
   31.5240   28.4110   49.8480 F   0  0  0  0  0  0  0  0  0  0  0  0
  1 13  1  0  0  0  0
  1  2  1  0  0  0  0
  2  7  1  0  0  0  0
  3  2  2  0  0  0  0
  3  8  1  0  0  0  0
  4  3  1  0  0  0  0
  5  6  1  0  0  0  0
  5  4  2  0  0  0  0
  6  1  2  0  0  0  0
  9 15  1  0  0  0  0
 10 16  1  0  0  0  0
 10  9  2  0  0  0  0
 11 10  1  0  0  0  0
 12 11  2  0  0  0  0
 12 13  1  0  0  0  0
 13 14  2  0  0  0  0
 14  9  1  0  0  0  0
 17 11  1  0  0  0  0
 18 17  1  0  0  0  0
 19 20  1  0  0  0  0
 19 18  1  0  0  0  0
 20 21  1  0  0  0  0
 21 17  1  0  0  0  0
 22 21  1  0  0  0  0
 23 33  1  0  0  0  0
 24 23  1  0  0  0  0
 24  5  1  0  0  0  0
 25 29  1  0  0  0  0
 25 24  2  0  0  0  0
 26 25  1  0  0  0  0
 27 26  2  0  0  0  0
 27 28  1  0  0  0  0
 28 23  2  0  0  0  0
 30 26  1  0  0  0  0
 31 27  1  0  0  0  0
 32 28  1  0  0  0  0
 33 36  1  0  0  0  0
 34 33  2  0  0  0  0
 35 33  2  0  0  0  0
 36 38  1  0  0  0  0
 36 37  1  0  0  0  0
 36 39  1  0  0  0  0
M  END
>  <minimizedAffinity>
-6.73052597

>  <minimizedRMSD>
0.377282053

$$$$
