
 OpenBabel03262520293D

 35 38  0  0  1  0  0  0  0  0999 V2000
   32.3760   28.0570   48.9140 C   0  0  1  0  0  0  0  0  0  0  0  0
   31.2470   28.0160   48.3770 N   0  0  0  0  0  0  0  0  0  0  0  0
   30.1150   27.5340   48.6130 C   0  0  0  0  0  0  0  0  0  0  0  0
   30.2430   26.6650   47.5740 N   0  0  0  0  0  0  0  0  0  0  0  0
   31.5420   26.2770   47.3490 C   0  0  0  0  0  0  0  0  0  0  0  0
   31.6560   25.1710   46.4550 C   0  0  0  0  0  0  0  0  0  0  0  0
   32.9060   24.7100   46.2140 C   0  0  0  0  0  0  0  0  0  0  0  0
   34.0470   25.2180   46.7540 C   0  0  0  0  0  0  0  0  0  0  0  0
   33.7950   26.2790   47.5930 C   0  0  0  0  0  0  0  0  0  0  0  0
   32.6310   26.9450   48.0120 C   0  0  0  0  0  0  0  0  0  0  0  0
   32.2120   27.5340   49.9370 H   0  0  0  0  0  0  0  0  0  0  0  0
   31.1390   28.8150   47.6620 H   0  0  0  0  0  0  0  0  0  0  0  0
   29.2230   28.1930   48.5110 H   0  0  0  0  0  0  0  0  0  0  0  0
   29.9510   26.9850   49.5740 H   0  0  0  0  0  0  0  0  0  0  0  0
   29.3890   26.3690   47.0470 H   0  0  0  0  0  0  0  0  0  0  0  0
   30.8360   24.6900   45.9690 H   0  0  0  0  0  0  0  0  0  0  0  0
   33.0310   23.8630   45.5330 H   0  0  0  0  0  0  0  0  0  0  0  0
   35.0510   24.9010   46.6050 H   0  0  0  0  0  0  0  0  0  0  0  0
   34.6990   26.7190   48.0390 H   0  0  0  0  0  0  0  0  0  0  0  0
   35.8850   28.9660   49.8020 C   0  0  0  0  0  0  0  0  0  0  0  0
   36.1130   29.7550   48.7070 C   0  0  0  0  0  0  0  0  0  0  0  0
   35.0710   29.8800   47.7980 C   0  0  0  0  0  0  0  0  0  0  0  0
   33.9210   29.2110   48.0700 N   0  0  0  0  0  0  0  0  0  0  0  0
   33.7310   28.4440   49.1530 C   0  0  0  0  0  0  0  0  0  0  0  0
   34.7470   28.3880   49.9420 N   0  0  0  0  0  0  0  0  0  0  0  0
   35.2780   30.7220   46.6590 N   0  0  0  0  0  0  0  0  0  0  0  0
   36.6290   28.8080   50.5640 H   0  0  0  0  0  0  0  0  0  0  0  0
   35.3720   31.7340   46.8430 H   0  0  0  0  0  0  0  0  0  0  0  0
   35.3090   30.1820   45.7470 H   0  0  0  0  0  0  0  0  0  0  0  0
   37.3640   30.4140   48.5130 N   0  0  0  0  0  0  0  0  0  0  0  0
   38.1960   30.5740   47.3290 C   0  0  0  0  0  0  0  0  0  0  0  0
   38.3440   32.0790   47.2610 C   0  0  0  0  0  0  0  0  0  0  0  0
   38.5010   32.4390   48.7240 C   0  0  0  0  0  0  0  0  0  0  0  0
   38.1970   31.1410   49.4820 C   0  0  0  0  0  0  0  0  0  0  0  0
   37.6850   31.3490   50.4190 H   0  0  0  0  0  0  0  0  0  0  0  0
  1 24  1  0  0  0  0
  1 11  1  1  0  0  0
  2  3  1  0  0  0  0
  2  1  1  0  0  0  0
  3 14  1  0  0  0  0
  4  3  1  0  0  0  0
  5  4  1  0  0  0  0
  5 10  1  0  0  0  0
  6  5  2  0  0  0  0
  7  6  1  0  0  0  0
  7  8  2  0  0  0  0
  8  9  1  0  0  0  0
  9 10  2  0  0  0  0
  9 19  1  0  0  0  0
 10  1  1  0  0  0  0
 12  2  1  0  0  0  0
 13  3  1  0  0  0  0
 15  4  1  0  0  0  0
 16  6  1  0  0  0  0
 17  7  1  0  0  0  0
 18  8  1  0  0  0  0
 20 25  1  0  0  0  0
 20 27  1  0  0  0  0
 21 20  2  0  0  0  0
 22 23  2  0  0  0  0
 22 21  1  0  0  0  0
 23 24  1  0  0  0  0
 24 25  2  0  0  0  0
 26 28  1  0  0  0  0
 26 22  1  0  0  0  0
 29 26  1  0  0  0  0
 30 21  1  0  0  0  0
 30 34  1  0  0  0  0
 31 30  1  0  0  0  0
 32 31  1  0  0  0  0
 32 33  1  0  0  0  0
 33 34  1  0  0  0  0
 34 35  1  0  0  0  0
M  END
>  <minimizedAffinity>
-6.10890818

>  <minimizedRMSD>
3.00140691

$$$$
