REMARK  Name = 
REMARK  4 active torsions:
REMARK  status: ('A' for Active; 'I' for Inactive)
REMARK    1  A    between atoms: C_1  and  C_2
REMARK    2  A    between atoms: C_1  and  C_13
REMARK    3  A    between atoms: C_13  and  C_18
REMARK    4  A    between atoms: C_16  and  N_36
REMARK                            x       y       z     vdW  Elec       q    Type
REMARK                         _______ _______ _______ _____ _____    ______ ____
ROOT
ATOM      1  C   UNL     1      33.592  28.306  48.556  0.00  0.00    +0.000 A 
ATOM      2  C   UNL     1      33.683  28.694  47.179  0.00  0.00    +0.000 A 
ATOM      3  S   UNL     1      32.007  28.456  46.643  0.00  0.00    +0.000 S 
ATOM      4  C   UNL     1      31.401  27.872  48.316  0.00  0.00    +0.000 A 
ATOM      5  N   UNL     1      32.410  27.934  48.941  0.00  0.00    +0.000 NA
ATOM      6  N   UNL     1      30.081  27.451  48.769  0.00  0.00    +0.000 N 
ATOM      7  C   UNL     1      29.246  26.837  47.800  0.00  0.00    +0.000 C 
ATOM      8  C   UNL     1      27.797  26.801  48.162  0.00  0.00    +0.000 C 
ATOM      9  N   UNL     1      27.485  27.563  49.379  0.00  0.00    +0.000 NA
ATOM     10  C   UNL     1      28.378  27.043  50.404  0.00  0.00    +0.000 C 
ATOM     11  C   UNL     1      29.714  27.681  50.148  0.00  0.00    +0.000 C 
ATOM     12  H   UNL     1      34.546  29.027  46.664  0.00  0.00    +0.000 HD
ATOM     13  H   UNL     1      29.318  27.464  46.863  0.00  0.00    +0.000 HD
ATOM     14  H   UNL     1      29.579  25.824  47.458  0.00  0.00    +0.000 HD
ATOM     15  H   UNL     1      27.111  27.145  47.348  0.00  0.00    +0.000 HD
ATOM     16  H   UNL     1      27.502  25.749  48.391  0.00  0.00    +0.000 HD
ATOM     17  H   UNL     1      27.756  28.556  49.160  0.00  0.00    +0.000 HD
ATOM     18  H   UNL     1      27.986  27.428  51.378  0.00  0.00    +0.000 HD
ATOM     19  H   UNL     1      28.430  25.935  50.366  0.00  0.00    +0.000 HD
ATOM     20  H   UNL     1      30.486  27.363  50.878  0.00  0.00    +0.000 HD
ATOM     21  H   UNL     1      29.581  28.781  50.252  0.00  0.00    +0.000 HD
ENDROOT
BRANCH   1  22
ATOM     22  C   UNL     1      34.830  28.357  49.416  0.00  0.00    +0.000 C 
ATOM     23  H   UNL     1      34.791  27.497  50.142  0.00  0.00    +0.000 HD
ATOM     24  H   UNL     1      35.732  28.141  48.800  0.00  0.00    +0.000 HD
BRANCH  22  25
ATOM     25  C   UNL     1      34.961  29.642  50.126  0.00  0.00    +0.000 C 
ATOM     26  H   UNL     1      34.040  30.259  50.122  0.00  0.00    +0.000 HD
ATOM     27  H   UNL     1      35.188  29.457  51.203  0.00  0.00    +0.000 HD
BRANCH  25  32
ATOM     28  C   UNL     1      37.496  32.304  49.545  0.00  0.00    +0.000 A 
ATOM     29  C   UNL     1      38.283  31.773  48.521  0.00  0.00    +0.000 A 
ATOM     30  C   UNL     1      37.919  30.510  48.058  0.00  0.00    +0.000 A 
ATOM     31  N   UNL     1      36.865  29.852  48.578  0.00  0.00    +0.000 NA
ATOM     32  C   UNL     1      36.131  30.425  49.581  0.00  0.00    +0.000 A 
ATOM     33  N   UNL     1      36.461  31.635  50.042  0.00  0.00    +0.000 NA
ATOM     34  H   UNL     1      37.754  33.281  49.925  0.00  0.00    +0.000 HD
ATOM     35  H   UNL     1      39.103  32.335  48.147  0.00  0.00    +0.000 HD
BRANCH  30  36
ATOM     36  N   UNL     1      38.670  29.910  47.022  0.00  0.00    +0.000 N 
ATOM     37  C   UNL     1      38.468  28.618  46.396  0.00  0.00    +0.000 C 
ATOM     38  C   UNL     1      38.538  28.969  44.922  0.00  0.00    +0.000 C 
ATOM     39  C   UNL     1      39.620  30.026  44.883  0.00  0.00    +0.000 C 
ATOM     40  C   UNL     1      39.828  30.453  46.341  0.00  0.00    +0.000 C 
ATOM     41  H   UNL     1      39.932  31.532  46.459  0.00  0.00    +0.000 HD
ENDBRANCH  30  36
ENDBRANCH  25  32
ENDBRANCH  22  25
ENDBRANCH   1  22
TORSDOF 4
