
 OpenBabel03272507463D

 43 47  0  0  0  0  0  0  0  0999 V2000
   32.6250   28.2070   47.4660 N   0  0  0  0  0  0  0  0  0  0  0  0
   33.2310   27.7400   48.6670 C   0  0  0  0  0  0  0  0  0  0  0  0
   34.4120   28.4910   49.1520 C   0  0  0  0  0  0  0  0  0  0  0  0
   35.3440   28.9770   48.1350 C   0  0  0  0  0  0  0  0  0  0  0  0
   34.6290   29.3970   46.8380 C   0  0  0  0  0  0  0  0  0  0  0  0
   33.6590   28.2640   46.4690 C   0  0  0  0  0  0  0  0  0  0  0  0
   33.5170   26.6670   48.5040 H   0  0  0  0  0  0  0  0  0  0  0  0
   32.4470   27.7180   49.4550 H   0  0  0  0  0  0  0  0  0  0  0  0
   33.9240   29.4180   49.6050 H   0  0  0  0  0  0  0  0  0  0  0  0
   34.8970   27.9680   49.9700 H   0  0  0  0  0  0  0  0  0  0  0  0
   36.0230   28.1550   47.7770 H   0  0  0  0  0  0  0  0  0  0  0  0
   35.3820   29.4270   46.0330 H   0  0  0  0  0  0  0  0  0  0  0  0
   34.0930   30.3340   47.0230 H   0  0  0  0  0  0  0  0  0  0  0  0
   34.2470   27.3490   46.3560 H   0  0  0  0  0  0  0  0  0  0  0  0
   33.2130   28.6000   45.4940 H   0  0  0  0  0  0  0  0  0  0  0  0
   35.9190   30.6840   49.8000 C   0  0  0  0  0  0  0  0  0  0  0  0
   36.1390   30.1650   48.5320 C   0  0  0  0  0  0  0  0  0  0  0  0
   37.0200   30.7000   47.6300 C   0  0  0  0  0  0  0  0  0  0  0  0
   37.7350   31.8350   48.0050 C   0  0  0  0  0  0  0  0  0  0  0  0
   37.5140   32.3530   49.2670 C   0  0  0  0  0  0  0  0  0  0  0  0
   36.6210   31.8120   50.1880 C   0  0  0  0  0  0  0  0  0  0  0  0
   38.3140   33.4880   49.4690 O   0  0  0  0  0  0  0  0  0  0  0  0
   39.2920   33.4180   48.4300 C   0  0  0  0  0  0  0  0  0  0  0  0
   38.6890   32.6560   47.4130 O   0  0  0  0  0  0  0  0  0  0  0  0
   35.2670   30.3400   50.5880 H   0  0  0  0  0  0  0  0  0  0  0  0
   37.1670   30.2790   46.6650 H   0  0  0  0  0  0  0  0  0  0  0  0
   36.4980   32.2740   51.1690 H   0  0  0  0  0  0  0  0  0  0  0  0
   39.5930   34.4000   48.0480 H   0  0  0  0  0  0  0  0  0  0  0  0
   40.2200   32.9410   48.8410 H   0  0  0  0  0  0  0  0  0  0  0  0
   31.2550   28.5600   47.2550 C   0  0  0  0  0  0  0  0  0  0  0  0
   30.7540   29.2920   46.1820 C   0  0  0  0  0  0  0  0  0  0  0  0
   29.3920   29.5360   46.1490 C   0  0  0  0  0  0  0  0  0  0  0  0
   28.6150   29.0520   47.1550 N   0  0  0  0  0  0  0  0  0  0  0  0
   29.1190   28.3480   48.1800 C   0  0  0  0  0  0  0  0  0  0  0  0
   30.4340   28.1100   48.2190 N   0  0  0  0  0  0  0  0  0  0  0  0
   31.4820   29.6060   45.4690 H   0  0  0  0  0  0  0  0  0  0  0  0
   29.0190   30.1010   45.3190 H   0  0  0  0  0  0  0  0  0  0  0  0
   28.2150   27.8880   49.1820 N   0  0  0  0  0  0  0  0  0  0  0  0
   28.4200   26.6720   49.9510 C   0  0  0  0  0  2  0  0  0  0  0  0
   28.0380   27.1540   51.3350 C   0  0  0  0  0  2  0  0  0  0  0  0
   27.1190   28.3400   51.1350 C   0  0  0  0  0  2  0  0  0  0  0  0
   26.9690   28.4830   49.6340 C   0  0  0  0  0  3  0  0  0  0  0  0
   26.9170   29.5420   49.2990 H   0  0  0  0  0  0  0  0  0  0  0  0
  1  2  1  0  0  0  0
  2  3  1  0  0  0  0
  2  8  1  0  0  0  0
  3  9  1  0  0  0  0
  3 10  1  0  0  0  0
  4 17  1  0  0  0  0
  4  3  1  0  0  0  0
  5 13  1  0  0  0  0
  5  4  1  0  0  0  0
  6  5  1  0  0  0  0
  6  1  1  0  0  0  0
  7  2  1  0  0  0  0
 11  4  1  0  0  0  0
 12  5  1  0  0  0  0
 14  6  1  0  0  0  0
 15  6  1  0  0  0  0
 16 21  1  0  0  0  0
 16 25  1  0  0  0  0
 17 16  2  0  0  0  0
 18 19  2  0  0  0  0
 18 17  1  0  0  0  0
 19 20  1  0  0  0  0
 20 22  1  0  0  0  0
 20 21  2  0  0  0  0
 21 27  1  0  0  0  0
 23 29  1  0  0  0  0
 23 22  1  0  0  0  0
 24 19  1  0  0  0  0
 24 23  1  0  0  0  0
 26 18  1  0  0  0  0
 28 23  1  0  0  0  0
 30  1  1  0  0  0  0
 30 35  1  0  0  0  0
 31 30  2  0  0  0  0
 32 31  1  0  0  0  0
 32 33  2  0  0  0  0
 33 34  1  0  0  0  0
 34 35  2  0  0  0  0
 34 38  1  0  0  0  0
 36 31  1  0  0  0  0
 37 32  1  0  0  0  0
 38 42  1  0  0  0  0
 38 39  1  0  0  0  0
 39 40  1  0  0  0  0
 41 40  1  0  0  0  0
 42 41  1  0  0  0  0
 43 42  1  0  0  0  0
M  END
>  <minimizedAffinity>
-7.59828138

>  <minimizedRMSD>
0.216334954

$$$$
