
 OpenBabel03272507463D

 43 47  0  0  0  0  0  0  0  0999 V2000
   32.2080   28.1320   47.4020 N   0  0  0  0  0  0  0  0  0  0  0  0
   32.7870   27.6080   48.5920 C   0  0  0  0  0  0  0  0  0  0  0  0
   34.0070   28.2840   49.0930 C   0  0  0  0  0  0  0  0  0  0  0  0
   34.9640   28.7420   48.0870 C   0  0  0  0  0  0  0  0  0  0  0  0
   34.2730   29.2280   46.8000 C   0  0  0  0  0  0  0  0  0  0  0  0
   33.2450   28.1560   46.4070 C   0  0  0  0  0  0  0  0  0  0  0  0
   33.0160   26.5250   48.4060 H   0  0  0  0  0  0  0  0  0  0  0  0
   32.0030   27.6100   49.3790 H   0  0  0  0  0  0  0  0  0  0  0  0
   33.5680   29.2250   49.5670 H   0  0  0  0  0  0  0  0  0  0  0  0
   34.4620   27.7170   49.9000 H   0  0  0  0  0  0  0  0  0  0  0  0
   35.5990   27.8930   47.7110 H   0  0  0  0  0  0  0  0  0  0  0  0
   35.0280   29.2350   45.9960 H   0  0  0  0  0  0  0  0  0  0  0  0
   33.7880   30.1880   47.0050 H   0  0  0  0  0  0  0  0  0  0  0  0
   33.7830   27.2140   46.2730 H   0  0  0  0  0  0  0  0  0  0  0  0
   32.8180   28.5370   45.4390 H   0  0  0  0  0  0  0  0  0  0  0  0
   35.7520   30.2660   49.8400 C   0  0  0  0  0  0  0  0  0  0  0  0
   35.8210   29.8760   48.5100 C   0  0  0  0  0  0  0  0  0  0  0  0
   36.6070   30.4940   47.5730 C   0  0  0  0  0  0  0  0  0  0  0  0
   37.3810   31.5790   47.9780 C   0  0  0  0  0  0  0  0  0  0  0  0
   37.3110   31.9670   49.3020 C   0  0  0  0  0  0  0  0  0  0  0  0
   36.5140   31.3420   50.2590 C   0  0  0  0  0  0  0  0  0  0  0  0
   38.1500   33.0690   49.5270 O   0  0  0  0  0  0  0  0  0  0  0  0
   39.0060   33.0970   48.3830 C   0  0  0  0  0  0  0  0  0  0  0  0
   38.2800   32.4470   47.3680 O   0  0  0  0  0  0  0  0  0  0  0  0
   35.1840   29.8490   50.6570 H   0  0  0  0  0  0  0  0  0  0  0  0
   36.6390   30.1720   46.5610 H   0  0  0  0  0  0  0  0  0  0  0  0
   36.5090   31.7030   51.2880 H   0  0  0  0  0  0  0  0  0  0  0  0
   39.2820   34.1100   48.0700 H   0  0  0  0  0  0  0  0  0  0  0  0
   39.9640   32.5730   48.6380 H   0  0  0  0  0  0  0  0  0  0  0  0
   30.8590   28.5630   47.1990 C   0  0  0  0  0  0  0  0  0  0  0  0
   30.4040   29.3680   46.1590 C   0  0  0  0  0  0  0  0  0  0  0  0
   29.0560   29.6810   46.1280 C   0  0  0  0  0  0  0  0  0  0  0  0
   28.2470   29.1900   47.1060 N   0  0  0  0  0  0  0  0  0  0  0  0
   28.7070   28.4150   48.1000 C   0  0  0  0  0  0  0  0  0  0  0  0
   30.0080   28.1100   48.1360 N   0  0  0  0  0  0  0  0  0  0  0  0
   31.1530   29.6770   45.4660 H   0  0  0  0  0  0  0  0  0  0  0  0
   28.7190   30.3010   45.3230 H   0  0  0  0  0  0  0  0  0  0  0  0
   27.7730   27.9550   49.0740 N   0  0  0  0  0  0  0  0  0  0  0  0
   27.7260   26.5850   49.5560 C   0  0  0  0  0  2  0  0  0  0  0  0
   27.5400   26.8210   51.0400 C   0  0  0  0  0  2  0  0  0  0  0  0
   26.9160   28.1940   51.1780 C   0  0  0  0  0  2  0  0  0  0  0  0
   26.7270   28.6940   49.7600 C   0  0  0  0  0  3  0  0  0  0  0  0
   26.9090   29.7840   49.6530 H   0  0  0  0  0  0  0  0  0  0  0  0
  1  2  1  0  0  0  0
  2  3  1  0  0  0  0
  2  8  1  0  0  0  0
  3  9  1  0  0  0  0
  3 10  1  0  0  0  0
  4 17  1  0  0  0  0
  4  3  1  0  0  0  0
  5 13  1  0  0  0  0
  5  4  1  0  0  0  0
  6  5  1  0  0  0  0
  6  1  1  0  0  0  0
  7  2  1  0  0  0  0
 11  4  1  0  0  0  0
 12  5  1  0  0  0  0
 14  6  1  0  0  0  0
 15  6  1  0  0  0  0
 16 21  1  0  0  0  0
 16 25  1  0  0  0  0
 17 16  2  0  0  0  0
 18 19  2  0  0  0  0
 18 17  1  0  0  0  0
 19 20  1  0  0  0  0
 20 22  1  0  0  0  0
 20 21  2  0  0  0  0
 21 27  1  0  0  0  0
 23 29  1  0  0  0  0
 23 22  1  0  0  0  0
 24 19  1  0  0  0  0
 24 23  1  0  0  0  0
 26 18  1  0  0  0  0
 28 23  1  0  0  0  0
 30  1  1  0  0  0  0
 30 35  1  0  0  0  0
 31 30  2  0  0  0  0
 32 31  1  0  0  0  0
 32 33  2  0  0  0  0
 33 34  1  0  0  0  0
 34 35  2  0  0  0  0
 34 38  1  0  0  0  0
 36 31  1  0  0  0  0
 37 32  1  0  0  0  0
 38 39  1  0  0  0  0
 38 42  1  0  0  0  0
 39 40  1  0  0  0  0
 40 41  1  0  0  0  0
 42 41  1  0  0  0  0
 43 42  1  0  0  0  0
M  END
>  <minimizedAffinity>
-7.7273097

>  <minimizedRMSD>
0.534956038

$$$$
