
 OpenBabel03272507463D

 43 47  0  0  0  0  0  0  0  0999 V2000
   32.6790   28.1880   47.4350 N   0  0  0  0  0  0  0  0  0  0  0  0
   33.3200   27.6860   48.6020 C   0  0  0  0  0  0  0  0  0  0  0  0
   34.4930   28.4430   49.0970 C   0  0  0  0  0  0  0  0  0  0  0  0
   35.3930   28.9940   48.0830 C   0  0  0  0  0  0  0  0  0  0  0  0
   34.6420   29.4510   46.8200 C   0  0  0  0  0  0  0  0  0  0  0  0
   33.6910   28.3120   46.4220 C   0  0  0  0  0  0  0  0  0  0  0  0
   33.6270   26.6270   48.3880 H   0  0  0  0  0  0  0  0  0  0  0  0
   32.5530   27.6110   49.4040 H   0  0  0  0  0  0  0  0  0  0  0  0
   33.9930   29.3370   49.5990 H   0  0  0  0  0  0  0  0  0  0  0  0
   35.0060   27.8960   49.8820 H   0  0  0  0  0  0  0  0  0  0  0  0
   36.0830   28.2040   47.6780 H   0  0  0  0  0  0  0  0  0  0  0  0
   35.3770   29.5340   46.0030 H   0  0  0  0  0  0  0  0  0  0  0  0
   34.0890   30.3670   47.0550 H   0  0  0  0  0  0  0  0  0  0  0  0
   34.2980   27.4170   46.2580 H   0  0  0  0  0  0  0  0  0  0  0  0
   33.2180   28.6790   45.4710 H   0  0  0  0  0  0  0  0  0  0  0  0
   35.9110   30.6850   49.7830 C   0  0  0  0  0  0  0  0  0  0  0  0
   36.1690   30.1820   48.5160 C   0  0  0  0  0  0  0  0  0  0  0  0
   37.0690   30.7340   47.6440 C   0  0  0  0  0  0  0  0  0  0  0  0
   37.7660   31.8700   48.0520 C   0  0  0  0  0  0  0  0  0  0  0  0
   37.5070   32.3710   49.3130 C   0  0  0  0  0  0  0  0  0  0  0  0
   36.5940   31.8130   50.2040 C   0  0  0  0  0  0  0  0  0  0  0  0
   38.2930   33.5080   49.5500 O   0  0  0  0  0  0  0  0  0  0  0  0
   39.3000   33.4580   48.5380 C   0  0  0  0  0  0  0  0  0  0  0  0
   38.7290   32.7040   47.4950 O   0  0  0  0  0  0  0  0  0  0  0  0
   35.2400   30.3270   50.5490 H   0  0  0  0  0  0  0  0  0  0  0  0
   37.2460   30.3260   46.6790 H   0  0  0  0  0  0  0  0  0  0  0  0
   36.4410   32.2620   51.1860 H   0  0  0  0  0  0  0  0  0  0  0  0
   39.6030   34.4460   48.1750 H   0  0  0  0  0  0  0  0  0  0  0  0
   40.2190   32.9820   48.9680 H   0  0  0  0  0  0  0  0  0  0  0  0
   31.2970   28.5170   47.2660 C   0  0  0  0  0  0  0  0  0  0  0  0
   30.7600   29.2930   46.2430 C   0  0  0  0  0  0  0  0  0  0  0  0
   29.3910   29.5040   46.2450 C   0  0  0  0  0  0  0  0  0  0  0  0
   28.6440   28.9470   47.2370 N   0  0  0  0  0  0  0  0  0  0  0  0
   29.1840   28.2020   48.2130 C   0  0  0  0  0  0  0  0  0  0  0  0
   30.5040   27.9950   48.2170 N   0  0  0  0  0  0  0  0  0  0  0  0
   31.4670   29.6630   45.5360 H   0  0  0  0  0  0  0  0  0  0  0  0
   28.9900   30.1030   45.4530 H   0  0  0  0  0  0  0  0  0  0  0  0
   28.3090   27.6660   49.2040 N   0  0  0  0  0  0  0  0  0  0  0  0
   28.7610   26.8430   50.3130 C   0  0  0  0  0  2  0  0  0  0  0  0
   27.9520   27.4390   51.4460 C   0  0  0  0  0  2  0  0  0  0  0  0
   26.7390   28.0840   50.8090 C   0  0  0  0  0  2  0  0  0  0  0  0
   26.8670   27.8060   49.3250 C   0  0  0  0  0  3  0  0  0  0  0  0
   26.5190   28.6490   48.6900 H   0  0  0  0  0  0  0  0  0  0  0  0
  1  2  1  0  0  0  0
  2  3  1  0  0  0  0
  2  8  1  0  0  0  0
  3  9  1  0  0  0  0
  3 10  1  0  0  0  0
  4 17  1  0  0  0  0
  4  3  1  0  0  0  0
  5 13  1  0  0  0  0
  5  4  1  0  0  0  0
  6  5  1  0  0  0  0
  6  1  1  0  0  0  0
  7  2  1  0  0  0  0
 11  4  1  0  0  0  0
 12  5  1  0  0  0  0
 14  6  1  0  0  0  0
 15  6  1  0  0  0  0
 16 21  1  0  0  0  0
 16 25  1  0  0  0  0
 17 16  2  0  0  0  0
 18 19  2  0  0  0  0
 18 17  1  0  0  0  0
 19 20  1  0  0  0  0
 20 22  1  0  0  0  0
 20 21  2  0  0  0  0
 21 27  1  0  0  0  0
 23 29  1  0  0  0  0
 23 22  1  0  0  0  0
 24 19  1  0  0  0  0
 24 23  1  0  0  0  0
 26 18  1  0  0  0  0
 28 23  1  0  0  0  0
 30  1  1  0  0  0  0
 30 35  1  0  0  0  0
 31 32  1  0  0  0  0
 31 30  2  0  0  0  0
 32 33  2  0  0  0  0
 33 34  1  0  0  0  0
 34 35  2  0  0  0  0
 34 38  1  0  0  0  0
 36 31  1  0  0  0  0
 37 32  1  0  0  0  0
 38 42  1  0  0  0  0
 38 39  1  0  0  0  0
 39 40  1  0  0  0  0
 41 40  1  0  0  0  0
 42 41  1  0  0  0  0
 43 42  1  0  0  0  0
M  END
>  <minimizedAffinity>
-7.83257437

>  <minimizedRMSD>
0.171257719

$$$$
