
     RDKit          3D

 50 54  0  0  0  0  0  0  0  0999 V2000
   32.7123   28.2090   47.4315 N   0  0  0  0  0  0  0  0  0  0  0  0
   33.3050   27.7568   48.6442 C   0  0  0  0  0  0  0  0  0  0  0  0
   34.4733   28.5213   49.1402 C   0  0  0  0  0  0  0  0  0  0  0  0
   35.4152   29.0069   48.1323 C   0  0  0  0  0  0  0  0  0  0  0  0
   34.7145   29.4113   46.8218 C   0  0  0  0  0  0  0  0  0  0  0  0
   33.7596   28.2669   46.4492 C   0  0  0  0  0  0  0  0  0  0  0  0
   35.9386   30.7429   49.7836 C   0  0  0  0  0  0  0  0  0  0  0  0
   36.1952   30.2044   48.5308 C   0  0  0  0  0  0  0  0  0  0  0  0
   37.0967   30.7288   47.6435 C   0  0  0  0  0  0  0  0  0  0  0  0
   37.7982   31.8732   48.0203 C   0  0  0  0  0  0  0  0  0  0  0  0
   37.5412   32.4100   49.2674 C   0  0  0  0  0  0  0  0  0  0  0  0
   36.6264   31.8797   50.1729 C   0  0  0  0  0  0  0  0  0  0  0  0
   38.3311   33.5509   49.4716 O   0  0  0  0  0  0  0  0  0  0  0  0
   39.3366   33.4692   48.4606 C   0  0  0  0  0  0  0  0  0  0  0  0
   38.7637   32.6885   47.4401 O   0  0  0  0  0  0  0  0  0  0  0  0
   31.3416   28.5491   47.1977 C   0  0  0  0  0  0  0  0  0  0  0  0
   30.8628   29.3580   46.1723 C   0  0  0  0  0  0  0  0  0  0  0  0
   29.4965   29.5745   46.1067 C   0  0  0  0  0  0  0  0  0  0  0  0
   28.6962   28.9915   47.0386 N   0  0  0  0  0  0  0  0  0  0  0  0
   29.1795   28.2137   48.0205 C   0  0  0  0  0  0  0  0  0  0  0  0
   30.4977   28.0016   48.0885 N   0  0  0  0  0  0  0  0  0  0  0  0
   33.6023   26.6853   48.4943 H   0  0  0  0  0  0  0  0  0  0  0  0
   32.5104   27.7341   49.4208 H   0  0  0  0  0  0  0  0  0  0  0  0
   33.9712   29.4472   49.5794 H   0  0  0  0  0  0  0  0  0  0  0  0
   34.9495   28.0075   49.9687 H   0  0  0  0  0  0  0  0  0  0  0  0
   36.1065   28.1875   47.7906 H   0  0  0  0  0  0  0  0  0  0  0  0
   35.4793   29.4408   46.0278 H   0  0  0  0  0  0  0  0  0  0  0  0
   34.1690   30.3445   46.9924 H   0  0  0  0  0  0  0  0  0  0  0  0
   34.3572   27.3556   46.3511 H   0  0  0  0  0  0  0  0  0  0  0  0
   33.3250   28.5924   45.4652 H   0  0  0  0  0  0  0  0  0  0  0  0
   35.2665   30.4091   50.5602 H   0  0  0  0  0  0  0  0  0  0  0  0
   37.2722   30.2927   46.6906 H   0  0  0  0  0  0  0  0  0  0  0  0
   36.4747   32.3569   51.1419 H   0  0  0  0  0  0  0  0  0  0  0  0
   39.6441   34.4459   48.0710 H   0  0  0  0  0  0  0  0  0  0  0  0
   40.2551   33.0020   48.9035 H   0  0  0  0  0  0  0  0  0  0  0  0
   31.6077   29.7461   45.5160 H   0  0  0  0  0  0  0  0  0  0  0  0
   29.1412   30.1988   45.3129 H   0  0  0  0  0  0  0  0  0  0  0  0
   28.2515   27.6518   48.9448 N   0  0  0  0  0  0  0  0  0  0  0  0
   28.6412   26.7944   50.0512 C   0  0  0  0  0  0  0  0  0  0  0  0
   27.7726   27.3587   51.1570 C   0  0  0  0  0  0  0  0  0  0  0  0
   26.5975   28.0276   50.4749 C   0  0  0  0  0  0  0  0  0  0  0  0
   26.8060   27.7948   48.9927 C   0  0  1  0  0  0  0  0  0  0  0  0
   26.4953   28.6584   48.3661 H   0  0  0  0  0  0  0  0  0  0  0  0
   29.7181   26.8506   50.2628 H   0  0  0  0  0  0  0  0  0  0  0  0
   28.2846   25.7560   49.8859 H   0  0  0  0  0  0  0  0  0  0  0  0
   28.4153   28.1449   51.6471 H   0  0  0  0  0  0  0  0  0  0  0  0
   27.4564   26.5918   51.8949 H   0  0  0  0  0  0  0  0  0  0  0  0
   25.6251   27.6521   50.8451 H   0  0  0  0  0  0  0  0  0  0  0  0
   26.6787   29.1447   50.6060 H   0  0  0  0  0  0  0  0  0  0  0  0
   26.2970   26.8564   48.6702 H   0  0  0  0  0  0  0  0  0  0  0  0
  1  2  1  0
  2  3  1  0
  4  8  1  0
  4  3  1  0
  5  4  1  0
  6  5  1  0
  6  1  1  0
  7 12  2  0
  8  7  1  0
  9 10  1  0
  9  8  2  0
 10 11  2  0
 11 13  1  0
 11 12  1  0
 14 13  1  0
 15 10  1  0
 15 14  1  0
 16  1  1  0
 16 21  1  0
 17 16  2  0
 18 17  1  0
 18 19  2  0
 19 20  1  0
 20 21  2  0
  2 22  1  0
  2 23  1  0
  3 24  1  0
  3 25  1  0
  4 26  1  0
  5 27  1  0
  5 28  1  0
  6 29  1  0
  6 30  1  0
  7 31  1  0
  9 32  1  0
 12 33  1  0
 14 34  1  0
 14 35  1  0
 17 36  1  0
 18 37  1  0
 38 39  1  0
 39 40  1  0
 40 41  1  0
 41 42  1  0
 42 43  1  6
 42 38  1  0
 39 44  1  0
 39 45  1  0
 40 46  1  0
 40 47  1  0
 41 48  1  0
 41 49  1  0
 42 50  1  0
 20 38  1  0
M  ISO  8  22  13  23  13  24  13  25  13  26  13  27  13  28  13  29  13
M  ISO  8  30  13  31  14  32  14  33  14  34  13  35  13  36  14  37  14
M  ISO  1  43  13
M  END
>  <DihAtoms>  (1) 
18,19,37,38

>  <DihDeg>  (1) 
-0.0008295030363285013

$$$$
