
 OpenBabel03272508433D

 24 26  0  0  0  0  0  0  0  0999 V2000
   34.2670   28.5900   48.6050 C   0  0  0  0  0  0  0  0  0  0  0  0
   34.5750   28.4190   49.9360 C   0  0  0  0  0  0  0  0  0  0  0  0
   35.7790   29.1010   50.0590 C   0  0  0  0  0  0  0  0  0  0  0  0
   36.1350   29.6340   48.8450 C   0  0  0  0  0  0  0  0  0  0  0  0
   35.2100   29.3130   47.9860 O   0  0  0  0  0  0  0  0  0  0  0  0
   34.0540   27.9060   50.7100 H   0  0  0  0  0  0  0  0  0  0  0  0
   36.3430   29.1840   51.0010 H   0  0  0  0  0  0  0  0  0  0  0  0
   37.3210   30.3940   48.6270 N   0  0  0  0  0  0  0  0  0  0  0  0
   38.1000   31.0550   49.6610 C   0  0  0  0  0  2  0  0  0  0  0  0
   38.3710   32.3790   48.9830 C   0  0  0  0  0  2  0  0  0  0  0  0
   38.1370   32.1880   47.5000 C   0  0  0  0  0  2  0  0  0  0  0  0
   38.0120   30.6840   47.3800 C   0  0  0  0  0  3  0  0  0  0  0  0
   39.0450   30.2790   47.3990 H   0  0  0  0  0  0  0  0  0  0  0  0
   33.0660   28.0530   47.9470 C   0  0  0  0  0  0  0  0  0  0  0  0
   31.9530   28.5150   48.3010 O   0  0  0  0  0  0  0  0  0  0  0  0
   32.3850   26.1090   44.9590 C   0  0  0  0  0  0  0  0  0  0  0  0
   33.3540   25.1140   44.9750 C   0  0  0  0  0  0  0  0  0  0  0  0
   34.2610   25.1070   46.0320 C   0  0  0  0  0  0  0  0  0  0  0  0
   34.1400   26.0670   46.9720 N   0  0  0  0  0  0  0  0  0  0  0  0
   33.1800   27.0280   46.9260 C   0  0  0  0  0  0  0  0  0  0  0  0
   32.3090   27.0360   45.9120 N   0  0  0  0  0  0  0  0  0  0  0  0
   31.7240   26.0420   44.1060 H   0  0  0  0  0  0  0  0  0  0  0  0
   33.4300   24.3540   44.2090 H   0  0  0  0  0  0  0  0  0  0  0  0
   35.0510   24.3620   46.1220 H   0  0  0  0  0  0  0  0  0  0  0  0
  1  2  2  0  0  0  0
  2  3  1  0  0  0  0
  2  6  1  0  0  0  0
  3  7  1  0  0  0  0
  4  3  2  0  0  0  0
  5  1  1  0  0  0  0
  5  4  1  0  0  0  0
  8  4  1  0  0  0  0
  8  9  1  0  0  0  0
 10  9  1  0  0  0  0
 11 10  1  0  0  0  0
 12 13  1  0  0  0  0
 12 11  1  0  0  0  0
 12  8  1  0  0  0  0
 14 15  2  0  0  0  0
 14  1  1  0  0  0  0
 16 17  2  0  0  0  0
 16 21  1  0  0  0  0
 17 18  1  0  0  0  0
 18 24  1  0  0  0  0
 18 19  2  0  0  0  0
 20 19  1  0  0  0  0
 20 14  1  0  0  0  0
 21 20  2  0  0  0  0
 22 16  1  0  0  0  0
 23 17  1  0  0  0  0
M  END
>  <minimizedAffinity>
-4.12909746

>  <minimizedRMSD>
3.87170815

$$$$
