
 OpenBabel03272508433D

 24 26  0  0  0  0  0  0  0  0999 V2000
   34.6780   28.6610   48.4170 C   0  0  0  0  0  0  0  0  0  0  0  0
   34.8120   28.4850   49.7760 C   0  0  0  0  0  0  0  0  0  0  0  0
   35.9540   29.2200   50.0670 C   0  0  0  0  0  0  0  0  0  0  0  0
   36.4440   29.7880   48.9170 C   0  0  0  0  0  0  0  0  0  0  0  0
   35.6610   29.4370   47.9370 O   0  0  0  0  0  0  0  0  0  0  0  0
   34.2170   27.9370   50.4670 H   0  0  0  0  0  0  0  0  0  0  0  0
   36.3800   29.3160   51.0780 H   0  0  0  0  0  0  0  0  0  0  0  0
   37.6100   30.6070   48.8690 N   0  0  0  0  0  0  0  0  0  0  0  0
   38.2760   31.1940   50.0190 C   0  0  0  0  0  2  0  0  0  0  0  0
   38.5440   32.5850   49.4890 C   0  0  0  0  0  2  0  0  0  0  0  0
   38.4350   32.5260   47.9810 C   0  0  0  0  0  2  0  0  0  0  0  0
   38.3850   31.0370   47.7130 C   0  0  0  0  0  3  0  0  0  0  0  0
   39.4290   30.6700   47.7810 H   0  0  0  0  0  0  0  0  0  0  0  0
   33.6050   28.0780   47.5960 C   0  0  0  0  0  0  0  0  0  0  0  0
   33.3160   26.8720   47.7890 O   0  0  0  0  0  0  0  0  0  0  0  0
   31.6330   28.9680   44.6830 C   0  0  0  0  0  0  0  0  0  0  0  0
   31.5990   30.3560   44.7090 C   0  0  0  0  0  0  0  0  0  0  0  0
   32.2660   31.0040   45.7460 C   0  0  0  0  0  0  0  0  0  0  0  0
   32.9020   30.2410   46.6590 N   0  0  0  0  0  0  0  0  0  0  0  0
   32.9150   28.8830   46.6050 C   0  0  0  0  0  0  0  0  0  0  0  0
   32.2750   28.2610   45.6100 N   0  0  0  0  0  0  0  0  0  0  0  0
   31.0900   28.5480   43.8480 H   0  0  0  0  0  0  0  0  0  0  0  0
   31.0820   30.9470   43.9640 H   0  0  0  0  0  0  0  0  0  0  0  0
   32.2900   32.0890   45.8410 H   0  0  0  0  0  0  0  0  0  0  0  0
  1  2  2  0  0  0  0
  2  3  1  0  0  0  0
  2  6  1  0  0  0  0
  3  7  1  0  0  0  0
  4  3  2  0  0  0  0
  5  1  1  0  0  0  0
  5  4  1  0  0  0  0
  8  4  1  0  0  0  0
  8  9  1  0  0  0  0
 10  9  1  0  0  0  0
 11 10  1  0  0  0  0
 12 13  1  0  0  0  0
 12 11  1  0  0  0  0
 12  8  1  0  0  0  0
 14 15  2  0  0  0  0
 14  1  1  0  0  0  0
 16 17  2  0  0  0  0
 16 21  1  0  0  0  0
 17 18  1  0  0  0  0
 18 24  1  0  0  0  0
 18 19  2  0  0  0  0
 20 19  1  0  0  0  0
 20 14  1  0  0  0  0
 21 20  2  0  0  0  0
 22 16  1  0  0  0  0
 23 17  1  0  0  0  0
M  END
>  <minimizedAffinity>
-4.81694317

>  <minimizedRMSD>
3.08421516

$$$$
