
 OpenBabel03262520593D

 32 34  0  0  1  0  0  0  0  0999 V2000
   39.5570   33.3940   45.6370 N   0  0  0  0  0  0  0  0  0  0  0  0
   38.4450   32.5780   45.9750 C   0  0  1  0  0  0  0  0  0  0  0  0
   37.7660   32.0750   44.7260 C   0  0  0  0  0  0  0  0  0  0  0  0
   38.7470   31.3260   43.9620 N   0  0  0  0  0  0  0  0  0  0  0  0
   39.7140   32.3360   43.4840 C   0  0  0  0  0  0  0  0  0  0  0  0
   40.4660   32.7940   44.7200 C   0  0  2  0  0  0  0  0  0  0  0  0
   39.9020   34.0810   46.2840 H   0  0  0  0  0  0  0  0  0  0  0  0
   37.7330   33.1620   46.5790 H   0  0  0  0  0  0  0  0  0  0  0  0
   36.9370   31.4020   44.9820 H   0  0  0  0  0  0  0  0  0  0  0  0
   37.3760   32.9010   44.1030 H   0  0  0  0  0  0  0  0  0  0  0  0
   38.3260   30.9250   43.0830 H   0  0  0  0  0  0  0  0  0  0  0  0
   39.1210   33.1610   43.0770 H   0  0  0  0  0  0  0  0  0  0  0  0
   40.4010   31.8730   42.7710 H   0  0  0  0  0  0  0  0  0  0  0  0
   41.1740   33.5850   44.3590 H   0  0  0  0  0  0  0  0  0  0  0  0
   41.1870   31.6690   45.2710 N   0  0  0  0  0  0  0  0  0  0  0  0
   42.0100   32.0660   45.7710 H   0  0  0  0  0  0  0  0  0  0  0  0
   41.4620   31.0550   44.4730 H   0  0  0  0  0  0  0  0  0  0  0  0
   38.9490   31.0800   46.8950 S   0  0  0  0  0  0  0  0  0  0  0  0
   37.1020   30.7380   50.4710 C   0  0  0  0  0  0  0  0  0  0  0  0
   38.0700   31.0410   49.5240 C   0  0  0  0  0  0  0  0  0  0  0  0
   37.8160   30.7540   48.2100 C   0  0  0  0  0  0  0  0  0  0  0  0
   36.6070   30.1810   47.9140 N   0  0  0  0  0  0  0  0  0  0  0  0
   35.7000   29.9010   48.8280 C   0  0  0  0  0  0  0  0  0  0  0  0
   35.9500   30.1850   50.1350 N   0  0  0  0  0  0  0  0  0  0  0  0
   37.3750   30.9930   51.4840 H   0  0  0  0  0  0  0  0  0  0  0  0
   39.0170   31.4950   49.7950 H   0  0  0  0  0  0  0  0  0  0  0  0
   34.4580   29.3050   48.4700 N   0  0  0  0  0  0  0  0  0  0  0  0
   33.7640   29.4780   47.2100 C   0  0  0  0  0  0  0  0  0  0  0  0
   32.6210   28.4890   47.2420 C   0  0  0  0  0  0  0  0  0  0  0  0
   33.1040   27.4750   48.2550 C   0  0  0  0  0  0  0  0  0  0  0  0
   33.6790   28.4220   49.3160 C   0  0  0  0  0  0  0  0  0  0  0  0
   34.2790   27.9070   50.0660 H   0  0  0  0  0  0  0  0  0  0  0  0
  1  2  1  0  0  0  0
  1  7  1  0  0  0  0
  2  8  1  1  0  0  0
  2 18  1  0  0  0  0
  3  9  1  0  0  0  0
  3  2  1  0  0  0  0
  4  3  1  0  0  0  0
  5  4  1  0  0  0  0
  5  6  1  0  0  0  0
  6 14  1  6  0  0  0
  6 15  1  0  0  0  0
  6  1  1  0  0  0  0
 10  3  1  0  0  0  0
 11  4  1  0  0  0  0
 12  5  1  0  0  0  0
 13  5  1  0  0  0  0
 15 16  1  0  0  0  0
 17 15  1  0  0  0  0
 18 21  1  0  0  0  0
 19 25  1  0  0  0  0
 20 26  1  0  0  0  0
 20 19  2  0  0  0  0
 21 20  1  0  0  0  0
 22 21  2  0  0  0  0
 22 23  1  0  0  0  0
 23 24  2  0  0  0  0
 24 19  1  0  0  0  0
 27 23  1  0  0  0  0
 27 31  1  0  0  0  0
 28 29  1  0  0  0  0
 28 27  1  0  0  0  0
 29 30  1  0  0  0  0
 30 31  1  0  0  0  0
 31 32  1  0  0  0  0
M  END
>  <minimizedAffinity>
-5.70075655

>  <minimizedRMSD>
1.57609618

$$$$
