
 OpenBabel03272508433D

 24 26  0  0  0  0  0  0  0  0999 V2000
   34.5240   29.0160   48.2210 C   0  0  0  0  0  0  0  0  0  0  0  0
   34.8700   28.3780   49.3910 C   0  0  0  0  0  0  0  0  0  0  0  0
   36.0890   28.9640   49.7080 C   0  0  0  0  0  0  0  0  0  0  0  0
   36.4170   29.8950   48.7540 C   0  0  0  0  0  0  0  0  0  0  0  0
   35.4610   29.9080   47.8690 O   0  0  0  0  0  0  0  0  0  0  0  0
   34.3650   27.6240   49.9470 H   0  0  0  0  0  0  0  0  0  0  0  0
   36.6830   28.7010   50.5980 H   0  0  0  0  0  0  0  0  0  0  0  0
   37.6090   30.6770   48.7820 N   0  0  0  0  0  0  0  0  0  0  0  0
   38.2530   31.1890   49.9810 C   0  0  0  0  0  2  0  0  0  0  0  0
   38.5800   32.5940   49.5260 C   0  0  0  0  0  2  0  0  0  0  0  0
   38.5230   32.6080   48.0130 C   0  0  0  0  0  2  0  0  0  0  0  0
   38.4360   31.1340   47.6750 C   0  0  0  0  0  3  0  0  0  0  0  0
   39.4650   30.7300   47.7590 H   0  0  0  0  0  0  0  0  0  0  0  0
   33.2950   28.7580   47.4550 C   0  0  0  0  0  0  0  0  0  0  0  0
   32.4590   27.9620   47.9500 O   0  0  0  0  0  0  0  0  0  0  0  0
   32.2270   31.2120   45.0050 C   0  0  0  0  0  0  0  0  0  0  0  0
   32.6280   30.6730   43.7900 C   0  0  0  0  0  0  0  0  0  0  0  0
   33.2780   29.4420   43.8070 C   0  0  0  0  0  0  0  0  0  0  0  0
   33.4770   28.8520   45.0040 N   0  0  0  0  0  0  0  0  0  0  0  0
   33.0720   29.4070   46.1770 C   0  0  0  0  0  0  0  0  0  0  0  0
   32.4480   30.5890   46.1610 N   0  0  0  0  0  0  0  0  0  0  0  0
   31.7320   32.1680   44.9010 H   0  0  0  0  0  0  0  0  0  0  0  0
   32.4560   31.1660   42.8410 H   0  0  0  0  0  0  0  0  0  0  0  0
   33.6250   28.9480   42.9000 H   0  0  0  0  0  0  0  0  0  0  0  0
  1  2  2  0  0  0  0
  2  3  1  0  0  0  0
  2  6  1  0  0  0  0
  3  7  1  0  0  0  0
  4  8  1  0  0  0  0
  4  3  2  0  0  0  0
  5  1  1  0  0  0  0
  5  4  1  0  0  0  0
  8  9  1  0  0  0  0
 10  9  1  0  0  0  0
 11 10  1  0  0  0  0
 12 13  1  0  0  0  0
 12 11  1  0  0  0  0
 12  8  1  0  0  0  0
 14 15  2  0  0  0  0
 14  1  1  0  0  0  0
 16 21  1  0  0  0  0
 17 18  1  0  0  0  0
 17 16  2  0  0  0  0
 18 19  2  0  0  0  0
 19 20  1  0  0  0  0
 20 14  1  0  0  0  0
 21 20  2  0  0  0  0
 22 16  1  0  0  0  0
 23 17  1  0  0  0  0
 24 18  1  0  0  0  0
M  END
>  <minimizedAffinity>
-4.88595676

>  <minimizedRMSD>
2.95148993

$$$$
