
 OpenBabel03272508343D

 22 24  0  0  1  0  0  0  0  0999 V2000
   36.0190   30.3360   47.3310 C   0  0  0  0  0  0  0  0  0  0  0  0
   36.5380   30.5050   46.0740 C   0  0  0  0  0  0  0  0  0  0  0  0
   37.6650   31.3130   46.1810 C   0  0  0  0  0  0  0  0  0  0  0  0
   37.7920   31.6060   47.4890 N   0  0  0  0  0  0  0  0  0  0  0  0
   36.8130   31.0260   48.1840 N   0  0  0  0  0  0  0  0  0  0  0  0
   36.1490   30.0880   45.1540 H   0  0  0  0  0  0  0  0  0  0  0  0
   38.3160   31.6510   45.4070 H   0  0  0  0  0  0  0  0  0  0  0  0
   33.4920   28.0050   48.8680 C   0  0  0  0  0  0  0  0  0  0  0  0
   34.6910   28.7170   48.7310 C   0  0  0  0  0  0  0  0  0  0  0  0
   34.8210   29.5360   47.6030 C   0  0  0  0  0  0  0  0  0  0  0  0
   33.7800   29.6040   46.6950 N   0  0  0  0  0  0  0  0  0  0  0  0
   32.6400   28.8880   46.8850 C   0  0  0  0  0  0  0  0  0  0  0  0
   32.5060   28.0970   47.9670 N   0  0  0  0  0  0  0  0  0  0  0  0
   33.3870   27.3760   49.7300 H   0  0  0  0  0  0  0  0  0  0  0  0
   35.5110   28.6720   49.4320 H   0  0  0  0  0  0  0  0  0  0  0  0
   31.9280   29.0520   46.0880 H   0  0  0  0  0  0  0  0  0  0  0  0
   38.4750   34.0520   47.0310 H   0  0  0  0  0  0  0  0  0  0  0  0
   39.3170   33.4740   47.3160 N   0  0  0  0  0  0  0  0  0  0  0  0
   40.0810   34.2660   48.2690 C   0  0  0  0  0  0  0  0  0  0  0  0
   39.3700   34.1440   49.6060 C   0  0  0  0  0  0  0  0  0  0  0  0
   38.2020   33.2100   49.2960 C   0  0  0  0  0  0  0  0  0  0  0  0
   38.8020   32.4150   48.1360 C   0  0  1  0  0  0  0  0  0  0  0  0
  1 10  1  0  0  0  0
  1  5  2  0  0  0  0
  2  3  2  0  0  0  0
  2  1  1  0  0  0  0
  3  4  1  0  0  0  0
  4  5  1  0  0  0  0
  6  2  1  0  0  0  0
  7  3  1  0  0  0  0
  8 14  1  0  0  0  0
  9  8  1  0  0  0  0
  9 15  1  0  0  0  0
 10  9  2  0  0  0  0
 11 12  2  0  0  0  0
 11 10  1  0  0  0  0
 12 13  1  0  0  0  0
 13  8  2  0  0  0  0
 16 12  1  0  0  0  0
 17 18  1  0  0  0  0
 18 22  1  0  0  0  0
 18 19  1  0  0  0  0
 19 20  1  0  0  0  0
 21 20  1  0  0  0  0
 22  4  1  6  0  0  0
 22 21  1  0  0  0  0
M  END
>  <minimizedAffinity>
-5.00183249

>  <minimizedRMSD>
3.56212807

$$$$
