
 OpenBabel03272503183D

 22 24  0  0  0  0  0  0  0  0999 V2000
   37.9030   26.9810   33.8060 C   0  0  0  0  0  0  0  0  0  0  0  0
   38.1570   27.5720   34.9760 C   0  0  0  0  0  0  0  0  0  0  0  0
   38.3040   26.8530   36.0950 C   0  0  0  0  0  0  0  0  0  0  0  0
   38.1820   25.4740   35.9830 C   0  0  0  0  0  0  0  0  0  0  0  0
   37.8420   25.2650   34.1700 S   0  0  0  0  0  0  0  0  0  0  0  0
   38.2470   28.6690   35.0230 H   0  0  0  0  0  0  0  0  0  0  0  0
   38.5070   27.1730   37.1010 H   0  0  0  0  0  0  0  0  0  0  0  0
   38.3280   28.0310   30.2240 C   0  0  0  0  0  0  0  0  0  0  0  0
   38.6550   27.4360   31.4610 C   0  0  0  0  0  0  0  0  0  0  0  0
   37.7010   27.5500   32.4680 C   0  0  0  0  0  0  0  0  0  0  0  0
   36.5320   28.2100   32.2240 N   0  0  0  0  0  0  0  0  0  0  0  0
   36.2740   28.7570   31.0330 C   0  0  0  0  0  0  0  0  0  0  0  0
   37.1620   28.6680   30.0450 N   0  0  0  0  0  0  0  0  0  0  0  0
   39.0990   27.9100   29.4870 H   0  0  0  0  0  0  0  0  0  0  0  0
   39.5400   26.9070   31.7240 H   0  0  0  0  0  0  0  0  0  0  0  0
   35.3430   29.2790   30.8520 H   0  0  0  0  0  0  0  0  0  0  0  0
   38.2270   24.2820   36.7250 N   0  0  0  0  0  0  0  0  0  0  0  0
   37.7970   23.9140   38.0610 C   0  0  0  0  0  2  0  0  0  0  0  0
   39.0860   23.3030   38.6240 C   0  0  0  0  0  2  0  0  0  0  0  0
   39.8550   22.8390   37.3820 C   0  0  0  0  0  2  0  0  0  0  0  0
   38.7780   22.9900   36.2970 C   0  0  0  0  0  3  0  0  0  0  0  0
   38.0160   22.2070   36.3470 H   0  0  0  0  0  0  0  0  0  0  0  0
  1  5  1  0  0  0  0
  1  2  2  0  0  0  0
  2  6  1  0  0  0  0
  2  3  1  0  0  0  0
  3  7  1  0  0  0  0
  4  3  2  0  0  0  0
  4 17  1  0  0  0  0
  5  4  1  0  0  0  0
  8  9  1  0  0  0  0
  9 15  1  0  0  0  0
  9 10  2  0  0  0  0
 10  1  1  0  0  0  0
 11 10  1  0  0  0  0
 12 11  2  0  0  0  0
 13  8  2  0  0  0  0
 13 12  1  0  0  0  0
 14  8  1  0  0  0  0
 16 12  1  0  0  0  0
 17 18  1  0  0  0  0
 18 19  1  0  0  0  0
 20 19  1  0  0  0  0
 21 22  1  0  0  0  0
 21 17  1  0  0  0  0
 21 20  1  0  0  0  0
M  END
>  <minimizedAffinity>
-4.69548321

$$$$

 OpenBabel03272503183D

 22 24  0  0  0  0  0  0  0  0999 V2000
   37.9110   27.0130   33.8600 C   0  0  0  0  0  0  0  0  0  0  0  0
   38.1950   27.5800   35.0340 C   0  0  0  0  0  0  0  0  0  0  0  0
   38.3480   26.8410   36.1390 C   0  0  0  0  0  0  0  0  0  0  0  0
   38.2020   25.4660   36.0070 C   0  0  0  0  0  0  0  0  0  0  0  0
   37.8280   25.2920   34.1980 S   0  0  0  0  0  0  0  0  0  0  0  0
   38.3030   28.6750   35.0960 H   0  0  0  0  0  0  0  0  0  0  0  0
   38.5740   27.1420   37.1460 H   0  0  0  0  0  0  0  0  0  0  0  0
   36.4590   28.8090   30.8960 C   0  0  0  0  0  0  0  0  0  0  0  0
   36.5300   28.2930   32.2080 C   0  0  0  0  0  0  0  0  0  0  0  0
   37.6960   27.6060   32.5340 C   0  0  0  0  0  0  0  0  0  0  0  0
   38.6850   27.4660   31.6040 N   0  0  0  0  0  0  0  0  0  0  0  0
   38.5640   27.9760   30.3750 C   0  0  0  0  0  0  0  0  0  0  0  0
   37.4640   28.6390   30.0260 N   0  0  0  0  0  0  0  0  0  0  0  0
   35.5400   29.3290   30.7030 H   0  0  0  0  0  0  0  0  0  0  0  0
   35.8050   28.3620   32.9830 H   0  0  0  0  0  0  0  0  0  0  0  0
   39.3550   27.8570   29.6450 H   0  0  0  0  0  0  0  0  0  0  0  0
   38.2390   24.2630   36.7300 N   0  0  0  0  0  0  0  0  0  0  0  0
   37.7020   23.8430   38.0110 C   0  0  0  0  0  2  0  0  0  0  0  0
   38.9620   23.2880   38.6870 C   0  0  0  0  0  2  0  0  0  0  0  0
   39.8720   22.8930   37.5190 C   0  0  0  0  0  2  0  0  0  0  0  0
   38.8990   23.0110   36.3360 C   0  0  0  0  0  3  0  0  0  0  0  0
   38.1800   22.1880   36.2970 H   0  0  0  0  0  0  0  0  0  0  0  0
  1  5  1  0  0  0  0
  1  2  2  0  0  0  0
  2  6  1  0  0  0  0
  2  3  1  0  0  0  0
  3  7  1  0  0  0  0
  4  3  2  0  0  0  0
  4 17  1  0  0  0  0
  5  4  1  0  0  0  0
  8  9  1  0  0  0  0
  9 10  2  0  0  0  0
  9 15  1  0  0  0  0
 10  1  1  0  0  0  0
 11 10  1  0  0  0  0
 12 11  2  0  0  0  0
 13 12  1  0  0  0  0
 13  8  2  0  0  0  0
 14  8  1  0  0  0  0
 16 12  1  0  0  0  0
 17 18  1  0  0  0  0
 18 19  1  0  0  0  0
 20 19  1  0  0  0  0
 21 17  1  0  0  0  0
 21 20  1  0  0  0  0
 22 21  1  0  0  0  0
M  END
>  <minimizedAffinity>
-4.69261885

$$$$

 OpenBabel03272503183D

 22 24  0  0  0  0  0  0  0  0999 V2000
   38.0480   25.7600   35.4110 C   0  0  0  0  0  0  0  0  0  0  0  0
   37.7910   27.0390   35.6930 C   0  0  0  0  0  0  0  0  0  0  0  0
   37.2440   27.8510   34.7790 C   0  0  0  0  0  0  0  0  0  0  0  0
   36.9580   27.3040   33.5350 C   0  0  0  0  0  0  0  0  0  0  0  0
   37.5220   25.5490   33.7500 S   0  0  0  0  0  0  0  0  0  0  0  0
   38.0320   27.4350   36.6920 H   0  0  0  0  0  0  0  0  0  0  0  0
   36.9800   28.8910   34.8490 H   0  0  0  0  0  0  0  0  0  0  0  0
   38.7900   23.3070   38.1580 C   0  0  0  0  0  0  0  0  0  0  0  0
   38.1220   24.3480   37.4780 C   0  0  0  0  0  0  0  0  0  0  0  0
   38.6380   24.6960   36.2330 C   0  0  0  0  0  0  0  0  0  0  0  0
   39.7290   24.0400   35.7420 N   0  0  0  0  0  0  0  0  0  0  0  0
   40.3230   23.0620   36.4300 C   0  0  0  0  0  0  0  0  0  0  0  0
   39.8590   22.7000   37.6240 N   0  0  0  0  0  0  0  0  0  0  0  0
   38.3480   23.0810   39.1100 H   0  0  0  0  0  0  0  0  0  0  0  0
   37.2710   24.9020   37.7940 H   0  0  0  0  0  0  0  0  0  0  0  0
   41.1890   22.5500   36.0300 H   0  0  0  0  0  0  0  0  0  0  0  0
   36.4290   27.6130   32.2720 N   0  0  0  0  0  0  0  0  0  0  0  0
   36.5910   27.0430   30.9470 C   0  0  0  0  0  2  0  0  0  0  0  0
   36.9740   28.2890   30.1390 C   0  0  0  0  0  2  0  0  0  0  0  0
   36.3780   29.4530   30.9390 C   0  0  0  0  0  2  0  0  0  0  0  0
   35.4940   28.6970   31.9430 C   0  0  0  0  0  3  0  0  0  0  0  0
   34.5830   28.3000   31.4870 H   0  0  0  0  0  0  0  0  0  0  0  0
  1  2  2  0  0  0  0
  1 10  1  0  0  0  0
  2  6  1  0  0  0  0
  3  7  1  0  0  0  0
  3  2  1  0  0  0  0
  4  5  1  0  0  0  0
  4  3  2  0  0  0  0
  5  1  1  0  0  0  0
  8 14  1  0  0  0  0
  9 15  1  0  0  0  0
  9  8  2  0  0  0  0
 10  9  1  0  0  0  0
 11 10  2  0  0  0  0
 11 12  1  0  0  0  0
 12 13  2  0  0  0  0
 13  8  1  0  0  0  0
 16 12  1  0  0  0  0
 17  4  1  0  0  0  0
 18 17  1  0  0  0  0
 19 20  1  0  0  0  0
 19 18  1  0  0  0  0
 20 21  1  0  0  0  0
 21 17  1  0  0  0  0
 22 21  1  0  0  0  0
M  END
>  <minimizedAffinity>
-4.63093042

$$$$

 OpenBabel03272503183D

 22 24  0  0  0  0  0  0  0  0999 V2000
   36.3940   23.3400   31.9520 C   0  0  0  0  0  0  0  0  0  0  0  0
   35.8320   24.4330   31.4320 C   0  0  0  0  0  0  0  0  0  0  0  0
   36.2150   25.6560   31.8160 C   0  0  0  0  0  0  0  0  0  0  0  0
   37.2180   25.7350   32.7740 C   0  0  0  0  0  0  0  0  0  0  0  0
   37.5830   23.9430   33.0940 S   0  0  0  0  0  0  0  0  0  0  0  0
   35.0380   24.3280   30.6740 H   0  0  0  0  0  0  0  0  0  0  0  0
   35.8650   26.6220   31.4980 H   0  0  0  0  0  0  0  0  0  0  0  0
   34.9650   19.8650   31.9550 C   0  0  0  0  0  0  0  0  0  0  0  0
   35.0860   21.2300   32.2910 C   0  0  0  0  0  0  0  0  0  0  0  0
   36.1420   21.9160   31.6970 C   0  0  0  0  0  0  0  0  0  0  0  0
   36.9840   21.2620   30.8460 N   0  0  0  0  0  0  0  0  0  0  0  0
   36.8230   19.9660   30.5630 C   0  0  0  0  0  0  0  0  0  0  0  0
   35.8250   19.2760   31.1120 N   0  0  0  0  0  0  0  0  0  0  0  0
   34.1330   19.3900   32.4400 H   0  0  0  0  0  0  0  0  0  0  0  0
   34.4720   21.8060   32.9410 H   0  0  0  0  0  0  0  0  0  0  0  0
   37.4980   19.4570   29.8880 H   0  0  0  0  0  0  0  0  0  0  0  0
   37.9850   26.6450   33.5180 N   0  0  0  0  0  0  0  0  0  0  0  0
   39.3900   27.0100   33.5210 C   0  0  0  0  0  2  0  0  0  0  0  0
   39.7350   26.8260   35.0030 C   0  0  0  0  0  2  0  0  0  0  0  0
   38.3940   26.9970   35.7260 C   0  0  0  0  0  2  0  0  0  0  0  0
   37.5150   27.5360   34.5870 C   0  0  0  0  0  3  0  0  0  0  0  0
   37.7290   28.5810   34.3460 H   0  0  0  0  0  0  0  0  0  0  0  0
  1  5  1  0  0  0  0
  2  3  1  0  0  0  0
  2  1  2  0  0  0  0
  3  4  2  0  0  0  0
  4  5  1  0  0  0  0
  4 17  1  0  0  0  0
  6  2  1  0  0  0  0
  7  3  1  0  0  0  0
  8  9  1  0  0  0  0
  8 14  1  0  0  0  0
  9 15  1  0  0  0  0
 10  1  1  0  0  0  0
 10  9  2  0  0  0  0
 11 10  1  0  0  0  0
 12 11  2  0  0  0  0
 12 13  1  0  0  0  0
 13  8  2  0  0  0  0
 16 12  1  0  0  0  0
 17 18  1  0  0  0  0
 17 21  1  0  0  0  0
 18 19  1  0  0  0  0
 19 20  1  0  0  0  0
 21 20  1  0  0  0  0
 22 21  1  0  0  0  0
M  END
>  <minimizedAffinity>
-4.56390715

$$$$

 OpenBabel03272503183D

 22 24  0  0  0  0  0  0  0  0999 V2000
   37.2650   27.4830   34.1230 C   0  0  0  0  0  0  0  0  0  0  0  0
   37.7730   27.8680   35.2950 C   0  0  0  0  0  0  0  0  0  0  0  0
   38.2920   26.9780   36.1490 C   0  0  0  0  0  0  0  0  0  0  0  0
   38.2780   25.6450   35.7610 C   0  0  0  0  0  0  0  0  0  0  0  0
   37.4730   25.7410   34.0910 S   0  0  0  0  0  0  0  0  0  0  0  0
   37.7660   28.9360   35.5670 H   0  0  0  0  0  0  0  0  0  0  0  0
   38.7320   27.1250   37.1190 H   0  0  0  0  0  0  0  0  0  0  0  0
   36.4340   29.0240   30.7990 C   0  0  0  0  0  0  0  0  0  0  0  0
   37.1230   28.2240   31.7340 C   0  0  0  0  0  0  0  0  0  0  0  0
   36.6480   28.2620   33.0420 C   0  0  0  0  0  0  0  0  0  0  0  0
   35.5740   29.0440   33.3520 N   0  0  0  0  0  0  0  0  0  0  0  0
   34.9580   29.7840   32.4250 C   0  0  0  0  0  0  0  0  0  0  0  0
   35.3840   29.7740   31.1630 N   0  0  0  0  0  0  0  0  0  0  0  0
   36.8430   28.9530   29.8090 H   0  0  0  0  0  0  0  0  0  0  0  0
   37.9630   27.5920   31.5690 H   0  0  0  0  0  0  0  0  0  0  0  0
   34.1070   30.4010   32.6830 H   0  0  0  0  0  0  0  0  0  0  0  0
   38.6400   24.3540   36.1780 N   0  0  0  0  0  0  0  0  0  0  0  0
   39.8350   23.5450   36.0200 C   0  0  0  0  0  2  0  0  0  0  0  0
   39.2420   22.2580   35.4360 C   0  0  0  0  0  2  0  0  0  0  0  0
   37.7860   22.2640   35.9170 C   0  0  0  0  0  2  0  0  0  0  0  0
   37.8220   23.4060   36.9440 C   0  0  0  0  0  3  0  0  0  0  0  0
   38.3220   23.1220   37.8740 H   0  0  0  0  0  0  0  0  0  0  0  0
  1  2  2  0  0  0  0
  2  6  1  0  0  0  0
  2  3  1  0  0  0  0
  3  7  1  0  0  0  0
  4  3  2  0  0  0  0
  4 17  1  0  0  0  0
  5  1  1  0  0  0  0
  5  4  1  0  0  0  0
  8 13  2  0  0  0  0
  8  9  1  0  0  0  0
  9 10  2  0  0  0  0
 10 11  1  0  0  0  0
 10  1  1  0  0  0  0
 12 16  1  0  0  0  0
 12 11  2  0  0  0  0
 13 12  1  0  0  0  0
 14  8  1  0  0  0  0
 15  9  1  0  0  0  0
 17 21  1  0  0  0  0
 18 17  1  0  0  0  0
 19 20  1  0  0  0  0
 19 18  1  0  0  0  0
 20 21  1  0  0  0  0
 21 22  1  0  0  0  0
M  END
>  <minimizedAffinity>
-4.38176537

$$$$

 OpenBabel03272503183D

 22 24  0  0  0  0  0  0  0  0999 V2000
   38.9420   25.6310   34.8570 C   0  0  0  0  0  0  0  0  0  0  0  0
   39.9220   26.3640   34.3250 C   0  0  0  0  0  0  0  0  0  0  0  0
   39.7050   27.1290   33.2490 C   0  0  0  0  0  0  0  0  0  0  0  0
   38.4220   27.1280   32.7180 C   0  0  0  0  0  0  0  0  0  0  0  0
   37.5380   25.9570   33.8550 S   0  0  0  0  0  0  0  0  0  0  0  0
   40.9260   26.3370   34.7770 H   0  0  0  0  0  0  0  0  0  0  0  0
   40.3800   27.7680   32.7080 H   0  0  0  0  0  0  0  0  0  0  0  0
   39.6910   22.8550   37.2750 C   0  0  0  0  0  0  0  0  0  0  0  0
   39.8060   23.6410   36.1090 C   0  0  0  0  0  0  0  0  0  0  0  0
   38.9390   24.7260   36.0130 C   0  0  0  0  0  0  0  0  0  0  0  0
   38.0470   24.9730   37.0160 N   0  0  0  0  0  0  0  0  0  0  0  0
   37.9820   24.1950   38.1000 C   0  0  0  0  0  0  0  0  0  0  0  0
   38.7940   23.1480   38.2270 N   0  0  0  0  0  0  0  0  0  0  0  0
   40.3850   22.0350   37.2950 H   0  0  0  0  0  0  0  0  0  0  0  0
   40.4720   23.5120   35.2900 H   0  0  0  0  0  0  0  0  0  0  0  0
   37.2690   24.4010   38.8880 H   0  0  0  0  0  0  0  0  0  0  0  0
   37.6370   27.6730   31.6900 N   0  0  0  0  0  0  0  0  0  0  0  0
   37.9330   28.4660   30.5110 C   0  0  0  0  0  2  0  0  0  0  0  0
   36.9690   29.6430   30.7010 C   0  0  0  0  0  2  0  0  0  0  0  0
   35.8500   29.0730   31.5800 C   0  0  0  0  0  2  0  0  0  0  0  0
   36.1790   27.5730   31.5380 C   0  0  0  0  0  3  0  0  0  0  0  0
   35.9180   27.1100   30.5820 H   0  0  0  0  0  0  0  0  0  0  0  0
  1 10  1  0  0  0  0
  2  6  1  0  0  0  0
  2  1  2  0  0  0  0
  3  2  1  0  0  0  0
  4  3  2  0  0  0  0
  4  5  1  0  0  0  0
  5  1  1  0  0  0  0
  7  3  1  0  0  0  0
  8 14  1  0  0  0  0
  8 13  1  0  0  0  0
  9  8  2  0  0  0  0
 10  9  1  0  0  0  0
 10 11  2  0  0  0  0
 11 12  1  0  0  0  0
 12 13  2  0  0  0  0
 12 16  1  0  0  0  0
 15  9  1  0  0  0  0
 17  4  1  0  0  0  0
 18 19  1  0  0  0  0
 18 17  1  0  0  0  0
 19 20  1  0  0  0  0
 21 20  1  0  0  0  0
 21 17  1  0  0  0  0
 22 21  1  0  0  0  0
M  END
>  <minimizedAffinity>
-4.31106853

$$$$

 OpenBabel03272503183D

 22 24  0  0  0  0  0  0  0  0999 V2000
   36.6730   26.0090   31.9000 C   0  0  0  0  0  0  0  0  0  0  0  0
   37.5240   25.5160   32.8020 C   0  0  0  0  0  0  0  0  0  0  0  0
   37.6100   24.1990   33.0230 C   0  0  0  0  0  0  0  0  0  0  0  0
   36.7800   23.3750   32.2740 C   0  0  0  0  0  0  0  0  0  0  0  0
   35.8620   24.6040   31.2290 S   0  0  0  0  0  0  0  0  0  0  0  0
   38.1660   26.2040   33.3760 H   0  0  0  0  0  0  0  0  0  0  0  0
   38.2350   23.6520   33.7060 H   0  0  0  0  0  0  0  0  0  0  0  0
   36.6490   29.3090   30.1050 C   0  0  0  0  0  0  0  0  0  0  0  0
   37.0030   27.9710   30.3780 C   0  0  0  0  0  0  0  0  0  0  0  0
   36.4010   27.3930   31.4920 C   0  0  0  0  0  0  0  0  0  0  0  0
   35.5270   28.1200   32.2460 N   0  0  0  0  0  0  0  0  0  0  0  0
   35.2290   29.3870   31.9420 C   0  0  0  0  0  0  0  0  0  0  0  0
   35.7840   29.9730   30.8840 N   0  0  0  0  0  0  0  0  0  0  0  0
   37.1410   29.7000   29.2340 H   0  0  0  0  0  0  0  0  0  0  0  0
   37.6710   27.3420   29.8390 H   0  0  0  0  0  0  0  0  0  0  0  0
   34.5340   29.9540   32.5480 H   0  0  0  0  0  0  0  0  0  0  0  0
   36.4330   22.0310   32.0630 N   0  0  0  0  0  0  0  0  0  0  0  0
   35.5530   21.3550   31.1280 C   0  0  0  0  0  2  0  0  0  0  0  0
   34.6820   20.5350   32.0870 C   0  0  0  0  0  2  0  0  0  0  0  0
   35.5580   20.3620   33.3340 C   0  0  0  0  0  2  0  0  0  0  0  0
   36.9140   20.8620   32.8110 C   0  0  0  0  0  3  0  0  0  0  0  0
   37.3990   20.1450   32.1430 H   0  0  0  0  0  0  0  0  0  0  0  0
  1  2  2  0  0  0  0
  2  3  1  0  0  0  0
  2  6  1  0  0  0  0
  3  7  1  0  0  0  0
  4  3  2  0  0  0  0
  5  1  1  0  0  0  0
  5  4  1  0  0  0  0
  8  9  2  0  0  0  0
  8 13  1  0  0  0  0
  9 10  1  0  0  0  0
 10  1  1  0  0  0  0
 10 11  2  0  0  0  0
 12 11  1  0  0  0  0
 12 16  1  0  0  0  0
 13 12  2  0  0  0  0
 14  8  1  0  0  0  0
 15  9  1  0  0  0  0
 17  4  1  0  0  0  0
 17 21  1  0  0  0  0
 18 17  1  0  0  0  0
 18 19  1  0  0  0  0
 19 20  1  0  0  0  0
 21 20  1  0  0  0  0
 22 21  1  0  0  0  0
M  END
>  <minimizedAffinity>
-4.24696207

$$$$

 OpenBabel03272503183D

 22 24  0  0  0  0  0  0  0  0999 V2000
   36.0460   27.9800   32.0420 C   0  0  0  0  0  0  0  0  0  0  0  0
   36.1240   28.9530   31.1320 C   0  0  0  0  0  0  0  0  0  0  0  0
   35.9860   30.2380   31.4810 C   0  0  0  0  0  0  0  0  0  0  0  0
   35.7600   30.5090   32.8240 C   0  0  0  0  0  0  0  0  0  0  0  0
   35.7560   28.8070   33.5630 S   0  0  0  0  0  0  0  0  0  0  0  0
   36.3050   28.6960   30.0760 H   0  0  0  0  0  0  0  0  0  0  0  0
   36.0210   31.1260   30.8760 H   0  0  0  0  0  0  0  0  0  0  0  0
   35.5420   24.3980   31.0290 C   0  0  0  0  0  0  0  0  0  0  0  0
   35.3210   25.7910   31.0650 C   0  0  0  0  0  0  0  0  0  0  0  0
   36.1580   26.5230   31.9020 C   0  0  0  0  0  0  0  0  0  0  0  0
   37.1220   25.8840   32.6260 N   0  0  0  0  0  0  0  0  0  0  0  0
   37.2860   24.5600   32.5550 C   0  0  0  0  0  0  0  0  0  0  0  0
   36.5050   23.8260   31.7650 N   0  0  0  0  0  0  0  0  0  0  0  0
   34.8690   23.8860   30.3660 H   0  0  0  0  0  0  0  0  0  0  0  0
   34.5950   26.3570   30.5310 H   0  0  0  0  0  0  0  0  0  0  0  0
   38.0540   24.0650   33.1360 H   0  0  0  0  0  0  0  0  0  0  0  0
   35.5510   31.5580   33.7340 N   0  0  0  0  0  0  0  0  0  0  0  0
   35.9980   32.9370   33.7980 C   0  0  0  0  0  2  0  0  0  0  0  0
   36.6010   32.9830   35.2060 C   0  0  0  0  0  2  0  0  0  0  0  0
   35.8770   31.8630   35.9620 C   0  0  0  0  0  2  0  0  0  0  0  0
   34.7570   31.5170   34.9690 C   0  0  0  0  0  3  0  0  0  0  0  0
   33.9640   32.2690   34.9470 H   0  0  0  0  0  0  0  0  0  0  0  0
  1  5  1  0  0  0  0
  2  3  1  0  0  0  0
  2  1  2  0  0  0  0
  3  4  2  0  0  0  0
  4  5  1  0  0  0  0
  4 17  1  0  0  0  0
  6  2  1  0  0  0  0
  7  3  1  0  0  0  0
  8  9  2  0  0  0  0
  8 13  1  0  0  0  0
  9 10  1  0  0  0  0
 10  1  1  0  0  0  0
 10 11  2  0  0  0  0
 12 11  1  0  0  0  0
 12 16  1  0  0  0  0
 13 12  2  0  0  0  0
 14  8  1  0  0  0  0
 15  9  1  0  0  0  0
 17 18  1  0  0  0  0
 17 21  1  0  0  0  0
 18 19  1  0  0  0  0
 19 20  1  0  0  0  0
 21 20  1  0  0  0  0
 22 21  1  0  0  0  0
M  END
>  <minimizedAffinity>
-4.22109079

$$$$

 OpenBabel03272503183D

 22 24  0  0  0  0  0  0  0  0999 V2000
   37.4190   26.1750   33.5650 C   0  0  0  0  0  0  0  0  0  0  0  0
   37.7890   25.0830   32.8930 C   0  0  0  0  0  0  0  0  0  0  0  0
   38.1630   23.9710   33.5360 C   0  0  0  0  0  0  0  0  0  0  0  0
   38.1450   24.0040   34.9240 C   0  0  0  0  0  0  0  0  0  0  0  0
   37.5600   25.7340   35.2580 S   0  0  0  0  0  0  0  0  0  0  0  0
   37.7890   25.0970   31.7910 H   0  0  0  0  0  0  0  0  0  0  0  0
   38.4860   23.0220   33.1460 H   0  0  0  0  0  0  0  0  0  0  0  0
   35.8550   29.5800   33.2840 C   0  0  0  0  0  0  0  0  0  0  0  0
   36.2040   28.3450   33.8700 C   0  0  0  0  0  0  0  0  0  0  0  0
   36.9800   27.4930   33.0890 C   0  0  0  0  0  0  0  0  0  0  0  0
   37.3550   27.8750   31.8340 N   0  0  0  0  0  0  0  0  0  0  0  0
   36.9950   29.0580   31.3270 C   0  0  0  0  0  0  0  0  0  0  0  0
   36.2530   29.9000   32.0440 N   0  0  0  0  0  0  0  0  0  0  0  0
   35.2600   30.1950   33.9320 H   0  0  0  0  0  0  0  0  0  0  0  0
   35.9520   27.9790   34.8360 H   0  0  0  0  0  0  0  0  0  0  0  0
   37.2980   29.3490   30.3300 H   0  0  0  0  0  0  0  0  0  0  0  0
   38.4030   23.2280   36.0660 N   0  0  0  0  0  0  0  0  0  0  0  0
   37.8050   23.1540   37.3860 C   0  0  0  0  0  2  0  0  0  0  0  0
   39.0430   23.3230   38.2760 C   0  0  0  0  0  2  0  0  0  0  0  0
   40.2050   22.8470   37.3970 C   0  0  0  0  0  2  0  0  0  0  0  0
   39.4440   22.2040   36.2270 C   0  0  0  0  0  3  0  0  0  0  0  0
   39.0030   21.2390   36.4900 H   0  0  0  0  0  0  0  0  0  0  0  0
  1  5  1  0  0  0  0
  2  3  1  0  0  0  0
  2  1  2  0  0  0  0
  3  4  2  0  0  0  0
  4  5  1  0  0  0  0
  4 17  1  0  0  0  0
  6  2  1  0  0  0  0
  7  3  1  0  0  0  0
  8  9  1  0  0  0  0
  8 14  1  0  0  0  0
  9 15  1  0  0  0  0
 10  1  1  0  0  0  0
 10  9  2  0  0  0  0
 11 10  1  0  0  0  0
 12 11  2  0  0  0  0
 12 13  1  0  0  0  0
 13  8  2  0  0  0  0
 16 12  1  0  0  0  0
 17 21  1  0  0  0  0
 17 18  1  0  0  0  0
 18 19  1  0  0  0  0
 20 19  1  0  0  0  0
 21 22  1  0  0  0  0
 21 20  1  0  0  0  0
M  END
>  <minimizedAffinity>
-4.21637058

$$$$
