
 OpenBabel03272510183D

 33 36  0  0  0  0  0  0  0  0999 V2000
   37.4130   29.2000   50.8790 Br  0  0  0  0  0  0  0  0  0  0  0  0
   36.0060   29.2630   49.5910 C   0  0  0  0  0  0  0  0  0  0  0  0
   35.9990   30.2440   48.5990 C   0  0  0  0  0  0  0  0  0  0  0  0
   34.9480   30.2240   47.7050 C   0  0  0  0  0  0  0  0  0  0  0  0
   33.9230   29.2920   47.7460 C   0  0  0  0  0  0  0  0  0  0  0  0
   33.9650   28.3490   48.7280 C   0  0  0  0  0  0  0  0  0  0  0  0
   35.0020   28.3460   49.6360 C   0  0  0  0  0  0  0  0  0  0  0  0
   34.8860   30.9660   46.9050 H   0  0  0  0  0  0  0  0  0  0  0  0
   33.2130   27.5780   48.8470 H   0  0  0  0  0  0  0  0  0  0  0  0
   35.0310   27.5930   50.4170 H   0  0  0  0  0  0  0  0  0  0  0  0
   32.8270   29.2900   46.7930 C   0  0  0  0  0  0  0  0  0  0  0  0
   32.0310   28.1860   46.5260 C   0  0  0  0  0  0  0  0  0  0  0  0
   30.9910   28.2120   45.6110 C   0  0  0  0  0  0  0  0  0  0  0  0
   30.7380   29.3440   44.9540 N   0  0  0  0  0  0  0  0  0  0  0  0
   31.5040   30.4340   45.2000 C   0  0  0  0  0  0  0  0  0  0  0  0
   32.4940   30.3730   46.0860 N   0  0  0  0  0  0  0  0  0  0  0  0
   32.2360   27.2570   47.0630 H   0  0  0  0  0  0  0  0  0  0  0  0
   30.4090   27.3120   45.4510 H   0  0  0  0  0  0  0  0  0  0  0  0
   31.2270   31.6380   44.4950 N   0  0  0  0  0  0  0  0  0  0  0  0
   30.3850   31.7340   43.2930 C   0  0  0  0  0  2  0  0  0  0  0  0
   30.7640   33.0630   42.6610 C   0  0  0  0  0  2  0  0  0  0  0  0
   30.9530   33.8970   43.9350 C   0  0  0  0  0  2  0  0  0  0  0  0
   31.7110   32.9670   44.8160 C   0  0  0  0  0  3  0  0  0  0  0  0
   31.5570   33.2540   45.8660 H   0  0  0  0  0  0  0  0  0  0  0  0
   37.9990   33.1700   49.4350 C   0  0  0  0  0  0  0  0  0  0  0  0
   39.0260   33.1550   48.4330 C   0  0  0  0  0  0  0  0  0  0  0  0
   39.0050   32.1330   47.4900 C   0  0  0  0  0  0  0  0  0  0  0  0
   38.0110   31.1940   47.5600 N   0  0  0  0  0  0  0  0  0  0  0  0
   37.0530   31.2380   48.5220 C   0  0  0  0  0  0  0  0  0  0  0  0
   37.0500   32.2270   49.4580 N   0  0  0  0  0  0  0  0  0  0  0  0
   37.9440   33.9260   50.2010 H   0  0  0  0  0  0  0  0  0  0  0  0
   39.7640   33.9460   48.4700 H   0  0  0  0  0  0  0  0  0  0  0  0
   39.7600   32.1120   46.7430 H   0  0  0  0  0  0  0  0  0  0  0  0
  2  7  1  0  0  0  0
  2  1  1  0  0  0  0
  3  2  2  0  0  0  0
  4  5  2  0  0  0  0
  4  3  1  0  0  0  0
  5  6  1  0  0  0  0
  6  9  1  0  0  0  0
  6  7  2  0  0  0  0
  7 10  1  0  0  0  0
  8  4  1  0  0  0  0
 11  5  1  0  0  0  0
 12 11  1  0  0  0  0
 12 17  1  0  0  0  0
 13 12  2  0  0  0  0
 14 15  2  0  0  0  0
 14 13  1  0  0  0  0
 15 16  1  0  0  0  0
 16 11  2  0  0  0  0
 18 13  1  0  0  0  0
 19 23  1  0  0  0  0
 19 15  1  0  0  0  0
 20 19  1  0  0  0  0
 21 20  1  0  0  0  0
 21 22  1  0  0  0  0
 22 23  1  0  0  0  0
 23 24  1  0  0  0  0
 25 30  1  0  0  0  0
 25 31  1  0  0  0  0
 26 32  1  0  0  0  0
 26 25  2  0  0  0  0
 27 28  2  0  0  0  0
 27 26  1  0  0  0  0
 28 29  1  0  0  0  0
 29  3  1  0  0  0  0
 29 30  2  0  0  0  0
 33 27  1  0  0  0  0
M  END
>  <minimizedAffinity>
-6.61548853

>  <minimizedRMSD>
0.203027666

$$$$
