
 OpenBabel03272505573D

 41 44  0  0  1  0  0  0  0  0999 V2000
   35.1440   30.2500   50.0980 C   0  0  2  0  0  0  0  0  0  0  0  0
   36.0750   31.1970   49.4390 C   0  0  0  0  0  0  0  0  0  0  0  0
   37.5360   30.7500   49.5330 C   0  0  2  0  0  0  0  0  0  0  0  0
   37.9980   30.5220   50.9020 C   0  0  0  0  0  0  0  0  0  0  0  0
   36.9640   29.8340   51.7870 C   0  0  0  0  0  0  0  0  0  0  0  0
   35.8520   29.2350   50.9730 C   0  0  0  0  0  0  0  0  0  0  0  0
   34.4090   30.7370   50.8080 H   0  0  0  0  0  0  0  0  0  0  0  0
   36.0650   32.1510   50.0690 H   0  0  0  0  0  0  0  0  0  0  0  0
   35.9660   31.4910   48.4250 H   0  0  0  0  0  0  0  0  0  0  0  0
   37.6250   29.8760   48.8730 H   0  0  0  0  0  0  0  0  0  0  0  0
   38.2050   31.4850   51.4050 H   0  0  0  0  0  0  0  0  0  0  0  0
   38.9600   29.9730   50.8970 H   0  0  0  0  0  0  0  0  0  0  0  0
   36.5630   30.4770   52.5760 H   0  0  0  0  0  0  0  0  0  0  0  0
   37.4870   28.9880   52.2770 H   0  0  0  0  0  0  0  0  0  0  0  0
   35.1250   28.7910   51.6800 H   0  0  0  0  0  0  0  0  0  0  0  0
   36.2110   28.4270   50.3110 H   0  0  0  0  0  0  0  0  0  0  0  0
   38.0910   30.4360   46.6500 Cl  0  0  0  0  0  0  0  0  0  0  0  0
   38.6540   31.8150   47.5790 C   0  0  0  0  0  0  0  0  0  0  0  0
   38.3000   31.8740   48.9170 C   0  0  0  0  0  0  0  0  0  0  0  0
   38.7610   33.0000   49.5440 C   0  0  0  0  0  0  0  0  0  0  0  0
   39.5040   33.9750   48.9120 C   0  0  0  0  0  0  0  0  0  0  0  0
   39.8200   33.8440   47.5660 C   0  0  0  0  0  0  0  0  0  0  0  0
   39.3780   32.7250   46.8810 C   0  0  0  0  0  0  0  0  0  0  0  0
   38.5300   33.1380   50.5920 H   0  0  0  0  0  0  0  0  0  0  0  0
   39.8270   34.8350   49.4960 H   0  0  0  0  0  0  0  0  0  0  0  0
   40.4010   34.6320   47.1220 H   0  0  0  0  0  0  0  0  0  0  0  0
   39.7000   32.5940   45.5150 N   0  0  0  0  0  0  0  0  0  0  0  0
   39.7870   33.6090   44.4710 C   0  0  0  0  0  0  0  0  0  0  0  0
   39.6930   32.7720   43.2000 C   0  0  0  0  0  0  0  0  0  0  0  0
   40.5850   31.5900   43.5840 C   0  0  0  0  0  0  0  0  0  0  0  0
   40.0100   31.2720   44.9620 C   0  0  0  0  0  0  0  0  0  0  0  0
   40.7090   30.7000   45.5710 H   0  0  0  0  0  0  0  0  0  0  0  0
   34.3130   29.4990   49.1430 C   0  0  0  0  0  0  0  0  0  0  0  0
   34.3760   29.9440   47.8220 C   0  0  0  0  0  0  0  0  0  0  0  0
   33.6140   29.2560   46.8690 C   0  0  0  0  0  0  0  0  0  0  0  0
   32.8410   28.1740   47.2800 N   0  0  0  0  0  0  0  0  0  0  0  0
   32.8140   27.7840   48.5720 C   0  0  0  0  0  0  0  0  0  0  0  0
   33.5470   28.4550   49.4610 N   0  0  0  0  0  0  0  0  0  0  0  0
   34.8480   30.7080   47.2330 H   0  0  0  0  0  0  0  0  0  0  0  0
   33.4780   29.3740   45.8260 H   0  0  0  0  0  0  0  0  0  0  0  0
   32.2300   26.9590   48.9210 H   0  0  0  0  0  0  0  0  0  0  0  0
  1  7  1  1  0  0  0
  1  6  1  0  0  0  0
  2  3  1  0  0  0  0
  2  8  1  0  0  0  0
  2  1  1  0  0  0  0
  3 10  1  6  0  0  0
  3  4  1  0  0  0  0
  4 11  1  0  0  0  0
  4  5  1  0  0  0  0
  5 14  1  0  0  0  0
  5 13  1  0  0  0  0
  6 15  1  0  0  0  0
  6  5  1  0  0  0  0
  9  2  1  0  0  0  0
 12  4  1  0  0  0  0
 16  6  1  0  0  0  0
 17 18  1  0  0  0  0
 18 19  1  0  0  0  0
 19  3  1  0  0  0  0
 19 20  2  0  0  0  0
 20 24  1  0  0  0  0
 21 25  1  0  0  0  0
 21 20  1  0  0  0  0
 22 21  2  0  0  0  0
 23 22  1  0  0  0  0
 23 18  2  0  0  0  0
 26 22  1  0  0  0  0
 27 23  1  0  0  0  0
 28 27  1  0  0  0  0
 29 30  1  0  0  0  0
 29 28  1  0  0  0  0
 30 31  1  0  0  0  0
 31 27  1  0  0  0  0
 31 32  1  0  0  0  0
 33 38  1  0  0  0  0
 33  1  1  0  0  0  0
 34 33  2  0  0  0  0
 35 36  2  0  0  0  0
 35 34  1  0  0  0  0
 36 37  1  0  0  0  0
 37 41  1  0  0  0  0
 37 38  2  0  0  0  0
 39 34  1  0  0  0  0
 40 35  1  0  0  0  0
M  END
>  <minimizedAffinity>
-7.76591587

>  <minimizedRMSD>
0.404945344

$$$$
