
 OpenBabel03272503153D

 22 24  0  0  0  0  0  0  0  0999 V2000
   37.6690   31.5340   48.8060 C   0  0  0  0  0  0  0  0  0  0  0  0
   38.2740   32.6920   49.0750 C   0  0  0  0  0  0  0  0  0  0  0  0
   39.1100   33.2550   48.1950 C   0  0  0  0  0  0  0  0  0  0  0  0
   39.3160   32.5840   46.9970 C   0  0  0  0  0  0  0  0  0  0  0  0
   38.2350   31.0890   47.2050 S   0  0  0  0  0  0  0  0  0  0  0  0
   38.0840   33.1930   50.0380 H   0  0  0  0  0  0  0  0  0  0  0  0
   39.6690   34.1710   48.2610 H   0  0  0  0  0  0  0  0  0  0  0  0
   36.0980   29.3790   51.4530 C   0  0  0  0  0  0  0  0  0  0  0  0
   37.1030   30.1180   50.7940 C   0  0  0  0  0  0  0  0  0  0  0  0
   36.7300   30.7330   49.6020 C   0  0  0  0  0  0  0  0  0  0  0  0
   35.4530   30.5990   49.1390 N   0  0  0  0  0  0  0  0  0  0  0  0
   34.5410   29.8850   49.8050 C   0  0  0  0  0  0  0  0  0  0  0  0
   34.8600   29.2830   50.9480 N   0  0  0  0  0  0  0  0  0  0  0  0
   36.4430   28.9300   52.3660 H   0  0  0  0  0  0  0  0  0  0  0  0
   38.1140   30.2680   51.0910 H   0  0  0  0  0  0  0  0  0  0  0  0
   33.5320   29.7860   49.4270 H   0  0  0  0  0  0  0  0  0  0  0  0
   40.0120   32.6550   45.7800 N   0  0  0  0  0  0  0  0  0  0  0  0
   39.9850   33.5760   44.6580 C   0  0  0  0  0  0  0  0  0  0  0  0
   39.7690   32.6070   43.4900 C   0  0  0  0  0  0  0  0  0  0  0  0
   40.3210   31.2720   44.0030 C   0  0  0  0  0  0  0  0  0  0  0  0
   41.0350   31.7230   45.2870 C   0  0  0  0  0  0  0  0  0  0  0  0
   41.9740   32.2460   45.0860 H   0  0  0  0  0  0  0  0  0  0  0  0
  1  2  2  0  0  0  0
  1 10  1  0  0  0  0
  2  6  1  0  0  0  0
  3  7  1  0  0  0  0
  3  2  1  0  0  0  0
  4  5  1  0  0  0  0
  4  3  2  0  0  0  0
  5  1  1  0  0  0  0
  8 14  1  0  0  0  0
  9 15  1  0  0  0  0
  9  8  2  0  0  0  0
 10  9  1  0  0  0  0
 11 10  2  0  0  0  0
 11 12  1  0  0  0  0
 12 13  2  0  0  0  0
 13  8  1  0  0  0  0
 16 12  1  0  0  0  0
 17  4  1  0  0  0  0
 18 17  1  0  0  0  0
 19 20  1  0  0  0  0
 19 18  1  0  0  0  0
 20 21  1  0  0  0  0
 21 17  1  0  0  0  0
 22 21  1  0  0  0  0
M  END
>  <minimizedAffinity>
-5.62820435

>  <minimizedRMSD>
2.01897025

$$$$
