
 OpenBabel03272510183D

 33 36  0  0  0  0  0  0  0  0999 V2000
   37.4440   29.1710   50.8110 Br  0  0  0  0  0  0  0  0  0  0  0  0
   36.0270   29.2920   49.5380 C   0  0  0  0  0  0  0  0  0  0  0  0
   36.0200   30.3090   48.5830 C   0  0  0  0  0  0  0  0  0  0  0  0
   34.9630   30.3290   47.6970 C   0  0  0  0  0  0  0  0  0  0  0  0
   33.9300   29.4050   47.7120 C   0  0  0  0  0  0  0  0  0  0  0  0
   33.9720   28.4260   48.6590 C   0  0  0  0  0  0  0  0  0  0  0  0
   35.0170   28.3820   49.5570 C   0  0  0  0  0  0  0  0  0  0  0  0
   34.9000   31.1010   46.9250 H   0  0  0  0  0  0  0  0  0  0  0  0
   33.2150   27.6570   48.7550 H   0  0  0  0  0  0  0  0  0  0  0  0
   35.0460   27.6000   50.3100 H   0  0  0  0  0  0  0  0  0  0  0  0
   32.8270   29.4450   46.7690 C   0  0  0  0  0  0  0  0  0  0  0  0
   31.8870   28.4360   46.6280 C   0  0  0  0  0  0  0  0  0  0  0  0
   30.8430   28.5010   45.7190 C   0  0  0  0  0  0  0  0  0  0  0  0
   30.7310   29.5790   44.9410 N   0  0  0  0  0  0  0  0  0  0  0  0
   31.6400   30.5760   45.0630 C   0  0  0  0  0  0  0  0  0  0  0  0
   32.6280   30.4800   45.9470 N   0  0  0  0  0  0  0  0  0  0  0  0
   31.9750   27.5520   47.2640 H   0  0  0  0  0  0  0  0  0  0  0  0
   30.1440   27.6760   45.6610 H   0  0  0  0  0  0  0  0  0  0  0  0
   31.5130   31.7230   44.2310 N   0  0  0  0  0  0  0  0  0  0  0  0
   31.3300   33.0990   44.7170 C   0  0  0  0  0  2  0  0  0  0  0  0
   30.7910   33.8630   43.5200 C   0  0  0  0  0  2  0  0  0  0  0  0
   31.6140   33.1950   42.4100 C   0  0  0  0  0  2  0  0  0  0  0  0
   31.5410   31.7560   42.7820 C   0  0  0  0  0  3  0  0  0  0  0  0
   32.3960   31.2220   42.3420 H   0  0  0  0  0  0  0  0  0  0  0  0
   38.0330   33.2040   49.4910 C   0  0  0  0  0  0  0  0  0  0  0  0
   39.0680   33.2010   48.4980 C   0  0  0  0  0  0  0  0  0  0  0  0
   39.0480   32.1980   47.5350 C   0  0  0  0  0  0  0  0  0  0  0  0
   38.0470   31.2650   47.5780 N   0  0  0  0  0  0  0  0  0  0  0  0
   37.0810   31.2960   48.5330 C   0  0  0  0  0  0  0  0  0  0  0  0
   37.0770   32.2680   49.4880 N   0  0  0  0  0  0  0  0  0  0  0  0
   37.9760   33.9460   50.2710 H   0  0  0  0  0  0  0  0  0  0  0  0
   39.8110   33.9870   48.5560 H   0  0  0  0  0  0  0  0  0  0  0  0
   39.8090   32.1860   46.7940 H   0  0  0  0  0  0  0  0  0  0  0  0
  2  7  1  0  0  0  0
  2  1  1  0  0  0  0
  3  2  2  0  0  0  0
  4  5  2  0  0  0  0
  4  3  1  0  0  0  0
  5  6  1  0  0  0  0
  6  9  1  0  0  0  0
  6  7  2  0  0  0  0
  7 10  1  0  0  0  0
  8  4  1  0  0  0  0
 11  5  1  0  0  0  0
 12 11  1  0  0  0  0
 12 17  1  0  0  0  0
 13 12  2  0  0  0  0
 14 15  2  0  0  0  0
 14 13  1  0  0  0  0
 15 16  1  0  0  0  0
 16 11  2  0  0  0  0
 18 13  1  0  0  0  0
 19 20  1  0  0  0  0
 19 15  1  0  0  0  0
 21 20  1  0  0  0  0
 22 23  1  0  0  0  0
 22 21  1  0  0  0  0
 23 19  1  0  0  0  0
 24 23  1  0  0  0  0
 25 31  1  0  0  0  0
 26 32  1  0  0  0  0
 26 25  2  0  0  0  0
 27 28  2  0  0  0  0
 27 26  1  0  0  0  0
 28 29  1  0  0  0  0
 29  3  1  0  0  0  0
 29 30  2  0  0  0  0
 30 25  1  0  0  0  0
 33 27  1  0  0  0  0
M  END
>  <minimizedAffinity>
-6.58487988

>  <minimizedRMSD>
0.494495481

$$$$
