
 OpenBabel03272507083D

 24 26  0  0  0  0  0  0  0  0999 V2000
   36.1370   29.7200   49.8060 C   0  0  0  0  0  0  0  0  0  0  0  0
   35.0810   29.4620   50.6380 C   0  0  0  0  0  0  0  0  0  0  0  0
   34.1200   28.7530   49.8950 C   0  0  0  0  0  0  0  0  0  0  0  0
   34.6780   28.6320   48.6370 C   0  0  0  0  0  0  0  0  0  0  0  0
   35.8460   29.2050   48.6250 O   0  0  0  0  0  0  0  0  0  0  0  0
   34.9210   29.7170   51.6990 H   0  0  0  0  0  0  0  0  0  0  0  0
   33.1620   28.4040   50.2830 H   0  0  0  0  0  0  0  0  0  0  0  0
   33.9990   27.9640   47.5790 N   0  0  0  0  0  0  0  0  0  0  0  0
   33.7990   26.5300   47.4990 C   0  0  0  0  0  0  0  0  0  0  0  0
   33.6180   26.2020   46.0380 C   0  0  0  0  0  0  0  0  0  0  0  0
   33.9300   27.5140   45.3610 C   0  0  0  0  0  0  0  0  0  0  0  0
   33.3730   28.4920   46.3810 C   0  0  0  0  0  0  0  0  0  0  0  0
   32.2760   28.3420   46.4960 H   0  0  0  0  0  0  0  0  0  0  0  0
   37.3070   30.4370   50.2520 C   0  0  0  0  0  0  0  0  0  0  0  0
   37.6910   30.2950   51.4330 O   0  0  0  0  0  0  0  0  0  0  0  0
   37.9780   31.2890   49.3050 C   0  0  0  0  0  0  0  0  0  0  0  0
   38.2630   32.5890   49.6980 C   0  0  0  0  0  0  0  0  0  0  0  0
   38.9150   33.4360   48.7960 C   0  0  0  0  0  0  0  0  0  0  0  0
   39.2360   32.9260   47.5690 N   0  0  0  0  0  0  0  0  0  0  0  0
   38.9510   31.6670   47.2100 C   0  0  0  0  0  0  0  0  0  0  0  0
   38.3270   30.8560   48.0740 N   0  0  0  0  0  0  0  0  0  0  0  0
   37.9850   32.9270   50.6750 H   0  0  0  0  0  0  0  0  0  0  0  0
   39.1290   34.4300   49.1030 H   0  0  0  0  0  0  0  0  0  0  0  0
   39.2450   31.3560   46.2160 H   0  0  0  0  0  0  0  0  0  0  0  0
  1 14  1  0  0  0  0
  1  2  2  0  0  0  0
  2  6  1  0  0  0  0
  3  7  1  0  0  0  0
  3  2  1  0  0  0  0
  4  3  2  0  0  0  0
  5  4  1  0  0  0  0
  5  1  1  0  0  0  0
  8  4  1  0  0  0  0
  9  8  1  0  0  0  0
 10  9  1  0  0  0  0
 11 10  1  0  0  0  0
 11 12  1  0  0  0  0
 12 13  1  0  0  0  0
 12  8  1  0  0  0  0
 14 15  2  0  0  0  0
 16 17  1  0  0  0  0
 16 14  1  0  0  0  0
 17 22  1  0  0  0  0
 18 23  1  0  0  0  0
 18 17  2  0  0  0  0
 19 18  1  0  0  0  0
 20 19  2  0  0  0  0
 20 21  1  0  0  0  0
 21 16  2  0  0  0  0
 24 20  1  0  0  0  0
M  END
>  <minimizedAffinity>
-5.18218422

>  <minimizedRMSD>
1.46231258

$$$$
