
 OpenBabel03272508383D

 29 31  0  0  1  0  0  0  0  0999 V2000
   33.5150   28.5850   47.1870 N   0  0  0  0  0  0  0  0  0  0  0  0
   34.5490   28.8490   48.1520 C   0  0  0  0  0  0  0  0  0  0  0  0
   35.4320   29.9840   47.7930 C   0  0  2  0  0  0  0  0  0  0  0  0
   35.6550   30.2410   46.4090 N   0  0  0  0  0  0  0  0  0  0  0  0
   34.4450   30.0860   45.6230 C   0  0  0  0  0  0  0  0  0  0  0  0
   34.0230   28.6540   45.8400 C   0  0  0  0  0  0  0  0  0  0  0  0
   35.0600   27.8820   48.3030 H   0  0  0  0  0  0  0  0  0  0  0  0
   34.0160   29.0520   49.1160 H   0  0  0  0  0  0  0  0  0  0  0  0
   34.8600   30.9000   48.1410 H   0  0  0  0  0  0  0  0  0  0  0  0
   36.4780   29.8010   45.9780 H   0  0  0  0  0  0  0  0  0  0  0  0
   34.6330   30.3470   44.5760 H   0  0  0  0  0  0  0  0  0  0  0  0
   33.6690   30.7260   46.1030 H   0  0  0  0  0  0  0  0  0  0  0  0
   34.9200   28.0200   45.6890 H   0  0  0  0  0  0  0  0  0  0  0  0
   33.2950   28.3130   45.0680 H   0  0  0  0  0  0  0  0  0  0  0  0
   32.1690   28.2940   47.5270 C   0  0  0  0  0  0  0  0  0  0  0  0
   31.0820   28.5200   46.6890 C   0  0  0  0  0  0  0  0  0  0  0  0
   29.7990   28.1970   47.1210 C   0  0  0  0  0  0  0  0  0  0  0  0
   29.6560   27.6650   48.3640 N   0  0  0  0  0  0  0  0  0  0  0  0
   30.7400   27.4540   49.1630 C   0  0  0  0  0  0  0  0  0  0  0  0
   31.9690   27.7590   48.7590 N   0  0  0  0  0  0  0  0  0  0  0  0
   31.2790   28.9440   45.7240 H   0  0  0  0  0  0  0  0  0  0  0  0
   28.9400   28.3730   46.4660 H   0  0  0  0  0  0  0  0  0  0  0  0
   30.6300   27.0270   50.1600 H   0  0  0  0  0  0  0  0  0  0  0  0
   36.6680   30.0640   48.4460 N   0  0  1  0  0  0  0  0  0  0  0  0
   37.3360   31.3260   48.3790 C   0  0  0  0  0  0  0  0  0  0  0  0
   37.8170   31.6790   49.7600 C   0  0  0  0  0  0  0  0  0  0  0  0
   37.0340   30.7140   50.6430 C   0  0  0  0  0  0  0  0  0  0  0  0
   36.8970   29.5340   49.7090 C   0  0  0  0  0  0  0  0  0  0  0  0
   36.2690   28.7400   50.0860 H   0  0  0  0  0  0  0  0  0  0  0  0
  1 15  1  0  0  0  0
  1  2  1  0  0  0  0
  2  7  1  0  0  0  0
  2  8  1  0  0  0  0
  3  9  1  1  0  0  0
  3  2  1  0  0  0  0
  3 24  1  0  0  0  0
  4  3  1  0  0  0  0
  5  6  1  0  0  0  0
  5 12  1  0  0  0  0
  5  4  1  0  0  0  0
  6  1  1  0  0  0  0
 10  4  1  0  0  0  0
 11  5  1  0  0  0  0
 13  6  1  0  0  0  0
 14  6  1  0  0  0  0
 15 20  1  0  0  0  0
 16 17  1  0  0  0  0
 16 15  2  0  0  0  0
 17 18  2  0  0  0  0
 18 19  1  0  0  0  0
 19 23  1  0  0  0  0
 20 19  2  0  0  0  0
 21 16  1  0  0  0  0
 22 17  1  0  0  0  0
 24 25  1  1  0  0  0
 24 28  1  0  0  0  0
 25 26  1  0  0  0  0
 26 27  1  0  0  0  0
 28 29  1  0  0  0  0
 28 27  1  0  0  0  0
M  END
>  <minimizedAffinity>
-4.6455512

>  <minimizedRMSD>
4.16658831

$$$$
