
 OpenBabel03272506323D

 37 39  0  0  1  0  0  0  0  0999 V2000
   37.3480   26.8090   33.7150 C   0  0  1  0  0  0  0  0  0  0  0  0
   38.4990   26.4550   32.9060 C   0  0  0  0  0  0  0  0  0  0  0  0
   39.8490   26.9460   33.3990 C   0  0  0  0  0  0  0  0  0  0  0  0
   40.0410   26.9160   34.8700 C   0  0  0  0  0  0  0  0  0  0  0  0
   38.8650   27.2110   35.7190 C   0  0  0  0  0  0  0  0  0  0  0  0
   37.6050   26.6340   35.1870 C   0  0  2  0  0  0  0  0  0  0  0  0
   36.5290   26.0430   33.5180 H   0  0  0  0  0  0  0  0  0  0  0  0
   38.4530   26.6190   31.8340 H   0  0  0  0  0  0  0  0  0  0  0  0
   38.5950   25.3250   32.9880 H   0  0  0  0  0  0  0  0  0  0  0  0
   40.6420   26.2810   32.9590 H   0  0  0  0  0  0  0  0  0  0  0  0
   40.0660   27.9510   32.9750 H   0  0  0  0  0  0  0  0  0  0  0  0
   40.5140   25.9630   35.1990 H   0  0  0  0  0  0  0  0  0  0  0  0
   40.8170   27.6930   35.1090 H   0  0  0  0  0  0  0  0  0  0  0  0
   39.0370   26.7670   36.7190 H   0  0  0  0  0  0  0  0  0  0  0  0
   38.7050   28.2950   35.9150 H   0  0  0  0  0  0  0  0  0  0  0  0
   36.7800   26.9250   35.8270 H   0  0  0  0  0  0  0  0  0  0  0  0
   35.9250   28.8430   34.3300 C   0  0  0  0  0  0  0  0  0  0  0  0
   36.6800   28.0790   33.3930 C   0  0  0  0  0  0  0  0  0  0  0  0
   36.7650   28.6100   32.1120 C   0  0  0  0  0  0  0  0  0  0  0  0
   36.1410   29.7930   31.8250 N   0  0  0  0  0  0  0  0  0  0  0  0
   35.4430   30.4710   32.7490 C   0  0  0  0  0  0  0  0  0  0  0  0
   35.3390   29.9830   34.0060 N   0  0  0  0  0  0  0  0  0  0  0  0
   35.8530   28.4300   35.3490 H   0  0  0  0  0  0  0  0  0  0  0  0
   37.2880   28.1590   31.3170 H   0  0  0  0  0  0  0  0  0  0  0  0
   34.9490   31.4210   32.5020 H   0  0  0  0  0  0  0  0  0  0  0  0
   37.7300   25.0980   35.3700 C   0  0  0  0  0  0  0  0  0  0  0  0
   36.8560   24.5670   34.9970 H   0  0  0  0  0  0  0  0  0  0  0  0
   38.5840   24.7340   34.7340 H   0  0  0  0  0  0  0  0  0  0  0  0
   38.0210   24.7750   36.8300 C   0  0  0  0  0  0  0  0  0  0  0  0
   37.1410   25.1210   37.4160 H   0  0  0  0  0  0  0  0  0  0  0  0
   38.9510   25.3220   37.1340 H   0  0  0  0  0  0  0  0  0  0  0  0
   38.2620   23.3650   36.9720 N   0  0  0  0  0  0  0  0  0  0  0  0
   39.0650   23.1100   38.1460 C   0  0  0  0  0  2  0  0  0  0  0  0
   40.4370   22.6650   37.6940 C   0  0  0  0  0  2  0  0  0  0  0  0
   40.4870   23.0930   36.2550 C   0  0  0  0  0  2  0  0  0  0  0  0
   39.0260   22.8980   35.8400 C   0  0  0  0  0  3  0  0  0  0  0  0
   38.8720   21.7970   35.7880 H   0  0  0  0  0  0  0  0  0  0  0  0
  1  7  1  6  0  0  0
  1  6  1  0  0  0  0
  2  9  1  0  0  0  0
  2  3  1  0  0  0  0
  2  1  1  0  0  0  0
  3  4  1  0  0  0  0
  4 13  1  0  0  0  0
  4 12  1  0  0  0  0
  4  5  1  0  0  0  0
  5 15  1  0  0  0  0
  5 14  1  0  0  0  0
  6 26  1  0  0  0  0
  6  5  1  0  0  0  0
  6 16  1  1  0  0  0
  8  2  1  0  0  0  0
 10  3  1  0  0  0  0
 11  3  1  0  0  0  0
 17 23  1  0  0  0  0
 18  1  1  0  0  0  0
 18 17  2  0  0  0  0
 19 18  1  0  0  0  0
 20 19  2  0  0  0  0
 20 21  1  0  0  0  0
 21 22  2  0  0  0  0
 22 17  1  0  0  0  0
 24 19  1  0  0  0  0
 25 21  1  0  0  0  0
 26 29  1  0  0  0  0
 27 26  1  0  0  0  0
 28 26  1  0  0  0  0
 29 32  1  0  0  0  0
 29 31  1  0  0  0  0
 29 30  1  0  0  0  0
 32 33  1  0  0  0  0
 34 33  1  0  0  0  0
 35 34  1  0  0  0  0
 36 35  1  0  0  0  0
 36 32  1  0  0  0  0
 37 36  1  0  0  0  0
M  END
>  <minimizedAffinity>
-5.21208477

$$$$

 OpenBabel03272506323D

 37 39  0  0  1  0  0  0  0  0999 V2000
   38.3100   26.4080   33.1910 C   0  0  1  0  0  0  0  0  0  0  0  0
   39.3130   26.4630   32.1440 C   0  0  0  0  0  0  0  0  0  0  0  0
   40.6110   27.1740   32.4880 C   0  0  0  0  0  0  0  0  0  0  0  0
   41.1070   26.9620   33.8700 C   0  0  0  0  0  0  0  0  0  0  0  0
   40.1010   26.8380   34.9480 C   0  0  0  0  0  0  0  0  0  0  0  0
   38.8990   26.0710   34.5340 C   0  0  2  0  0  0  0  0  0  0  0  0
   37.6380   25.5110   32.9890 H   0  0  0  0  0  0  0  0  0  0  0  0
   39.0120   26.7760   31.1500 H   0  0  0  0  0  0  0  0  0  0  0  0
   39.6490   25.3890   31.9840 H   0  0  0  0  0  0  0  0  0  0  0  0
   41.4110   26.7900   31.7970 H   0  0  0  0  0  0  0  0  0  0  0  0
   40.5280   28.2550   32.2410 H   0  0  0  0  0  0  0  0  0  0  0  0
   41.8210   26.1070   33.9190 H   0  0  0  0  0  0  0  0  0  0  0  0
   41.7460   27.8530   34.1220 H   0  0  0  0  0  0  0  0  0  0  0  0
   40.5630   26.2970   35.7960 H   0  0  0  0  0  0  0  0  0  0  0  0
   39.7720   27.8110   35.3780 H   0  0  0  0  0  0  0  0  0  0  0  0
   38.1850   26.0580   35.3500 H   0  0  0  0  0  0  0  0  0  0  0  0
   36.6630   27.9250   34.4260 C   0  0  0  0  0  0  0  0  0  0  0  0
   37.3490   27.5200   33.2440 C   0  0  0  0  0  0  0  0  0  0  0  0
   37.0630   28.2530   32.1000 C   0  0  0  0  0  0  0  0  0  0  0  0
   36.1690   29.2870   32.1620 N   0  0  0  0  0  0  0  0  0  0  0  0
   35.5520   29.6250   33.3050 C   0  0  0  0  0  0  0  0  0  0  0  0
   35.8070   28.9330   34.4380 N   0  0  0  0  0  0  0  0  0  0  0  0
   36.8850   27.3490   35.3390 H   0  0  0  0  0  0  0  0  0  0  0  0
   37.4920   28.0700   31.1560 H   0  0  0  0  0  0  0  0  0  0  0  0
   34.8370   30.4590   33.3380 H   0  0  0  0  0  0  0  0  0  0  0  0
   39.3640   24.5980   34.3860 C   0  0  0  0  0  0  0  0  0  0  0  0
   38.5430   23.9320   34.1270 H   0  0  0  0  0  0  0  0  0  0  0  0
   40.0740   24.5370   33.5150 H   0  0  0  0  0  0  0  0  0  0  0  0
   40.0870   24.1570   35.6520 C   0  0  0  0  0  0  0  0  0  0  0  0
   40.0040   24.9960   36.3780 H   0  0  0  0  0  0  0  0  0  0  0  0
   41.1580   23.9490   35.3930 H   0  0  0  0  0  0  0  0  0  0  0  0
   39.4990   22.9410   36.1430 N   0  0  0  0  0  0  0  0  0  0  0  0
   38.0720   22.9460   35.9110 C   0  0  0  0  0  2  0  0  0  0  0  0
   37.3760   23.0870   37.2460 C   0  0  0  0  0  2  0  0  0  0  0  0
   38.4640   23.5840   38.1560 C   0  0  0  0  0  2  0  0  0  0  0  0
   39.6850   22.8680   37.5720 C   0  0  0  0  0  3  0  0  0  0  0  0
   39.5690   21.7970   37.8510 H   0  0  0  0  0  0  0  0  0  0  0  0
  1  7  1  6  0  0  0
  1 18  1  0  0  0  0
  1  6  1  0  0  0  0
  2  3  1  0  0  0  0
  2  1  1  0  0  0  0
  3  4  1  0  0  0  0
  4 12  1  0  0  0  0
  4 13  1  0  0  0  0
  4  5  1  0  0  0  0
  5 15  1  0  0  0  0
  5 14  1  0  0  0  0
  6  5  1  0  0  0  0
  6 16  1  1  0  0  0
  8  2  1  0  0  0  0
  9  2  1  0  0  0  0
 10  3  1  0  0  0  0
 11  3  1  0  0  0  0
 17 22  1  0  0  0  0
 17 23  1  0  0  0  0
 18 17  2  0  0  0  0
 19 20  2  0  0  0  0
 19 18  1  0  0  0  0
 20 21  1  0  0  0  0
 21 25  1  0  0  0  0
 21 22  2  0  0  0  0
 24 19  1  0  0  0  0
 26  6  1  0  0  0  0
 26 29  1  0  0  0  0
 27 26  1  0  0  0  0
 28 26  1  0  0  0  0
 29 32  1  0  0  0  0
 29 30  1  0  0  0  0
 31 29  1  0  0  0  0
 32 36  1  0  0  0  0
 33 32  1  0  0  0  0
 33 34  1  0  0  0  0
 34 35  1  0  0  0  0
 36 37  1  0  0  0  0
 36 35  1  0  0  0  0
M  END
>  <minimizedAffinity>
-4.77694511

$$$$

 OpenBabel03272506323D

 37 39  0  0  1  0  0  0  0  0999 V2000
   40.2390   22.9480   35.8240 C   0  0  1  0  0  0  0  0  0  0  0  0
   40.0370   22.2530   37.0800 C   0  0  0  0  0  0  0  0  0  0  0  0
   39.2830   23.0110   38.1590 C   0  0  0  0  0  0  0  0  0  0  0  0
   38.1580   23.8520   37.6810 C   0  0  0  0  0  0  0  0  0  0  0  0
   38.3130   24.5210   36.3700 C   0  0  0  0  0  0  0  0  0  0  0  0
   39.0040   23.6760   35.3650 C   0  0  2  0  0  0  0  0  0  0  0  0
   40.3790   22.1680   35.0070 H   0  0  0  0  0  0  0  0  0  0  0  0
   40.8850   21.7610   37.5460 H   0  0  0  0  0  0  0  0  0  0  0  0
   39.3370   21.3890   36.8440 H   0  0  0  0  0  0  0  0  0  0  0  0
   38.8410   22.2580   38.8690 H   0  0  0  0  0  0  0  0  0  0  0  0
   39.9960   23.5930   38.7840 H   0  0  0  0  0  0  0  0  0  0  0  0
   37.1930   23.2950   37.7080 H   0  0  0  0  0  0  0  0  0  0  0  0
   38.0160   24.6640   38.4460 H   0  0  0  0  0  0  0  0  0  0  0  0
   37.3050   24.7510   35.9740 H   0  0  0  0  0  0  0  0  0  0  0  0
   38.8290   25.5070   36.4200 H   0  0  0  0  0  0  0  0  0  0  0  0
   39.1270   24.2390   34.4460 H   0  0  0  0  0  0  0  0  0  0  0  0
   41.5740   24.9190   34.8870 C   0  0  0  0  0  0  0  0  0  0  0  0
   41.4620   23.7560   35.7050 C   0  0  0  0  0  0  0  0  0  0  0  0
   42.6020   23.4090   36.4170 C   0  0  0  0  0  0  0  0  0  0  0  0
   43.7340   24.1690   36.3010 N   0  0  0  0  0  0  0  0  0  0  0  0
   43.7810   25.2560   35.5140 C   0  0  0  0  0  0  0  0  0  0  0  0
   42.6900   25.6230   34.8070 N   0  0  0  0  0  0  0  0  0  0  0  0
   40.6730   25.2020   34.3190 H   0  0  0  0  0  0  0  0  0  0  0  0
   42.6690   22.5780   37.0610 H   0  0  0  0  0  0  0  0  0  0  0  0
   44.6980   25.8570   35.4330 H   0  0  0  0  0  0  0  0  0  0  0  0
   38.0070   22.5410   35.0060 C   0  0  0  0  0  0  0  0  0  0  0  0
   38.3190   21.5780   35.4060 H   0  0  0  0  0  0  0  0  0  0  0  0
   37.0250   22.7610   35.5110 H   0  0  0  0  0  0  0  0  0  0  0  0
   37.7960   22.4980   33.4990 C   0  0  0  0  0  0  0  0  0  0  0  0
   38.7640   22.7880   33.0310 H   0  0  0  0  0  0  0  0  0  0  0  0
   36.9850   23.2250   33.2340 H   0  0  0  0  0  0  0  0  0  0  0  0
   37.3660   21.1830   33.1100 N   0  0  0  0  0  0  0  0  0  0  0  0
   37.4000   21.0500   31.6710 C   0  0  0  0  0  2  0  0  0  0  0  0
   35.9760   20.9850   31.1680 C   0  0  0  0  0  2  0  0  0  0  0  0
   35.1720   21.5120   32.3230 C   0  0  0  0  0  2  0  0  0  0  0  0
   35.9920   20.9970   33.5100 C   0  0  0  0  0  3  0  0  0  0  0  0
   35.8190   19.8970   33.5400 H   0  0  0  0  0  0  0  0  0  0  0  0
  1  7  1  6  0  0  0
  1  2  1  0  0  0  0
  2  8  1  0  0  0  0
  2  3  1  0  0  0  0
  3 11  1  0  0  0  0
  3 10  1  0  0  0  0
  4 12  1  0  0  0  0
  4  3  1  0  0  0  0
  4 13  1  0  0  0  0
  5 15  1  0  0  0  0
  5  4  1  0  0  0  0
  6 16  1  6  0  0  0
  6  1  1  0  0  0  0
  6  5  1  0  0  0  0
  9  2  1  0  0  0  0
 14  5  1  0  0  0  0
 17 18  1  0  0  0  0
 18  1  1  0  0  0  0
 18 19  2  0  0  0  0
 19 24  1  0  0  0  0
 20 19  1  0  0  0  0
 21 20  2  0  0  0  0
 22 17  2  0  0  0  0
 22 21  1  0  0  0  0
 23 17  1  0  0  0  0
 25 21  1  0  0  0  0
 26  6  1  0  0  0  0
 26 27  1  0  0  0  0
 26 28  1  0  0  0  0
 29 26  1  0  0  0  0
 30 29  1  0  0  0  0
 31 29  1  0  0  0  0
 32 29  1  0  0  0  0
 32 36  1  0  0  0  0
 33 32  1  0  0  0  0
 34 33  1  0  0  0  0
 34 35  1  0  0  0  0
 35 36  1  0  0  0  0
 36 37  1  0  0  0  0
M  END
>  <minimizedAffinity>
-4.6978631

$$$$

 OpenBabel03272506323D

 37 39  0  0  1  0  0  0  0  0999 V2000
   38.4390   23.3930   35.5960 C   0  0  1  0  0  0  0  0  0  0  0  0
   38.3490   23.8420   36.9720 C   0  0  0  0  0  0  0  0  0  0  0  0
   39.1820   23.0790   37.9880 C   0  0  0  0  0  0  0  0  0  0  0  0
   40.5210   22.6450   37.5190 C   0  0  0  0  0  0  0  0  0  0  0  0
   40.6530   22.2430   36.1010 C   0  0  0  0  0  0  0  0  0  0  0  0
   39.8540   23.0900   35.1810 C   0  0  2  0  0  0  0  0  0  0  0  0
   38.1700   24.2690   34.9200 H   0  0  0  0  0  0  0  0  0  0  0  0
   37.3670   24.0120   37.4020 H   0  0  0  0  0  0  0  0  0  0  0  0
   38.8190   24.8770   36.9880 H   0  0  0  0  0  0  0  0  0  0  0  0
   39.3530   23.7520   38.8720 H   0  0  0  0  0  0  0  0  0  0  0  0
   38.5930   22.2290   38.3990 H   0  0  0  0  0  0  0  0  0  0  0  0
   41.3030   23.3970   37.7730 H   0  0  0  0  0  0  0  0  0  0  0  0
   40.8040   21.7510   38.1390 H   0  0  0  0  0  0  0  0  0  0  0  0
   41.7160   22.3460   35.8070 H   0  0  0  0  0  0  0  0  0  0  0  0
   40.4070   21.1750   35.9060 H   0  0  0  0  0  0  0  0  0  0  0  0
   39.9570   22.7150   34.1690 H   0  0  0  0  0  0  0  0  0  0  0  0
   36.5880   21.6900   36.0610 C   0  0  0  0  0  0  0  0  0  0  0  0
   37.4810   22.3610   35.1740 C   0  0  0  0  0  0  0  0  0  0  0  0
   37.4000   21.9840   33.8390 C   0  0  0  0  0  0  0  0  0  0  0  0
   36.5020   21.0250   33.4570 N   0  0  0  0  0  0  0  0  0  0  0  0
   35.6840   20.4270   34.3380 C   0  0  0  0  0  0  0  0  0  0  0  0
   35.7360   20.7680   35.6450 N   0  0  0  0  0  0  0  0  0  0  0  0
   36.6450   21.9830   37.1210 H   0  0  0  0  0  0  0  0  0  0  0  0
   37.9940   22.3920   33.0710 H   0  0  0  0  0  0  0  0  0  0  0  0
   34.9680   19.6580   34.0140 H   0  0  0  0  0  0  0  0  0  0  0  0
   40.5500   24.4770   35.1660 C   0  0  0  0  0  0  0  0  0  0  0  0
   40.2440   25.0990   36.0050 H   0  0  0  0  0  0  0  0  0  0  0  0
   41.6550   24.3200   35.3090 H   0  0  0  0  0  0  0  0  0  0  0  0
   40.3110   25.1590   33.8250 C   0  0  0  0  0  0  0  0  0  0  0  0
   39.4100   24.6810   33.3790 H   0  0  0  0  0  0  0  0  0  0  0  0
   41.2140   25.0000   33.1820 H   0  0  0  0  0  0  0  0  0  0  0  0
   40.1450   26.5720   34.0270 N   0  0  0  0  0  0  0  0  0  0  0  0
   39.7190   26.8380   35.3820 C   0  0  0  0  0  2  0  0  0  0  0  0
   38.2810   27.3060   35.3440 C   0  0  0  0  0  2  0  0  0  0  0  0
   37.8120   26.8820   33.9810 C   0  0  0  0  0  2  0  0  0  0  0  0
   39.0950   27.0530   33.1620 C   0  0  0  0  0  3  0  0  0  0  0  0
   39.2450   28.1520   33.0650 H   0  0  0  0  0  0  0  0  0  0  0  0
  1  7  1  6  0  0  0
  1  2  1  0  0  0  0
  2  9  1  0  0  0  0
  2  8  1  0  0  0  0
  2  3  1  0  0  0  0
  3 11  1  0  0  0  0
  3 10  1  0  0  0  0
  4 12  1  0  0  0  0
  4  3  1  0  0  0  0
  4 13  1  0  0  0  0
  5  4  1  0  0  0  0
  6 16  1  6  0  0  0
  6  1  1  0  0  0  0
  6  5  1  0  0  0  0
 14  5  1  0  0  0  0
 15  5  1  0  0  0  0
 17 23  1  0  0  0  0
 18  1  1  0  0  0  0
 18 17  2  0  0  0  0
 19 18  1  0  0  0  0
 20 19  2  0  0  0  0
 20 21  1  0  0  0  0
 21 22  2  0  0  0  0
 22 17  1  0  0  0  0
 24 19  1  0  0  0  0
 25 21  1  0  0  0  0
 26  6  1  0  0  0  0
 26 28  1  0  0  0  0
 26 27  1  0  0  0  0
 29 32  1  0  0  0  0
 29 26  1  0  0  0  0
 30 29  1  0  0  0  0
 31 29  1  0  0  0  0
 32 33  1  0  0  0  0
 34 33  1  0  0  0  0
 35 34  1  0  0  0  0
 36 35  1  0  0  0  0
 36 32  1  0  0  0  0
 37 36  1  0  0  0  0
M  END
>  <minimizedAffinity>
-4.65272284

$$$$

 OpenBabel03272506323D

 37 39  0  0  1  0  0  0  0  0999 V2000
   38.7790   25.6060   33.7810 C   0  0  1  0  0  0  0  0  0  0  0  0
   39.3200   26.8550   34.2810 C   0  0  0  0  0  0  0  0  0  0  0  0
   38.7000   27.3970   35.5580 C   0  0  0  0  0  0  0  0  0  0  0  0
   38.3380   26.3790   36.5740 C   0  0  0  0  0  0  0  0  0  0  0  0
   37.8450   25.0710   36.0870 C   0  0  0  0  0  0  0  0  0  0  0  0
   38.5560   24.5970   34.8740 C   0  0  2  0  0  0  0  0  0  0  0  0
   39.5790   25.1040   33.1450 H   0  0  0  0  0  0  0  0  0  0  0  0
   39.4450   27.6830   33.5900 H   0  0  0  0  0  0  0  0  0  0  0  0
   40.3870   26.6220   34.5970 H   0  0  0  0  0  0  0  0  0  0  0  0
   39.4480   28.0830   36.0430 H   0  0  0  0  0  0  0  0  0  0  0  0
   37.8400   28.0580   35.3120 H   0  0  0  0  0  0  0  0  0  0  0  0
   39.1660   26.2210   37.3040 H   0  0  0  0  0  0  0  0  0  0  0  0
   37.5170   26.8250   37.1980 H   0  0  0  0  0  0  0  0  0  0  0  0
   38.0070   24.3190   36.8830 H   0  0  0  0  0  0  0  0  0  0  0  0
   36.7490   25.0430   35.8900 H   0  0  0  0  0  0  0  0  0  0  0  0
   38.1170   23.6620   34.5430 H   0  0  0  0  0  0  0  0  0  0  0  0
   37.1170   26.9350   32.3600 C   0  0  0  0  0  0  0  0  0  0  0  0
   37.6470   25.7040   32.8470 C   0  0  0  0  0  0  0  0  0  0  0  0
   37.0250   24.5540   32.3790 C   0  0  0  0  0  0  0  0  0  0  0  0
   35.9740   24.6550   31.5080 N   0  0  0  0  0  0  0  0  0  0  0  0
   35.5180   25.8440   31.0820 C   0  0  0  0  0  0  0  0  0  0  0  0
   36.1000   26.9840   31.5180 N   0  0  0  0  0  0  0  0  0  0  0  0
   37.6060   27.8530   32.7260 H   0  0  0  0  0  0  0  0  0  0  0  0
   37.3060   23.5750   32.6490 H   0  0  0  0  0  0  0  0  0  0  0  0
   34.6730   25.9090   30.3810 H   0  0  0  0  0  0  0  0  0  0  0  0
   39.9880   24.2220   35.3410 C   0  0  0  0  0  0  0  0  0  0  0  0
   40.6730   24.0960   34.5040 H   0  0  0  0  0  0  0  0  0  0  0  0
   40.4060   25.0850   35.9300 H   0  0  0  0  0  0  0  0  0  0  0  0
   39.9330   22.9880   36.2320 C   0  0  0  0  0  0  0  0  0  0  0  0
   39.8520   22.1070   35.5550 H   0  0  0  0  0  0  0  0  0  0  0  0
   39.0350   23.0710   36.8960 H   0  0  0  0  0  0  0  0  0  0  0  0
   41.1050   22.9410   37.0630 N   0  0  0  0  0  0  0  0  0  0  0  0
   42.2510   23.4430   36.3400 C   0  0  0  0  0  2  0  0  0  0  0  0
   43.1740   22.2810   36.0480 C   0  0  0  0  0  2  0  0  0  0  0  0
   42.2980   21.0790   36.2580 C   0  0  0  0  0  2  0  0  0  0  0  0
   41.3960   21.5670   37.3940 C   0  0  0  0  0  3  0  0  0  0  0  0
   42.0400   21.5910   38.3010 H   0  0  0  0  0  0  0  0  0  0  0  0
  1  7  1  6  0  0  0
  1  2  1  0  0  0  0
  1  6  1  0  0  0  0
  2  9  1  0  0  0  0
  2  3  1  0  0  0  0
  3 10  1  0  0  0  0
  3  4  1  0  0  0  0
  4 13  1  0  0  0  0
  4 12  1  0  0  0  0
  5  4  1  0  0  0  0
  5 14  1  0  0  0  0
  6 16  1  6  0  0  0
  6 26  1  0  0  0  0
  6  5  1  0  0  0  0
  8  2  1  0  0  0  0
 11  3  1  0  0  0  0
 15  5  1  0  0  0  0
 17 23  1  0  0  0  0
 17 18  1  0  0  0  0
 18  1  1  0  0  0  0
 19 24  1  0  0  0  0
 19 18  2  0  0  0  0
 20 19  1  0  0  0  0
 21 20  2  0  0  0  0
 21 22  1  0  0  0  0
 22 17  2  0  0  0  0
 25 21  1  0  0  0  0
 26 28  1  0  0  0  0
 26 29  1  0  0  0  0
 27 26  1  0  0  0  0
 29 31  1  0  0  0  0
 29 32  1  0  0  0  0
 30 29  1  0  0  0  0
 32 36  1  0  0  0  0
 33 32  1  0  0  0  0
 34 35  1  0  0  0  0
 34 33  1  0  0  0  0
 35 36  1  0  0  0  0
 36 37  1  0  0  0  0
M  END
>  <minimizedAffinity>
-4.6496501

$$$$

 OpenBabel03272506323D

 37 39  0  0  1  0  0  0  0  0999 V2000
   40.0270   23.6760   35.0170 C   0  0  1  0  0  0  0  0  0  0  0  0
   39.3350   22.6770   35.8080 C   0  0  0  0  0  0  0  0  0  0  0  0
   38.5460   23.1880   37.0020 C   0  0  0  0  0  0  0  0  0  0  0  0
   37.8390   24.4760   36.7960 C   0  0  0  0  0  0  0  0  0  0  0  0
   38.4950   25.4880   35.9390 C   0  0  0  0  0  0  0  0  0  0  0  0
   39.1830   24.8970   34.7640 C   0  0  2  0  0  0  0  0  0  0  0  0
   40.1700   23.2590   33.9670 H   0  0  0  0  0  0  0  0  0  0  0  0
   39.8770   21.7900   36.1180 H   0  0  0  0  0  0  0  0  0  0  0  0
   38.5230   22.2580   35.1300 H   0  0  0  0  0  0  0  0  0  0  0  0
   37.7580   22.4250   37.2490 H   0  0  0  0  0  0  0  0  0  0  0  0
   39.1970   23.2150   37.9030 H   0  0  0  0  0  0  0  0  0  0  0  0
   36.7910   24.3140   36.4530 H   0  0  0  0  0  0  0  0  0  0  0  0
   37.7150   24.9410   37.8120 H   0  0  0  0  0  0  0  0  0  0  0  0
   37.7190   26.1780   35.5560 H   0  0  0  0  0  0  0  0  0  0  0  0
   39.2150   26.1440   36.4790 H   0  0  0  0  0  0  0  0  0  0  0  0
   39.6810   25.6820   34.2070 H   0  0  0  0  0  0  0  0  0  0  0  0
   42.1850   23.2020   36.3050 C   0  0  0  0  0  0  0  0  0  0  0  0
   41.4040   24.0010   35.4200 C   0  0  0  0  0  0  0  0  0  0  0  0
   42.0250   25.1430   34.9320 C   0  0  0  0  0  0  0  0  0  0  0  0
   43.3070   25.4340   35.3120 N   0  0  0  0  0  0  0  0  0  0  0  0
   43.9960   24.6430   36.1490 C   0  0  0  0  0  0  0  0  0  0  0  0
   43.4220   23.5230   36.6430 N   0  0  0  0  0  0  0  0  0  0  0  0
   41.7000   22.2930   36.6960 H   0  0  0  0  0  0  0  0  0  0  0  0
   41.5730   25.8280   34.2710 H   0  0  0  0  0  0  0  0  0  0  0  0
   45.0260   24.8900   36.4430 H   0  0  0  0  0  0  0  0  0  0  0  0
   38.0580   24.3910   33.8230 C   0  0  0  0  0  0  0  0  0  0  0  0
   38.4440   23.7660   33.0190 H   0  0  0  0  0  0  0  0  0  0  0  0
   37.3790   23.7150   34.4140 H   0  0  0  0  0  0  0  0  0  0  0  0
   37.2540   25.5730   33.2990 C   0  0  0  0  0  0  0  0  0  0  0  0
   37.7590   26.4940   33.6700 H   0  0  0  0  0  0  0  0  0  0  0  0
   36.2100   25.4960   33.6980 H   0  0  0  0  0  0  0  0  0  0  0  0
   37.1930   25.5170   31.8640 N   0  0  0  0  0  0  0  0  0  0  0  0
   36.0730   26.2910   31.3790 C   0  0  0  0  0  2  0  0  0  0  0  0
   35.0340   25.3340   30.8390 C   0  0  0  0  0  2  0  0  0  0  0  0
   35.4360   24.0120   31.4290 C   0  0  0  0  0  2  0  0  0  0  0  0
   36.9610   24.1530   31.4540 C   0  0  0  0  0  3  0  0  0  0  0  0
   37.2860   24.0830   30.3920 H   0  0  0  0  0  0  0  0  0  0  0  0
  1  7  1  6  0  0  0
  1 18  1  0  0  0  0
  1  2  1  0  0  0  0
  2  8  1  0  0  0  0
  2  3  1  0  0  0  0
  3 10  1  0  0  0  0
  3 11  1  0  0  0  0
  4  3  1  0  0  0  0
  4 13  1  0  0  0  0
  5 15  1  0  0  0  0
  5  4  1  0  0  0  0
  6 16  1  6  0  0  0
  6  1  1  0  0  0  0
  6  5  1  0  0  0  0
  9  2  1  0  0  0  0
 12  4  1  0  0  0  0
 14  5  1  0  0  0  0
 17 22  1  0  0  0  0
 17 23  1  0  0  0  0
 18 17  2  0  0  0  0
 19 20  2  0  0  0  0
 19 18  1  0  0  0  0
 20 21  1  0  0  0  0
 21 25  1  0  0  0  0
 21 22  2  0  0  0  0
 24 19  1  0  0  0  0
 26 28  1  0  0  0  0
 26  6  1  0  0  0  0
 27 26  1  0  0  0  0
 29 30  1  0  0  0  0
 29 31  1  0  0  0  0
 29 26  1  0  0  0  0
 32 29  1  0  0  0  0
 33 32  1  0  0  0  0
 34 33  1  0  0  0  0
 34 35  1  0  0  0  0
 35 36  1  0  0  0  0
 36 32  1  0  0  0  0
 37 36  1  0  0  0  0
M  END
>  <minimizedAffinity>
-4.58484316

$$$$

 OpenBabel03272506323D

 37 39  0  0  1  0  0  0  0  0999 V2000
   38.6270   24.2780   35.1520 C   0  0  1  0  0  0  0  0  0  0  0  0
   37.8070   25.1080   36.0130 C   0  0  0  0  0  0  0  0  0  0  0  0
   38.3470   26.4920   36.3310 C   0  0  0  0  0  0  0  0  0  0  0  0
   39.0400   27.1790   35.2140 C   0  0  0  0  0  0  0  0  0  0  0  0
   39.8310   26.3450   34.2830 C   0  0  0  0  0  0  0  0  0  0  0  0
   39.1890   25.0400   33.9830 C   0  0  2  0  0  0  0  0  0  0  0  0
   37.9480   23.5180   34.6420 H   0  0  0  0  0  0  0  0  0  0  0  0
   37.4150   24.6810   36.9300 H   0  0  0  0  0  0  0  0  0  0  0  0
   36.8670   25.3350   35.4150 H   0  0  0  0  0  0  0  0  0  0  0  0
   37.4780   27.1450   36.6200 H   0  0  0  0  0  0  0  0  0  0  0  0
   38.9780   26.4520   37.2460 H   0  0  0  0  0  0  0  0  0  0  0  0
   38.3390   27.8270   34.6380 H   0  0  0  0  0  0  0  0  0  0  0  0
   39.7540   27.9120   35.6800 H   0  0  0  0  0  0  0  0  0  0  0  0
   39.9340   26.8910   33.3250 H   0  0  0  0  0  0  0  0  0  0  0  0
   40.8770   26.1580   34.6150 H   0  0  0  0  0  0  0  0  0  0  0  0
   39.8390   24.4610   33.3360 H   0  0  0  0  0  0  0  0  0  0  0  0
   40.7600   22.8660   35.1570 C   0  0  0  0  0  0  0  0  0  0  0  0
   39.6220   23.4200   35.8130 C   0  0  0  0  0  0  0  0  0  0  0  0
   39.4900   23.1070   37.1600 C   0  0  0  0  0  0  0  0  0  0  0  0
   40.4240   22.3100   37.7660 N   0  0  0  0  0  0  0  0  0  0  0  0
   41.4770   21.8160   37.0970 C   0  0  0  0  0  0  0  0  0  0  0  0
   41.6360   22.1010   35.7860 N   0  0  0  0  0  0  0  0  0  0  0  0
   40.8720   23.1110   34.0890 H   0  0  0  0  0  0  0  0  0  0  0  0
   38.7030   23.4430   37.7730 H   0  0  0  0  0  0  0  0  0  0  0  0
   42.2190   21.1790   37.6000 H   0  0  0  0  0  0  0  0  0  0  0  0
   37.9470   25.3680   33.1110 C   0  0  0  0  0  0  0  0  0  0  0  0
   37.3450   24.4840   32.9050 H   0  0  0  0  0  0  0  0  0  0  0  0
   37.2720   26.0490   33.7000 H   0  0  0  0  0  0  0  0  0  0  0  0
   38.3850   26.0770   31.8370 C   0  0  0  0  0  0  0  0  0  0  0  0
   38.9280   25.3240   31.2210 H   0  0  0  0  0  0  0  0  0  0  0  0
   39.0560   26.9290   32.1180 H   0  0  0  0  0  0  0  0  0  0  0  0
   37.2340   26.6130   31.1640 N   0  0  0  0  0  0  0  0  0  0  0  0
   37.6100   27.7520   30.3580 C   0  0  0  0  0  2  0  0  0  0  0  0
   37.0400   28.9970   31.0000 C   0  0  0  0  0  2  0  0  0  0  0  0
   36.7080   28.5490   32.3950 C   0  0  0  0  0  2  0  0  0  0  0  0
   36.2940   27.0960   32.1470 C   0  0  0  0  0  3  0  0  0  0  0  0
   35.3050   27.1480   31.6390 H   0  0  0  0  0  0  0  0  0  0  0  0
  1  7  1  6  0  0  0
  1 18  1  0  0  0  0
  1  2  1  0  0  0  0
  2  3  1  0  0  0  0
  2  8  1  0  0  0  0
  3 10  1  0  0  0  0
  3 11  1  0  0  0  0
  4 13  1  0  0  0  0
  4  3  1  0  0  0  0
  5 15  1  0  0  0  0
  5  4  1  0  0  0  0
  6 16  1  6  0  0  0
  6  5  1  0  0  0  0
  6  1  1  0  0  0  0
  9  2  1  0  0  0  0
 12  4  1  0  0  0  0
 14  5  1  0  0  0  0
 17 22  2  0  0  0  0
 17 18  1  0  0  0  0
 18 19  2  0  0  0  0
 19 20  1  0  0  0  0
 19 24  1  0  0  0  0
 21 25  1  0  0  0  0
 21 20  2  0  0  0  0
 22 21  1  0  0  0  0
 23 17  1  0  0  0  0
 26 28  1  0  0  0  0
 26  6  1  0  0  0  0
 27 26  1  0  0  0  0
 29 31  1  0  0  0  0
 29 26  1  0  0  0  0
 30 29  1  0  0  0  0
 32 29  1  0  0  0  0
 32 36  1  0  0  0  0
 33 34  1  0  0  0  0
 33 32  1  0  0  0  0
 34 35  1  0  0  0  0
 36 35  1  0  0  0  0
 37 36  1  0  0  0  0
M  END
>  <minimizedAffinity>
-4.5682826

$$$$

 OpenBabel03272506323D

 37 39  0  0  1  0  0  0  0  0999 V2000
   38.4910   24.5580   34.5750 C   0  0  1  0  0  0  0  0  0  0  0  0
   37.7250   25.7600   34.3100 C   0  0  0  0  0  0  0  0  0  0  0  0
   38.4960   27.0690   34.3200 C   0  0  0  0  0  0  0  0  0  0  0  0
   39.8590   27.0110   33.7370 C   0  0  0  0  0  0  0  0  0  0  0  0
   40.6380   25.7690   33.9380 C   0  0  0  0  0  0  0  0  0  0  0  0
   39.8070   24.5420   33.8450 C   0  0  2  0  0  0  0  0  0  0  0  0
   37.9420   23.6780   34.1040 H   0  0  0  0  0  0  0  0  0  0  0  0
   36.7950   25.9140   34.8470 H   0  0  0  0  0  0  0  0  0  0  0  0
   37.3860   25.6760   33.2280 H   0  0  0  0  0  0  0  0  0  0  0  0
   37.9180   27.8170   33.7110 H   0  0  0  0  0  0  0  0  0  0  0  0
   38.5050   27.4970   35.3470 H   0  0  0  0  0  0  0  0  0  0  0  0
   39.8510   27.2800   32.6560 H   0  0  0  0  0  0  0  0  0  0  0  0
   40.4480   27.8430   34.2120 H   0  0  0  0  0  0  0  0  0  0  0  0
   41.4090   25.7080   33.1460 H   0  0  0  0  0  0  0  0  0  0  0  0
   41.2100   25.7390   34.8930 H   0  0  0  0  0  0  0  0  0  0  0  0
   40.4250   23.6740   34.0480 H   0  0  0  0  0  0  0  0  0  0  0  0
   37.7610   24.6210   37.0250 C   0  0  0  0  0  0  0  0  0  0  0  0
   38.6060   24.1440   35.9810 C   0  0  0  0  0  0  0  0  0  0  0  0
   39.5800   23.2310   36.3640 C   0  0  0  0  0  0  0  0  0  0  0  0
   39.6770   22.8510   37.6750 N   0  0  0  0  0  0  0  0  0  0  0  0
   38.8510   23.3340   38.6170 C   0  0  0  0  0  0  0  0  0  0  0  0
   37.8920   24.2240   38.2800 N   0  0  0  0  0  0  0  0  0  0  0  0
   36.9850   25.3460   36.7300 H   0  0  0  0  0  0  0  0  0  0  0  0
   40.2750   22.7930   35.7050 H   0  0  0  0  0  0  0  0  0  0  0  0
   38.9420   23.0170   39.6660 H   0  0  0  0  0  0  0  0  0  0  0  0
   39.4100   24.4090   32.3510 C   0  0  0  0  0  0  0  0  0  0  0  0
   38.7080   25.1810   32.0420 H   0  0  0  0  0  0  0  0  0  0  0  0
   40.3290   24.5840   31.7240 H   0  0  0  0  0  0  0  0  0  0  0  0
   38.8810   23.0070   32.0810 C   0  0  0  0  0  0  0  0  0  0  0  0
   38.3580   22.6780   33.0070 H   0  0  0  0  0  0  0  0  0  0  0  0
   39.7500   22.3390   31.8480 H   0  0  0  0  0  0  0  0  0  0  0  0
   38.0130   23.0320   30.9360 N   0  0  0  0  0  0  0  0  0  0  0  0
   37.3430   24.3090   30.8430 C   0  0  0  0  0  2  0  0  0  0  0  0
   35.8810   24.1030   31.1670 C   0  0  0  0  0  2  0  0  0  0  0  0
   35.8600   22.7640   31.8490 C   0  0  0  0  0  2  0  0  0  0  0  0
   36.9810   22.0370   31.1010 C   0  0  0  0  0  3  0  0  0  0  0  0
   36.5790   21.8270   30.0850 H   0  0  0  0  0  0  0  0  0  0  0  0
  1  7  1  6  0  0  0
  1 18  1  0  0  0  0
  2  3  1  0  0  0  0
  2  1  1  0  0  0  0
  2  8  1  0  0  0  0
  3 11  1  0  0  0  0
  4  5  1  0  0  0  0
  4 13  1  0  0  0  0
  4  3  1  0  0  0  0
  5 15  1  0  0  0  0
  6  5  1  0  0  0  0
  6 16  1  1  0  0  0
  6  1  1  0  0  0  0
  9  2  1  0  0  0  0
 10  3  1  0  0  0  0
 12  4  1  0  0  0  0
 14  5  1  0  0  0  0
 17 22  1  0  0  0  0
 18 19  1  0  0  0  0
 18 17  2  0  0  0  0
 19 20  2  0  0  0  0
 20 21  1  0  0  0  0
 21 25  1  0  0  0  0
 22 21  2  0  0  0  0
 23 17  1  0  0  0  0
 24 19  1  0  0  0  0
 26  6  1  0  0  0  0
 27 26  1  0  0  0  0
 28 26  1  0  0  0  0
 29 26  1  0  0  0  0
 29 30  1  0  0  0  0
 31 29  1  0  0  0  0
 32 36  1  0  0  0  0
 32 29  1  0  0  0  0
 33 32  1  0  0  0  0
 33 34  1  0  0  0  0
 34 35  1  0  0  0  0
 36 35  1  0  0  0  0
 37 36  1  0  0  0  0
M  END
>  <minimizedAffinity>
-4.53624725

$$$$

 OpenBabel03272506323D

 37 39  0  0  1  0  0  0  0  0999 V2000
   37.0660   23.0250   32.6630 C   0  0  1  0  0  0  0  0  0  0  0  0
   36.6380   21.8570   31.9170 C   0  0  0  0  0  0  0  0  0  0  0  0
   37.5390   21.4170   30.7750 C   0  0  0  0  0  0  0  0  0  0  0  0
   38.9950   21.5460   31.0250 C   0  0  0  0  0  0  0  0  0  0  0  0
   39.4510   22.6940   31.8390 C   0  0  0  0  0  0  0  0  0  0  0  0
   38.5390   23.0040   32.9680 C   0  0  2  0  0  0  0  0  0  0  0  0
   36.6020   22.9700   33.7020 H   0  0  0  0  0  0  0  0  0  0  0  0
   35.6100   21.8060   31.5730 H   0  0  0  0  0  0  0  0  0  0  0  0
   36.7090   20.9860   32.6440 H   0  0  0  0  0  0  0  0  0  0  0  0
   37.3420   20.3280   30.5770 H   0  0  0  0  0  0  0  0  0  0  0  0
   37.2350   21.9270   29.8340 H   0  0  0  0  0  0  0  0  0  0  0  0
   39.4230   20.6010   31.4330 H   0  0  0  0  0  0  0  0  0  0  0  0
   39.4870   21.6450   30.0180 H   0  0  0  0  0  0  0  0  0  0  0  0
   40.4400   22.4450   32.2700 H   0  0  0  0  0  0  0  0  0  0  0  0
   39.6240   23.6260   31.2550 H   0  0  0  0  0  0  0  0  0  0  0  0
   38.9040   23.8800   33.4930 H   0  0  0  0  0  0  0  0  0  0  0  0
   35.5810   24.4940   31.1860 C   0  0  0  0  0  0  0  0  0  0  0  0
   36.5960   24.3300   32.1740 C   0  0  0  0  0  0  0  0  0  0  0  0
   37.1420   25.5030   32.6780 C   0  0  0  0  0  0  0  0  0  0  0  0
   36.6950   26.7120   32.2180 N   0  0  0  0  0  0  0  0  0  0  0  0
   35.7340   26.8060   31.2850 C   0  0  0  0  0  0  0  0  0  0  0  0
   35.1820   25.6840   30.7730 N   0  0  0  0  0  0  0  0  0  0  0  0
   35.1420   23.5670   30.7820 H   0  0  0  0  0  0  0  0  0  0  0  0
   37.8970   25.5390   33.4110 H   0  0  0  0  0  0  0  0  0  0  0  0
   35.3860   27.7850   30.9270 H   0  0  0  0  0  0  0  0  0  0  0  0
   38.7010   21.8370   33.9780 C   0  0  0  0  0  0  0  0  0  0  0  0
   38.2870   20.9050   33.5990 H   0  0  0  0  0  0  0  0  0  0  0  0
   39.8000   21.6340   34.1110 H   0  0  0  0  0  0  0  0  0  0  0  0
   38.0990   22.2310   35.3210 C   0  0  0  0  0  0  0  0  0  0  0  0
   38.0720   21.3080   35.9430 H   0  0  0  0  0  0  0  0  0  0  0  0
   37.0670   22.6290   35.1420 H   0  0  0  0  0  0  0  0  0  0  0  0
   38.8890   23.2750   35.9150 N   0  0  0  0  0  0  0  0  0  0  0  0
   39.7200   22.7370   36.9670 C   0  0  0  0  0  2  0  0  0  0  0  0
   39.1920   23.2370   38.2920 C   0  0  0  0  0  2  0  0  0  0  0  0
   37.8060   23.7120   37.9590 C   0  0  0  0  0  2  0  0  0  0  0  0
   38.0110   24.2370   36.5350 C   0  0  0  0  0  3  0  0  0  0  0  0
   38.5980   25.1770   36.6420 H   0  0  0  0  0  0  0  0  0  0  0  0
  1  6  1  0  0  0  0
  1  7  1  1  0  0  0
  2  9  1  0  0  0  0
  2  1  1  0  0  0  0
  3  4  1  0  0  0  0
  3  2  1  0  0  0  0
  4 12  1  0  0  0  0
  4  5  1  0  0  0  0
  5 14  1  0  0  0  0
  5  6  1  0  0  0  0
  6 16  1  1  0  0  0
  6 26  1  0  0  0  0
  8  2  1  0  0  0  0
 10  3  1  0  0  0  0
 11  3  1  0  0  0  0
 13  4  1  0  0  0  0
 15  5  1  0  0  0  0
 17 18  1  0  0  0  0
 18  1  1  0  0  0  0
 18 19  2  0  0  0  0
 19 24  1  0  0  0  0
 20 19  1  0  0  0  0
 21 20  2  0  0  0  0
 22 17  2  0  0  0  0
 22 21  1  0  0  0  0
 23 17  1  0  0  0  0
 25 21  1  0  0  0  0
 26 28  1  0  0  0  0
 26 29  1  0  0  0  0
 27 26  1  0  0  0  0
 29 32  1  0  0  0  0
 29 30  1  0  0  0  0
 31 29  1  0  0  0  0
 32 36  1  0  0  0  0
 32 33  1  0  0  0  0
 33 34  1  0  0  0  0
 35 34  1  0  0  0  0
 36 37  1  0  0  0  0
 36 35  1  0  0  0  0
M  END
>  <minimizedAffinity>
-4.48144245

$$$$
