
 OpenBabel03272504583D

 25 27  0  0  0  0  0  0  0  0999 V2000
   37.8100   30.3000   46.9980 Cl  0  0  0  0  0  0  0  0  0  0  0  0
   38.3530   31.7140   47.8540 C   0  0  0  0  0  0  0  0  0  0  0  0
   37.9110   31.9090   49.1340 C   0  0  0  0  0  0  0  0  0  0  0  0
   38.3830   33.0580   49.7610 C   0  0  0  0  0  0  0  0  0  0  0  0
   39.2470   33.9250   49.0960 C   0  0  0  0  0  0  0  0  0  0  0  0
   39.6580   33.6780   47.8120 C   0  0  0  0  0  0  0  0  0  0  0  0
   39.1920   32.5290   47.1700 C   0  0  0  0  0  0  0  0  0  0  0  0
   38.0940   33.3020   50.7700 H   0  0  0  0  0  0  0  0  0  0  0  0
   39.5990   34.8100   49.6080 H   0  0  0  0  0  0  0  0  0  0  0  0
   40.3240   34.3520   47.3090 H   0  0  0  0  0  0  0  0  0  0  0  0
   37.4180   30.3050   50.9730 C   0  0  0  0  0  0  0  0  0  0  0  0
   37.0090   31.0180   49.8490 C   0  0  0  0  0  0  0  0  0  0  0  0
   35.6810   30.8490   49.4170 C   0  0  0  0  0  0  0  0  0  0  0  0
   34.8710   30.0080   50.1100 N   0  0  0  0  0  0  0  0  0  0  0  0
   35.3040   29.3390   51.1890 C   0  0  0  0  0  0  0  0  0  0  0  0
   36.5790   29.4840   51.6280 N   0  0  0  0  0  0  0  0  0  0  0  0
   38.4330   30.4320   51.3070 H   0  0  0  0  0  0  0  0  0  0  0  0
   35.3050   31.3640   48.5630 H   0  0  0  0  0  0  0  0  0  0  0  0
   34.6340   28.6690   51.7300 H   0  0  0  0  0  0  0  0  0  0  0  0
   39.6360   32.3000   45.8370 N   0  0  0  0  0  0  0  0  0  0  0  0
   40.1160   31.0440   45.2640 C   0  0  0  0  0  0  0  0  0  0  0  0
   40.6910   31.4760   43.9250 C   0  0  0  0  0  0  0  0  0  0  0  0
   39.6720   32.5540   43.5520 C   0  0  0  0  0  0  0  0  0  0  0  0
   39.6670   33.3450   44.8290 C   0  0  0  0  0  0  0  0  0  0  0  0
   38.8310   34.0590   44.9300 H   0  0  0  0  0  0  0  0  0  0  0  0
  1  2  1  0  0  0  0
  2  3  1  0  0  0  0
  3  4  2  0  0  0  0
  3 12  1  0  0  0  0
  4  8  1  0  0  0  0
  5  9  1  0  0  0  0
  5  4  1  0  0  0  0
  6  5  2  0  0  0  0
  7  6  1  0  0  0  0
  7  2  2  0  0  0  0
 10  6  1  0  0  0  0
 11 17  1  0  0  0  0
 11 16  1  0  0  0  0
 12 11  2  0  0  0  0
 13 12  1  0  0  0  0
 13 14  2  0  0  0  0
 14 15  1  0  0  0  0
 15 16  2  0  0  0  0
 15 19  1  0  0  0  0
 18 13  1  0  0  0  0
 20  7  1  0  0  0  0
 21 20  1  0  0  0  0
 22 21  1  0  0  0  0
 23 22  1  0  0  0  0
 23 24  1  0  0  0  0
 24 25  1  0  0  0  0
 24 20  1  0  0  0  0
M  END
>  <minimizedAffinity>
-6.2172904

>  <minimizedRMSD>
0.62285924

$$$$
