
 OpenBabel03272508013D

 18 19  0  0  0  0  0  0  0  0999 V2000
   38.0660   24.8860   34.8010 C   0  0  0  0  0  0  0  0  0  0  0  0
   37.9840   24.9250   36.2080 C   0  0  0  0  0  0  0  0  0  0  0  0
   38.3080   23.7580   36.9120 C   0  0  0  0  0  0  0  0  0  0  0  0
   38.6800   22.6700   36.2020 N   0  0  0  0  0  0  0  0  0  0  0  0
   38.7520   22.6570   34.8560 C   0  0  0  0  0  0  0  0  0  0  0  0
   38.4380   23.7800   34.1710 N   0  0  0  0  0  0  0  0  0  0  0  0
   37.6840   25.8040   36.7540 H   0  0  0  0  0  0  0  0  0  0  0  0
   39.0630   21.7220   34.4030 H   0  0  0  0  0  0  0  0  0  0  0  0
   37.7270   26.0930   34.1260 N   0  0  0  0  0  0  0  0  0  0  0  0
   37.0930   27.2430   34.7380 C   0  0  0  0  0  2  0  0  0  0  0  0
   36.5250   28.0700   33.6070 C   0  0  0  0  0  2  0  0  0  0  0  0
   36.5840   27.1140   32.4500 C   0  0  0  0  0  2  0  0  0  0  0  0
   37.9310   26.4320   32.7300 C   0  0  0  0  0  3  0  0  0  0  0  0
   38.7750   27.1260   32.5800 H   0  0  0  0  0  0  0  0  0  0  0  0
   38.2340   23.7610   38.3940 C   0  0  0  0  0  0  0  0  0  0  0  0
   39.4700   23.3640   38.8390 F   0  0  0  0  0  0  0  0  0  0  0  0
   37.9420   24.9820   38.9320 F   0  0  0  0  0  0  0  0  0  0  0  0
   37.3070   22.8230   38.8670 F   0  0  0  0  0  0  0  0  0  0  0  0
  1  2  1  0  0  0  0
  2  7  1  0  0  0  0
  2  3  2  0  0  0  0
  3 15  1  0  0  0  0
  4  3  1  0  0  0  0
  5  4  2  0  0  0  0
  6  1  2  0  0  0  0
  6  5  1  0  0  0  0
  8  5  1  0  0  0  0
  9 10  1  0  0  0  0
  9  1  1  0  0  0  0
 11 10  1  0  0  0  0
 12 13  1  0  0  0  0
 12 11  1  0  0  0  0
 13  9  1  0  0  0  0
 14 13  1  0  0  0  0
 15 16  1  0  0  0  0
 15 18  1  0  0  0  0
 15 17  1  0  0  0  0
M  END
>  <minimizedAffinity>
-4.80222559

$$$$

 OpenBabel03272508013D

 18 19  0  0  0  0  0  0  0  0999 V2000
   38.0930   22.1590   34.8300 C   0  0  0  0  0  0  0  0  0  0  0  0
   37.7090   22.5780   36.1200 C   0  0  0  0  0  0  0  0  0  0  0  0
   38.6830   23.1790   36.9270 C   0  0  0  0  0  0  0  0  0  0  0  0
   39.9280   23.3210   36.4210 N   0  0  0  0  0  0  0  0  0  0  0  0
   40.2730   22.9130   35.1830 C   0  0  0  0  0  0  0  0  0  0  0  0
   39.3360   22.3310   34.4000 N   0  0  0  0  0  0  0  0  0  0  0  0
   36.7100   22.4530   36.5040 H   0  0  0  0  0  0  0  0  0  0  0  0
   41.3030   23.0840   34.8940 H   0  0  0  0  0  0  0  0  0  0  0  0
   37.0730   21.5530   34.0440 N   0  0  0  0  0  0  0  0  0  0  0  0
   35.9430   20.8130   34.5690 C   0  0  0  0  0  2  0  0  0  0  0  0
   35.3990   19.9920   33.4210 C   0  0  0  0  0  2  0  0  0  0  0  0
   36.5100   20.0760   32.4140 C   0  0  0  0  0  2  0  0  0  0  0  0
   36.9370   21.5390   32.5990 C   0  0  0  0  0  3  0  0  0  0  0  0
   36.1610   22.2350   32.2390 H   0  0  0  0  0  0  0  0  0  0  0  0
   38.3160   23.6320   38.2920 C   0  0  0  0  0  0  0  0  0  0  0  0
   39.4290   23.4360   39.0710 F   0  0  0  0  0  0  0  0  0  0  0  0
   37.9550   24.9470   38.3600 F   0  0  0  0  0  0  0  0  0  0  0  0
   37.2900   22.8500   38.8380 F   0  0  0  0  0  0  0  0  0  0  0  0
  1  2  1  0  0  0  0
  2  7  1  0  0  0  0
  2  3  2  0  0  0  0
  3 15  1  0  0  0  0
  4  3  1  0  0  0  0
  5  4  2  0  0  0  0
  6  1  2  0  0  0  0
  6  5  1  0  0  0  0
  8  5  1  0  0  0  0
  9 10  1  0  0  0  0
  9  1  1  0  0  0  0
 11 10  1  0  0  0  0
 12 13  1  0  0  0  0
 12 11  1  0  0  0  0
 13  9  1  0  0  0  0
 14 13  1  0  0  0  0
 15 17  1  0  0  0  0
 15 18  1  0  0  0  0
 15 16  1  0  0  0  0
M  END
>  <minimizedAffinity>
-4.62625647

$$$$

 OpenBabel03272508013D

 18 19  0  0  0  0  0  0  0  0999 V2000
   37.7310   22.7050   34.6790 C   0  0  0  0  0  0  0  0  0  0  0  0
   37.7320   22.6490   36.0880 C   0  0  0  0  0  0  0  0  0  0  0  0
   38.2980   23.7270   36.7820 C   0  0  0  0  0  0  0  0  0  0  0  0
   38.8050   24.7510   36.0610 N   0  0  0  0  0  0  0  0  0  0  0  0
   38.7910   24.7830   34.7130 C   0  0  0  0  0  0  0  0  0  0  0  0
   38.2480   23.7450   34.0380 N   0  0  0  0  0  0  0  0  0  0  0  0
   37.3230   21.8210   36.6420 H   0  0  0  0  0  0  0  0  0  0  0  0
   39.2290   25.6600   34.2520 H   0  0  0  0  0  0  0  0  0  0  0  0
   37.1470   21.5900   34.0140 N   0  0  0  0  0  0  0  0  0  0  0  0
   37.6590   20.9750   32.8060 C   0  0  0  0  0  2  0  0  0  0  0  0
   36.5230   20.1640   32.2240 C   0  0  0  0  0  2  0  0  0  0  0  0
   35.3370   20.6860   32.9830 C   0  0  0  0  0  2  0  0  0  0  0  0
   35.9550   20.8460   34.3790 C   0  0  0  0  0  3  0  0  0  0  0  0
   36.1880   19.8680   34.8330 H   0  0  0  0  0  0  0  0  0  0  0  0
   38.3180   23.7030   38.2660 C   0  0  0  0  0  0  0  0  0  0  0  0
   37.3390   22.8190   38.6460 F   0  0  0  0  0  0  0  0  0  0  0  0
   39.5090   23.3000   38.7970 F   0  0  0  0  0  0  0  0  0  0  0  0
   37.9770   24.9500   38.8070 F   0  0  0  0  0  0  0  0  0  0  0  0
  1  2  1  0  0  0  0
  2  7  1  0  0  0  0
  2  3  2  0  0  0  0
  3 15  1  0  0  0  0
  4  3  1  0  0  0  0
  5  4  2  0  0  0  0
  6  1  2  0  0  0  0
  6  5  1  0  0  0  0
  8  5  1  0  0  0  0
  9 13  1  0  0  0  0
  9  1  1  0  0  0  0
 10  9  1  0  0  0  0
 11 10  1  0  0  0  0
 11 12  1  0  0  0  0
 12 13  1  0  0  0  0
 13 14  1  0  0  0  0
 15 16  1  0  0  0  0
 15 17  1  0  0  0  0
 15 18  1  0  0  0  0
M  END
>  <minimizedAffinity>
-4.55937147

$$$$

 OpenBabel03272508013D

 18 19  0  0  0  0  0  0  0  0999 V2000
   39.0940   24.2640   34.7570 C   0  0  0  0  0  0  0  0  0  0  0  0
   39.0380   24.4680   36.1520 C   0  0  0  0  0  0  0  0  0  0  0  0
   38.3470   23.5240   36.9210 C   0  0  0  0  0  0  0  0  0  0  0  0
   37.7790   22.4770   36.2820 N   0  0  0  0  0  0  0  0  0  0  0  0
   37.8460   22.3030   34.9470 C   0  0  0  0  0  0  0  0  0  0  0  0
   38.5110   23.2120   34.1990 N   0  0  0  0  0  0  0  0  0  0  0  0
   39.4990   25.3110   36.6400 H   0  0  0  0  0  0  0  0  0  0  0  0
   37.3490   21.4230   34.5540 H   0  0  0  0  0  0  0  0  0  0  0  0
   39.8060   25.2480   34.0140 N   0  0  0  0  0  0  0  0  0  0  0  0
   40.7930   26.1570   34.5620 C   0  0  0  0  0  2  0  0  0  0  0  0
   40.9400   27.2820   33.5620 C   0  0  0  0  0  2  0  0  0  0  0  0
   39.7390   27.0860   32.6820 C   0  0  0  0  0  2  0  0  0  0  0  0
   39.7090   25.5530   32.5990 C   0  0  0  0  0  3  0  0  0  0  0  0
   40.5630   25.1620   32.0210 H   0  0  0  0  0  0  0  0  0  0  0  0
   38.2670   23.7050   38.3910 C   0  0  0  0  0  0  0  0  0  0  0  0
   37.3080   22.8260   38.8310 F   0  0  0  0  0  0  0  0  0  0  0  0
   39.4370   23.4460   39.0460 F   0  0  0  0  0  0  0  0  0  0  0  0
   37.8300   24.9920   38.7310 F   0  0  0  0  0  0  0  0  0  0  0  0
  1  2  1  0  0  0  0
  2  7  1  0  0  0  0
  2  3  2  0  0  0  0
  3 15  1  0  0  0  0
  4  3  1  0  0  0  0
  5  4  2  0  0  0  0
  6  1  2  0  0  0  0
  6  5  1  0  0  0  0
  8  5  1  0  0  0  0
  9 10  1  0  0  0  0
  9  1  1  0  0  0  0
 11 10  1  0  0  0  0
 12 11  1  0  0  0  0
 13 12  1  0  0  0  0
 13  9  1  0  0  0  0
 14 13  1  0  0  0  0
 15 18  1  0  0  0  0
 15 16  1  0  0  0  0
 15 17  1  0  0  0  0
M  END
>  <minimizedAffinity>
-4.4803834

$$$$

 OpenBabel03272508013D

 18 19  0  0  0  0  0  0  0  0999 V2000
   38.0650   22.9230   34.3850 C   0  0  0  0  0  0  0  0  0  0  0  0
   37.2950   21.7440   34.3250 C   0  0  0  0  0  0  0  0  0  0  0  0
   36.5300   21.5230   33.1730 C   0  0  0  0  0  0  0  0  0  0  0  0
   36.5770   22.4510   32.1910 N   0  0  0  0  0  0  0  0  0  0  0  0
   37.3210   23.5720   32.2710 C   0  0  0  0  0  0  0  0  0  0  0  0
   38.0610   23.7910   33.3810 N   0  0  0  0  0  0  0  0  0  0  0  0
   37.2730   21.0170   35.1210 H   0  0  0  0  0  0  0  0  0  0  0  0
   37.2740   24.2380   31.4170 H   0  0  0  0  0  0  0  0  0  0  0  0
   38.8270   23.1080   35.5730 N   0  0  0  0  0  0  0  0  0  0  0  0
   39.9140   22.2550   36.0100 C   0  0  0  0  0  2  0  0  0  0  0  0
   40.1150   22.5380   37.4820 C   0  0  0  0  0  2  0  0  0  0  0  0
   38.8630   23.2870   37.8370 C   0  0  0  0  0  2  0  0  0  0  0  0
   38.6940   24.1480   36.5770 C   0  0  0  0  0  3  0  0  0  0  0  0
   39.4830   24.9140   36.5000 H   0  0  0  0  0  0  0  0  0  0  0  0
   35.7070   20.2920   33.0730 C   0  0  0  0  0  0  0  0  0  0  0  0
   35.4190   19.9220   34.3630 F   0  0  0  0  0  0  0  0  0  0  0  0
   34.5360   20.4620   32.3910 F   0  0  0  0  0  0  0  0  0  0  0  0
   36.4230   19.2370   32.4930 F   0  0  0  0  0  0  0  0  0  0  0  0
  1  9  1  0  0  0  0
  2  1  1  0  0  0  0
  2  7  1  0  0  0  0
  3  2  2  0  0  0  0
  4  5  2  0  0  0  0
  4  3  1  0  0  0  0
  5  6  1  0  0  0  0
  6  1  2  0  0  0  0
  8  5  1  0  0  0  0
  9 10  1  0  0  0  0
  9 13  1  0  0  0  0
 10 11  1  0  0  0  0
 11 12  1  0  0  0  0
 13 12  1  0  0  0  0
 14 13  1  0  0  0  0
 15  3  1  0  0  0  0
 15 16  1  0  0  0  0
 17 15  1  0  0  0  0
 18 15  1  0  0  0  0
M  END
>  <minimizedAffinity>
-4.37087154

$$$$

 OpenBabel03272508013D

 18 19  0  0  0  0  0  0  0  0999 V2000
   38.3230   24.4570   36.1610 C   0  0  0  0  0  0  0  0  0  0  0  0
   39.5330   23.7510   36.0050 C   0  0  0  0  0  0  0  0  0  0  0  0
   39.9980   23.0070   37.0970 C   0  0  0  0  0  0  0  0  0  0  0  0
   39.2590   23.0100   38.2290 N   0  0  0  0  0  0  0  0  0  0  0  0
   38.1030   23.6920   38.3540 C   0  0  0  0  0  0  0  0  0  0  0  0
   37.6510   24.4140   37.3040 N   0  0  0  0  0  0  0  0  0  0  0  0
   40.1060   23.7640   35.0930 H   0  0  0  0  0  0  0  0  0  0  0  0
   37.6040   23.6150   39.3130 H   0  0  0  0  0  0  0  0  0  0  0  0
   37.8880   25.2010   35.0270 N   0  0  0  0  0  0  0  0  0  0  0  0
   37.9890   24.7600   33.6500 C   0  0  0  0  0  2  0  0  0  0  0  0
   37.8430   25.9990   32.7940 C   0  0  0  0  0  2  0  0  0  0  0  0
   38.0280   27.1030   33.7950 C   0  0  0  0  0  2  0  0  0  0  0  0
   37.2710   26.5140   34.9930 C   0  0  0  0  0  3  0  0  0  0  0  0
   36.1850   26.4680   34.8040 H   0  0  0  0  0  0  0  0  0  0  0  0
   41.2680   22.2500   36.9710 C   0  0  0  0  0  0  0  0  0  0  0  0
   41.1840   21.5590   35.7890 F   0  0  0  0  0  0  0  0  0  0  0  0
   42.3820   23.0390   36.9430 F   0  0  0  0  0  0  0  0  0  0  0  0
   41.4080   21.3010   37.9930 F   0  0  0  0  0  0  0  0  0  0  0  0
  1  6  1  0  0  0  0
  2  1  2  0  0  0  0
  2  3  1  0  0  0  0
  3  4  2  0  0  0  0
  4  5  1  0  0  0  0
  5  8  1  0  0  0  0
  6  5  2  0  0  0  0
  7  2  1  0  0  0  0
  9  1  1  0  0  0  0
 10  9  1  0  0  0  0
 11 10  1  0  0  0  0
 11 12  1  0  0  0  0
 12 13  1  0  0  0  0
 13  9  1  0  0  0  0
 14 13  1  0  0  0  0
 15  3  1  0  0  0  0
 15 18  1  0  0  0  0
 16 15  1  0  0  0  0
 17 15  1  0  0  0  0
M  END
>  <minimizedAffinity>
-4.35708952

$$$$

 OpenBabel03272508013D

 18 19  0  0  0  0  0  0  0  0999 V2000
   38.8530   23.5390   34.7030 C   0  0  0  0  0  0  0  0  0  0  0  0
   38.2970   23.8910   35.9510 C   0  0  0  0  0  0  0  0  0  0  0  0
   38.8900   23.3570   37.1020 C   0  0  0  0  0  0  0  0  0  0  0  0
   39.9560   22.5400   36.9470 N   0  0  0  0  0  0  0  0  0  0  0  0
   40.4700   22.2180   35.7440 C   0  0  0  0  0  0  0  0  0  0  0  0
   39.9010   22.7290   34.6290 N   0  0  0  0  0  0  0  0  0  0  0  0
   37.4460   24.5440   36.0500 H   0  0  0  0  0  0  0  0  0  0  0  0
   41.3260   21.5530   35.7520 H   0  0  0  0  0  0  0  0  0  0  0  0
   38.2190   24.1030   33.5600 N   0  0  0  0  0  0  0  0  0  0  0  0
   37.5700   25.3980   33.5190 C   0  0  0  0  0  2  0  0  0  0  0  0
   36.6740   25.3890   32.3010 C   0  0  0  0  0  2  0  0  0  0  0  0
   36.6270   23.9290   31.9500 C   0  0  0  0  0  2  0  0  0  0  0  0
   38.0840   23.5340   32.2320 C   0  0  0  0  0  3  0  0  0  0  0  0
   38.7750   23.9890   31.5030 H   0  0  0  0  0  0  0  0  0  0  0  0
   38.3330   23.7050   38.4330 C   0  0  0  0  0  0  0  0  0  0  0  0
   37.8900   25.0000   38.3330 F   0  0  0  0  0  0  0  0  0  0  0  0
   37.2930   22.9100   38.8230 F   0  0  0  0  0  0  0  0  0  0  0  0
   39.3200   23.6840   39.4270 F   0  0  0  0  0  0  0  0  0  0  0  0
  1  2  1  0  0  0  0
  2  7  1  0  0  0  0
  2  3  2  0  0  0  0
  3 15  1  0  0  0  0
  4  3  1  0  0  0  0
  5  8  1  0  0  0  0
  5  4  2  0  0  0  0
  6  1  2  0  0  0  0
  6  5  1  0  0  0  0
  9  1  1  0  0  0  0
 10  9  1  0  0  0  0
 11 10  1  0  0  0  0
 12 13  1  0  0  0  0
 12 11  1  0  0  0  0
 13  9  1  0  0  0  0
 14 13  1  0  0  0  0
 15 17  1  0  0  0  0
 15 18  1  0  0  0  0
 16 15  1  0  0  0  0
M  END
>  <minimizedAffinity>
-4.32696295

$$$$

 OpenBabel03272508013D

 18 19  0  0  0  0  0  0  0  0999 V2000
   37.7210   25.5030   34.2340 C   0  0  0  0  0  0  0  0  0  0  0  0
   37.7630   24.6120   35.3260 C   0  0  0  0  0  0  0  0  0  0  0  0
   38.1110   25.1340   36.5790 C   0  0  0  0  0  0  0  0  0  0  0  0
   38.3840   26.4550   36.6640 N   0  0  0  0  0  0  0  0  0  0  0  0
   38.3360   27.2880   35.6050 C   0  0  0  0  0  0  0  0  0  0  0  0
   38.0020   26.7890   34.3930 N   0  0  0  0  0  0  0  0  0  0  0  0
   37.5420   23.5620   35.2350 H   0  0  0  0  0  0  0  0  0  0  0  0
   38.5760   28.3260   35.8030 H   0  0  0  0  0  0  0  0  0  0  0  0
   37.3630   24.9310   32.9810 N   0  0  0  0  0  0  0  0  0  0  0  0
   36.6160   25.6050   31.9370 C   0  0  0  0  0  2  0  0  0  0  0  0
   36.0870   24.5220   31.0230 C   0  0  0  0  0  2  0  0  0  0  0  0
   36.2920   23.2820   31.8440 C   0  0  0  0  0  2  0  0  0  0  0  0
   37.6520   23.5990   32.4820 C   0  0  0  0  0  3  0  0  0  0  0  0
   38.4620   23.5930   31.7340 H   0  0  0  0  0  0  0  0  0  0  0  0
   38.1660   24.2270   37.7520 C   0  0  0  0  0  0  0  0  0  0  0  0
   39.3670   23.5670   37.6680 F   0  0  0  0  0  0  0  0  0  0  0  0
   38.1000   24.8710   38.9540 F   0  0  0  0  0  0  0  0  0  0  0  0
   37.1590   23.2540   37.7010 F   0  0  0  0  0  0  0  0  0  0  0  0
  1  6  2  0  0  0  0
  1  2  1  0  0  0  0
  2  3  2  0  0  0  0
  3  4  1  0  0  0  0
  3 15  1  0  0  0  0
  5  8  1  0  0  0  0
  5  4  2  0  0  0  0
  6  5  1  0  0  0  0
  7  2  1  0  0  0  0
  9  1  1  0  0  0  0
 10  9  1  0  0  0  0
 11 12  1  0  0  0  0
 11 10  1  0  0  0  0
 12 13  1  0  0  0  0
 13  9  1  0  0  0  0
 14 13  1  0  0  0  0
 15 17  1  0  0  0  0
 16 15  1  0  0  0  0
 18 15  1  0  0  0  0
M  END
>  <minimizedAffinity>
-4.31645536

$$$$

 OpenBabel03272508013D

 18 19  0  0  0  0  0  0  0  0999 V2000
   36.9420   26.0610   32.7160 C   0  0  0  0  0  0  0  0  0  0  0  0
   37.0270   24.6560   32.6410 C   0  0  0  0  0  0  0  0  0  0  0  0
   36.2270   24.0050   31.6930 C   0  0  0  0  0  0  0  0  0  0  0  0
   35.4250   24.7610   30.9110 N   0  0  0  0  0  0  0  0  0  0  0  0
   35.3600   26.1040   31.0010 C   0  0  0  0  0  0  0  0  0  0  0  0
   36.1300   26.7380   31.9150 N   0  0  0  0  0  0  0  0  0  0  0  0
   37.6740   24.0730   33.2750 H   0  0  0  0  0  0  0  0  0  0  0  0
   34.6780   26.5960   30.3180 H   0  0  0  0  0  0  0  0  0  0  0  0
   37.7710   26.6820   33.6920 N   0  0  0  0  0  0  0  0  0  0  0  0
   39.2160   26.5800   33.7480 C   0  0  0  0  0  2  0  0  0  0  0  0
   39.6190   26.9900   35.1470 C   0  0  0  0  0  2  0  0  0  0  0  0
   38.3100   26.9490   35.8820 C   0  0  0  0  0  2  0  0  0  0  0  0
   37.3760   27.5230   34.8070 C   0  0  0  0  0  3  0  0  0  0  0  0
   37.5780   28.5920   34.6240 H   0  0  0  0  0  0  0  0  0  0  0  0
   36.2900   22.5260   31.5840 C   0  0  0  0  0  0  0  0  0  0  0  0
   37.4990   22.2380   31.0020 F   0  0  0  0  0  0  0  0  0  0  0  0
   36.2120   21.8780   32.7840 F   0  0  0  0  0  0  0  0  0  0  0  0
   35.2960   22.0270   30.7330 F   0  0  0  0  0  0  0  0  0  0  0  0
  1  9  1  0  0  0  0
  2  1  1  0  0  0  0
  2  7  1  0  0  0  0
  3  2  2  0  0  0  0
  4  5  2  0  0  0  0
  4  3  1  0  0  0  0
  5  6  1  0  0  0  0
  6  1  2  0  0  0  0
  8  5  1  0  0  0  0
  9 10  1  0  0  0  0
  9 13  1  0  0  0  0
 10 11  1  0  0  0  0
 11 12  1  0  0  0  0
 13 12  1  0  0  0  0
 14 13  1  0  0  0  0
 15  3  1  0  0  0  0
 15 17  1  0  0  0  0
 16 15  1  0  0  0  0
 18 15  1  0  0  0  0
M  END
>  <minimizedAffinity>
-4.27614403

$$$$
