
 OpenBabel03272510183D

 33 36  0  0  0  0  0  0  0  0999 V2000
   37.3750   29.2220   50.8950 Br  0  0  0  0  0  0  0  0  0  0  0  0
   35.9900   29.2790   49.5820 C   0  0  0  0  0  0  0  0  0  0  0  0
   35.9990   30.2570   48.5880 C   0  0  0  0  0  0  0  0  0  0  0  0
   34.9640   30.2330   47.6760 C   0  0  0  0  0  0  0  0  0  0  0  0
   33.9390   29.3000   47.7020 C   0  0  0  0  0  0  0  0  0  0  0  0
   33.9650   28.3600   48.6880 C   0  0  0  0  0  0  0  0  0  0  0  0
   34.9870   28.3610   49.6130 C   0  0  0  0  0  0  0  0  0  0  0  0
   34.9150   30.9730   46.8720 H   0  0  0  0  0  0  0  0  0  0  0  0
   33.2120   27.5890   48.7960 H   0  0  0  0  0  0  0  0  0  0  0  0
   35.0030   27.6100   50.3970 H   0  0  0  0  0  0  0  0  0  0  0  0
   32.8600   29.2940   46.7300 C   0  0  0  0  0  0  0  0  0  0  0  0
   32.1460   28.1610   46.3690 C   0  0  0  0  0  0  0  0  0  0  0  0
   31.1200   28.1830   45.4380 C   0  0  0  0  0  0  0  0  0  0  0  0
   30.7980   29.3410   44.8600 N   0  0  0  0  0  0  0  0  0  0  0  0
   31.4840   30.4590   45.1990 C   0  0  0  0  0  0  0  0  0  0  0  0
   32.4630   30.4000   46.0970 N   0  0  0  0  0  0  0  0  0  0  0  0
   32.4070   27.2110   46.8410 H   0  0  0  0  0  0  0  0  0  0  0  0
   30.6040   27.2600   45.2020 H   0  0  0  0  0  0  0  0  0  0  0  0
   31.1350   31.6910   44.5780 N   0  0  0  0  0  0  0  0  0  0  0  0
   29.7590   32.1760   44.3860 C   0  0  0  0  0  2  0  0  0  0  0  0
   29.8730   33.2400   43.3070 C   0  0  0  0  0  2  0  0  0  0  0  0
   31.2070   33.8720   43.7220 C   0  0  0  0  0  2  0  0  0  0  0  0
   32.0430   32.6790   44.0290 C   0  0  0  0  0  3  0  0  0  0  0  0
   32.8530   32.9670   44.7150 H   0  0  0  0  0  0  0  0  0  0  0  0
   37.9930   33.1760   49.4600 C   0  0  0  0  0  0  0  0  0  0  0  0
   39.0270   33.1690   48.4650 C   0  0  0  0  0  0  0  0  0  0  0  0
   39.0120   32.1550   47.5140 C   0  0  0  0  0  0  0  0  0  0  0  0
   38.0180   31.2150   47.5700 N   0  0  0  0  0  0  0  0  0  0  0  0
   37.0530   31.2510   48.5260 C   0  0  0  0  0  0  0  0  0  0  0  0
   37.0440   32.2330   49.4690 N   0  0  0  0  0  0  0  0  0  0  0  0
   37.9320   33.9270   50.2320 H   0  0  0  0  0  0  0  0  0  0  0  0
   39.7640   33.9610   48.5140 H   0  0  0  0  0  0  0  0  0  0  0  0
   39.7720   32.1400   46.7720 H   0  0  0  0  0  0  0  0  0  0  0  0
  2  7  1  0  0  0  0
  2  1  1  0  0  0  0
  3  2  2  0  0  0  0
  4  5  2  0  0  0  0
  4  3  1  0  0  0  0
  5  6  1  0  0  0  0
  6  9  1  0  0  0  0
  6  7  2  0  0  0  0
  7 10  1  0  0  0  0
  8  4  1  0  0  0  0
 11  5  1  0  0  0  0
 12 11  1  0  0  0  0
 12 17  1  0  0  0  0
 13 12  2  0  0  0  0
 14 15  2  0  0  0  0
 14 13  1  0  0  0  0
 15 16  1  0  0  0  0
 16 11  2  0  0  0  0
 18 13  1  0  0  0  0
 19 15  1  0  0  0  0
 20 19  1  0  0  0  0
 21 22  1  0  0  0  0
 21 20  1  0  0  0  0
 22 23  1  0  0  0  0
 23 19  1  0  0  0  0
 23 24  1  0  0  0  0
 25 30  1  0  0  0  0
 25 31  1  0  0  0  0
 26 32  1  0  0  0  0
 26 25  2  0  0  0  0
 27 28  2  0  0  0  0
 27 26  1  0  0  0  0
 28 29  1  0  0  0  0
 29  3  1  0  0  0  0
 29 30  2  0  0  0  0
 33 27  1  0  0  0  0
M  END
>  <minimizedAffinity>
-6.69031191

>  <minimizedRMSD>
0.131922469

$$$$
