
 OpenBabel03272502513D

 24 26  0  0  0  0  0  0  0  0999 V2000
   35.9640   30.2690   48.6140 C   0  0  0  0  0  0  0  0  0  0  0  0
   35.9890   29.2960   49.5940 C   0  0  0  0  0  0  0  0  0  0  0  0
   35.0150   28.3260   49.6970 C   0  0  0  0  0  0  0  0  0  0  0  0
   34.0110   28.3810   48.7620 C   0  0  0  0  0  0  0  0  0  0  0  0
   33.9590   29.3460   47.7680 C   0  0  0  0  0  0  0  0  0  0  0  0
   34.9460   30.2710   47.7210 N   0  0  0  0  0  0  0  0  0  0  0  0
   36.8260   29.3290   50.2960 H   0  0  0  0  0  0  0  0  0  0  0  0
   35.0550   27.5660   50.4800 H   0  0  0  0  0  0  0  0  0  0  0  0
   33.2200   27.6560   48.7840 H   0  0  0  0  0  0  0  0  0  0  0  0
   32.8990   29.3620   46.8230 N   0  0  0  0  0  0  0  0  0  0  0  0
   32.5770   30.4740   45.9520 C   0  0  0  0  0  0  0  0  0  0  0  0
   31.1130   30.2350   45.6560 C   0  0  0  0  0  0  0  0  0  0  0  0
   31.1070   28.7190   45.4270 C   0  0  0  0  0  0  0  0  0  0  0  0
   31.9790   28.2660   46.5850 C   0  0  0  0  0  0  0  0  0  0  0  0
   32.4940   27.3060   46.3770 H   0  0  0  0  0  0  0  0  0  0  0  0
   38.0980   33.1000   49.4750 C   0  0  0  0  0  0  0  0  0  0  0  0
   38.9870   33.1750   48.3990 C   0  0  0  0  0  0  0  0  0  0  0  0
   38.8350   32.2350   47.3760 C   0  0  0  0  0  0  0  0  0  0  0  0
   37.8400   31.3160   47.4960 N   0  0  0  0  0  0  0  0  0  0  0  0
   37.0120   31.2770   48.5400 C   0  0  0  0  0  0  0  0  0  0  0  0
   37.1310   32.1710   49.5450 N   0  0  0  0  0  0  0  0  0  0  0  0
   38.1020   33.7740   50.3450 H   0  0  0  0  0  0  0  0  0  0  0  0
   39.7310   33.9590   48.4340 H   0  0  0  0  0  0  0  0  0  0  0  0
   39.5110   32.2930   46.5590 H   0  0  0  0  0  0  0  0  0  0  0  0
  1  2  1  0  0  0  0
  2  3  2  0  0  0  0
  2  7  1  0  0  0  0
  3  8  1  0  0  0  0
  4  9  1  0  0  0  0
  4  3  1  0  0  0  0
  5  4  2  0  0  0  0
  6  5  1  0  0  0  0
  6  1  2  0  0  0  0
 10  5  1  0  0  0  0
 11 10  1  0  0  0  0
 12 11  1  0  0  0  0
 13 12  1  0  0  0  0
 13 14  1  0  0  0  0
 14 10  1  0  0  0  0
 15 14  1  0  0  0  0
 16 21  1  0  0  0  0
 16 22  1  0  0  0  0
 17 23  1  0  0  0  0
 17 16  2  0  0  0  0
 18 19  2  0  0  0  0
 18 17  1  0  0  0  0
 19 20  1  0  0  0  0
 20  1  1  0  0  0  0
 20 21  2  0  0  0  0
 24 18  1  0  0  0  0
M  END
>  <minimizedAffinity>
-5.52089071

>  <minimizedRMSD>
0.126852572

$$$$
