
 OpenBabel03272510053D

 34 36  0  0  0  0  0  0  0  0999 V2000
   36.8050   26.0360   32.5310 C   0  0  0  0  0  0  0  0  0  0  0  0
   37.2910   26.4420   33.7320 C   0  0  0  0  0  0  0  0  0  0  0  0
   36.9830   27.7110   34.2110 C   0  0  0  0  0  0  0  0  0  0  0  0
   36.1910   28.5960   33.5000 C   0  0  0  0  0  0  0  0  0  0  0  0
   35.6910   28.2230   32.2900 C   0  0  0  0  0  0  0  0  0  0  0  0
   36.0100   26.9650   31.8450 C   0  0  0  0  0  0  0  0  0  0  0  0
   37.3890   28.0090   35.1880 H   0  0  0  0  0  0  0  0  0  0  0  0
   36.0180   29.5490   33.9690 H   0  0  0  0  0  0  0  0  0  0  0  0
   35.0820   28.9420   31.7720 H   0  0  0  0  0  0  0  0  0  0  0  0
   35.5530   26.7840   30.8630 H   0  0  0  0  0  0  0  0  0  0  0  0
   40.2560   24.5330   34.7710 C   0  0  0  0  0  0  0  0  0  0  0  0
   39.3970   25.3470   34.0460 C   0  0  0  0  0  0  0  0  0  0  0  0
   38.1460   25.6110   34.5110 C   0  0  0  0  0  0  0  0  0  0  0  0
   37.7940   25.0500   35.7010 N   0  0  0  0  0  0  0  0  0  0  0  0
   38.6210   24.2690   36.4050 C   0  0  0  0  0  0  0  0  0  0  0  0
   39.8430   24.0150   35.9340 N   0  0  0  0  0  0  0  0  0  0  0  0
   41.2660   24.2240   34.5480 H   0  0  0  0  0  0  0  0  0  0  0  0
   39.9730   25.6480   33.2050 H   0  0  0  0  0  0  0  0  0  0  0  0
   38.1280   23.7820   37.7220 C   0  0  0  0  0  0  0  0  0  0  0  0
   37.1440   22.8200   37.5830 F   0  0  0  0  0  0  0  0  0  0  0  0
   39.1910   23.0390   38.3650 F   0  0  0  0  0  0  0  0  0  0  0  0
   37.8030   24.6870   38.6170 F   0  0  0  0  0  0  0  0  0  0  0  0
   37.0810   24.4800   31.8550 S   0  0  0  0  0  0  0  0  0  0  0  0
   38.0280   24.5560   30.7090 O   0  0  0  0  0  0  0  0  0  0  0  0
   35.8170   24.3720   31.0310 O   0  0  0  0  0  0  0  0  0  0  0  0
   36.6940   22.9730   32.4940 C   0  0  0  0  0  0  0  0  0  0  0  0
   36.3100   23.0120   33.5300 H   0  0  0  0  0  0  0  0  0  0  0  0
   37.7260   22.4780   32.7080 H   0  0  0  0  0  0  0  0  0  0  0  0
   36.0780   21.9850   31.7090 N   0  0  0  0  0  0  0  0  0  0  0  0
   35.2900   21.1710   32.6510 C   0  0  0  0  0  2  0  0  0  0  0  0
   34.9920   19.9140   31.9260 C   0  0  0  0  0  2  0  0  0  0  0  0
   36.0540   19.8310   30.8690 C   0  0  0  0  0  2  0  0  0  0  0  0
   36.9920   20.9920   31.1760 C   0  0  0  0  0  3  0  0  0  0  0  0
   37.4570   21.3610   30.2270 H   0  0  0  0  0  0  0  0  0  0  0  0
  1  2  1  0  0  0  0
  2  3  2  0  0  0  0
  2 13  1  0  0  0  0
  3  7  1  0  0  0  0
  4  8  1  0  0  0  0
  4  3  1  0  0  0  0
  5  4  2  0  0  0  0
  6  5  1  0  0  0  0
  6  1  2  0  0  0  0
  9  5  1  0  0  0  0
 10  6  1  0  0  0  0
 11 16  1  0  0  0  0
 12 13  1  0  0  0  0
 12 11  2  0  0  0  0
 13 14  2  0  0  0  0
 14 15  1  0  0  0  0
 15 19  1  0  0  0  0
 16 15  2  0  0  0  0
 17 11  1  0  0  0  0
 18 12  1  0  0  0  0
 19 21  1  0  0  0  0
 19 22  1  0  0  0  0
 20 19  1  0  0  0  0
 23 26  1  0  0  0  0
 23  1  1  0  0  0  0
 24 23  2  0  0  0  0
 25 23  2  0  0  0  0
 26 28  1  0  0  0  0
 26 27  1  0  0  0  0
 29 26  1  0  0  0  0
 29 30  1  0  0  0  0
 31 30  1  0  0  0  0
 32 33  1  0  0  0  0
 32 31  1  0  0  0  0
 33 29  1  0  0  0  0
 34 33  1  0  0  0  0
M  END
>  <minimizedAffinity>
-6.08639574

$$$$

 OpenBabel03272510053D

 34 36  0  0  0  0  0  0  0  0999 V2000
   38.9610   26.5640   33.7260 C   0  0  0  0  0  0  0  0  0  0  0  0
   38.8080   26.1560   32.4400 C   0  0  0  0  0  0  0  0  0  0  0  0
   39.8520   26.3170   31.5330 C   0  0  0  0  0  0  0  0  0  0  0  0
   41.0600   26.8890   31.8920 C   0  0  0  0  0  0  0  0  0  0  0  0
   41.2440   27.3140   33.1730 C   0  0  0  0  0  0  0  0  0  0  0  0
   40.1990   27.1400   34.0440 C   0  0  0  0  0  0  0  0  0  0  0  0
   39.6980   25.9740   30.5010 H   0  0  0  0  0  0  0  0  0  0  0  0
   41.7940   26.9610   31.1090 H   0  0  0  0  0  0  0  0  0  0  0  0
   42.1980   27.7530   33.4070 H   0  0  0  0  0  0  0  0  0  0  0  0
   40.4680   27.5220   35.0380 H   0  0  0  0  0  0  0  0  0  0  0  0
   35.4590   25.9090   30.9450 C   0  0  0  0  0  0  0  0  0  0  0  0
   36.6670   26.4170   31.4000 C   0  0  0  0  0  0  0  0  0  0  0  0
   37.5850   25.5940   31.9750 C   0  0  0  0  0  0  0  0  0  0  0  0
   37.2630   24.2740   32.0720 N   0  0  0  0  0  0  0  0  0  0  0  0
   36.1010   23.7790   31.6300 C   0  0  0  0  0  0  0  0  0  0  0  0
   35.2090   24.6000   31.0730 N   0  0  0  0  0  0  0  0  0  0  0  0
   34.6310   26.4160   30.4740 H   0  0  0  0  0  0  0  0  0  0  0  0
   36.6260   27.4490   31.1480 H   0  0  0  0  0  0  0  0  0  0  0  0
   35.9130   22.3080   31.7370 C   0  0  0  0  0  0  0  0  0  0  0  0
   36.9300   21.7060   32.4550 F   0  0  0  0  0  0  0  0  0  0  0  0
   34.7580   22.0510   32.5720 F   0  0  0  0  0  0  0  0  0  0  0  0
   35.6420   21.6520   30.6310 F   0  0  0  0  0  0  0  0  0  0  0  0
   37.7630   26.3810   34.9450 S   0  0  0  0  0  0  0  0  0  0  0  0
   36.7230   27.4400   34.8340 O   0  0  0  0  0  0  0  0  0  0  0  0
   38.5240   27.0030   36.0950 O   0  0  0  0  0  0  0  0  0  0  0  0
   37.4810   25.0640   35.9510 C   0  0  0  0  0  0  0  0  0  0  0  0
   37.0000   24.2080   35.4440 H   0  0  0  0  0  0  0  0  0  0  0  0
   36.5890   25.3970   36.6190 H   0  0  0  0  0  0  0  0  0  0  0  0
   38.4180   24.6780   36.9250 N   0  0  0  0  0  0  0  0  0  0  0  0
   39.1210   23.5160   36.3540 C   0  0  0  0  0  2  0  0  0  0  0  0
   39.7870   22.8600   37.5030 C   0  0  0  0  0  2  0  0  0  0  0  0
   39.0060   23.3180   38.7000 C   0  0  0  0  0  2  0  0  0  0  0  0
   37.8310   24.0930   38.1170 C   0  0  0  0  0  3  0  0  0  0  0  0
   37.5190   24.8970   38.8310 H   0  0  0  0  0  0  0  0  0  0  0  0
  1  6  1  0  0  0  0
  1 23  1  0  0  0  0
  2  1  2  0  0  0  0
  3  4  2  0  0  0  0
  3  2  1  0  0  0  0
  4  5  1  0  0  0  0
  5  9  1  0  0  0  0
  5  6  2  0  0  0  0
  6 10  1  0  0  0  0
  7  3  1  0  0  0  0
  8  4  1  0  0  0  0
 11 16  2  0  0  0  0
 11 12  1  0  0  0  0
 12 13  2  0  0  0  0
 13 14  1  0  0  0  0
 13  2  1  0  0  0  0
 15 19  1  0  0  0  0
 15 14  2  0  0  0  0
 16 15  1  0  0  0  0
 17 11  1  0  0  0  0
 18 12  1  0  0  0  0
 19 20  1  0  0  0  0
 19 21  1  0  0  0  0
 22 19  1  0  0  0  0
 23 26  1  0  0  0  0
 23 25  2  0  0  0  0
 24 23  2  0  0  0  0
 26 28  1  0  0  0  0
 26 29  1  0  0  0  0
 27 26  1  0  0  0  0
 29 33  1  0  0  0  0
 30 29  1  0  0  0  0
 30 31  1  0  0  0  0
 31 32  1  0  0  0  0
 33 32  1  0  0  0  0
 33 34  1  0  0  0  0
M  END
>  <minimizedAffinity>
-5.95643234

$$$$

 OpenBabel03272510053D

 34 36  0  0  0  0  0  0  0  0999 V2000
   37.8860   25.0020   33.9260 C   0  0  0  0  0  0  0  0  0  0  0  0
   38.0550   25.3870   35.2180 C   0  0  0  0  0  0  0  0  0  0  0  0
   37.7610   26.6940   35.5950 C   0  0  0  0  0  0  0  0  0  0  0  0
   37.3000   27.6370   34.6930 C   0  0  0  0  0  0  0  0  0  0  0  0
   37.1240   27.2850   33.3890 C   0  0  0  0  0  0  0  0  0  0  0  0
   37.4190   25.9900   33.0480 C   0  0  0  0  0  0  0  0  0  0  0  0
   37.9050   26.9730   36.6480 H   0  0  0  0  0  0  0  0  0  0  0  0
   37.1050   28.6140   35.0970 H   0  0  0  0  0  0  0  0  0  0  0  0
   36.7650   28.0490   32.7230 H   0  0  0  0  0  0  0  0  0  0  0  0
   37.2410   25.8310   31.9760 H   0  0  0  0  0  0  0  0  0  0  0  0
   38.3010   23.4300   38.3200 C   0  0  0  0  0  0  0  0  0  0  0  0
   37.8350   24.2860   37.3330 C   0  0  0  0  0  0  0  0  0  0  0  0
   38.5630   24.4930   36.2030 C   0  0  0  0  0  0  0  0  0  0  0  0
   39.7450   23.8250   36.0940 N   0  0  0  0  0  0  0  0  0  0  0  0
   40.1970   22.9950   37.0410 C   0  0  0  0  0  0  0  0  0  0  0  0
   39.4730   22.8060   38.1460 N   0  0  0  0  0  0  0  0  0  0  0  0
   37.8570   23.1590   39.2650 H   0  0  0  0  0  0  0  0  0  0  0  0
   36.8890   24.6090   37.6960 H   0  0  0  0  0  0  0  0  0  0  0  0
   41.4700   22.2800   36.7580 C   0  0  0  0  0  0  0  0  0  0  0  0
   42.5720   23.0980   36.9260 F   0  0  0  0  0  0  0  0  0  0  0  0
   41.6740   21.2800   37.7850 F   0  0  0  0  0  0  0  0  0  0  0  0
   41.5390   21.5910   35.6410 F   0  0  0  0  0  0  0  0  0  0  0  0
   38.1740   23.4080   33.3500 S   0  0  0  0  0  0  0  0  0  0  0  0
   39.5070   23.3090   32.6970 O   0  0  0  0  0  0  0  0  0  0  0  0
   37.3610   23.4870   32.0760 O   0  0  0  0  0  0  0  0  0  0  0  0
   37.3320   21.9960   33.7020 C   0  0  0  0  0  0  0  0  0  0  0  0
   36.7790   22.0310   34.6590 H   0  0  0  0  0  0  0  0  0  0  0  0
   38.1600   21.2360   34.0060 H   0  0  0  0  0  0  0  0  0  0  0  0
   36.6610   21.2770   32.6990 N   0  0  0  0  0  0  0  0  0  0  0  0
   35.5220   20.6310   33.3740 C   0  0  0  0  0  2  0  0  0  0  0  0
   35.0750   19.5640   32.4480 C   0  0  0  0  0  2  0  0  0  0  0  0
   36.2730   19.2860   31.5900 C   0  0  0  0  0  2  0  0  0  0  0  0
   37.3880   20.1220   32.2060 C   0  0  0  0  0  3  0  0  0  0  0  0
   38.1120   20.4300   31.4090 H   0  0  0  0  0  0  0  0  0  0  0  0
  1  2  1  0  0  0  0
  2  3  2  0  0  0  0
  2 13  1  0  0  0  0
  3  7  1  0  0  0  0
  4  8  1  0  0  0  0
  4  3  1  0  0  0  0
  5  4  2  0  0  0  0
  6  5  1  0  0  0  0
  6  1  2  0  0  0  0
  9  5  1  0  0  0  0
 10  6  1  0  0  0  0
 11 17  1  0  0  0  0
 12 18  1  0  0  0  0
 12 11  2  0  0  0  0
 13 12  1  0  0  0  0
 14 13  2  0  0  0  0
 14 15  1  0  0  0  0
 15 16  2  0  0  0  0
 16 11  1  0  0  0  0
 19 20  1  0  0  0  0
 19 15  1  0  0  0  0
 19 21  1  0  0  0  0
 22 19  1  0  0  0  0
 23 26  1  0  0  0  0
 23  1  1  0  0  0  0
 24 23  2  0  0  0  0
 25 23  2  0  0  0  0
 26 28  1  0  0  0  0
 26 27  1  0  0  0  0
 29 30  1  0  0  0  0
 29 26  1  0  0  0  0
 31 30  1  0  0  0  0
 32 33  1  0  0  0  0
 32 31  1  0  0  0  0
 33 29  1  0  0  0  0
 34 33  1  0  0  0  0
M  END
>  <minimizedAffinity>
-5.91577578

$$$$

 OpenBabel03272510053D

 34 36  0  0  0  0  0  0  0  0999 V2000
   38.3130   24.8020   35.8180 C   0  0  0  0  0  0  0  0  0  0  0  0
   38.3000   24.6300   34.4710 C   0  0  0  0  0  0  0  0  0  0  0  0
   38.2570   25.7390   33.6320 C   0  0  0  0  0  0  0  0  0  0  0  0
   38.2240   27.0340   34.1190 C   0  0  0  0  0  0  0  0  0  0  0  0
   38.2320   27.2410   35.4650 C   0  0  0  0  0  0  0  0  0  0  0  0
   38.2770   26.1290   36.2670 C   0  0  0  0  0  0  0  0  0  0  0  0
   38.2500   25.5660   32.5460 H   0  0  0  0  0  0  0  0  0  0  0  0
   38.1940   27.8120   33.3770 H   0  0  0  0  0  0  0  0  0  0  0  0
   38.2040   28.2630   35.8000 H   0  0  0  0  0  0  0  0  0  0  0  0
   38.2750   26.4260   37.3250 H   0  0  0  0  0  0  0  0  0  0  0  0
   39.4840   21.5800   32.7960 C   0  0  0  0  0  0  0  0  0  0  0  0
   39.4540   22.8360   33.3840 C   0  0  0  0  0  0  0  0  0  0  0  0
   38.2910   23.3330   33.8840 C   0  0  0  0  0  0  0  0  0  0  0  0
   37.1840   22.5450   33.7830 N   0  0  0  0  0  0  0  0  0  0  0  0
   37.2100   21.3310   33.2210 C   0  0  0  0  0  0  0  0  0  0  0  0
   38.3580   20.8600   32.7300 N   0  0  0  0  0  0  0  0  0  0  0  0
   40.3100   21.0440   32.3530 H   0  0  0  0  0  0  0  0  0  0  0  0
   40.4640   23.1660   33.3410 H   0  0  0  0  0  0  0  0  0  0  0  0
   35.9420   20.5530   33.2420 C   0  0  0  0  0  0  0  0  0  0  0  0
   36.1130   19.2710   32.7540 F   0  0  0  0  0  0  0  0  0  0  0  0
   35.5760   20.3070   34.6210 F   0  0  0  0  0  0  0  0  0  0  0  0
   34.8730   21.1280   32.7400 F   0  0  0  0  0  0  0  0  0  0  0  0
   38.4070   23.5150   36.9540 S   0  0  0  0  0  0  0  0  0  0  0  0
   37.0790   22.8710   37.1410 O   0  0  0  0  0  0  0  0  0  0  0  0
   38.3820   24.3400   38.2210 O   0  0  0  0  0  0  0  0  0  0  0  0
   39.7750   22.7570   37.5720 C   0  0  0  0  0  0  0  0  0  0  0  0
   39.5760   22.1290   38.4590 H   0  0  0  0  0  0  0  0  0  0  0  0
   40.3680   23.6130   38.0920 H   0  0  0  0  0  0  0  0  0  0  0  0
   40.7600   22.2250   36.7220 N   0  0  0  0  0  0  0  0  0  0  0  0
   41.5380   21.2950   37.5600 C   0  0  0  0  0  2  0  0  0  0  0  0
   42.7980   21.0630   36.8160 C   0  0  0  0  0  2  0  0  0  0  0  0
   42.9250   22.2540   35.9130 C   0  0  0  0  0  2  0  0  0  0  0  0
   41.7840   23.1750   36.3300 C   0  0  0  0  0  3  0  0  0  0  0  0
   41.4420   23.7730   35.4470 H   0  0  0  0  0  0  0  0  0  0  0  0
  1  6  1  0  0  0  0
  1 23  1  0  0  0  0
  2  1  2  0  0  0  0
  3  4  2  0  0  0  0
  3  2  1  0  0  0  0
  4  5  1  0  0  0  0
  5  9  1  0  0  0  0
  5  6  2  0  0  0  0
  6 10  1  0  0  0  0
  7  3  1  0  0  0  0
  8  4  1  0  0  0  0
 11 12  1  0  0  0  0
 12 13  2  0  0  0  0
 13  2  1  0  0  0  0
 14 13  1  0  0  0  0
 15 19  1  0  0  0  0
 15 14  2  0  0  0  0
 16 11  2  0  0  0  0
 16 15  1  0  0  0  0
 17 11  1  0  0  0  0
 18 12  1  0  0  0  0
 19 21  1  0  0  0  0
 20 19  1  0  0  0  0
 22 19  1  0  0  0  0
 23 24  2  0  0  0  0
 23 26  1  0  0  0  0
 23 25  2  0  0  0  0
 26 28  1  0  0  0  0
 26 27  1  0  0  0  0
 29 30  1  0  0  0  0
 29 26  1  0  0  0  0
 31 30  1  0  0  0  0
 32 33  1  0  0  0  0
 32 31  1  0  0  0  0
 33 29  1  0  0  0  0
 34 33  1  0  0  0  0
M  END
>  <minimizedAffinity>
-5.72714376

$$$$

 OpenBabel03272510053D

 34 36  0  0  0  0  0  0  0  0999 V2000
   37.3450   22.3940   33.2290 C   0  0  0  0  0  0  0  0  0  0  0  0
   37.2240   21.8530   34.4690 C   0  0  0  0  0  0  0  0  0  0  0  0
   36.3020   20.8350   34.6940 C   0  0  0  0  0  0  0  0  0  0  0  0
   35.4850   20.3440   33.6910 C   0  0  0  0  0  0  0  0  0  0  0  0
   35.5780   20.8680   32.4370 C   0  0  0  0  0  0  0  0  0  0  0  0
   36.4960   21.8670   32.2450 C   0  0  0  0  0  0  0  0  0  0  0  0
   36.2310   20.4160   35.7070 H   0  0  0  0  0  0  0  0  0  0  0  0
   34.8120   19.5560   33.9800 H   0  0  0  0  0  0  0  0  0  0  0  0
   34.9230   20.4570   31.6890 H   0  0  0  0  0  0  0  0  0  0  0  0
   36.4740   22.2070   31.2010 H   0  0  0  0  0  0  0  0  0  0  0  0
   38.1310   23.6510   37.5450 C   0  0  0  0  0  0  0  0  0  0  0  0
   37.4080   23.1610   36.4660 C   0  0  0  0  0  0  0  0  0  0  0  0
   37.9960   22.3250   35.5680 C   0  0  0  0  0  0  0  0  0  0  0  0
   39.3010   22.0000   35.7840 N   0  0  0  0  0  0  0  0  0  0  0  0
   40.0000   22.4660   36.8250 C   0  0  0  0  0  0  0  0  0  0  0  0
   39.4110   23.2890   37.6940 N   0  0  0  0  0  0  0  0  0  0  0  0
   37.8230   24.3160   38.3370 H   0  0  0  0  0  0  0  0  0  0  0  0
   36.4340   23.5630   36.6030 H   0  0  0  0  0  0  0  0  0  0  0  0
   41.3950   21.9720   36.9740 C   0  0  0  0  0  0  0  0  0  0  0  0
   41.5300   21.1200   38.0550 F   0  0  0  0  0  0  0  0  0  0  0  0
   41.6950   21.0980   35.8590 F   0  0  0  0  0  0  0  0  0  0  0  0
   42.3590   22.8630   36.9320 F   0  0  0  0  0  0  0  0  0  0  0  0
   38.4740   23.6230   32.8190 S   0  0  0  0  0  0  0  0  0  0  0  0
   38.4410   23.9140   31.3610 O   0  0  0  0  0  0  0  0  0  0  0  0
   39.7250   22.7740   32.8010 O   0  0  0  0  0  0  0  0  0  0  0  0
   39.3010   24.6720   33.8410 C   0  0  0  0  0  0  0  0  0  0  0  0
   40.4010   24.5970   33.7640 H   0  0  0  0  0  0  0  0  0  0  0  0
   39.1670   24.2080   34.9000 H   0  0  0  0  0  0  0  0  0  0  0  0
   38.8480   25.9840   34.0620 N   0  0  0  0  0  0  0  0  0  0  0  0
   39.2910   26.3270   35.4240 C   0  0  0  0  0  2  0  0  0  0  0  0
   38.4760   27.5020   35.8140 C   0  0  0  0  0  2  0  0  0  0  0  0
   37.2660   27.4280   34.9310 C   0  0  0  0  0  2  0  0  0  0  0  0
   37.4080   26.1000   34.1960 C   0  0  0  0  0  3  0  0  0  0  0  0
   36.9280   26.1760   33.1880 H   0  0  0  0  0  0  0  0  0  0  0  0
  1  2  1  0  0  0  0
  2  3  2  0  0  0  0
  2 13  1  0  0  0  0
  3  7  1  0  0  0  0
  4  8  1  0  0  0  0
  4  3  1  0  0  0  0
  5  4  2  0  0  0  0
  6  5  1  0  0  0  0
  6  1  2  0  0  0  0
  9  5  1  0  0  0  0
 10  6  1  0  0  0  0
 11 16  1  0  0  0  0
 11 17  1  0  0  0  0
 12 18  1  0  0  0  0
 12 11  2  0  0  0  0
 13 14  2  0  0  0  0
 13 12  1  0  0  0  0
 14 15  1  0  0  0  0
 15 19  1  0  0  0  0
 15 16  2  0  0  0  0
 19 20  1  0  0  0  0
 21 19  1  0  0  0  0
 22 19  1  0  0  0  0
 23  1  1  0  0  0  0
 23 26  1  0  0  0  0
 24 23  2  0  0  0  0
 25 23  2  0  0  0  0
 26 29  1  0  0  0  0
 26 28  1  0  0  0  0
 27 26  1  0  0  0  0
 29 33  1  0  0  0  0
 29 30  1  0  0  0  0
 30 31  1  0  0  0  0
 32 31  1  0  0  0  0
 33 32  1  0  0  0  0
 34 33  1  0  0  0  0
M  END
>  <minimizedAffinity>
-5.68608046

$$$$

 OpenBabel03272510053D

 34 36  0  0  0  0  0  0  0  0999 V2000
   37.9340   22.4420   32.5390 C   0  0  0  0  0  0  0  0  0  0  0  0
   37.1440   23.5010   32.2240 C   0  0  0  0  0  0  0  0  0  0  0  0
   35.9100   23.2890   31.6190 C   0  0  0  0  0  0  0  0  0  0  0  0
   35.4440   22.0220   31.3140 C   0  0  0  0  0  0  0  0  0  0  0  0
   36.2140   20.9380   31.6120 C   0  0  0  0  0  0  0  0  0  0  0  0
   37.4240   21.1780   32.2100 C   0  0  0  0  0  0  0  0  0  0  0  0
   35.2930   24.1670   31.3800 H   0  0  0  0  0  0  0  0  0  0  0  0
   34.4760   21.9790   30.8490 H   0  0  0  0  0  0  0  0  0  0  0  0
   35.8130   19.9720   31.3570 H   0  0  0  0  0  0  0  0  0  0  0  0
   37.9480   20.2310   32.3960 H   0  0  0  0  0  0  0  0  0  0  0  0
   38.2840   26.9390   31.5950 C   0  0  0  0  0  0  0  0  0  0  0  0
   37.8630   25.6310   31.4000 C   0  0  0  0  0  0  0  0  0  0  0  0
   37.5620   24.8410   32.4660 C   0  0  0  0  0  0  0  0  0  0  0  0
   37.6880   25.3930   33.7050 N   0  0  0  0  0  0  0  0  0  0  0  0
   38.0890   26.6550   33.8970 C   0  0  0  0  0  0  0  0  0  0  0  0
   38.3850   27.4160   32.8410 N   0  0  0  0  0  0  0  0  0  0  0  0
   38.5610   27.6900   30.8710 H   0  0  0  0  0  0  0  0  0  0  0  0
   37.8340   25.5230   30.3430 H   0  0  0  0  0  0  0  0  0  0  0  0
   38.1140   27.1460   35.3000 C   0  0  0  0  0  0  0  0  0  0  0  0
   37.6860   26.1820   36.1940 F   0  0  0  0  0  0  0  0  0  0  0  0
   39.4930   27.3380   35.6970 F   0  0  0  0  0  0  0  0  0  0  0  0
   37.5610   28.3140   35.5400 F   0  0  0  0  0  0  0  0  0  0  0  0
   39.4570   22.5740   33.3240 S   0  0  0  0  0  0  0  0  0  0  0  0
   40.4550   23.2420   32.4460 O   0  0  0  0  0  0  0  0  0  0  0  0
   39.9430   21.1590   33.0980 O   0  0  0  0  0  0  0  0  0  0  0  0
   39.8230   22.3510   34.9510 C   0  0  0  0  0  0  0  0  0  0  0  0
   40.8930   22.1580   35.1460 H   0  0  0  0  0  0  0  0  0  0  0  0
   39.4060   21.2920   35.1970 H   0  0  0  0  0  0  0  0  0  0  0  0
   39.2050   23.1220   35.9490 N   0  0  0  0  0  0  0  0  0  0  0  0
   39.8840   22.7550   37.2040 C   0  0  0  0  0  2  0  0  0  0  0  0
   38.9850   23.2240   38.2850 C   0  0  0  0  0  2  0  0  0  0  0  0
   37.6360   23.3170   37.6360 C   0  0  0  0  0  2  0  0  0  0  0  0
   37.8390   22.7310   36.2430 C   0  0  0  0  0  3  0  0  0  0  0  0
   37.1320   23.2180   35.5240 H   0  0  0  0  0  0  0  0  0  0  0  0
  1 23  1  0  0  0  0
  2 13  1  0  0  0  0
  2  1  1  0  0  0  0
  3  2  2  0  0  0  0
  4  5  2  0  0  0  0
  4  3  1  0  0  0  0
  5  6  1  0  0  0  0
  6 10  1  0  0  0  0
  6  1  2  0  0  0  0
  7  3  1  0  0  0  0
  8  4  1  0  0  0  0
  9  5  1  0  0  0  0
 11 16  1  0  0  0  0
 12 11  2  0  0  0  0
 12 13  1  0  0  0  0
 13 14  2  0  0  0  0
 14 15  1  0  0  0  0
 15 19  1  0  0  0  0
 16 15  2  0  0  0  0
 17 11  1  0  0  0  0
 18 12  1  0  0  0  0
 19 22  1  0  0  0  0
 19 21  1  0  0  0  0
 19 20  1  0  0  0  0
 23 26  1  0  0  0  0
 24 23  2  0  0  0  0
 25 23  2  0  0  0  0
 26 27  1  0  0  0  0
 26 28  1  0  0  0  0
 26 29  1  0  0  0  0
 29 33  1  0  0  0  0
 29 30  1  0  0  0  0
 30 31  1  0  0  0  0
 32 31  1  0  0  0  0
 33 32  1  0  0  0  0
 34 33  1  0  0  0  0
M  END
>  <minimizedAffinity>
-5.61965942

$$$$

 OpenBabel03272510053D

 34 36  0  0  0  0  0  0  0  0999 V2000
   37.0210   22.0120   33.4300 C   0  0  0  0  0  0  0  0  0  0  0  0
   36.5920   22.6700   32.3220 C   0  0  0  0  0  0  0  0  0  0  0  0
   35.5600   22.1370   31.5560 C   0  0  0  0  0  0  0  0  0  0  0  0
   34.9420   20.9420   31.8790 C   0  0  0  0  0  0  0  0  0  0  0  0
   35.3520   20.2540   32.9810 C   0  0  0  0  0  0  0  0  0  0  0  0
   36.3690   20.8050   33.7170 C   0  0  0  0  0  0  0  0  0  0  0  0
   35.2330   22.6960   30.6670 H   0  0  0  0  0  0  0  0  0  0  0  0
   34.1560   20.6280   31.2160 H   0  0  0  0  0  0  0  0  0  0  0  0
   34.8450   19.3290   33.1930 H   0  0  0  0  0  0  0  0  0  0  0  0
   36.6090   20.1590   34.5720 H   0  0  0  0  0  0  0  0  0  0  0  0
   38.9140   24.9830   30.6560 C   0  0  0  0  0  0  0  0  0  0  0  0
   38.2900   23.8200   31.0850 C   0  0  0  0  0  0  0  0  0  0  0  0
   37.1980   23.8860   31.8940 C   0  0  0  0  0  0  0  0  0  0  0  0
   36.7590   25.1260   32.2470 N   0  0  0  0  0  0  0  0  0  0  0  0
   37.3560   26.2490   31.8320 C   0  0  0  0  0  0  0  0  0  0  0  0
   38.4290   26.1680   31.0420 N   0  0  0  0  0  0  0  0  0  0  0  0
   39.7800   25.1080   30.0230 H   0  0  0  0  0  0  0  0  0  0  0  0
   38.8400   23.0420   30.6140 H   0  0  0  0  0  0  0  0  0  0  0  0
   36.7270   27.5350   32.2380 C   0  0  0  0  0  0  0  0  0  0  0  0
   37.5170   28.6230   31.9160 F   0  0  0  0  0  0  0  0  0  0  0  0
   35.5570   27.7550   31.4140 F   0  0  0  0  0  0  0  0  0  0  0  0
   36.2580   27.6170   33.4620 F   0  0  0  0  0  0  0  0  0  0  0  0
   38.2570   22.5890   34.4760 S   0  0  0  0  0  0  0  0  0  0  0  0
   39.5840   22.0380   34.0900 O   0  0  0  0  0  0  0  0  0  0  0  0
   38.0110   21.6550   35.6400 O   0  0  0  0  0  0  0  0  0  0  0  0
   38.1900   23.8530   35.5840 C   0  0  0  0  0  0  0  0  0  0  0  0
   38.7640   23.6670   36.5090 H   0  0  0  0  0  0  0  0  0  0  0  0
   37.1160   23.7900   36.0270 H   0  0  0  0  0  0  0  0  0  0  0  0
   38.2300   25.1930   35.1640 N   0  0  0  0  0  0  0  0  0  0  0  0
   39.6010   25.4070   34.6700 C   0  0  0  0  0  2  0  0  0  0  0  0
   39.7740   26.8790   34.6270 C   0  0  0  0  0  2  0  0  0  0  0  0
   38.7530   27.4040   35.5920 C   0  0  0  0  0  2  0  0  0  0  0  0
   38.1660   26.1580   36.2450 C   0  0  0  0  0  3  0  0  0  0  0  0
   37.1010   26.3500   36.5320 H   0  0  0  0  0  0  0  0  0  0  0  0
  1  6  1  0  0  0  0
  1 23  1  0  0  0  0
  2  1  2  0  0  0  0
  3  4  2  0  0  0  0
  3  2  1  0  0  0  0
  4  5  1  0  0  0  0
  5  9  1  0  0  0  0
  5  6  2  0  0  0  0
  6 10  1  0  0  0  0
  7  3  1  0  0  0  0
  8  4  1  0  0  0  0
 11 16  2  0  0  0  0
 11 12  1  0  0  0  0
 12 13  2  0  0  0  0
 13 14  1  0  0  0  0
 13  2  1  0  0  0  0
 15 19  1  0  0  0  0
 15 14  2  0  0  0  0
 16 15  1  0  0  0  0
 17 11  1  0  0  0  0
 18 12  1  0  0  0  0
 19 22  1  0  0  0  0
 20 19  1  0  0  0  0
 21 19  1  0  0  0  0
 23 26  1  0  0  0  0
 23 25  2  0  0  0  0
 24 23  2  0  0  0  0
 26 28  1  0  0  0  0
 26 27  1  0  0  0  0
 29 26  1  0  0  0  0
 29 33  1  0  0  0  0
 30 29  1  0  0  0  0
 31 30  1  0  0  0  0
 31 32  1  0  0  0  0
 32 33  1  0  0  0  0
 33 34  1  0  0  0  0
M  END
>  <minimizedAffinity>
-5.5836153

$$$$

 OpenBabel03272510053D

 34 36  0  0  0  0  0  0  0  0999 V2000
   37.0750   23.2790   32.5660 C   0  0  0  0  0  0  0  0  0  0  0  0
   37.3530   22.2710   33.4320 C   0  0  0  0  0  0  0  0  0  0  0  0
   36.7130   21.0430   33.2950 C   0  0  0  0  0  0  0  0  0  0  0  0
   35.7860   20.8010   32.2970 C   0  0  0  0  0  0  0  0  0  0  0  0
   35.4810   21.7920   31.4130 C   0  0  0  0  0  0  0  0  0  0  0  0
   36.1280   22.9900   31.5730 C   0  0  0  0  0  0  0  0  0  0  0  0
   36.9630   20.2470   34.0100 H   0  0  0  0  0  0  0  0  0  0  0  0
   35.3570   19.8150   32.2870 H   0  0  0  0  0  0  0  0  0  0  0  0
   34.7540   21.5600   30.6550 H   0  0  0  0  0  0  0  0  0  0  0  0
   35.7960   23.7040   30.8070 H   0  0  0  0  0  0  0  0  0  0  0  0
   40.4880   22.2710   35.3530 C   0  0  0  0  0  0  0  0  0  0  0  0
   39.5710   22.1230   34.3220 C   0  0  0  0  0  0  0  0  0  0  0  0
   38.2640   22.4460   34.5130 C   0  0  0  0  0  0  0  0  0  0  0  0
   37.9130   22.9160   35.7420 N   0  0  0  0  0  0  0  0  0  0  0  0
   38.7940   23.0640   36.7380 C   0  0  0  0  0  0  0  0  0  0  0  0
   40.0720   22.7380   36.5360 N   0  0  0  0  0  0  0  0  0  0  0  0
   41.5460   22.0610   35.3710 H   0  0  0  0  0  0  0  0  0  0  0  0
   40.1560   21.7810   33.5020 H   0  0  0  0  0  0  0  0  0  0  0  0
   38.2840   23.6540   38.0050 C   0  0  0  0  0  0  0  0  0  0  0  0
   37.2660   22.8980   38.5550 F   0  0  0  0  0  0  0  0  0  0  0  0
   39.3200   23.5480   39.0120 F   0  0  0  0  0  0  0  0  0  0  0  0
   37.9930   24.9350   38.0000 F   0  0  0  0  0  0  0  0  0  0  0  0
   37.8290   24.8230   32.6080 S   0  0  0  0  0  0  0  0  0  0  0  0
   37.0070   25.7980   33.3740 O   0  0  0  0  0  0  0  0  0  0  0  0
   37.4270   25.3000   31.2290 O   0  0  0  0  0  0  0  0  0  0  0  0
   39.4080   25.2320   32.1980 C   0  0  0  0  0  0  0  0  0  0  0  0
   39.6050   25.2240   31.1110 H   0  0  0  0  0  0  0  0  0  0  0  0
   40.0340   24.2970   32.4970 H   0  0  0  0  0  0  0  0  0  0  0  0
   40.0980   26.2480   32.8800 N   0  0  0  0  0  0  0  0  0  0  0  0
   40.9220   26.9160   31.8580 C   0  0  0  0  0  2  0  0  0  0  0  0
   41.9410   27.6800   32.6170 C   0  0  0  0  0  2  0  0  0  0  0  0
   42.0080   26.9930   33.9490 C   0  0  0  0  0  2  0  0  0  0  0  0
   41.1170   25.7660   33.7930 C   0  0  0  0  0  3  0  0  0  0  0  0
   40.6620   25.5050   34.7820 H   0  0  0  0  0  0  0  0  0  0  0  0
  1 23  1  0  0  0  0
  1  2  1  0  0  0  0
  2 13  1  0  0  0  0
  3  2  2  0  0  0  0
  3  7  1  0  0  0  0
  4  3  1  0  0  0  0
  5  6  1  0  0  0  0
  5  4  2  0  0  0  0
  6  1  2  0  0  0  0
  8  4  1  0  0  0  0
  9  5  1  0  0  0  0
 10  6  1  0  0  0  0
 11 17  1  0  0  0  0
 11 16  1  0  0  0  0
 12 13  1  0  0  0  0
 12 11  2  0  0  0  0
 13 14  2  0  0  0  0
 14 15  1  0  0  0  0
 15 19  1  0  0  0  0
 16 15  2  0  0  0  0
 18 12  1  0  0  0  0
 19 20  1  0  0  0  0
 19 21  1  0  0  0  0
 22 19  1  0  0  0  0
 23 24  2  0  0  0  0
 25 23  2  0  0  0  0
 26 28  1  0  0  0  0
 26 23  1  0  0  0  0
 26 29  1  0  0  0  0
 27 26  1  0  0  0  0
 29 33  1  0  0  0  0
 30 31  1  0  0  0  0
 30 29  1  0  0  0  0
 31 32  1  0  0  0  0
 33 32  1  0  0  0  0
 33 34  1  0  0  0  0
M  END
>  <minimizedAffinity>
-5.58154058

$$$$

 OpenBabel03272510053D

 34 36  0  0  0  0  0  0  0  0999 V2000
   37.4650   22.4720   32.8890 C   0  0  0  0  0  0  0  0  0  0  0  0
   36.7560   23.2250   32.0090 C   0  0  0  0  0  0  0  0  0  0  0  0
   35.5880   22.7200   31.4480 C   0  0  0  0  0  0  0  0  0  0  0  0
   35.1090   21.4570   31.7500 C   0  0  0  0  0  0  0  0  0  0  0  0
   35.7990   20.6730   32.6250 C   0  0  0  0  0  0  0  0  0  0  0  0
   36.9450   21.1990   33.1640 C   0  0  0  0  0  0  0  0  0  0  0  0
   35.0350   23.3560   30.7420 H   0  0  0  0  0  0  0  0  0  0  0  0
   34.1960   21.1720   31.2580 H   0  0  0  0  0  0  0  0  0  0  0  0
   35.3920   19.6990   32.8300 H   0  0  0  0  0  0  0  0  0  0  0  0
   37.4090   20.4750   33.8470 H   0  0  0  0  0  0  0  0  0  0  0  0
   38.6300   25.8570   30.2550 C   0  0  0  0  0  0  0  0  0  0  0  0
   38.1670   24.6140   30.6620 C   0  0  0  0  0  0  0  0  0  0  0  0
   37.1970   24.5200   31.6110 C   0  0  0  0  0  0  0  0  0  0  0  0
   36.7130   25.6850   32.1240 N   0  0  0  0  0  0  0  0  0  0  0  0
   37.1530   26.8860   31.7310 C   0  0  0  0  0  0  0  0  0  0  0  0
   38.1090   26.9620   30.8030 N   0  0  0  0  0  0  0  0  0  0  0  0
   39.3860   26.1080   29.5270 H   0  0  0  0  0  0  0  0  0  0  0  0
   38.7070   23.9260   30.0580 H   0  0  0  0  0  0  0  0  0  0  0  0
   36.4850   28.0750   32.3260 C   0  0  0  0  0  0  0  0  0  0  0  0
   35.1100   28.0180   32.1910 F   0  0  0  0  0  0  0  0  0  0  0  0
   36.6520   28.0260   33.7630 F   0  0  0  0  0  0  0  0  0  0  0  0
   36.9590   29.2570   32.0030 F   0  0  0  0  0  0  0  0  0  0  0  0
   38.8970   23.0010   33.6780 S   0  0  0  0  0  0  0  0  0  0  0  0
   40.0920   22.7840   32.8180 O   0  0  0  0  0  0  0  0  0  0  0  0
   39.1070   21.8030   34.5770 O   0  0  0  0  0  0  0  0  0  0  0  0
   39.0460   23.9560   35.0540 C   0  0  0  0  0  0  0  0  0  0  0  0
   38.8310   25.0260   34.8820 H   0  0  0  0  0  0  0  0  0  0  0  0
   40.1940   24.0340   35.2280 H   0  0  0  0  0  0  0  0  0  0  0  0
   38.6140   23.4970   36.3100 N   0  0  0  0  0  0  0  0  0  0  0  0
   37.9770   24.6600   36.9530 C   0  0  0  0  0  2  0  0  0  0  0  0
   37.9050   24.3170   38.3930 C   0  0  0  0  0  2  0  0  0  0  0  0
   38.9670   23.2750   38.5830 C   0  0  0  0  0  2  0  0  0  0  0  0
   39.6880   23.2130   37.2420 C   0  0  0  0  0  3  0  0  0  0  0  0
   40.0840   22.1790   37.0760 H   0  0  0  0  0  0  0  0  0  0  0  0
  1  6  1  0  0  0  0
  1 23  1  0  0  0  0
  2  1  2  0  0  0  0
  3  4  2  0  0  0  0
  3  2  1  0  0  0  0
  4  5  1  0  0  0  0
  5  9  1  0  0  0  0
  5  6  2  0  0  0  0
  6 10  1  0  0  0  0
  7  3  1  0  0  0  0
  8  4  1  0  0  0  0
 11 12  2  0  0  0  0
 11 16  1  0  0  0  0
 12 13  1  0  0  0  0
 13  2  1  0  0  0  0
 13 14  2  0  0  0  0
 15 14  1  0  0  0  0
 15 19  1  0  0  0  0
 16 15  2  0  0  0  0
 17 11  1  0  0  0  0
 18 12  1  0  0  0  0
 19 21  1  0  0  0  0
 20 19  1  0  0  0  0
 22 19  1  0  0  0  0
 23 25  2  0  0  0  0
 23 26  1  0  0  0  0
 24 23  2  0  0  0  0
 26 28  1  0  0  0  0
 26 29  1  0  0  0  0
 27 26  1  0  0  0  0
 29 30  1  0  0  0  0
 29 33  1  0  0  0  0
 30 31  1  0  0  0  0
 31 32  1  0  0  0  0
 33 32  1  0  0  0  0
 34 33  1  0  0  0  0
M  END
>  <minimizedAffinity>
-5.51686382

$$$$
