
 OpenBabel03272500433D

 30 32  0  0  1  0  0  0  0  0999 V2000
   38.6930   31.1940   46.5730 C   0  0  0  0  0  0  0  0  0  0  0  0
   38.6440   31.2220   45.1560 C   0  0  0  0  0  0  0  0  0  0  0  0
   37.4810   30.7990   44.5100 C   0  0  0  0  0  0  0  0  0  0  0  0
   36.4600   30.3820   45.3000 N   0  0  0  0  0  0  0  0  0  0  0  0
   36.5190   30.3600   46.6370 C   0  0  0  0  0  0  0  0  0  0  0  0
   37.6300   30.7640   47.2630 N   0  0  0  0  0  0  0  0  0  0  0  0
   35.3780   29.8980   47.4000 N   0  0  0  0  0  0  0  0  0  0  0  0
   35.6170   28.9740   48.5110 C   0  0  2  0  0  0  0  0  0  0  0  0
   34.4730   28.0500   48.7650 C   0  0  0  0  0  0  0  0  0  0  0  0
   33.6830   27.9380   47.4770 C   0  0  0  0  0  0  0  0  0  0  0  0
   33.0050   29.2830   47.2750 C   0  0  0  0  0  0  0  0  0  0  0  0
   34.0600   30.3410   47.0680 C   0  0  0  0  0  0  0  0  0  0  0  0
   39.5550   31.5040   47.1490 H   0  0  0  0  0  0  0  0  0  0  0  0
   39.5190   31.5750   44.6290 H   0  0  0  0  0  0  0  0  0  0  0  0
   37.4360   30.8190   43.4300 H   0  0  0  0  0  0  0  0  0  0  0  0
   36.4670   28.3210   48.1470 H   0  0  0  0  0  0  0  0  0  0  0  0
   33.8040   28.4000   49.5820 H   0  0  0  0  0  0  0  0  0  0  0  0
   34.8210   27.0260   49.0170 H   0  0  0  0  0  0  0  0  0  0  0  0
   32.9650   27.1050   47.4660 H   0  0  0  0  0  0  0  0  0  0  0  0
   34.4230   27.8080   46.6530 H   0  0  0  0  0  0  0  0  0  0  0  0
   32.3160   29.4870   48.1120 H   0  0  0  0  0  0  0  0  0  0  0  0
   32.3570   29.1700   46.3790 H   0  0  0  0  0  0  0  0  0  0  0  0
   33.7260   31.2560   47.5980 H   0  0  0  0  0  0  0  0  0  0  0  0
   34.0530   30.6020   45.9820 H   0  0  0  0  0  0  0  0  0  0  0  0
   36.1200   29.7030   49.6060 N   0  0  2  0  0  0  0  0  0  0  0  0
   36.2720   31.1040   49.4300 C   0  0  0  0  0  0  0  0  0  0  0  0
   36.7920   31.5480   50.7810 C   0  0  0  0  0  0  0  0  0  0  0  0
   37.5290   30.3210   51.2760 C   0  0  0  0  0  0  0  0  0  0  0  0
   37.3290   29.2490   50.1950 C   0  0  0  0  0  0  0  0  0  0  0  0
   37.2490   28.2850   50.7490 H   0  0  0  0  0  0  0  0  0  0  0  0
  1 13  1  0  0  0  0
  1  6  1  0  0  0  0
  2  1  2  0  0  0  0
  3  2  1  0  0  0  0
  3  4  2  0  0  0  0
  4  5  1  0  0  0  0
  5  6  2  0  0  0  0
  5  7  1  0  0  0  0
  7  8  1  0  0  0  0
  8 16  1  6  0  0  0
  8  9  1  0  0  0  0
  8 25  1  0  0  0  0
  9 18  1  0  0  0  0
  9 17  1  0  0  0  0
 10  9  1  0  0  0  0
 11 10  1  0  0  0  0
 11 21  1  0  0  0  0
 12 11  1  0  0  0  0
 12  7  1  0  0  0  0
 12 23  1  0  0  0  0
 14  2  1  0  0  0  0
 15  3  1  0  0  0  0
 19 10  1  0  0  0  0
 20 10  1  0  0  0  0
 22 11  1  0  0  0  0
 24 12  1  0  0  0  0
 25 26  1  6  0  0  0
 25 29  1  0  0  0  0
 26 27  1  0  0  0  0
 27 28  1  0  0  0  0
 29 30  1  0  0  0  0
 29 28  1  0  0  0  0
M  END
>  <minimizedAffinity>
-4.63070011

>  <minimizedRMSD>
2.23466659

$$$$
