
 OpenBabel03272510183D

 33 36  0  0  0  0  0  0  0  0999 V2000
   37.4080   29.1690   50.8080 Br  0  0  0  0  0  0  0  0  0  0  0  0
   35.9980   29.2730   49.5240 C   0  0  0  0  0  0  0  0  0  0  0  0
   35.9940   30.2810   48.5590 C   0  0  0  0  0  0  0  0  0  0  0  0
   34.9420   30.2890   47.6670 C   0  0  0  0  0  0  0  0  0  0  0  0
   33.9120   29.3630   47.6850 C   0  0  0  0  0  0  0  0  0  0  0  0
   33.9500   28.3940   48.6420 C   0  0  0  0  0  0  0  0  0  0  0  0
   34.9900   28.3610   49.5470 C   0  0  0  0  0  0  0  0  0  0  0  0
   34.8820   31.0530   46.8870 H   0  0  0  0  0  0  0  0  0  0  0  0
   33.1950   27.6230   48.7420 H   0  0  0  0  0  0  0  0  0  0  0  0
   35.0160   27.5870   50.3070 H   0  0  0  0  0  0  0  0  0  0  0  0
   32.8140   29.3910   46.7350 C   0  0  0  0  0  0  0  0  0  0  0  0
   32.0570   28.2830   46.3880 C   0  0  0  0  0  0  0  0  0  0  0  0
   31.0140   28.3380   45.4780 C   0  0  0  0  0  0  0  0  0  0  0  0
   30.7190   29.5060   44.9050 N   0  0  0  0  0  0  0  0  0  0  0  0
   31.4470   30.6010   45.2300 C   0  0  0  0  0  0  0  0  0  0  0  0
   32.4410   30.5100   46.1090 N   0  0  0  0  0  0  0  0  0  0  0  0
   32.2960   27.3240   46.8560 H   0  0  0  0  0  0  0  0  0  0  0  0
   30.4640   27.4330   45.2520 H   0  0  0  0  0  0  0  0  0  0  0  0
   31.1260   31.8440   44.6160 N   0  0  0  0  0  0  0  0  0  0  0  0
   29.7820   32.2370   44.1670 C   0  0  0  0  0  2  0  0  0  0  0  0
   30.0200   33.3780   43.1920 C   0  0  0  0  0  2  0  0  0  0  0  0
   31.1820   34.0770   43.9090 C   0  0  0  0  0  2  0  0  0  0  0  0
   32.0380   32.9310   44.3200 C   0  0  0  0  0  3  0  0  0  0  0  0
   32.6640   33.2310   45.1750 H   0  0  0  0  0  0  0  0  0  0  0  0
   38.0060   33.1790   49.4620 C   0  0  0  0  0  0  0  0  0  0  0  0
   39.0360   33.1790   48.4630 C   0  0  0  0  0  0  0  0  0  0  0  0
   39.0140   32.1770   47.5000 C   0  0  0  0  0  0  0  0  0  0  0  0
   38.0150   31.2420   47.5460 N   0  0  0  0  0  0  0  0  0  0  0  0
   37.0530   31.2700   48.5060 C   0  0  0  0  0  0  0  0  0  0  0  0
   37.0520   32.2400   49.4620 N   0  0  0  0  0  0  0  0  0  0  0  0
   37.9520   33.9190   50.2430 H   0  0  0  0  0  0  0  0  0  0  0  0
   39.7780   33.9660   48.5190 H   0  0  0  0  0  0  0  0  0  0  0  0
   39.7710   32.1670   46.7550 H   0  0  0  0  0  0  0  0  0  0  0  0
  2  7  1  0  0  0  0
  2  1  1  0  0  0  0
  3  2  2  0  0  0  0
  4  5  2  0  0  0  0
  4  3  1  0  0  0  0
  5  6  1  0  0  0  0
  6  9  1  0  0  0  0
  6  7  2  0  0  0  0
  7 10  1  0  0  0  0
  8  4  1  0  0  0  0
 11  5  1  0  0  0  0
 12 11  1  0  0  0  0
 12 17  1  0  0  0  0
 13 12  2  0  0  0  0
 14 15  2  0  0  0  0
 14 13  1  0  0  0  0
 15 16  1  0  0  0  0
 16 11  2  0  0  0  0
 18 13  1  0  0  0  0
 19 15  1  0  0  0  0
 20 19  1  0  0  0  0
 21 22  1  0  0  0  0
 21 20  1  0  0  0  0
 22 23  1  0  0  0  0
 23 19  1  0  0  0  0
 23 24  1  0  0  0  0
 25 31  1  0  0  0  0
 26 32  1  0  0  0  0
 26 25  2  0  0  0  0
 27 28  2  0  0  0  0
 27 26  1  0  0  0  0
 28 29  1  0  0  0  0
 29  3  1  0  0  0  0
 29 30  2  0  0  0  0
 30 25  1  0  0  0  0
 33 27  1  0  0  0  0
M  END
>  <minimizedAffinity>
-6.71500492

>  <minimizedRMSD>
0.241968811

$$$$
