
 OpenBabel03272506003D

 41 44  0  0  1  0  0  0  0  0999 V2000
   35.0340   29.6790   32.9930 C   0  0  2  0  0  0  0  0  0  0  0  0
   35.4470   28.2630   33.1380 C   0  0  0  0  0  0  0  0  0  0  0  0
   36.9310   28.0480   32.8290 C   0  0  2  0  0  0  0  0  0  0  0  0
   37.3330   28.5150   31.5020 C   0  0  0  0  0  0  0  0  0  0  0  0
   36.6870   29.8350   31.1000 C   0  0  0  0  0  0  0  0  0  0  0  0
   36.0670   30.5290   32.2810 C   0  0  0  0  0  0  0  0  0  0  0  0
   34.1000   29.8310   32.3700 H   0  0  0  0  0  0  0  0  0  0  0  0
   34.9310   27.6880   32.2960 H   0  0  0  0  0  0  0  0  0  0  0  0
   35.2940   27.7130   34.0330 H   0  0  0  0  0  0  0  0  0  0  0  0
   37.4820   28.5120   33.6590 H   0  0  0  0  0  0  0  0  0  0  0  0
   37.0120   27.7950   30.7260 H   0  0  0  0  0  0  0  0  0  0  0  0
   38.4370   28.5610   31.4280 H   0  0  0  0  0  0  0  0  0  0  0  0
   35.9640   29.7420   30.2850 H   0  0  0  0  0  0  0  0  0  0  0  0
   37.5090   30.4900   30.7460 H   0  0  0  0  0  0  0  0  0  0  0  0
   35.5870   31.4540   31.9080 H   0  0  0  0  0  0  0  0  0  0  0  0
   36.8220   30.8230   33.0320 H   0  0  0  0  0  0  0  0  0  0  0  0
   38.0620   27.1020   35.3870 Cl  0  0  0  0  0  0  0  0  0  0  0  0
   37.6720   26.0160   34.0650 C   0  0  0  0  0  0  0  0  0  0  0  0
   37.1100   26.5690   32.9250 C   0  0  0  0  0  0  0  0  0  0  0  0
   36.8170   25.6370   31.9670 C   0  0  0  0  0  0  0  0  0  0  0  0
   37.0580   24.2870   32.1160 C   0  0  0  0  0  0  0  0  0  0  0  0
   37.6260   23.8090   33.2900 C   0  0  0  0  0  0  0  0  0  0  0  0
   37.9410   24.7070   34.2940 C   0  0  0  0  0  0  0  0  0  0  0  0
   36.3690   25.9730   31.0410 H   0  0  0  0  0  0  0  0  0  0  0  0
   36.7900   23.6240   31.2950 H   0  0  0  0  0  0  0  0  0  0  0  0
   37.7920   22.7490   33.3540 H   0  0  0  0  0  0  0  0  0  0  0  0
   38.5180   24.2190   35.4850 N   0  0  0  0  0  0  0  0  0  0  0  0
   39.9140   23.9420   35.8040 C   0  0  0  0  0  2  0  0  0  0  0  0
   39.7910   23.0190   37.0110 C   0  0  0  0  0  2  0  0  0  0  0  0
   38.6640   23.7180   37.7740 C   0  0  0  0  0  2  0  0  0  0  0  0
   37.6650   23.9120   36.6370 C   0  0  0  0  0  3  0  0  0  0  0  0
   36.9430   24.6950   36.8620 H   0  0  0  0  0  0  0  0  0  0  0  0
   34.7440   30.3320   34.2800 C   0  0  0  0  0  0  0  0  0  0  0  0
   35.8430   30.9190   34.9090 C   0  0  0  0  0  0  0  0  0  0  0  0
   35.6210   31.5670   36.1310 C   0  0  0  0  0  0  0  0  0  0  0  0
   34.3310   31.5940   36.6520 N   0  0  0  0  0  0  0  0  0  0  0  0
   33.3010   31.0090   36.0050 C   0  0  0  0  0  0  0  0  0  0  0  0
   33.5380   30.3980   34.8430 N   0  0  0  0  0  0  0  0  0  0  0  0
   36.8990   31.0510   34.7660 H   0  0  0  0  0  0  0  0  0  0  0  0
   36.2540   32.0830   36.8040 H   0  0  0  0  0  0  0  0  0  0  0  0
   32.3000   31.0100   36.3780 H   0  0  0  0  0  0  0  0  0  0  0  0
  1  7  1  6  0  0  0
  1  2  1  0  0  0  0
  1 33  1  0  0  0  0
  2  9  1  0  0  0  0
  3 19  1  0  0  0  0
  3  2  1  0  0  0  0
  3 10  1  1  0  0  0
  4  3  1  0  0  0  0
  5  4  1  0  0  0  0
  5  6  1  0  0  0  0
  6  1  1  0  0  0  0
  6 16  1  0  0  0  0
  8  2  1  0  0  0  0
 11  4  1  0  0  0  0
 12  4  1  0  0  0  0
 13  5  1  0  0  0  0
 14  5  1  0  0  0  0
 15  6  1  0  0  0  0
 18 23  1  0  0  0  0
 18 17  1  0  0  0  0
 19 18  2  0  0  0  0
 20 21  2  0  0  0  0
 20 19  1  0  0  0  0
 21 22  1  0  0  0  0
 22 26  1  0  0  0  0
 22 23  2  0  0  0  0
 23 27  1  0  0  0  0
 24 20  1  0  0  0  0
 25 21  1  0  0  0  0
 27 28  1  0  0  0  0
 27 31  1  0  0  0  0
 28 29  1  0  0  0  0
 29 30  1  0  0  0  0
 31 32  1  0  0  0  0
 31 30  1  0  0  0  0
 33 38  2  0  0  0  0
 33 34  1  0  0  0  0
 34 35  2  0  0  0  0
 35 36  1  0  0  0  0
 35 40  1  0  0  0  0
 37 41  1  0  0  0  0
 37 36  2  0  0  0  0
 38 37  1  0  0  0  0
 39 34  1  0  0  0  0
M  END
>  <minimizedAffinity>
-5.76597595

$$$$

 OpenBabel03272506003D

 41 44  0  0  1  0  0  0  0  0999 V2000
   35.4950   28.5820   31.9350 C   0  0  2  0  0  0  0  0  0  0  0  0
   35.9120   27.2180   32.3400 C   0  0  0  0  0  0  0  0  0  0  0  0
   37.4230   27.1040   32.5560 C   0  0  2  0  0  0  0  0  0  0  0  0
   38.2190   27.5080   31.3960 C   0  0  0  0  0  0  0  0  0  0  0  0
   37.6730   28.7390   30.6830 C   0  0  0  0  0  0  0  0  0  0  0  0
   36.6580   29.4610   31.5250 C   0  0  0  0  0  0  0  0  0  0  0  0
   34.8150   28.6120   31.0290 H   0  0  0  0  0  0  0  0  0  0  0  0
   35.7380   26.5440   31.4330 H   0  0  0  0  0  0  0  0  0  0  0  0
   35.4990   26.7220   33.1830 H   0  0  0  0  0  0  0  0  0  0  0  0
   37.6390   27.6690   33.4730 H   0  0  0  0  0  0  0  0  0  0  0  0
   38.2140   26.7110   30.6290 H   0  0  0  0  0  0  0  0  0  0  0  0
   39.2800   27.6400   31.6840 H   0  0  0  0  0  0  0  0  0  0  0  0
   37.2700   28.5300   29.6880 H   0  0  0  0  0  0  0  0  0  0  0  0
   38.5290   29.4330   30.5580 H   0  0  0  0  0  0  0  0  0  0  0  0
   36.2810   30.3150   30.9310 H   0  0  0  0  0  0  0  0  0  0  0  0
   37.1030   29.8690   32.4510 H   0  0  0  0  0  0  0  0  0  0  0  0
   37.9240   26.4680   35.3950 Cl  0  0  0  0  0  0  0  0  0  0  0  0
   37.9250   25.2460   34.1360 C   0  0  0  0  0  0  0  0  0  0  0  0
   37.6400   25.6560   32.8440 C   0  0  0  0  0  0  0  0  0  0  0  0
   37.6370   24.6250   31.9430 C   0  0  0  0  0  0  0  0  0  0  0  0
   37.8940   23.3130   32.2840 C   0  0  0  0  0  0  0  0  0  0  0  0
   38.1740   22.9810   33.6030 C   0  0  0  0  0  0  0  0  0  0  0  0
   38.1880   23.9830   34.5570 C   0  0  0  0  0  0  0  0  0  0  0  0
   37.4190   24.8470   30.9070 H   0  0  0  0  0  0  0  0  0  0  0  0
   37.8700   22.5640   31.4950 H   0  0  0  0  0  0  0  0  0  0  0  0
   38.3670   21.9450   33.8150 H   0  0  0  0  0  0  0  0  0  0  0  0
   38.4720   23.6440   35.8960 N   0  0  0  0  0  0  0  0  0  0  0  0
   37.5670   23.3950   37.0120 C   0  0  0  0  0  2  0  0  0  0  0  0
   38.4860   23.5630   38.2160 C   0  0  0  0  0  2  0  0  0  0  0  0
   39.7360   22.8450   37.7070 C   0  0  0  0  0  2  0  0  0  0  0  0
   39.8640   23.4950   36.3310 C   0  0  0  0  0  3  0  0  0  0  0  0
   40.4680   22.8930   35.6540 H   0  0  0  0  0  0  0  0  0  0  0  0
   34.7570   29.2970   32.9890 C   0  0  0  0  0  0  0  0  0  0  0  0
   35.5520   29.9480   33.9330 C   0  0  0  0  0  0  0  0  0  0  0  0
   34.9020   30.6570   34.9510 C   0  0  0  0  0  0  0  0  0  0  0  0
   33.5110   30.6790   34.9720 N   0  0  0  0  0  0  0  0  0  0  0  0
   32.7860   30.0300   34.0350 C   0  0  0  0  0  0  0  0  0  0  0  0
   33.4290   29.3630   33.0760 N   0  0  0  0  0  0  0  0  0  0  0  0
   36.5890   30.1010   34.1710 H   0  0  0  0  0  0  0  0  0  0  0  0
   35.2470   31.2270   35.7740 H   0  0  0  0  0  0  0  0  0  0  0  0
   31.7180   30.0260   34.0220 H   0  0  0  0  0  0  0  0  0  0  0  0
  1  7  1  6  0  0  0
  1  2  1  0  0  0  0
  1 33  1  0  0  0  0
  2  3  1  0  0  0  0
  2  9  1  0  0  0  0
  3 19  1  0  0  0  0
  3 10  1  1  0  0  0
  4 12  1  0  0  0  0
  4  3  1  0  0  0  0
  5  4  1  0  0  0  0
  5  6  1  0  0  0  0
  6  1  1  0  0  0  0
  6 16  1  0  0  0  0
  8  2  1  0  0  0  0
 11  4  1  0  0  0  0
 13  5  1  0  0  0  0
 14  5  1  0  0  0  0
 15  6  1  0  0  0  0
 18 23  1  0  0  0  0
 18 17  1  0  0  0  0
 19 18  2  0  0  0  0
 20 21  2  0  0  0  0
 20 19  1  0  0  0  0
 21 22  1  0  0  0  0
 22 26  1  0  0  0  0
 22 23  2  0  0  0  0
 23 27  1  0  0  0  0
 24 20  1  0  0  0  0
 25 21  1  0  0  0  0
 27 31  1  0  0  0  0
 27 28  1  0  0  0  0
 28 29  1  0  0  0  0
 30 29  1  0  0  0  0
 31 30  1  0  0  0  0
 32 31  1  0  0  0  0
 33 38  2  0  0  0  0
 33 34  1  0  0  0  0
 34 39  1  0  0  0  0
 34 35  2  0  0  0  0
 35 36  1  0  0  0  0
 35 40  1  0  0  0  0
 37 36  2  0  0  0  0
 38 37  1  0  0  0  0
 41 37  1  0  0  0  0
M  END
>  <minimizedAffinity>
-5.67620897

$$$$

 OpenBabel03272506003D

 41 44  0  0  1  0  0  0  0  0999 V2000
   37.7730   26.5590   33.0740 C   0  0  2  0  0  0  0  0  0  0  0  0
   39.1150   26.0040   33.3730 C   0  0  0  0  0  0  0  0  0  0  0  0
   39.3120   25.7070   34.8610 C   0  0  2  0  0  0  0  0  0  0  0  0
   39.0840   26.8620   35.7300 C   0  0  0  0  0  0  0  0  0  0  0  0
   37.8950   27.7170   35.3060 C   0  0  0  0  0  0  0  0  0  0  0  0
   37.0230   26.9980   34.3150 C   0  0  0  0  0  0  0  0  0  0  0  0
   37.7870   27.4950   32.4360 H   0  0  0  0  0  0  0  0  0  0  0  0
   39.8630   26.8480   33.1850 H   0  0  0  0  0  0  0  0  0  0  0  0
   39.4940   25.1370   32.8910 H   0  0  0  0  0  0  0  0  0  0  0  0
   38.6740   24.8410   35.0820 H   0  0  0  0  0  0  0  0  0  0  0  0
   39.9510   27.5470   35.6970 H   0  0  0  0  0  0  0  0  0  0  0  0
   38.9980   26.5380   36.7860 H   0  0  0  0  0  0  0  0  0  0  0  0
   38.1750   28.7040   34.9290 H   0  0  0  0  0  0  0  0  0  0  0  0
   37.2790   27.8690   36.2160 H   0  0  0  0  0  0  0  0  0  0  0  0
   36.2090   27.6900   34.0260 H   0  0  0  0  0  0  0  0  0  0  0  0
   36.5560   26.0960   34.7510 H   0  0  0  0  0  0  0  0  0  0  0  0
   39.6870   22.8590   35.5400 Cl  0  0  0  0  0  0  0  0  0  0  0  0
   41.0320   23.9630   35.3130 C   0  0  0  0  0  0  0  0  0  0  0  0
   40.7350   25.2700   34.9580 C   0  0  0  0  0  0  0  0  0  0  0  0
   41.8510   26.0410   34.7760 C   0  0  0  0  0  0  0  0  0  0  0  0
   43.1380   25.5700   34.9310 C   0  0  0  0  0  0  0  0  0  0  0  0
   43.3550   24.2460   35.2900 C   0  0  0  0  0  0  0  0  0  0  0  0
   42.2620   23.4200   35.4850 C   0  0  0  0  0  0  0  0  0  0  0  0
   41.7210   27.0770   34.4920 H   0  0  0  0  0  0  0  0  0  0  0  0
   43.9620   26.2620   34.7650 H   0  0  0  0  0  0  0  0  0  0  0  0
   44.3770   23.9300   35.3970 H   0  0  0  0  0  0  0  0  0  0  0  0
   42.4840   22.0750   35.8490 N   0  0  0  0  0  0  0  0  0  0  0  0
   42.0930   21.3540   37.0550 C   0  0  0  0  0  2  0  0  0  0  0  0
   43.0260   20.1500   37.0280 C   0  0  0  0  0  2  0  0  0  0  0  0
   42.9760   19.8000   35.5390 C   0  0  0  0  0  2  0  0  0  0  0  0
   43.2140   21.1840   34.9410 C   0  0  0  0  0  3  0  0  0  0  0  0
   42.8720   21.2440   33.9090 H   0  0  0  0  0  0  0  0  0  0  0  0
   36.9060   25.6160   32.3500 C   0  0  0  0  0  0  0  0  0  0  0  0
   35.8920   26.2030   31.5930 C   0  0  0  0  0  0  0  0  0  0  0  0
   35.0450   25.3520   30.8720 C   0  0  0  0  0  0  0  0  0  0  0  0
   35.2530   23.9780   30.9430 N   0  0  0  0  0  0  0  0  0  0  0  0
   36.2490   23.4590   31.6930 C   0  0  0  0  0  0  0  0  0  0  0  0
   37.0420   24.2900   32.3700 N   0  0  0  0  0  0  0  0  0  0  0  0
   35.4990   27.1740   31.3570 H   0  0  0  0  0  0  0  0  0  0  0  0
   34.2180   25.5220   30.2330 H   0  0  0  0  0  0  0  0  0  0  0  0
   36.4360   22.4090   31.7700 H   0  0  0  0  0  0  0  0  0  0  0  0
  1  7  1  6  0  0  0
  1  2  1  0  0  0  0
  1  6  1  0  0  0  0
  2  3  1  0  0  0  0
  3 19  1  0  0  0  0
  3 10  1  1  0  0  0
  3  4  1  0  0  0  0
  4 12  1  0  0  0  0
  5  4  1  0  0  0  0
  5 14  1  0  0  0  0
  6 16  1  0  0  0  0
  6  5  1  0  0  0  0
  8  2  1  0  0  0  0
  9  2  1  0  0  0  0
 11  4  1  0  0  0  0
 13  5  1  0  0  0  0
 15  6  1  0  0  0  0
 18 23  1  0  0  0  0
 18 17  1  0  0  0  0
 19 18  2  0  0  0  0
 20 21  2  0  0  0  0
 20 19  1  0  0  0  0
 21 22  1  0  0  0  0
 22 26  1  0  0  0  0
 22 23  2  0  0  0  0
 23 27  1  0  0  0  0
 24 20  1  0  0  0  0
 25 21  1  0  0  0  0
 27 28  1  0  0  0  0
 29 28  1  0  0  0  0
 30 29  1  0  0  0  0
 31 30  1  0  0  0  0
 31 27  1  0  0  0  0
 32 31  1  0  0  0  0
 33 38  1  0  0  0  0
 33  1  1  0  0  0  0
 34 33  2  0  0  0  0
 35 36  2  0  0  0  0
 35 34  1  0  0  0  0
 36 37  1  0  0  0  0
 37 41  1  0  0  0  0
 37 38  2  0  0  0  0
 39 34  1  0  0  0  0
 40 35  1  0  0  0  0
M  END
>  <minimizedAffinity>
-5.58376789

$$$$

 OpenBabel03272506003D

 41 44  0  0  1  0  0  0  0  0999 V2000
   34.6410   30.3310   32.7590 C   0  0  2  0  0  0  0  0  0  0  0  0
   34.8860   28.8720   32.6650 C   0  0  0  0  0  0  0  0  0  0  0  0
   36.2890   28.5420   32.1490 C   0  0  2  0  0  0  0  0  0  0  0  0
   36.6020   29.1500   30.8550 C   0  0  0  0  0  0  0  0  0  0  0  0
   36.0880   30.5770   30.7130 C   0  0  0  0  0  0  0  0  0  0  0  0
   35.6910   31.1560   32.0430 C   0  0  0  0  0  0  0  0  0  0  0  0
   33.6730   30.6730   32.2810 H   0  0  0  0  0  0  0  0  0  0  0  0
   34.2140   28.4850   31.8250 H   0  0  0  0  0  0  0  0  0  0  0  0
   34.7620   28.2180   33.4920 H   0  0  0  0  0  0  0  0  0  0  0  0
   36.9800   28.8180   32.9580 H   0  0  0  0  0  0  0  0  0  0  0  0
   36.1120   28.5900   30.0380 H   0  0  0  0  0  0  0  0  0  0  0  0
   37.6890   29.0850   30.6530 H   0  0  0  0  0  0  0  0  0  0  0  0
   35.2760   30.6830   29.9880 H   0  0  0  0  0  0  0  0  0  0  0  0
   36.9430   31.1830   30.3490 H   0  0  0  0  0  0  0  0  0  0  0  0
   35.2940   32.1730   31.8570 H   0  0  0  0  0  0  0  0  0  0  0  0
   36.5530   31.2540   32.7270 H   0  0  0  0  0  0  0  0  0  0  0  0
   38.2580   27.1620   33.8630 Cl  0  0  0  0  0  0  0  0  0  0  0  0
   37.2020   26.3050   32.7540 C   0  0  0  0  0  0  0  0  0  0  0  0
   36.2900   27.0550   32.0280 C   0  0  0  0  0  0  0  0  0  0  0  0
   35.4960   26.2910   31.2160 C   0  0  0  0  0  0  0  0  0  0  0  0
   35.5920   24.9180   31.1260 C   0  0  0  0  0  0  0  0  0  0  0  0
   36.5330   24.2370   31.8870 C   0  0  0  0  0  0  0  0  0  0  0  0
   37.3620   24.9580   32.7270 C   0  0  0  0  0  0  0  0  0  0  0  0
   34.7480   26.7880   30.6120 H   0  0  0  0  0  0  0  0  0  0  0  0
   34.9150   24.3990   30.4500 H   0  0  0  0  0  0  0  0  0  0  0  0
   36.5660   23.1680   31.7790 H   0  0  0  0  0  0  0  0  0  0  0  0
   38.3170   24.2650   33.4980 N   0  0  0  0  0  0  0  0  0  0  0  0
   38.2260   23.7490   34.8600 C   0  0  0  0  0  2  0  0  0  0  0  0
   39.6920   23.5640   35.2330 C   0  0  0  0  0  2  0  0  0  0  0  0
   40.2350   22.9780   33.9280 C   0  0  0  0  0  2  0  0  0  0  0  0
   39.6380   23.9700   32.9330 C   0  0  0  0  0  3  0  0  0  0  0  0
   39.5960   23.5580   31.9260 H   0  0  0  0  0  0  0  0  0  0  0  0
   34.5750   30.8170   34.1460 C   0  0  0  0  0  0  0  0  0  0  0  0
   35.8060   31.1330   34.7240 C   0  0  0  0  0  0  0  0  0  0  0  0
   35.8000   31.6150   36.0390 C   0  0  0  0  0  0  0  0  0  0  0  0
   34.5830   31.7550   36.6980 N   0  0  0  0  0  0  0  0  0  0  0  0
   33.4180   31.4340   36.0950 C   0  0  0  0  0  0  0  0  0  0  0  0
   33.4500   30.9770   34.8430 N   0  0  0  0  0  0  0  0  0  0  0  0
   36.8530   31.1270   34.4850 H   0  0  0  0  0  0  0  0  0  0  0  0
   36.5650   31.9240   36.7030 H   0  0  0  0  0  0  0  0  0  0  0  0
   32.4670   31.5280   36.5730 H   0  0  0  0  0  0  0  0  0  0  0  0
  1  7  1  6  0  0  0
  1 33  1  0  0  0  0
  2  1  1  0  0  0  0
  2  9  1  0  0  0  0
  3  2  1  0  0  0  0
  3 10  1  1  0  0  0
  4  3  1  0  0  0  0
  5  4  1  0  0  0  0
  5  6  1  0  0  0  0
  6 16  1  0  0  0  0
  6  1  1  0  0  0  0
  8  2  1  0  0  0  0
 11  4  1  0  0  0  0
 12  4  1  0  0  0  0
 13  5  1  0  0  0  0
 14  5  1  0  0  0  0
 15  6  1  0  0  0  0
 18 17  1  0  0  0  0
 19  3  1  0  0  0  0
 19 18  2  0  0  0  0
 20 19  1  0  0  0  0
 21 20  2  0  0  0  0
 21 22  1  0  0  0  0
 22 23  2  0  0  0  0
 23 18  1  0  0  0  0
 23 27  1  0  0  0  0
 24 20  1  0  0  0  0
 25 21  1  0  0  0  0
 26 22  1  0  0  0  0
 27 28  1  0  0  0  0
 28 29  1  0  0  0  0
 30 29  1  0  0  0  0
 31 27  1  0  0  0  0
 31 30  1  0  0  0  0
 32 31  1  0  0  0  0
 33 34  2  0  0  0  0
 33 38  1  0  0  0  0
 34 35  1  0  0  0  0
 35 36  2  0  0  0  0
 35 40  1  0  0  0  0
 37 41  1  0  0  0  0
 37 36  1  0  0  0  0
 38 37  2  0  0  0  0
 39 34  1  0  0  0  0
M  END
>  <minimizedAffinity>
-5.57693148

$$$$

 OpenBabel03272506003D

 41 44  0  0  1  0  0  0  0  0999 V2000
   32.6760   30.3830   35.1820 C   0  0  2  0  0  0  0  0  0  0  0  0
   33.5240   29.9270   34.0550 C   0  0  0  0  0  0  0  0  0  0  0  0
   35.0160   29.9480   34.3950 C   0  0  2  0  0  0  0  0  0  0  0  0
   35.5030   31.2530   34.8440 C   0  0  0  0  0  0  0  0  0  0  0  0
   34.5330   31.9790   35.7680 C   0  0  0  0  0  0  0  0  0  0  0  0
   33.4670   31.0540   36.2860 C   0  0  0  0  0  0  0  0  0  0  0  0
   31.9080   31.1670   34.9000 H   0  0  0  0  0  0  0  0  0  0  0  0
   33.4420   30.7290   33.2440 H   0  0  0  0  0  0  0  0  0  0  0  0
   33.3870   28.9870   33.5820 H   0  0  0  0  0  0  0  0  0  0  0  0
   35.1720   29.1330   35.1160 H   0  0  0  0  0  0  0  0  0  0  0  0
   35.6350   31.9320   33.9820 H   0  0  0  0  0  0  0  0  0  0  0  0
   36.5060   31.1520   35.3030 H   0  0  0  0  0  0  0  0  0  0  0  0
   34.0860   32.8720   35.3230 H   0  0  0  0  0  0  0  0  0  0  0  0
   35.1240   32.3030   36.6490 H   0  0  0  0  0  0  0  0  0  0  0  0
   32.7820   31.6560   36.9140 H   0  0  0  0  0  0  0  0  0  0  0  0
   33.8850   30.2530   36.9220 H   0  0  0  0  0  0  0  0  0  0  0  0
   36.7740   27.5820   34.5740 Cl  0  0  0  0  0  0  0  0  0  0  0  0
   36.5650   28.4970   33.0910 C   0  0  0  0  0  0  0  0  0  0  0  0
   35.6850   29.5670   33.1160 C   0  0  0  0  0  0  0  0  0  0  0  0
   35.5710   30.1950   31.9050 C   0  0  0  0  0  0  0  0  0  0  0  0
   36.2620   29.8070   30.7770 C   0  0  0  0  0  0  0  0  0  0  0  0
   37.1290   28.7240   30.8320 C   0  0  0  0  0  0  0  0  0  0  0  0
   37.2820   28.0500   32.0300 C   0  0  0  0  0  0  0  0  0  0  0  0
   34.9010   31.0400   31.8240 H   0  0  0  0  0  0  0  0  0  0  0  0
   36.1050   30.3710   29.8590 H   0  0  0  0  0  0  0  0  0  0  0  0
   37.6430   28.4630   29.9240 H   0  0  0  0  0  0  0  0  0  0  0  0
   38.1630   26.9500   32.0840 N   0  0  0  0  0  0  0  0  0  0  0  0
   39.5700   26.8940   32.4640 C   0  0  0  0  0  2  0  0  0  0  0  0
   40.0160   25.5710   31.8550 C   0  0  0  0  0  2  0  0  0  0  0  0
   38.8080   24.6940   32.1900 C   0  0  0  0  0  2  0  0  0  0  0  0
   37.6850   25.6130   31.7180 C   0  0  0  0  0  3  0  0  0  0  0  0
   36.7310   25.3540   32.1750 H   0  0  0  0  0  0  0  0  0  0  0  0
   31.9010   29.2950   35.7990 C   0  0  0  0  0  0  0  0  0  0  0  0
   31.8420   29.3240   37.1930 C   0  0  0  0  0  0  0  0  0  0  0  0
   31.1060   28.3190   37.8330 C   0  0  0  0  0  0  0  0  0  0  0  0
   30.4750   27.3510   37.0570 N   0  0  0  0  0  0  0  0  0  0  0  0
   30.5630   27.3660   35.7100 C   0  0  0  0  0  0  0  0  0  0  0  0
   31.2710   28.3330   35.1250 N   0  0  0  0  0  0  0  0  0  0  0  0
   32.2080   29.9040   38.0200 H   0  0  0  0  0  0  0  0  0  0  0  0
   30.8990   28.1060   38.8490 H   0  0  0  0  0  0  0  0  0  0  0  0
   30.0920   26.6380   35.0850 H   0  0  0  0  0  0  0  0  0  0  0  0
  1  7  1  6  0  0  0
  1 33  1  0  0  0  0
  1  6  1  0  0  0  0
  2  3  1  0  0  0  0
  2  1  1  0  0  0  0
  3  4  1  0  0  0  0
  3 10  1  1  0  0  0
  4 12  1  0  0  0  0
  4  5  1  0  0  0  0
  5  6  1  0  0  0  0
  5 14  1  0  0  0  0
  6 15  1  0  0  0  0
  6 16  1  0  0  0  0
  8  2  1  0  0  0  0
  9  2  1  0  0  0  0
 11  4  1  0  0  0  0
 13  5  1  0  0  0  0
 18 19  1  0  0  0  0
 18 17  1  0  0  0  0
 19  3  1  0  0  0  0
 20 19  2  0  0  0  0
 21 22  2  0  0  0  0
 21 20  1  0  0  0  0
 22 23  1  0  0  0  0
 23 27  1  0  0  0  0
 23 18  2  0  0  0  0
 24 20  1  0  0  0  0
 25 21  1  0  0  0  0
 26 22  1  0  0  0  0
 27 28  1  0  0  0  0
 29 30  1  0  0  0  0
 29 28  1  0  0  0  0
 31 27  1  0  0  0  0
 31 32  1  0  0  0  0
 31 30  1  0  0  0  0
 33 34  1  0  0  0  0
 34 35  2  0  0  0  0
 34 39  1  0  0  0  0
 35 40  1  0  0  0  0
 36 35  1  0  0  0  0
 37 36  2  0  0  0  0
 38 37  1  0  0  0  0
 38 33  2  0  0  0  0
 41 37  1  0  0  0  0
M  END
>  <minimizedAffinity>
-5.48564053

$$$$

 OpenBabel03272506003D

 41 44  0  0  1  0  0  0  0  0999 V2000
   35.1470   31.4380   35.8300 C   0  0  2  0  0  0  0  0  0  0  0  0
   35.8000   30.8190   34.6520 C   0  0  0  0  0  0  0  0  0  0  0  0
   34.8050   30.4730   33.5410 C   0  0  2  0  0  0  0  0  0  0  0  0
   33.7110   29.6030   33.9760 C   0  0  0  0  0  0  0  0  0  0  0  0
   33.1720   29.9500   35.3590 C   0  0  0  0  0  0  0  0  0  0  0  0
   33.6380   31.3060   35.8100 C   0  0  0  0  0  0  0  0  0  0  0  0
   35.4350   30.9720   36.8210 H   0  0  0  0  0  0  0  0  0  0  0  0
   36.1660   29.7900   34.9890 H   0  0  0  0  0  0  0  0  0  0  0  0
   36.6030   31.2830   34.1350 H   0  0  0  0  0  0  0  0  0  0  0  0
   34.4800   31.4330   33.1180 H   0  0  0  0  0  0  0  0  0  0  0  0
   34.0610   28.5580   34.0630 H   0  0  0  0  0  0  0  0  0  0  0  0
   32.9060   29.5880   33.2160 H   0  0  0  0  0  0  0  0  0  0  0  0
   33.3900   29.1950   36.1190 H   0  0  0  0  0  0  0  0  0  0  0  0
   32.0690   30.0140   35.2570 H   0  0  0  0  0  0  0  0  0  0  0  0
   33.2420   31.4710   36.8300 H   0  0  0  0  0  0  0  0  0  0  0  0
   33.2480   32.1150   35.1650 H   0  0  0  0  0  0  0  0  0  0  0  0
   36.2680   28.1080   34.5350 Cl  0  0  0  0  0  0  0  0  0  0  0  0
   36.3980   28.6760   32.8800 C   0  0  0  0  0  0  0  0  0  0  0  0
   35.6350   29.7740   32.5160 C   0  0  0  0  0  0  0  0  0  0  0  0
   35.7850   30.1180   31.2000 C   0  0  0  0  0  0  0  0  0  0  0  0
   36.6130   29.4460   30.3250 C   0  0  0  0  0  0  0  0  0  0  0  0
   37.3480   28.3530   30.7660 C   0  0  0  0  0  0  0  0  0  0  0  0
   37.2330   27.9590   32.0870 C   0  0  0  0  0  0  0  0  0  0  0  0
   35.2240   30.9620   30.8210 H   0  0  0  0  0  0  0  0  0  0  0  0
   36.6660   29.7970   29.2960 H   0  0  0  0  0  0  0  0  0  0  0  0
   37.9760   27.8650   30.0430 H   0  0  0  0  0  0  0  0  0  0  0  0
   37.9810   26.8490   32.5320 N   0  0  0  0  0  0  0  0  0  0  0  0
   37.6090   25.4410   32.6150 C   0  0  0  0  0  2  0  0  0  0  0  0
   38.6410   24.8920   33.5930 C   0  0  0  0  0  2  0  0  0  0  0  0
   39.8960   25.6130   33.0980 C   0  0  0  0  0  2  0  0  0  0  0  0
   39.3550   27.0380   33.0070 C   0  0  0  0  0  3  0  0  0  0  0  0
   39.9590   27.6590   32.3480 H   0  0  0  0  0  0  0  0  0  0  0  0
   35.4590   32.8690   35.9770 C   0  0  0  0  0  0  0  0  0  0  0  0
   36.6460   33.2840   35.3720 C   0  0  0  0  0  0  0  0  0  0  0  0
   36.9840   34.6400   35.4690 C   0  0  0  0  0  0  0  0  0  0  0  0
   36.1300   35.4980   36.1560 N   0  0  0  0  0  0  0  0  0  0  0  0
   34.9920   35.0460   36.7250 C   0  0  0  0  0  0  0  0  0  0  0  0
   34.6920   33.7510   36.6190 N   0  0  0  0  0  0  0  0  0  0  0  0
   37.4680   32.8810   34.8110 H   0  0  0  0  0  0  0  0  0  0  0  0
   37.8010   35.2120   35.1140 H   0  0  0  0  0  0  0  0  0  0  0  0
   34.3150   35.6770   37.2590 H   0  0  0  0  0  0  0  0  0  0  0  0
  1 33  1  0  0  0  0
  1  7  1  1  0  0  0
  2  8  1  0  0  0  0
  2  1  1  0  0  0  0
  3 10  1  6  0  0  0
  3  4  1  0  0  0  0
  3  2  1  0  0  0  0
  4 11  1  0  0  0  0
  4  5  1  0  0  0  0
  5  6  1  0  0  0  0
  5 13  1  0  0  0  0
  6  1  1  0  0  0  0
  6 15  1  0  0  0  0
  9  2  1  0  0  0  0
 12  4  1  0  0  0  0
 14  5  1  0  0  0  0
 16  6  1  0  0  0  0
 18 17  1  0  0  0  0
 19 18  1  0  0  0  0
 19  3  1  0  0  0  0
 20 19  2  0  0  0  0
 21 22  2  0  0  0  0
 21 20  1  0  0  0  0
 22 23  1  0  0  0  0
 23 27  1  0  0  0  0
 23 18  2  0  0  0  0
 24 20  1  0  0  0  0
 25 21  1  0  0  0  0
 26 22  1  0  0  0  0
 27 28  1  0  0  0  0
 27 31  1  0  0  0  0
 28 29  1  0  0  0  0
 30 29  1  0  0  0  0
 31 30  1  0  0  0  0
 32 31  1  0  0  0  0
 33 38  1  0  0  0  0
 34 35  1  0  0  0  0
 34 33  2  0  0  0  0
 35 36  2  0  0  0  0
 36 37  1  0  0  0  0
 37 41  1  0  0  0  0
 38 37  2  0  0  0  0
 39 34  1  0  0  0  0
 40 35  1  0  0  0  0
M  END
>  <minimizedAffinity>
-5.45077467

$$$$

 OpenBabel03272506003D

 41 44  0  0  1  0  0  0  0  0999 V2000
   36.7860   23.1050   31.0890 C   0  0  2  0  0  0  0  0  0  0  0  0
   37.9830   23.3750   31.9200 C   0  0  0  0  0  0  0  0  0  0  0  0
   37.6800   24.2910   33.1090 C   0  0  2  0  0  0  0  0  0  0  0  0
   37.0790   25.5710   32.7320 C   0  0  0  0  0  0  0  0  0  0  0  0
   36.0450   25.4520   31.6180 C   0  0  0  0  0  0  0  0  0  0  0  0
   35.6240   24.0250   31.4050 C   0  0  0  0  0  0  0  0  0  0  0  0
   36.9450   23.2600   29.9780 H   0  0  0  0  0  0  0  0  0  0  0  0
   38.6820   24.0160   31.2820 H   0  0  0  0  0  0  0  0  0  0  0  0
   38.5700   22.5980   32.3440 H   0  0  0  0  0  0  0  0  0  0  0  0
   37.0750   23.6930   33.8030 H   0  0  0  0  0  0  0  0  0  0  0  0
   37.8500   26.2550   32.3310 H   0  0  0  0  0  0  0  0  0  0  0  0
   36.6620   26.0780   33.6240 H   0  0  0  0  0  0  0  0  0  0  0  0
   36.3600   25.9070   30.6750 H   0  0  0  0  0  0  0  0  0  0  0  0
   35.1450   25.9970   31.9690 H   0  0  0  0  0  0  0  0  0  0  0  0
   34.9070   24.0130   30.5620 H   0  0  0  0  0  0  0  0  0  0  0  0
   35.1080   23.6080   32.2890 H   0  0  0  0  0  0  0  0  0  0  0  0
   38.7790   21.9670   34.5610 Cl  0  0  0  0  0  0  0  0  0  0  0  0
   39.6070   23.5120   34.4820 C   0  0  0  0  0  0  0  0  0  0  0  0
   39.0140   24.5200   33.7380 C   0  0  0  0  0  0  0  0  0  0  0  0
   39.7520   25.6730   33.7140 C   0  0  0  0  0  0  0  0  0  0  0  0
   40.9600   25.8190   34.3650 C   0  0  0  0  0  0  0  0  0  0  0  0
   41.4890   24.7610   35.0920 C   0  0  0  0  0  0  0  0  0  0  0  0
   40.7870   23.5710   35.1490 C   0  0  0  0  0  0  0  0  0  0  0  0
   39.3720   26.5160   33.1540 H   0  0  0  0  0  0  0  0  0  0  0  0
   41.4720   26.7770   34.2870 H   0  0  0  0  0  0  0  0  0  0  0  0
   42.4330   24.9280   35.5790 H   0  0  0  0  0  0  0  0  0  0  0  0
   41.3260   22.4980   35.8880 N   0  0  0  0  0  0  0  0  0  0  0  0
   40.9240   21.9550   37.1800 C   0  0  0  0  0  2  0  0  0  0  0  0
   42.1650   21.1770   37.6030 C   0  0  0  0  0  2  0  0  0  0  0  0
   42.5480   20.5290   36.2710 C   0  0  0  0  0  2  0  0  0  0  0  0
   42.4720   21.7510   35.3590 C   0  0  0  0  0  3  0  0  0  0  0  0
   42.3600   21.4690   34.3140 H   0  0  0  0  0  0  0  0  0  0  0  0
   36.2950   21.7230   31.2150 C   0  0  0  0  0  0  0  0  0  0  0  0
   35.2300   21.5490   32.0990 C   0  0  0  0  0  0  0  0  0  0  0  0
   34.7130   20.2550   32.2460 C   0  0  0  0  0  0  0  0  0  0  0  0
   35.2790   19.2180   31.5120 N   0  0  0  0  0  0  0  0  0  0  0  0
   36.3110   19.4390   30.6690 C   0  0  0  0  0  0  0  0  0  0  0  0
   36.7850   20.6790   30.5470 N   0  0  0  0  0  0  0  0  0  0  0  0
   34.6180   22.1200   32.7720 H   0  0  0  0  0  0  0  0  0  0  0  0
   33.9290   19.8490   32.8310 H   0  0  0  0  0  0  0  0  0  0  0  0
   36.7690   18.6650   30.0920 H   0  0  0  0  0  0  0  0  0  0  0  0
  1  7  1  6  0  0  0
  1 33  1  0  0  0  0
  1  6  1  0  0  0  0
  1  2  1  0  0  0  0
  2  9  1  0  0  0  0
  2  3  1  0  0  0  0
  3 19  1  0  0  0  0
  3 10  1  1  0  0  0
  4  3  1  0  0  0  0
  4 12  1  0  0  0  0
  5 14  1  0  0  0  0
  5  4  1  0  0  0  0
  6  5  1  0  0  0  0
  6 16  1  0  0  0  0
  8  2  1  0  0  0  0
 11  4  1  0  0  0  0
 13  5  1  0  0  0  0
 15  6  1  0  0  0  0
 18 17  1  0  0  0  0
 18 23  1  0  0  0  0
 19 18  2  0  0  0  0
 20 19  1  0  0  0  0
 20 21  2  0  0  0  0
 21 22  1  0  0  0  0
 22 23  2  0  0  0  0
 22 26  1  0  0  0  0
 23 27  1  0  0  0  0
 24 20  1  0  0  0  0
 25 21  1  0  0  0  0
 27 28  1  0  0  0  0
 28 29  1  0  0  0  0
 30 29  1  0  0  0  0
 31 27  1  0  0  0  0
 31 30  1  0  0  0  0
 32 31  1  0  0  0  0
 33 34  1  0  0  0  0
 34 35  2  0  0  0  0
 34 39  1  0  0  0  0
 35 40  1  0  0  0  0
 36 35  1  0  0  0  0
 37 36  2  0  0  0  0
 38 37  1  0  0  0  0
 38 33  2  0  0  0  0
 41 37  1  0  0  0  0
M  END
>  <minimizedAffinity>
-5.41212225

$$$$

 OpenBabel03272506003D

 41 44  0  0  1  0  0  0  0  0999 V2000
   37.8920   25.3920   32.7910 C   0  0  2  0  0  0  0  0  0  0  0  0
   37.6610   26.8490   32.6510 C   0  0  0  0  0  0  0  0  0  0  0  0
   36.2230   27.1810   32.2440 C   0  0  2  0  0  0  0  0  0  0  0  0
   35.7890   26.5220   31.0120 C   0  0  0  0  0  0  0  0  0  0  0  0
   36.2680   25.0800   30.8930 C   0  0  0  0  0  0  0  0  0  0  0  0
   36.7720   24.5550   32.2080 C   0  0  0  0  0  0  0  0  0  0  0  0
   38.8100   25.0110   32.2480 H   0  0  0  0  0  0  0  0  0  0  0  0
   38.2620   27.1860   31.7390 H   0  0  0  0  0  0  0  0  0  0  0  0
   37.8660   27.5370   33.4330 H   0  0  0  0  0  0  0  0  0  0  0  0
   35.6020   26.9550   33.1220 H   0  0  0  0  0  0  0  0  0  0  0  0
   36.2140   27.0350   30.1300 H   0  0  0  0  0  0  0  0  0  0  0  0
   34.6890   26.5970   30.9020 H   0  0  0  0  0  0  0  0  0  0  0  0
   37.0120   24.9270   30.1060 H   0  0  0  0  0  0  0  0  0  0  0  0
   35.3760   24.4750   30.6330 H   0  0  0  0  0  0  0  0  0  0  0  0
   37.1370   23.5230   32.0360 H   0  0  0  0  0  0  0  0  0  0  0  0
   35.9720   24.5030   32.9690 H   0  0  0  0  0  0  0  0  0  0  0  0
   35.5240   28.7420   34.6510 Cl  0  0  0  0  0  0  0  0  0  0  0  0
   35.8790   29.4930   33.1050 C   0  0  0  0  0  0  0  0  0  0  0  0
   36.2320   28.6610   32.0550 C   0  0  0  0  0  0  0  0  0  0  0  0
   36.5170   29.3450   30.9040 C   0  0  0  0  0  0  0  0  0  0  0  0
   36.4570   30.7190   30.7970 C   0  0  0  0  0  0  0  0  0  0  0  0
   36.0930   31.4850   31.8970 C   0  0  0  0  0  0  0  0  0  0  0  0
   35.7960   30.8470   33.0870 C   0  0  0  0  0  0  0  0  0  0  0  0
   36.8090   28.7800   30.0280 H   0  0  0  0  0  0  0  0  0  0  0  0
   36.7020   31.1710   29.8370 H   0  0  0  0  0  0  0  0  0  0  0  0
   36.0630   32.5510   31.7600 H   0  0  0  0  0  0  0  0  0  0  0  0
   35.4260   31.6270   34.2030 N   0  0  0  0  0  0  0  0  0  0  0  0
   36.2410   32.1390   35.2990 C   0  0  0  0  0  2  0  0  0  0  0  0
   35.1920   32.4560   36.3590 C   0  0  0  0  0  2  0  0  0  0  0  0
   34.1030   33.0820   35.4860 C   0  0  0  0  0  2  0  0  0  0  0  0
   34.0290   32.0360   34.3770 C   0  0  0  0  0  3  0  0  0  0  0  0
   33.5790   32.4380   33.4700 H   0  0  0  0  0  0  0  0  0  0  0  0
   38.0730   24.9670   34.1890 C   0  0  0  0  0  0  0  0  0  0  0  0
   38.0460   25.9970   35.1310 C   0  0  0  0  0  0  0  0  0  0  0  0
   38.1980   25.6470   36.4790 C   0  0  0  0  0  0  0  0  0  0  0  0
   38.3670   24.3060   36.8100 N   0  0  0  0  0  0  0  0  0  0  0  0
   38.3870   23.3470   35.8600 C   0  0  0  0  0  0  0  0  0  0  0  0
   38.2400   23.7050   34.5840 N   0  0  0  0  0  0  0  0  0  0  0  0
   37.9440   27.0650   35.1790 H   0  0  0  0  0  0  0  0  0  0  0  0
   38.2160   26.2070   37.3760 H   0  0  0  0  0  0  0  0  0  0  0  0
   38.5150   22.3090   36.0800 H   0  0  0  0  0  0  0  0  0  0  0  0
  1  7  1  6  0  0  0
  1 33  1  0  0  0  0
  2  1  1  0  0  0  0
  2  9  1  0  0  0  0
  3  2  1  0  0  0  0
  3 10  1  1  0  0  0
  4  3  1  0  0  0  0
  5  4  1  0  0  0  0
  5  6  1  0  0  0  0
  6  1  1  0  0  0  0
  6 16  1  0  0  0  0
  8  2  1  0  0  0  0
 11  4  1  0  0  0  0
 12  4  1  0  0  0  0
 13  5  1  0  0  0  0
 14  5  1  0  0  0  0
 15  6  1  0  0  0  0
 18 17  1  0  0  0  0
 19  3  1  0  0  0  0
 19 18  2  0  0  0  0
 20 19  1  0  0  0  0
 21 20  2  0  0  0  0
 21 22  1  0  0  0  0
 22 23  2  0  0  0  0
 23 18  1  0  0  0  0
 23 27  1  0  0  0  0
 24 20  1  0  0  0  0
 25 21  1  0  0  0  0
 26 22  1  0  0  0  0
 27 31  1  0  0  0  0
 27 28  1  0  0  0  0
 28 29  1  0  0  0  0
 30 29  1  0  0  0  0
 31 30  1  0  0  0  0
 32 31  1  0  0  0  0
 33 38  2  0  0  0  0
 33 34  1  0  0  0  0
 34 39  1  0  0  0  0
 34 35  2  0  0  0  0
 35 36  1  0  0  0  0
 35 40  1  0  0  0  0
 37 41  1  0  0  0  0
 37 36  2  0  0  0  0
 38 37  1  0  0  0  0
M  END
>  <minimizedAffinity>
-5.38415337

$$$$

 OpenBabel03272506003D

 41 44  0  0  1  0  0  0  0  0999 V2000
   37.7910   24.4470   33.4180 C   0  0  2  0  0  0  0  0  0  0  0  0
   37.1190   25.6870   32.9620 C   0  0  0  0  0  0  0  0  0  0  0  0
   38.0880   26.6770   32.3120 C   0  0  2  0  0  0  0  0  0  0  0  0
   39.2170   27.0490   33.1660 C   0  0  0  0  0  0  0  0  0  0  0  0
   39.7890   25.8800   33.9590 C   0  0  0  0  0  0  0  0  0  0  0  0
   39.3020   24.5600   33.4290 C   0  0  0  0  0  0  0  0  0  0  0  0
   37.5460   24.1480   34.4830 H   0  0  0  0  0  0  0  0  0  0  0  0
   36.7900   26.2420   33.9060 H   0  0  0  0  0  0  0  0  0  0  0  0
   36.2890   25.6760   32.3000 H   0  0  0  0  0  0  0  0  0  0  0  0
   38.3750   26.2300   31.3500 H   0  0  0  0  0  0  0  0  0  0  0  0
   38.8970   27.7800   33.9310 H   0  0  0  0  0  0  0  0  0  0  0  0
   39.9990   27.5590   32.5700 H   0  0  0  0  0  0  0  0  0  0  0  0
   39.6130   25.9510   35.0370 H   0  0  0  0  0  0  0  0  0  0  0  0
   40.8860   25.8990   33.7970 H   0  0  0  0  0  0  0  0  0  0  0  0
   39.7250   23.7660   34.0740 H   0  0  0  0  0  0  0  0  0  0  0  0
   39.6510   24.3740   32.3970 H   0  0  0  0  0  0  0  0  0  0  0  0
   36.8430   27.9010   34.6930 Cl  0  0  0  0  0  0  0  0  0  0  0  0
   36.5780   28.5080   33.0680 C   0  0  0  0  0  0  0  0  0  0  0  0
   37.2460   27.8770   32.0300 C   0  0  0  0  0  0  0  0  0  0  0  0
   36.9960   28.4430   30.8100 C   0  0  0  0  0  0  0  0  0  0  0  0
   36.1630   29.5280   30.6280 C   0  0  0  0  0  0  0  0  0  0  0  0
   35.5280   30.1060   31.7190 C   0  0  0  0  0  0  0  0  0  0  0  0
   35.7450   29.5750   32.9780 C   0  0  0  0  0  0  0  0  0  0  0  0
   37.4780   28.0220   29.9380 H   0  0  0  0  0  0  0  0  0  0  0  0
   36.0270   29.9060   29.6160 H   0  0  0  0  0  0  0  0  0  0  0  0
   34.8900   30.9490   31.5210 H   0  0  0  0  0  0  0  0  0  0  0  0
   35.0990   30.1630   34.0840 N   0  0  0  0  0  0  0  0  0  0  0  0
   33.8480   29.8000   34.7400 C   0  0  0  0  0  2  0  0  0  0  0  0
   33.5010   31.0740   35.5020 C   0  0  0  0  0  2  0  0  0  0  0  0
   34.8840   31.4600   36.0300 C   0  0  0  0  0  2  0  0  0  0  0  0
   35.6970   31.3270   34.7450 C   0  0  0  0  0  3  0  0  0  0  0  0
   36.7600   31.2110   34.9490 H   0  0  0  0  0  0  0  0  0  0  0  0
   37.4470   23.2710   32.6030 C   0  0  0  0  0  0  0  0  0  0  0  0
   36.2400   23.3610   31.9090 C   0  0  0  0  0  0  0  0  0  0  0  0
   35.8700   22.2740   31.1060 C   0  0  0  0  0  0  0  0  0  0  0  0
   36.7150   21.1700   31.0400 N   0  0  0  0  0  0  0  0  0  0  0  0
   37.8740   21.1310   31.7320 C   0  0  0  0  0  0  0  0  0  0  0  0
   38.2030   22.1780   32.4890 N   0  0  0  0  0  0  0  0  0  0  0  0
   35.4180   24.0390   31.7720 H   0  0  0  0  0  0  0  0  0  0  0  0
   35.0330   22.0790   30.4880 H   0  0  0  0  0  0  0  0  0  0  0  0
   38.5440   20.3000   31.7040 H   0  0  0  0  0  0  0  0  0  0  0  0
  1  6  1  0  0  0  0
  1  7  1  1  0  0  0
  2  1  1  0  0  0  0
  2  8  1  0  0  0  0
  3 10  1  6  0  0  0
  3  2  1  0  0  0  0
  3  4  1  0  0  0  0
  4 11  1  0  0  0  0
  4  5  1  0  0  0  0
  5 13  1  0  0  0  0
  6  5  1  0  0  0  0
  6 15  1  0  0  0  0
  9  2  1  0  0  0  0
 12  4  1  0  0  0  0
 14  5  1  0  0  0  0
 16  6  1  0  0  0  0
 18 17  1  0  0  0  0
 19  3  1  0  0  0  0
 19 18  2  0  0  0  0
 20 19  1  0  0  0  0
 21 20  2  0  0  0  0
 21 22  1  0  0  0  0
 22 23  2  0  0  0  0
 23 18  1  0  0  0  0
 23 27  1  0  0  0  0
 24 20  1  0  0  0  0
 25 21  1  0  0  0  0
 26 22  1  0  0  0  0
 27 28  1  0  0  0  0
 27 31  1  0  0  0  0
 28 29  1  0  0  0  0
 29 30  1  0  0  0  0
 31 32  1  0  0  0  0
 31 30  1  0  0  0  0
 33  1  1  0  0  0  0
 34 33  2  0  0  0  0
 35 34  1  0  0  0  0
 36 35  2  0  0  0  0
 36 37  1  0  0  0  0
 37 38  2  0  0  0  0
 38 33  1  0  0  0  0
 39 34  1  0  0  0  0
 40 35  1  0  0  0  0
 41 37  1  0  0  0  0
M  END
>  <minimizedAffinity>
-5.37258196

$$$$
