
 OpenBabel03272506263D

 39 42  0  0  0  0  0  0  0  0999 V2000
   30.8650   26.7910   46.8020 C   0  0  0  0  0  0  0  0  0  0  0  0
   30.6990   25.4250   46.6460 C   0  0  0  0  0  0  0  0  0  0  0  0
   31.4060   24.6460   45.7270 C   0  0  0  0  0  0  0  0  0  0  0  0
   32.3520   25.2930   44.9010 C   0  0  0  0  0  0  0  0  0  0  0  0
   32.5000   26.6510   45.0730 C   0  0  0  0  0  0  0  0  0  0  0  0
   31.8040   27.4010   45.9740 C   0  0  0  0  0  0  0  0  0  0  0  0
   29.9700   24.8880   47.2740 H   0  0  0  0  0  0  0  0  0  0  0  0
   31.1880   23.5760   45.6960 H   0  0  0  0  0  0  0  0  0  0  0  0
   32.8370   24.6010   44.2310 H   0  0  0  0  0  0  0  0  0  0  0  0
   33.2340   26.9370   44.3640 H   0  0  0  0  0  0  0  0  0  0  0  0
   30.5790   27.5030   49.0940 C   0  0  0  0  0  0  0  0  0  0  0  0
   30.0500   27.4280   47.7970 C   0  0  0  0  0  0  0  0  0  0  0  0
   28.7790   27.9740   47.5690 C   0  0  0  0  0  0  0  0  0  0  0  0
   28.1200   28.5480   48.6110 N   0  0  0  0  0  0  0  0  0  0  0  0
   28.6570   28.6070   49.8640 C   0  0  0  0  0  0  0  0  0  0  0  0
   29.8890   28.0820   50.1000 N   0  0  0  0  0  0  0  0  0  0  0  0
   31.5570   27.0910   49.3000 H   0  0  0  0  0  0  0  0  0  0  0  0
   28.0170   29.0940   50.5930 H   0  0  0  0  0  0  0  0  0  0  0  0
   28.0930   27.9670   46.2520 C   0  0  0  0  0  0  0  0  0  0  0  0
   26.8390   28.6000   46.3730 F   0  0  0  0  0  0  0  0  0  0  0  0
   28.7630   28.5380   45.2320 F   0  0  0  0  0  0  0  0  0  0  0  0
   27.7640   26.6580   45.8980 F   0  0  0  0  0  0  0  0  0  0  0  0
   32.0150   29.1300   46.1800 S   0  0  0  0  0  0  0  0  0  0  0  0
   33.6130   29.3260   48.8400 Cl  0  0  0  0  0  0  0  0  0  0  0  0
   34.3700   29.7200   47.3120 C   0  0  0  0  0  0  0  0  0  0  0  0
   33.7030   29.6610   46.0960 C   0  0  0  0  0  0  0  0  0  0  0  0
   34.3480   29.9850   44.9380 C   0  0  0  0  0  0  0  0  0  0  0  0
   35.6680   30.3670   44.9860 C   0  0  0  0  0  0  0  0  0  0  0  0
   36.3480   30.4280   46.2050 C   0  0  0  0  0  0  0  0  0  0  0  0
   35.7070   30.1050   47.3840 C   0  0  0  0  0  0  0  0  0  0  0  0
   33.9230   30.0090   43.9700 H   0  0  0  0  0  0  0  0  0  0  0  0
   36.2540   30.6370   44.1200 H   0  0  0  0  0  0  0  0  0  0  0  0
   37.3780   30.7250   46.2570 H   0  0  0  0  0  0  0  0  0  0  0  0
   36.4000   30.1710   48.6280 N   0  0  0  0  0  0  0  0  0  0  0  0
   36.7190   29.1130   49.5670 C   0  0  0  0  0  0  0  0  0  0  0  0
   37.7010   29.7670   50.5140 C   0  0  0  0  0  0  0  0  0  0  0  0
   37.1430   31.1760   50.6120 C   0  0  0  0  0  0  0  0  0  0  0  0
   36.9130   31.4540   49.1310 C   0  0  0  0  0  0  0  0  0  0  0  0
   37.9150   31.5890   48.6420 H   0  0  0  0  0  0  0  0  0  0  0  0
  1 12  1  0  0  0  0
  2  1  1  0  0  0  0
  2  7  1  0  0  0  0
  3  2  2  0  0  0  0
  4  5  2  0  0  0  0
  4  3  1  0  0  0  0
  5  6  1  0  0  0  0
  6 23  1  0  0  0  0
  6  1  2  0  0  0  0
  8  3  1  0  0  0  0
  9  4  1  0  0  0  0
 10  5  1  0  0  0  0
 11 17  1  0  0  0  0
 11 16  1  0  0  0  0
 12 11  2  0  0  0  0
 13 12  1  0  0  0  0
 13 14  2  0  0  0  0
 14 15  1  0  0  0  0
 15 16  2  0  0  0  0
 15 18  1  0  0  0  0
 19 20  1  0  0  0  0
 19 13  1  0  0  0  0
 21 19  1  0  0  0  0
 22 19  1  0  0  0  0
 25 30  1  0  0  0  0
 25 24  1  0  0  0  0
 26 23  1  0  0  0  0
 26 25  2  0  0  0  0
 27 28  2  0  0  0  0
 27 26  1  0  0  0  0
 28 29  1  0  0  0  0
 29 33  1  0  0  0  0
 29 30  2  0  0  0  0
 30 34  1  0  0  0  0
 31 27  1  0  0  0  0
 32 28  1  0  0  0  0
 34 38  1  0  0  0  0
 34 35  1  0  0  0  0
 35 36  1  0  0  0  0
 36 37  1  0  0  0  0
 38 37  1  0  0  0  0
 39 38  1  0  0  0  0
M  END
>  <minimizedAffinity>
-5.3807025

>  <minimizedRMSD>
4.11121464

$$$$
