
 OpenBabel03272510303D

 25 27  0  0  0  0  0  0  0  0999 V2000
   38.2120   24.8050   35.2700 C   0  0  0  0  0  0  0  0  0  0  0  0
   38.3230   24.4740   36.6220 C   0  0  0  0  0  0  0  0  0  0  0  0
   38.2310   23.1250   36.9050 C   0  0  0  0  0  0  0  0  0  0  0  0
   38.0430   22.2120   35.8930 N   0  0  0  0  0  0  0  0  0  0  0  0
   37.9410   22.5930   34.5850 C   0  0  0  0  0  0  0  0  0  0  0  0
   38.0290   23.9230   34.2830 N   0  0  0  0  0  0  0  0  0  0  0  0
   38.4680   25.2270   37.3580 H   0  0  0  0  0  0  0  0  0  0  0  0
   38.3060   22.7830   37.9250 H   0  0  0  0  0  0  0  0  0  0  0  0
   38.3370   26.2580   34.8940 C   0  0  0  0  0  0  0  0  0  0  0  0
   38.6740   27.2920   35.8380 C   0  0  0  0  0  0  0  0  0  0  0  0
   39.7810   26.7700   34.9460 C   0  0  0  0  0  0  0  0  0  0  0  0
   37.7750   26.4870   33.9670 H   0  0  0  0  0  0  0  0  0  0  0  0
   38.2930   28.3070   35.7500 H   0  0  0  0  0  0  0  0  0  0  0  0
   38.8150   26.9710   36.9100 H   0  0  0  0  0  0  0  0  0  0  0  0
   40.5540   26.0980   35.3550 H   0  0  0  0  0  0  0  0  0  0  0  0
   40.0210   27.4480   34.1040 H   0  0  0  0  0  0  0  0  0  0  0  0
   37.7620   21.6310   33.5120 C   0  0  0  0  0  0  0  0  0  0  0  0
   38.1080   20.6270   33.7980 H   0  0  0  0  0  0  0  0  0  0  0  0
   38.4230   21.9450   32.6510 H   0  0  0  0  0  0  0  0  0  0  0  0
   36.3890   21.6240   33.0830 N   0  0  0  0  0  0  0  0  0  0  0  0
   35.6240   20.5890   33.7590 C   0  0  0  0  0  2  0  0  0  0  0  0
   35.4400   19.4820   32.7370 C   0  0  0  0  0  2  0  0  0  0  0  0
   36.1490   19.9220   31.4790 C   0  0  0  0  0  2  0  0  0  0  0  0
   36.1880   21.4340   31.6810 C   0  0  0  0  0  3  0  0  0  0  0  0
   35.1590   21.8330   31.4550 H   0  0  0  0  0  0  0  0  0  0  0  0
  1  2  1  0  0  0  0
  2  3  2  0  0  0  0
  2  7  1  0  0  0  0
  3  8  1  0  0  0  0
  4  3  1  0  0  0  0
  5  4  2  0  0  0  0
  6  5  1  0  0  0  0
  6  1  2  0  0  0  0
  9 11  1  0  0  0  0
  9  1  1  0  0  0  0
  9 10  1  0  0  0  0
 10 14  1  0  0  0  0
 11 15  1  0  0  0  0
 11 10  1  0  0  0  0
 12  9  1  0  0  0  0
 13 10  1  0  0  0  0
 16 11  1  0  0  0  0
 17 18  1  0  0  0  0
 17  5  1  0  0  0  0
 19 17  1  0  0  0  0
 20 17  1  0  0  0  0
 20 21  1  0  0  0  0
 22 21  1  0  0  0  0
 23 24  1  0  0  0  0
 23 22  1  0  0  0  0
 24 20  1  0  0  0  0
 25 24  1  0  0  0  0
M  END
>  <minimizedAffinity>
-4.45745373

$$$$

 OpenBabel03272510303D

 25 27  0  0  0  0  0  0  0  0999 V2000
   37.0510   26.0180   32.7270 C   0  0  0  0  0  0  0  0  0  0  0  0
   36.5240   27.2630   33.0750 C   0  0  0  0  0  0  0  0  0  0  0  0
   36.8790   27.7220   34.3280 C   0  0  0  0  0  0  0  0  0  0  0  0
   37.6980   26.9710   35.1390 N   0  0  0  0  0  0  0  0  0  0  0  0
   38.1870   25.7560   34.7470 C   0  0  0  0  0  0  0  0  0  0  0  0
   37.8470   25.2830   33.5110 N   0  0  0  0  0  0  0  0  0  0  0  0
   35.8960   27.7960   32.4030 H   0  0  0  0  0  0  0  0  0  0  0  0
   36.5140   28.6760   34.6750 H   0  0  0  0  0  0  0  0  0  0  0  0
   36.7260   25.4780   31.3600 C   0  0  0  0  0  0  0  0  0  0  0  0
   36.7790   24.0770   31.0320 C   0  0  0  0  0  0  0  0  0  0  0  0
   35.4200   24.6750   31.3260 C   0  0  0  0  0  0  0  0  0  0  0  0
   36.8360   26.2560   30.5790 H   0  0  0  0  0  0  0  0  0  0  0  0
   37.0510   23.7210   30.0400 H   0  0  0  0  0  0  0  0  0  0  0  0
   37.1160   23.3790   31.8510 H   0  0  0  0  0  0  0  0  0  0  0  0
   34.9170   24.4650   32.2850 H   0  0  0  0  0  0  0  0  0  0  0  0
   34.8230   24.8740   30.4160 H   0  0  0  0  0  0  0  0  0  0  0  0
   39.0660   24.9680   35.5920 C   0  0  0  0  0  0  0  0  0  0  0  0
   39.5220   25.5730   36.3900 H   0  0  0  0  0  0  0  0  0  0  0  0
   39.9290   24.6100   34.9560 H   0  0  0  0  0  0  0  0  0  0  0  0
   38.3550   23.8330   36.1190 N   0  0  0  0  0  0  0  0  0  0  0  0
   37.7520   24.1330   37.4060 C   0  0  0  0  0  2  0  0  0  0  0  0
   38.6270   23.4460   38.4390 C   0  0  0  0  0  2  0  0  0  0  0  0
   39.7520   22.7770   37.6870 C   0  0  0  0  0  2  0  0  0  0  0  0
   39.1370   22.6510   36.2960 C   0  0  0  0  0  3  0  0  0  0  0  0
   38.4070   21.7940   36.3250 H   0  0  0  0  0  0  0  0  0  0  0  0
  1  2  2  0  0  0  0
  1  6  1  0  0  0  0
  2  3  1  0  0  0  0
  3  8  1  0  0  0  0
  3  4  2  0  0  0  0
  5  4  1  0  0  0  0
  5 17  1  0  0  0  0
  6  5  2  0  0  0  0
  7  2  1  0  0  0  0
  9  1  1  0  0  0  0
 10 11  1  0  0  0  0
 10  9  1  0  0  0  0
 10 14  1  0  0  0  0
 11  9  1  0  0  0  0
 11 15  1  0  0  0  0
 12  9  1  0  0  0  0
 13 10  1  0  0  0  0
 16 11  1  0  0  0  0
 17 20  1  0  0  0  0
 17 18  1  0  0  0  0
 19 17  1  0  0  0  0
 20 24  1  0  0  0  0
 20 21  1  0  0  0  0
 21 22  1  0  0  0  0
 23 22  1  0  0  0  0
 24 25  1  0  0  0  0
 24 23  1  0  0  0  0
M  END
>  <minimizedAffinity>
-4.31098413

$$$$

 OpenBabel03272510303D

 25 27  0  0  0  0  0  0  0  0999 V2000
   39.8350   22.9280   37.1650 C   0  0  0  0  0  0  0  0  0  0  0  0
   39.1270   23.1840   38.3410 C   0  0  0  0  0  0  0  0  0  0  0  0
   38.0310   24.0120   38.1960 C   0  0  0  0  0  0  0  0  0  0  0  0
   37.7010   24.5230   36.9620 N   0  0  0  0  0  0  0  0  0  0  0  0
   38.4310   24.2390   35.8430 C   0  0  0  0  0  0  0  0  0  0  0  0
   39.5200   23.4210   35.9630 N   0  0  0  0  0  0  0  0  0  0  0  0
   39.4330   22.7580   39.2650 H   0  0  0  0  0  0  0  0  0  0  0  0
   37.4290   24.2620   39.0550 H   0  0  0  0  0  0  0  0  0  0  0  0
   41.0220   22.0050   37.2510 C   0  0  0  0  0  0  0  0  0  0  0  0
   41.7400   21.5320   36.0960 C   0  0  0  0  0  0  0  0  0  0  0  0
   42.3420   22.6860   36.8690 C   0  0  0  0  0  0  0  0  0  0  0  0
   41.0290   21.4380   38.2030 H   0  0  0  0  0  0  0  0  0  0  0  0
   42.2100   20.5510   36.0630 H   0  0  0  0  0  0  0  0  0  0  0  0
   41.3500   21.8610   35.0900 H   0  0  0  0  0  0  0  0  0  0  0  0
   42.2960   23.7110   36.4620 H   0  0  0  0  0  0  0  0  0  0  0  0
   43.1810   22.3840   37.5240 H   0  0  0  0  0  0  0  0  0  0  0  0
   38.0760   24.7600   34.5350 C   0  0  0  0  0  0  0  0  0  0  0  0
   37.1560   24.2990   34.1450 H   0  0  0  0  0  0  0  0  0  0  0  0
   38.8910   24.4630   33.8110 H   0  0  0  0  0  0  0  0  0  0  0  0
   37.9780   26.1940   34.5870 N   0  0  0  0  0  0  0  0  0  0  0  0
   37.2570   26.7210   33.4410 C   0  0  0  0  0  2  0  0  0  0  0  0
   38.3150   27.3150   32.5290 C   0  0  0  0  0  2  0  0  0  0  0  0
   39.6510   27.0770   33.1910 C   0  0  0  0  0  2  0  0  0  0  0  0
   39.2250   26.8890   34.6440 C   0  0  0  0  0  3  0  0  0  0  0  0
   38.9960   27.9090   35.0650 H   0  0  0  0  0  0  0  0  0  0  0  0
  1  9  1  0  0  0  0
  1  2  1  0  0  0  0
  2  7  1  0  0  0  0
  3  2  2  0  0  0  0
  3  8  1  0  0  0  0
  4  3  1  0  0  0  0
  5  6  1  0  0  0  0
  5  4  2  0  0  0  0
  6  1  2  0  0  0  0
  9 12  1  0  0  0  0
 10 11  1  0  0  0  0
 10  9  1  0  0  0  0
 11  9  1  0  0  0  0
 11 16  1  0  0  0  0
 13 10  1  0  0  0  0
 14 10  1  0  0  0  0
 15 11  1  0  0  0  0
 17 20  1  0  0  0  0
 17  5  1  0  0  0  0
 18 17  1  0  0  0  0
 19 17  1  0  0  0  0
 20 24  1  0  0  0  0
 21 20  1  0  0  0  0
 22 23  1  0  0  0  0
 22 21  1  0  0  0  0
 23 24  1  0  0  0  0
 24 25  1  0  0  0  0
M  END
>  <minimizedAffinity>
-4.21875906

$$$$

 OpenBabel03272510303D

 25 27  0  0  0  0  0  0  0  0999 V2000
   36.6610   23.2560   32.0760 C   0  0  0  0  0  0  0  0  0  0  0  0
   36.1870   24.4830   31.6070 C   0  0  0  0  0  0  0  0  0  0  0  0
   36.6490   25.5910   32.2900 C   0  0  0  0  0  0  0  0  0  0  0  0
   37.5150   25.4460   33.3500 N   0  0  0  0  0  0  0  0  0  0  0  0
   37.9470   24.2180   33.7670 C   0  0  0  0  0  0  0  0  0  0  0  0
   37.5010   23.1080   33.1050 N   0  0  0  0  0  0  0  0  0  0  0  0
   35.5190   24.5290   30.7820 H   0  0  0  0  0  0  0  0  0  0  0  0
   36.3310   26.5770   31.9920 H   0  0  0  0  0  0  0  0  0  0  0  0
   36.2180   22.0120   31.3520 C   0  0  0  0  0  0  0  0  0  0  0  0
   36.4650   20.6820   31.8460 C   0  0  0  0  0  0  0  0  0  0  0  0
   35.0880   21.2680   32.0730 C   0  0  0  0  0  0  0  0  0  0  0  0
   36.0600   22.2050   30.2730 H   0  0  0  0  0  0  0  0  0  0  0  0
   36.6300   19.8360   31.1810 H   0  0  0  0  0  0  0  0  0  0  0  0
   37.0490   20.6010   32.8070 H   0  0  0  0  0  0  0  0  0  0  0  0
   34.7930   21.6210   33.0760 H   0  0  0  0  0  0  0  0  0  0  0  0
   34.3240   20.8760   31.3740 H   0  0  0  0  0  0  0  0  0  0  0  0
   38.8750   24.0600   34.8730 C   0  0  0  0  0  0  0  0  0  0  0  0
   39.0190   25.0010   35.4260 H   0  0  0  0  0  0  0  0  0  0  0  0
   39.8880   23.8060   34.4420 H   0  0  0  0  0  0  0  0  0  0  0  0
   38.4380   22.9930   35.7330 N   0  0  0  0  0  0  0  0  0  0  0  0
   37.7260   23.5020   36.8940 C   0  0  0  0  0  2  0  0  0  0  0  0
   38.6980   23.3820   38.0540 C   0  0  0  0  0  2  0  0  0  0  0  0
   39.9820   22.8170   37.4970 C   0  0  0  0  0  2  0  0  0  0  0  0
   39.4740   22.1430   36.2250 C   0  0  0  0  0  3  0  0  0  0  0  0
   38.9720   21.1810   36.5290 H   0  0  0  0  0  0  0  0  0  0  0  0
  1  6  1  0  0  0  0
  2  1  2  0  0  0  0
  2  3  1  0  0  0  0
  3  4  2  0  0  0  0
  4  5  1  0  0  0  0
  5 17  1  0  0  0  0
  6  5  2  0  0  0  0
  7  2  1  0  0  0  0
  8  3  1  0  0  0  0
  9 10  1  0  0  0  0
  9 11  1  0  0  0  0
  9  1  1  0  0  0  0
 10 11  1  0  0  0  0
 10 14  1  0  0  0  0
 11 15  1  0  0  0  0
 12  9  1  0  0  0  0
 13 10  1  0  0  0  0
 16 11  1  0  0  0  0
 17 18  1  0  0  0  0
 17 20  1  0  0  0  0
 19 17  1  0  0  0  0
 20 24  1  0  0  0  0
 20 21  1  0  0  0  0
 21 22  1  0  0  0  0
 23 22  1  0  0  0  0
 24 25  1  0  0  0  0
 24 23  1  0  0  0  0
M  END
>  <minimizedAffinity>
-4.18193483

$$$$

 OpenBabel03272510303D

 25 27  0  0  0  0  0  0  0  0999 V2000
   37.2100   26.6490   32.9390 C   0  0  0  0  0  0  0  0  0  0  0  0
   36.6470   25.7620   32.0190 C   0  0  0  0  0  0  0  0  0  0  0  0
   36.9400   24.4300   32.2330 C   0  0  0  0  0  0  0  0  0  0  0  0
   37.7350   24.0510   33.2910 N   0  0  0  0  0  0  0  0  0  0  0  0
   38.2610   24.9640   34.1620 C   0  0  0  0  0  0  0  0  0  0  0  0
   37.9840   26.2880   33.9680 N   0  0  0  0  0  0  0  0  0  0  0  0
   36.0400   26.1170   31.2220 H   0  0  0  0  0  0  0  0  0  0  0  0
   36.5440   23.6780   31.5680 H   0  0  0  0  0  0  0  0  0  0  0  0
   36.9010   28.1130   32.7780 C   0  0  0  0  0  0  0  0  0  0  0  0
   35.6050   28.6090   32.3920 C   0  0  0  0  0  0  0  0  0  0  0  0
   35.9610   28.6520   33.8630 C   0  0  0  0  0  0  0  0  0  0  0  0
   37.8200   28.7050   32.5960 H   0  0  0  0  0  0  0  0  0  0  0  0
   35.4800   29.5140   31.8010 H   0  0  0  0  0  0  0  0  0  0  0  0
   34.8130   27.8360   32.1750 H   0  0  0  0  0  0  0  0  0  0  0  0
   35.5120   27.9280   34.5640 H   0  0  0  0  0  0  0  0  0  0  0  0
   36.2510   29.6600   34.2140 H   0  0  0  0  0  0  0  0  0  0  0  0
   39.0850   24.5690   35.2910 C   0  0  0  0  0  0  0  0  0  0  0  0
   39.2470   25.4010   35.9930 H   0  0  0  0  0  0  0  0  0  0  0  0
   40.1100   24.3030   34.8960 H   0  0  0  0  0  0  0  0  0  0  0  0
   38.5100   23.4220   35.9410 N   0  0  0  0  0  0  0  0  0  0  0  0
   37.7500   23.8030   37.1210 C   0  0  0  0  0  2  0  0  0  0  0  0
   38.6210   23.4280   38.3070 C   0  0  0  0  0  2  0  0  0  0  0  0
   39.9000   22.8510   37.7490 C   0  0  0  0  0  2  0  0  0  0  0  0
   39.4430   22.4240   36.3570 C   0  0  0  0  0  3  0  0  0  0  0  0
   38.8520   21.4710   36.4720 H   0  0  0  0  0  0  0  0  0  0  0  0
  1  6  1  0  0  0  0
  2  3  1  0  0  0  0
  2  1  2  0  0  0  0
  3  4  2  0  0  0  0
  4  5  1  0  0  0  0
  5 17  1  0  0  0  0
  6  5  2  0  0  0  0
  7  2  1  0  0  0  0
  8  3  1  0  0  0  0
  9  1  1  0  0  0  0
  9 11  1  0  0  0  0
 10  9  1  0  0  0  0
 10 11  1  0  0  0  0
 11 16  1  0  0  0  0
 11 15  1  0  0  0  0
 12  9  1  0  0  0  0
 13 10  1  0  0  0  0
 14 10  1  0  0  0  0
 17 20  1  0  0  0  0
 17 18  1  0  0  0  0
 19 17  1  0  0  0  0
 20 24  1  0  0  0  0
 20 21  1  0  0  0  0
 21 22  1  0  0  0  0
 23 22  1  0  0  0  0
 24 25  1  0  0  0  0
 24 23  1  0  0  0  0
M  END
>  <minimizedAffinity>
-4.1283536

$$$$

 OpenBabel03272510303D

 25 27  0  0  0  0  0  0  0  0999 V2000
   36.5950   21.3050   33.8070 C   0  0  0  0  0  0  0  0  0  0  0  0
   35.8170   20.7020   34.7970 C   0  0  0  0  0  0  0  0  0  0  0  0
   36.0420   21.1600   36.0800 C   0  0  0  0  0  0  0  0  0  0  0  0
   36.9750   22.1430   36.3170 N   0  0  0  0  0  0  0  0  0  0  0  0
   37.7100   22.7000   35.3080 C   0  0  0  0  0  0  0  0  0  0  0  0
   37.5040   22.2600   34.0300 N   0  0  0  0  0  0  0  0  0  0  0  0
   35.1110   19.9470   34.5500 H   0  0  0  0  0  0  0  0  0  0  0  0
   35.4820   20.7460   36.9040 H   0  0  0  0  0  0  0  0  0  0  0  0
   36.3740   20.8720   32.3820 C   0  0  0  0  0  0  0  0  0  0  0  0
   35.1120   20.3790   31.8940 C   0  0  0  0  0  0  0  0  0  0  0  0
   35.4600   21.8220   31.6000 C   0  0  0  0  0  0  0  0  0  0  0  0
   37.3270   20.6000   31.8870 H   0  0  0  0  0  0  0  0  0  0  0  0
   35.0440   19.6290   31.1080 H   0  0  0  0  0  0  0  0  0  0  0  0
   34.2770   20.2950   32.6470 H   0  0  0  0  0  0  0  0  0  0  0  0
   34.9650   22.6370   32.1540 H   0  0  0  0  0  0  0  0  0  0  0  0
   35.8070   21.9860   30.5610 H   0  0  0  0  0  0  0  0  0  0  0  0
   38.6820   23.7500   35.5490 C   0  0  0  0  0  0  0  0  0  0  0  0
   39.7160   23.3820   35.4620 H   0  0  0  0  0  0  0  0  0  0  0  0
   38.5720   24.0850   36.6220 H   0  0  0  0  0  0  0  0  0  0  0  0
   38.4330   24.8620   34.6710 N   0  0  0  0  0  0  0  0  0  0  0  0
   39.6690   25.5120   34.2690 C   0  0  0  0  0  2  0  0  0  0  0  0
   39.7390   26.7950   35.0770 C   0  0  0  0  0  2  0  0  0  0  0  0
   38.5150   26.8260   35.9610 C   0  0  0  0  0  2  0  0  0  0  0  0
   37.5860   25.8820   35.2030 C   0  0  0  0  0  3  0  0  0  0  0  0
   37.1800   26.4460   34.3160 H   0  0  0  0  0  0  0  0  0  0  0  0
  1  6  2  0  0  0  0
  1  2  1  0  0  0  0
  2  3  2  0  0  0  0
  3  4  1  0  0  0  0
  3  8  1  0  0  0  0
  5 17  1  0  0  0  0
  5  4  2  0  0  0  0
  6  5  1  0  0  0  0
  7  2  1  0  0  0  0
  9  1  1  0  0  0  0
 10  9  1  0  0  0  0
 10 14  1  0  0  0  0
 11 10  1  0  0  0  0
 11 15  1  0  0  0  0
 11  9  1  0  0  0  0
 12  9  1  0  0  0  0
 13 10  1  0  0  0  0
 16 11  1  0  0  0  0
 17 19  1  0  0  0  0
 18 17  1  0  0  0  0
 20 24  1  0  0  0  0
 20 17  1  0  0  0  0
 21 20  1  0  0  0  0
 21 22  1  0  0  0  0
 22 23  1  0  0  0  0
 24 23  1  0  0  0  0
 25 24  1  0  0  0  0
M  END
>  <minimizedAffinity>
-4.11286449

$$$$

 OpenBabel03272510303D

 25 27  0  0  0  0  0  0  0  0999 V2000
   37.4180   26.2750   33.2390 C   0  0  0  0  0  0  0  0  0  0  0  0
   36.8810   27.4960   32.8270 C   0  0  0  0  0  0  0  0  0  0  0  0
   35.9340   27.4120   31.8260 C   0  0  0  0  0  0  0  0  0  0  0  0
   35.5780   26.1900   31.3030 N   0  0  0  0  0  0  0  0  0  0  0  0
   36.1380   25.0240   31.7440 C   0  0  0  0  0  0  0  0  0  0  0  0
   37.0780   25.0840   32.7350 N   0  0  0  0  0  0  0  0  0  0  0  0
   37.1970   28.4080   33.2720 H   0  0  0  0  0  0  0  0  0  0  0  0
   35.4690   28.3090   31.4490 H   0  0  0  0  0  0  0  0  0  0  0  0
   38.4330   26.2970   34.3510 C   0  0  0  0  0  0  0  0  0  0  0  0
   38.4870   27.3320   35.3500 C   0  0  0  0  0  0  0  0  0  0  0  0
   37.8190   26.0280   35.7300 C   0  0  0  0  0  0  0  0  0  0  0  0
   39.3300   25.6980   34.0960 H   0  0  0  0  0  0  0  0  0  0  0  0
   39.4220   27.6560   35.8040 H   0  0  0  0  0  0  0  0  0  0  0  0
   37.7400   28.1710   35.2490 H   0  0  0  0  0  0  0  0  0  0  0  0
   36.7200   25.9680   35.8040 H   0  0  0  0  0  0  0  0  0  0  0  0
   38.4560   25.3770   36.3590 H   0  0  0  0  0  0  0  0  0  0  0  0
   35.7520   23.7310   31.2080 C   0  0  0  0  0  0  0  0  0  0  0  0
   35.9290   23.6660   30.1240 H   0  0  0  0  0  0  0  0  0  0  0  0
   34.6360   23.6200   31.3390 H   0  0  0  0  0  0  0  0  0  0  0  0
   36.4260   22.6820   31.9260 N   0  0  0  0  0  0  0  0  0  0  0  0
   37.2950   21.9100   31.0520 C   0  0  0  0  0  2  0  0  0  0  0  0
   36.5660   20.6030   30.8000 C   0  0  0  0  0  2  0  0  0  0  0  0
   35.2520   20.6820   31.5400 C   0  0  0  0  0  2  0  0  0  0  0  0
   35.5710   21.7470   32.5850 C   0  0  0  0  0  3  0  0  0  0  0  0
   36.1980   21.2600   33.3850 H   0  0  0  0  0  0  0  0  0  0  0  0
  1  9  1  0  0  0  0
  2  1  1  0  0  0  0
  2  7  1  0  0  0  0
  3  2  2  0  0  0  0
  4  5  2  0  0  0  0
  4  3  1  0  0  0  0
  5  6  1  0  0  0  0
  6  1  2  0  0  0  0
  8  3  1  0  0  0  0
  9 10  1  0  0  0  0
  9 11  1  0  0  0  0
 10 11  1  0  0  0  0
 10 13  1  0  0  0  0
 11 15  1  0  0  0  0
 11 16  1  0  0  0  0
 12  9  1  0  0  0  0
 14 10  1  0  0  0  0
 17 19  1  0  0  0  0
 17  5  1  0  0  0  0
 17 20  1  0  0  0  0
 18 17  1  0  0  0  0
 20 24  1  0  0  0  0
 21 20  1  0  0  0  0
 22 21  1  0  0  0  0
 22 23  1  0  0  0  0
 23 24  1  0  0  0  0
 24 25  1  0  0  0  0
M  END
>  <minimizedAffinity>
-4.10050678

$$$$

 OpenBabel03272510303D

 25 27  0  0  0  0  0  0  0  0999 V2000
   37.2490   27.5490   33.8530 C   0  0  0  0  0  0  0  0  0  0  0  0
   37.5680   27.7250   32.5050 C   0  0  0  0  0  0  0  0  0  0  0  0
   36.8040   28.6640   31.8410 C   0  0  0  0  0  0  0  0  0  0  0  0
   35.8130   29.3520   32.5010 N   0  0  0  0  0  0  0  0  0  0  0  0
   35.5430   29.1390   33.8240 C   0  0  0  0  0  0  0  0  0  0  0  0
   36.2870   28.2130   34.5020 N   0  0  0  0  0  0  0  0  0  0  0  0
   38.3470   27.1620   32.0520 H   0  0  0  0  0  0  0  0  0  0  0  0
   36.9850   28.8620   30.7960 H   0  0  0  0  0  0  0  0  0  0  0  0
   38.0680   26.5610   34.6420 C   0  0  0  0  0  0  0  0  0  0  0  0
   39.5080   26.5650   34.6580 C   0  0  0  0  0  0  0  0  0  0  0  0
   38.7930   27.1980   35.8330 C   0  0  0  0  0  0  0  0  0  0  0  0
   37.4930   25.6400   34.8620 H   0  0  0  0  0  0  0  0  0  0  0  0
   40.0910   25.6520   34.7620 H   0  0  0  0  0  0  0  0  0  0  0  0
   40.0180   27.3360   34.0140 H   0  0  0  0  0  0  0  0  0  0  0  0
   38.7570   28.2960   35.9350 H   0  0  0  0  0  0  0  0  0  0  0  0
   38.7760   26.5550   36.7340 H   0  0  0  0  0  0  0  0  0  0  0  0
   34.5110   29.8750   34.5310 C   0  0  0  0  0  0  0  0  0  0  0  0
   34.2620   29.4100   35.4970 H   0  0  0  0  0  0  0  0  0  0  0  0
   33.5640   29.8210   33.9180 H   0  0  0  0  0  0  0  0  0  0  0  0
   34.9050   31.2510   34.6840 N   0  0  0  0  0  0  0  0  0  0  0  0
   35.7490   31.4370   35.8520 C   0  0  0  0  0  2  0  0  0  0  0  0
   34.8620   32.0850   36.8990 C   0  0  0  0  0  2  0  0  0  0  0  0
   33.4900   32.2280   36.2860 C   0  0  0  0  0  2  0  0  0  0  0  0
   33.8300   32.1840   34.7990 C   0  0  0  0  0  3  0  0  0  0  0  0
   34.2570   33.1890   34.5190 H   0  0  0  0  0  0  0  0  0  0  0  0
  1  6  1  0  0  0  0
  1  9  1  0  0  0  0
  2  1  2  0  0  0  0
  3  4  2  0  0  0  0
  3  2  1  0  0  0  0
  4  5  1  0  0  0  0
  5  6  2  0  0  0  0
  5 17  1  0  0  0  0
  7  2  1  0  0  0  0
  8  3  1  0  0  0  0
  9 10  1  0  0  0  0
  9 12  1  0  0  0  0
  9 11  1  0  0  0  0
 10 13  1  0  0  0  0
 10 11  1  0  0  0  0
 11 15  1  0  0  0  0
 11 16  1  0  0  0  0
 14 10  1  0  0  0  0
 17 20  1  0  0  0  0
 17 18  1  0  0  0  0
 19 17  1  0  0  0  0
 20 24  1  0  0  0  0
 20 21  1  0  0  0  0
 21 22  1  0  0  0  0
 23 22  1  0  0  0  0
 24 23  1  0  0  0  0
 25 24  1  0  0  0  0
M  END
>  <minimizedAffinity>
-4.09922075

$$$$

 OpenBabel03272510303D

 25 27  0  0  0  0  0  0  0  0999 V2000
   35.9480   23.3370   31.5260 C   0  0  0  0  0  0  0  0  0  0  0  0
   34.8900   24.0110   30.9140 C   0  0  0  0  0  0  0  0  0  0  0  0
   34.9590   25.3890   30.9740 C   0  0  0  0  0  0  0  0  0  0  0  0
   36.0150   26.0080   31.6030 N   0  0  0  0  0  0  0  0  0  0  0  0
   37.0260   25.2970   32.1880 C   0  0  0  0  0  0  0  0  0  0  0  0
   36.9770   23.9320   32.1400 N   0  0  0  0  0  0  0  0  0  0  0  0
   34.1030   23.4750   30.4430 H   0  0  0  0  0  0  0  0  0  0  0  0
   34.1820   25.9860   30.5250 H   0  0  0  0  0  0  0  0  0  0  0  0
   35.9480   21.8320   31.4670 C   0  0  0  0  0  0  0  0  0  0  0  0
   36.6700   21.0050   32.3980 C   0  0  0  0  0  0  0  0  0  0  0  0
   35.1840   21.1850   32.6280 C   0  0  0  0  0  0  0  0  0  0  0  0
   35.6890   21.4660   30.4540 H   0  0  0  0  0  0  0  0  0  0  0  0
   37.0970   20.0460   32.1150 H   0  0  0  0  0  0  0  0  0  0  0  0
   37.2820   21.5400   33.1800 H   0  0  0  0  0  0  0  0  0  0  0  0
   34.8230   21.8410   33.4390 H   0  0  0  0  0  0  0  0  0  0  0  0
   34.5820   20.3140   32.3070 H   0  0  0  0  0  0  0  0  0  0  0  0
   38.1510   25.9450   32.8360 C   0  0  0  0  0  0  0  0  0  0  0  0
   38.1250   27.0380   32.7100 H   0  0  0  0  0  0  0  0  0  0  0  0
   39.0940   25.6040   32.3160 H   0  0  0  0  0  0  0  0  0  0  0  0
   38.2050   25.5660   34.2230 N   0  0  0  0  0  0  0  0  0  0  0  0
   37.5160   26.5290   35.0660 C   0  0  0  0  0  2  0  0  0  0  0  0
   38.6080   27.3310   35.7490 C   0  0  0  0  0  2  0  0  0  0  0  0
   39.9270   26.8020   35.2380 C   0  0  0  0  0  2  0  0  0  0  0  0
   39.5180   25.4110   34.7630 C   0  0  0  0  0  3  0  0  0  0  0  0
   39.4060   24.7600   35.6770 H   0  0  0  0  0  0  0  0  0  0  0  0
  1  6  1  0  0  0  0
  2  3  1  0  0  0  0
  2  1  2  0  0  0  0
  3  4  2  0  0  0  0
  4  5  1  0  0  0  0
  5 17  1  0  0  0  0
  6  5  2  0  0  0  0
  7  2  1  0  0  0  0
  8  3  1  0  0  0  0
  9  1  1  0  0  0  0
  9 10  1  0  0  0  0
  9 11  1  0  0  0  0
 10 11  1  0  0  0  0
 10 14  1  0  0  0  0
 11 15  1  0  0  0  0
 12  9  1  0  0  0  0
 13 10  1  0  0  0  0
 16 11  1  0  0  0  0
 17 20  1  0  0  0  0
 18 17  1  0  0  0  0
 19 17  1  0  0  0  0
 20 24  1  0  0  0  0
 20 21  1  0  0  0  0
 21 22  1  0  0  0  0
 23 22  1  0  0  0  0
 24 23  1  0  0  0  0
 24 25  1  0  0  0  0
M  END
>  <minimizedAffinity>
-4.09572124

$$$$
