
 OpenBabel03272510053D

 27 29  0  0  0  0  0  0  0  0999 V2000
   36.2670   31.1100   49.3710 C   0  0  0  0  0  0  0  0  0  0  0  0
   37.0180   31.5250   48.2650 C   0  0  0  0  0  0  0  0  0  0  0  0
   36.7570   30.9300   47.0300 C   0  0  0  0  0  0  0  0  0  0  0  0
   35.7900   29.9780   46.9500 N   0  0  0  0  0  0  0  0  0  0  0  0
   35.0800   29.5990   48.0390 C   0  0  0  0  0  0  0  0  0  0  0  0
   35.3100   30.1570   49.2480 N   0  0  0  0  0  0  0  0  0  0  0  0
   34.0780   28.5890   47.8780 N   0  0  0  0  0  0  0  0  0  0  0  0
   32.9210   28.7480   46.9940 C   0  0  0  0  0  0  0  0  0  0  0  0
   32.3110   27.4000   46.9400 C   0  0  0  0  0  0  0  0  0  0  0  0
   33.2780   26.4500   47.6190 C   0  0  0  0  0  0  0  0  0  0  0  0
   34.0750   27.2960   48.5550 C   0  0  0  0  0  0  0  0  0  0  0  0
   36.4500   31.5570   50.3410 H   0  0  0  0  0  0  0  0  0  0  0  0
   37.3110   31.2180   46.1450 H   0  0  0  0  0  0  0  0  0  0  0  0
   32.1720   29.4620   47.4340 H   0  0  0  0  0  0  0  0  0  0  0  0
   33.2740   29.1660   46.0410 H   0  0  0  0  0  0  0  0  0  0  0  0
   31.2880   27.3220   47.3620 H   0  0  0  0  0  0  0  0  0  0  0  0
   32.2400   27.0820   45.8760 H   0  0  0  0  0  0  0  0  0  0  0  0
   32.6630   25.7440   48.2440 H   0  0  0  0  0  0  0  0  0  0  0  0
   33.8650   25.8350   46.9230 H   0  0  0  0  0  0  0  0  0  0  0  0
   35.1240   26.9170   48.5170 H   0  0  0  0  0  0  0  0  0  0  0  0
   33.7180   27.3440   49.5860 H   0  0  0  0  0  0  0  0  0  0  0  0
   38.0060   32.5150   48.4070 N   0  0  0  0  0  0  0  0  0  0  0  0
   38.0340   33.5110   49.4520 C   0  0  0  0  0  2  0  0  0  0  0  0
   39.4640   33.9820   49.4860 C   0  0  0  0  0  2  0  0  0  0  0  0
   39.8790   33.8870   48.0350 C   0  0  0  0  0  2  0  0  0  0  0  0
   39.1430   32.6860   47.5300 C   0  0  0  0  0  3  0  0  0  0  0  0
   39.7800   31.7740   47.6640 H   0  0  0  0  0  0  0  0  0  0  0  0
  1 12  1  0  0  0  0
  2 22  1  0  0  0  0
  2  1  2  0  0  0  0
  3  2  1  0  0  0  0
  4  3  2  0  0  0  0
  4  5  1  0  0  0  0
  5  6  2  0  0  0  0
  6  1  1  0  0  0  0
  7  5  1  0  0  0  0
  7 11  1  0  0  0  0
  8 14  1  0  0  0  0
  8  7  1  0  0  0  0
  9  8  1  0  0  0  0
  9 16  1  0  0  0  0
  9 10  1  0  0  0  0
 10 18  1  0  0  0  0
 10 11  1  0  0  0  0
 11 21  1  0  0  0  0
 13  3  1  0  0  0  0
 15  8  1  0  0  0  0
 17  9  1  0  0  0  0
 19 10  1  0  0  0  0
 20 11  1  0  0  0  0
 22 23  1  0  0  0  0
 23 24  1  0  0  0  0
 25 24  1  0  0  0  0
 26 27  1  0  0  0  0
 26 25  1  0  0  0  0
 26 22  1  0  0  0  0
M  END
>  <minimizedAffinity>
-4.28941584

>  <minimizedRMSD>
2.66316581

$$$$
