
     RDKit          3D

 32 34  0  0  0  0  0  0  0  0999 V2000
   38.0029   33.1030   49.4671 C   0  0  0  0  0  0  0  0  0  0  0  0
   38.9698   33.2171   48.4704 C   0  0  0  0  0  0  0  0  0  0  0  0
   38.9507   32.2261   47.4751 C   0  0  0  0  0  0  0  0  0  0  0  0
   38.0270   31.2292   47.5158 N   0  0  0  0  0  0  0  0  0  0  0  0
   37.1100   31.1750   48.5164 C   0  0  0  0  0  0  0  0  0  0  0  0
   37.0976   32.1196   49.5005 N   0  0  0  0  0  0  0  0  0  0  0  0
   36.1023   30.1328   48.6045 C   0  0  0  0  0  0  0  0  0  0  0  0
   35.2848   29.9617   47.5136 C   0  0  0  0  0  0  0  0  0  0  0  0
   34.2918   28.9925   47.5060 C   0  0  0  0  0  0  0  0  0  0  0  0
   34.1524   28.2002   48.6405 C   0  0  0  0  0  0  0  0  0  0  0  0
   34.9589   28.3522   49.7457 C   0  0  0  0  0  0  0  0  0  0  0  0
   35.9369   29.3268   49.7185 C   0  0  0  0  0  0  0  0  0  0  0  0
   37.9478   33.8277   50.2744 H   0  0  0  0  0  0  0  0  0  0  0  0
   39.6725   34.0197   48.4847 H   0  0  0  0  0  0  0  0  0  0  0  0
   39.6903   32.2831   46.6817 H   0  0  0  0  0  0  0  0  0  0  0  0
   35.3650   30.5603   46.6138 H   0  0  0  0  0  0  0  0  0  0  0  0
   33.6596   28.8630   46.6574 H   0  0  0  0  0  0  0  0  0  0  0  0
   33.3799   27.4291   48.6645 H   0  0  0  0  0  0  0  0  0  0  0  0
   34.8646   27.7430   50.6397 H   0  0  0  0  0  0  0  0  0  0  0  0
   36.8151   29.5535   50.8159 N   0  0  0  0  0  0  0  0  0  0  0  0
   37.2853   28.5640   51.7915 C   0  0  0  0  0  0  0  0  0  0  0  0
   36.8838   29.2787   53.0872 C   0  0  0  0  0  0  0  0  0  0  0  0
   37.5138   30.6430   52.8201 C   0  0  0  0  0  0  0  0  0  0  0  0
   37.4979   30.7163   51.3246 C   0  0  1  0  0  0  0  0  0  0  0  0
   38.5442   30.6500   50.9661 H   0  0  0  0  0  0  0  0  0  0  0  0
   36.7266   27.6165   51.6832 H   0  0  0  0  0  0  0  0  0  0  0  0
   38.3685   28.4873   51.7227 H   0  0  0  0  0  0  0  0  0  0  0  0
   35.7838   29.3419   53.1113 H   0  0  0  0  0  0  0  0  0  0  0  0
   37.3305   28.7920   53.9783 H   0  0  0  0  0  0  0  0  0  0  0  0
   38.5593   30.5638   53.2202 H   0  0  0  0  0  0  0  0  0  0  0  0
   36.9633   31.4568   53.3243 H   0  0  0  0  0  0  0  0  0  0  0  0
   37.0238   31.6790   51.0142 H   0  0  0  0  0  0  0  0  0  0  0  0
  1  6  2  0
  2  1  1  0
  3  4  1  0
  3  2  2  0
  4  5  2  0
  5  7  1  0
  5  6  1  0
  7 12  1  0
  8  7  2  0
  9  8  1  0
  9 10  2  0
 10 11  1  0
 12 11  2  0
  1 13  1  0
  2 14  1  0
  3 15  1  0
  8 16  1  0
  9 17  1  0
 10 18  1  0
 11 19  1  0
 20 21  1  0
 21 22  1  0
 22 23  1  0
 23 24  1  0
 24 25  1  6
 24 20  1  0
 21 26  1  0
 21 27  1  0
 22 28  1  0
 22 29  1  0
 23 30  1  0
 23 31  1  0
 24 32  1  0
 12 20  1  0
M  ISO  8  13  14  14  14  15  14  16  14  17  14  18  14  19  14  25  13
M  END
>  <DihAtoms>  (1) 
6,11,19,20

>  <DihDeg>  (1) 
-59.99726595740848

$$$$
