
 OpenBabel03272509463D

 22 23  0  0  0  0  0  0  0  0999 V2000
   34.1670   28.6560   48.4840 C   0  0  0  0  0  0  0  0  0  0  0  0
   34.7370   29.3270   47.8040 H   0  0  0  0  0  0  0  0  0  0  0  0
   33.2820   29.2640   48.8270 H   0  0  0  0  0  0  0  0  0  0  0  0
   33.7460   27.4580   47.6750 C   0  0  0  0  0  0  0  0  0  0  0  0
   33.5370   27.8020   46.6280 H   0  0  0  0  0  0  0  0  0  0  0  0
   34.6050   26.7740   47.6040 H   0  0  0  0  0  0  0  0  0  0  0  0
   32.5620   26.8300   48.1600 N   0  0  0  0  0  0  0  0  0  0  0  0
   31.8950   25.9480   47.2670 C   0  0  0  0  0  0  0  0  0  0  0  0
   30.4410   26.3360   47.2600 C   0  0  0  0  0  0  0  0  0  0  0  0
   30.2550   27.0160   48.5960 C   0  0  0  0  0  0  0  0  0  0  0  0
   31.5980   27.7080   48.7560 C   0  0  0  0  0  0  0  0  0  0  0  0
   31.8600   27.8480   49.8180 H   0  0  0  0  0  0  0  0  0  0  0  0
   34.9890   28.2480   49.5660 O   0  0  0  0  0  0  0  0  0  0  0  0
   37.3460   30.2690   51.4170 C   0  0  0  0  0  0  0  0  0  0  0  0
   38.0860   30.7990   50.3640 C   0  0  0  0  0  0  0  0  0  0  0  0
   37.7440   30.4390   49.0680 C   0  0  0  0  0  0  0  0  0  0  0  0
   36.6960   29.5830   48.8990 N   0  0  0  0  0  0  0  0  0  0  0  0
   36.0030   29.0920   49.9520 C   0  0  0  0  0  0  0  0  0  0  0  0
   36.3260   29.4340   51.2260 N   0  0  0  0  0  0  0  0  0  0  0  0
   37.6410   30.5720   52.4130 H   0  0  0  0  0  0  0  0  0  0  0  0
   38.9230   31.4870   50.5580 H   0  0  0  0  0  0  0  0  0  0  0  0
   38.2990   30.8360   48.2320 H   0  0  0  0  0  0  0  0  0  0  0  0
  1  3  1  0  0  0  0
  1 13  1  0  0  0  0
  2  1  1  0  0  0  0
  4  7  1  0  0  0  0
  4  1  1  0  0  0  0
  5  4  1  0  0  0  0
  6  4  1  0  0  0  0
  7 11  1  0  0  0  0
  8  7  1  0  0  0  0
  9  8  1  0  0  0  0
  9 10  1  0  0  0  0
 10 11  1  0  0  0  0
 11 12  1  0  0  0  0
 13 18  1  0  0  0  0
 14 20  1  0  0  0  0
 15 21  1  0  0  0  0
 15 14  2  0  0  0  0
 16 15  1  0  0  0  0
 17 16  2  0  0  0  0
 17 18  1  0  0  0  0
 18 19  2  0  0  0  0
 19 14  1  0  0  0  0
 22 16  1  0  0  0  0
M  END
>  <minimizedAffinity>
-3.92473459

>  <minimizedRMSD>
0.799763739

$$$$
