
 OpenBabel03272510323D

 25 27  0  0  0  0  0  0  0  0999 V2000
   35.7180   30.0440   47.9850 C   0  0  0  0  0  0  0  0  0  0  0  0
   34.9620   30.1660   46.8450 C   0  0  0  0  0  0  0  0  0  0  0  0
   33.8850   29.3230   46.6040 C   0  0  0  0  0  0  0  0  0  0  0  0
   33.5980   28.3530   47.5580 C   0  0  0  0  0  0  0  0  0  0  0  0
   34.3410   28.2110   48.7080 C   0  0  0  0  0  0  0  0  0  0  0  0
   35.4050   29.0670   48.9140 C   0  0  0  0  0  0  0  0  0  0  0  0
   35.1570   30.9090   46.0810 H   0  0  0  0  0  0  0  0  0  0  0  0
   33.3010   29.4210   45.7170 H   0  0  0  0  0  0  0  0  0  0  0  0
   32.7570   27.6760   47.3960 H   0  0  0  0  0  0  0  0  0  0  0  0
   34.1310   27.4590   49.4630 H   0  0  0  0  0  0  0  0  0  0  0  0
   37.6660   32.8110   49.3000 C   0  0  0  0  0  0  0  0  0  0  0  0
   38.8460   32.8090   48.5570 C   0  0  0  0  0  0  0  0  0  0  0  0
   38.9550   31.8120   47.5740 C   0  0  0  0  0  0  0  0  0  0  0  0
   37.9480   30.9180   47.3880 N   0  0  0  0  0  0  0  0  0  0  0  0
   36.8220   30.9740   48.1460 C   0  0  0  0  0  0  0  0  0  0  0  0
   36.6800   31.9280   49.1110 N   0  0  0  0  0  0  0  0  0  0  0  0
   37.5010   33.5490   50.0800 H   0  0  0  0  0  0  0  0  0  0  0  0
   39.6050   33.5350   48.7450 H   0  0  0  0  0  0  0  0  0  0  0  0
   39.8600   31.7800   46.9760 H   0  0  0  0  0  0  0  0  0  0  0  0
   36.2260   28.9910   50.0750 N   0  0  0  0  0  0  0  0  0  0  0  0
   35.8110   29.1910   51.4670 C   0  0  0  0  0  2  0  0  0  0  0  0
   36.8230   30.2650   51.8810 C   0  0  0  0  0  2  0  0  0  0  0  0
   38.1080   29.5830   51.4180 C   0  0  0  0  0  2  0  0  0  0  0  0
   37.6260   28.7210   50.2920 C   0  0  0  0  0  3  0  0  0  0  0  0
   37.6960   27.6640   50.6140 H   0  0  0  0  0  0  0  0  0  0  0  0
  1 15  1  0  0  0  0
  1  6  1  0  0  0  0
  2  1  2  0  0  0  0
  3  2  1  0  0  0  0
  3  4  2  0  0  0  0
  4  5  1  0  0  0  0
  5  6  2  0  0  0  0
  5 10  1  0  0  0  0
  6 20  1  0  0  0  0
  7  2  1  0  0  0  0
  8  3  1  0  0  0  0
  9  4  1  0  0  0  0
 11 17  1  0  0  0  0
 12 18  1  0  0  0  0
 12 11  2  0  0  0  0
 13 12  1  0  0  0  0
 14 13  2  0  0  0  0
 14 15  1  0  0  0  0
 15 16  2  0  0  0  0
 16 11  1  0  0  0  0
 19 13  1  0  0  0  0
 20 24  1  0  0  0  0
 20 21  1  0  0  0  0
 21 22  1  0  0  0  0
 23 22  1  0  0  0  0
 24 25  1  0  0  0  0
 24 23  1  0  0  0  0
M  END
>  <minimizedAffinity>
-4.42352867

>  <minimizedRMSD>
0.957045496

$$$$
