
 OpenBabel03272510323D

 25 27  0  0  0  0  0  0  0  0999 V2000
   37.0510   30.7230   45.7310 C   0  0  0  0  0  0  0  0  0  0  0  0
   36.3690   30.2960   44.6170 C   0  0  0  0  0  0  0  0  0  0  0  0
   35.1090   29.7240   44.7230 C   0  0  0  0  0  0  0  0  0  0  0  0
   34.5590   29.6000   45.9950 C   0  0  0  0  0  0  0  0  0  0  0  0
   35.2230   30.0210   47.1250 C   0  0  0  0  0  0  0  0  0  0  0  0
   36.4760   30.5840   46.9820 C   0  0  0  0  0  0  0  0  0  0  0  0
   36.7660   30.3770   43.6120 H   0  0  0  0  0  0  0  0  0  0  0  0
   34.5830   29.3940   43.8560 H   0  0  0  0  0  0  0  0  0  0  0  0
   33.5690   29.1550   46.1090 H   0  0  0  0  0  0  0  0  0  0  0  0
   34.8100   29.9310   48.1250 H   0  0  0  0  0  0  0  0  0  0  0  0
   39.5700   33.1700   44.8100 C   0  0  0  0  0  0  0  0  0  0  0  0
   40.7900   32.5440   45.0570 C   0  0  0  0  0  0  0  0  0  0  0  0
   40.7230   31.2340   45.5580 C   0  0  0  0  0  0  0  0  0  0  0  0
   39.5170   30.6440   45.7770 N   0  0  0  0  0  0  0  0  0  0  0  0
   38.3630   31.3080   45.5160 C   0  0  0  0  0  0  0  0  0  0  0  0
   38.3890   32.5830   45.0280 N   0  0  0  0  0  0  0  0  0  0  0  0
   39.5330   34.1830   44.4210 H   0  0  0  0  0  0  0  0  0  0  0  0
   41.7080   33.0530   44.8670 H   0  0  0  0  0  0  0  0  0  0  0  0
   41.6540   30.7150   45.7620 H   0  0  0  0  0  0  0  0  0  0  0  0
   37.2320   31.0460   48.0960 N   0  0  0  0  0  0  0  0  0  0  0  0
   37.7770   30.2370   49.1910 C   0  0  0  0  0  2  0  0  0  0  0  0
   37.1850   30.9980   50.3840 C   0  0  0  0  0  2  0  0  0  0  0  0
   37.6200   32.4130   50.0130 C   0  0  0  0  0  2  0  0  0  0  0  0
   37.6960   32.3430   48.5190 C   0  0  0  0  0  3  0  0  0  0  0  0
   38.7620   32.4090   48.2260 H   0  0  0  0  0  0  0  0  0  0  0  0
  1  6  1  0  0  0  0
  2  3  1  0  0  0  0
  2  1  2  0  0  0  0
  3  4  2  0  0  0  0
  4  9  1  0  0  0  0
  4  5  1  0  0  0  0
  5 10  1  0  0  0  0
  6  5  2  0  0  0  0
  6 20  1  0  0  0  0
  7  2  1  0  0  0  0
  8  3  1  0  0  0  0
 11 16  2  0  0  0  0
 11 12  1  0  0  0  0
 12 13  2  0  0  0  0
 13 19  1  0  0  0  0
 13 14  1  0  0  0  0
 15  1  1  0  0  0  0
 15 14  2  0  0  0  0
 16 15  1  0  0  0  0
 17 11  1  0  0  0  0
 18 12  1  0  0  0  0
 20 24  1  0  0  0  0
 20 21  1  0  0  0  0
 21 22  1  0  0  0  0
 23 22  1  0  0  0  0
 24 23  1  0  0  0  0
 25 24  1  0  0  0  0
M  END
>  <minimizedAffinity>
-5.31457996

>  <minimizedRMSD>
3.37212563

$$$$
