
     RDKit          3D

 34 36  0  0  0  0  0  0  0  0999 V2000
   38.0950   33.1479   49.4848 C   0  0  0  0  0  0  0  0  0  0  0  0
   38.9397   33.0612   48.3724 C   0  0  0  0  0  0  0  0  0  0  0  0
   38.7087   32.0423   47.4471 C   0  0  0  0  0  0  0  0  0  0  0  0
   37.6800   31.1804   47.6612 N   0  0  0  0  0  0  0  0  0  0  0  0
   36.8800   31.2905   48.7479 C   0  0  0  0  0  0  0  0  0  0  0  0
   37.0785   32.2665   49.6614 N   0  0  0  0  0  0  0  0  0  0  0  0
   35.8160   30.3457   48.9065 N   0  0  0  0  0  0  0  0  0  0  0  0
   34.7290   30.1990   47.9370 C   0  0  0  0  0  0  0  0  0  0  0  0
   34.0237   28.9666   48.3590 C   0  0  0  0  0  0  0  0  0  0  0  0
   34.8748   28.3161   49.4320 C   0  0  0  0  0  0  0  0  0  0  0  0
   35.6757   29.4240   50.0296 C   0  0  0  0  0  0  0  0  0  0  0  0
   38.2534   33.9303   50.2180 H   0  0  0  0  0  0  0  0  0  0  0  0
   39.3351   31.9339   46.5700 H   0  0  0  0  0  0  0  0  0  0  0  0
   34.0106   31.0613   48.0005 H   0  0  0  0  0  0  0  0  0  0  0  0
   35.1688   30.1934   46.9298 H   0  0  0  0  0  0  0  0  0  0  0  0
   32.9755   29.1072   48.6900 H   0  0  0  0  0  0  0  0  0  0  0  0
   33.9927   28.2604   47.4995 H   0  0  0  0  0  0  0  0  0  0  0  0
   34.1715   27.9397   50.2267 H   0  0  0  0  0  0  0  0  0  0  0  0
   35.4540   27.4515   49.0802 H   0  0  0  0  0  0  0  0  0  0  0  0
   36.6942   29.0118   50.2303 H   0  0  0  0  0  0  0  0  0  0  0  0
   35.2631   29.8889   50.9281 H   0  0  0  0  0  0  0  0  0  0  0  0
   39.9888   33.9807   48.2019 N   0  0  0  0  0  0  0  0  0  0  0  0
   41.3878   33.6328   48.1228 C   0  0  0  0  0  0  0  0  0  0  0  0
   42.0346   34.8215   47.4595 C   0  0  0  0  0  0  0  0  0  0  0  0
   41.2084   35.9771   47.9743 C   0  0  0  0  0  0  0  0  0  0  0  0
   39.8276   35.4135   48.0799 C   0  0  1  0  0  0  0  0  0  0  0  0
   39.2779   35.5840   47.1190 H   0  0  0  0  0  0  0  0  0  0  0  0
   41.8598   33.5135   49.1325 H   0  0  0  0  0  0  0  0  0  0  0  0
   41.5679   32.6930   47.5627 H   0  0  0  0  0  0  0  0  0  0  0  0
   41.8940   34.7395   46.3488 H   0  0  0  0  0  0  0  0  0  0  0  0
   43.1046   34.9290   47.7439 H   0  0  0  0  0  0  0  0  0  0  0  0
   41.2361   36.8437   47.2843 H   0  0  0  0  0  0  0  0  0  0  0  0
   41.5775   36.3313   48.9552 H   0  0  0  0  0  0  0  0  0  0  0  0
   39.2552   35.8335   48.9343 H   0  0  0  0  0  0  0  0  0  0  0  0
  1  6  2  0
  2  1  1  0
  3  4  1  0
  3  2  2  0
  4  5  2  0
  5  7  1  0
  5  6  1  0
  7 11  1  0
  8  9  1  0
  8  7  1  0
  9 10  1  0
 10 11  1  0
  1 12  1  0
  3 13  1  0
  8 14  1  0
  8 15  1  0
  9 16  1  0
  9 17  1  0
 10 18  1  0
 10 19  1  0
 11 20  1  0
 11 21  1  0
 22 23  1  0
 23 24  1  0
 24 25  1  0
 25 26  1  0
 26 27  1  6
 26 22  1  0
 23 28  1  0
 23 29  1  0
 24 30  1  0
 24 31  1  0
 25 32  1  0
 25 33  1  0
 26 34  1  0
  2 22  1  0
M  ISO  8  12  14  13  14  14  13  15  13  16  13  17  13  18  13  19  13
M  ISO  3  20  13  21  13  27  13
M  END
>  <DihAtoms>  (1) 
0,1,21,22

>  <DihDeg>  (1) 
-0.005221018926868097

$$$$
