
 OpenBabel03272508163D

 28 30  0  0  1  0  0  0  0  0999 V2000
   35.9750   30.2630   45.7390 Cl  0  0  0  0  0  0  0  0  0  0  0  0
   36.9080   30.7540   47.1080 C   0  0  0  0  0  0  0  0  0  0  0  0
   38.0860   31.3460   46.7640 C   0  0  0  0  0  0  0  0  0  0  0  0
   38.9320   31.7880   47.8140 C   0  0  0  0  0  0  0  0  0  0  0  0
   38.5940   31.6350   49.1200 C   0  0  0  0  0  0  0  0  0  0  0  0
   37.3940   31.0310   49.4340 C   0  0  0  0  0  0  0  0  0  0  0  0
   36.9200   30.8120   51.0900 Cl  0  0  0  0  0  0  0  0  0  0  0  0
   36.5810   30.6060   48.4320 C   0  0  0  0  0  0  0  0  0  0  0  0
   39.8850   32.2680   47.6380 H   0  0  0  0  0  0  0  0  0  0  0  0
   39.2250   31.9650   49.9380 H   0  0  0  0  0  0  0  0  0  0  0  0
   39.7340   30.8180   45.0170 C   0  0  0  0  0  0  0  0  0  0  0  0
   38.6610   31.6190   45.4330 C   0  0  0  0  0  0  0  0  0  0  0  0
   38.1850   32.6290   44.5890 C   0  0  0  0  0  0  0  0  0  0  0  0
   38.8140   32.7670   43.3870 N   0  0  0  0  0  0  0  0  0  0  0  0
   39.8340   31.9940   43.0090 C   0  0  0  0  0  0  0  0  0  0  0  0
   40.3100   31.0000   43.8310 N   0  0  0  0  0  0  0  0  0  0  0  0
   40.0890   30.0430   45.6810 H   0  0  0  0  0  0  0  0  0  0  0  0
   37.3570   33.2330   44.9320 H   0  0  0  0  0  0  0  0  0  0  0  0
   40.2130   32.2450   42.0220 H   0  0  0  0  0  0  0  0  0  0  0  0
   35.2810   29.9520   48.6790 C   0  0  0  0  0  0  0  0  0  0  0  0
   34.2920   30.3620   49.2840 O   0  0  0  0  0  0  0  0  0  0  0  0
   34.9030   28.6650   48.2460 O   0  0  0  0  0  0  0  0  0  0  0  0
   32.6660   28.7590   46.8610 H   0  0  0  0  0  0  0  0  0  0  0  0
   32.5410   28.6670   47.8930 N   0  0  0  0  0  0  0  0  0  0  0  0
   31.5520   27.6070   48.1150 C   0  0  0  0  0  0  0  0  0  0  0  0
   32.2660   26.3270   47.7240 C   0  0  0  0  0  0  0  0  0  0  0  0
   33.7080   26.6890   47.8870 C   0  0  0  0  0  0  0  0  0  0  0  0
   33.6960   28.0650   48.5250 C   0  0  1  0  0  0  0  0  0  0  0  0
  1  2  1  0  0  0  0
  2  8  1  0  0  0  0
  3  2  2  0  0  0  0
  3  4  1  0  0  0  0
  4  5  2  0  0  0  0
  5  6  1  0  0  0  0
  5 10  1  0  0  0  0
  6  7  1  0  0  0  0
  8 20  1  0  0  0  0
  8  6  2  0  0  0  0
  9  4  1  0  0  0  0
 11 12  1  0  0  0  0
 11 17  1  0  0  0  0
 12  3  1  0  0  0  0
 13 18  1  0  0  0  0
 13 12  2  0  0  0  0
 14 13  1  0  0  0  0
 15 14  2  0  0  0  0
 15 16  1  0  0  0  0
 16 11  2  0  0  0  0
 19 15  1  0  0  0  0
 20 21  2  0  0  0  0
 22 20  1  0  0  0  0
 23 24  1  0  0  0  0
 24 25  1  0  0  0  0
 24 28  1  0  0  0  0
 26 27  1  0  0  0  0
 26 25  1  0  0  0  0
 27 28  1  0  0  0  0
 28 22  1  6  0  0  0
M  END
>  <minimizedAffinity>
-6.01184607

>  <minimizedRMSD>
7.47447777

$$$$
