
 OpenBabel03272505223D

 25 27  0  0  0  0  0  0  0  0999 V2000
   38.0690   23.2160   33.6470 Br  0  0  0  0  0  0  0  0  0  0  0  0
   36.9580   24.3320   32.5720 C   0  0  0  0  0  0  0  0  0  0  0  0
   36.0750   23.7810   31.6660 C   0  0  0  0  0  0  0  0  0  0  0  0
   35.3030   24.6330   30.9200 C   0  0  0  0  0  0  0  0  0  0  0  0
   35.4130   26.0030   31.0780 C   0  0  0  0  0  0  0  0  0  0  0  0
   36.2980   26.5670   31.9860 C   0  0  0  0  0  0  0  0  0  0  0  0
   37.0730   25.7000   32.7330 C   0  0  0  0  0  0  0  0  0  0  0  0
   34.6270   24.1630   30.2250 H   0  0  0  0  0  0  0  0  0  0  0  0
   34.7730   26.6180   30.4560 H   0  0  0  0  0  0  0  0  0  0  0  0
   36.3780   27.6440   32.1030 H   0  0  0  0  0  0  0  0  0  0  0  0
   35.0840   20.1560   32.1890 C   0  0  0  0  0  0  0  0  0  0  0  0
   35.1180   21.5520   32.2760 C   0  0  0  0  0  0  0  0  0  0  0  0
   36.0370   22.3230   31.5770 C   0  0  0  0  0  0  0  0  0  0  0  0
   36.9000   21.6300   30.8040 N   0  0  0  0  0  0  0  0  0  0  0  0
   36.8810   20.2900   30.7090 C   0  0  0  0  0  0  0  0  0  0  0  0
   35.9800   19.5620   31.3970 N   0  0  0  0  0  0  0  0  0  0  0  0
   34.3120   19.6880   32.7920 H   0  0  0  0  0  0  0  0  0  0  0  0
   34.4210   22.0850   32.8990 H   0  0  0  0  0  0  0  0  0  0  0  0
   37.5580   19.7060   30.0990 H   0  0  0  0  0  0  0  0  0  0  0  0
   37.9980   26.2340   33.6810 N   0  0  0  0  0  0  0  0  0  0  0  0
   39.3860   26.6430   33.5800 C   0  0  0  0  0  2  0  0  0  0  0  0
   39.7960   26.7340   35.0330 C   0  0  0  0  0  2  0  0  0  0  0  0
   38.5560   27.3920   35.6220 C   0  0  0  0  0  2  0  0  0  0  0  0
   37.5060   26.4340   35.0490 C   0  0  0  0  0  3  0  0  0  0  0  0
   36.4920   26.8210   35.0970 H   0  0  0  0  0  0  0  0  0  0  0  0
  2  7  1  0  0  0  0
  2  1  1  0  0  0  0
  3  2  2  0  0  0  0
  4  5  2  0  0  0  0
  4  3  1  0  0  0  0
  5  6  1  0  0  0  0
  6 10  1  0  0  0  0
  6  7  2  0  0  0  0
  7 20  1  0  0  0  0
  8  4  1  0  0  0  0
  9  5  1  0  0  0  0
 11 12  1  0  0  0  0
 11 17  1  0  0  0  0
 12 18  1  0  0  0  0
 13  3  1  0  0  0  0
 13 12  2  0  0  0  0
 14 13  1  0  0  0  0
 15 14  2  0  0  0  0
 15 16  1  0  0  0  0
 16 11  2  0  0  0  0
 19 15  1  0  0  0  0
 20 24  1  0  0  0  0
 21 20  1  0  0  0  0
 21 22  1  0  0  0  0
 22 23  1  0  0  0  0
 24 25  1  0  0  0  0
 24 23  1  0  0  0  0
M  END
>  <minimizedAffinity>
-5.24902439

$$$$

 OpenBabel03272505223D

 25 27  0  0  0  0  0  0  0  0999 V2000
   38.2210   22.9970   33.4590 Br  0  0  0  0  0  0  0  0  0  0  0  0
   37.0190   24.0850   32.4570 C   0  0  0  0  0  0  0  0  0  0  0  0
   37.0810   25.4610   32.5390 C   0  0  0  0  0  0  0  0  0  0  0  0
   36.1900   26.1910   31.7950 C   0  0  0  0  0  0  0  0  0  0  0  0
   35.2610   25.5580   30.9900 C   0  0  0  0  0  0  0  0  0  0  0  0
   35.1900   24.1750   30.9010 C   0  0  0  0  0  0  0  0  0  0  0  0
   36.0920   23.4470   31.6530 C   0  0  0  0  0  0  0  0  0  0  0  0
   36.2720   27.2610   31.8870 H   0  0  0  0  0  0  0  0  0  0  0  0
   34.5870   26.1960   30.4290 H   0  0  0  0  0  0  0  0  0  0  0  0
   34.4570   23.6860   30.2650 H   0  0  0  0  0  0  0  0  0  0  0  0
   40.3410   26.9220   33.8180 C   0  0  0  0  0  0  0  0  0  0  0  0
   39.3680   26.3780   32.9730 C   0  0  0  0  0  0  0  0  0  0  0  0
   38.0990   26.0290   33.4180 C   0  0  0  0  0  0  0  0  0  0  0  0
   37.8690   26.2530   34.7300 N   0  0  0  0  0  0  0  0  0  0  0  0
   38.7920   26.7750   35.5550 C   0  0  0  0  0  0  0  0  0  0  0  0
   40.0170   27.1050   35.0990 N   0  0  0  0  0  0  0  0  0  0  0  0
   41.2850   27.1440   33.3290 H   0  0  0  0  0  0  0  0  0  0  0  0
   39.5720   26.2080   31.9290 H   0  0  0  0  0  0  0  0  0  0  0  0
   38.6390   26.9650   36.6090 H   0  0  0  0  0  0  0  0  0  0  0  0
   36.0570   22.0210   31.5940 N   0  0  0  0  0  0  0  0  0  0  0  0
   36.8510   21.0460   30.8700 C   0  0  0  0  0  2  0  0  0  0  0  0
   36.0100   19.7950   30.9980 C   0  0  0  0  0  2  0  0  0  0  0  0
   35.5730   19.9120   32.4510 C   0  0  0  0  0  2  0  0  0  0  0  0
   35.0370   21.3460   32.4050 C   0  0  0  0  0  3  0  0  0  0  0  0
   34.8970   21.7900   33.3870 H   0  0  0  0  0  0  0  0  0  0  0  0
  2  3  1  0  0  0  0
  2  1  1  0  0  0  0
  3 13  1  0  0  0  0
  4  8  1  0  0  0  0
  4  3  2  0  0  0  0
  5  4  1  0  0  0  0
  6  5  2  0  0  0  0
  6  7  1  0  0  0  0
  7  2  2  0  0  0  0
  9  5  1  0  0  0  0
 10  6  1  0  0  0  0
 11 16  1  0  0  0  0
 12 13  1  0  0  0  0
 12 11  2  0  0  0  0
 13 14  2  0  0  0  0
 14 15  1  0  0  0  0
 15 19  1  0  0  0  0
 16 15  2  0  0  0  0
 17 11  1  0  0  0  0
 18 12  1  0  0  0  0
 20  7  1  0  0  0  0
 20 24  1  0  0  0  0
 21 22  1  0  0  0  0
 21 20  1  0  0  0  0
 22 23  1  0  0  0  0
 24 23  1  0  0  0  0
 24 25  1  0  0  0  0
M  END
>  <minimizedAffinity>
-4.64223671

$$$$

 OpenBabel03272505223D

 25 27  0  0  0  0  0  0  0  0999 V2000
   38.7690   26.1350   35.0330 Br  0  0  0  0  0  0  0  0  0  0  0  0
   38.0820   24.6450   34.0620 C   0  0  0  0  0  0  0  0  0  0  0  0
   37.4970   24.8210   32.8250 C   0  0  0  0  0  0  0  0  0  0  0  0
   37.0200   23.7130   32.1750 C   0  0  0  0  0  0  0  0  0  0  0  0
   37.1270   22.4590   32.7510 C   0  0  0  0  0  0  0  0  0  0  0  0
   37.7130   22.2710   33.9950 C   0  0  0  0  0  0  0  0  0  0  0  0
   38.1910   23.3940   34.6420 C   0  0  0  0  0  0  0  0  0  0  0  0
   36.5710   23.8930   31.2120 H   0  0  0  0  0  0  0  0  0  0  0  0
   36.7290   21.6260   32.1820 H   0  0  0  0  0  0  0  0  0  0  0  0
   37.7920   21.2830   34.4380 H   0  0  0  0  0  0  0  0  0  0  0  0
   38.3140   28.0060   30.9330 C   0  0  0  0  0  0  0  0  0  0  0  0
   38.3770   26.6990   31.4260 C   0  0  0  0  0  0  0  0  0  0  0  0
   37.4340   26.1850   32.3080 C   0  0  0  0  0  0  0  0  0  0  0  0
   36.4480   27.0400   32.6570 N   0  0  0  0  0  0  0  0  0  0  0  0
   36.3730   28.2970   32.1910 C   0  0  0  0  0  0  0  0  0  0  0  0
   37.3000   28.7740   31.3370 N   0  0  0  0  0  0  0  0  0  0  0  0
   39.1200   28.2670   30.2540 H   0  0  0  0  0  0  0  0  0  0  0  0
   39.1720   26.0340   31.1350 H   0  0  0  0  0  0  0  0  0  0  0  0
   35.5960   29.0050   32.4520 H   0  0  0  0  0  0  0  0  0  0  0  0
   38.8020   23.2510   35.9250 N   0  0  0  0  0  0  0  0  0  0  0  0
   40.1870   23.1830   36.3540 C   0  0  0  0  0  2  0  0  0  0  0  0
   40.0550   22.6550   37.7650 C   0  0  0  0  0  2  0  0  0  0  0  0
   38.8530   23.4580   38.2430 C   0  0  0  0  0  2  0  0  0  0  0  0
   37.9050   23.1460   37.0810 C   0  0  0  0  0  3  0  0  0  0  0  0
   37.0460   23.8100   37.0300 H   0  0  0  0  0  0  0  0  0  0  0  0
  2  7  1  0  0  0  0
  2  1  1  0  0  0  0
  3  2  2  0  0  0  0
  4  5  2  0  0  0  0
  4  3  1  0  0  0  0
  5  6  1  0  0  0  0
  6 10  1  0  0  0  0
  6  7  2  0  0  0  0
  7 20  1  0  0  0  0
  8  4  1  0  0  0  0
  9  5  1  0  0  0  0
 11 16  2  0  0  0  0
 11 12  1  0  0  0  0
 12 13  2  0  0  0  0
 13 14  1  0  0  0  0
 13  3  1  0  0  0  0
 15 19  1  0  0  0  0
 15 14  2  0  0  0  0
 16 15  1  0  0  0  0
 17 11  1  0  0  0  0
 18 12  1  0  0  0  0
 20 21  1  0  0  0  0
 20 24  1  0  0  0  0
 21 22  1  0  0  0  0
 22 23  1  0  0  0  0
 24 23  1  0  0  0  0
 25 24  1  0  0  0  0
M  END
>  <minimizedAffinity>
-4.60137177

$$$$

 OpenBabel03272505223D

 25 27  0  0  0  0  0  0  0  0999 V2000
   39.5900   25.6890   31.5490 Br  0  0  0  0  0  0  0  0  0  0  0  0
   38.9380   26.3160   33.2270 C   0  0  0  0  0  0  0  0  0  0  0  0
   39.8100   26.7710   34.1950 C   0  0  0  0  0  0  0  0  0  0  0  0
   39.2820   27.2090   35.3820 C   0  0  0  0  0  0  0  0  0  0  0  0
   37.9150   27.1910   35.5930 C   0  0  0  0  0  0  0  0  0  0  0  0
   37.0300   26.7350   34.6270 C   0  0  0  0  0  0  0  0  0  0  0  0
   37.5710   26.2950   33.4340 C   0  0  0  0  0  0  0  0  0  0  0  0
   39.9960   27.5560   36.1100 H   0  0  0  0  0  0  0  0  0  0  0  0
   37.5660   27.5510   36.5550 H   0  0  0  0  0  0  0  0  0  0  0  0
   35.9580   26.7240   34.8020 H   0  0  0  0  0  0  0  0  0  0  0  0
   43.4750   25.7960   34.0920 C   0  0  0  0  0  0  0  0  0  0  0  0
   42.1120   25.8150   34.4050 C   0  0  0  0  0  0  0  0  0  0  0  0
   41.2340   26.7490   33.8710 C   0  0  0  0  0  0  0  0  0  0  0  0
   41.7900   27.6420   33.0240 N   0  0  0  0  0  0  0  0  0  0  0  0
   43.0970   27.6370   32.7130 C   0  0  0  0  0  0  0  0  0  0  0  0
   43.9290   26.7210   33.2440 N   0  0  0  0  0  0  0  0  0  0  0  0
   44.0370   25.0090   34.5860 H   0  0  0  0  0  0  0  0  0  0  0  0
   41.6890   25.0930   35.0830 H   0  0  0  0  0  0  0  0  0  0  0  0
   43.5720   28.3390   32.0390 H   0  0  0  0  0  0  0  0  0  0  0  0
   36.6990   25.8170   32.4090 N   0  0  0  0  0  0  0  0  0  0  0  0
   35.9020   26.4890   31.4000 C   0  0  0  0  0  2  0  0  0  0  0  0
   34.9720   25.3870   30.9440 C   0  0  0  0  0  2  0  0  0  0  0  0
   35.9450   24.2170   30.8950 C   0  0  0  0  0  2  0  0  0  0  0  0
   36.5350   24.3620   32.3020 C   0  0  0  0  0  3  0  0  0  0  0  0
   37.4580   23.8070   32.4460 H   0  0  0  0  0  0  0  0  0  0  0  0
  1  2  1  0  0  0  0
  2  7  2  0  0  0  0
  2  3  1  0  0  0  0
  3  4  2  0  0  0  0
  4  5  1  0  0  0  0
  4  8  1  0  0  0  0
  5  9  1  0  0  0  0
  6 10  1  0  0  0  0
  6  5  2  0  0  0  0
  7  6  1  0  0  0  0
 11 12  1  0  0  0  0
 11 17  1  0  0  0  0
 12 18  1  0  0  0  0
 13  3  1  0  0  0  0
 13 12  2  0  0  0  0
 14 13  1  0  0  0  0
 15 14  2  0  0  0  0
 15 16  1  0  0  0  0
 16 11  2  0  0  0  0
 19 15  1  0  0  0  0
 20  7  1  0  0  0  0
 21 20  1  0  0  0  0
 22 21  1  0  0  0  0
 23 22  1  0  0  0  0
 23 24  1  0  0  0  0
 24 20  1  0  0  0  0
 24 25  1  0  0  0  0
M  END
>  <minimizedAffinity>
-4.58270741

$$$$

 OpenBabel03272505223D

 25 27  0  0  0  0  0  0  0  0999 V2000
   38.6060   25.9450   34.7400 Br  0  0  0  0  0  0  0  0  0  0  0  0
   38.0290   24.3640   33.8430 C   0  0  0  0  0  0  0  0  0  0  0  0
   37.9930   23.1540   34.5040 C   0  0  0  0  0  0  0  0  0  0  0  0
   37.5700   22.0520   33.8070 C   0  0  0  0  0  0  0  0  0  0  0  0
   37.1940   22.1610   32.4800 C   0  0  0  0  0  0  0  0  0  0  0  0
   37.2270   23.3730   31.8060 C   0  0  0  0  0  0  0  0  0  0  0  0
   37.6550   24.4780   32.5170 C   0  0  0  0  0  0  0  0  0  0  0  0
   37.5560   21.1270   34.3590 H   0  0  0  0  0  0  0  0  0  0  0  0
   36.8700   21.2500   31.9890 H   0  0  0  0  0  0  0  0  0  0  0  0
   36.9300   23.4490   30.7640 H   0  0  0  0  0  0  0  0  0  0  0  0
   40.0750   22.7460   37.6500 C   0  0  0  0  0  0  0  0  0  0  0  0
   39.6780   22.7500   36.3080 C   0  0  0  0  0  0  0  0  0  0  0  0
   38.4110   23.1480   35.9040 C   0  0  0  0  0  0  0  0  0  0  0  0
   37.5830   23.5320   36.9000 N   0  0  0  0  0  0  0  0  0  0  0  0
   37.9490   23.5340   38.1920 C   0  0  0  0  0  0  0  0  0  0  0  0
   39.1840   23.1440   38.5610 N   0  0  0  0  0  0  0  0  0  0  0  0
   41.0940   22.4100   37.8140 H   0  0  0  0  0  0  0  0  0  0  0  0
   40.3540   22.4400   35.5300 H   0  0  0  0  0  0  0  0  0  0  0  0
   37.3100   23.8360   39.0130 H   0  0  0  0  0  0  0  0  0  0  0  0
   37.7060   25.7480   31.8650 N   0  0  0  0  0  0  0  0  0  0  0  0
   38.7650   26.4600   31.1750 C   0  0  0  0  0  2  0  0  0  0  0  0
   38.2040   27.8620   31.0930 C   0  0  0  0  0  2  0  0  0  0  0  0
   36.7560   27.5520   30.7430 C   0  0  0  0  0  2  0  0  0  0  0  0
   36.4710   26.5410   31.8570 C   0  0  0  0  0  3  0  0  0  0  0  0
   35.5740   25.9500   31.6900 H   0  0  0  0  0  0  0  0  0  0  0  0
  2  3  1  0  0  0  0
  2  1  1  0  0  0  0
  3 13  1  0  0  0  0
  4  8  1  0  0  0  0
  4  3  2  0  0  0  0
  5  4  1  0  0  0  0
  6  5  2  0  0  0  0
  6  7  1  0  0  0  0
  7  2  2  0  0  0  0
  9  5  1  0  0  0  0
 10  6  1  0  0  0  0
 11 17  1  0  0  0  0
 11 16  1  0  0  0  0
 12 11  2  0  0  0  0
 13 12  1  0  0  0  0
 13 14  2  0  0  0  0
 14 15  1  0  0  0  0
 15 16  2  0  0  0  0
 15 19  1  0  0  0  0
 18 12  1  0  0  0  0
 20  7  1  0  0  0  0
 21 20  1  0  0  0  0
 22 21  1  0  0  0  0
 23 22  1  0  0  0  0
 23 24  1  0  0  0  0
 24 20  1  0  0  0  0
 25 24  1  0  0  0  0
M  END
>  <minimizedAffinity>
-4.56341219

$$$$

 OpenBabel03272505223D

 25 27  0  0  0  0  0  0  0  0999 V2000
   40.7660   24.6190   34.1000 Br  0  0  0  0  0  0  0  0  0  0  0  0
   39.9110   24.0730   35.7150 C   0  0  0  0  0  0  0  0  0  0  0  0
   38.6670   24.5640   36.0540 C   0  0  0  0  0  0  0  0  0  0  0  0
   38.1040   24.1360   37.2270 C   0  0  0  0  0  0  0  0  0  0  0  0
   38.7700   23.2370   38.0410 C   0  0  0  0  0  0  0  0  0  0  0  0
   40.0220   22.7380   37.7100 C   0  0  0  0  0  0  0  0  0  0  0  0
   40.5820   23.1750   36.5260 C   0  0  0  0  0  0  0  0  0  0  0  0
   37.1320   24.5430   37.4540 H   0  0  0  0  0  0  0  0  0  0  0  0
   38.2670   22.9410   38.9550 H   0  0  0  0  0  0  0  0  0  0  0  0
   40.5370   22.0330   38.3560 H   0  0  0  0  0  0  0  0  0  0  0  0
   37.0110   26.0420   32.9760 C   0  0  0  0  0  0  0  0  0  0  0  0
   37.6020   25.1360   33.8640 C   0  0  0  0  0  0  0  0  0  0  0  0
   38.0500   25.5070   35.1250 C   0  0  0  0  0  0  0  0  0  0  0  0
   37.8760   26.8100   35.4370 N   0  0  0  0  0  0  0  0  0  0  0  0
   37.3100   27.6920   34.5970 C   0  0  0  0  0  0  0  0  0  0  0  0
   36.8830   27.3090   33.3780 N   0  0  0  0  0  0  0  0  0  0  0  0
   36.7110   25.6080   32.0280 H   0  0  0  0  0  0  0  0  0  0  0  0
   37.7320   24.1020   33.5950 H   0  0  0  0  0  0  0  0  0  0  0  0
   37.1570   28.7410   34.8170 H   0  0  0  0  0  0  0  0  0  0  0  0
   41.8690   22.6880   36.1430 N   0  0  0  0  0  0  0  0  0  0  0  0
   42.2960   21.5450   35.3570 C   0  0  0  0  0  2  0  0  0  0  0  0
   43.7680   21.4610   35.6960 C   0  0  0  0  0  2  0  0  0  0  0  0
   44.1350   22.9380   35.6730 C   0  0  0  0  0  2  0  0  0  0  0  0
   43.0330   23.4530   36.6040 C   0  0  0  0  0  3  0  0  0  0  0  0
   42.8940   24.5300   36.5600 H   0  0  0  0  0  0  0  0  0  0  0  0
  1  2  1  0  0  0  0
  2  3  2  0  0  0  0
  2  7  1  0  0  0  0
  3  4  1  0  0  0  0
  4  8  1  0  0  0  0
  4  5  2  0  0  0  0
  5  9  1  0  0  0  0
  6  5  1  0  0  0  0
  6 10  1  0  0  0  0
  7  6  2  0  0  0  0
 11 16  2  0  0  0  0
 11 12  1  0  0  0  0
 12 13  2  0  0  0  0
 13 14  1  0  0  0  0
 13  3  1  0  0  0  0
 15 19  1  0  0  0  0
 15 14  2  0  0  0  0
 16 15  1  0  0  0  0
 17 11  1  0  0  0  0
 18 12  1  0  0  0  0
 20  7  1  0  0  0  0
 20 24  1  0  0  0  0
 21 22  1  0  0  0  0
 21 20  1  0  0  0  0
 23 22  1  0  0  0  0
 23 24  1  0  0  0  0
 25 24  1  0  0  0  0
M  END
>  <minimizedAffinity>
-4.51466417

$$$$

 OpenBabel03272505223D

 25 27  0  0  0  0  0  0  0  0999 V2000
   38.3590   26.8630   33.3160 Br  0  0  0  0  0  0  0  0  0  0  0  0
   37.2370   25.5800   32.4610 C   0  0  0  0  0  0  0  0  0  0  0  0
   36.2420   25.9820   31.5940 C   0  0  0  0  0  0  0  0  0  0  0  0
   35.4670   25.0140   31.0100 C   0  0  0  0  0  0  0  0  0  0  0  0
   35.6840   23.6760   31.2880 C   0  0  0  0  0  0  0  0  0  0  0  0
   36.6810   23.2610   32.1590 C   0  0  0  0  0  0  0  0  0  0  0  0
   37.4570   24.2440   32.7430 C   0  0  0  0  0  0  0  0  0  0  0  0
   34.7020   25.3700   30.3390 H   0  0  0  0  0  0  0  0  0  0  0  0
   35.0340   22.9640   30.7920 H   0  0  0  0  0  0  0  0  0  0  0  0
   36.8440   22.2090   32.3720 H   0  0  0  0  0  0  0  0  0  0  0  0
   36.6070   29.4620   30.1270 C   0  0  0  0  0  0  0  0  0  0  0  0
   36.7480   28.0870   30.3400 C   0  0  0  0  0  0  0  0  0  0  0  0
   36.0970   27.4180   31.3680 C   0  0  0  0  0  0  0  0  0  0  0  0
   35.3160   28.1910   32.1530 N   0  0  0  0  0  0  0  0  0  0  0  0
   35.1690   29.5120   31.9620 C   0  0  0  0  0  0  0  0  0  0  0  0
   35.8110   30.1400   30.9570 N   0  0  0  0  0  0  0  0  0  0  0  0
   37.1760   29.8450   29.2860 H   0  0  0  0  0  0  0  0  0  0  0  0
   37.3760   27.4890   29.7020 H   0  0  0  0  0  0  0  0  0  0  0  0
   34.5510   30.1580   32.5730 H   0  0  0  0  0  0  0  0  0  0  0  0
   38.4970   23.8650   33.6460 N   0  0  0  0  0  0  0  0  0  0  0  0
   39.9110   23.5970   33.4640 C   0  0  0  0  0  2  0  0  0  0  0  0
   40.2700   22.8990   34.7570 C   0  0  0  0  0  2  0  0  0  0  0  0
   39.4890   23.7490   35.7490 C   0  0  0  0  0  2  0  0  0  0  0  0
   38.1230   23.6970   35.0560 C   0  0  0  0  0  3  0  0  0  0  0  0
   37.4240   24.4470   35.4150 H   0  0  0  0  0  0  0  0  0  0  0  0
  2  7  1  0  0  0  0
  2  1  1  0  0  0  0
  3  2  2  0  0  0  0
  4  5  2  0  0  0  0
  4  3  1  0  0  0  0
  5  6  1  0  0  0  0
  6 10  1  0  0  0  0
  6  7  2  0  0  0  0
  7 20  1  0  0  0  0
  8  4  1  0  0  0  0
  9  5  1  0  0  0  0
 11 12  2  0  0  0  0
 11 16  1  0  0  0  0
 12 13  1  0  0  0  0
 13  3  1  0  0  0  0
 13 14  2  0  0  0  0
 15 14  1  0  0  0  0
 15 19  1  0  0  0  0
 16 15  2  0  0  0  0
 17 11  1  0  0  0  0
 18 12  1  0  0  0  0
 20 24  1  0  0  0  0
 21 20  1  0  0  0  0
 21 22  1  0  0  0  0
 22 23  1  0  0  0  0
 24 25  1  0  0  0  0
 24 23  1  0  0  0  0
M  END
>  <minimizedAffinity>
-4.47760296

$$$$

 OpenBabel03272505223D

 25 27  0  0  0  0  0  0  0  0999 V2000
   38.1540   27.0870   33.4290 Br  0  0  0  0  0  0  0  0  0  0  0  0
   37.0390   25.8730   32.4710 C   0  0  0  0  0  0  0  0  0  0  0  0
   37.2120   24.5100   32.5980 C   0  0  0  0  0  0  0  0  0  0  0  0
   36.3810   23.6870   31.8840 C   0  0  0  0  0  0  0  0  0  0  0  0
   35.4010   24.2170   31.0640 C   0  0  0  0  0  0  0  0  0  0  0  0
   35.2190   25.5860   30.9280 C   0  0  0  0  0  0  0  0  0  0  0  0
   36.0620   26.4080   31.6520 C   0  0  0  0  0  0  0  0  0  0  0  0
   36.5480   22.6300   32.0110 H   0  0  0  0  0  0  0  0  0  0  0  0
   34.7780   23.5080   30.5280 H   0  0  0  0  0  0  0  0  0  0  0  0
   34.4470   25.9920   30.2820 H   0  0  0  0  0  0  0  0  0  0  0  0
   40.5740   23.3270   33.9010 C   0  0  0  0  0  0  0  0  0  0  0  0
   39.5580   23.7630   33.0440 C   0  0  0  0  0  0  0  0  0  0  0  0
   38.2750   24.0550   33.4900 C   0  0  0  0  0  0  0  0  0  0  0  0
   38.0760   23.8880   34.8150 N   0  0  0  0  0  0  0  0  0  0  0  0
   39.0400   23.4710   35.6520 C   0  0  0  0  0  0  0  0  0  0  0  0
   40.2770   23.1940   35.1960 N   0  0  0  0  0  0  0  0  0  0  0  0
   41.5230   23.1380   33.4100 H   0  0  0  0  0  0  0  0  0  0  0  0
   39.7380   23.8890   31.9900 H   0  0  0  0  0  0  0  0  0  0  0  0
   38.9120   23.3280   36.7180 H   0  0  0  0  0  0  0  0  0  0  0  0
   35.9130   27.8240   31.5450 N   0  0  0  0  0  0  0  0  0  0  0  0
   35.1930   28.8010   32.3400 C   0  0  0  0  0  2  0  0  0  0  0  0
   35.1800   30.0060   31.4260 C   0  0  0  0  0  2  0  0  0  0  0  0
   36.6000   29.9460   30.8820 C   0  0  0  0  0  2  0  0  0  0  0  0
   36.6020   28.4830   30.4290 C   0  0  0  0  0  3  0  0  0  0  0  0
   37.5950   28.0880   30.2360 H   0  0  0  0  0  0  0  0  0  0  0  0
  2  3  1  0  0  0  0
  2  1  1  0  0  0  0
  3 13  1  0  0  0  0
  4  8  1  0  0  0  0
  4  3  2  0  0  0  0
  5  4  1  0  0  0  0
  6  5  2  0  0  0  0
  6  7  1  0  0  0  0
  7  2  2  0  0  0  0
  9  5  1  0  0  0  0
 10  6  1  0  0  0  0
 11 16  1  0  0  0  0
 12 13  1  0  0  0  0
 12 11  2  0  0  0  0
 13 14  2  0  0  0  0
 14 15  1  0  0  0  0
 15 19  1  0  0  0  0
 16 15  2  0  0  0  0
 17 11  1  0  0  0  0
 18 12  1  0  0  0  0
 20  7  1  0  0  0  0
 20 21  1  0  0  0  0
 22 21  1  0  0  0  0
 23 22  1  0  0  0  0
 24 23  1  0  0  0  0
 24 20  1  0  0  0  0
 25 24  1  0  0  0  0
M  END
>  <minimizedAffinity>
-4.42848301

$$$$

 OpenBabel03272505223D

 25 27  0  0  0  0  0  0  0  0999 V2000
   36.5290   23.5900   31.3320 Br  0  0  0  0  0  0  0  0  0  0  0  0
   37.3990   23.4540   33.0230 C   0  0  0  0  0  0  0  0  0  0  0  0
   37.9550   24.5670   33.6200 C   0  0  0  0  0  0  0  0  0  0  0  0
   38.5670   24.4070   34.8350 C   0  0  0  0  0  0  0  0  0  0  0  0
   38.6220   23.1630   35.4380 C   0  0  0  0  0  0  0  0  0  0  0  0
   38.0670   22.0380   34.8460 C   0  0  0  0  0  0  0  0  0  0  0  0
   37.4510   22.2080   33.6210 C   0  0  0  0  0  0  0  0  0  0  0  0
   38.9880   25.3010   35.2670 H   0  0  0  0  0  0  0  0  0  0  0  0
   39.1210   23.1080   36.3990 H   0  0  0  0  0  0  0  0  0  0  0  0
   38.1140   21.0650   35.3270 H   0  0  0  0  0  0  0  0  0  0  0  0
   38.7120   27.5070   31.3430 C   0  0  0  0  0  0  0  0  0  0  0  0
   38.8230   26.2940   32.0310 C   0  0  0  0  0  0  0  0  0  0  0  0
   37.8420   25.8330   32.9000 C   0  0  0  0  0  0  0  0  0  0  0  0
   36.7690   26.6410   33.0360 N   0  0  0  0  0  0  0  0  0  0  0  0
   36.6460   27.8090   32.3830 C   0  0  0  0  0  0  0  0  0  0  0  0
   37.6110   28.2350   31.5440 N   0  0  0  0  0  0  0  0  0  0  0  0
   39.5560   27.7350   30.7000 H   0  0  0  0  0  0  0  0  0  0  0  0
   39.6870   25.6640   31.9080 H   0  0  0  0  0  0  0  0  0  0  0  0
   35.7990   28.4780   32.4700 H   0  0  0  0  0  0  0  0  0  0  0  0
   36.8650   21.0790   32.9730 N   0  0  0  0  0  0  0  0  0  0  0  0
   37.3250   20.2030   31.9120 C   0  0  0  0  0  2  0  0  0  0  0  0
   36.0490   19.5000   31.5050 C   0  0  0  0  0  2  0  0  0  0  0  0
   35.4330   19.2460   32.8740 C   0  0  0  0  0  2  0  0  0  0  0  0
   35.5300   20.6720   33.4270 C   0  0  0  0  0  3  0  0  0  0  0  0
   35.3980   20.7300   34.5040 H   0  0  0  0  0  0  0  0  0  0  0  0
  1  2  1  0  0  0  0
  2  3  2  0  0  0  0
  2  7  1  0  0  0  0
  3  4  1  0  0  0  0
  4  8  1  0  0  0  0
  4  5  2  0  0  0  0
  5  9  1  0  0  0  0
  6 10  1  0  0  0  0
  6  5  1  0  0  0  0
  7  6  2  0  0  0  0
 11 16  2  0  0  0  0
 11 12  1  0  0  0  0
 12 13  2  0  0  0  0
 13 14  1  0  0  0  0
 13  3  1  0  0  0  0
 15 19  1  0  0  0  0
 15 14  2  0  0  0  0
 16 15  1  0  0  0  0
 17 11  1  0  0  0  0
 18 12  1  0  0  0  0
 20 24  1  0  0  0  0
 20  7  1  0  0  0  0
 21 20  1  0  0  0  0
 22 21  1  0  0  0  0
 22 23  1  0  0  0  0
 23 24  1  0  0  0  0
 24 25  1  0  0  0  0
M  END
>  <minimizedAffinity>
-4.32994699

$$$$
