
 OpenBabel03272503353D

 16 17  0  0  0  0  0  0  0  0999 V2000
   37.2150   29.7270   51.2880 C   0  0  0  0  0  0  0  0  0  0  0  0
   37.8250   30.3030   50.1630 C   0  0  0  0  0  0  0  0  0  0  0  0
   37.0320   30.4830   49.0280 C   0  0  0  0  0  0  0  0  0  0  0  0
   35.7330   30.0960   49.0730 N   0  0  0  0  0  0  0  0  0  0  0  0
   35.1690   29.5420   50.1750 C   0  0  0  0  0  0  0  0  0  0  0  0
   35.9110   29.3610   51.2700 N   0  0  0  0  0  0  0  0  0  0  0  0
   38.8360   30.6150   50.0980 H   0  0  0  0  0  0  0  0  0  0  0  0
   34.1290   29.2440   50.1760 H   0  0  0  0  0  0  0  0  0  0  0  0
   37.5550   31.0540   47.8500 N   0  0  0  0  0  0  0  0  0  0  0  0
   38.6270   32.0320   47.7710 C   0  0  0  0  0  0  0  0  0  0  0  0
   39.4460   31.5370   46.5910 C   0  0  0  0  0  0  0  0  0  0  0  0
   38.5380   30.6020   45.8230 C   0  0  0  0  0  0  0  0  0  0  0  0
   37.1970   30.8400   46.4880 C   0  0  0  0  0  0  0  0  0  0  0  0
   36.5010   29.9950   46.3260 H   0  0  0  0  0  0  0  0  0  0  0  0
   38.1120   29.6060   52.3440 O   0  0  0  0  0  0  0  0  0  0  0  0
   38.2030   30.3000   53.0820 H   0  0  0  0  0  0  0  0  0  0  0  0
  1 15  1  0  0  0  0
  2  1  2  0  0  0  0
  3  4  2  0  0  0  0
  3  2  1  0  0  0  0
  4  5  1  0  0  0  0
  5  8  1  0  0  0  0
  5  6  2  0  0  0  0
  6  1  1  0  0  0  0
  7  2  1  0  0  0  0
  9  3  1  0  0  0  0
 10  9  1  0  0  0  0
 11 10  1  0  0  0  0
 12 13  1  0  0  0  0
 12 11  1  0  0  0  0
 13  9  1  0  0  0  0
 14 13  1  0  0  0  0
 15 16  1  0  0  0  0
M  END
>  <minimizedAffinity>
-4.96179771

>  <minimizedRMSD>
1.26192367

$$$$
