
 OpenBabel03272509483D

 22 23  0  0  0  0  0  0  0  0999 V2000
   38.0630   23.7710   33.6630 C   0  0  0  0  0  0  0  0  0  0  0  0
   37.2080   24.3500   34.0760 H   0  0  0  0  0  0  0  0  0  0  0  0
   37.7080   23.3870   32.6650 H   0  0  0  0  0  0  0  0  0  0  0  0
   39.2180   24.7270   33.5200 C   0  0  0  0  0  0  0  0  0  0  0  0
   40.0500   24.3690   34.1830 H   0  0  0  0  0  0  0  0  0  0  0  0
   39.5980   24.6530   32.4900 H   0  0  0  0  0  0  0  0  0  0  0  0
   38.9060   26.0620   33.9120 N   0  0  0  0  0  0  0  0  0  0  0  0
   39.6180   26.5830   35.0270 C   0  0  0  0  0  2  0  0  0  0  0  0
   38.6030   27.1730   35.9680 C   0  0  0  0  0  2  0  0  0  0  0  0
   37.4370   27.4970   35.0640 C   0  0  0  0  0  2  0  0  0  0  0  0
   37.5110   26.3470   34.0760 C   0  0  0  0  0  3  0  0  0  0  0  0
   37.0930   26.6250   33.0930 H   0  0  0  0  0  0  0  0  0  0  0  0
   38.4110   22.7180   34.5490 O   0  0  0  0  0  0  0  0  0  0  0  0
   37.8410   23.8860   37.9220 C   0  0  0  0  0  0  0  0  0  0  0  0
   39.0030   23.4260   38.5340 C   0  0  0  0  0  0  0  0  0  0  0  0
   39.9290   22.7370   37.7640 C   0  0  0  0  0  0  0  0  0  0  0  0
   39.6450   22.5480   36.4430 N   0  0  0  0  0  0  0  0  0  0  0  0
   38.5020   23.0130   35.8890 C   0  0  0  0  0  0  0  0  0  0  0  0
   37.5870   23.6890   36.6290 N   0  0  0  0  0  0  0  0  0  0  0  0
   37.1420   24.4190   38.5540 H   0  0  0  0  0  0  0  0  0  0  0  0
   39.1800   23.6070   39.6060 H   0  0  0  0  0  0  0  0  0  0  0  0
   40.8390   22.3710   38.2120 H   0  0  0  0  0  0  0  0  0  0  0  0
  1  2  1  0  0  0  0
  1 13  1  0  0  0  0
  3  1  1  0  0  0  0
  4  1  1  0  0  0  0
  4  7  1  0  0  0  0
  4  5  1  0  0  0  0
  6  4  1  0  0  0  0
  7 11  1  0  0  0  0
  7  8  1  0  0  0  0
  8  9  1  0  0  0  0
 10  9  1  0  0  0  0
 11 10  1  0  0  0  0
 12 11  1  0  0  0  0
 13 18  1  0  0  0  0
 14 15  1  0  0  0  0
 14 20  1  0  0  0  0
 15 21  1  0  0  0  0
 16 22  1  0  0  0  0
 16 15  2  0  0  0  0
 17 16  1  0  0  0  0
 18 17  2  0  0  0  0
 18 19  1  0  0  0  0
 19 14  2  0  0  0  0
M  END
>  <minimizedAffinity>
-3.89920235

$$$$

 OpenBabel03272509483D

 22 23  0  0  0  0  0  0  0  0999 V2000
   38.0910   26.0990   34.4710 C   0  0  0  0  0  0  0  0  0  0  0  0
   38.5180   25.2330   33.9200 H   0  0  0  0  0  0  0  0  0  0  0  0
   38.9610   26.7900   34.6590 H   0  0  0  0  0  0  0  0  0  0  0  0
   37.0560   26.7270   33.5760 C   0  0  0  0  0  0  0  0  0  0  0  0
   36.0610   26.6540   34.0910 H   0  0  0  0  0  0  0  0  0  0  0  0
   37.2780   27.8020   33.4970 H   0  0  0  0  0  0  0  0  0  0  0  0
   36.9270   26.0820   32.3110 N   0  0  0  0  0  0  0  0  0  0  0  0
   35.9140   26.5730   31.4430 C   0  0  0  0  0  2  0  0  0  0  0  0
   35.1240   25.3870   30.9630 C   0  0  0  0  0  2  0  0  0  0  0  0
   36.0980   24.2400   31.1010 C   0  0  0  0  0  2  0  0  0  0  0  0
   36.8510   24.6510   32.3530 C   0  0  0  0  0  3  0  0  0  0  0  0
   37.8770   24.2450   32.3650 H   0  0  0  0  0  0  0  0  0  0  0  0
   37.4880   25.6570   35.6780 O   0  0  0  0  0  0  0  0  0  0  0  0
   38.6890   23.4820   38.3020 C   0  0  0  0  0  0  0  0  0  0  0  0
   39.7140   22.8300   37.6230 C   0  0  0  0  0  0  0  0  0  0  0  0
   39.9460   23.1650   36.2960 C   0  0  0  0  0  0  0  0  0  0  0  0
   39.1530   24.1190   35.7310 N   0  0  0  0  0  0  0  0  0  0  0  0
   38.1680   24.7290   36.4300 C   0  0  0  0  0  0  0  0  0  0  0  0
   37.9280   24.4120   37.7280 N   0  0  0  0  0  0  0  0  0  0  0  0
   38.5380   23.1960   39.3350 H   0  0  0  0  0  0  0  0  0  0  0  0
   40.3240   22.0660   38.1290 H   0  0  0  0  0  0  0  0  0  0  0  0
   40.7350   22.6760   35.7450 H   0  0  0  0  0  0  0  0  0  0  0  0
  1  3  1  0  0  0  0
  1 13  1  0  0  0  0
  2  1  1  0  0  0  0
  4  5  1  0  0  0  0
  4  1  1  0  0  0  0
  6  4  1  0  0  0  0
  7 11  1  0  0  0  0
  7  4  1  0  0  0  0
  8  7  1  0  0  0  0
  9 10  1  0  0  0  0
  9  8  1  0  0  0  0
 10 11  1  0  0  0  0
 11 12  1  0  0  0  0
 13 18  1  0  0  0  0
 14 20  1  0  0  0  0
 15 21  1  0  0  0  0
 15 14  2  0  0  0  0
 16 15  1  0  0  0  0
 17 16  2  0  0  0  0
 17 18  1  0  0  0  0
 18 19  2  0  0  0  0
 19 14  1  0  0  0  0
 22 16  1  0  0  0  0
M  END
>  <minimizedAffinity>
-3.8769412

$$$$

 OpenBabel03272509483D

 22 23  0  0  0  0  0  0  0  0999 V2000
   38.1650   22.0970   33.5050 C   0  0  0  0  0  0  0  0  0  0  0  0
   37.7210   21.4240   34.2710 H   0  0  0  0  0  0  0  0  0  0  0  0
   38.9340   21.4720   32.9690 H   0  0  0  0  0  0  0  0  0  0  0  0
   37.0490   22.5230   32.5880 C   0  0  0  0  0  0  0  0  0  0  0  0
   36.7460   23.5660   32.8700 H   0  0  0  0  0  0  0  0  0  0  0  0
   37.4510   22.5890   31.5660 H   0  0  0  0  0  0  0  0  0  0  0  0
   35.8860   21.7030   32.6860 N   0  0  0  0  0  0  0  0  0  0  0  0
   35.8380   20.7900   33.7740 C   0  0  0  0  0  2  0  0  0  0  0  0
   35.4730   19.4430   33.2110 C   0  0  0  0  0  2  0  0  0  0  0  0
   34.7440   19.7860   31.9330 C   0  0  0  0  0  2  0  0  0  0  0  0
   35.5140   21.0160   31.4840 C   0  0  0  0  0  3  0  0  0  0  0  0
   34.8870   21.6890   30.8750 H   0  0  0  0  0  0  0  0  0  0  0  0
   38.7400   23.2340   34.1310 O   0  0  0  0  0  0  0  0  0  0  0  0
   39.9900   22.7050   37.4810 C   0  0  0  0  0  0  0  0  0  0  0  0
   38.9550   23.2770   38.2160 C   0  0  0  0  0  0  0  0  0  0  0  0
   37.8760   23.8170   37.5300 C   0  0  0  0  0  0  0  0  0  0  0  0
   37.8920   23.7570   36.1670 N   0  0  0  0  0  0  0  0  0  0  0  0
   38.9190   23.1910   35.4930 C   0  0  0  0  0  0  0  0  0  0  0  0
   39.9820   22.6590   36.1500 N   0  0  0  0  0  0  0  0  0  0  0  0
   40.8140   22.2940   38.0500 H   0  0  0  0  0  0  0  0  0  0  0  0
   38.9940   23.2980   39.3160 H   0  0  0  0  0  0  0  0  0  0  0  0
   37.0590   24.2640   38.0740 H   0  0  0  0  0  0  0  0  0  0  0  0
  1 13  1  0  0  0  0
  1  2  1  0  0  0  0
  3  1  1  0  0  0  0
  4  7  1  0  0  0  0
  4  5  1  0  0  0  0
  4  1  1  0  0  0  0
  6  4  1  0  0  0  0
  7  8  1  0  0  0  0
  9  8  1  0  0  0  0
 10  9  1  0  0  0  0
 11 10  1  0  0  0  0
 11  7  1  0  0  0  0
 12 11  1  0  0  0  0
 13 18  1  0  0  0  0
 14 20  1  0  0  0  0
 14 15  1  0  0  0  0
 15 21  1  0  0  0  0
 16 22  1  0  0  0  0
 16 15  2  0  0  0  0
 17 16  1  0  0  0  0
 18 19  1  0  0  0  0
 18 17  2  0  0  0  0
 19 14  2  0  0  0  0
M  END
>  <minimizedAffinity>
-3.8096416

$$$$

 OpenBabel03272509483D

 22 23  0  0  0  0  0  0  0  0999 V2000
   38.3750   23.4720   34.1960 C   0  0  0  0  0  0  0  0  0  0  0  0
   37.3880   23.5260   34.7060 H   0  0  0  0  0  0  0  0  0  0  0  0
   38.6820   24.5440   34.0300 H   0  0  0  0  0  0  0  0  0  0  0  0
   39.3170   22.7550   35.1250 C   0  0  0  0  0  0  0  0  0  0  0  0
   39.4710   21.7160   34.7300 H   0  0  0  0  0  0  0  0  0  0  0  0
   40.2980   23.2490   35.0680 H   0  0  0  0  0  0  0  0  0  0  0  0
   38.8230   22.6330   36.4570 N   0  0  0  0  0  0  0  0  0  0  0  0
   37.6180   23.3250   36.7570 C   0  0  0  0  0  2  0  0  0  0  0  0
   37.8540   24.1030   38.0220 C   0  0  0  0  0  2  0  0  0  0  0  0
   38.9690   23.3400   38.6980 C   0  0  0  0  0  2  0  0  0  0  0  0
   39.7770   22.8880   37.4950 C   0  0  0  0  0  3  0  0  0  0  0  0
   40.3290   21.9550   37.7020 H   0  0  0  0  0  0  0  0  0  0  0  0
   38.2540   22.7560   32.9760 O   0  0  0  0  0  0  0  0  0  0  0  0
   35.4500   20.5110   33.3750 C   0  0  0  0  0  0  0  0  0  0  0  0
   34.8970   20.5880   32.1010 C   0  0  0  0  0  0  0  0  0  0  0  0
   35.5110   21.4060   31.1620 C   0  0  0  0  0  0  0  0  0  0  0  0
   36.6260   22.0910   31.5450 N   0  0  0  0  0  0  0  0  0  0  0  0
   37.1290   21.9860   32.7960 C   0  0  0  0  0  0  0  0  0  0  0  0
   36.5410   21.1900   33.7260 N   0  0  0  0  0  0  0  0  0  0  0  0
   34.9450   19.8620   34.0800 H   0  0  0  0  0  0  0  0  0  0  0  0
   33.9940   20.0120   31.8450 H   0  0  0  0  0  0  0  0  0  0  0  0
   35.1050   21.4840   30.1650 H   0  0  0  0  0  0  0  0  0  0  0  0
  1  2  1  0  0  0  0
  1  4  1  0  0  0  0
  3  1  1  0  0  0  0
  4  7  1  0  0  0  0
  5  4  1  0  0  0  0
  6  4  1  0  0  0  0
  7  8  1  0  0  0  0
  7 11  1  0  0  0  0
  8  9  1  0  0  0  0
  9 10  1  0  0  0  0
 11 12  1  0  0  0  0
 11 10  1  0  0  0  0
 13  1  1  0  0  0  0
 14 19  1  0  0  0  0
 14 20  1  0  0  0  0
 15 14  2  0  0  0  0
 16 17  2  0  0  0  0
 16 15  1  0  0  0  0
 17 18  1  0  0  0  0
 18 13  1  0  0  0  0
 18 19  2  0  0  0  0
 21 15  1  0  0  0  0
 22 16  1  0  0  0  0
M  END
>  <minimizedAffinity>
-3.7958374

$$$$

 OpenBabel03272509483D

 22 23  0  0  0  0  0  0  0  0999 V2000
   37.2930   26.4130   34.9210 C   0  0  0  0  0  0  0  0  0  0  0  0
   36.3660   25.8190   35.0740 H   0  0  0  0  0  0  0  0  0  0  0  0
   36.9720   27.4910   35.0030 H   0  0  0  0  0  0  0  0  0  0  0  0
   38.2520   26.0290   36.0160 C   0  0  0  0  0  0  0  0  0  0  0  0
   39.2870   26.3090   35.6850 H   0  0  0  0  0  0  0  0  0  0  0  0
   38.0360   26.6520   36.8970 H   0  0  0  0  0  0  0  0  0  0  0  0
   38.2620   24.6320   36.3010 N   0  0  0  0  0  0  0  0  0  0  0  0
   37.8740   24.2450   37.6130 C   0  0  0  0  0  2  0  0  0  0  0  0
   38.9270   23.3020   38.1290 C   0  0  0  0  0  2  0  0  0  0  0  0
   39.5340   22.7330   36.8680 C   0  0  0  0  0  2  0  0  0  0  0  0
   39.4650   23.9380   35.9470 C   0  0  0  0  0  3  0  0  0  0  0  0
   39.3980   23.6380   34.8870 H   0  0  0  0  0  0  0  0  0  0  0  0
   37.8570   26.1180   33.6530 O   0  0  0  0  0  0  0  0  0  0  0  0
   35.5410   24.9470   31.1380 C   0  0  0  0  0  0  0  0  0  0  0  0
   35.8060   23.5820   31.1850 C   0  0  0  0  0  0  0  0  0  0  0  0
   36.7660   23.1240   32.0760 C   0  0  0  0  0  0  0  0  0  0  0  0
   37.3990   24.0440   32.8590 N   0  0  0  0  0  0  0  0  0  0  0  0
   37.1090   25.3630   32.7810 C   0  0  0  0  0  0  0  0  0  0  0  0
   36.1720   25.8260   31.9140 N   0  0  0  0  0  0  0  0  0  0  0  0
   34.7850   25.2670   30.4310 H   0  0  0  0  0  0  0  0  0  0  0  0
   35.2640   22.8830   30.5290 H   0  0  0  0  0  0  0  0  0  0  0  0
   36.9910   22.0700   32.1350 H   0  0  0  0  0  0  0  0  0  0  0  0
  1  3  1  0  0  0  0
  1  2  1  0  0  0  0
  1  4  1  0  0  0  0
  4  7  1  0  0  0  0
  4  6  1  0  0  0  0
  5  4  1  0  0  0  0
  7  8  1  0  0  0  0
  8  9  1  0  0  0  0
 10  9  1  0  0  0  0
 11  7  1  0  0  0  0
 11 10  1  0  0  0  0
 12 11  1  0  0  0  0
 13  1  1  0  0  0  0
 14 15  2  0  0  0  0
 14 19  1  0  0  0  0
 15 16  1  0  0  0  0
 16 22  1  0  0  0  0
 16 17  2  0  0  0  0
 18 17  1  0  0  0  0
 18 13  1  0  0  0  0
 19 18  2  0  0  0  0
 20 14  1  0  0  0  0
 21 15  1  0  0  0  0
M  END
>  <minimizedAffinity>
-3.77948785

$$$$

 OpenBabel03272509483D

 22 23  0  0  0  0  0  0  0  0999 V2000
   39.2860   23.1760   33.9570 C   0  0  0  0  0  0  0  0  0  0  0  0
   39.9960   23.5140   34.7430 H   0  0  0  0  0  0  0  0  0  0  0  0
   39.9150   22.6130   33.2090 H   0  0  0  0  0  0  0  0  0  0  0  0
   38.2740   22.2840   34.6250 C   0  0  0  0  0  0  0  0  0  0  0  0
   37.2510   22.6810   34.3900 H   0  0  0  0  0  0  0  0  0  0  0  0
   38.3290   21.2900   34.1560 H   0  0  0  0  0  0  0  0  0  0  0  0
   38.3980   22.2450   36.0450 N   0  0  0  0  0  0  0  0  0  0  0  0
   37.4380   22.9830   36.7910 C   0  0  0  0  0  2  0  0  0  0  0  0
   38.1950   23.8210   37.7860 C   0  0  0  0  0  2  0  0  0  0  0  0
   39.4910   23.0650   37.9630 C   0  0  0  0  0  2  0  0  0  0  0  0
   39.7060   22.5290   36.5580 C   0  0  0  0  0  3  0  0  0  0  0  0
   40.2910   21.5950   36.5640 H   0  0  0  0  0  0  0  0  0  0  0  0
   38.6370   24.2960   33.3740 O   0  0  0  0  0  0  0  0  0  0  0  0
   39.0890   27.0310   35.6920 C   0  0  0  0  0  0  0  0  0  0  0  0
   37.8770   27.6930   35.5220 C   0  0  0  0  0  0  0  0  0  0  0  0
   36.9600   27.1720   34.6200 C   0  0  0  0  0  0  0  0  0  0  0  0
   37.3010   26.0350   33.9490 N   0  0  0  0  0  0  0  0  0  0  0  0
   38.4920   25.4240   34.1460 C   0  0  0  0  0  0  0  0  0  0  0  0
   39.3990   25.9210   35.0250 N   0  0  0  0  0  0  0  0  0  0  0  0
   39.7790   27.4670   36.4040 H   0  0  0  0  0  0  0  0  0  0  0  0
   37.6530   28.6090   36.0910 H   0  0  0  0  0  0  0  0  0  0  0  0
   36.0110   27.6630   34.4690 H   0  0  0  0  0  0  0  0  0  0  0  0
  1  4  1  0  0  0  0
  1  2  1  0  0  0  0
  3  1  1  0  0  0  0
  4  7  1  0  0  0  0
  5  4  1  0  0  0  0
  6  4  1  0  0  0  0
  7 11  1  0  0  0  0
  7  8  1  0  0  0  0
  8  9  1  0  0  0  0
  9 10  1  0  0  0  0
 11 12  1  0  0  0  0
 11 10  1  0  0  0  0
 13  1  1  0  0  0  0
 13 18  1  0  0  0  0
 14 20  1  0  0  0  0
 15 14  1  0  0  0  0
 15 21  1  0  0  0  0
 16 15  2  0  0  0  0
 17 18  2  0  0  0  0
 17 16  1  0  0  0  0
 18 19  1  0  0  0  0
 19 14  2  0  0  0  0
 22 16  1  0  0  0  0
M  END
>  <minimizedAffinity>
-3.7235713

$$$$

 OpenBabel03272509483D

 22 23  0  0  0  0  0  0  0  0999 V2000
   38.0860   23.0980   34.4920 C   0  0  0  0  0  0  0  0  0  0  0  0
   37.4130   23.8190   35.0050 H   0  0  0  0  0  0  0  0  0  0  0  0
   38.1600   23.4650   33.4280 H   0  0  0  0  0  0  0  0  0  0  0  0
   39.4140   23.1490   35.1980 C   0  0  0  0  0  0  0  0  0  0  0  0
   39.7610   22.0950   35.3630 H   0  0  0  0  0  0  0  0  0  0  0  0
   40.1480   23.6070   34.5170 H   0  0  0  0  0  0  0  0  0  0  0  0
   39.3570   23.7810   36.4750 N   0  0  0  0  0  0  0  0  0  0  0  0
   39.6170   22.9610   37.6070 C   0  0  0  0  0  2  0  0  0  0  0  0
   38.5060   23.1990   38.5940 C   0  0  0  0  0  2  0  0  0  0  0  0
   38.0090   24.5790   38.2330 C   0  0  0  0  0  2  0  0  0  0  0  0
   38.1810   24.5620   36.7250 C   0  0  0  0  0  3  0  0  0  0  0  0
   38.3400   25.5760   36.3200 H   0  0  0  0  0  0  0  0  0  0  0  0
   37.5440   21.7880   34.5680 O   0  0  0  0  0  0  0  0  0  0  0  0
   34.9900   20.4360   32.3980 C   0  0  0  0  0  0  0  0  0  0  0  0
   35.6420   20.5300   31.1720 C   0  0  0  0  0  0  0  0  0  0  0  0
   36.9280   21.0520   31.1450 C   0  0  0  0  0  0  0  0  0  0  0  0
   37.4810   21.4460   32.3280 N   0  0  0  0  0  0  0  0  0  0  0  0
   36.8100   21.3360   33.4970 C   0  0  0  0  0  0  0  0  0  0  0  0
   35.5520   20.8270   33.5410 N   0  0  0  0  0  0  0  0  0  0  0  0
   33.9890   20.0230   32.3810 H   0  0  0  0  0  0  0  0  0  0  0  0
   35.1470   20.1960   30.2470 H   0  0  0  0  0  0  0  0  0  0  0  0
   37.4580   21.1350   30.2090 H   0  0  0  0  0  0  0  0  0  0  0  0
  1 13  1  0  0  0  0
  1  2  1  0  0  0  0
  1  4  1  0  0  0  0
  3  1  1  0  0  0  0
  4  5  1  0  0  0  0
  4  7  1  0  0  0  0
  6  4  1  0  0  0  0
  7 11  1  0  0  0  0
  7  8  1  0  0  0  0
  8  9  1  0  0  0  0
 10  9  1  0  0  0  0
 11 10  1  0  0  0  0
 12 11  1  0  0  0  0
 14 19  1  0  0  0  0
 15 14  2  0  0  0  0
 16 15  1  0  0  0  0
 16 17  2  0  0  0  0
 17 18  1  0  0  0  0
 18 19  2  0  0  0  0
 18 13  1  0  0  0  0
 20 14  1  0  0  0  0
 21 15  1  0  0  0  0
 22 16  1  0  0  0  0
M  END
>  <minimizedAffinity>
-3.69777346

$$$$

 OpenBabel03272509483D

 22 23  0  0  0  0  0  0  0  0999 V2000
   38.2470   24.8030   33.9610 C   0  0  0  0  0  0  0  0  0  0  0  0
   38.1450   25.7950   34.4530 H   0  0  0  0  0  0  0  0  0  0  0  0
   37.2560   24.2890   34.1170 H   0  0  0  0  0  0  0  0  0  0  0  0
   38.5260   25.0570   32.5040 C   0  0  0  0  0  0  0  0  0  0  0  0
   38.4830   26.1650   32.3290 H   0  0  0  0  0  0  0  0  0  0  0  0
   39.5630   24.7570   32.2950 H   0  0  0  0  0  0  0  0  0  0  0  0
   37.5760   24.4530   31.6280 N   0  0  0  0  0  0  0  0  0  0  0  0
   36.5850   25.3080   31.0720 C   0  0  0  0  0  2  0  0  0  0  0  0
   35.2520   24.6470   31.2910 C   0  0  0  0  0  2  0  0  0  0  0  0
   35.6050   23.1830   31.4140 C   0  0  0  0  0  2  0  0  0  0  0  0
   36.9420   23.2690   32.1270 C   0  0  0  0  0  3  0  0  0  0  0  0
   37.5850   22.4020   31.8950 H   0  0  0  0  0  0  0  0  0  0  0  0
   39.3220   24.0810   34.5430 O   0  0  0  0  0  0  0  0  0  0  0  0
   39.8730   22.8270   37.8880 C   0  0  0  0  0  0  0  0  0  0  0  0
   38.7740   23.3830   38.5360 C   0  0  0  0  0  0  0  0  0  0  0  0
   37.8940   24.1620   37.7970 C   0  0  0  0  0  0  0  0  0  0  0  0
   38.1580   24.3390   36.4710 N   0  0  0  0  0  0  0  0  0  0  0  0
   39.2390   23.7790   35.8810 C   0  0  0  0  0  0  0  0  0  0  0  0
   40.1090   23.0150   36.5900 N   0  0  0  0  0  0  0  0  0  0  0  0
   40.5360   22.2260   38.4950 H   0  0  0  0  0  0  0  0  0  0  0  0
   38.6090   23.2070   39.6100 H   0  0  0  0  0  0  0  0  0  0  0  0
   37.0320   24.6040   38.2740 H   0  0  0  0  0  0  0  0  0  0  0  0
  1  3  1  0  0  0  0
  1  2  1  0  0  0  0
  1 13  1  0  0  0  0
  4  1  1  0  0  0  0
  5  4  1  0  0  0  0
  6  4  1  0  0  0  0
  7 11  1  0  0  0  0
  7  4  1  0  0  0  0
  8  9  1  0  0  0  0
  8  7  1  0  0  0  0
  9 10  1  0  0  0  0
 10 11  1  0  0  0  0
 12 11  1  0  0  0  0
 13 18  1  0  0  0  0
 14 20  1  0  0  0  0
 14 15  1  0  0  0  0
 15 21  1  0  0  0  0
 16 22  1  0  0  0  0
 16 15  2  0  0  0  0
 17 16  1  0  0  0  0
 18 17  2  0  0  0  0
 18 19  1  0  0  0  0
 19 14  2  0  0  0  0
M  END
>  <minimizedAffinity>
-3.67109466

$$$$

 OpenBabel03272509483D

 22 23  0  0  0  0  0  0  0  0999 V2000
   38.2040   24.0810   33.6600 C   0  0  0  0  0  0  0  0  0  0  0  0
   39.2820   24.1940   33.4120 H   0  0  0  0  0  0  0  0  0  0  0  0
   37.7220   23.6840   32.7210 H   0  0  0  0  0  0  0  0  0  0  0  0
   38.1100   23.0990   34.7970 C   0  0  0  0  0  0  0  0  0  0  0  0
   37.0270   22.8550   34.9580 H   0  0  0  0  0  0  0  0  0  0  0  0
   38.5890   22.1600   34.4800 H   0  0  0  0  0  0  0  0  0  0  0  0
   38.6190   23.6030   36.0300 N   0  0  0  0  0  0  0  0  0  0  0  0
   39.9710   23.2910   36.3390 C   0  0  0  0  0  2  0  0  0  0  0  0
   39.9950   22.7550   37.7440 C   0  0  0  0  0  2  0  0  0  0  0  0
   38.7570   23.3550   38.3680 C   0  0  0  0  0  2  0  0  0  0  0  0
   37.8070   23.3490   37.1830 C   0  0  0  0  0  3  0  0  0  0  0  0
   37.0500   24.1480   37.2630 H   0  0  0  0  0  0  0  0  0  0  0  0
   37.6610   25.3320   34.0520 O   0  0  0  0  0  0  0  0  0  0  0  0
   37.1770   28.1950   31.8990 C   0  0  0  0  0  0  0  0  0  0  0  0
   36.3120   27.6440   30.9590 C   0  0  0  0  0  0  0  0  0  0  0  0
   35.9340   26.3160   31.1050 C   0  0  0  0  0  0  0  0  0  0  0  0
   36.4350   25.6240   32.1680 N   0  0  0  0  0  0  0  0  0  0  0  0
   37.2740   26.2000   33.0590 C   0  0  0  0  0  0  0  0  0  0  0  0
   37.6530   27.4970   32.9300 N   0  0  0  0  0  0  0  0  0  0  0  0
   37.4500   29.2320   31.7530 H   0  0  0  0  0  0  0  0  0  0  0  0
   35.9380   28.2500   30.1190 H   0  0  0  0  0  0  0  0  0  0  0  0
   35.2630   25.8640   30.3910 H   0  0  0  0  0  0  0  0  0  0  0  0
  1 13  1  0  0  0  0
  1  4  1  0  0  0  0
  2  1  1  0  0  0  0
  3  1  1  0  0  0  0
  4  5  1  0  0  0  0
  4  7  1  0  0  0  0
  6  4  1  0  0  0  0
  7  8  1  0  0  0  0
  7 11  1  0  0  0  0
  8  9  1  0  0  0  0
  9 10  1  0  0  0  0
 11 12  1  0  0  0  0
 11 10  1  0  0  0  0
 14 19  1  0  0  0  0
 15 16  1  0  0  0  0
 15 14  2  0  0  0  0
 16 17  2  0  0  0  0
 17 18  1  0  0  0  0
 18 13  1  0  0  0  0
 19 18  2  0  0  0  0
 20 14  1  0  0  0  0
 21 15  1  0  0  0  0
 22 16  1  0  0  0  0
M  END
>  <minimizedAffinity>
-3.63674664

$$$$
