REMARK  Name = 
REMARK  2 active torsions:
REMARK  status: ('A' for Active; 'I' for Inactive)
REMARK    1  A    between atoms: C_5  and  C_7
REMARK    2  A    between atoms: C_12  and  N_20
REMARK                            x       y       z     vdW  Elec       q    Type
REMARK                         _______ _______ _______ _____ _____    ______ ____
ROOT
ATOM      1  C   UNL     1      36.102  30.133  48.605  0.00  0.00    +0.000 A 
ATOM      2  C   UNL     1      35.285  29.962  47.514  0.00  0.00    +0.000 A 
ATOM      3  C   UNL     1      34.292  28.992  47.506  0.00  0.00    +0.000 A 
ATOM      4  C   UNL     1      34.152  28.200  48.641  0.00  0.00    +0.000 A 
ATOM      5  C   UNL     1      34.959  28.352  49.746  0.00  0.00    +0.000 A 
ATOM      6  C   UNL     1      35.937  29.327  49.718  0.00  0.00    +0.000 A 
ATOM      7  H   UNL     1      35.365  30.560  46.614  0.00  0.00    +0.000 HD
ATOM      8  H   UNL     1      33.660  28.863  46.657  0.00  0.00    +0.000 HD
ATOM      9  H   UNL     1      33.380  27.429  48.664  0.00  0.00    +0.000 HD
ATOM     10  H   UNL     1      34.865  27.743  50.640  0.00  0.00    +0.000 HD
ENDROOT
BRANCH   1  15
ATOM     11  C   UNL     1      38.003  33.103  49.467  0.00  0.00    +0.000 A 
ATOM     12  C   UNL     1      38.970  33.217  48.470  0.00  0.00    +0.000 A 
ATOM     13  C   UNL     1      38.951  32.226  47.475  0.00  0.00    +0.000 A 
ATOM     14  N   UNL     1      38.027  31.229  47.516  0.00  0.00    +0.000 NA
ATOM     15  C   UNL     1      37.110  31.175  48.516  0.00  0.00    +0.000 A 
ATOM     16  N   UNL     1      37.098  32.120  49.501  0.00  0.00    +0.000 NA
ATOM     17  H   UNL     1      37.948  33.828  50.274  0.00  0.00    +0.000 HD
ATOM     18  H   UNL     1      39.672  34.020  48.485  0.00  0.00    +0.000 HD
ATOM     19  H   UNL     1      39.690  32.283  46.682  0.00  0.00    +0.000 HD
ENDBRANCH   1  15
BRANCH   6  20
ATOM     20  N   UNL     1      36.815  29.553  50.816  0.00  0.00    +0.000 N 
ATOM     21  C   UNL     1      36.836  28.835  52.095  0.00  0.00    +0.000 C 
ATOM     22  C   UNL     1      36.732  30.027  53.054  0.00  0.00    +0.000 C 
ATOM     23  C   UNL     1      37.858  30.892  52.493  0.00  0.00    +0.000 C 
ATOM     24  C   UNL     1      37.897  30.476  51.055  0.00  0.00    +0.000 C 
ATOM     25  H   UNL     1      38.835  29.912  50.886  0.00  0.00    +0.000 HD
ENDBRANCH   6  20
TORSDOF 2
