
 OpenBabel03272508013D

 25 27  0  0  1  0  0  0  0  0999 V2000
   38.9430   30.8310   45.6740 C   0  0  0  0  0  0  0  0  0  0  0  0
   40.1490   31.4370   45.9190 C   0  0  0  0  0  0  0  0  0  0  0  0
   40.9670   31.3310   44.7880 C   0  0  0  0  0  0  0  0  0  0  0  0
   40.1910   30.6470   43.8890 N   0  0  0  0  0  0  0  0  0  0  0  0
   39.0130   30.3580   44.4100 N   0  0  0  0  0  0  0  0  0  0  0  0
   40.4540   31.9370   46.8510 H   0  0  0  0  0  0  0  0  0  0  0  0
   41.9780   31.7000   44.6420 H   0  0  0  0  0  0  0  0  0  0  0  0
   37.8030   30.7120   46.5800 C   0  0  0  0  0  0  0  0  0  0  0  0
   38.0280   30.9740   47.9570 C   0  0  0  0  0  0  0  0  0  0  0  0
   36.9560   30.8660   48.8370 C   0  0  0  0  0  0  0  0  0  0  0  0
   35.7510   30.5140   48.3220 N   0  0  0  0  0  0  0  0  0  0  0  0
   35.5580   30.2680   47.0040 C   0  0  0  0  0  0  0  0  0  0  0  0
   36.5940   30.3740   46.1640 N   0  0  0  0  0  0  0  0  0  0  0  0
   39.0010   31.2560   48.3530 H   0  0  0  0  0  0  0  0  0  0  0  0
   34.6020   29.9880   46.5960 H   0  0  0  0  0  0  0  0  0  0  0  0
   37.1750   31.1370   50.2780 C   0  0  0  0  0  0  0  0  0  0  0  0
   36.6510   32.3930   50.5110 F   0  0  0  0  0  0  0  0  0  0  0  0
   36.5160   30.2400   51.0990 F   0  0  0  0  0  0  0  0  0  0  0  0
   38.5150   31.1520   50.6070 F   0  0  0  0  0  0  0  0  0  0  0  0
   40.9300   28.4140   43.2780 H   0  0  0  0  0  0  0  0  0  0  0  0
   41.4520   29.1090   42.7000 N   0  0  0  0  0  0  0  0  0  0  0  0
   41.6040   28.6850   41.3380 C   0  0  0  0  0  0  0  0  0  0  0  0
   40.1720   28.7260   40.8220 C   0  0  0  0  0  0  0  0  0  0  0  0
   39.4290   29.6780   41.7640 C   0  0  0  0  0  0  0  0  0  0  0  0
   40.5550   30.2660   42.5490 C   0  0  1  0  0  0  0  0  0  0  0  0
  1  2  1  0  0  0  0
  1  8  1  0  0  0  0
  2  6  1  0  0  0  0
  3  2  2  0  0  0  0
  4  5  1  0  0  0  0
  4  3  1  0  0  0  0
  5  1  2  0  0  0  0
  7  3  1  0  0  0  0
  8  9  1  0  0  0  0
  9 14  1  0  0  0  0
  9 10  2  0  0  0  0
 10 16  1  0  0  0  0
 11 10  1  0  0  0  0
 12 11  2  0  0  0  0
 13  8  2  0  0  0  0
 13 12  1  0  0  0  0
 15 12  1  0  0  0  0
 16 17  1  0  0  0  0
 16 19  1  0  0  0  0
 16 18  1  0  0  0  0
 21 20  1  0  0  0  0
 22 21  1  0  0  0  0
 23 22  1  0  0  0  0
 23 24  1  0  0  0  0
 25 24  1  6  0  0  0
 25 21  1  0  0  0  0
 25  4  1  0  0  0  0
M  END
>  <minimizedAffinity>
-6.14961672

>  <minimizedRMSD>
1.41936612

$$$$
