
 OpenBabel03262520483D

 45 49  0  0  1  0  0  0  0  0999 V2000
   40.3640   31.0250   43.8270 C   0  0  0  0  0  0  0  0  0  0  0  0
   41.4170   31.2840   44.0370 H   0  0  0  0  0  0  0  0  0  0  0  0
   39.8280   31.8550   43.2820 H   0  0  0  0  0  0  0  0  0  0  0  0
   39.4960   28.7880   43.2500 C   0  0  0  0  0  0  0  0  0  0  0  0
   40.3110   29.8520   42.9000 C   0  0  0  0  0  0  0  0  0  0  0  0
   41.0370   29.7890   41.7200 C   0  0  0  0  0  0  0  0  0  0  0  0
   40.9590   28.6880   40.8920 C   0  0  0  0  0  0  0  0  0  0  0  0
   41.5630   28.4170   39.7200 N   0  0  0  0  0  0  0  0  0  0  0  0
   41.1360   27.2040   39.3360 C   0  0  0  0  0  0  0  0  0  0  0  0
   40.2500   26.6580   40.2440 C   0  0  0  0  0  0  0  0  0  0  0  0
   40.1500   27.6320   41.2390 C   0  0  0  0  0  0  0  0  0  0  0  0
   39.4330   27.6900   42.4020 C   0  0  0  0  0  0  0  0  0  0  0  0
   38.8820   28.7120   44.1350 H   0  0  0  0  0  0  0  0  0  0  0  0
   41.6560   30.6660   41.5140 H   0  0  0  0  0  0  0  0  0  0  0  0
   42.2320   29.0520   39.2290 H   0  0  0  0  0  0  0  0  0  0  0  0
   41.4270   26.6730   38.4290 H   0  0  0  0  0  0  0  0  0  0  0  0
   39.7410   25.7040   40.2110 H   0  0  0  0  0  0  0  0  0  0  0  0
   38.6100   26.5590   42.7070 N   0  0  0  0  0  0  0  0  0  0  0  0
   38.9870   25.3920   43.5010 C   0  0  0  0  0  0  0  0  0  0  0  0
   38.5370   24.2730   42.5800 C   0  0  0  0  0  0  0  0  0  0  0  0
   37.1610   24.7430   42.1690 C   0  0  0  0  0  0  0  0  0  0  0  0
   37.2250   26.2290   42.3510 C   0  0  0  0  0  0  0  0  0  0  0  0
   36.6380   26.5230   43.2710 H   0  0  0  0  0  0  0  0  0  0  0  0
   39.5870   30.6680   45.0790 C   0  0  0  0  0  0  0  0  0  0  0  0
   39.8790   29.6300   45.3260 H   0  0  0  0  0  0  0  0  0  0  0  0
   38.5100   30.7700   44.7790 H   0  0  0  0  0  0  0  0  0  0  0  0
   38.7530   32.2040   46.8940 C   0  0  1  0  0  0  0  0  0  0  0  0
   39.8600   32.9880   46.2260 C   0  0  0  0  0  0  0  0  0  0  0  0
   39.8900   31.5130   46.2620 C   0  0  2  0  0  0  0  0  0  0  0  0
   37.7740   32.2540   46.3790 H   0  0  0  0  0  0  0  0  0  0  0  0
   40.5560   33.5850   46.8400 H   0  0  0  0  0  0  0  0  0  0  0  0
   39.6620   33.4660   45.2340 H   0  0  0  0  0  0  0  0  0  0  0  0
   40.6380   31.1080   47.0070 H   0  0  0  0  0  0  0  0  0  0  0  0
   38.6840   32.3620   48.3910 C   0  0  0  0  0  0  0  0  0  0  0  0
   38.1290   33.3040   48.5880 H   0  0  0  0  0  0  0  0  0  0  0  0
   39.6920   32.4090   48.8270 H   0  0  0  0  0  0  0  0  0  0  0  0
   37.4300   29.9920   50.9930 C   0  0  0  0  0  0  0  0  0  0  0  0
   38.1460   31.0550   50.3570 C   0  0  0  0  0  0  0  0  0  0  0  0
   37.9340   31.2620   49.0180 C   0  0  0  0  0  0  0  0  0  0  0  0
   37.0650   30.4560   48.3780 N   0  0  0  0  0  0  0  0  0  0  0  0
   36.4010   29.4700   48.9780 C   0  0  0  0  0  0  0  0  0  0  0  0
   36.5910   29.2480   50.2780 N   0  0  0  0  0  0  0  0  0  0  0  0
   37.5450   29.7760   52.0280 H   0  0  0  0  0  0  0  0  0  0  0  0
   38.8220   31.6490   50.9540 H   0  0  0  0  0  0  0  0  0  0  0  0
   35.7590   28.9490   48.2830 H   0  0  0  0  0  0  0  0  0  0  0  0
  1  2  1  0  0  0  0
  1 24  1  0  0  0  0
  3  1  1  0  0  0  0
  4 13  1  0  0  0  0
  5  4  1  0  0  0  0
  5  1  1  0  0  0  0
  6  5  2  0  0  0  0
  7 11  2  0  0  0  0
  7  6  1  0  0  0  0
  8  7  1  0  0  0  0
  9  8  1  0  0  0  0
  9 10  2  0  0  0  0
 10 11  1  0  0  0  0
 11 12  1  0  0  0  0
 12 18  1  0  0  0  0
 12  4  2  0  0  0  0
 14  6  1  0  0  0  0
 15  8  1  0  0  0  0
 16  9  1  0  0  0  0
 17 10  1  0  0  0  0
 18 19  1  0  0  0  0
 20 19  1  0  0  0  0
 21 22  1  0  0  0  0
 21 20  1  0  0  0  0
 22 18  1  0  0  0  0
 22 23  1  0  0  0  0
 24 25  1  0  0  0  0
 24 29  1  0  0  0  0
 26 24  1  0  0  0  0
 27 30  1  6  0  0  0
 27 34  1  0  0  0  0
 28 29  1  0  0  0  0
 28 31  1  0  0  0  0
 28 27  1  0  0  0  0
 29 27  1  0  0  0  0
 29 33  1  1  0  0  0
 32 28  1  0  0  0  0
 34 35  1  0  0  0  0
 34 36  1  0  0  0  0
 34 39  1  0  0  0  0
 37 43  1  0  0  0  0
 38 44  1  0  0  0  0
 38 37  1  0  0  0  0
 39 38  2  0  0  0  0
 40 41  2  0  0  0  0
 40 39  1  0  0  0  0
 41 42  1  0  0  0  0
 42 37  2  0  0  0  0
 45 41  1  0  0  0  0
M  END
>  <minimizedAffinity>
-5.90899992

>  <minimizedRMSD>
0.261693507

$$$$
