
 OpenBabel03272507533D

 29 31  0  0  1  0  0  0  0  0999 V2000
   38.7250   23.3330   33.8450 N   0  0  0  0  0  0  0  0  0  0  0  0
   38.5090   24.6540   33.7530 C   0  0  0  0  0  0  0  0  0  0  0  0
   37.4720   25.1240   32.9490 C   0  0  0  0  0  0  0  0  0  0  0  0
   36.7540   24.1600   32.3130 C   0  0  0  0  0  0  0  0  0  0  0  0
   35.8140   24.6150   31.5880 O   0  0  0  0  0  0  0  0  0  0  0  0
   36.9370   22.8480   32.3790 N   0  0  0  0  0  0  0  0  0  0  0  0
   37.9550   22.4360   33.1710 C   0  0  0  0  0  0  0  0  0  0  0  0
   38.1480   21.1780   33.2470 O   0  0  0  0  0  0  0  0  0  0  0  0
   39.1530   25.3240   34.3110 H   0  0  0  0  0  0  0  0  0  0  0  0
   37.3020   26.1880   32.8800 H   0  0  0  0  0  0  0  0  0  0  0  0
   39.4410   22.3030   35.9290 C   0  0  0  0  0  0  0  0  0  0  0  0
   39.7780   22.7800   34.6500 C   0  0  0  0  0  0  0  0  0  0  0  0
   41.1090   22.7000   34.2110 C   0  0  0  0  0  0  0  0  0  0  0  0
   42.0130   22.1560   35.0670 N   0  0  0  0  0  0  0  0  0  0  0  0
   41.6950   21.7080   36.2700 C   0  0  0  0  0  0  0  0  0  0  0  0
   40.4210   21.7810   36.6960 N   0  0  0  0  0  0  0  0  0  0  0  0
   41.3260   23.0730   33.2340 H   0  0  0  0  0  0  0  0  0  0  0  0
   42.4530   21.2760   36.9270 H   0  0  0  0  0  0  0  0  0  0  0  0
   37.3970   23.3280   37.1840 C   0  0  0  0  0  0  0  0  0  0  0  0
   37.8970   24.4350   37.4760 O   0  0  0  0  0  0  0  0  0  0  0  0
   38.1300   22.3330   36.4480 N   0  0  0  0  0  0  0  0  0  0  0  0
   36.3850   23.1670   37.5200 H   0  0  0  0  0  0  0  0  0  0  0  0
   37.5190   21.4750   36.2890 H   0  0  0  0  0  0  0  0  0  0  0  0
   37.1140   21.2480   30.0240 H   0  0  0  0  0  0  0  0  0  0  0  0
   36.8430   20.8950   30.9810 N   0  0  0  0  0  0  0  0  0  0  0  0
   35.9850   19.7290   30.8970 C   0  0  0  0  0  2  0  0  0  0  0  0
   35.0550   19.7790   32.0790 C   0  0  0  0  0  2  0  0  0  0  0  0
   35.1540   21.1880   32.5670 C   0  0  0  0  0  2  0  0  0  0  0  0
   36.0960   21.9360   31.6490 C   0  0  1  0  0  3  0  0  0  0  0  0
  1 12  1  0  0  0  0
  2  1  1  0  0  0  0
  2  9  1  0  0  0  0
  3  2  2  0  0  0  0
  4  6  1  0  0  0  0
  4  3  1  0  0  0  0
  5  4  2  0  0  0  0
  6  7  1  0  0  0  0
  7  8  2  0  0  0  0
  7  1  1  0  0  0  0
 10  3  1  0  0  0  0
 11 21  1  0  0  0  0
 11 16  1  0  0  0  0
 12 11  2  0  0  0  0
 13 12  1  0  0  0  0
 13 14  2  0  0  0  0
 14 15  1  0  0  0  0
 15 16  2  0  0  0  0
 15 18  1  0  0  0  0
 17 13  1  0  0  0  0
 19 20  2  0  0  0  0
 19 22  1  0  0  0  0
 21 19  1  0  0  0  0
 23 21  1  0  0  0  0
 24 25  1  0  0  0  0
 25 29  1  0  0  0  0
 26 25  1  0  0  0  0
 26 27  1  0  0  0  0
 27 28  1  0  0  0  0
 29  6  1  1  0  0  0
 29 28  1  0  0  0  0
M  END
>  <minimizedAffinity>
-5.11854839

$$$$

 OpenBabel03272507533D

 29 31  0  0  1  0  0  0  0  0999 V2000
   38.2110   23.8040   34.5400 N   0  0  0  0  0  0  0  0  0  0  0  0
   38.5720   24.9040   33.8630 C   0  0  0  0  0  0  0  0  0  0  0  0
   38.3430   24.9710   32.4900 C   0  0  0  0  0  0  0  0  0  0  0  0
   37.7520   23.8710   31.9500 C   0  0  0  0  0  0  0  0  0  0  0  0
   37.5540   23.9570   30.6980 O   0  0  0  0  0  0  0  0  0  0  0  0
   37.3810   22.7670   32.5860 N   0  0  0  0  0  0  0  0  0  0  0  0
   37.6230   22.7460   33.9180 C   0  0  0  0  0  0  0  0  0  0  0  0
   37.2740   21.6930   34.5470 O   0  0  0  0  0  0  0  0  0  0  0  0
   39.0380   25.7190   34.4090 H   0  0  0  0  0  0  0  0  0  0  0  0
   38.6350   25.8590   31.9510 H   0  0  0  0  0  0  0  0  0  0  0  0
   39.5420   22.9310   36.3790 C   0  0  0  0  0  0  0  0  0  0  0  0
   38.4220   23.6670   35.9540 C   0  0  0  0  0  0  0  0  0  0  0  0
   37.5630   24.2320   36.9090 C   0  0  0  0  0  0  0  0  0  0  0  0
   37.8700   24.0310   38.2170 N   0  0  0  0  0  0  0  0  0  0  0  0
   38.9230   23.3380   38.6160 C   0  0  0  0  0  0  0  0  0  0  0  0
   39.7510   22.7940   37.7060 N   0  0  0  0  0  0  0  0  0  0  0  0
   36.7230   24.7840   36.5470 H   0  0  0  0  0  0  0  0  0  0  0  0
   39.1350   23.2000   39.6790 H   0  0  0  0  0  0  0  0  0  0  0  0
   41.6410   22.8360   34.8330 C   0  0  0  0  0  0  0  0  0  0  0  0
   42.0470   24.0050   35.0030 O   0  0  0  0  0  0  0  0  0  0  0  0
   40.4630   22.3370   35.4920 N   0  0  0  0  0  0  0  0  0  0  0  0
   42.2260   22.2290   34.1620 H   0  0  0  0  0  0  0  0  0  0  0  0
   40.3040   21.3170   35.2280 H   0  0  0  0  0  0  0  0  0  0  0  0
   38.1400   20.2000   31.6000 H   0  0  0  0  0  0  0  0  0  0  0  0
   37.3230   20.3890   32.2400 N   0  0  0  0  0  0  0  0  0  0  0  0
   36.2780   19.3970   32.0800 C   0  0  0  0  0  2  0  0  0  0  0  0
   34.9680   20.0900   32.3360 C   0  0  0  0  0  2  0  0  0  0  0  0
   35.2950   21.5450   32.2350 C   0  0  0  0  0  2  0  0  0  0  0  0
   36.7620   21.6720   31.8870 C   0  0  1  0  0  3  0  0  0  0  0  0
  1 12  1  0  0  0  0
  2  9  1  0  0  0  0
  2  1  1  0  0  0  0
  3  2  2  0  0  0  0
  4  3  1  0  0  0  0
  4  6  1  0  0  0  0
  5  4  2  0  0  0  0
  6  7  1  0  0  0  0
  7  1  1  0  0  0  0
  7  8  2  0  0  0  0
 10  3  1  0  0  0  0
 11 16  1  0  0  0  0
 12 11  2  0  0  0  0
 12 13  1  0  0  0  0
 13 14  2  0  0  0  0
 14 15  1  0  0  0  0
 15 18  1  0  0  0  0
 16 15  2  0  0  0  0
 17 13  1  0  0  0  0
 19 20  2  0  0  0  0
 19 21  1  0  0  0  0
 21 11  1  0  0  0  0
 22 19  1  0  0  0  0
 23 21  1  0  0  0  0
 24 25  1  0  0  0  0
 26 25  1  0  0  0  0
 26 27  1  0  0  0  0
 28 27  1  0  0  0  0
 29 28  1  1  0  0  0
 29 25  1  0  0  0  0
 29  6  1  0  0  0  0
M  END
>  <minimizedAffinity>
-5.0634532

$$$$

 OpenBabel03272507533D

 29 31  0  0  1  0  0  0  0  0999 V2000
   38.8750   23.5310   34.2230 N   0  0  0  0  0  0  0  0  0  0  0  0
   39.6610   24.3500   33.5080 C   0  0  0  0  0  0  0  0  0  0  0  0
   39.5800   24.3350   32.1160 C   0  0  0  0  0  0  0  0  0  0  0  0
   38.6770   23.4580   31.6010 C   0  0  0  0  0  0  0  0  0  0  0  0
   38.6220   23.4640   30.3320 O   0  0  0  0  0  0  0  0  0  0  0  0
   37.8840   22.6340   32.2750 N   0  0  0  0  0  0  0  0  0  0  0  0
   37.9970   22.6820   33.6240 C   0  0  0  0  0  0  0  0  0  0  0  0
   37.2430   21.8980   34.2900 O   0  0  0  0  0  0  0  0  0  0  0  0
   40.3430   25.0060   34.0370 H   0  0  0  0  0  0  0  0  0  0  0  0
   40.2140   24.9960   31.5460 H   0  0  0  0  0  0  0  0  0  0  0  0
   38.2050   24.4870   36.3570 C   0  0  0  0  0  0  0  0  0  0  0  0
   38.9100   23.4910   35.6580 C   0  0  0  0  0  0  0  0  0  0  0  0
   39.6110   22.5080   36.3750 C   0  0  0  0  0  0  0  0  0  0  0  0
   39.5670   22.5790   37.7310 N   0  0  0  0  0  0  0  0  0  0  0  0
   38.9050   23.5160   38.3880 C   0  0  0  0  0  0  0  0  0  0  0  0
   38.2300   24.4610   37.7070 N   0  0  0  0  0  0  0  0  0  0  0  0
   40.1340   21.7690   35.8090 H   0  0  0  0  0  0  0  0  0  0  0  0
   38.8940   23.5370   39.4800 H   0  0  0  0  0  0  0  0  0  0  0  0
   37.7460   26.8930   35.4590 C   0  0  0  0  0  0  0  0  0  0  0  0
   38.8260   27.4230   35.7930 O   0  0  0  0  0  0  0  0  0  0  0  0
   37.4660   25.5060   35.7220 N   0  0  0  0  0  0  0  0  0  0  0  0
   37.0400   27.5390   34.9640 H   0  0  0  0  0  0  0  0  0  0  0  0
   36.5040   25.2500   35.3410 H   0  0  0  0  0  0  0  0  0  0  0  0
   37.8690   19.9490   31.3120 H   0  0  0  0  0  0  0  0  0  0  0  0
   37.1500   20.3680   31.9600 N   0  0  0  0  0  0  0  0  0  0  0  0
   35.8640   19.7110   31.8270 C   0  0  0  0  0  2  0  0  0  0  0  0
   34.8080   20.7490   32.0910 C   0  0  0  0  0  2  0  0  0  0  0  0
   35.5310   22.0500   31.9670 C   0  0  0  0  0  2  0  0  0  0  0  0
   36.9680   21.7540   31.5980 C   0  0  1  0  0  3  0  0  0  0  0  0
  1 12  1  0  0  0  0
  2  9  1  0  0  0  0
  2  1  1  0  0  0  0
  3  2  2  0  0  0  0
  4  3  1  0  0  0  0
  4  6  1  0  0  0  0
  5  4  2  0  0  0  0
  6  7  1  0  0  0  0
  7  1  1  0  0  0  0
  7  8  2  0  0  0  0
 10  3  1  0  0  0  0
 11 16  1  0  0  0  0
 12 11  2  0  0  0  0
 12 13  1  0  0  0  0
 13 14  2  0  0  0  0
 14 15  1  0  0  0  0
 15 18  1  0  0  0  0
 16 15  2  0  0  0  0
 17 13  1  0  0  0  0
 19 21  1  0  0  0  0
 19 20  2  0  0  0  0
 21 11  1  0  0  0  0
 22 19  1  0  0  0  0
 23 21  1  0  0  0  0
 24 25  1  0  0  0  0
 26 25  1  0  0  0  0
 26 27  1  0  0  0  0
 28 27  1  0  0  0  0
 29 25  1  0  0  0  0
 29 28  1  1  0  0  0
 29  6  1  0  0  0  0
M  END
>  <minimizedAffinity>
-5.02403641

$$$$

 OpenBabel03272507533D

 29 31  0  0  1  0  0  0  0  0999 V2000
   36.9370   25.7590   32.2260 N   0  0  0  0  0  0  0  0  0  0  0  0
   37.8380   25.5510   33.1970 C   0  0  0  0  0  0  0  0  0  0  0  0
   38.1230   24.2480   33.6020 C   0  0  0  0  0  0  0  0  0  0  0  0
   37.4300   23.2780   32.9460 C   0  0  0  0  0  0  0  0  0  0  0  0
   37.7080   22.1000   33.3330 O   0  0  0  0  0  0  0  0  0  0  0  0
   36.5330   23.4440   31.9820 N   0  0  0  0  0  0  0  0  0  0  0  0
   36.2890   24.7260   31.6220 C   0  0  0  0  0  0  0  0  0  0  0  0
   35.4290   24.9070   30.6970 O   0  0  0  0  0  0  0  0  0  0  0  0
   38.3250   26.4120   33.6440 H   0  0  0  0  0  0  0  0  0  0  0  0
   38.8490   24.0870   34.3830 H   0  0  0  0  0  0  0  0  0  0  0  0
   37.2040   27.5330   30.5830 C   0  0  0  0  0  0  0  0  0  0  0  0
   36.5930   27.0750   31.7640 C   0  0  0  0  0  0  0  0  0  0  0  0
   35.6830   27.9040   32.4390 C   0  0  0  0  0  0  0  0  0  0  0  0
   35.4420   29.1280   31.9000 N   0  0  0  0  0  0  0  0  0  0  0  0
   36.0170   29.5590   30.7900 C   0  0  0  0  0  0  0  0  0  0  0  0
   36.8890   28.7690   30.1380 N   0  0  0  0  0  0  0  0  0  0  0  0
   35.2410   27.5210   33.3310 H   0  0  0  0  0  0  0  0  0  0  0  0
   35.7940   30.5510   30.3900 H   0  0  0  0  0  0  0  0  0  0  0  0
   39.5480   26.6060   29.9130 C   0  0  0  0  0  0  0  0  0  0  0  0
   40.2320   27.1940   30.7770 O   0  0  0  0  0  0  0  0  0  0  0  0
   38.1200   26.7660   29.8350 N   0  0  0  0  0  0  0  0  0  0  0  0
   40.0950   25.9750   29.2310 H   0  0  0  0  0  0  0  0  0  0  0  0
   37.7300   26.1670   29.0450 H   0  0  0  0  0  0  0  0  0  0  0  0
   37.0490   21.5890   29.8780 H   0  0  0  0  0  0  0  0  0  0  0  0
   36.7960   21.3310   30.8690 N   0  0  0  0  0  0  0  0  0  0  0  0
   36.1320   20.0430   30.9340 C   0  0  0  0  0  2  0  0  0  0  0  0
   35.1590   20.1050   32.0790 C   0  0  0  0  0  2  0  0  0  0  0  0
   35.0210   21.5650   32.3670 C   0  0  0  0  0  2  0  0  0  0  0  0
   35.8730   22.3210   31.3710 C   0  0  1  0  0  3  0  0  0  0  0  0
  1  2  1  0  0  0  0
  2  3  2  0  0  0  0
  2  9  1  0  0  0  0
  3 10  1  0  0  0  0
  4  5  2  0  0  0  0
  4  3  1  0  0  0  0
  6  4  1  0  0  0  0
  7  6  1  0  0  0  0
  7  1  1  0  0  0  0
  8  7  2  0  0  0  0
 11 12  1  0  0  0  0
 12  1  1  0  0  0  0
 12 13  2  0  0  0  0
 13 17  1  0  0  0  0
 14 13  1  0  0  0  0
 15 14  2  0  0  0  0
 16 11  2  0  0  0  0
 16 15  1  0  0  0  0
 18 15  1  0  0  0  0
 19 20  2  0  0  0  0
 21 19  1  0  0  0  0
 21 11  1  0  0  0  0
 22 19  1  0  0  0  0
 23 21  1  0  0  0  0
 24 25  1  0  0  0  0
 25 26  1  0  0  0  0
 25 29  1  0  0  0  0
 26 27  1  0  0  0  0
 27 28  1  0  0  0  0
 29  6  1  1  0  0  0
 29 28  1  0  0  0  0
M  END
>  <minimizedAffinity>
-4.93247938

$$$$

 OpenBabel03272507533D

 29 31  0  0  1  0  0  0  0  0999 V2000
   39.3960   24.6100   35.2830 N   0  0  0  0  0  0  0  0  0  0  0  0
   39.0420   25.7600   35.8760 C   0  0  0  0  0  0  0  0  0  0  0  0
   38.1320   26.6060   35.2450 C   0  0  0  0  0  0  0  0  0  0  0  0
   37.6750   26.1650   34.0410 C   0  0  0  0  0  0  0  0  0  0  0  0
   36.8470   26.9530   33.4870 O   0  0  0  0  0  0  0  0  0  0  0  0
   38.0020   25.0360   33.4240 N   0  0  0  0  0  0  0  0  0  0  0  0
   38.8880   24.2460   34.0740 C   0  0  0  0  0  0  0  0  0  0  0  0
   39.2160   23.1570   33.4960 O   0  0  0  0  0  0  0  0  0  0  0  0
   39.4770   26.0000   36.8400 H   0  0  0  0  0  0  0  0  0  0  0  0
   37.8500   27.5280   35.7270 H   0  0  0  0  0  0  0  0  0  0  0  0
   39.8370   22.7710   36.8120 C   0  0  0  0  0  0  0  0  0  0  0  0
   40.3310   23.6950   35.8750 C   0  0  0  0  0  0  0  0  0  0  0  0
   41.6980   23.6910   35.5550 C   0  0  0  0  0  0  0  0  0  0  0  0
   42.4800   22.7750   36.1840 N   0  0  0  0  0  0  0  0  0  0  0  0
   42.0140   21.9060   37.0660 C   0  0  0  0  0  0  0  0  0  0  0  0
   40.7050   21.9050   37.3760 N   0  0  0  0  0  0  0  0  0  0  0  0
   42.0350   24.4080   34.8390 H   0  0  0  0  0  0  0  0  0  0  0  0
   42.6780   21.1860   37.5490 H   0  0  0  0  0  0  0  0  0  0  0  0
   37.7020   23.3900   38.1780 C   0  0  0  0  0  0  0  0  0  0  0  0
   38.2020   24.2680   38.9110 O   0  0  0  0  0  0  0  0  0  0  0  0
   38.4790   22.6950   37.1860 N   0  0  0  0  0  0  0  0  0  0  0  0
   36.6560   23.1850   38.3370 H   0  0  0  0  0  0  0  0  0  0  0  0
   37.8620   22.0040   36.6590 H   0  0  0  0  0  0  0  0  0  0  0  0
   38.6800   25.3500   30.6710 H   0  0  0  0  0  0  0  0  0  0  0  0
   38.4420   24.4360   31.1390 N   0  0  0  0  0  0  0  0  0  0  0  0
   37.8830   23.4840   30.1980 C   0  0  0  0  0  2  0  0  0  0  0  0
   36.9000   22.6360   30.9590 C   0  0  0  0  0  2  0  0  0  0  0  0
   36.6420   23.4070   32.2130 C   0  0  0  0  0  2  0  0  0  0  0  0
   37.4380   24.6920   32.1450 C   0  0  1  0  0  3  0  0  0  0  0  0
  1 12  1  0  0  0  0
  1  2  1  0  0  0  0
  2  9  1  0  0  0  0
  3 10  1  0  0  0  0
  3  2  2  0  0  0  0
  4  3  1  0  0  0  0
  5  4  2  0  0  0  0
  6  4  1  0  0  0  0
  6  7  1  0  0  0  0
  7  1  1  0  0  0  0
  8  7  2  0  0  0  0
 11 21  1  0  0  0  0
 11 16  1  0  0  0  0
 12 11  2  0  0  0  0
 13 12  1  0  0  0  0
 13 14  2  0  0  0  0
 14 15  1  0  0  0  0
 15 16  2  0  0  0  0
 15 18  1  0  0  0  0
 17 13  1  0  0  0  0
 19 22  1  0  0  0  0
 19 20  2  0  0  0  0
 21 19  1  0  0  0  0
 23 21  1  0  0  0  0
 24 25  1  0  0  0  0
 25 29  1  0  0  0  0
 26 27  1  0  0  0  0
 26 25  1  0  0  0  0
 27 28  1  0  0  0  0
 29 28  1  1  0  0  0
 29  6  1  0  0  0  0
M  END
>  <minimizedAffinity>
-4.89071512

$$$$

 OpenBabel03272507533D

 29 31  0  0  1  0  0  0  0  0999 V2000
   38.6000   22.4400   33.8530 N   0  0  0  0  0  0  0  0  0  0  0  0
   37.8310   21.4510   33.3760 C   0  0  0  0  0  0  0  0  0  0  0  0
   36.7750   21.7550   32.5180 C   0  0  0  0  0  0  0  0  0  0  0  0
   36.6230   23.0770   32.2390 C   0  0  0  0  0  0  0  0  0  0  0  0
   35.6550   23.3280   31.4540 O   0  0  0  0  0  0  0  0  0  0  0  0
   37.3620   24.0830   32.6900 N   0  0  0  0  0  0  0  0  0  0  0  0
   38.3760   23.7410   33.5200 C   0  0  0  0  0  0  0  0  0  0  0  0
   39.0970   24.6930   33.9660 O   0  0  0  0  0  0  0  0  0  0  0  0
   38.0540   20.4320   33.6750 H   0  0  0  0  0  0  0  0  0  0  0  0
   36.1610   20.9540   32.1370 H   0  0  0  0  0  0  0  0  0  0  0  0
   39.4320   22.1830   36.1240 C   0  0  0  0  0  0  0  0  0  0  0  0
   39.7000   22.1990   34.7440 C   0  0  0  0  0  0  0  0  0  0  0  0
   41.0110   21.9820   34.2920 C   0  0  0  0  0  0  0  0  0  0  0  0
   41.9650   21.7650   35.2350 N   0  0  0  0  0  0  0  0  0  0  0  0
   41.7120   21.7500   36.5330 C   0  0  0  0  0  0  0  0  0  0  0  0
   40.4580   21.9570   36.9730 N   0  0  0  0  0  0  0  0  0  0  0  0
   41.1750   22.0020   33.2370 H   0  0  0  0  0  0  0  0  0  0  0  0
   42.5090   21.5720   37.2590 H   0  0  0  0  0  0  0  0  0  0  0  0
   37.4640   23.5490   37.1560 C   0  0  0  0  0  0  0  0  0  0  0  0
   37.9970   24.6790   37.1400 O   0  0  0  0  0  0  0  0  0  0  0  0
   38.1460   22.3800   36.6680 N   0  0  0  0  0  0  0  0  0  0  0  0
   36.4660   23.5070   37.5600 H   0  0  0  0  0  0  0  0  0  0  0  0
   37.5120   21.5270   36.7530 H   0  0  0  0  0  0  0  0  0  0  0  0
   35.9590   26.3250   33.7580 H   0  0  0  0  0  0  0  0  0  0  0  0
   36.9650   26.3300   33.4430 N   0  0  0  0  0  0  0  0  0  0  0  0
   37.3840   27.6500   33.0110 C   0  0  0  0  0  2  0  0  0  0  0  0
   38.3990   27.4560   31.9190 C   0  0  0  0  0  2  0  0  0  0  0  0
   38.2190   26.0340   31.4950 C   0  0  0  0  0  2  0  0  0  0  0  0
   37.0880   25.4440   32.3100 C   0  0  1  0  0  3  0  0  0  0  0  0
  1 12  1  0  0  0  0
  2  9  1  0  0  0  0
  2  1  1  0  0  0  0
  3  2  2  0  0  0  0
  4  3  1  0  0  0  0
  4  6  1  0  0  0  0
  5  4  2  0  0  0  0
  6  7  1  0  0  0  0
  7  1  1  0  0  0  0
  7  8  2  0  0  0  0
 10  3  1  0  0  0  0
 11 21  1  0  0  0  0
 11 16  1  0  0  0  0
 12 11  2  0  0  0  0
 13 12  1  0  0  0  0
 13 14  2  0  0  0  0
 14 15  1  0  0  0  0
 15 16  2  0  0  0  0
 15 18  1  0  0  0  0
 17 13  1  0  0  0  0
 19 22  1  0  0  0  0
 20 19  2  0  0  0  0
 21 23  1  0  0  0  0
 21 19  1  0  0  0  0
 25 24  1  0  0  0  0
 26 25  1  0  0  0  0
 27 26  1  0  0  0  0
 28 27  1  0  0  0  0
 29 28  1  6  0  0  0
 29  6  1  0  0  0  0
 29 25  1  0  0  0  0
M  END
>  <minimizedAffinity>
-4.84552097

$$$$

 OpenBabel03272507533D

 29 31  0  0  1  0  0  0  0  0999 V2000
   36.4270   23.9900   31.8030 N   0  0  0  0  0  0  0  0  0  0  0  0
   35.5500   24.4980   30.9240 C   0  0  0  0  0  0  0  0  0  0  0  0
   35.2800   25.8650   30.9350 C   0  0  0  0  0  0  0  0  0  0  0  0
   35.9600   26.5780   31.8740 C   0  0  0  0  0  0  0  0  0  0  0  0
   35.6970   27.8210   31.8630 O   0  0  0  0  0  0  0  0  0  0  0  0
   36.8330   26.1130   32.7580 N   0  0  0  0  0  0  0  0  0  0  0  0
   37.0640   24.7800   32.7100 C   0  0  0  0  0  0  0  0  0  0  0  0
   37.9000   24.3130   33.5530 O   0  0  0  0  0  0  0  0  0  0  0  0
   35.0710   23.8230   30.2220 H   0  0  0  0  0  0  0  0  0  0  0  0
   34.5750   26.2670   30.2250 H   0  0  0  0  0  0  0  0  0  0  0  0
   37.7940   22.1340   31.0290 C   0  0  0  0  0  0  0  0  0  0  0  0
   36.7480   22.5920   31.8490 C   0  0  0  0  0  0  0  0  0  0  0  0
   36.0660   21.6810   32.6720 C   0  0  0  0  0  0  0  0  0  0  0  0
   36.4640   20.3830   32.6260 N   0  0  0  0  0  0  0  0  0  0  0  0
   37.4480   19.9530   31.8540 C   0  0  0  0  0  0  0  0  0  0  0  0
   38.1060   20.8200   31.0630 N   0  0  0  0  0  0  0  0  0  0  0  0
   35.2780   22.0670   33.2800 H   0  0  0  0  0  0  0  0  0  0  0  0
   37.7370   18.9000   31.8470 H   0  0  0  0  0  0  0  0  0  0  0  0
   39.7700   23.7010   30.3640 C   0  0  0  0  0  0  0  0  0  0  0  0
   40.4120   23.6520   31.4340 O   0  0  0  0  0  0  0  0  0  0  0  0
   38.5410   22.9760   30.1800 N   0  0  0  0  0  0  0  0  0  0  0  0
   40.1940   24.3210   29.5900 H   0  0  0  0  0  0  0  0  0  0  0  0
   38.1670   23.1370   29.1950 H   0  0  0  0  0  0  0  0  0  0  0  0
   36.4020   27.0290   35.4250 H   0  0  0  0  0  0  0  0  0  0  0  0
   37.2880   26.5790   35.0710 N   0  0  0  0  0  0  0  0  0  0  0  0
   38.4470   27.0170   35.8250 C   0  0  0  0  0  2  0  0  0  0  0  0
   39.6140   27.0270   34.8750 C   0  0  0  0  0  2  0  0  0  0  0  0
   38.9860   26.9810   33.5200 C   0  0  0  0  0  2  0  0  0  0  0  0
   37.4830   26.9860   33.6990 C   0  0  1  0  0  3  0  0  0  0  0  0
  1 12  1  0  0  0  0
  1  7  1  0  0  0  0
  2  3  2  0  0  0  0
  2  1  1  0  0  0  0
  3  4  1  0  0  0  0
  4  6  1  0  0  0  0
  5  4  2  0  0  0  0
  7  6  1  0  0  0  0
  7  8  2  0  0  0  0
  9  2  1  0  0  0  0
 10  3  1  0  0  0  0
 11 16  2  0  0  0  0
 11 12  1  0  0  0  0
 12 13  2  0  0  0  0
 13 17  1  0  0  0  0
 14 13  1  0  0  0  0
 15 14  2  0  0  0  0
 16 15  1  0  0  0  0
 18 15  1  0  0  0  0
 19 20  2  0  0  0  0
 21 19  1  0  0  0  0
 21 11  1  0  0  0  0
 22 19  1  0  0  0  0
 23 21  1  0  0  0  0
 25 24  1  0  0  0  0
 25 26  1  0  0  0  0
 27 26  1  0  0  0  0
 28 29  1  0  0  0  0
 28 27  1  0  0  0  0
 29  6  1  6  0  0  0
 29 25  1  0  0  0  0
M  END
>  <minimizedAffinity>
-4.82917356

$$$$

 OpenBabel03272507533D

 29 31  0  0  1  0  0  0  0  0999 V2000
   36.0300   26.4790   31.6000 N   0  0  0  0  0  0  0  0  0  0  0  0
   35.2250   25.6080   30.9730 C   0  0  0  0  0  0  0  0  0  0  0  0
   35.4380   24.2400   31.1310 C   0  0  0  0  0  0  0  0  0  0  0  0
   36.4820   23.9090   31.9380 C   0  0  0  0  0  0  0  0  0  0  0  0
   36.6550   22.6570   32.0660 O   0  0  0  0  0  0  0  0  0  0  0  0
   37.2980   24.7400   32.5750 N   0  0  0  0  0  0  0  0  0  0  0  0
   37.0540   26.0590   32.3920 C   0  0  0  0  0  0  0  0  0  0  0  0
   37.8280   26.8740   32.9950 O   0  0  0  0  0  0  0  0  0  0  0  0
   34.4240   25.9980   30.3540 H   0  0  0  0  0  0  0  0  0  0  0  0
   34.7870   23.5450   30.6240 H   0  0  0  0  0  0  0  0  0  0  0  0
   36.5520   28.5470   30.4320 C   0  0  0  0  0  0  0  0  0  0  0  0
   35.8700   27.9000   31.4780 C   0  0  0  0  0  0  0  0  0  0  0  0
   35.0700   28.6540   32.3510 C   0  0  0  0  0  0  0  0  0  0  0  0
   35.0000   29.9920   32.1310 N   0  0  0  0  0  0  0  0  0  0  0  0
   35.6420   30.6000   31.1470 C   0  0  0  0  0  0  0  0  0  0  0  0
   36.4100   29.8840   30.3070 N   0  0  0  0  0  0  0  0  0  0  0  0
   34.5680   28.1270   33.1330 H   0  0  0  0  0  0  0  0  0  0  0  0
   35.5580   31.6800   31.0040 H   0  0  0  0  0  0  0  0  0  0  0  0
   38.7840   27.6180   29.4530 C   0  0  0  0  0  0  0  0  0  0  0  0
   39.5550   28.0060   30.3550 O   0  0  0  0  0  0  0  0  0  0  0  0
   37.3680   27.8710   29.5020 N   0  0  0  0  0  0  0  0  0  0  0  0
   39.2450   27.0850   28.6370 H   0  0  0  0  0  0  0  0  0  0  0  0
   36.8920   27.4420   28.6510 H   0  0  0  0  0  0  0  0  0  0  0  0
   40.1020   24.2720   32.3320 H   0  0  0  0  0  0  0  0  0  0  0  0
   39.6440   24.8500   33.0860 N   0  0  0  0  0  0  0  0  0  0  0  0
   40.4330   24.8640   34.3030 C   0  0  0  0  0  2  0  0  0  0  0  0
   39.4690   24.9610   35.4540 C   0  0  0  0  0  2  0  0  0  0  0  0
   38.1490   24.5910   34.8600 C   0  0  0  0  0  2  0  0  0  0  0  0
   38.3690   24.2500   33.4030 C   0  0  1  0  0  3  0  0  0  0  0  0
  1  7  1  0  0  0  0
  2  3  2  0  0  0  0
  2  1  1  0  0  0  0
  3  4  1  0  0  0  0
  4  5  2  0  0  0  0
  4  6  1  0  0  0  0
  7  6  1  0  0  0  0
  7  8  2  0  0  0  0
  9  2  1  0  0  0  0
 10  3  1  0  0  0  0
 11 12  1  0  0  0  0
 12  1  1  0  0  0  0
 12 13  2  0  0  0  0
 13 17  1  0  0  0  0
 14 13  1  0  0  0  0
 15 14  2  0  0  0  0
 16 11  2  0  0  0  0
 16 15  1  0  0  0  0
 18 15  1  0  0  0  0
 19 21  1  0  0  0  0
 19 20  2  0  0  0  0
 21 11  1  0  0  0  0
 22 19  1  0  0  0  0
 23 21  1  0  0  0  0
 24 25  1  0  0  0  0
 25 29  1  0  0  0  0
 25 26  1  0  0  0  0
 26 27  1  0  0  0  0
 28 27  1  0  0  0  0
 29  6  1  6  0  0  0
 29 28  1  0  0  0  0
M  END
>  <minimizedAffinity>
-4.82690001

$$$$

 OpenBabel03272507533D

 29 31  0  0  1  0  0  0  0  0999 V2000
   37.5720   24.9140   32.6670 N   0  0  0  0  0  0  0  0  0  0  0  0
   37.3060   23.6830   32.2050 C   0  0  0  0  0  0  0  0  0  0  0  0
   37.4510   22.5860   33.0530 C   0  0  0  0  0  0  0  0  0  0  0  0
   37.8650   22.8840   34.3140 C   0  0  0  0  0  0  0  0  0  0  0  0
   37.9900   21.8680   35.0660 O   0  0  0  0  0  0  0  0  0  0  0  0
   38.1370   24.0860   34.8060 N   0  0  0  0  0  0  0  0  0  0  0  0
   37.9830   25.1210   33.9480 C   0  0  0  0  0  0  0  0  0  0  0  0
   38.2400   26.2850   34.4020 O   0  0  0  0  0  0  0  0  0  0  0  0
   36.9820   23.5750   31.1760 H   0  0  0  0  0  0  0  0  0  0  0  0
   37.2350   21.5990   32.6760 H   0  0  0  0  0  0  0  0  0  0  0  0
   38.6190   26.6060   31.2690 C   0  0  0  0  0  0  0  0  0  0  0  0
   37.4480   26.0870   31.8480 C   0  0  0  0  0  0  0  0  0  0  0  0
   36.2180   26.7210   31.6090 C   0  0  0  0  0  0  0  0  0  0  0  0
   36.2320   27.8240   30.8160 N   0  0  0  0  0  0  0  0  0  0  0  0
   37.3340   28.3130   30.2720 C   0  0  0  0  0  0  0  0  0  0  0  0
   38.5160   27.7090   30.4960 N   0  0  0  0  0  0  0  0  0  0  0  0
   35.3520   26.2960   32.0660 H   0  0  0  0  0  0  0  0  0  0  0  0
   37.3020   29.2020   29.6390 H   0  0  0  0  0  0  0  0  0  0  0  0
   41.0400   26.4220   32.2210 C   0  0  0  0  0  0  0  0  0  0  0  0
   41.0350   27.4460   32.9360 O   0  0  0  0  0  0  0  0  0  0  0  0
   39.8940   26.0310   31.4440 N   0  0  0  0  0  0  0  0  0  0  0  0
   41.9570   25.8550   32.2210 H   0  0  0  0  0  0  0  0  0  0  0  0
   40.1000   25.1240   30.9240 H   0  0  0  0  0  0  0  0  0  0  0  0
   36.9330   24.4870   37.3610 H   0  0  0  0  0  0  0  0  0  0  0  0
   37.6270   23.7280   37.1280 N   0  0  0  0  0  0  0  0  0  0  0  0
   38.3810   23.3150   38.2960 C   0  0  0  0  0  2  0  0  0  0  0  0
   39.7510   22.9160   37.8190 C   0  0  0  0  0  2  0  0  0  0  0  0
   39.8500   23.5020   36.4490 C   0  0  0  0  0  2  0  0  0  0  0  0
   38.5690   24.2580   36.1690 C   0  0  1  0  0  3  0  0  0  0  0  0
  1  7  1  0  0  0  0
  2  1  1  0  0  0  0
  2  3  2  0  0  0  0
  3  4  1  0  0  0  0
  4  6  1  0  0  0  0
  4  5  2  0  0  0  0
  7  8  2  0  0  0  0
  7  6  1  0  0  0  0
  9  2  1  0  0  0  0
 10  3  1  0  0  0  0
 11 21  1  0  0  0  0
 11 12  1  0  0  0  0
 12  1  1  0  0  0  0
 13 12  2  0  0  0  0
 13 17  1  0  0  0  0
 14 13  1  0  0  0  0
 15 16  1  0  0  0  0
 15 14  2  0  0  0  0
 16 11  2  0  0  0  0
 18 15  1  0  0  0  0
 19 20  2  0  0  0  0
 21 19  1  0  0  0  0
 22 19  1  0  0  0  0
 23 21  1  0  0  0  0
 25 24  1  0  0  0  0
 25 26  1  0  0  0  0
 27 26  1  0  0  0  0
 28 27  1  0  0  0  0
 29  6  1  6  0  0  0
 29 28  1  0  0  0  0
 29 25  1  0  0  0  0
M  END
>  <minimizedAffinity>
-4.75494051

$$$$
