
     RDKit          3D

 36 39  0  0  0  0  0  0  0  0999 V2000
   36.8537   30.5461   46.9203 C   0  0  0  0  0  0  0  0  0  0  0  0
   37.5183   31.0338   48.0270 C   0  0  0  0  0  0  0  0  0  0  0  0
   38.5174   31.9972   47.9021 C   0  0  0  0  0  0  0  0  0  0  0  0
   38.7939   32.4274   46.5965 C   0  0  0  0  0  0  0  0  0  0  0  0
   39.7217   33.3559   46.2175 N   0  0  0  0  0  0  0  0  0  0  0  0
   39.6397   33.4499   44.8826 C   0  0  0  0  0  0  0  0  0  0  0  0
   38.7085   32.6255   44.4278 N   0  0  0  0  0  0  0  0  0  0  0  0
   38.1574   31.9687   45.4714 C   0  0  0  0  0  0  0  0  0  0  0  0
   37.1656   31.0066   45.6398 C   0  0  0  0  0  0  0  0  0  0  0  0
   37.3782   30.0763   51.6525 C   0  0  0  0  0  0  0  0  0  0  0  0
   37.8672   30.6360   50.4803 C   0  0  0  0  0  0  0  0  0  0  0  0
   37.1355   30.5041   49.3227 C   0  0  0  0  0  0  0  0  0  0  0  0
   35.9670   29.8224   49.4177 N   0  0  0  0  0  0  0  0  0  0  0  0
   35.4941   29.2793   50.5593 C   0  0  0  0  0  0  0  0  0  0  0  0
   36.2067   29.4139   51.6612 N   0  0  0  0  0  0  0  0  0  0  0  0
   40.4711   34.3287   44.1792 O   0  0  0  0  0  0  0  0  0  0  0  0
   36.0738   29.7989   46.9800 H   0  0  0  0  0  0  0  0  0  0  0  0
   39.0270   32.3704   48.7565 H   0  0  0  0  0  0  0  0  0  0  0  0
   40.3603   33.8772   46.8710 H   0  0  0  0  0  0  0  0  0  0  0  0
   36.6634   30.6447   44.7521 H   0  0  0  0  0  0  0  0  0  0  0  0
   37.9988   30.2143   52.5265 H   0  0  0  0  0  0  0  0  0  0  0  0
   38.8020   31.1778   50.4188 H   0  0  0  0  0  0  0  0  0  0  0  0
   34.5516   28.7462   50.5671 H   0  0  0  0  0  0  0  0  0  0  0  0
   39.2744   32.6323   42.3317 H   0  0  0  0  0  0  0  0  0  0  0  0
   39.2171   33.6666   42.2551 N   0  0  0  0  0  0  0  0  0  0  0  0
   39.0493   34.1635   40.9215 C   0  0  0  0  0  0  0  0  0  0  0  0
   39.7889   35.4877   40.8191 C   0  0  0  0  0  0  0  0  0  0  0  0
   40.0512   35.8080   42.2963 C   0  0  0  0  0  0  0  0  0  0  0  0
   40.3370   34.3814   42.7820 C   0  0  1  0  0  0  0  0  0  0  0  0
   37.9785   34.3771   40.6742 H   0  0  0  0  0  0  0  0  0  0  0  0
   39.4356   33.4276   40.1872 H   0  0  0  0  0  0  0  0  0  0  0  0
   40.8028   35.3118   40.3728 H   0  0  0  0  0  0  0  0  0  0  0  0
   39.2150   36.2702   40.3114 H   0  0  0  0  0  0  0  0  0  0  0  0
   40.9102   36.4666   42.4437 H   0  0  0  0  0  0  0  0  0  0  0  0
   39.1129   36.1735   42.7862 H   0  0  0  0  0  0  0  0  0  0  0  0
   41.2995   34.1017   42.3251 H   0  0  0  0  0  0  0  0  0  0  0  0
  1  2  2  0
  2 12  1  0
  3  2  1  0
  4  3  2  0
  5  4  1  0
  6  5  1  0
  7  6  2  0
  7  8  1  0
  8  9  2  0
  8  4  1  0
  9  1  1  0
 10 15  2  0
 11 10  1  0
 12 13  1  0
 12 11  2  0
 13 14  2  0
 14 15  1  0
 16  6  1  0
  1 17  1  0
  3 18  1  0
  5 19  1  0
  9 20  1  0
 10 21  1  0
 11 22  1  0
 14 23  1  0
 24 25  1  0
 25 26  1  0
 26 27  1  0
 27 28  1  0
 28 29  1  0
 29 25  1  0
 26 30  1  0
 26 31  1  0
 27 32  1  0
 27 33  1  0
 28 34  1  0
 28 35  1  0
 29 36  1  6
 16 29  1  0
M  ISO  8  17  14  18  14  19   9  20  14  21  14  22  14  23  14  24   5
M  END
>  <DihAtoms>  (1) 
5,15,28,27

>  <DihDeg>  (1) 
-115.91573645948102

$$$$
