REMARK  Name = 
REMARK  2 active torsions:
REMARK  status: ('A' for Active; 'I' for Inactive)
REMARK    1  A    between atoms: C_5  and  C_9
REMARK    2  A    between atoms: C_11  and  N_20
REMARK                            x       y       z     vdW  Elec       q    Type
REMARK                         _______ _______ _______ _____ _____    ______ ____
ROOT
ATOM      1 BR   UNL     1      37.269  29.360  51.059  0.00  0.00    +0.000 Br
ATOM      2  C   UNL     1      35.950  29.314  49.665  0.00  0.00    +0.000 A 
ATOM      3  C   UNL     1      36.002  30.212  48.621  0.00  0.00    +0.000 A 
ATOM      4  C   UNL     1      35.018  30.121  47.650  0.00  0.00    +0.000 A 
ATOM      5  C   UNL     1      34.014  29.186  47.691  0.00  0.00    +0.000 A 
ATOM      6  C   UNL     1      33.989  28.309  48.738  0.00  0.00    +0.000 A 
ATOM      7  C   UNL     1      34.967  28.377  49.731  0.00  0.00    +0.000 A 
ATOM      8  H   UNL     1      35.095  30.844  46.849  0.00  0.00    +0.000 HD
ATOM      9  H   UNL     1      33.201  27.586  48.758  0.00  0.00    +0.000 HD
ATOM     10  H   UNL     1      34.929  27.672  50.554  0.00  0.00    +0.000 HD
ENDROOT
BRANCH   3  15
ATOM     11  C   UNL     1      37.979  33.167  49.442  0.00  0.00    +0.000 A 
ATOM     12  C   UNL     1      39.017  33.162  48.459  0.00  0.00    +0.000 A 
ATOM     13  C   UNL     1      39.009  32.123  47.524  0.00  0.00    +0.000 A 
ATOM     14  N   UNL     1      38.023  31.182  47.598  0.00  0.00    +0.000 NA
ATOM     15  C   UNL     1      37.059  31.224  48.545  0.00  0.00    +0.000 A 
ATOM     16  N   UNL     1      37.042  32.214  49.460  0.00  0.00    +0.000 NA
ATOM     17  H   UNL     1      38.021  33.990  50.150  0.00  0.00    +0.000 HD
ATOM     18  H   UNL     1      39.789  33.920  48.421  0.00  0.00    +0.000 HD
ATOM     19  H   UNL     1      39.756  32.041  46.745  0.00  0.00    +0.000 HD
ENDBRANCH   3  15
BRANCH   5  20
ATOM     20  N   UNL     1      33.032  29.142  46.664  0.00  0.00    +0.000 N 
ATOM     21  C   UNL     1      33.256  28.924  45.250  0.00  0.00    +0.000 C 
ATOM     22  C   UNL     1      31.875  28.526  44.712  0.00  0.00    +0.000 C 
ATOM     23  C   UNL     1      30.997  29.500  45.510  0.00  0.00    +0.000 C 
ATOM     24  C   UNL     1      31.592  29.319  46.886  0.00  0.00    +0.000 C 
ATOM     25  H   UNL     1      31.155  28.375  47.307  0.00  0.00    +0.000 HD
ENDBRANCH   5  20
TORSDOF 2
