
 OpenBabel03272510243D

 29 32  0  0  1  0  0  0  0  0999 V2000
   36.2030   30.1860   46.9250 C   0  0  0  0  0  0  0  0  0  0  0  0
   37.0480   30.7420   47.8630 C   0  0  0  0  0  0  0  0  0  0  0  0
   38.0390   31.6490   47.4930 C   0  0  0  0  0  0  0  0  0  0  0  0
   38.1130   31.9520   46.1260 C   0  0  0  0  0  0  0  0  0  0  0  0
   38.9920   32.8060   45.5210 N   0  0  0  0  0  0  0  0  0  0  0  0
   38.6990   32.7850   44.2130 C   0  0  0  0  0  0  0  0  0  0  0  0
   37.6860   31.9630   43.9890 N   0  0  0  0  0  0  0  0  0  0  0  0
   37.2920   31.4230   45.1630 C   0  0  0  0  0  0  0  0  0  0  0  0
   36.3160   30.5200   45.5750 C   0  0  0  0  0  0  0  0  0  0  0  0
   35.4230   29.4790   47.1770 H   0  0  0  0  0  0  0  0  0  0  0  0
   38.6890   32.0750   48.2190 H   0  0  0  0  0  0  0  0  0  0  0  0
   39.7400   33.3560   46.0140 H   0  0  0  0  0  0  0  0  0  0  0  0
   35.6680   30.1020   44.8150 H   0  0  0  0  0  0  0  0  0  0  0  0
   37.4530   30.1420   51.5460 C   0  0  0  0  0  0  0  0  0  0  0  0
   37.7600   30.5820   50.2640 C   0  0  0  0  0  0  0  0  0  0  0  0
   36.8660   30.3440   49.2470 C   0  0  0  0  0  0  0  0  0  0  0  0
   35.7290   29.6830   49.5800 N   0  0  0  0  0  0  0  0  0  0  0  0
   35.4340   29.2580   50.8260 C   0  0  0  0  0  0  0  0  0  0  0  0
   36.3010   29.4930   51.7910 N   0  0  0  0  0  0  0  0  0  0  0  0
   38.1960   30.3600   52.3000 H   0  0  0  0  0  0  0  0  0  0  0  0
   38.6720   31.1080   50.0130 H   0  0  0  0  0  0  0  0  0  0  0  0
   34.5070   28.7350   51.0250 H   0  0  0  0  0  0  0  0  0  0  0  0
   39.4280   33.5650   43.3080 O   0  0  0  0  0  0  0  0  0  0  0  0
   40.3520   31.3350   41.9300 H   0  0  0  0  0  0  0  0  0  0  0  0
   39.4470   31.7940   41.7040 N   0  0  0  0  0  0  0  0  0  0  0  0
   39.0170   31.6370   40.3470 C   0  0  0  0  0  2  0  0  0  0  0  0
   38.2850   32.9050   39.9380 C   0  0  0  0  0  2  0  0  0  0  0  0
   38.0630   33.5820   41.2970 C   0  0  0  0  0  2  0  0  0  0  0  0
   39.3960   33.1990   41.9520 C   0  0  1  0  0  3  0  0  0  0  0  0
  1 10  1  0  0  0  0
  1  2  1  0  0  0  0
  2 16  1  0  0  0  0
  3  2  2  0  0  0  0
  3 11  1  0  0  0  0
  4  3  1  0  0  0  0
  5 12  1  0  0  0  0
  5  4  1  0  0  0  0
  6  5  1  0  0  0  0
  7  6  2  0  0  0  0
  7  8  1  0  0  0  0
  8  9  1  0  0  0  0
  8  4  2  0  0  0  0
  9  1  2  0  0  0  0
 13  9  1  0  0  0  0
 14 19  1  0  0  0  0
 14 20  1  0  0  0  0
 15 14  2  0  0  0  0
 16 17  2  0  0  0  0
 16 15  1  0  0  0  0
 17 18  1  0  0  0  0
 18 22  1  0  0  0  0
 18 19  2  0  0  0  0
 21 15  1  0  0  0  0
 23  6  1  0  0  0  0
 25 24  1  0  0  0  0
 25 29  1  0  0  0  0
 26 25  1  0  0  0  0
 27 26  1  0  0  0  0
 27 28  1  0  0  0  0
 28 29  1  0  0  0  0
 29 23  1  1  0  0  0
M  END
>  <minimizedAffinity>
-5.39421368

>  <minimizedRMSD>
1.18002486

$$$$
