
 OpenBabel03262522593D

 35 39  0  0  0  0  0  0  0  0999 V2000
   34.7490   28.9880   48.9690 C   0  0  0  0  0  0  0  0  0  0  0  0
   34.6990   28.4030   47.7020 C   0  0  0  0  0  0  0  0  0  0  0  0
   33.4370   27.9030   47.5120 C   0  0  0  0  0  0  0  0  0  0  0  0
   32.7340   28.1910   48.6670 N   0  0  0  0  0  0  0  0  0  0  0  0
   33.5500   28.8300   49.4940 N   0  0  0  0  0  0  0  0  0  0  0  0
   30.5390   27.4910   47.8030 N   0  0  0  0  0  0  0  0  0  0  0  0
   31.3700   27.8160   48.8300 C   0  0  0  0  0  0  0  0  0  0  0  0
   30.6500   27.7060   49.9530 N   0  0  0  0  0  0  0  0  0  0  0  0
   29.3900   27.3230   49.6780 C   0  0  0  0  0  0  0  0  0  0  0  0
   28.2390   27.0540   50.3680 C   0  0  0  0  0  0  0  0  0  0  0  0
   27.1290   26.6800   49.7010 N   0  0  0  0  0  0  0  0  0  0  0  0
   27.1070   26.5600   48.3540 C   0  0  0  0  0  0  0  0  0  0  0  0
   28.2160   26.8160   47.6490 N   0  0  0  0  0  0  0  0  0  0  0  0
   29.3270   27.1890   48.3040 C   0  0  0  0  0  0  0  0  0  0  0  0
   35.4920   28.3370   46.9770 H   0  0  0  0  0  0  0  0  0  0  0  0
   33.0540   27.3780   46.6220 H   0  0  0  0  0  0  0  0  0  0  0  0
   30.7930   27.4760   46.7700 H   0  0  0  0  0  0  0  0  0  0  0  0
   26.2160   26.2610   47.8190 H   0  0  0  0  0  0  0  0  0  0  0  0
   37.5090   29.7640   51.2460 C   0  0  0  0  0  0  0  0  0  0  0  0
   38.1400   30.8630   50.5990 C   0  0  0  0  0  0  0  0  0  0  0  0
   37.5930   31.2950   49.4060 C   0  0  0  0  0  0  0  0  0  0  0  0
   36.5020   30.6830   48.8920 N   0  0  0  0  0  0  0  0  0  0  0  0
   35.9170   29.6270   49.5390 C   0  0  0  0  0  0  0  0  0  0  0  0
   36.4290   29.1910   50.6950 N   0  0  0  0  0  0  0  0  0  0  0  0
   37.9030   29.3920   52.1820 H   0  0  0  0  0  0  0  0  0  0  0  0
   38.9950   31.3090   51.0440 H   0  0  0  0  0  0  0  0  0  0  0  0
   38.1600   32.3810   48.7030 N   0  0  0  0  0  0  0  0  0  0  0  0
   38.7060   32.4100   47.3670 C   0  0  0  0  0  0  0  0  0  0  0  0
   39.8620   33.3890   47.4010 C   0  0  0  0  0  0  0  0  0  0  0  0
   39.6870   34.2020   48.6620 C   0  0  0  0  0  0  0  0  0  0  0  0
   38.3320   33.7330   49.1550 C   0  0  0  0  0  0  0  0  0  0  0  0
   37.5370   34.4000   48.7500 H   0  0  0  0  0  0  0  0  0  0  0  0
   28.2870   27.1880   51.7830 N   0  0  0  0  0  0  0  0  0  0  0  0
   28.7950   26.3690   52.1590 H   0  0  0  0  0  0  0  0  0  0  0  0
   27.7940   28.0780   52.0480 H   0  0  0  0  0  0  0  0  0  0  0  0
  1  5  2  0  0  0  0
  1 23  1  0  0  0  0
  2  1  1  0  0  0  0
  3  2  2  0  0  0  0
  3  4  1  0  0  0  0
  4  7  1  0  0  0  0
  4  5  1  0  0  0  0
  6 14  1  0  0  0  0
  6  7  1  0  0  0  0
  7  8  2  0  0  0  0
  9  8  1  0  0  0  0
  9 10  1  0  0  0  0
 10 33  1  0  0  0  0
 11 10  2  0  0  0  0
 12 11  1  0  0  0  0
 13 14  1  0  0  0  0
 13 12  2  0  0  0  0
 14  9  2  0  0  0  0
 15  2  1  0  0  0  0
 16  3  1  0  0  0  0
 17  6  1  0  0  0  0
 18 12  1  0  0  0  0
 19 25  1  0  0  0  0
 20 26  1  0  0  0  0
 20 19  2  0  0  0  0
 21 20  1  0  0  0  0
 22 21  2  0  0  0  0
 22 23  1  0  0  0  0
 23 24  2  0  0  0  0
 24 19  1  0  0  0  0
 27 31  1  0  0  0  0
 27 21  1  0  0  0  0
 28 29  1  0  0  0  0
 28 27  1  0  0  0  0
 29 30  1  0  0  0  0
 30 31  1  0  0  0  0
 32 31  1  0  0  0  0
 33 35  1  0  0  0  0
 33 34  1  0  0  0  0
M  END
>  <minimizedAffinity>
-7.77196455

>  <minimizedRMSD>
0.51815933

$$$$
