
 OpenBabel03272509033D

 30 32  0  0  0  0  0  0  0  0999 V2000
   36.6550   29.3420   49.4970 C   0  0  0  0  0  0  0  0  0  0  0  0
   35.4540   29.2030   49.0560 C   0  0  0  0  0  0  0  0  0  0  0  0
   38.2950   32.6000   49.7530 C   0  0  0  0  0  0  0  0  0  0  0  0
   38.8090   32.7590   48.4460 C   0  0  0  0  0  0  0  0  0  0  0  0
   38.5690   31.7340   47.5140 C   0  0  0  0  0  0  0  0  0  0  0  0
   37.8510   30.6310   47.9160 N   0  0  0  0  0  0  0  0  0  0  0  0
   37.3920   30.5490   49.1820 C   0  0  0  0  0  0  0  0  0  0  0  0
   37.6060   31.5120   50.0910 N   0  0  0  0  0  0  0  0  0  0  0  0
   38.5210   33.4290   50.4100 H   0  0  0  0  0  0  0  0  0  0  0  0
   39.3620   33.6320   48.1730 H   0  0  0  0  0  0  0  0  0  0  0  0
   39.0500   31.8200   46.1820 N   0  0  0  0  0  0  0  0  0  0  0  0
   40.3380   31.3480   45.7210 C   0  0  0  0  0  0  0  0  0  0  0  0
   40.6870   32.2750   44.5830 C   0  0  0  0  0  0  0  0  0  0  0  0
   39.3870   32.7900   44.0630 C   0  0  0  0  0  0  0  0  0  0  0  0
   38.3290   32.3950   45.0670 C   0  0  0  0  0  0  0  0  0  0  0  0
   37.6630   31.6340   44.6100 H   0  0  0  0  0  0  0  0  0  0  0  0
   34.5100   28.0870   49.2220 C   0  0  0  0  0  0  0  0  0  0  0  0
   33.6220   28.3990   49.8040 H   0  0  0  0  0  0  0  0  0  0  0  0
   34.9800   27.2420   49.7760 H   0  0  0  0  0  0  0  0  0  0  0  0
   34.0350   27.5140   47.9350 C   0  0  0  0  0  0  0  0  0  0  0  0
   33.7120   26.2030   47.6930 C   0  0  0  0  0  0  0  0  0  0  0  0
   33.2780   25.8020   46.4450 C   0  0  0  0  0  0  0  0  0  0  0  0
   33.1560   26.7180   45.3990 C   0  0  0  0  0  0  0  0  0  0  0  0
   33.4700   28.0260   45.6160 C   0  0  0  0  0  0  0  0  0  0  0  0
   33.9060   28.4230   46.8690 C   0  0  0  0  0  0  0  0  0  0  0  0
   33.8220   25.5250   48.5370 H   0  0  0  0  0  0  0  0  0  0  0  0
   33.0520   24.7380   46.3740 H   0  0  0  0  0  0  0  0  0  0  0  0
   32.8100   26.3410   44.4420 H   0  0  0  0  0  0  0  0  0  0  0  0
   33.3790   28.7480   44.8050 H   0  0  0  0  0  0  0  0  0  0  0  0
   34.1360   29.4770   46.9630 H   0  0  0  0  0  0  0  0  0  0  0  0
  2 17  1  0  0  0  0
  2  1  2  0  0  0  0
  3  8  1  0  0  0  0
  3  9  1  0  0  0  0
  4  3  2  0  0  0  0
  5  6  2  0  0  0  0
  5  4  1  0  0  0  0
  6  7  1  0  0  0  0
  7  1  1  0  0  0  0
  7  8  2  0  0  0  0
 10  4  1  0  0  0  0
 11  5  1  0  0  0  0
 12 11  1  0  0  0  0
 13 12  1  0  0  0  0
 14 13  1  0  0  0  0
 14 15  1  0  0  0  0
 15 11  1  0  0  0  0
 16 15  1  0  0  0  0
 17 19  1  0  0  0  0
 17 18  1  0  0  0  0
 20 17  1  0  0  0  0
 21 20  1  0  0  0  0
 21 26  1  0  0  0  0
 22 21  2  0  0  0  0
 23 24  2  0  0  0  0
 23 22  1  0  0  0  0
 24 25  1  0  0  0  0
 25 30  1  0  0  0  0
 25 20  2  0  0  0  0
 27 22  1  0  0  0  0
 28 23  1  0  0  0  0
 29 24  1  0  0  0  0
M  END
>  <minimizedAffinity>
-6.18592739

>  <minimizedRMSD>
2.2590332

$$$$
