
 OpenBabel03272504223D

 36 38  0  0  1  0  0  0  0  0999 V2000
   36.7890   31.5330   48.8410 O   0  0  0  0  0  0  0  0  0  0  0  0
   38.7230   32.3640   47.8530 C   0  0  2  0  0  0  0  0  0  0  0  0
   38.1550   31.3410   48.8170 C   0  0  1  0  0  0  0  0  0  0  0  0
   38.7660   31.9010   50.1110 C   0  0  0  0  0  0  0  0  0  0  0  0
   38.4130   33.2380   50.0210 O   0  0  0  0  0  0  0  0  0  0  0  0
   38.5710   33.6330   48.7010 C   0  0  0  0  0  0  0  0  0  0  0  0
   39.7920   32.1720   47.6440 H   0  0  0  0  0  0  0  0  0  0  0  0
   38.4660   30.3150   48.6190 H   0  0  0  0  0  0  0  0  0  0  0  0
   38.2780   31.4700   51.0140 H   0  0  0  0  0  0  0  0  0  0  0  0
   39.8380   31.7290   50.1550 H   0  0  0  0  0  0  0  0  0  0  0  0
   37.6410   34.1120   48.3620 H   0  0  0  0  0  0  0  0  0  0  0  0
   39.4790   34.2610   48.5790 H   0  0  0  0  0  0  0  0  0  0  0  0
   37.9320   32.3810   46.7260 O   0  0  0  0  0  0  0  0  0  0  0  0
   39.2970   34.1060   44.7980 H   0  0  0  0  0  0  0  0  0  0  0  0
   39.6430   33.3420   45.4190 N   0  0  0  0  0  0  0  0  0  0  0  0
   40.7330   32.6910   44.6820 C   0  0  0  0  0  2  0  0  0  0  0  0
   40.8600   31.3960   45.4590 C   0  0  0  0  0  2  0  0  0  0  0  0
   39.3920   30.9880   45.5520 C   0  0  0  0  0  2  0  0  0  0  0  0
   38.6270   32.2960   45.5340 C   0  0  1  0  0  3  0  0  0  0  0  0
   35.8850   29.8160   47.0990 O   0  0  0  0  0  0  0  0  0  0  0  0
   35.9170   30.1170   48.5710 P   0  0  1  0  0  0  0  0  0  0  0  0
   36.7000   28.8100   49.3610 O   0  0  0  0  0  0  0  0  0  0  0  0
   37.2010   28.2800   48.7120 H   0  0  0  0  0  0  0  0  0  0  0  0
   34.3410   30.2820   49.1840 O   0  0  0  0  0  0  0  0  0  0  0  0
   34.0550   29.1160   49.8690 C   0  0  0  0  0  0  0  0  0  0  0  0
   33.4550   29.4300   50.7650 H   0  0  0  0  0  0  0  0  0  0  0  0
   34.9800   28.6070   50.2510 H   0  0  0  0  0  0  0  0  0  0  0  0
   33.2030   28.1770   49.1060 C   0  0  0  0  0  0  0  0  0  0  0  0
   33.8480   27.3050   48.2600 C   0  0  0  0  0  0  0  0  0  0  0  0
   33.1020   26.3910   47.5120 C   0  0  0  0  0  0  0  0  0  0  0  0
   31.7480   26.4250   47.6710 N   0  0  0  0  0  0  0  0  0  0  0  0
   31.1400   27.2900   48.5060 C   0  0  0  0  0  0  0  0  0  0  0  0
   31.8660   28.1660   49.2250 N   0  0  0  0  0  0  0  0  0  0  0  0
   34.9010   27.2040   48.0690 H   0  0  0  0  0  0  0  0  0  0  0  0
   33.5310   25.6660   46.8180 H   0  0  0  0  0  0  0  0  0  0  0  0
   30.0620   27.3000   48.6200 H   0  0  0  0  0  0  0  0  0  0  0  0
  2  7  1  6  0  0  0
  2  6  1  0  0  0  0
  2  3  1  0  0  0  0
  3  8  1  6  0  0  0
  3  1  1  0  0  0  0
  3  4  1  0  0  0  0
  4 10  1  0  0  0  0
  4  9  1  0  0  0  0
  5  4  1  0  0  0  0
  6  5  1  0  0  0  0
 11  6  1  0  0  0  0
 12  6  1  0  0  0  0
 13  2  1  0  0  0  0
 14 15  1  0  0  0  0
 15 19  1  0  0  0  0
 16 15  1  0  0  0  0
 16 17  1  0  0  0  0
 17 18  1  0  0  0  0
 19 18  1  0  0  0  0
 19 13  1  1  0  0  0
 21 20  2  6  0  0  0
 21  1  1  0  0  0  0
 21 24  1  0  0  0  0
 21 22  1  0  0  0  0
 23 22  1  0  0  0  0
 24 25  1  0  0  0  0
 25 27  1  0  0  0  0
 25 26  1  0  0  0  0
 28 33  1  0  0  0  0
 28 25  1  0  0  0  0
 29 28  2  0  0  0  0
 30 31  2  0  0  0  0
 30 29  1  0  0  0  0
 31 32  1  0  0  0  0
 32 36  1  0  0  0  0
 32 33  2  0  0  0  0
 34 29  1  0  0  0  0
 35 30  1  0  0  0  0
M  END
>  <minimizedAffinity>
-4.93852329

>  <minimizedRMSD>
0.226054445

$$$$
