
     RDKit          3D

 43 45  0  0  0  0  0  0  0  0999 V2000
   36.0433   29.9382   46.9640 O   0  0  0  0  0  0  0  0  0  0  0  0
   36.0334   30.2229   48.4388 P   0  0  2  0  0  0  0  0  0  0  0  0
   36.8004   28.9101   49.2361 O   0  0  0  0  0  0  0  0  0  0  0  0
   34.4401   30.3737   49.0101 O   0  0  0  0  0  0  0  0  0  0  0  0
   34.1752   29.2440   49.7605 C   0  0  0  0  0  0  0  0  0  0  0  0
   33.3135   28.2622   49.0659 C   0  0  0  0  0  0  0  0  0  0  0  0
   33.9394   27.3830   48.2142 C   0  0  0  0  0  0  0  0  0  0  0  0
   33.1823   26.4304   47.5275 C   0  0  0  0  0  0  0  0  0  0  0  0
   31.8373   26.4344   47.7521 N   0  0  0  0  0  0  0  0  0  0  0  0
   31.2474   27.3066   48.5920 C   0  0  0  0  0  0  0  0  0  0  0  0
   31.9838   28.2216   49.2501 N   0  0  0  0  0  0  0  0  0  0  0  0
   36.8901   31.6390   48.7485 O   0  0  0  0  0  0  0  0  0  0  0  0
   38.8460   32.4798   47.8117 C   0  0  2  0  0  0  0  0  0  0  0  0
   38.2567   31.4543   48.7598 C   0  0  1  0  0  0  0  0  0  0  0  0
   38.8318   32.0151   50.0704 C   0  0  0  0  0  0  0  0  0  0  0  0
   38.4746   33.3498   49.9721 O   0  0  0  0  0  0  0  0  0  0  0  0
   38.6660   33.7484   48.6566 C   0  0  0  0  0  0  0  0  0  0  0  0
   38.0837   32.4953   46.6647 O   0  0  0  0  0  0  0  0  0  0  0  0
   37.3212   28.3903   48.5949 H   0  0  0  0  0  0  0  0  0  0  0  0
   33.5935   29.6005   50.6523 H   0  0  0  0  0  0  0  0  0  0  0  0
   35.1108   28.7603   50.1475 H   0  0  0  0  0  0  0  0  0  0  0  0
   34.9844   27.3030   47.9739 H   0  0  0  0  0  0  0  0  0  0  0  0
   33.5958   25.6963   46.8342 H   0  0  0  0  0  0  0  0  0  0  0  0
   30.1758   27.2939   48.7575 H   0  0  0  0  0  0  0  0  0  0  0  0
   39.9203   32.2928   47.6301 H   0  0  0  0  0  0  0  0  0  0  0  0
   38.5785   30.4293   48.5686 H   0  0  0  0  0  0  0  0  0  0  0  0
   38.3231   31.5814   50.9593 H   0  0  0  0  0  0  0  0  0  0  0  0
   39.9034   31.8484   50.1411 H   0  0  0  0  0  0  0  0  0  0  0  0
   37.7434   34.2227   48.2935 H   0  0  0  0  0  0  0  0  0  0  0  0
   39.5737   34.3797   48.5593 H   0  0  0  0  0  0  0  0  0  0  0  0
   39.7509   30.4461   45.4088 H   0  0  0  0  0  0  0  0  0  0  0  0
   38.8300   30.8568   45.1412 N   0  0  0  0  0  0  0  0  0  0  0  0
   38.8082   30.8675   43.6735 C   0  0  0  0  0  0  0  0  0  0  0  0
   37.6678   31.8316   43.4180 C   0  0  0  0  0  0  0  0  0  0  0  0
   38.0433   32.9596   44.3761 C   0  0  0  0  0  0  0  0  0  0  0  0
   38.7953   32.2755   45.4995 C   0  0  1  0  0  0  0  0  0  0  0  0
   39.7247   31.3022   43.2405 H   0  0  0  0  0  0  0  0  0  0  0  0
   38.5515   29.8743   43.2837 H   0  0  0  0  0  0  0  0  0  0  0  0
   36.7377   31.3344   43.7323 H   0  0  0  0  0  0  0  0  0  0  0  0
   37.6597   32.2537   42.4098 H   0  0  0  0  0  0  0  0  0  0  0  0
   37.0794   33.4094   44.7081 H   0  0  0  0  0  0  0  0  0  0  0  0
   38.6293   33.7491   43.8784 H   0  0  0  0  0  0  0  0  0  0  0  0
   39.8336   32.6255   45.5444 H   0  0  0  0  0  0  0  0  0  0  0  0
  2  1  2  0
  2 12  1  6
  2  4  1  0
  2  3  1  0
  4  5  1  0
  6 11  1  0
  6  5  1  0
  7  6  2  0
  8  9  2  0
  8  7  1  0
  9 10  1  0
 10 11  2  0
 13 18  1  0
 13 17  1  0
 13 14  1  0
 14 12  1  0
 14 15  1  0
 16 15  1  0
 17 16  1  0
  3 19  1  0
  5 20  1  0
  5 21  1  0
  7 22  1  0
  8 23  1  0
 10 24  1  0
 13 25  1  6
 14 26  1  6
 15 27  1  0
 15 28  1  0
 17 29  1  0
 17 30  1  0
 31 32  1  0
 32 33  1  0
 33 34  1  0
 34 35  1  0
 35 36  1  0
 36 32  1  0
 33 37  1  0
 33 38  1  0
 34 39  1  0
 34 40  1  0
 35 41  1  0
 35 42  1  0
 36 43  1  1
 18 36  1  0
M  ISO  8  19   3  20   8  21   8  22  14  23  14  24  14  25  13  26  13
M  ISO  5  27  13  28  13  29  13  30  13  31   5
M  END
>  <DihAtoms>  (1) 
12,17,35,34

>  <DihDeg>  (1) 
-122.97906040370229

$$$$
