
 OpenBabel03272509453D

 16 17  0  0  1  0  0  0  0  0999 V2000
   37.1040   30.0860   51.1450 C   0  0  0  0  0  0  0  0  0  0  0  0
   38.0960   30.8170   50.4490 C   0  0  0  0  0  0  0  0  0  0  0  0
   38.0390   30.8480   49.0450 C   0  0  0  0  0  0  0  0  0  0  0  0
   37.0200   30.1640   48.4270 N   0  0  0  0  0  0  0  0  0  0  0  0
   36.0920   29.4760   49.1400 C   0  0  0  0  0  0  0  0  0  0  0  0
   36.1310   29.4350   50.4860 N   0  0  0  0  0  0  0  0  0  0  0  0
   37.0650   30.0040   52.2120 H   0  0  0  0  0  0  0  0  0  0  0  0
   38.8310   31.3040   51.0430 H   0  0  0  0  0  0  0  0  0  0  0  0
   38.7880   31.4010   48.5290 H   0  0  0  0  0  0  0  0  0  0  0  0
   35.1700   28.8690   48.3150 O   0  0  0  0  0  0  0  0  0  0  0  0
   32.9860   29.5930   49.2140 H   0  0  0  0  0  0  0  0  0  0  0  0
   33.0560   28.5640   49.3890 N   0  0  0  0  0  0  0  0  0  0  0  0
   31.9550   27.8670   48.7730 C   0  0  0  0  0  2  0  0  0  0  0  0
   32.5440   27.3910   47.4710 C   0  0  0  0  0  2  0  0  0  0  0  0
   33.9260   26.9300   47.8930 C   0  0  0  0  0  2  0  0  0  0  0  0
   34.2750   27.9640   48.9510 C   0  0  1  0  0  3  0  0  0  0  0  0
  1  7  1  0  0  0  0
  2  8  1  0  0  0  0
  2  1  2  0  0  0  0
  3  2  1  0  0  0  0
  4  3  2  0  0  0  0
  4  5  1  0  0  0  0
  5  6  2  0  0  0  0
  6  1  1  0  0  0  0
  9  3  1  0  0  0  0
 10  5  1  0  0  0  0
 11 12  1  0  0  0  0
 13 12  1  0  0  0  0
 14 15  1  0  0  0  0
 14 13  1  0  0  0  0
 15 16  1  0  0  0  0
 16 10  1  6  0  0  0
 16 12  1  0  0  0  0
M  END
>  <minimizedAffinity>
-4.12020826

>  <minimizedRMSD>
2.10764194

$$$$
