
     RDKit          3D

 23 24  0  0  0  0  0  0  0  0999 V2000
   37.3284   30.2338   51.4267 C   0  0  0  0  0  0  0  0  0  0  0  0
   38.0812   30.7385   50.3410 C   0  0  0  0  0  0  0  0  0  0  0  0
   37.6985   30.3731   49.0391 C   0  0  0  0  0  0  0  0  0  0  0  0
   36.6119   29.5440   48.8950 N   0  0  0  0  0  0  0  0  0  0  0  0
   35.9218   29.0860   49.9710 C   0  0  0  0  0  0  0  0  0  0  0  0
   36.2736   29.4253   51.2257 N   0  0  0  0  0  0  0  0  0  0  0  0
   34.8764   28.2742   49.5905 O   0  0  0  0  0  0  0  0  0  0  0  0
   37.5421   30.4554   52.4532 H   0  0  0  0  0  0  0  0  0  0  0  0
   38.9004   31.3714   50.5838 H   0  0  0  0  0  0  0  0  0  0  0  0
   38.2696   30.7567   48.2266 H   0  0  0  0  0  0  0  0  0  0  0  0
   35.8907   27.3979   51.6644 H   0  0  0  0  0  0  0  0  0  0  0  0
   34.8537   27.3017   51.7735 N   0  0  0  0  0  0  0  0  0  0  0  0
   34.3980   28.0078   52.9445 C   0  0  0  0  0  0  0  0  0  0  0  0
   33.9228   29.3216   52.3807 C   0  0  0  0  0  0  0  0  0  0  0  0
   33.2072   28.8900   51.1160 C   0  0  0  0  0  0  0  0  0  0  0  0
   34.0900   27.7426   50.6505 C   0  0  1  0  0  0  0  0  0  0  0  0
   35.2239   28.1441   53.6791 H   0  0  0  0  0  0  0  0  0  0  0  0
   33.5433   27.4800   53.4290 H   0  0  0  0  0  0  0  0  0  0  0  0
   34.7649   29.9743   52.1246 H   0  0  0  0  0  0  0  0  0  0  0  0
   33.1878   29.8082   53.0664 H   0  0  0  0  0  0  0  0  0  0  0  0
   33.1408   29.7134   50.3784 H   0  0  0  0  0  0  0  0  0  0  0  0
   32.1952   28.5247   51.3696 H   0  0  0  0  0  0  0  0  0  0  0  0
   33.4814   26.9180   50.2410 H   0  0  0  0  0  0  0  0  0  0  0  0
  2  1  2  0
  3  2  1  0
  4  3  2  0
  4  5  1  0
  5  6  2  0
  6  1  1  0
  7  5  1  0
  1  8  1  0
  2  9  1  0
  3 10  1  0
 11 12  1  0
 12 13  1  0
 13 14  1  0
 14 15  1  0
 15 16  1  0
 16 12  1  0
 13 17  1  0
 13 18  1  0
 14 19  1  0
 14 20  1  0
 15 21  1  0
 15 22  1  0
 16 23  1  6
  7 16  1  0
M  ISO  4   8  14   9  14  10  14  11   5
M  END
>  <DihAtoms>  (1) 
4,6,15,14

>  <DihDeg>  (1) 
-118.62535022544014

$$$$
