
 OpenBabel03272504213D

 36 38  0  0  1  0  0  0  0  0999 V2000
   36.7410   31.4690   48.8250 O   0  0  0  0  0  0  0  0  0  0  0  0
   38.7040   32.2870   47.8830 C   0  0  2  0  0  0  0  0  0  0  0  0
   38.1020   31.2450   48.8050 C   0  0  1  0  0  0  0  0  0  0  0  0
   38.7160   31.7430   50.1230 C   0  0  0  0  0  0  0  0  0  0  0  0
   38.3950   33.0900   50.0780 O   0  0  0  0  0  0  0  0  0  0  0  0
   38.5750   33.5290   48.7750 C   0  0  0  0  0  0  0  0  0  0  0  0
   39.7690   32.0760   47.6750 H   0  0  0  0  0  0  0  0  0  0  0  0
   38.3900   30.2190   48.5730 H   0  0  0  0  0  0  0  0  0  0  0  0
   38.2100   31.2920   51.0060 H   0  0  0  0  0  0  0  0  0  0  0  0
   39.7820   31.5440   50.1690 H   0  0  0  0  0  0  0  0  0  0  0  0
   37.6600   34.0420   48.4450 H   0  0  0  0  0  0  0  0  0  0  0  0
   39.4990   34.1380   48.6820 H   0  0  0  0  0  0  0  0  0  0  0  0
   37.9230   32.3640   46.7510 O   0  0  0  0  0  0  0  0  0  0  0  0
   37.9290   32.9410   43.8830 H   0  0  0  0  0  0  0  0  0  0  0  0
   38.6630   33.0460   44.6180 N   0  0  0  0  0  0  0  0  0  0  0  0
   39.9410   32.7860   43.9460 C   0  0  0  0  0  2  0  0  0  0  0  0
   40.8430   32.5540   45.1420 C   0  0  0  0  0  2  0  0  0  0  0  0
   39.9780   31.5920   45.9540 C   0  0  0  0  0  2  0  0  0  0  0  0
   38.5530   31.9570   45.5890 C   0  0  1  0  0  3  0  0  0  0  0  0
   35.7830   29.8020   47.0650 O   0  0  0  0  0  0  0  0  0  0  0  0
   35.8370   30.0770   48.5410 P   0  0  1  0  0  0  0  0  0  0  0  0
   36.6010   28.7390   49.3000 O   0  0  0  0  0  0  0  0  0  0  0  0
   37.0840   28.2110   48.6360 H   0  0  0  0  0  0  0  0  0  0  0  0
   34.2720   30.2630   49.1740 O   0  0  0  0  0  0  0  0  0  0  0  0
   33.9760   29.1000   49.8600 C   0  0  0  0  0  0  0  0  0  0  0  0
   33.3970   29.4210   50.7660 H   0  0  0  0  0  0  0  0  0  0  0  0
   34.8980   28.5740   50.2240 H   0  0  0  0  0  0  0  0  0  0  0  0
   33.0950   28.1790   49.1070 C   0  0  0  0  0  0  0  0  0  0  0  0
   33.7080   27.3170   48.2290 C   0  0  0  0  0  0  0  0  0  0  0  0
   32.9340   26.4200   47.4880 C   0  0  0  0  0  0  0  0  0  0  0  0
   31.5850   26.4600   47.6890 N   0  0  0  0  0  0  0  0  0  0  0  0
   31.0090   27.3150   48.5550 C   0  0  0  0  0  0  0  0  0  0  0  0
   31.7630   28.1760   49.2660 N   0  0  0  0  0  0  0  0  0  0  0  0
   34.7550   27.2120   48.0040 H   0  0  0  0  0  0  0  0  0  0  0  0
   33.3370   25.7040   46.7700 H   0  0  0  0  0  0  0  0  0  0  0  0
   29.9350   27.3310   48.7020 H   0  0  0  0  0  0  0  0  0  0  0  0
  2  7  1  6  0  0  0
  2  6  1  0  0  0  0
  2  3  1  0  0  0  0
  3  8  1  6  0  0  0
  3  1  1  0  0  0  0
  3  4  1  0  0  0  0
  4 10  1  0  0  0  0
  4  9  1  0  0  0  0
  5  4  1  0  0  0  0
  6  5  1  0  0  0  0
 11  6  1  0  0  0  0
 12  6  1  0  0  0  0
 13  2  1  0  0  0  0
 14 15  1  0  0  0  0
 15 19  1  0  0  0  0
 16 15  1  0  0  0  0
 16 17  1  0  0  0  0
 17 18  1  0  0  0  0
 19 18  1  0  0  0  0
 19 13  1  1  0  0  0
 21 20  2  6  0  0  0
 21  1  1  0  0  0  0
 21 24  1  0  0  0  0
 21 22  1  0  0  0  0
 23 22  1  0  0  0  0
 24 25  1  0  0  0  0
 25 27  1  0  0  0  0
 25 26  1  0  0  0  0
 28 33  1  0  0  0  0
 28 25  1  0  0  0  0
 29 28  2  0  0  0  0
 30 31  2  0  0  0  0
 30 29  1  0  0  0  0
 31 32  1  0  0  0  0
 32 36  1  0  0  0  0
 32 33  2  0  0  0  0
 34 29  1  0  0  0  0
 35 30  1  0  0  0  0
M  END
>  <minimizedAffinity>
-4.89256763

>  <minimizedRMSD>
0.331307739

$$$$
