
 OpenBabel03262521353D

 34 37  0  0  1  0  0  0  0  0999 V2000
   38.6740   31.4880   45.2340 C   0  0  1  0  0  0  0  0  0  0  0  0
   38.9090   32.4920   46.2740 C   0  0  2  0  0  0  0  0  0  0  0  0
   40.3460   32.9540   45.9770 C   0  0  0  0  0  0  0  0  0  0  0  0
   40.9500   31.7800   45.6420 O   0  0  0  0  0  0  0  0  0  0  0  0
   40.0860   30.9520   44.9590 C   0  0  0  0  0  0  0  0  0  0  0  0
   38.3830   31.9480   44.2690 H   0  0  0  0  0  0  0  0  0  0  0  0
   38.2780   33.3860   46.1160 H   0  0  0  0  0  0  0  0  0  0  0  0
   40.3330   33.7340   45.1730 H   0  0  0  0  0  0  0  0  0  0  0  0
   40.7340   33.3850   46.9140 H   0  0  0  0  0  0  0  0  0  0  0  0
   40.1430   29.9530   45.4640 H   0  0  0  0  0  0  0  0  0  0  0  0
   40.2990   30.8500   43.8900 H   0  0  0  0  0  0  0  0  0  0  0  0
   37.6510   32.4230   48.5650 C   0  0  1  0  0  0  0  0  0  0  0  0
   38.8800   33.1600   48.7190 C   0  0  0  0  0  0  0  0  0  0  0  0
   38.8450   31.9990   47.7070 C   0  0  2  0  0  0  0  0  0  0  0  0
   36.8170   32.8920   47.9640 H   0  0  0  0  0  0  0  0  0  0  0  0
   39.0010   34.1900   48.3450 H   0  0  0  0  0  0  0  0  0  0  0  0
   39.6020   32.9560   49.5530 H   0  0  0  0  0  0  0  0  0  0  0  0
   39.3630   31.0690   47.9310 H   0  0  0  0  0  0  0  0  0  0  0  0
   35.5910   29.7990   50.2630 C   0  0  0  0  0  0  0  0  0  0  0  0
   35.9860   30.7610   49.3440 C   0  0  0  0  0  0  0  0  0  0  0  0
   37.2110   31.3840   49.5030 C   0  0  0  0  0  0  0  0  0  0  0  0
   37.9790   31.0050   50.5810 N   0  0  0  0  0  0  0  0  0  0  0  0
   37.5840   30.0660   51.4700 C   0  0  0  0  0  0  0  0  0  0  0  0
   36.3670   29.4540   51.3050 N   0  0  0  0  0  0  0  0  0  0  0  0
   34.6600   29.2650   50.2190 H   0  0  0  0  0  0  0  0  0  0  0  0
   35.2990   30.9600   48.5560 H   0  0  0  0  0  0  0  0  0  0  0  0
   38.2750   29.8450   52.2880 H   0  0  0  0  0  0  0  0  0  0  0  0
   37.8220   30.4520   45.6150 O   0  0  0  0  0  0  0  0  0  0  0  0
   35.9370   30.9700   43.0690 H   0  0  0  0  0  0  0  0  0  0  0  0
   36.5090   30.3240   43.6560 N   0  0  0  0  0  0  0  0  0  0  0  0
   35.8470   29.0170   43.6750 C   0  0  0  0  0  0  0  0  0  0  0  0
   34.7250   29.3010   44.6470 C   0  0  0  0  0  0  0  0  0  0  0  0
   35.4620   30.0440   45.7590 C   0  0  0  0  0  0  0  0  0  0  0  0
   36.5760   30.7290   45.0430 C   0  0  1  0  0  0  0  0  0  0  0  0
  1  6  1  6  0  0  0
  1 28  1  0  0  0  0
  1  2  1  0  0  0  0
  2  7  1  6  0  0  0
  2 14  1  0  0  0  0
  3  2  1  0  0  0  0
  3  9  1  0  0  0  0
  4  3  1  0  0  0  0
  5  1  1  0  0  0  0
  5 10  1  0  0  0  0
  5  4  1  0  0  0  0
  8  3  1  0  0  0  0
 11  5  1  0  0  0  0
 12 15  1  6  0  0  0
 12 13  1  0  0  0  0
 12 21  1  0  0  0  0
 13 17  1  0  0  0  0
 14 18  1  1  0  0  0
 14 12  1  0  0  0  0
 14 13  1  0  0  0  0
 16 13  1  0  0  0  0
 19 24  1  0  0  0  0
 20 21  1  0  0  0  0
 20 19  2  0  0  0  0
 21 22  2  0  0  0  0
 22 23  1  0  0  0  0
 23 27  1  0  0  0  0
 24 23  2  0  0  0  0
 25 19  1  0  0  0  0
 26 20  1  0  0  0  0
 29 30  1  0  0  0  0
 30 31  1  0  0  0  0
 30 34  1  0  0  0  0
 31 32  1  0  0  0  0
 32 33  1  0  0  0  0
 34 28  1  1  0  0  0
 34 33  1  0  0  0  0
M  END
>  <minimizedAffinity>
-5.37711906

>  <minimizedRMSD>
0.895208418

$$$$
