
 OpenBabel03272504223D

 36 38  0  0  1  0  0  0  0  0999 V2000
   36.8120   31.5700   48.7520 O   0  0  0  0  0  0  0  0  0  0  0  0
   38.7710   32.4240   47.8330 C   0  0  2  0  0  0  0  0  0  0  0  0
   38.1780   31.3710   48.7490 C   0  0  1  0  0  0  0  0  0  0  0  0
   38.7650   31.8820   50.0740 C   0  0  0  0  0  0  0  0  0  0  0  0
   38.4210   33.2230   50.0240 O   0  0  0  0  0  0  0  0  0  0  0  0
   38.6080   33.6640   48.7220 C   0  0  0  0  0  0  0  0  0  0  0  0
   39.8420   32.2330   47.6380 H   0  0  0  0  0  0  0  0  0  0  0  0
   38.4880   30.3510   48.5210 H   0  0  0  0  0  0  0  0  0  0  0  0
   38.2570   31.4220   50.9510 H   0  0  0  0  0  0  0  0  0  0  0  0
   39.8350   31.7020   50.1330 H   0  0  0  0  0  0  0  0  0  0  0  0
   37.6880   34.1590   48.3810 H   0  0  0  0  0  0  0  0  0  0  0  0
   39.5220   34.2900   48.6400 H   0  0  0  0  0  0  0  0  0  0  0  0
   38.0030   32.4850   46.6920 O   0  0  0  0  0  0  0  0  0  0  0  0
   37.4600   32.0150   43.8560 H   0  0  0  0  0  0  0  0  0  0  0  0
   38.0610   32.7130   44.3450 N   0  0  0  0  0  0  0  0  0  0  0  0
   39.2060   32.9470   43.4580 C   0  0  0  0  0  2  0  0  0  0  0  0
   40.1710   33.6150   44.4160 C   0  0  0  0  0  2  0  0  0  0  0  0
   40.0650   32.6720   45.6120 C   0  0  0  0  0  2  0  0  0  0  0  0
   38.6610   32.1090   45.5350 C   0  0  1  0  0  3  0  0  0  0  0  0
   35.8840   29.8490   47.0280 O   0  0  0  0  0  0  0  0  0  0  0  0
   35.9370   30.1540   48.4980 P   0  0  1  0  0  0  0  0  0  0  0  0
   36.7320   28.8480   49.2790 O   0  0  0  0  0  0  0  0  0  0  0  0
   37.2230   28.3170   48.6240 H   0  0  0  0  0  0  0  0  0  0  0  0
   34.3710   30.3200   49.1340 O   0  0  0  0  0  0  0  0  0  0  0  0
   34.1010   29.1620   49.8400 C   0  0  0  0  0  0  0  0  0  0  0  0
   33.5150   29.4860   50.7410 H   0  0  0  0  0  0  0  0  0  0  0  0
   35.0340   28.6620   50.2120 H   0  0  0  0  0  0  0  0  0  0  0  0
   33.2400   28.2090   49.1040 C   0  0  0  0  0  0  0  0  0  0  0  0
   33.8740   27.3270   48.2620 C   0  0  0  0  0  0  0  0  0  0  0  0
   33.1180   26.4000   47.5390 C   0  0  0  0  0  0  0  0  0  0  0  0
   31.7670   26.4320   47.7190 N   0  0  0  0  0  0  0  0  0  0  0  0
   31.1700   27.3070   48.5510 C   0  0  0  0  0  0  0  0  0  0  0  0
   31.9050   28.1970   49.2450 N   0  0  0  0  0  0  0  0  0  0  0  0
   34.9240   27.2260   48.0550 H   0  0  0  0  0  0  0  0  0  0  0  0
   33.5380   25.6650   46.8490 H   0  0  0  0  0  0  0  0  0  0  0  0
   30.0940   27.3170   48.6820 H   0  0  0  0  0  0  0  0  0  0  0  0
  2  7  1  6  0  0  0
  2  6  1  0  0  0  0
  2  3  1  0  0  0  0
  3  8  1  6  0  0  0
  3  1  1  0  0  0  0
  3  4  1  0  0  0  0
  4 10  1  0  0  0  0
  4  9  1  0  0  0  0
  5  4  1  0  0  0  0
  6  5  1  0  0  0  0
 11  6  1  0  0  0  0
 12  6  1  0  0  0  0
 13  2  1  0  0  0  0
 14 15  1  0  0  0  0
 15 19  1  0  0  0  0
 16 15  1  0  0  0  0
 16 17  1  0  0  0  0
 17 18  1  0  0  0  0
 19 18  1  0  0  0  0
 19 13  1  1  0  0  0
 21 20  2  6  0  0  0
 21  1  1  0  0  0  0
 21 24  1  0  0  0  0
 21 22  1  0  0  0  0
 23 22  1  0  0  0  0
 24 25  1  0  0  0  0
 25 27  1  0  0  0  0
 25 26  1  0  0  0  0
 28 33  1  0  0  0  0
 28 25  1  0  0  0  0
 29 28  2  0  0  0  0
 30 31  2  0  0  0  0
 30 29  1  0  0  0  0
 31 32  1  0  0  0  0
 32 36  1  0  0  0  0
 32 33  2  0  0  0  0
 34 29  1  0  0  0  0
 35 30  1  0  0  0  0
M  END
>  <minimizedAffinity>
-4.8570013

>  <minimizedRMSD>
0.20673652

$$$$
