
 OpenBabel03272508273D

 35 38  0  0  1  0  0  0  0  0999 V2000
   33.9810   29.0120   47.3280 C   0  0  2  0  0  0  0  0  0  0  0  0
   34.7290   28.2420   48.4050 C   0  0  2  0  0  0  0  0  0  0  0  0
   33.8270   28.0530   49.4140 O   0  0  0  0  0  0  0  0  0  0  0  0
   32.5530   28.1120   48.9410 C   0  0  0  0  0  0  0  0  0  0  0  0
   32.6150   28.3250   47.4410 C   0  0  1  0  0  0  0  0  0  0  0  0
   33.8140   30.0680   47.5760 H   0  0  0  0  0  0  0  0  0  0  0  0
   35.0340   27.2770   47.9350 H   0  0  0  0  0  0  0  0  0  0  0  0
   31.9510   27.2040   49.1630 H   0  0  0  0  0  0  0  0  0  0  0  0
   32.0340   28.9640   49.4490 H   0  0  0  0  0  0  0  0  0  0  0  0
   32.6810   27.3150   47.0000 H   0  0  0  0  0  0  0  0  0  0  0  0
   35.7900   30.5160   49.0390 C   0  0  1  0  0  0  0  0  0  0  0  0
   35.8820   29.0900   48.8350 C   0  0  1  0  0  0  0  0  0  0  0  0
   36.0110   29.5820   50.2390 C   0  0  0  0  0  0  0  0  0  0  0  0
   34.8770   31.1260   49.1780 H   0  0  0  0  0  0  0  0  0  0  0  0
   36.8550   28.7230   48.3960 H   0  0  0  0  0  0  0  0  0  0  0  0
   36.9870   29.5990   50.7460 H   0  0  0  0  0  0  0  0  0  0  0  0
   35.1310   29.3510   50.8690 H   0  0  0  0  0  0  0  0  0  0  0  0
   36.9810   31.4280   48.8040 C   0  0  0  0  0  0  0  0  0  0  0  0
   37.1650   32.4820   49.6970 C   0  0  0  0  0  0  0  0  0  0  0  0
   38.2550   33.2990   49.4120 C   0  0  0  0  0  0  0  0  0  0  0  0
   39.0630   33.0610   48.3350 N   0  0  0  0  0  0  0  0  0  0  0  0
   38.8380   32.0170   47.4930 C   0  0  0  0  0  0  0  0  0  0  0  0
   37.7870   31.1970   47.7360 N   0  0  0  0  0  0  0  0  0  0  0  0
   36.5200   32.6430   50.5280 H   0  0  0  0  0  0  0  0  0  0  0  0
   38.4320   34.1240   50.0770 H   0  0  0  0  0  0  0  0  0  0  0  0
   39.5070   31.8740   46.6570 H   0  0  0  0  0  0  0  0  0  0  0  0
   34.5150   28.8660   46.0630 O   0  0  0  0  0  0  0  0  0  0  0  0
   34.3390   29.6890   45.5260 H   0  0  0  0  0  0  0  0  0  0  0  0
   31.6130   29.1040   46.9300 O   0  0  0  0  0  0  0  0  0  0  0  0
   29.5950   27.0050   46.6930 H   0  0  0  0  0  0  0  0  0  0  0  0
   29.5850   28.0310   46.4230 N   0  0  0  0  0  0  0  0  0  0  0  0
   28.6640   28.0980   45.2980 C   0  0  0  0  0  2  0  0  0  0  0  0
   29.5600   28.3370   44.0760 C   0  0  0  0  0  2  0  0  0  0  0  0
   30.5970   29.2500   44.7430 C   0  0  0  0  0  2  0  0  0  0  0  0
   30.8830   28.4190   45.9720 C   0  0  1  0  0  3  0  0  0  0  0  0
  1  5  1  0  0  0  0
  1  6  1  1  0  0  0
  1  2  1  0  0  0  0
  2  7  1  6  0  0  0
  2 12  1  0  0  0  0
  2  3  1  0  0  0  0
  4  8  1  0  0  0  0
  4  3  1  0  0  0  0
  4  9  1  0  0  0  0
  5 10  1  6  0  0  0
  5  4  1  0  0  0  0
 11 14  1  6  0  0  0
 11 13  1  0  0  0  0
 12 15  1  6  0  0  0
 12 11  1  0  0  0  0
 12 13  1  0  0  0  0
 13 16  1  0  0  0  0
 13 17  1  0  0  0  0
 18 11  1  0  0  0  0
 18 19  1  0  0  0  0
 19 24  1  0  0  0  0
 20 19  2  0  0  0  0
 20 25  1  0  0  0  0
 21 20  1  0  0  0  0
 22 23  1  0  0  0  0
 22 21  2  0  0  0  0
 23 18  2  0  0  0  0
 26 22  1  0  0  0  0
 27  1  1  0  0  0  0
 28 27  1  0  0  0  0
 29  5  1  0  0  0  0
 31 30  1  0  0  0  0
 32 31  1  0  0  0  0
 33 34  1  0  0  0  0
 33 32  1  0  0  0  0
 34 35  1  0  0  0  0
 35 31  1  0  0  0  0
 35 29  1  1  0  0  0
M  END
>  <minimizedAffinity>
-4.7612586

>  <minimizedRMSD>
0.104382835

$$$$
