REMARK  Name = 
REMARK  5 active torsions:
REMARK  status: ('A' for Active; 'I' for Inactive)
REMARK    1  A    between atoms: C_1  and  C_4
REMARK    2  A    between atoms: C_2  and  C_11
REMARK    3  A    between atoms: C_10  and  O_15
REMARK    4  A    between atoms: C_14  and  O_16
REMARK    5  A    between atoms: O_16  and  C_35
REMARK                            x       y       z     vdW  Elec       q    Type
REMARK                         _______ _______ _______ _____ _____    ______ ____
ROOT
ATOM      1  C   UNL     1      33.966  29.076  47.378  0.00  0.00    +0.000 C 
ATOM      2  C   UNL     1      34.741  28.280  48.417  0.00  0.00    +0.000 C 
ATOM      3  O   UNL     1      33.865  28.068  49.444  0.00  0.00    +0.000 OA
ATOM      4  C   UNL     1      32.580  28.138  49.006  0.00  0.00    +0.000 C 
ATOM      5  C   UNL     1      32.603  28.387  47.510  0.00  0.00    +0.000 C 
ATOM      6  H   UNL     1      33.807  30.126  47.656  0.00  0.00    +0.000 HD
ATOM      7  H   UNL     1      35.033  27.327  47.916  0.00  0.00    +0.000 HD
ATOM      8  H   UNL     1      31.983  27.226  49.222  0.00  0.00    +0.000 HD
ATOM      9  H   UNL     1      32.075  28.978  49.547  0.00  0.00    +0.000 HD
ATOM     10  H   UNL     1      32.657  27.388  47.044  0.00  0.00    +0.000 HD
ENDROOT
BRANCH   2  12
ATOM     11  C   UNL     1      35.822  30.539  49.072  0.00  0.00    +0.000 C 
ATOM     12  C   UNL     1      35.906  29.117  48.837  0.00  0.00    +0.000 C 
ATOM     13  C   UNL     1      36.068  29.581  50.248  0.00  0.00    +0.000 C 
ATOM     14  H   UNL     1      34.914  31.148  49.244  0.00  0.00    +0.000 HD
ATOM     15  H   UNL     1      36.868  28.758  48.369  0.00  0.00    +0.000 HD
ATOM     16  H   UNL     1      37.056  29.586  50.732  0.00  0.00    +0.000 HD
ATOM     17  H   UNL     1      35.203  29.339  50.893  0.00  0.00    +0.000 HD
BRANCH  11  18
ATOM     18  C   UNL     1      37.009  31.454  48.828  0.00  0.00    +0.000 A 
ATOM     19  C   UNL     1      37.182  32.525  49.703  0.00  0.00    +0.000 A 
ATOM     20  C   UNL     1      38.269  33.342  49.410  0.00  0.00    +0.000 A 
ATOM     21  N   UNL     1      39.085  33.090  48.342  0.00  0.00    +0.000 NA
ATOM     22  C   UNL     1      38.871  32.029  47.518  0.00  0.00    +0.000 A 
ATOM     23  N   UNL     1      37.823  31.208  47.769  0.00  0.00    +0.000 NA
ATOM     24  H   UNL     1      36.530  32.697  50.527  0.00  0.00    +0.000 HD
ATOM     25  H   UNL     1      38.437  34.180  50.061  0.00  0.00    +0.000 HD
ATOM     26  H   UNL     1      39.546  31.875  46.689  0.00  0.00    +0.000 HD
ENDBRANCH  11  18
ENDBRANCH   2  12
BRANCH   1  27
ATOM     27  O   UNL     1      34.467  28.960  46.097  0.00  0.00    +0.000 OA
ATOM     28  H   UNL     1      34.278  29.796  45.584  0.00  0.00    +0.000 HD
ENDBRANCH   1  27
BRANCH   5  29
ATOM     29  O   UNL     1      31.589  29.179  47.044  0.00  0.00    +0.000 OA
BRANCH  29  35
ATOM     30  H   UNL     1      29.528  27.127  46.763  0.00  0.00    +0.000 HD
ATOM     31  N   UNL     1      29.541  28.158  46.511  0.00  0.00    +0.000 NA
ATOM     32  C   UNL     1      28.626  28.264  45.384  0.00  0.00    +0.000 C 
ATOM     33  C   UNL     1      29.532  28.504  44.169  0.00  0.00    +0.000 C 
ATOM     34  C   UNL     1      30.586  29.383  44.856  0.00  0.00    +0.000 C 
ATOM     35  C   UNL     1      30.849  28.526  46.072  0.00  0.00    +0.000 C 
ENDBRANCH  29  35
ENDBRANCH   5  29
TORSDOF 5
