
 OpenBabel03272508263D

 35 38  0  0  1  0  0  0  0  0999 V2000
   33.8660   28.9180   47.2490 C   0  0  2  0  0  0  0  0  0  0  0  0
   34.5710   28.1530   48.3590 C   0  0  2  0  0  0  0  0  0  0  0  0
   33.6460   28.0160   49.3540 O   0  0  0  0  0  0  0  0  0  0  0  0
   32.3830   28.1000   48.8570 C   0  0  0  0  0  0  0  0  0  0  0  0
   32.4780   28.2750   47.3530 C   0  0  1  0  0  0  0  0  0  0  0  0
   33.7270   29.9840   47.4690 H   0  0  0  0  0  0  0  0  0  0  0  0
   34.8560   27.1680   47.9170 H   0  0  0  0  0  0  0  0  0  0  0  0
   31.7500   27.2170   49.0890 H   0  0  0  0  0  0  0  0  0  0  0  0
   31.8810   28.9800   49.3340 H   0  0  0  0  0  0  0  0  0  0  0  0
   32.5220   27.2530   46.9380 H   0  0  0  0  0  0  0  0  0  0  0  0
   35.6630   30.3930   49.0590 C   0  0  1  0  0  0  0  0  0  0  0  0
   35.7410   28.9760   48.7900 C   0  0  1  0  0  0  0  0  0  0  0  0
   35.9150   29.4060   50.2100 C   0  0  0  0  0  0  0  0  0  0  0  0
   34.7580   31.0000   49.2520 H   0  0  0  0  0  0  0  0  0  0  0  0
   36.6990   28.6260   48.3060 H   0  0  0  0  0  0  0  0  0  0  0  0
   36.9070   29.3970   50.6860 H   0  0  0  0  0  0  0  0  0  0  0  0
   35.0550   29.1510   50.8560 H   0  0  0  0  0  0  0  0  0  0  0  0
   36.8510   31.3100   48.8280 C   0  0  0  0  0  0  0  0  0  0  0  0
   37.0480   32.3440   49.7410 C   0  0  0  0  0  0  0  0  0  0  0  0
   38.1340   33.1660   49.4600 C   0  0  0  0  0  0  0  0  0  0  0  0
   38.9270   32.9530   48.3660 N   0  0  0  0  0  0  0  0  0  0  0  0
   38.6900   31.9270   47.5050 C   0  0  0  0  0  0  0  0  0  0  0  0
   37.6420   31.1020   47.7440 N   0  0  0  0  0  0  0  0  0  0  0  0
   36.4140   32.4860   50.5850 H   0  0  0  0  0  0  0  0  0  0  0  0
   38.3200   33.9760   50.1400 H   0  0  0  0  0  0  0  0  0  0  0  0
   39.3470   31.8030   46.6570 H   0  0  0  0  0  0  0  0  0  0  0  0
   34.4180   28.7250   45.9990 O   0  0  0  0  0  0  0  0  0  0  0  0
   34.2770   29.5400   45.4380 H   0  0  0  0  0  0  0  0  0  0  0  0
   31.5100   29.0710   46.8050 O   0  0  0  0  0  0  0  0  0  0  0  0
   31.9680   27.6770   44.2780 H   0  0  0  0  0  0  0  0  0  0  0  0
   31.5740   27.3500   45.2060 N   0  0  0  0  0  0  0  0  0  0  0  0
   30.6610   26.2730   44.8500 C   0  0  0  0  0  2  0  0  0  0  0  0
   29.2600   26.8600   45.0710 C   0  0  0  0  0  2  0  0  0  0  0  0
   29.5760   27.7110   46.3090 C   0  0  0  0  0  2  0  0  0  0  0  0
   30.8200   28.4050   45.8050 C   0  0  1  0  0  3  0  0  0  0  0  0
  1  5  1  0  0  0  0
  1  6  1  1  0  0  0
  1  2  1  0  0  0  0
  2  7  1  6  0  0  0
  2 12  1  0  0  0  0
  2  3  1  0  0  0  0
  4  8  1  0  0  0  0
  4  9  1  0  0  0  0
  4  3  1  0  0  0  0
  5 10  1  6  0  0  0
  5  4  1  0  0  0  0
 11 14  1  6  0  0  0
 11 13  1  0  0  0  0
 12 15  1  6  0  0  0
 12 11  1  0  0  0  0
 12 13  1  0  0  0  0
 13 16  1  0  0  0  0
 13 17  1  0  0  0  0
 18 11  1  0  0  0  0
 18 19  1  0  0  0  0
 19 24  1  0  0  0  0
 20 19  2  0  0  0  0
 20 25  1  0  0  0  0
 21 20  1  0  0  0  0
 22 23  1  0  0  0  0
 22 21  2  0  0  0  0
 23 18  2  0  0  0  0
 26 22  1  0  0  0  0
 27  1  1  0  0  0  0
 28 27  1  0  0  0  0
 29  5  1  0  0  0  0
 30 31  1  0  0  0  0
 31 35  1  0  0  0  0
 32 33  1  0  0  0  0
 32 31  1  0  0  0  0
 33 34  1  0  0  0  0
 35 34  1  0  0  0  0
 35 29  1  1  0  0  0
M  END
>  <minimizedAffinity>
-4.74994183

>  <minimizedRMSD>
0.29660812

$$$$
