
 OpenBabel03272508263D

 35 38  0  0  1  0  0  0  0  0999 V2000
   33.7090   28.8240   47.1810 C   0  0  2  0  0  0  0  0  0  0  0  0
   34.4190   28.0460   48.2790 C   0  0  2  0  0  0  0  0  0  0  0  0
   33.4930   27.8840   49.2700 O   0  0  0  0  0  0  0  0  0  0  0  0
   32.2310   27.9650   48.7710 C   0  0  0  0  0  0  0  0  0  0  0  0
   32.3270   28.1660   47.2710 C   0  0  1  0  0  0  0  0  0  0  0  0
   33.5590   29.8850   47.4190 H   0  0  0  0  0  0  0  0  0  0  0  0
   34.7140   27.0730   47.8210 H   0  0  0  0  0  0  0  0  0  0  0  0
   31.6060   27.0720   48.9870 H   0  0  0  0  0  0  0  0  0  0  0  0
   31.7190   28.8310   49.2620 H   0  0  0  0  0  0  0  0  0  0  0  0
   32.3820   27.1520   46.8390 H   0  0  0  0  0  0  0  0  0  0  0  0
   35.4940   30.2890   48.9960 C   0  0  1  0  0  0  0  0  0  0  0  0
   35.5810   28.8740   48.7260 C   0  0  1  0  0  0  0  0  0  0  0  0
   35.7340   29.3030   50.1490 C   0  0  0  0  0  0  0  0  0  0  0  0
   34.5850   30.8930   49.1770 H   0  0  0  0  0  0  0  0  0  0  0  0
   36.5460   28.5270   48.2550 H   0  0  0  0  0  0  0  0  0  0  0  0
   36.7190   29.2960   50.6390 H   0  0  0  0  0  0  0  0  0  0  0  0
   34.8650   29.0440   50.7830 H   0  0  0  0  0  0  0  0  0  0  0  0
   36.6820   31.2110   48.7820 C   0  0  0  0  0  0  0  0  0  0  0  0
   36.9390   32.1630   49.7670 C   0  0  0  0  0  0  0  0  0  0  0  0
   38.0210   32.9950   49.5000 C   0  0  0  0  0  0  0  0  0  0  0  0
   38.7560   32.8660   48.3530 N   0  0  0  0  0  0  0  0  0  0  0  0
   38.4610   31.9180   47.4230 C   0  0  0  0  0  0  0  0  0  0  0  0
   37.4150   31.0870   47.6450 N   0  0  0  0  0  0  0  0  0  0  0  0
   36.3490   32.2410   50.6500 H   0  0  0  0  0  0  0  0  0  0  0  0
   38.2530   33.7430   50.2350 H   0  0  0  0  0  0  0  0  0  0  0  0
   39.0740   31.8580   46.5350 H   0  0  0  0  0  0  0  0  0  0  0  0
   34.2650   28.6580   45.9290 O   0  0  0  0  0  0  0  0  0  0  0  0
   34.1170   29.4810   45.3820 H   0  0  0  0  0  0  0  0  0  0  0  0
   31.3520   28.9620   46.7350 O   0  0  0  0  0  0  0  0  0  0  0  0
   28.8050   29.9370   47.7840 H   0  0  0  0  0  0  0  0  0  0  0  0
   29.0630   29.4800   46.8620 N   0  0  0  0  0  0  0  0  0  0  0  0
   27.8510   28.7870   46.4500 C   0  0  0  0  0  2  0  0  0  0  0  0
   28.1610   27.3000   46.6610 C   0  0  0  0  0  2  0  0  0  0  0  0
   29.6410   27.3290   46.2520 C   0  0  0  0  0  2  0  0  0  0  0  0
   30.0890   28.5100   47.0790 C   0  0  1  0  0  3  0  0  0  0  0  0
  1  5  1  0  0  0  0
  1  6  1  1  0  0  0
  1  2  1  0  0  0  0
  2  7  1  6  0  0  0
  2 12  1  0  0  0  0
  2  3  1  0  0  0  0
  4  8  1  0  0  0  0
  4  9  1  0  0  0  0
  4  3  1  0  0  0  0
  5 10  1  6  0  0  0
  5  4  1  0  0  0  0
 11 14  1  6  0  0  0
 11 13  1  0  0  0  0
 12 15  1  6  0  0  0
 12 11  1  0  0  0  0
 12 13  1  0  0  0  0
 13 16  1  0  0  0  0
 13 17  1  0  0  0  0
 18 11  1  0  0  0  0
 18 19  1  0  0  0  0
 19 24  1  0  0  0  0
 20 19  2  0  0  0  0
 20 25  1  0  0  0  0
 21 20  1  0  0  0  0
 22 23  1  0  0  0  0
 22 21  2  0  0  0  0
 23 18  2  0  0  0  0
 26 22  1  0  0  0  0
 27  1  1  0  0  0  0
 28 27  1  0  0  0  0
 29  5  1  0  0  0  0
 31 35  1  0  0  0  0
 31 30  1  0  0  0  0
 32 33  1  0  0  0  0
 32 31  1  0  0  0  0
 34 33  1  0  0  0  0
 34 35  1  0  0  0  0
 35 29  1  6  0  0  0
M  END
>  <minimizedAffinity>
-5.15359735

>  <minimizedRMSD>
1.35171771

$$$$
