
 OpenBabel03272508053D

 35 38  0  0  1  0  0  0  0  0999 V2000
   38.8950   30.9130   45.7950 C   0  0  0  0  0  0  0  0  0  0  0  0
   40.0760   31.5560   46.0450 C   0  0  0  0  0  0  0  0  0  0  0  0
   40.9170   31.4920   44.9440 C   0  0  0  0  0  0  0  0  0  0  0  0
   40.1840   30.7850   44.0350 N   0  0  0  0  0  0  0  0  0  0  0  0
   39.0140   30.4500   44.5270 N   0  0  0  0  0  0  0  0  0  0  0  0
   40.3600   32.0610   46.9650 H   0  0  0  0  0  0  0  0  0  0  0  0
   41.9060   31.8770   44.7750 H   0  0  0  0  0  0  0  0  0  0  0  0
   37.7550   30.7500   46.6780 C   0  0  0  0  0  0  0  0  0  0  0  0
   37.9700   30.9710   48.0650 C   0  0  0  0  0  0  0  0  0  0  0  0
   36.8840   30.8180   48.9220 C   0  0  0  0  0  0  0  0  0  0  0  0
   35.6900   30.4670   48.3830 N   0  0  0  0  0  0  0  0  0  0  0  0
   35.5140   30.2620   47.0560 C   0  0  0  0  0  0  0  0  0  0  0  0
   36.5590   30.4080   46.2170 N   0  0  0  0  0  0  0  0  0  0  0  0
   38.9180   31.2510   48.4950 H   0  0  0  0  0  0  0  0  0  0  0  0
   34.5290   29.9810   46.6750 H   0  0  0  0  0  0  0  0  0  0  0  0
   37.0940   31.0470   50.3870 C   0  0  0  0  0  0  0  0  0  0  0  0
   36.5710   32.2850   50.6410 F   0  0  0  0  0  0  0  0  0  0  0  0
   36.4120   30.1050   51.1590 F   0  0  0  0  0  0  0  0  0  0  0  0
   38.4390   31.0280   50.7260 F   0  0  0  0  0  0  0  0  0  0  0  0
   40.5660   30.4120   42.6780 C   0  0  0  0  0  0  0  0  0  0  0  0
   40.1830   31.1950   41.5760 C   0  0  0  0  0  0  0  0  0  0  0  0
   40.5830   30.7970   40.3340 C   0  0  0  0  0  0  0  0  0  0  0  0
   41.3670   29.6130   40.1880 C   0  0  0  0  0  0  0  0  0  0  0  0
   41.5330   29.0490   41.9450 S   0  0  0  0  0  0  0  0  0  0  0  0
   39.5890   32.0950   41.6470 H   0  0  0  0  0  0  0  0  0  0  0  0
   40.3960   31.2520   39.3750 H   0  0  0  0  0  0  0  0  0  0  0  0
   41.3500   27.5300   38.9960 C   0  0  2  0  0  3  0  0  0  0  0  0
   41.9510   28.8950   39.1410 C   0  0  1  0  0  3  0  0  0  0  0  0
   41.6320   29.5050   37.9050 O   0  0  0  0  0  0  0  0  0  0  0  0
   42.0720   28.5780   36.9560 C   0  0  0  0  0  2  0  0  0  0  0  0
   41.5660   27.2730   37.5010 C   0  0  2  0  0  3  0  0  0  0  0  0
   39.9790   27.6290   39.2000 O   0  0  0  0  0  0  0  0  0  0  0  0
   39.5660   26.7690   39.4610 H   0  0  0  0  0  0  0  0  0  0  0  0
   40.4170   26.8290   36.8740 O   0  0  0  0  0  0  0  0  0  0  0  0
   39.9420   27.5110   36.3500 H   0  0  0  0  0  0  0  0  0  0  0  0
  1  2  1  0  0  0  0
  1  8  1  0  0  0  0
  2  6  1  0  0  0  0
  3  2  2  0  0  0  0
  4  5  1  0  0  0  0
  4  3  1  0  0  0  0
  5  1  2  0  0  0  0
  7  3  1  0  0  0  0
  8  9  1  0  0  0  0
  9 14  1  0  0  0  0
  9 10  2  0  0  0  0
 10 16  1  0  0  0  0
 11 10  1  0  0  0  0
 12 11  2  0  0  0  0
 13  8  2  0  0  0  0
 13 12  1  0  0  0  0
 15 12  1  0  0  0  0
 16 17  1  0  0  0  0
 16 19  1  0  0  0  0
 16 18  1  0  0  0  0
 20  4  1  0  0  0  0
 21 25  1  0  0  0  0
 21 20  2  0  0  0  0
 22 21  1  0  0  0  0
 23 22  2  0  0  0  0
 23 24  1  0  0  0  0
 24 20  1  0  0  0  0
 26 22  1  0  0  0  0
 27 28  1  0  0  0  0
 27 32  1  6  0  0  0
 28 23  1  1  0  0  0
 29 28  1  0  0  0  0
 30 31  1  0  0  0  0
 30 29  1  0  0  0  0
 31 34  1  6  0  0  0
 31 27  1  0  0  0  0
 32 33  1  0  0  0  0
 35 34  1  0  0  0  0
M  END
>  <minimizedAffinity>
-6.29622459

>  <minimizedRMSD>
0.949219108

$$$$
