
 OpenBabel03272508043D

 35 38  0  0  1  0  0  0  0  0999 V2000
   38.8880   30.8890   45.7750 C   0  0  0  0  0  0  0  0  0  0  0  0
   40.1140   31.4270   46.0570 C   0  0  0  0  0  0  0  0  0  0  0  0
   40.9370   31.3950   44.9400 C   0  0  0  0  0  0  0  0  0  0  0  0
   40.1460   30.8170   43.9890 N   0  0  0  0  0  0  0  0  0  0  0  0
   38.9610   30.5240   44.4720 N   0  0  0  0  0  0  0  0  0  0  0  0
   40.4420   31.8340   47.0090 H   0  0  0  0  0  0  0  0  0  0  0  0
   41.9490   31.7230   44.7870 H   0  0  0  0  0  0  0  0  0  0  0  0
   37.7490   30.7340   46.6600 C   0  0  0  0  0  0  0  0  0  0  0  0
   37.9660   30.9630   48.0450 C   0  0  0  0  0  0  0  0  0  0  0  0
   36.8810   30.8160   48.9050 C   0  0  0  0  0  0  0  0  0  0  0  0
   35.6860   30.4640   48.3690 N   0  0  0  0  0  0  0  0  0  0  0  0
   35.5080   30.2520   47.0440 C   0  0  0  0  0  0  0  0  0  0  0  0
   36.5520   30.3910   46.2020 N   0  0  0  0  0  0  0  0  0  0  0  0
   38.9160   31.2430   48.4730 H   0  0  0  0  0  0  0  0  0  0  0  0
   34.5210   29.9700   46.6650 H   0  0  0  0  0  0  0  0  0  0  0  0
   37.0930   31.0540   50.3670 C   0  0  0  0  0  0  0  0  0  0  0  0
   36.5650   32.2910   50.6170 F   0  0  0  0  0  0  0  0  0  0  0  0
   36.4180   30.1130   51.1460 F   0  0  0  0  0  0  0  0  0  0  0  0
   38.4390   31.0430   50.7040 F   0  0  0  0  0  0  0  0  0  0  0  0
   40.4870   30.5310   42.6010 C   0  0  0  0  0  0  0  0  0  0  0  0
   40.0310   31.3550   41.5580 C   0  0  0  0  0  0  0  0  0  0  0  0
   40.3950   31.0380   40.2820 C   0  0  0  0  0  0  0  0  0  0  0  0
   41.2160   29.8950   40.0420 C   0  0  0  0  0  0  0  0  0  0  0  0
   41.4740   29.2460   41.7580 S   0  0  0  0  0  0  0  0  0  0  0  0
   39.4090   32.2260   41.7000 H   0  0  0  0  0  0  0  0  0  0  0  0
   40.1540   31.5350   39.3560 H   0  0  0  0  0  0  0  0  0  0  0  0
   42.9030   30.0520   38.3420 C   0  0  2  0  0  3  0  0  0  0  0  0
   41.7840   29.2550   38.9370 C   0  0  1  0  0  3  0  0  0  0  0  0
   42.4360   28.0700   39.3520 O   0  0  0  0  0  0  0  0  0  0  0  0
   43.1370   27.6620   38.2140 C   0  0  0  0  0  2  0  0  0  0  0  0
   43.7610   28.9400   37.7290 C   0  0  2  0  0  3  0  0  0  0  0  0
   43.6410   30.6130   39.3780 O   0  0  0  0  0  0  0  0  0  0  0  0
   44.1630   31.4050   39.0930 H   0  0  0  0  0  0  0  0  0  0  0  0
   45.0950   29.0580   38.0690 O   0  0  0  0  0  0  0  0  0  0  0  0
   45.3980   28.4470   38.7770 H   0  0  0  0  0  0  0  0  0  0  0  0
  1  2  1  0  0  0  0
  1  8  1  0  0  0  0
  2  6  1  0  0  0  0
  3  2  2  0  0  0  0
  4  5  1  0  0  0  0
  4  3  1  0  0  0  0
  5  1  2  0  0  0  0
  7  3  1  0  0  0  0
  8  9  1  0  0  0  0
  9 14  1  0  0  0  0
  9 10  2  0  0  0  0
 10 16  1  0  0  0  0
 11 10  1  0  0  0  0
 12 11  2  0  0  0  0
 13  8  2  0  0  0  0
 13 12  1  0  0  0  0
 15 12  1  0  0  0  0
 16 17  1  0  0  0  0
 16 19  1  0  0  0  0
 16 18  1  0  0  0  0
 20  4  1  0  0  0  0
 21 25  1  0  0  0  0
 21 20  2  0  0  0  0
 22 21  1  0  0  0  0
 23 22  2  0  0  0  0
 23 24  1  0  0  0  0
 24 20  1  0  0  0  0
 26 22  1  0  0  0  0
 27 28  1  0  0  0  0
 27 32  1  1  0  0  0
 28 29  1  0  0  0  0
 28 23  1  1  0  0  0
 30 29  1  0  0  0  0
 31 34  1  1  0  0  0
 31 30  1  0  0  0  0
 31 27  1  0  0  0  0
 33 32  1  0  0  0  0
 34 35  1  0  0  0  0
M  END
>  <minimizedAffinity>
-6.69447947

>  <minimizedRMSD>
0.371594191

$$$$
