
     RDKit          3D

 33 35  0  0  0  0  0  0  0  0999 V2000
   37.0118   31.3967   48.5591 N   0  0  0  0  0  0  0  0  0  0  0  0
   37.1848   32.1640   49.6577 C   0  0  0  0  0  0  0  0  0  0  0  0
   38.1455   33.1611   49.6795 C   0  0  0  0  0  0  0  0  0  0  0  0
   38.8604   33.2599   48.4964 C   0  0  0  0  0  0  0  0  0  0  0  0
   39.7644   34.1716   48.4671 O   0  0  0  0  0  0  0  0  0  0  0  0
   38.7189   32.5217   47.3907 N   0  0  0  0  0  0  0  0  0  0  0  0
   37.7576   31.5679   47.4513 C   0  0  0  0  0  0  0  0  0  0  0  0
   37.6026   30.8522   46.4127 O   0  0  0  0  0  0  0  0  0  0  0  0
   36.2088   29.2501   49.3478 C   0  0  0  0  0  0  0  0  0  0  0  0
   36.0387   30.3706   48.5155 C   0  0  0  0  0  0  0  0  0  0  0  0
   34.8985   30.3811   47.6971 C   0  0  0  0  0  0  0  0  0  0  0  0
   34.0342   29.3473   47.7383 N   0  0  0  0  0  0  0  0  0  0  0  0
   34.2292   28.2817   48.5538 C   0  0  0  0  0  0  0  0  0  0  0  0
   35.3206   28.2272   49.3652 N   0  0  0  0  0  0  0  0  0  0  0  0
   36.5793   32.0283   50.5523 H   0  0  0  0  0  0  0  0  0  0  0  0
   38.3435   33.8108   50.5120 H   0  0  0  0  0  0  0  0  0  0  0  0
   39.3227   32.6947   46.5580 H   0  0  0  0  0  0  0  0  0  0  0  0
   34.8060   31.2551   47.0763 H   0  0  0  0  0  0  0  0  0  0  0  0
   33.4469   27.5596   48.4556 H   0  0  0  0  0  0  0  0  0  0  0  0
   35.8526   28.2147   51.9709 O   0  0  0  0  0  0  0  0  0  0  0  0
   37.0468   27.9733   51.3024 C   0  0  1  0  0  0  0  0  0  0  0  0
   37.3398   29.0627   50.2603 C   0  0  2  0  0  0  0  0  0  0  0  0
   37.6136   30.1405   51.0623 O   0  0  0  0  0  0  0  0  0  0  0  0
   38.7010   29.6099   51.7969 C   0  0  0  0  0  0  0  0  0  0  0  0
   38.1905   28.2474   52.2779 C   0  0  1  0  0  0  0  0  0  0  0  0
   37.7501   28.3609   53.5898 O   0  0  0  0  0  0  0  0  0  0  0  0
   35.0871   28.3809   51.3680 H   0  0  0  0  0  0  0  0  0  0  0  0
   37.0884   26.9848   50.8406 H   0  0  0  0  0  0  0  0  0  0  0  0
   38.2815   28.7518   49.7878 H   0  0  0  0  0  0  0  0  0  0  0  0
   39.5253   29.3808   51.0648 H   0  0  0  0  0  0  0  0  0  0  0  0
   39.0279   30.2628   52.6058 H   0  0  0  0  0  0  0  0  0  0  0  0
   38.9747   27.4702   52.1765 H   0  0  0  0  0  0  0  0  0  0  0  0
   36.7674   28.4414   53.6536 H   0  0  0  0  0  0  0  0  0  0  0  0
  1  2  1  0
  2  3  2  0
  4  3  1  0
  5  4  2  0
  6  7  1  0
  6  4  1  0
  7  1  1  0
  8  7  2  0
  9 14  1  0
 10  1  1  0
 10  9  2  0
 11 12  2  0
 11 10  1  0
 12 13  1  0
 13 14  2  0
  2 15  1  0
  3 16  1  0
  6 17  1  0
 11 18  1  0
 13 19  1  0
 20 21  1  0
 21 22  1  0
 22 23  1  0
 23 24  1  0
 24 25  1  0
 25 26  1  0
 25 21  1  0
 20 27  1  0
 21 28  1  6
 22 29  1  6
 24 30  1  0
 24 31  1  0
 25 32  1  1
 26 33  1  0
  9 22  1  0
M  ISO  5  15  14  16  14  17   9  18  14  19  14
M  END
>  <DihAtoms>  (1) 
13,8,21,20

>  <DihDeg>  (1) 
88.29005674407473

$$$$
