REMARK  Name = 
REMARK  5 active torsions:
REMARK  status: ('A' for Active; 'I' for Inactive)
REMARK    1  A    between atoms: C_2  and  N_13
REMARK    2  A    between atoms: C_5  and  C_7
REMARK    3  A    between atoms: C_18  and  C_36
REMARK    4  A    between atoms: O_34  and  C_35
REMARK    5  A    between atoms: C_39  and  O_40
REMARK                            x       y       z     vdW  Elec       q    Type
REMARK                         _______ _______ _______ _____ _____    ______ ____
ROOT
ATOM      1  N   UNL     1      37.063  31.056  48.323  0.00  0.00    +0.000 N 
ATOM      2  C   UNL     1      37.410  31.313  49.717  0.00  0.00    +0.000 C 
ATOM      3  C   UNL     1      38.585  32.212  49.882  0.00  0.00    +0.000 C 
ATOM      4  C   UNL     1      38.638  33.262  48.803  0.00  0.00    +0.000 C 
ATOM      5  C   UNL     1      38.853  32.525  47.512  0.00  0.00    +0.000 C 
ATOM      6  C   UNL     1      37.816  31.488  47.194  0.00  0.00    +0.000 C 
ATOM      7  H   UNL     1      36.520  31.839  50.144  0.00  0.00    +0.000 HD
ATOM      8  H   UNL     1      37.510  30.354  50.237  0.00  0.00    +0.000 HD
ATOM      9  H   UNL     1      38.512  32.730  50.868  0.00  0.00    +0.000 HD
ATOM     10  H   UNL     1      39.506  31.617  49.859  0.00  0.00    +0.000 HD
ATOM     11  H   UNL     1      37.777  33.932  48.804  0.00  0.00    +0.000 HD
ATOM     12  H   UNL     1      39.551  33.860  48.981  0.00  0.00    +0.000 HD
ATOM     13  H   UNL     1      38.847  33.294  46.713  0.00  0.00    +0.000 HD
ATOM     14  H   UNL     1      39.894  32.137  47.545  0.00  0.00    +0.000 HD
ATOM     15  H   UNL     1      37.163  31.847  46.361  0.00  0.00    +0.000 HD
ENDROOT
BRANCH   1  17
ATOM     16  C   UNL     1      35.155  29.780  49.188  0.00  0.00    +0.000 A 
ATOM     17  C   UNL     1      35.870  30.310  48.121  0.00  0.00    +0.000 A 
ATOM     18  C   UNL     1      35.367  30.077  46.854  0.00  0.00    +0.000 A 
ATOM     19  N   UNL     1      34.218  29.353  46.724  0.00  0.00    +0.000 NA
ATOM     20  C   UNL     1      33.555  28.858  47.763  0.00  0.00    +0.000 A 
ATOM     21  N   UNL     1      34.030  29.075  49.002  0.00  0.00    +0.000 NA
ATOM     22  H   UNL     1      35.488  29.922  50.200  0.00  0.00    +0.000 HD
ATOM     23  H   UNL     1      35.817  30.426  45.965  0.00  0.00    +0.000 HD
BRANCH  20  24
ATOM     24  C   UNL     1      32.342  28.096  47.583  0.00  0.00    +0.000 A 
ATOM     25  C   UNL     1      32.225  26.834  48.131  0.00  0.00    +0.000 A 
ATOM     26  C   UNL     1      31.106  26.047  48.005  0.00  0.00    +0.000 A 
ATOM     27  C   UNL     1      30.095  26.610  47.285  0.00  0.00    +0.000 A 
ATOM     28  C   UNL     1      30.155  27.900  46.698  0.00  0.00    +0.000 A 
ATOM     29  N   UNL     1      31.315  28.615  46.876  0.00  0.00    +0.000 NA
ATOM     30  H   UNL     1      33.093  26.465  48.694  0.00  0.00    +0.000 HD
ATOM     31  H   UNL     1      31.030  25.075  48.434  0.00  0.00    +0.000 HD
ATOM     32  H   UNL     1      29.154  26.082  47.115  0.00  0.00    +0.000 HD
ATOM     33  H   UNL     1      29.323  28.299  46.137  0.00  0.00    +0.000 HD
ENDBRANCH  20  24
ENDBRANCH   1  17
BRANCH   6  35
ATOM     34  C   UNL     1      37.813  29.024  46.645  0.00  0.00    +0.000 C 
ATOM     35  C   UNL     1      38.602  30.279  46.687  0.00  0.00    +0.000 C 
ATOM     36  O   UNL     1      39.043  30.608  45.421  0.00  0.00    +0.000 OA
ATOM     37  C   UNL     1      38.695  29.629  44.529  0.00  0.00    +0.000 C 
ATOM     38  C   UNL     1      37.916  28.565  45.215  0.00  0.00    +0.000 C 
BRANCH  34  39
ATOM     39  O   UNL     1      36.517  29.103  47.089  0.00  0.00    +0.000 OA
ATOM     40  H   UNL     1      36.444  28.933  48.056  0.00  0.00    +0.000 HD
ENDBRANCH  34  39
BRANCH  38  41
ATOM     41  O   UNL     1      36.628  28.371  44.703  0.00  0.00    +0.000 OA
ATOM     42  H   UNL     1      36.197  27.732  45.316  0.00  0.00    +0.000 HD
ENDBRANCH  38  41
ENDBRANCH   6  35
TORSDOF 5
