
 OpenBabel03272506303D

 34 36  0  0  1  0  0  0  0  0999 V2000
   35.5160   30.6140   48.8280 C   0  0  1  0  0  0  0  0  0  0  0  0
   34.7000   30.5390   50.0370 C   0  0  0  0  0  0  0  0  0  0  0  0
   34.9280   29.3460   50.9220 C   0  0  0  0  0  0  0  0  0  0  0  0
   36.3260   28.8970   51.0310 C   0  0  0  0  0  0  0  0  0  0  0  0
   37.1580   28.9790   49.8110 C   0  0  0  0  0  0  0  0  0  0  0  0
   36.9610   30.2510   49.0460 C   0  0  2  0  0  0  0  0  0  0  0  0
   35.5820   31.7190   48.5450 H   0  0  0  0  0  0  0  0  0  0  0  0
   34.9790   31.4230   50.6960 H   0  0  0  0  0  0  0  0  0  0  0  0
   33.6240   30.6840   49.9120 H   0  0  0  0  0  0  0  0  0  0  0  0
   34.3060   28.5230   50.4950 H   0  0  0  0  0  0  0  0  0  0  0  0
   34.5510   29.5840   51.9470 H   0  0  0  0  0  0  0  0  0  0  0  0
   36.3350   27.8450   51.4110 H   0  0  0  0  0  0  0  0  0  0  0  0
   36.8250   29.4800   51.8360 H   0  0  0  0  0  0  0  0  0  0  0  0
   38.1970   28.8210   50.0670 H   0  0  0  0  0  0  0  0  0  0  0  0
   36.8570   28.1110   49.1530 H   0  0  0  0  0  0  0  0  0  0  0  0
   37.6110   30.3170   48.1820 H   0  0  0  0  0  0  0  0  0  0  0  0
   33.7610   29.2770   47.6120 C   0  0  0  0  0  0  0  0  0  0  0  0
   34.9420   30.0190   47.6070 C   0  0  0  0  0  0  0  0  0  0  0  0
   35.5450   30.1850   46.3810 C   0  0  0  0  0  0  0  0  0  0  0  0
   34.9850   29.6390   45.2690 N   0  0  0  0  0  0  0  0  0  0  0  0
   33.8400   28.9290   45.3230 C   0  0  0  0  0  0  0  0  0  0  0  0
   33.2170   28.7440   46.5110 N   0  0  0  0  0  0  0  0  0  0  0  0
   33.1930   29.0750   48.5050 H   0  0  0  0  0  0  0  0  0  0  0  0
   36.4480   30.7210   46.1910 H   0  0  0  0  0  0  0  0  0  0  0  0
   33.4160   28.5070   44.4230 H   0  0  0  0  0  0  0  0  0  0  0  0
   38.8670   31.8270   49.5380 C   0  0  2  0  0  0  0  0  0  0  0  0
   37.5010   31.3480   49.9520 C   0  0  1  0  0  0  0  0  0  0  0  0
   36.6260   32.4230   49.8420 O   0  0  0  0  0  0  0  0  0  0  0  0
   37.2810   33.4520   49.1690 C   0  0  0  0  0  0  0  0  0  0  0  0
   38.6730   33.3320   49.7520 C   0  0  2  0  0  0  0  0  0  0  0  0
   39.2160   31.6130   48.2400 O   0  0  0  0  0  0  0  0  0  0  0  0
   38.5970   31.8660   47.5430 H   0  0  0  0  0  0  0  0  0  0  0  0
   39.6290   34.0720   49.1010 O   0  0  0  0  0  0  0  0  0  0  0  0
   40.1230   33.5360   48.4360 H   0  0  0  0  0  0  0  0  0  0  0  0
  1  7  1  6  0  0  0
  1  6  1  0  0  0  0
  1  2  1  0  0  0  0
  2  8  1  0  0  0  0
  2  3  1  0  0  0  0
  3  4  1  0  0  0  0
  3 11  1  0  0  0  0
  4 12  1  0  0  0  0
  4 13  1  0  0  0  0
  5 14  1  0  0  0  0
  5  4  1  0  0  0  0
  6 16  1  6  0  0  0
  6  5  1  0  0  0  0
  6 27  1  0  0  0  0
  9  2  1  0  0  0  0
 10  3  1  0  0  0  0
 15  5  1  0  0  0  0
 17 23  1  0  0  0  0
 18 17  1  0  0  0  0
 18  1  1  0  0  0  0
 19 18  2  0  0  0  0
 20 21  2  0  0  0  0
 20 19  1  0  0  0  0
 21 22  1  0  0  0  0
 22 17  2  0  0  0  0
 24 19  1  0  0  0  0
 25 21  1  0  0  0  0
 26 31  1  6  0  0  0
 26 30  1  0  0  0  0
 26 27  1  0  0  0  0
 27 28  1  6  0  0  0
 29 30  1  0  0  0  0
 29 28  1  0  0  0  0
 30 33  1  6  0  0  0
 32 31  1  0  0  0  0
 34 33  1  0  0  0  0
M  END
>  <minimizedAffinity>
-4.66221523

>  <minimizedRMSD>
6.30018282

$$$$
