
 OpenBabel03272508073D

 35 38  0  0  1  0  0  0  0  0999 V2000
   37.4190   26.5340   34.2560 C   0  0  0  0  0  0  0  0  0  0  0  0
   37.3400   26.8270   32.9220 C   0  0  0  0  0  0  0  0  0  0  0  0
   36.5760   27.9650   32.7090 C   0  0  0  0  0  0  0  0  0  0  0  0
   36.2070   28.3300   33.9720 N   0  0  0  0  0  0  0  0  0  0  0  0
   36.6940   27.5020   34.8670 N   0  0  0  0  0  0  0  0  0  0  0  0
   37.7980   26.2730   32.1060 H   0  0  0  0  0  0  0  0  0  0  0  0
   36.3000   28.4850   31.8100 H   0  0  0  0  0  0  0  0  0  0  0  0
   38.1170   25.4340   34.8950 C   0  0  0  0  0  0  0  0  0  0  0  0
   37.8500   25.2060   36.2720 C   0  0  0  0  0  0  0  0  0  0  0  0
   38.5140   24.1540   36.8960 C   0  0  0  0  0  0  0  0  0  0  0  0
   39.3740   23.4130   36.1550 N   0  0  0  0  0  0  0  0  0  0  0  0
   39.6100   23.6530   34.8430 C   0  0  0  0  0  0  0  0  0  0  0  0
   38.9720   24.6690   34.2290 N   0  0  0  0  0  0  0  0  0  0  0  0
   37.1660   25.7940   36.8630 H   0  0  0  0  0  0  0  0  0  0  0  0
   40.3140   23.0230   34.2920 H   0  0  0  0  0  0  0  0  0  0  0  0
   38.2430   23.9010   38.3460 C   0  0  0  0  0  0  0  0  0  0  0  0
   39.4210   23.4360   38.8630 F   0  0  0  0  0  0  0  0  0  0  0  0
   37.8910   25.0740   39.0180 F   0  0  0  0  0  0  0  0  0  0  0  0
   37.2450   22.9550   38.5300 F   0  0  0  0  0  0  0  0  0  0  0  0
   35.3890   29.4710   34.3670 C   0  0  0  0  0  0  0  0  0  0  0  0
   33.9860   29.3930   34.3630 C   0  0  0  0  0  0  0  0  0  0  0  0
   33.2800   30.4920   34.7540 C   0  0  0  0  0  0  0  0  0  0  0  0
   33.9740   31.6760   35.1500 C   0  0  0  0  0  0  0  0  0  0  0  0
   35.7430   31.1660   34.9440 S   0  0  0  0  0  0  0  0  0  0  0  0
   33.4270   28.5160   34.0690 H   0  0  0  0  0  0  0  0  0  0  0  0
   32.2140   30.6340   34.8210 H   0  0  0  0  0  0  0  0  0  0  0  0
   33.1250   32.9440   37.0030 C   0  0  2  0  0  3  0  0  0  0  0  0
   33.6390   32.9580   35.5960 C   0  0  1  0  0  3  0  0  0  0  0  0
   34.8090   33.7470   35.7040 O   0  0  0  0  0  0  0  0  0  0  0  0
   34.3700   34.8980   36.3640 C   0  0  0  0  0  2  0  0  0  0  0  0
   33.5220   34.3470   37.4740 C   0  0  2  0  0  3  0  0  0  0  0  0
   33.8810   32.0370   37.7370 O   0  0  0  0  0  0  0  0  0  0  0  0
   33.4120   31.7150   38.5480 H   0  0  0  0  0  0  0  0  0  0  0  0
   34.1680   34.3270   38.6950 O   0  0  0  0  0  0  0  0  0  0  0  0
   35.1450   34.4260   38.6490 H   0  0  0  0  0  0  0  0  0  0  0  0
  1  5  2  0  0  0  0
  1  8  1  0  0  0  0
  2  1  1  0  0  0  0
  3  2  2  0  0  0  0
  3  4  1  0  0  0  0
  4 20  1  0  0  0  0
  4  5  1  0  0  0  0
  6  2  1  0  0  0  0
  7  3  1  0  0  0  0
  8  9  1  0  0  0  0
  9 14  1  0  0  0  0
  9 10  2  0  0  0  0
 10 16  1  0  0  0  0
 11 10  1  0  0  0  0
 12 11  2  0  0  0  0
 13 12  1  0  0  0  0
 13  8  2  0  0  0  0
 15 12  1  0  0  0  0
 16 19  1  0  0  0  0
 16 17  1  0  0  0  0
 16 18  1  0  0  0  0
 20 24  1  0  0  0  0
 21 20  2  0  0  0  0
 21 22  1  0  0  0  0
 22 26  1  0  0  0  0
 22 23  2  0  0  0  0
 24 23  1  0  0  0  0
 25 21  1  0  0  0  0
 27 31  1  0  0  0  0
 27 32  1  1  0  0  0
 28 23  1  1  0  0  0
 28 29  1  0  0  0  0
 28 27  1  0  0  0  0
 29 30  1  0  0  0  0
 30 31  1  0  0  0  0
 31 34  1  1  0  0  0
 32 33  1  0  0  0  0
 35 34  1  0  0  0  0
M  END
>  <minimizedAffinity>
-6.70098257

$$$$

 OpenBabel03272508073D

 35 38  0  0  1  0  0  0  0  0999 V2000
   37.6110   26.4010   34.2460 C   0  0  0  0  0  0  0  0  0  0  0  0
   37.7960   26.8210   32.9570 C   0  0  0  0  0  0  0  0  0  0  0  0
   37.0280   27.9440   32.6880 C   0  0  0  0  0  0  0  0  0  0  0  0
   36.3830   28.1700   33.8700 N   0  0  0  0  0  0  0  0  0  0  0  0
   36.7210   27.2770   34.7720 N   0  0  0  0  0  0  0  0  0  0  0  0
   38.4440   26.3670   32.2110 H   0  0  0  0  0  0  0  0  0  0  0  0
   36.9160   28.5400   31.8000 H   0  0  0  0  0  0  0  0  0  0  0  0
   38.2230   25.2710   34.9200 C   0  0  0  0  0  0  0  0  0  0  0  0
   37.9600   25.1210   36.3080 C   0  0  0  0  0  0  0  0  0  0  0  0
   38.5420   24.0410   36.9660 C   0  0  0  0  0  0  0  0  0  0  0  0
   39.3230   23.2000   36.2430 N   0  0  0  0  0  0  0  0  0  0  0  0
   39.5560   23.3670   34.9200 C   0  0  0  0  0  0  0  0  0  0  0  0
   38.9970   24.4100   34.2730 N   0  0  0  0  0  0  0  0  0  0  0  0
   37.3400   25.7890   36.8840 H   0  0  0  0  0  0  0  0  0  0  0  0
   40.1940   22.6570   34.3860 H   0  0  0  0  0  0  0  0  0  0  0  0
   38.2750   23.8700   38.4290 C   0  0  0  0  0  0  0  0  0  0  0  0
   39.4610   23.4590   38.9710 F   0  0  0  0  0  0  0  0  0  0  0  0
   37.9010   25.0740   39.0290 F   0  0  0  0  0  0  0  0  0  0  0  0
   37.2960   22.9170   38.6680 F   0  0  0  0  0  0  0  0  0  0  0  0
   35.4370   29.2340   34.1800 C   0  0  0  0  0  0  0  0  0  0  0  0
   35.7830   30.2800   35.0530 C   0  0  0  0  0  0  0  0  0  0  0  0
   34.8560   31.2510   35.2920 C   0  0  0  0  0  0  0  0  0  0  0  0
   33.5770   31.1810   34.6610 C   0  0  0  0  0  0  0  0  0  0  0  0
   33.7290   29.6250   33.6680 S   0  0  0  0  0  0  0  0  0  0  0  0
   36.7390   30.3660   35.5500 H   0  0  0  0  0  0  0  0  0  0  0  0
   34.9250   32.1250   35.9210 H   0  0  0  0  0  0  0  0  0  0  0  0
   31.2410   31.1820   35.2120 C   0  0  2  0  0  3  0  0  0  0  0  0
   32.4020   31.9380   34.6430 C   0  0  1  0  0  3  0  0  0  0  0  0
   32.5230   33.0310   35.5320 O   0  0  0  0  0  0  0  0  0  0  0  0
   31.2290   33.5560   35.5880 C   0  0  0  0  0  2  0  0  0  0  0  0
   30.3760   32.3300   35.7420 C   0  0  2  0  0  3  0  0  0  0  0  0
   31.6850   30.4620   36.3150 O   0  0  0  0  0  0  0  0  0  0  0  0
   31.0980   29.6950   36.5350 H   0  0  0  0  0  0  0  0  0  0  0  0
   29.9590   32.1160   37.0410 O   0  0  0  0  0  0  0  0  0  0  0  0
   30.4580   32.6170   37.7250 H   0  0  0  0  0  0  0  0  0  0  0  0
  1  5  2  0  0  0  0
  1  8  1  0  0  0  0
  2  1  1  0  0  0  0
  3  2  2  0  0  0  0
  3  4  1  0  0  0  0
  4 20  1  0  0  0  0
  4  5  1  0  0  0  0
  6  2  1  0  0  0  0
  7  3  1  0  0  0  0
  8  9  1  0  0  0  0
  9 14  1  0  0  0  0
  9 10  2  0  0  0  0
 10 16  1  0  0  0  0
 11 10  1  0  0  0  0
 12 11  2  0  0  0  0
 13 12  1  0  0  0  0
 13  8  2  0  0  0  0
 15 12  1  0  0  0  0
 16 19  1  0  0  0  0
 16 17  1  0  0  0  0
 16 18  1  0  0  0  0
 20 21  2  0  0  0  0
 21 22  1  0  0  0  0
 21 25  1  0  0  0  0
 22 26  1  0  0  0  0
 23 22  2  0  0  0  0
 24 20  1  0  0  0  0
 24 23  1  0  0  0  0
 27 31  1  0  0  0  0
 27 32  1  1  0  0  0
 28 23  1  1  0  0  0
 28 27  1  0  0  0  0
 28 29  1  0  0  0  0
 29 30  1  0  0  0  0
 30 31  1  0  0  0  0
 31 34  1  1  0  0  0
 32 33  1  0  0  0  0
 34 35  1  0  0  0  0
M  END
>  <minimizedAffinity>
-6.28686094

$$$$

 OpenBabel03272508073D

 35 38  0  0  1  0  0  0  0  0999 V2000
   38.1310   25.7550   33.8600 C   0  0  0  0  0  0  0  0  0  0  0  0
   38.9280   26.2450   32.8610 C   0  0  0  0  0  0  0  0  0  0  0  0
   38.3720   27.3850   32.2980 C   0  0  0  0  0  0  0  0  0  0  0  0
   37.2160   27.5470   33.0050 N   0  0  0  0  0  0  0  0  0  0  0  0
   37.0760   26.6040   33.9080 N   0  0  0  0  0  0  0  0  0  0  0  0
   39.8740   25.8310   32.5210 H   0  0  0  0  0  0  0  0  0  0  0  0
   38.7080   28.0280   31.5060 H   0  0  0  0  0  0  0  0  0  0  0  0
   38.3480   24.5880   34.6920 C   0  0  0  0  0  0  0  0  0  0  0  0
   38.2180   24.7570   36.0970 C   0  0  0  0  0  0  0  0  0  0  0  0
   38.4240   23.6430   36.9060 C   0  0  0  0  0  0  0  0  0  0  0  0
   38.7370   22.4680   36.3070 N   0  0  0  0  0  0  0  0  0  0  0  0
   38.8550   22.3350   34.9640 C   0  0  0  0  0  0  0  0  0  0  0  0
   38.6570   23.4070   34.1710 N   0  0  0  0  0  0  0  0  0  0  0  0
   37.9680   25.6900   36.5750 H   0  0  0  0  0  0  0  0  0  0  0  0
   39.1090   21.3630   34.5330 H   0  0  0  0  0  0  0  0  0  0  0  0
   38.2910   23.8050   38.3880 C   0  0  0  0  0  0  0  0  0  0  0  0
   37.3320   22.9060   38.7690 F   0  0  0  0  0  0  0  0  0  0  0  0
   39.4810   23.4970   39.0500 F   0  0  0  0  0  0  0  0  0  0  0  0
   37.8940   25.0880   38.7360 F   0  0  0  0  0  0  0  0  0  0  0  0
   36.2160   28.5970   32.8500 C   0  0  0  0  0  0  0  0  0  0  0  0
   36.0310   29.2440   31.6160 C   0  0  0  0  0  0  0  0  0  0  0  0
   35.0710   30.2090   31.5350 C   0  0  0  0  0  0  0  0  0  0  0  0
   34.2920   30.5340   32.6870 C   0  0  0  0  0  0  0  0  0  0  0  0
   34.9890   29.3760   33.9540 S   0  0  0  0  0  0  0  0  0  0  0  0
   36.6010   29.0270   30.7250 H   0  0  0  0  0  0  0  0  0  0  0  0
   34.7770   30.8150   30.6930 H   0  0  0  0  0  0  0  0  0  0  0  0
   31.9680   31.0330   32.3590 C   0  0  2  0  0  3  0  0  0  0  0  0
   33.2600   31.4200   33.0090 C   0  0  1  0  0  3  0  0  0  0  0  0
   32.9540   31.3170   34.3870 O   0  0  0  0  0  0  0  0  0  0  0  0
   31.7820   32.0660   34.5210 C   0  0  0  0  0  2  0  0  0  0  0  0
   30.9550   31.6080   33.3540 C   0  0  2  0  0  3  0  0  0  0  0  0
   31.8480   29.6490   32.4080 O   0  0  0  0  0  0  0  0  0  0  0  0
   31.2270   29.2920   31.7250 H   0  0  0  0  0  0  0  0  0  0  0  0
   29.9830   30.6910   33.7020 O   0  0  0  0  0  0  0  0  0  0  0  0
   30.1070   30.2680   34.5810 H   0  0  0  0  0  0  0  0  0  0  0  0
  1  5  2  0  0  0  0
  1  8  1  0  0  0  0
  2  1  1  0  0  0  0
  3  2  2  0  0  0  0
  3  4  1  0  0  0  0
  4  5  1  0  0  0  0
  6  2  1  0  0  0  0
  7  3  1  0  0  0  0
  8  9  1  0  0  0  0
  9 14  1  0  0  0  0
  9 10  2  0  0  0  0
 10 16  1  0  0  0  0
 11 10  1  0  0  0  0
 12 11  2  0  0  0  0
 13  8  2  0  0  0  0
 13 12  1  0  0  0  0
 15 12  1  0  0  0  0
 16 19  1  0  0  0  0
 16 17  1  0  0  0  0
 16 18  1  0  0  0  0
 20  4  1  0  0  0  0
 20 24  1  0  0  0  0
 21 20  2  0  0  0  0
 22 21  1  0  0  0  0
 22 23  2  0  0  0  0
 23 24  1  0  0  0  0
 25 21  1  0  0  0  0
 26 22  1  0  0  0  0
 27 32  1  1  0  0  0
 27 28  1  0  0  0  0
 27 31  1  0  0  0  0
 28 23  1  6  0  0  0
 28 29  1  0  0  0  0
 29 30  1  0  0  0  0
 31 34  1  1  0  0  0
 31 30  1  0  0  0  0
 33 32  1  0  0  0  0
 34 35  1  0  0  0  0
M  END
>  <minimizedAffinity>
-6.26617813

$$$$

 OpenBabel03272508073D

 35 38  0  0  1  0  0  0  0  0999 V2000
   35.7530   29.0680   31.7080 C   0  0  0  0  0  0  0  0  0  0  0  0
   36.4840   29.1920   30.5570 C   0  0  0  0  0  0  0  0  0  0  0  0
   36.9190   27.9520   30.1110 C   0  0  0  0  0  0  0  0  0  0  0  0
   36.4150   27.0930   31.0450 N   0  0  0  0  0  0  0  0  0  0  0  0
   35.7410   27.7380   31.9690 N   0  0  0  0  0  0  0  0  0  0  0  0
   36.7170   30.1140   30.0310 H   0  0  0  0  0  0  0  0  0  0  0  0
   37.5050   27.6630   29.2580 H   0  0  0  0  0  0  0  0  0  0  0  0
   35.1240   30.1150   32.4900 C   0  0  0  0  0  0  0  0  0  0  0  0
   35.6910   30.4080   33.7600 C   0  0  0  0  0  0  0  0  0  0  0  0
   35.0960   31.4110   34.5200 C   0  0  0  0  0  0  0  0  0  0  0  0
   34.0130   32.0440   34.0050 N   0  0  0  0  0  0  0  0  0  0  0  0
   33.4930   31.7430   32.7920 C   0  0  0  0  0  0  0  0  0  0  0  0
   34.0620   30.7740   32.0470 N   0  0  0  0  0  0  0  0  0  0  0  0
   36.5530   29.9060   34.1700 H   0  0  0  0  0  0  0  0  0  0  0  0
   32.6180   32.2870   32.4240 H   0  0  0  0  0  0  0  0  0  0  0  0
   35.6820   31.7330   35.8590 C   0  0  0  0  0  0  0  0  0  0  0  0
   36.6280   30.7710   36.0840 F   0  0  0  0  0  0  0  0  0  0  0  0
   36.3050   32.9820   35.8630 F   0  0  0  0  0  0  0  0  0  0  0  0
   34.7280   31.6960   36.8650 F   0  0  0  0  0  0  0  0  0  0  0  0
   36.5530   25.6420   31.0870 C   0  0  0  0  0  0  0  0  0  0  0  0
   37.7980   25.0260   30.8750 C   0  0  0  0  0  0  0  0  0  0  0  0
   37.8610   23.6650   30.9400 C   0  0  0  0  0  0  0  0  0  0  0  0
   36.6790   22.9130   31.2150 C   0  0  0  0  0  0  0  0  0  0  0  0
   35.4100   24.2510   31.3910 S   0  0  0  0  0  0  0  0  0  0  0  0
   38.7120   25.5610   30.6630 H   0  0  0  0  0  0  0  0  0  0  0  0
   38.7080   23.0110   30.8080 H   0  0  0  0  0  0  0  0  0  0  0  0
   36.9250   20.9650   32.5950 C   0  0  2  0  0  3  0  0  0  0  0  0
   36.3330   21.5670   31.3580 C   0  0  1  0  0  3  0  0  0  0  0  0
   34.9430   21.4530   31.5960 O   0  0  0  0  0  0  0  0  0  0  0  0
   34.7760   20.1100   31.9420 C   0  0  0  0  0  2  0  0  0  0  0  0
   35.9010   19.8690   32.9070 C   0  0  2  0  0  3  0  0  0  0  0  0
   36.8470   21.9010   33.6190 O   0  0  0  0  0  0  0  0  0  0  0  0
   37.5000   21.7320   34.3450 H   0  0  0  0  0  0  0  0  0  0  0  0
   35.5010   19.8870   34.2290 O   0  0  0  0  0  0  0  0  0  0  0  0
   34.6200   20.2940   34.3890 H   0  0  0  0  0  0  0  0  0  0  0  0
  1  5  2  0  0  0  0
  1  8  1  0  0  0  0
  2  1  1  0  0  0  0
  3  2  2  0  0  0  0
  3  4  1  0  0  0  0
  4 20  1  0  0  0  0
  4  5  1  0  0  0  0
  6  2  1  0  0  0  0
  7  3  1  0  0  0  0
  8  9  1  0  0  0  0
  9 14  1  0  0  0  0
  9 10  2  0  0  0  0
 10 16  1  0  0  0  0
 11 10  1  0  0  0  0
 12 11  2  0  0  0  0
 13  8  2  0  0  0  0
 13 12  1  0  0  0  0
 15 12  1  0  0  0  0
 16 18  1  0  0  0  0
 16 17  1  0  0  0  0
 16 19  1  0  0  0  0
 20 24  1  0  0  0  0
 21 22  1  0  0  0  0
 21 20  2  0  0  0  0
 22 23  2  0  0  0  0
 23 24  1  0  0  0  0
 25 21  1  0  0  0  0
 26 22  1  0  0  0  0
 27 31  1  0  0  0  0
 27 32  1  1  0  0  0
 28 23  1  1  0  0  0
 28 29  1  0  0  0  0
 28 27  1  0  0  0  0
 29 30  1  0  0  0  0
 30 31  1  0  0  0  0
 31 34  1  1  0  0  0
 32 33  1  0  0  0  0
 34 35  1  0  0  0  0
M  END
>  <minimizedAffinity>
-6.14902592

$$$$

 OpenBabel03272508073D

 35 38  0  0  1  0  0  0  0  0999 V2000
   37.7390   24.9820   33.6960 C   0  0  0  0  0  0  0  0  0  0  0  0
   37.1550   24.5630   32.5320 C   0  0  0  0  0  0  0  0  0  0  0  0
   36.5880   25.6300   31.8510 C   0  0  0  0  0  0  0  0  0  0  0  0
   36.8600   26.6950   32.6610 N   0  0  0  0  0  0  0  0  0  0  0  0
   37.5260   26.3200   33.7290 N   0  0  0  0  0  0  0  0  0  0  0  0
   37.1170   23.5450   32.1530 H   0  0  0  0  0  0  0  0  0  0  0  0
   36.0540   25.6830   30.9200 H   0  0  0  0  0  0  0  0  0  0  0  0
   38.4350   24.1860   34.6900 C   0  0  0  0  0  0  0  0  0  0  0  0
   38.0520   24.3590   36.0470 C   0  0  0  0  0  0  0  0  0  0  0  0
   38.7130   23.6010   37.0100 C   0  0  0  0  0  0  0  0  0  0  0  0
   39.6800   22.7470   36.5950 N   0  0  0  0  0  0  0  0  0  0  0  0
   40.0250   22.6020   35.2940 C   0  0  0  0  0  0  0  0  0  0  0  0
   39.3910   23.3310   34.3530 N   0  0  0  0  0  0  0  0  0  0  0  0
   37.2820   25.0380   36.3790 H   0  0  0  0  0  0  0  0  0  0  0  0
   40.8130   21.8960   35.0140 H   0  0  0  0  0  0  0  0  0  0  0  0
   38.3200   23.7730   38.4440 C   0  0  0  0  0  0  0  0  0  0  0  0
   39.4540   23.5180   39.1660 F   0  0  0  0  0  0  0  0  0  0  0  0
   37.9020   25.0780   38.7120 F   0  0  0  0  0  0  0  0  0  0  0  0
   37.3200   22.8880   38.8170 F   0  0  0  0  0  0  0  0  0  0  0  0
   36.5040   28.0920   32.4470 C   0  0  0  0  0  0  0  0  0  0  0  0
   37.0360   28.8180   31.3680 C   0  0  0  0  0  0  0  0  0  0  0  0
   36.6530   30.1190   31.2180 C   0  0  0  0  0  0  0  0  0  0  0  0
   35.7370   30.7000   32.1460 C   0  0  0  0  0  0  0  0  0  0  0  0
   35.4140   29.2850   33.2970 S   0  0  0  0  0  0  0  0  0  0  0  0
   37.7320   28.4140   30.6480 H   0  0  0  0  0  0  0  0  0  0  0  0
   36.9430   30.8360   30.4670 H   0  0  0  0  0  0  0  0  0  0  0  0
   34.2280   32.3040   31.1920 C   0  0  2  0  0  3  0  0  0  0  0  0
   35.1220   31.9400   32.3370 C   0  0  1  0  0  3  0  0  0  0  0  0
   34.2180   31.8640   33.4220 O   0  0  0  0  0  0  0  0  0  0  0  0
   33.5210   33.0730   33.3570 C   0  0  0  0  0  2  0  0  0  0  0  0
   33.2020   33.1990   31.8950 C   0  0  2  0  0  3  0  0  0  0  0  0
   33.5570   31.1600   30.7790 O   0  0  0  0  0  0  0  0  0  0  0  0
   33.2250   31.2230   29.8480 H   0  0  0  0  0  0  0  0  0  0  0  0
   31.9020   32.8470   31.5880 O   0  0  0  0  0  0  0  0  0  0  0  0
   31.4370   32.3310   32.2840 H   0  0  0  0  0  0  0  0  0  0  0  0
  1  5  2  0  0  0  0
  1  8  1  0  0  0  0
  2  1  1  0  0  0  0
  3  2  2  0  0  0  0
  3  4  1  0  0  0  0
  4  5  1  0  0  0  0
  6  2  1  0  0  0  0
  7  3  1  0  0  0  0
  8  9  1  0  0  0  0
  9 14  1  0  0  0  0
  9 10  2  0  0  0  0
 10 16  1  0  0  0  0
 11 10  1  0  0  0  0
 12 11  2  0  0  0  0
 13  8  2  0  0  0  0
 13 12  1  0  0  0  0
 15 12  1  0  0  0  0
 16 18  1  0  0  0  0
 16 19  1  0  0  0  0
 16 17  1  0  0  0  0
 20  4  1  0  0  0  0
 20 24  1  0  0  0  0
 21 20  2  0  0  0  0
 22 21  1  0  0  0  0
 22 23  2  0  0  0  0
 23 24  1  0  0  0  0
 25 21  1  0  0  0  0
 26 22  1  0  0  0  0
 27 32  1  1  0  0  0
 27 31  1  0  0  0  0
 27 28  1  0  0  0  0
 28 23  1  6  0  0  0
 28 29  1  0  0  0  0
 30 29  1  0  0  0  0
 31 34  1  1  0  0  0
 31 30  1  0  0  0  0
 33 32  1  0  0  0  0
 34 35  1  0  0  0  0
M  END
>  <minimizedAffinity>
-5.96140528

$$$$

 OpenBabel03272508073D

 35 38  0  0  1  0  0  0  0  0999 V2000
   37.6300   25.3350   33.8300 C   0  0  0  0  0  0  0  0  0  0  0  0
   37.2660   25.1280   32.5280 C   0  0  0  0  0  0  0  0  0  0  0  0
   36.6520   26.2560   32.0000 C   0  0  0  0  0  0  0  0  0  0  0  0
   36.6700   27.1350   33.0450 N   0  0  0  0  0  0  0  0  0  0  0  0
   37.2350   26.6020   34.1040 N   0  0  0  0  0  0  0  0  0  0  0  0
   37.4160   24.2230   31.9460 H   0  0  0  0  0  0  0  0  0  0  0  0
   36.2430   26.4600   31.0280 H   0  0  0  0  0  0  0  0  0  0  0  0
   38.2910   24.4150   34.7360 C   0  0  0  0  0  0  0  0  0  0  0  0
   37.9920   24.5350   36.1190 C   0  0  0  0  0  0  0  0  0  0  0  0
   38.6210   23.6570   36.9980 C   0  0  0  0  0  0  0  0  0  0  0  0
   39.4800   22.7440   36.4810 N   0  0  0  0  0  0  0  0  0  0  0  0
   39.7470   22.6520   35.1570 C   0  0  0  0  0  0  0  0  0  0  0  0
   39.1430   23.4970   34.2970 N   0  0  0  0  0  0  0  0  0  0  0  0
   37.3080   25.2600   36.5320 H   0  0  0  0  0  0  0  0  0  0  0  0
   40.4490   21.8960   34.7940 H   0  0  0  0  0  0  0  0  0  0  0  0
   38.3150   23.7710   38.4590 C   0  0  0  0  0  0  0  0  0  0  0  0
   39.4880   23.4840   39.1010 F   0  0  0  0  0  0  0  0  0  0  0  0
   37.9200   25.0650   38.8040 F   0  0  0  0  0  0  0  0  0  0  0  0
   37.3340   22.8740   38.8540 F   0  0  0  0  0  0  0  0  0  0  0  0
   36.1580   28.5000   33.0690 C   0  0  0  0  0  0  0  0  0  0  0  0
   36.4360   29.3970   32.0240 C   0  0  0  0  0  0  0  0  0  0  0  0
   35.9170   30.6560   32.1030 C   0  0  0  0  0  0  0  0  0  0  0  0
   35.1190   31.0250   33.2280 C   0  0  0  0  0  0  0  0  0  0  0  0
   35.1210   29.4620   34.2230 S   0  0  0  0  0  0  0  0  0  0  0  0
   37.0360   29.1550   31.1590 H   0  0  0  0  0  0  0  0  0  0  0  0
   36.0120   31.4810   31.4150 H   0  0  0  0  0  0  0  0  0  0  0  0
   35.0230   32.7130   34.9310 C   0  0  2  0  0  3  0  0  0  0  0  0
   34.4350   32.1610   33.6690 C   0  0  1  0  0  3  0  0  0  0  0  0
   34.6260   33.2210   32.7510 O   0  0  0  0  0  0  0  0  0  0  0  0
   34.0960   34.3310   33.4140 C   0  0  0  0  0  2  0  0  0  0  0  0
   34.6590   34.1960   34.8000 C   0  0  2  0  0  3  0  0  0  0  0  0
   36.4070   32.6230   34.8460 O   0  0  0  0  0  0  0  0  0  0  0  0
   36.8490   32.6370   35.7320 H   0  0  0  0  0  0  0  0  0  0  0  0
   35.7400   35.0230   35.0320 O   0  0  0  0  0  0  0  0  0  0  0  0
   36.1590   35.3950   34.2230 H   0  0  0  0  0  0  0  0  0  0  0  0
  1  5  2  0  0  0  0
  1  8  1  0  0  0  0
  2  1  1  0  0  0  0
  3  2  2  0  0  0  0
  3  4  1  0  0  0  0
  4 20  1  0  0  0  0
  4  5  1  0  0  0  0
  6  2  1  0  0  0  0
  7  3  1  0  0  0  0
  8  9  1  0  0  0  0
  9 14  1  0  0  0  0
  9 10  2  0  0  0  0
 10 16  1  0  0  0  0
 11 10  1  0  0  0  0
 12 11  2  0  0  0  0
 13  8  2  0  0  0  0
 13 12  1  0  0  0  0
 15 12  1  0  0  0  0
 16 18  1  0  0  0  0
 16 19  1  0  0  0  0
 16 17  1  0  0  0  0
 20 24  1  0  0  0  0
 21 22  1  0  0  0  0
 21 20  2  0  0  0  0
 22 23  2  0  0  0  0
 23 24  1  0  0  0  0
 25 21  1  0  0  0  0
 26 22  1  0  0  0  0
 27 32  1  6  0  0  0
 28 23  1  6  0  0  0
 28 27  1  0  0  0  0
 29 30  1  0  0  0  0
 29 28  1  0  0  0  0
 30 31  1  0  0  0  0
 31 27  1  0  0  0  0
 31 34  1  6  0  0  0
 32 33  1  0  0  0  0
 35 34  1  0  0  0  0
M  END
>  <minimizedAffinity>
-5.92520475

$$$$

 OpenBabel03272508073D

 35 38  0  0  1  0  0  0  0  0999 V2000
   37.9900   25.3540   35.0870 C   0  0  0  0  0  0  0  0  0  0  0  0
   38.2310   25.1660   33.7530 C   0  0  0  0  0  0  0  0  0  0  0  0
   37.6290   26.1620   32.9970 C   0  0  0  0  0  0  0  0  0  0  0  0
   37.0250   26.9440   33.9390 N   0  0  0  0  0  0  0  0  0  0  0  0
   37.2330   26.4760   35.1480 N   0  0  0  0  0  0  0  0  0  0  0  0
   38.8070   24.3620   33.3030 H   0  0  0  0  0  0  0  0  0  0  0  0
   37.6020   26.3390   31.9370 H   0  0  0  0  0  0  0  0  0  0  0  0
   38.4360   24.5430   36.2040 C   0  0  0  0  0  0  0  0  0  0  0  0
   39.6230   23.7820   36.0230 C   0  0  0  0  0  0  0  0  0  0  0  0
   40.0600   22.9990   37.0880 C   0  0  0  0  0  0  0  0  0  0  0  0
   39.3290   23.0090   38.2300 N   0  0  0  0  0  0  0  0  0  0  0  0
   38.2010   23.7440   38.3740 C   0  0  0  0  0  0  0  0  0  0  0  0
   37.7680   24.5060   37.3500 N   0  0  0  0  0  0  0  0  0  0  0  0
   40.2060   23.7730   35.1160 H   0  0  0  0  0  0  0  0  0  0  0  0
   37.6500   23.7160   39.3190 H   0  0  0  0  0  0  0  0  0  0  0  0
   41.3090   22.1920   36.9130 C   0  0  0  0  0  0  0  0  0  0  0  0
   41.3170   21.3020   37.9510 F   0  0  0  0  0  0  0  0  0  0  0  0
   41.2980   21.4800   35.7120 F   0  0  0  0  0  0  0  0  0  0  0  0
   42.4480   22.9820   36.9640 F   0  0  0  0  0  0  0  0  0  0  0  0
   36.2400   28.1530   33.7230 C   0  0  0  0  0  0  0  0  0  0  0  0
   36.2430   29.1970   34.6630 C   0  0  0  0  0  0  0  0  0  0  0  0
   35.4960   30.3060   34.3950 C   0  0  0  0  0  0  0  0  0  0  0  0
   34.7400   30.3770   33.1860 C   0  0  0  0  0  0  0  0  0  0  0  0
   35.1360   28.7480   32.3960 S   0  0  0  0  0  0  0  0  0  0  0  0
   36.8000   29.1790   35.5890 H   0  0  0  0  0  0  0  0  0  0  0  0
   35.3660   31.2030   34.9790 H   0  0  0  0  0  0  0  0  0  0  0  0
   34.6410   32.3790   31.8670 C   0  0  2  0  0  3  0  0  0  0  0  0
   33.8850   31.2910   32.5650 C   0  0  1  0  0  3  0  0  0  0  0  0
   33.2010   30.6590   31.5000 O   0  0  0  0  0  0  0  0  0  0  0  0
   32.5730   31.7170   30.8380 C   0  0  0  0  0  2  0  0  0  0  0  0
   33.6560   32.7530   30.7540 C   0  0  2  0  0  3  0  0  0  0  0  0
   35.7550   31.8170   31.2540 O   0  0  0  0  0  0  0  0  0  0  0  0
   36.4700   32.4780   31.0750 H   0  0  0  0  0  0  0  0  0  0  0  0
   34.2630   32.8100   29.5150 O   0  0  0  0  0  0  0  0  0  0  0  0
   34.1030   32.0290   28.9390 H   0  0  0  0  0  0  0  0  0  0  0  0
  1  5  2  0  0  0  0
  1  8  1  0  0  0  0
  2  1  1  0  0  0  0
  3  2  2  0  0  0  0
  3  4  1  0  0  0  0
  4  5  1  0  0  0  0
  6  2  1  0  0  0  0
  7  3  1  0  0  0  0
  8 13  1  0  0  0  0
  9  8  2  0  0  0  0
  9 10  1  0  0  0  0
 10 11  2  0  0  0  0
 11 12  1  0  0  0  0
 12 15  1  0  0  0  0
 13 12  2  0  0  0  0
 14  9  1  0  0  0  0
 16 19  1  0  0  0  0
 16 10  1  0  0  0  0
 16 17  1  0  0  0  0
 18 16  1  0  0  0  0
 20  4  1  0  0  0  0
 20 21  2  0  0  0  0
 21 25  1  0  0  0  0
 22 21  1  0  0  0  0
 22 26  1  0  0  0  0
 23 22  2  0  0  0  0
 24 23  1  0  0  0  0
 24 20  1  0  0  0  0
 27 32  1  6  0  0  0
 27 28  1  0  0  0  0
 28 23  1  6  0  0  0
 29 28  1  0  0  0  0
 30 29  1  0  0  0  0
 31 34  1  6  0  0  0
 31 30  1  0  0  0  0
 31 27  1  0  0  0  0
 33 32  1  0  0  0  0
 35 34  1  0  0  0  0
M  END
>  <minimizedAffinity>
-5.88999796

$$$$

 OpenBabel03272508073D

 35 38  0  0  1  0  0  0  0  0999 V2000
   38.3920   25.6850   34.8920 C   0  0  0  0  0  0  0  0  0  0  0  0
   39.1320   25.8580   33.7540 C   0  0  0  0  0  0  0  0  0  0  0  0
   38.5710   26.8350   32.9430 C   0  0  0  0  0  0  0  0  0  0  0  0
   37.4710   27.2300   33.6500 N   0  0  0  0  0  0  0  0  0  0  0  0
   37.3680   26.5650   34.7770 N   0  0  0  0  0  0  0  0  0  0  0  0
   40.0400   25.3270   33.4810 H   0  0  0  0  0  0  0  0  0  0  0  0
   38.8690   27.2320   31.9900 H   0  0  0  0  0  0  0  0  0  0  0  0
   38.6330   24.7680   35.9900 C   0  0  0  0  0  0  0  0  0  0  0  0
   39.7930   23.9510   35.9120 C   0  0  0  0  0  0  0  0  0  0  0  0
   40.0350   23.0670   36.9600 C   0  0  0  0  0  0  0  0  0  0  0  0
   39.1510   23.0390   37.9880 N   0  0  0  0  0  0  0  0  0  0  0  0
   38.0530   23.8300   38.0360 C   0  0  0  0  0  0  0  0  0  0  0  0
   37.8090   24.6900   37.0270 N   0  0  0  0  0  0  0  0  0  0  0  0
   40.4970   23.9720   35.0960 H   0  0  0  0  0  0  0  0  0  0  0  0
   37.3730   23.7670   38.8900 H   0  0  0  0  0  0  0  0  0  0  0  0
   41.2520   22.1990   36.8930 C   0  0  0  0  0  0  0  0  0  0  0  0
   42.3160   23.0560   36.9520 F   0  0  0  0  0  0  0  0  0  0  0  0
   41.3220   21.3230   37.9780 F   0  0  0  0  0  0  0  0  0  0  0  0
   41.3040   21.4690   35.7150 F   0  0  0  0  0  0  0  0  0  0  0  0
   36.4940   28.2470   33.2820 C   0  0  0  0  0  0  0  0  0  0  0  0
   36.3460   28.6600   31.9470 C   0  0  0  0  0  0  0  0  0  0  0  0
   35.4050   29.6080   31.6680 C   0  0  0  0  0  0  0  0  0  0  0  0
   34.6080   30.1480   32.7220 C   0  0  0  0  0  0  0  0  0  0  0  0
   35.2580   29.2320   34.1960 S   0  0  0  0  0  0  0  0  0  0  0  0
   36.9310   28.2760   31.1230 H   0  0  0  0  0  0  0  0  0  0  0  0
   35.1390   30.0530   30.7220 H   0  0  0  0  0  0  0  0  0  0  0  0
   32.3030   30.6130   32.2450 C   0  0  2  0  0  3  0  0  0  0  0  0
   33.5850   31.0910   32.8520 C   0  0  1  0  0  3  0  0  0  0  0  0
   33.2430   31.2400   34.2170 O   0  0  0  0  0  0  0  0  0  0  0  0
   32.0820   32.0170   34.1830 C   0  0  0  0  0  2  0  0  0  0  0  0
   31.2760   31.3700   33.0930 C   0  0  2  0  0  3  0  0  0  0  0  0
   32.1560   29.2620   32.5360 O   0  0  0  0  0  0  0  0  0  0  0  0
   31.5460   28.7970   31.9090 H   0  0  0  0  0  0  0  0  0  0  0  0
   30.2780   30.5440   33.5700 O   0  0  0  0  0  0  0  0  0  0  0  0
   30.3720   30.2820   34.5130 H   0  0  0  0  0  0  0  0  0  0  0  0
  1  8  1  0  0  0  0
  2  1  1  0  0  0  0
  3  4  1  0  0  0  0
  3  2  2  0  0  0  0
  4  5  1  0  0  0  0
  5  1  2  0  0  0  0
  6  2  1  0  0  0  0
  7  3  1  0  0  0  0
  8 13  1  0  0  0  0
  9  8  2  0  0  0  0
  9 10  1  0  0  0  0
 10 11  2  0  0  0  0
 11 12  1  0  0  0  0
 12 15  1  0  0  0  0
 13 12  2  0  0  0  0
 14  9  1  0  0  0  0
 16 17  1  0  0  0  0
 16 10  1  0  0  0  0
 16 18  1  0  0  0  0
 19 16  1  0  0  0  0
 20  4  1  0  0  0  0
 20 24  1  0  0  0  0
 21 20  2  0  0  0  0
 22 21  1  0  0  0  0
 22 23  2  0  0  0  0
 23 24  1  0  0  0  0
 25 21  1  0  0  0  0
 26 22  1  0  0  0  0
 27 32  1  1  0  0  0
 27 28  1  0  0  0  0
 27 31  1  0  0  0  0
 28 23  1  1  0  0  0
 28 29  1  0  0  0  0
 30 29  1  0  0  0  0
 31 34  1  1  0  0  0
 31 30  1  0  0  0  0
 33 32  1  0  0  0  0
 34 35  1  0  0  0  0
M  END
>  <minimizedAffinity>
-5.88876009

$$$$

 OpenBabel03272508073D

 35 38  0  0  1  0  0  0  0  0999 V2000
   35.6000   29.2400   33.5530 C   0  0  0  0  0  0  0  0  0  0  0  0
   36.1290   28.9180   32.3330 C   0  0  0  0  0  0  0  0  0  0  0  0
   36.9820   27.8290   32.4350 C   0  0  0  0  0  0  0  0  0  0  0  0
   36.9340   27.5220   33.7640 N   0  0  0  0  0  0  0  0  0  0  0  0
   36.1360   28.3380   34.4120 N   0  0  0  0  0  0  0  0  0  0  0  0
   35.9360   29.4190   31.3880 H   0  0  0  0  0  0  0  0  0  0  0  0
   37.5650   27.3050   31.7000 H   0  0  0  0  0  0  0  0  0  0  0  0
   34.6720   30.3070   33.8780 C   0  0  0  0  0  0  0  0  0  0  0  0
   34.6250   30.7390   35.2310 C   0  0  0  0  0  0  0  0  0  0  0  0
   33.7390   31.7620   35.5540 C   0  0  0  0  0  0  0  0  0  0  0  0
   32.9750   32.2820   34.5620 N   0  0  0  0  0  0  0  0  0  0  0  0
   33.0400   31.8500   33.2800 C   0  0  0  0  0  0  0  0  0  0  0  0
   33.8960   30.8600   32.9560 N   0  0  0  0  0  0  0  0  0  0  0  0
   35.2320   30.3270   36.0210 H   0  0  0  0  0  0  0  0  0  0  0  0
   32.4010   32.3060   32.5190 H   0  0  0  0  0  0  0  0  0  0  0  0
   33.6770   32.2290   36.9750 C   0  0  0  0  0  0  0  0  0  0  0  0
   32.9130   33.3620   36.9550 F   0  0  0  0  0  0  0  0  0  0  0  0
   33.0610   31.2870   37.8010 F   0  0  0  0  0  0  0  0  0  0  0  0
   34.9360   32.5220   37.4790 F   0  0  0  0  0  0  0  0  0  0  0  0
   37.6370   26.4490   34.4560 C   0  0  0  0  0  0  0  0  0  0  0  0
   37.8910   26.5200   35.8370 C   0  0  0  0  0  0  0  0  0  0  0  0
   38.5430   25.4770   36.4260 C   0  0  0  0  0  0  0  0  0  0  0  0
   38.9470   24.3580   35.6370 C   0  0  0  0  0  0  0  0  0  0  0  0
   38.3470   24.8440   33.9530 S   0  0  0  0  0  0  0  0  0  0  0  0
   37.6020   27.3510   36.4650 H   0  0  0  0  0  0  0  0  0  0  0  0
   38.8290   25.3410   37.4560 H   0  0  0  0  0  0  0  0  0  0  0  0
   40.9640   23.1300   35.2110 C   0  0  2  0  0  3  0  0  0  0  0  0
   39.6080   23.1440   35.8450 C   0  0  1  0  0  3  0  0  0  0  0  0
   39.9090   22.9930   37.2190 O   0  0  0  0  0  0  0  0  0  0  0  0
   40.7510   21.8780   37.2520 C   0  0  0  0  0  2  0  0  0  0  0  0
   41.7030   22.1430   36.1210 C   0  0  2  0  0  3  0  0  0  0  0  0
   41.5500   24.3760   35.3990 O   0  0  0  0  0  0  0  0  0  0  0  0
   42.2670   24.5670   34.7430 H   0  0  0  0  0  0  0  0  0  0  0  0
   42.9260   22.6300   36.5400 O   0  0  0  0  0  0  0  0  0  0  0  0
   42.9400   22.9780   37.4600 H   0  0  0  0  0  0  0  0  0  0  0  0
  1  8  1  0  0  0  0
  1  5  2  0  0  0  0
  2  3  2  0  0  0  0
  2  1  1  0  0  0  0
  3  4  1  0  0  0  0
  4  5  1  0  0  0  0
  4 20  1  0  0  0  0
  6  2  1  0  0  0  0
  7  3  1  0  0  0  0
  8  9  1  0  0  0  0
  9 10  2  0  0  0  0
  9 14  1  0  0  0  0
 10 16  1  0  0  0  0
 11 10  1  0  0  0  0
 12 11  2  0  0  0  0
 13 12  1  0  0  0  0
 13  8  2  0  0  0  0
 15 12  1  0  0  0  0
 16 19  1  0  0  0  0
 16 18  1  0  0  0  0
 17 16  1  0  0  0  0
 20 21  2  0  0  0  0
 21 22  1  0  0  0  0
 21 25  1  0  0  0  0
 22 26  1  0  0  0  0
 23 22  2  0  0  0  0
 24 20  1  0  0  0  0
 24 23  1  0  0  0  0
 27 32  1  1  0  0  0
 27 28  1  0  0  0  0
 27 31  1  0  0  0  0
 28 23  1  1  0  0  0
 28 29  1  0  0  0  0
 29 30  1  0  0  0  0
 31 34  1  1  0  0  0
 31 30  1  0  0  0  0
 33 32  1  0  0  0  0
 34 35  1  0  0  0  0
M  END
>  <minimizedAffinity>
-5.8465004

$$$$
