REMARK  Name = 
REMARK  7 active torsions:
REMARK  status: ('A' for Active; 'I' for Inactive)
REMARK    1  A    between atoms: C_1  and  C_2
REMARK    2  A    between atoms: C_1  and  O_9
REMARK    3  A    between atoms: C_2  and  C_3
REMARK    4  A    between atoms: O_9  and  C_14
REMARK    5  A    between atoms: C_12  and  C_27
REMARK    6  A    between atoms: O_25  and  C_26
REMARK    7  A    between atoms: C_30  and  O_31
REMARK                            x       y       z     vdW  Elec       q    Type
REMARK                         _______ _______ _______ _____ _____    ______ ____
ROOT
ATOM      1  C   UNL     1      37.224  30.194  51.295  0.00  0.00    +0.000 A 
ATOM      2  C   UNL     1      37.905  30.627  50.148  0.00  0.00    +0.000 A 
ATOM      3  C   UNL     1      37.432  30.214  48.915  0.00  0.00    +0.000 A 
ATOM      4  N   UNL     1      36.334  29.412  48.874  0.00  0.00    +0.000 NA
ATOM      5  C   UNL     1      35.696  29.008  49.992  0.00  0.00    +0.000 A 
ATOM      6  N   UNL     1      36.161  29.413  51.193  0.00  0.00    +0.000 NA
ATOM      7  H   UNL     1      37.629  30.541  52.235  0.00  0.00    +0.000 HD
ATOM      8  H   UNL     1      38.775  31.263  50.189  0.00  0.00    +0.000 HD
ENDROOT
BRANCH   3  10
ATOM      9  C   UNL     1      37.125  31.195  46.638  0.00  0.00    +0.000 C 
ATOM     10  C   UNL     1      38.091  30.624  47.624  0.00  0.00    +0.000 C 
ATOM     11  O   UNL     1      38.948  31.701  47.916  0.00  0.00    +0.000 OA
ATOM     12  C   UNL     1      39.315  32.189  46.679  0.00  0.00    +0.000 C 
ATOM     13  C   UNL     1      38.031  32.178  45.887  0.00  0.00    +0.000 C 
BRANCH   9  14
ATOM     14  O   UNL     1      36.780  30.180  45.753  0.00  0.00    +0.000 OA
ATOM     15  H   UNL     1      37.603  29.619  45.618  0.00  0.00    +0.000 HD
ENDBRANCH   9  14
BRANCH  13  16
ATOM     16  O   UNL     1      37.496  33.444  45.862  0.00  0.00    +0.000 OA
ATOM     17  H   UNL     1      36.577  33.425  45.478  0.00  0.00    +0.000 HD
ENDBRANCH  13  16
ENDBRANCH   3  10
BRANCH   5  18
ATOM     18  O   UNL     1      34.620  28.210  49.746  0.00  0.00    +0.000 OA
BRANCH  18  19
ATOM     19  C   UNL     1      33.718  28.614  48.709  0.00  0.00    +0.000 C 
ATOM     20  H   UNL     1      34.244  29.081  47.873  0.00  0.00    +0.000 HD
ATOM     21  H   UNL     1      33.060  29.372  49.213  0.00  0.00    +0.000 HD
BRANCH  19  22
ATOM     22  C   UNL     1      32.813  27.472  48.339  0.00  0.00    +0.000 C 
ATOM     23  H   UNL     1      33.027  27.173  47.293  0.00  0.00    +0.000 HD
ATOM     24  H   UNL     1      32.986  26.572  48.963  0.00  0.00    +0.000 HD
BRANCH  22  25
ATOM     25  C   UNL     1      31.377  27.866  48.347  0.00  0.00    +0.000 A 
ATOM     26  C   UNL     1      30.703  27.732  49.536  0.00  0.00    +0.000 A 
ATOM     27  C   UNL     1      29.363  28.069  49.656  0.00  0.00    +0.000 A 
ATOM     28  N   UNL     1      28.720  28.536  48.586  0.00  0.00    +0.000 NA
ATOM     29  C   UNL     1      29.391  28.665  47.419  0.00  0.00    +0.000 A 
ATOM     30  N   UNL     1      30.691  28.341  47.289  0.00  0.00    +0.000 NA
ATOM     31  H   UNL     1      31.203  27.355  50.419  0.00  0.00    +0.000 HD
ATOM     32  H   UNL     1      28.865  27.948  50.613  0.00  0.00    +0.000 HD
ATOM     33  H   UNL     1      28.814  29.047  46.595  0.00  0.00    +0.000 HD
ENDBRANCH  22  25
ENDBRANCH  19  22
ENDBRANCH  18  19
ENDBRANCH   5  18
TORSDOF 7
