
     RDKit          3D

 45 48  0  0  0  0  0  0  0  0999 V2000
   37.3704   31.0648   47.1387 N   0  0  0  0  0  0  0  0  0  0  0  0
   36.7795   30.7263   45.9702 C   0  0  0  0  0  0  0  0  0  0  0  0
   37.2337   31.1926   44.7484 C   0  0  0  0  0  0  0  0  0  0  0  0
   38.3486   32.0437   44.7694 C   0  0  0  0  0  0  0  0  0  0  0  0
   38.8124   32.5030   43.6951 O   0  0  0  0  0  0  0  0  0  0  0  0
   38.9485   32.3869   45.9598 N   0  0  0  0  0  0  0  0  0  0  0  0
   38.4095   31.8674   47.0608 C   0  0  0  0  0  0  0  0  0  0  0  0
   38.9789   32.2004   48.1167 O   0  0  0  0  0  0  0  0  0  0  0  0
   37.2564   29.4762   50.5009 C   0  0  0  0  0  0  0  0  0  0  0  0
   37.7334   29.9636   49.2739 C   0  0  0  0  0  0  0  0  0  0  0  0
   36.8918   30.5796   48.3618 C   0  0  0  0  0  0  0  0  0  0  0  0
   35.5937   30.6921   48.7013 N   0  0  0  0  0  0  0  0  0  0  0  0
   35.0978   30.2271   49.8901 C   0  0  0  0  0  0  0  0  0  0  0  0
   35.9426   29.6236   50.7745 N   0  0  0  0  0  0  0  0  0  0  0  0
   36.6480   30.8682   43.4764 C   0  0  0  0  0  0  0  0  0  0  0  0
   37.0003   29.7677   42.7308 C   0  0  0  0  0  0  0  0  0  0  0  0
   36.4704   29.4178   41.5142 C   0  0  0  0  0  0  0  0  0  0  0  0
   35.4883   30.2376   40.9714 C   0  0  0  0  0  0  0  0  0  0  0  0
   35.1466   31.3491   41.7461 C   0  0  0  0  0  0  0  0  0  0  0  0
   35.6981   31.6411   42.9281 N   0  0  0  0  0  0  0  0  0  0  0  0
   40.0884   33.2585   45.9657 C   0  0  0  0  0  0  0  0  0  0  0  0
   39.9674   34.2274   45.0307 F   0  0  0  0  0  0  0  0  0  0  0  0
   41.2810   32.6070   45.6880 F   0  0  0  0  0  0  0  0  0  0  0  0
   40.1755   33.8690   47.2141 F   0  0  0  0  0  0  0  0  0  0  0  0
   35.9140   30.0633   45.9779 H   0  0  0  0  0  0  0  0  0  0  0  0
   37.9709   29.0074   51.1622 H   0  0  0  0  0  0  0  0  0  0  0  0
   38.7734   29.8748   48.9992 H   0  0  0  0  0  0  0  0  0  0  0  0
   34.0494   30.3304   50.1384 H   0  0  0  0  0  0  0  0  0  0  0  0
   37.7727   29.0973   43.1278 H   0  0  0  0  0  0  0  0  0  0  0  0
   36.7921   28.5353   40.9762 H   0  0  0  0  0  0  0  0  0  0  0  0
   35.0186   30.0329   40.0159 H   0  0  0  0  0  0  0  0  0  0  0  0
   32.7312   32.2920   43.2559 O   0  0  0  0  0  0  0  0  0  0  0  0
   33.5493   33.0745   42.4532 C   0  0  1  0  0  0  0  0  0  0  0  0
   34.1065   32.2955   41.2624 C   0  0  1  0  0  0  0  0  0  0  0  0
   34.6244   33.3225   40.5007 O   0  0  0  0  0  0  0  0  0  0  0  0
   33.6624   34.3016   40.4727 C   0  0  0  0  0  0  0  0  0  0  0  0
   32.7661   34.1384   41.6787 C   0  0  1  0  0  0  0  0  0  0  0  0
   31.5802   33.5314   41.2186 O   0  0  0  0  0  0  0  0  0  0  0  0
   33.0323   31.3471   43.0637 H   0  0  0  0  0  0  0  0  0  0  0  0
   34.3972   33.5405   42.9943 H   0  0  0  0  0  0  0  0  0  0  0  0
   33.2723   31.7782   40.7503 H   0  0  0  0  0  0  0  0  0  0  0  0
   33.0921   34.1834   39.5103 H   0  0  0  0  0  0  0  0  0  0  0  0
   34.0916   35.3337   40.4367 H   0  0  0  0  0  0  0  0  0  0  0  0
   32.6007   35.0550   42.2447 H   0  0  0  0  0  0  0  0  0  0  0  0
   31.4592   32.6297   41.6409 H   0  0  0  0  0  0  0  0  0  0  0  0
  1 11  1  0
  2  1  1  0
  3  4  1  0
  3  2  2  0
  4  6  1  0
  5  4  2  0
  6 21  1  0
  6  7  1  0
  7  1  1  0
  7  8  2  0
  9 14  2  0
 10  9  1  0
 11 12  1  0
 11 10  2  0
 12 13  2  0
 13 14  1  0
 15  3  1  0
 16 15  2  0
 17 16  1  0
 18 17  2  0
 18 19  1  0
 19 20  2  0
 20 15  1  0
 21 24  1  0
 22 21  1  0
 23 21  1  0
  2 25  1  0
  9 26  1  0
 10 27  1  0
 13 28  1  0
 16 29  1  0
 17 30  1  0
 18 31  1  0
 32 33  1  0
 33 34  1  0
 34 35  1  0
 35 36  1  0
 36 37  1  0
 37 38  1  0
 37 33  1  0
 32 39  1  0
 33 40  1  1
 34 41  1  6
 36 42  1  0
 36 43  1  0
 37 44  1  1
 38 45  1  0
 19 34  1  0
M  ISO  7  25  14  26  14  27  14  28  14  29  14  30  14  31  14
M  END
>  <DihAtoms>  (1) 
17,18,33,32

>  <DihDeg>  (1) 
113.7714556318016

$$$$
