
 OpenBabel03272506343D

 19 20  0  0  1  0  0  0  0  0999 V2000
   37.5490   30.0580   50.9250 C   0  0  0  0  0  0  0  0  0  0  0  0
   38.3450   31.0400   50.3340 C   0  0  0  0  0  0  0  0  0  0  0  0
   38.0770   31.3970   49.0180 C   0  0  0  0  0  0  0  0  0  0  0  0
   37.0580   30.7730   48.3780 N   0  0  0  0  0  0  0  0  0  0  0  0
   36.2980   29.8170   48.9800 C   0  0  0  0  0  0  0  0  0  0  0  0
   36.5530   29.4740   50.2370 N   0  0  0  0  0  0  0  0  0  0  0  0
   39.1690   31.5660   50.8080 H   0  0  0  0  0  0  0  0  0  0  0  0
   38.6370   32.1340   48.5000 H   0  0  0  0  0  0  0  0  0  0  0  0
   33.8430   29.7710   48.5080 C   0  0  1  0  0  3  0  0  0  0  0  0
   35.2110   29.1820   48.2290 C   0  0  2  0  0  3  0  0  0  0  0  0
   35.0980   27.8120   48.4150 O   0  0  0  0  0  0  0  0  0  0  0  0
   33.7520   27.4880   48.5090 C   0  0  0  0  0  2  0  0  0  0  0  0
   33.0100   28.6590   47.8470 C   0  0  2  0  0  3  0  0  0  0  0  0
   33.5010   29.7440   49.8430 O   0  0  0  0  0  0  0  0  0  0  0  0
   34.2080   30.0990   50.4390 H   0  0  0  0  0  0  0  0  0  0  0  0
   33.2620   28.5680   46.4910 O   0  0  0  0  0  0  0  0  0  0  0  0
   33.0400   29.3790   45.9840 H   0  0  0  0  0  0  0  0  0  0  0  0
   37.9330   29.8020   52.2460 O   0  0  0  0  0  0  0  0  0  0  0  0
   38.3110   28.8800   52.4160 H   0  0  0  0  0  0  0  0  0  0  0  0
  1 18  1  0  0  0  0
  2  7  1  0  0  0  0
  2  1  1  0  0  0  0
  3  2  2  0  0  0  0
  4  5  2  0  0  0  0
  4  3  1  0  0  0  0
  5  6  1  0  0  0  0
  6  1  2  0  0  0  0
  8  3  1  0  0  0  0
  9 14  1  1  0  0  0
 10 11  1  0  0  0  0
 10  9  1  0  0  0  0
 10  5  1  1  0  0  0
 11 12  1  0  0  0  0
 13 16  1  6  0  0  0
 13  9  1  0  0  0  0
 13 12  1  0  0  0  0
 14 15  1  0  0  0  0
 17 16  1  0  0  0  0
 18 19  1  0  0  0  0
M  END
>  <minimizedAffinity>
-4.00332832

>  <minimizedRMSD>
1.66479874

$$$$
