
 OpenBabel03272507373D

 19 20  0  0  1  0  0  0  0  0999 V2000
   36.3690   21.4010   35.7720 C   0  0  0  0  0  0  0  0  0  0  0  0
   37.3840   22.1350   35.1300 C   0  0  0  0  0  0  0  0  0  0  0  0
   37.5490   21.9610   33.7510 C   0  0  0  0  0  0  0  0  0  0  0  0
   36.7220   21.0930   33.1080 N   0  0  0  0  0  0  0  0  0  0  0  0
   35.7440   20.3920   33.7580 C   0  0  0  0  0  0  0  0  0  0  0  0
   35.5750   20.5490   35.0740 N   0  0  0  0  0  0  0  0  0  0  0  0
   38.3120   22.5020   33.2210 H   0  0  0  0  0  0  0  0  0  0  0  0
   35.0990   19.7080   33.2220 H   0  0  0  0  0  0  0  0  0  0  0  0
   39.2950   22.4580   36.7040 C   0  0  2  0  0  3  0  0  0  0  0  0
   38.2890   23.0760   35.7930 C   0  0  2  0  0  3  0  0  0  0  0  0
   37.5510   24.0000   36.5010 O   0  0  0  0  0  0  0  0  0  0  0  0
   38.2870   24.3970   37.5960 C   0  0  0  0  0  2  0  0  0  0  0  0
   39.1880   23.2540   37.9790 C   0  0  1  0  0  3  0  0  0  0  0  0
   40.5900   22.6300   36.2140 O   0  0  0  0  0  0  0  0  0  0  0  0
   40.8840   23.5400   36.4740 H   0  0  0  0  0  0  0  0  0  0  0  0
   38.5780   22.4940   38.9700 O   0  0  0  0  0  0  0  0  0  0  0  0
   37.6990   22.8610   39.2500 H   0  0  0  0  0  0  0  0  0  0  0  0
   36.3260   21.6770   37.1340 O   0  0  0  0  0  0  0  0  0  0  0  0
   36.9180   21.1410   37.7750 H   0  0  0  0  0  0  0  0  0  0  0  0
  1 18  1  0  0  0  0
  2  1  1  0  0  0  0
  3  2  2  0  0  0  0
  4  3  1  0  0  0  0
  4  5  2  0  0  0  0
  5  6  1  0  0  0  0
  6  1  2  0  0  0  0
  7  3  1  0  0  0  0
  8  5  1  0  0  0  0
  9 14  1  6  0  0  0
  9 13  1  0  0  0  0
 10  2  1  1  0  0  0
 10 11  1  0  0  0  0
 10  9  1  0  0  0  0
 11 12  1  0  0  0  0
 12 13  1  0  0  0  0
 13 16  1  1  0  0  0
 14 15  1  0  0  0  0
 16 17  1  0  0  0  0
 18 19  1  0  0  0  0
M  END
>  <minimizedAffinity>
-4.48804855

$$$$

 OpenBabel03272507373D

 19 20  0  0  1  0  0  0  0  0999 V2000
   37.9940   27.1670   35.2320 C   0  0  0  0  0  0  0  0  0  0  0  0
   38.2480   25.7900   35.0980 C   0  0  0  0  0  0  0  0  0  0  0  0
   37.7490   25.1390   33.9630 C   0  0  0  0  0  0  0  0  0  0  0  0
   37.0490   25.8700   33.0560 N   0  0  0  0  0  0  0  0  0  0  0  0
   36.8170   27.2090   33.2130 C   0  0  0  0  0  0  0  0  0  0  0  0
   37.2870   27.8440   34.2910 N   0  0  0  0  0  0  0  0  0  0  0  0
   37.9210   24.0870   33.8200 H   0  0  0  0  0  0  0  0  0  0  0  0
   36.2570   27.7680   32.4750 H   0  0  0  0  0  0  0  0  0  0  0  0
   39.4690   23.6580   35.5400 C   0  0  2  0  0  3  0  0  0  0  0  0
   38.9970   24.9750   36.0560 C   0  0  2  0  0  3  0  0  0  0  0  0
   38.2270   24.7670   37.1800 O   0  0  0  0  0  0  0  0  0  0  0  0
   38.5660   23.5440   37.7180 C   0  0  0  0  0  2  0  0  0  0  0  0
   39.0430   22.6670   36.5920 C   0  0  1  0  0  3  0  0  0  0  0  0
   40.8620   23.6160   35.4690 O   0  0  0  0  0  0  0  0  0  0  0  0
   41.1960   23.4030   36.3770 H   0  0  0  0  0  0  0  0  0  0  0  0
   37.9860   21.8950   36.1250 O   0  0  0  0  0  0  0  0  0  0  0  0
   37.1460   22.0450   36.6330 H   0  0  0  0  0  0  0  0  0  0  0  0
   38.5470   27.6740   36.4030 O   0  0  0  0  0  0  0  0  0  0  0  0
   38.0070   27.6380   37.2720 H   0  0  0  0  0  0  0  0  0  0  0  0
  1 18  1  0  0  0  0
  2  1  1  0  0  0  0
  3  2  2  0  0  0  0
  4  5  2  0  0  0  0
  4  3  1  0  0  0  0
  5  6  1  0  0  0  0
  6  1  2  0  0  0  0
  7  3  1  0  0  0  0
  8  5  1  0  0  0  0
  9 14  1  1  0  0  0
  9 10  1  0  0  0  0
  9 13  1  0  0  0  0
 10  2  1  6  0  0  0
 10 11  1  0  0  0  0
 11 12  1  0  0  0  0
 13 16  1  6  0  0  0
 13 12  1  0  0  0  0
 14 15  1  0  0  0  0
 16 17  1  0  0  0  0
 18 19  1  0  0  0  0
M  END
>  <minimizedAffinity>
-4.32439518

$$$$

 OpenBabel03272507373D

 19 20  0  0  1  0  0  0  0  0999 V2000
   42.1650   21.5880   36.8900 C   0  0  0  0  0  0  0  0  0  0  0  0
   41.0600   22.3710   36.5090 C   0  0  0  0  0  0  0  0  0  0  0  0
   41.2300   23.2770   35.4550 C   0  0  0  0  0  0  0  0  0  0  0  0
   42.4490   23.3490   34.8580 N   0  0  0  0  0  0  0  0  0  0  0  0
   43.5060   22.5740   35.2490 C   0  0  0  0  0  0  0  0  0  0  0  0
   43.3590   21.7060   36.2540 N   0  0  0  0  0  0  0  0  0  0  0  0
   40.4120   23.8960   35.1320 H   0  0  0  0  0  0  0  0  0  0  0  0
   44.4660   22.6510   34.7570 H   0  0  0  0  0  0  0  0  0  0  0  0
   38.6110   22.7950   36.2770 C   0  0  2  0  0  3  0  0  0  0  0  0
   39.7360   22.3180   37.1310 C   0  0  2  0  0  3  0  0  0  0  0  0
   39.7500   23.0460   38.3020 O   0  0  0  0  0  0  0  0  0  0  0  0
   38.4910   23.5670   38.5050 C   0  0  0  0  0  2  0  0  0  0  0  0
   37.8530   23.7570   37.1540 C   0  0  1  0  0  3  0  0  0  0  0  0
   37.7420   21.7500   35.9600 O   0  0  0  0  0  0  0  0  0  0  0  0
   37.1320   21.6310   36.7320 H   0  0  0  0  0  0  0  0  0  0  0  0
   38.0590   25.0630   36.7240 O   0  0  0  0  0  0  0  0  0  0  0  0
   38.5490   25.6140   37.3890 H   0  0  0  0  0  0  0  0  0  0  0  0
   41.8460   20.7400   37.9450 O   0  0  0  0  0  0  0  0  0  0  0  0
   41.9390   21.0770   38.9070 H   0  0  0  0  0  0  0  0  0  0  0  0
  1 18  1  0  0  0  0
  2  1  1  0  0  0  0
  3  2  2  0  0  0  0
  4  5  2  0  0  0  0
  4  3  1  0  0  0  0
  5  6  1  0  0  0  0
  6  1  2  0  0  0  0
  7  3  1  0  0  0  0
  8  5  1  0  0  0  0
  9 14  1  1  0  0  0
  9 10  1  0  0  0  0
  9 13  1  0  0  0  0
 10  2  1  6  0  0  0
 10 11  1  0  0  0  0
 11 12  1  0  0  0  0
 13 16  1  6  0  0  0
 13 12  1  0  0  0  0
 14 15  1  0  0  0  0
 16 17  1  0  0  0  0
 18 19  1  0  0  0  0
M  END
>  <minimizedAffinity>
-4.26347351

$$$$

 OpenBabel03272507373D

 19 20  0  0  1  0  0  0  0  0999 V2000
   38.1690   24.4580   33.9990 C   0  0  0  0  0  0  0  0  0  0  0  0
   38.3720   23.5950   35.0910 C   0  0  0  0  0  0  0  0  0  0  0  0
   38.0790   22.2360   34.9170 C   0  0  0  0  0  0  0  0  0  0  0  0
   37.6160   21.8270   33.7070 N   0  0  0  0  0  0  0  0  0  0  0  0
   37.4280   22.6900   32.6610 C   0  0  0  0  0  0  0  0  0  0  0  0
   37.7030   23.9890   32.8130 N   0  0  0  0  0  0  0  0  0  0  0  0
   38.2190   21.5420   35.7260 H   0  0  0  0  0  0  0  0  0  0  0  0
   37.0590   22.3370   31.7070 H   0  0  0  0  0  0  0  0  0  0  0  0
   39.1810   22.8890   37.3440 C   0  0  2  0  0  3  0  0  0  0  0  0
   38.8680   24.0040   36.4060 C   0  0  2  0  0  3  0  0  0  0  0  0
   37.9510   24.8450   37.0000 O   0  0  0  0  0  0  0  0  0  0  0  0
   38.0280   24.6780   38.3650 C   0  0  0  0  0  2  0  0  0  0  0  0
   38.4860   23.2680   38.6260 C   0  0  1  0  0  3  0  0  0  0  0  0
   40.5490   22.8290   37.6150 O   0  0  0  0  0  0  0  0  0  0  0  0
   40.7390   23.5000   38.3180 H   0  0  0  0  0  0  0  0  0  0  0  0
   37.3810   22.4510   38.8340 O   0  0  0  0  0  0  0  0  0  0  0  0
   36.5230   22.9500   38.8010 H   0  0  0  0  0  0  0  0  0  0  0  0
   38.5010   25.7700   34.3200 O   0  0  0  0  0  0  0  0  0  0  0  0
   37.7950   26.3780   34.7440 H   0  0  0  0  0  0  0  0  0  0  0  0
  1 18  1  0  0  0  0
  1  2  1  0  0  0  0
  3  2  2  0  0  0  0
  3  7  1  0  0  0  0
  4  3  1  0  0  0  0
  5  6  1  0  0  0  0
  5  4  2  0  0  0  0
  6  1  2  0  0  0  0
  8  5  1  0  0  0  0
  9 14  1  1  0  0  0
  9 13  1  0  0  0  0
 10  2  1  6  0  0  0
 10 11  1  0  0  0  0
 10  9  1  0  0  0  0
 11 12  1  0  0  0  0
 12 13  1  0  0  0  0
 13 16  1  6  0  0  0
 14 15  1  0  0  0  0
 17 16  1  0  0  0  0
 18 19  1  0  0  0  0
M  END
>  <minimizedAffinity>
-4.18125916

$$$$

 OpenBabel03272507373D

 19 20  0  0  1  0  0  0  0  0999 V2000
   36.5650   26.7900   32.4270 C   0  0  0  0  0  0  0  0  0  0  0  0
   37.1860   25.6170   32.8910 C   0  0  0  0  0  0  0  0  0  0  0  0
   36.8180   24.4010   32.3010 C   0  0  0  0  0  0  0  0  0  0  0  0
   35.8830   24.4210   31.3150 N   0  0  0  0  0  0  0  0  0  0  0  0
   35.2950   25.5790   30.8820 C   0  0  0  0  0  0  0  0  0  0  0  0
   35.6360   26.7460   31.4360 N   0  0  0  0  0  0  0  0  0  0  0  0
   37.2680   23.4800   32.6270 H   0  0  0  0  0  0  0  0  0  0  0  0
   34.5540   25.5660   30.0950 H   0  0  0  0  0  0  0  0  0  0  0  0
   37.6910   25.8450   35.3250 C   0  0  2  0  0  3  0  0  0  0  0  0
   38.1940   25.5620   33.9510 C   0  0  2  0  0  3  0  0  0  0  0  0
   39.2160   26.4400   33.6570 O   0  0  0  0  0  0  0  0  0  0  0  0
   39.7470   26.9010   34.8420 C   0  0  0  0  0  2  0  0  0  0  0  0
   38.6530   26.8670   35.8750 C   0  0  1  0  0  3  0  0  0  0  0  0
   37.7780   24.7140   36.1360 O   0  0  0  0  0  0  0  0  0  0  0  0
   38.7110   24.6600   36.4670 H   0  0  0  0  0  0  0  0  0  0  0  0
   38.0420   28.1130   35.9470 O   0  0  0  0  0  0  0  0  0  0  0  0
   38.4550   28.7790   35.3370 H   0  0  0  0  0  0  0  0  0  0  0  0
   37.0290   27.9130   33.1030 O   0  0  0  0  0  0  0  0  0  0  0  0
   36.5780   28.1950   33.9780 H   0  0  0  0  0  0  0  0  0  0  0  0
  1  2  1  0  0  0  0
  1 18  1  0  0  0  0
  3  7  1  0  0  0  0
  3  2  2  0  0  0  0
  4  3  1  0  0  0  0
  5  4  2  0  0  0  0
  5  6  1  0  0  0  0
  6  1  2  0  0  0  0
  8  5  1  0  0  0  0
  9 13  1  0  0  0  0
  9 14  1  1  0  0  0
 10  2  1  6  0  0  0
 10  9  1  0  0  0  0
 11 10  1  0  0  0  0
 11 12  1  0  0  0  0
 12 13  1  0  0  0  0
 13 16  1  6  0  0  0
 14 15  1  0  0  0  0
 17 16  1  0  0  0  0
 18 19  1  0  0  0  0
M  END
>  <minimizedAffinity>
-4.17605162

$$$$

 OpenBabel03272507373D

 19 20  0  0  1  0  0  0  0  0999 V2000
   35.9000   20.9810   34.2880 C   0  0  0  0  0  0  0  0  0  0  0  0
   37.1150   21.6900   34.3200 C   0  0  0  0  0  0  0  0  0  0  0  0
   37.5650   22.2760   33.1300 C   0  0  0  0  0  0  0  0  0  0  0  0
   36.8060   22.1280   32.0120 N   0  0  0  0  0  0  0  0  0  0  0  0
   35.6280   21.4330   32.0100 C   0  0  0  0  0  0  0  0  0  0  0  0
   35.1860   20.8680   33.1380 N   0  0  0  0  0  0  0  0  0  0  0  0
   38.4880   22.8270   33.1110 H   0  0  0  0  0  0  0  0  0  0  0  0
   35.0430   21.3310   31.1060 H   0  0  0  0  0  0  0  0  0  0  0  0
   37.5310   22.9580   36.4300 C   0  0  2  0  0  3  0  0  0  0  0  0
   37.9550   21.8670   35.5060 C   0  0  2  0  0  3  0  0  0  0  0  0
   39.2580   22.0920   35.1150 O   0  0  0  0  0  0  0  0  0  0  0  0
   39.8620   22.8970   36.0560 C   0  0  0  0  0  2  0  0  0  0  0  0
   38.7890   23.7470   36.6830 C   0  0  1  0  0  3  0  0  0  0  0  0
   37.1100   22.4430   37.6560 O   0  0  0  0  0  0  0  0  0  0  0  0
   37.9220   22.2730   38.1980 H   0  0  0  0  0  0  0  0  0  0  0  0
   38.7280   24.9730   36.0300 O   0  0  0  0  0  0  0  0  0  0  0  0
   39.4080   25.0600   35.3120 H   0  0  0  0  0  0  0  0  0  0  0  0
   35.5840   20.4580   35.5370 O   0  0  0  0  0  0  0  0  0  0  0  0
   35.9460   19.5380   35.8030 H   0  0  0  0  0  0  0  0  0  0  0  0
  1  2  1  0  0  0  0
  1 18  1  0  0  0  0
  3  2  2  0  0  0  0
  4  3  1  0  0  0  0
  5  4  2  0  0  0  0
  5  6  1  0  0  0  0
  6  1  2  0  0  0  0
  7  3  1  0  0  0  0
  8  5  1  0  0  0  0
  9 13  1  0  0  0  0
  9 14  1  1  0  0  0
 10  2  1  6  0  0  0
 10  9  1  0  0  0  0
 11 10  1  0  0  0  0
 11 12  1  0  0  0  0
 12 13  1  0  0  0  0
 13 16  1  6  0  0  0
 14 15  1  0  0  0  0
 17 16  1  0  0  0  0
 18 19  1  0  0  0  0
M  END
>  <minimizedAffinity>
-4.15646124

$$$$

 OpenBabel03272507373D

 19 20  0  0  1  0  0  0  0  0999 V2000
   39.2340   26.8060   35.4160 C   0  0  0  0  0  0  0  0  0  0  0  0
   39.0790   25.4310   35.6690 C   0  0  0  0  0  0  0  0  0  0  0  0
   39.9520   24.5430   35.0290 C   0  0  0  0  0  0  0  0  0  0  0  0
   40.9010   25.0560   34.2020 N   0  0  0  0  0  0  0  0  0  0  0  0
   41.0290   26.3990   33.9750 C   0  0  0  0  0  0  0  0  0  0  0  0
   40.2030   27.2580   34.5780 N   0  0  0  0  0  0  0  0  0  0  0  0
   39.8680   23.4840   35.1940 H   0  0  0  0  0  0  0  0  0  0  0  0
   41.7940   26.7820   33.3120 H   0  0  0  0  0  0  0  0  0  0  0  0
   38.5010   24.6380   37.9640 C   0  0  2  0  0  3  0  0  0  0  0  0
   38.0680   24.8470   36.5530 C   0  0  2  0  0  3  0  0  0  0  0  0
   37.6440   23.6440   36.0310 O   0  0  0  0  0  0  0  0  0  0  0  0
   37.2870   22.8180   37.0750 C   0  0  0  0  0  2  0  0  0  0  0  0
   38.1100   23.2150   38.2710 C   0  0  1  0  0  3  0  0  0  0  0  0
   37.7870   25.4620   38.8360 O   0  0  0  0  0  0  0  0  0  0  0  0
   36.9200   25.0180   39.0150 H   0  0  0  0  0  0  0  0  0  0  0  0
   39.2410   22.4110   38.3440 O   0  0  0  0  0  0  0  0  0  0  0  0
   39.2720   21.7260   37.6260 H   0  0  0  0  0  0  0  0  0  0  0  0
   38.3000   27.5600   36.1170 O   0  0  0  0  0  0  0  0  0  0  0  0
   37.3820   27.7370   35.7010 H   0  0  0  0  0  0  0  0  0  0  0  0
  1  2  1  0  0  0  0
  1 18  1  0  0  0  0
  3  7  1  0  0  0  0
  3  2  2  0  0  0  0
  4  3  1  0  0  0  0
  5  4  2  0  0  0  0
  5  6  1  0  0  0  0
  6  1  2  0  0  0  0
  8  5  1  0  0  0  0
  9 13  1  0  0  0  0
  9 14  1  1  0  0  0
 10  2  1  6  0  0  0
 10  9  1  0  0  0  0
 11 10  1  0  0  0  0
 11 12  1  0  0  0  0
 12 13  1  0  0  0  0
 13 16  1  6  0  0  0
 14 15  1  0  0  0  0
 17 16  1  0  0  0  0
 19 18  1  0  0  0  0
M  END
>  <minimizedAffinity>
-4.12081099

$$$$

 OpenBabel03272507373D

 19 20  0  0  1  0  0  0  0  0999 V2000
   40.4680   22.0790   37.4340 C   0  0  0  0  0  0  0  0  0  0  0  0
   40.0600   22.4360   36.1360 C   0  0  0  0  0  0  0  0  0  0  0  0
   40.9000   22.0970   35.0680 C   0  0  0  0  0  0  0  0  0  0  0  0
   42.0600   21.4440   35.3430 N   0  0  0  0  0  0  0  0  0  0  0  0
   42.4310   21.1100   36.6160 C   0  0  0  0  0  0  0  0  0  0  0  0
   41.6400   21.4270   37.6450 N   0  0  0  0  0  0  0  0  0  0  0  0
   40.6260   22.3500   34.0590 H   0  0  0  0  0  0  0  0  0  0  0  0
   43.3600   20.5890   36.8070 H   0  0  0  0  0  0  0  0  0  0  0  0
   38.5990   23.4000   34.3550 C   0  0  2  0  0  3  0  0  0  0  0  0
   38.8180   23.1380   35.8070 C   0  0  2  0  0  3  0  0  0  0  0  0
   38.7750   24.3350   36.4900 O   0  0  0  0  0  0  0  0  0  0  0  0
   38.0670   25.2430   35.7320 C   0  0  0  0  0  2  0  0  0  0  0  0
   38.2390   24.8620   34.2860 C   0  0  1  0  0  3  0  0  0  0  0  0
   37.5050   22.6800   33.8740 O   0  0  0  0  0  0  0  0  0  0  0  0
   36.6900   23.1910   34.1100 H   0  0  0  0  0  0  0  0  0  0  0  0
   39.2880   25.5890   33.7360 O   0  0  0  0  0  0  0  0  0  0  0  0
   39.6930   26.2280   34.3800 H   0  0  0  0  0  0  0  0  0  0  0  0
   39.5370   22.4800   38.3870 O   0  0  0  0  0  0  0  0  0  0  0  0
   39.5970   23.4210   38.7840 H   0  0  0  0  0  0  0  0  0  0  0  0
  1  6  1  0  0  0  0
  1 18  1  0  0  0  0
  2  1  2  0  0  0  0
  3  4  2  0  0  0  0
  3  2  1  0  0  0  0
  4  5  1  0  0  0  0
  5  8  1  0  0  0  0
  5  6  2  0  0  0  0
  7  3  1  0  0  0  0
  9 14  1  1  0  0  0
  9 10  1  0  0  0  0
 10  2  1  6  0  0  0
 10 11  1  0  0  0  0
 12 11  1  0  0  0  0
 13 16  1  1  0  0  0
 13  9  1  0  0  0  0
 13 12  1  0  0  0  0
 14 15  1  0  0  0  0
 16 17  1  0  0  0  0
 18 19  1  0  0  0  0
M  END
>  <minimizedAffinity>
-3.95079398

$$$$

 OpenBabel03272507373D

 19 20  0  0  1  0  0  0  0  0999 V2000
   38.1610   26.4630   35.6670 C   0  0  0  0  0  0  0  0  0  0  0  0
   37.9770   26.3000   34.2810 C   0  0  0  0  0  0  0  0  0  0  0  0
   37.9390   24.9970   33.7720 C   0  0  0  0  0  0  0  0  0  0  0  0
   38.0820   23.9620   34.6410 N   0  0  0  0  0  0  0  0  0  0  0  0
   38.2590   24.1490   35.9850 C   0  0  0  0  0  0  0  0  0  0  0  0
   38.2970   25.3880   36.4850 N   0  0  0  0  0  0  0  0  0  0  0  0
   37.8010   24.8280   32.7190 H   0  0  0  0  0  0  0  0  0  0  0  0
   38.3700   23.3070   36.6550 H   0  0  0  0  0  0  0  0  0  0  0  0
   36.4800   27.4880   32.6740 C   0  0  2  0  0  3  0  0  0  0  0  0
   37.8210   27.3930   33.3200 C   0  0  2  0  0  3  0  0  0  0  0  0
   38.7840   27.2810   32.3390 O   0  0  0  0  0  0  0  0  0  0  0  0
   38.2720   27.7920   31.1660 C   0  0  0  0  0  2  0  0  0  0  0  0
   36.7790   27.6040   31.2020 C   0  0  1  0  0  3  0  0  0  0  0  0
   35.8190   28.6550   33.0580 O   0  0  0  0  0  0  0  0  0  0  0  0
   36.1660   29.3890   32.4900 H   0  0  0  0  0  0  0  0  0  0  0  0
   36.4440   26.4240   30.5490 O   0  0  0  0  0  0  0  0  0  0  0  0
   37.2330   25.9580   30.1670 H   0  0  0  0  0  0  0  0  0  0  0  0
   38.1770   27.8070   36.0230 O   0  0  0  0  0  0  0  0  0  0  0  0
   39.0600   28.3240   35.9930 H   0  0  0  0  0  0  0  0  0  0  0  0
  1 18  1  0  0  0  0
  1  6  1  0  0  0  0
  2  1  2  0  0  0  0
  3  2  1  0  0  0  0
  3  4  2  0  0  0  0
  4  5  1  0  0  0  0
  5  6  2  0  0  0  0
  5  8  1  0  0  0  0
  7  3  1  0  0  0  0
  9 14  1  1  0  0  0
  9 10  1  0  0  0  0
 10  2  1  1  0  0  0
 11 10  1  0  0  0  0
 12 13  1  0  0  0  0
 12 11  1  0  0  0  0
 13 16  1  6  0  0  0
 13  9  1  0  0  0  0
 15 14  1  0  0  0  0
 17 16  1  0  0  0  0
 19 18  1  0  0  0  0
M  END
>  <minimizedAffinity>
-3.9154098

$$$$
