
 OpenBabel03262521263D

 47 50  0  0  1  0  0  0  0  0999 V2000
   35.8660   29.2290   32.6790 S   0  0  0  0  0  0  0  0  0  0  0  0
   33.7760   29.5350   34.5940 C   0  0  0  0  0  0  0  0  0  0  0  0
   34.9920   29.9530   34.0260 C   0  0  0  0  0  0  0  0  0  0  0  0
   35.5800   31.0820   34.6050 C   0  0  0  0  0  0  0  0  0  0  0  0
   35.0100   31.7400   35.6560 C   0  0  0  0  0  0  0  0  0  0  0  0
   35.3280   32.8070   36.3890 N   0  0  0  0  0  0  0  0  0  0  0  0
   34.3980   33.0670   37.3540 C   0  0  0  0  0  0  0  0  0  0  0  0
   33.4370   32.0880   37.2060 C   0  0  0  0  0  0  0  0  0  0  0  0
   33.8230   31.2850   36.1650 C   0  0  0  0  0  0  0  0  0  0  0  0
   33.2000   30.1960   35.6500 C   0  0  0  0  0  0  0  0  0  0  0  0
   33.3840   28.6570   34.0920 H   0  0  0  0  0  0  0  0  0  0  0  0
   36.5180   31.4880   34.2480 H   0  0  0  0  0  0  0  0  0  0  0  0
   36.2140   33.3630   36.2090 H   0  0  0  0  0  0  0  0  0  0  0  0
   34.4710   33.8950   38.0580 H   0  0  0  0  0  0  0  0  0  0  0  0
   32.5740   32.0660   37.8570 H   0  0  0  0  0  0  0  0  0  0  0  0
   30.7180   30.2250   35.4570 C   0  0  2  0  0  3  0  0  0  0  0  0
   31.9150   29.6230   36.1270 C   0  0  1  0  0  3  0  0  0  0  0  0
   31.9280   28.2610   35.8550 O   0  0  0  0  0  0  0  0  0  0  0  0
   30.5590   27.9150   35.8850 C   0  0  0  0  0  2  0  0  0  0  0  0
   29.8770   29.0200   35.1080 C   0  0  1  0  0  3  0  0  0  0  0  0
   31.0710   30.9540   34.3230 O   0  0  0  0  0  0  0  0  0  0  0  0
   30.3060   31.4840   34.0070 H   0  0  0  0  0  0  0  0  0  0  0  0
   28.5840   29.1470   35.5600 O   0  0  0  0  0  0  0  0  0  0  0  0
   28.2480   28.2320   35.7510 H   0  0  0  0  0  0  0  0  0  0  0  0
   36.4670   27.5840   32.9820 C   0  0  0  0  0  0  0  0  0  0  0  0
   35.6280   26.8710   32.7720 H   0  0  0  0  0  0  0  0  0  0  0  0
   37.2530   27.3350   32.2260 H   0  0  0  0  0  0  0  0  0  0  0  0
   36.9460   27.3420   34.3900 C   0  0  0  0  0  0  0  0  0  0  0  0
   37.1760   28.3420   34.8210 H   0  0  0  0  0  0  0  0  0  0  0  0
   36.0110   27.0520   34.9590 H   0  0  0  0  0  0  0  0  0  0  0  0
   37.9270   26.4070   34.4920 C   0  0  0  0  0  0  0  0  0  0  0  0
   38.9750   26.8210   34.4590 H   0  0  0  0  0  0  0  0  0  0  0  0
   37.9010   25.5760   33.7570 H   0  0  0  0  0  0  0  0  0  0  0  0
   37.6570   25.9800   35.7650 O   0  0  0  0  0  0  0  0  0  0  0  0
   38.3860   24.9470   36.2830 C   0  0  0  0  0  0  0  0  0  0  0  0
   37.8510   24.4600   37.4620 C   0  0  0  0  0  0  0  0  0  0  0  0
   38.5000   23.3910   38.1100 C   0  0  0  0  0  0  0  0  0  0  0  0
   39.6320   22.8980   37.5220 N   0  0  0  0  0  0  0  0  0  0  0  0
   40.1310   23.4060   36.3550 C   0  0  0  0  0  0  0  0  0  0  0  0
   39.4920   24.4210   35.7630 N   0  0  0  0  0  0  0  0  0  0  0  0
   41.8630   21.7730   36.6390 C   0  0  0  0  0  0  0  0  0  0  0  0
   41.3950   21.3550   37.7310 O   0  0  0  0  0  0  0  0  0  0  0  0
   41.3160   22.8090   35.8400 N   0  0  0  0  0  0  0  0  0  0  0  0
   36.9710   24.7680   38.0140 H   0  0  0  0  0  0  0  0  0  0  0  0
   38.1690   22.9480   39.0180 H   0  0  0  0  0  0  0  0  0  0  0  0
   42.7650   21.2740   36.3090 H   0  0  0  0  0  0  0  0  0  0  0  0
   41.7200   23.1430   34.9350 H   0  0  0  0  0  0  0  0  0  0  0  0
  1 25  1  0  0  0  0
  1  3  1  0  0  0  0
  2 10  1  0  0  0  0
  3  2  2  0  0  0  0
  3  4  1  0  0  0  0
  4  5  2  0  0  0  0
  5  9  1  0  0  0  0
  5  6  1  0  0  0  0
  6  7  1  0  0  0  0
  7 14  1  0  0  0  0
  8  7  2  0  0  0  0
  8 15  1  0  0  0  0
  9  8  1  0  0  0  0
 10  9  2  0  0  0  0
 11  2  1  0  0  0  0
 12  4  1  0  0  0  0
 13  6  1  0  0  0  0
 16 21  1  6  0  0  0
 16 17  1  0  0  0  0
 17 10  1  6  0  0  0
 18 19  1  0  0  0  0
 18 17  1  0  0  0  0
 20 16  1  0  0  0  0
 20 23  1  1  0  0  0
 20 19  1  0  0  0  0
 22 21  1  0  0  0  0
 23 24  1  0  0  0  0
 25 28  1  0  0  0  0
 26 25  1  0  0  0  0
 27 25  1  0  0  0  0
 28 31  1  0  0  0  0
 28 29  1  0  0  0  0
 28 30  1  0  0  0  0
 31 34  1  0  0  0  0
 32 31  1  0  0  0  0
 33 31  1  0  0  0  0
 34 35  1  0  0  0  0
 35 36  1  0  0  0  0
 36 44  1  0  0  0  0
 36 37  2  0  0  0  0
 37 45  1  0  0  0  0
 38 37  1  0  0  0  0
 39 38  2  0  0  0  0
 40 35  2  0  0  0  0
 40 39  1  0  0  0  0
 41 42  2  0  0  0  0
 43 39  1  0  0  0  0
 43 41  1  0  0  0  0
 46 41  1  0  0  0  0
 47 43  1  0  0  0  0
M  END
>  <minimizedAffinity>
-6.05673265

$$$$

 OpenBabel03262521263D

 47 50  0  0  1  0  0  0  0  0999 V2000
   38.1320   21.2510   32.3800 S   0  0  0  0  0  0  0  0  0  0  0  0
   38.9650   23.6630   33.6510 C   0  0  0  0  0  0  0  0  0  0  0  0
   38.3320   22.4090   33.6930 C   0  0  0  0  0  0  0  0  0  0  0  0
   37.7960   22.0360   34.9290 C   0  0  0  0  0  0  0  0  0  0  0  0
   37.8790   22.8390   36.0290 C   0  0  0  0  0  0  0  0  0  0  0  0
   37.4750   22.7530   37.2970 N   0  0  0  0  0  0  0  0  0  0  0  0
   37.8150   23.8560   38.0240 C   0  0  0  0  0  0  0  0  0  0  0  0
   38.4770   24.6840   37.1410 C   0  0  0  0  0  0  0  0  0  0  0  0
   38.5090   24.0510   35.9260 C   0  0  0  0  0  0  0  0  0  0  0  0
   39.0520   24.4730   34.7570 C   0  0  0  0  0  0  0  0  0  0  0  0
   39.3540   23.8800   32.6630 H   0  0  0  0  0  0  0  0  0  0  0  0
   37.2860   21.0920   35.0720 H   0  0  0  0  0  0  0  0  0  0  0  0
   36.9520   21.9040   37.6580 H   0  0  0  0  0  0  0  0  0  0  0  0
   37.5780   23.9840   39.0790 H   0  0  0  0  0  0  0  0  0  0  0  0
   38.8590   25.6420   37.4690 H   0  0  0  0  0  0  0  0  0  0  0  0
   41.1810   25.7400   34.9910 C   0  0  2  0  0  3  0  0  0  0  0  0
   39.7540   25.7630   34.5400 C   0  0  1  0  0  3  0  0  0  0  0  0
   39.7300   26.0380   33.1780 O   0  0  0  0  0  0  0  0  0  0  0  0
   40.7830   26.9660   33.0210 C   0  0  0  0  0  2  0  0  0  0  0  0
   41.9160   26.3910   33.8430 C   0  0  1  0  0  3  0  0  0  0  0  0
   41.6300   24.4410   35.2220 O   0  0  0  0  0  0  0  0  0  0  0  0
   42.4970   24.4570   35.6850 H   0  0  0  0  0  0  0  0  0  0  0  0
   42.7240   27.4200   34.2660 O   0  0  0  0  0  0  0  0  0  0  0  0
   42.7750   28.0780   33.5240 H   0  0  0  0  0  0  0  0  0  0  0  0
   36.8420   21.6530   31.2260 C   0  0  0  0  0  0  0  0  0  0  0  0
   37.3220   22.1320   30.3330 H   0  0  0  0  0  0  0  0  0  0  0  0
   36.3890   20.7080   30.8370 H   0  0  0  0  0  0  0  0  0  0  0  0
   35.7970   22.5980   31.7600 C   0  0  0  0  0  0  0  0  0  0  0  0
   34.8520   22.0150   31.8330 H   0  0  0  0  0  0  0  0  0  0  0  0
   36.0720   22.7350   32.8500 H   0  0  0  0  0  0  0  0  0  0  0  0
   35.7210   23.7790   31.0910 C   0  0  0  0  0  0  0  0  0  0  0  0
   34.6900   24.0400   30.7160 H   0  0  0  0  0  0  0  0  0  0  0  0
   36.4050   23.9070   30.2270 H   0  0  0  0  0  0  0  0  0  0  0  0
   36.0410   24.6110   32.1310 O   0  0  0  0  0  0  0  0  0  0  0  0
   36.3500   25.9150   31.8610 C   0  0  0  0  0  0  0  0  0  0  0  0
   36.5190   26.6680   33.0080 C   0  0  0  0  0  0  0  0  0  0  0  0
   36.8420   28.0330   32.8820 C   0  0  0  0  0  0  0  0  0  0  0  0
   36.9700   28.5310   31.6150 N   0  0  0  0  0  0  0  0  0  0  0  0
   36.7950   27.7540   30.5030 C   0  0  0  0  0  0  0  0  0  0  0  0
   36.4900   26.4610   30.6560 N   0  0  0  0  0  0  0  0  0  0  0  0
   37.2370   29.7740   29.2900 C   0  0  0  0  0  0  0  0  0  0  0  0
   37.3540   30.4670   30.3350 O   0  0  0  0  0  0  0  0  0  0  0  0
   36.9550   28.3860   29.2370 N   0  0  0  0  0  0  0  0  0  0  0  0
   36.4430   26.3860   34.0520 H   0  0  0  0  0  0  0  0  0  0  0  0
   36.9910   28.6940   33.7010 H   0  0  0  0  0  0  0  0  0  0  0  0
   37.3710   30.3200   28.3650 H   0  0  0  0  0  0  0  0  0  0  0  0
   36.8610   27.8280   28.3580 H   0  0  0  0  0  0  0  0  0  0  0  0
  1  3  1  0  0  0  0
  2  3  2  0  0  0  0
  2 10  1  0  0  0  0
  3  4  1  0  0  0  0
  4 12  1  0  0  0  0
  4  5  2  0  0  0  0
  5  6  1  0  0  0  0
  6 13  1  0  0  0  0
  6  7  1  0  0  0  0
  7 14  1  0  0  0  0
  8 15  1  0  0  0  0
  8  7  2  0  0  0  0
  9  5  1  0  0  0  0
  9  8  1  0  0  0  0
 10  9  2  0  0  0  0
 11  2  1  0  0  0  0
 16 21  1  6  0  0  0
 17 10  1  6  0  0  0
 17 16  1  0  0  0  0
 18 17  1  0  0  0  0
 19 18  1  0  0  0  0
 19 20  1  0  0  0  0
 20 23  1  1  0  0  0
 20 16  1  0  0  0  0
 21 22  1  0  0  0  0
 24 23  1  0  0  0  0
 25 28  1  0  0  0  0
 25  1  1  0  0  0  0
 26 25  1  0  0  0  0
 27 25  1  0  0  0  0
 28 29  1  0  0  0  0
 28 30  1  0  0  0  0
 31 28  1  0  0  0  0
 31 34  1  0  0  0  0
 32 31  1  0  0  0  0
 33 31  1  0  0  0  0
 35 34  1  0  0  0  0
 35 36  1  0  0  0  0
 36 44  1  0  0  0  0
 37 36  2  0  0  0  0
 37 45  1  0  0  0  0
 38 37  1  0  0  0  0
 39 40  1  0  0  0  0
 39 38  2  0  0  0  0
 40 35  2  0  0  0  0
 41 42  2  0  0  0  0
 43 41  1  0  0  0  0
 43 39  1  0  0  0  0
 46 41  1  0  0  0  0
 47 43  1  0  0  0  0
M  END
>  <minimizedAffinity>
-5.89986849

$$$$

 OpenBabel03262521263D

 47 50  0  0  1  0  0  0  0  0999 V2000
   35.7780   29.8180   32.5160 S   0  0  0  0  0  0  0  0  0  0  0  0
   33.7960   29.8470   34.5660 C   0  0  0  0  0  0  0  0  0  0  0  0
   34.9290   30.4020   33.9450 C   0  0  0  0  0  0  0  0  0  0  0  0
   35.4430   31.5600   34.5360 C   0  0  0  0  0  0  0  0  0  0  0  0
   34.8830   32.1180   35.6480 C   0  0  0  0  0  0  0  0  0  0  0  0
   35.1450   33.1830   36.4070 N   0  0  0  0  0  0  0  0  0  0  0  0
   34.2590   33.3140   37.4370 C   0  0  0  0  0  0  0  0  0  0  0  0
   33.3870   32.2530   37.3040 C   0  0  0  0  0  0  0  0  0  0  0  0
   33.7790   31.5310   36.2080 C   0  0  0  0  0  0  0  0  0  0  0  0
   33.2300   30.4070   35.6840 C   0  0  0  0  0  0  0  0  0  0  0  0
   33.4580   28.9540   34.0510 H   0  0  0  0  0  0  0  0  0  0  0  0
   36.3130   32.0690   34.1410 H   0  0  0  0  0  0  0  0  0  0  0  0
   35.9600   33.8290   36.1980 H   0  0  0  0  0  0  0  0  0  0  0  0
   34.2980   34.1170   38.1720 H   0  0  0  0  0  0  0  0  0  0  0  0
   32.5740   32.1220   38.0050 H   0  0  0  0  0  0  0  0  0  0  0  0
   30.7490   30.2080   35.6500 C   0  0  2  0  0  3  0  0  0  0  0  0
   32.0390   29.6940   36.2120 C   0  0  1  0  0  3  0  0  0  0  0  0
   32.1590   28.3520   35.8730 O   0  0  0  0  0  0  0  0  0  0  0  0
   30.8330   27.8770   35.9720 C   0  0  0  0  0  2  0  0  0  0  0  0
   30.0010   28.9440   35.2960 C   0  0  1  0  0  3  0  0  0  0  0  0
   30.9550   31.0160   34.5340 O   0  0  0  0  0  0  0  0  0  0  0  0
   30.1250   31.4840   34.2930 H   0  0  0  0  0  0  0  0  0  0  0  0
   28.7350   28.9280   35.8350 O   0  0  0  0  0  0  0  0  0  0  0  0
   28.4990   27.9770   36.0010 H   0  0  0  0  0  0  0  0  0  0  0  0
   35.9920   28.0560   32.4480 C   0  0  0  0  0  0  0  0  0  0  0  0
   35.9680   27.6690   33.5000 H   0  0  0  0  0  0  0  0  0  0  0  0
   35.1020   27.5960   31.9520 H   0  0  0  0  0  0  0  0  0  0  0  0
   37.2830   27.6060   31.8130 C   0  0  0  0  0  0  0  0  0  0  0  0
   37.0110   26.8420   31.0520 H   0  0  0  0  0  0  0  0  0  0  0  0
   37.5970   28.4800   31.1650 H   0  0  0  0  0  0  0  0  0  0  0  0
   38.2460   27.2460   32.7030 C   0  0  0  0  0  0  0  0  0  0  0  0
   38.7210   28.1070   33.2530 H   0  0  0  0  0  0  0  0  0  0  0  0
   39.0830   26.6330   32.3100 H   0  0  0  0  0  0  0  0  0  0  0  0
   37.4550   26.5440   33.5720 O   0  0  0  0  0  0  0  0  0  0  0  0
   38.0490   25.7130   34.4810 C   0  0  0  0  0  0  0  0  0  0  0  0
   39.1860   25.1070   33.9800 C   0  0  0  0  0  0  0  0  0  0  0  0
   39.9040   24.2220   34.8090 C   0  0  0  0  0  0  0  0  0  0  0  0
   39.4210   24.0180   36.0720 N   0  0  0  0  0  0  0  0  0  0  0  0
   38.2910   24.6370   36.5320 C   0  0  0  0  0  0  0  0  0  0  0  0
   37.6320   25.4720   35.7210 N   0  0  0  0  0  0  0  0  0  0  0  0
   38.6980   23.4000   38.5450 C   0  0  0  0  0  0  0  0  0  0  0  0
   39.7130   22.8220   38.0760 O   0  0  0  0  0  0  0  0  0  0  0  0
   37.8870   24.3450   37.8650 N   0  0  0  0  0  0  0  0  0  0  0  0
   39.6580   25.1910   33.0080 H   0  0  0  0  0  0  0  0  0  0  0  0
   40.7880   23.7090   34.5180 H   0  0  0  0  0  0  0  0  0  0  0  0
   38.4500   23.1300   39.5640 H   0  0  0  0  0  0  0  0  0  0  0  0
   37.0470   24.8150   38.2730 H   0  0  0  0  0  0  0  0  0  0  0  0
  1  3  1  0  0  0  0
  2 10  1  0  0  0  0
  3  4  1  0  0  0  0
  3  2  2  0  0  0  0
  4  5  2  0  0  0  0
  5  9  1  0  0  0  0
  5  6  1  0  0  0  0
  6  7  1  0  0  0  0
  7 14  1  0  0  0  0
  8  7  2  0  0  0  0
  8 15  1  0  0  0  0
  9  8  1  0  0  0  0
 10  9  2  0  0  0  0
 11  2  1  0  0  0  0
 12  4  1  0  0  0  0
 13  6  1  0  0  0  0
 16 21  1  6  0  0  0
 16 17  1  0  0  0  0
 17 10  1  6  0  0  0
 18 19  1  0  0  0  0
 18 17  1  0  0  0  0
 20 16  1  0  0  0  0
 20 23  1  1  0  0  0
 20 19  1  0  0  0  0
 22 21  1  0  0  0  0
 23 24  1  0  0  0  0
 25  1  1  0  0  0  0
 25 26  1  0  0  0  0
 27 25  1  0  0  0  0
 28 25  1  0  0  0  0
 28 31  1  0  0  0  0
 29 28  1  0  0  0  0
 30 28  1  0  0  0  0
 31 32  1  0  0  0  0
 31 34  1  0  0  0  0
 33 31  1  0  0  0  0
 34 35  1  0  0  0  0
 35 40  1  0  0  0  0
 36 35  2  0  0  0  0
 36 37  1  0  0  0  0
 37 38  2  0  0  0  0
 38 39  1  0  0  0  0
 39 43  1  0  0  0  0
 40 39  2  0  0  0  0
 41 46  1  0  0  0  0
 42 41  2  0  0  0  0
 43 47  1  0  0  0  0
 43 41  1  0  0  0  0
 44 36  1  0  0  0  0
 45 37  1  0  0  0  0
M  END
>  <minimizedAffinity>
-5.80700922

$$$$

 OpenBabel03262521263D

 47 50  0  0  1  0  0  0  0  0999 V2000
   36.5840   26.6290   31.3290 S   0  0  0  0  0  0  0  0  0  0  0  0
   38.0040   25.2340   33.3720 C   0  0  0  0  0  0  0  0  0  0  0  0
   37.9250   26.2570   32.4100 C   0  0  0  0  0  0  0  0  0  0  0  0
   39.0510   27.0780   32.2990 C   0  0  0  0  0  0  0  0  0  0  0  0
   40.1590   26.9000   33.0750 C   0  0  0  0  0  0  0  0  0  0  0  0
   41.3420   27.5060   33.1890 N   0  0  0  0  0  0  0  0  0  0  0  0
   42.1280   26.9290   34.1450 C   0  0  0  0  0  0  0  0  0  0  0  0
   41.3750   25.8920   34.6570 C   0  0  0  0  0  0  0  0  0  0  0  0
   40.1760   25.8860   33.9960 C   0  0  0  0  0  0  0  0  0  0  0  0
   39.1170   25.0540   34.1540 C   0  0  0  0  0  0  0  0  0  0  0  0
   37.0950   24.6420   33.3980 H   0  0  0  0  0  0  0  0  0  0  0  0
   39.0980   27.8950   31.5900 H   0  0  0  0  0  0  0  0  0  0  0  0
   41.6020   28.3380   32.5850 H   0  0  0  0  0  0  0  0  0  0  0  0
   43.1310   27.2730   34.3940 H   0  0  0  0  0  0  0  0  0  0  0  0
   41.7730   25.2650   35.4430 H   0  0  0  0  0  0  0  0  0  0  0  0
   38.6100   24.3580   36.4900 C   0  0  2  0  0  3  0  0  0  0  0  0
   39.0330   23.9280   35.1200 C   0  0  1  0  0  3  0  0  0  0  0  0
   38.0970   23.0220   34.6380 O   0  0  0  0  0  0  0  0  0  0  0  0
   37.7440   22.2840   35.7900 C   0  0  0  0  0  2  0  0  0  0  0  0
   37.5670   23.3320   36.8660 C   0  0  1  0  0  3  0  0  0  0  0  0
   38.0870   25.6500   36.4890 O   0  0  0  0  0  0  0  0  0  0  0  0
   37.9860   25.9780   37.4100 H   0  0  0  0  0  0  0  0  0  0  0  0
   37.8260   22.7600   38.0890 O   0  0  0  0  0  0  0  0  0  0  0  0
   37.4610   21.8360   38.0650 H   0  0  0  0  0  0  0  0  0  0  0  0
   36.5470   28.3060   30.7430 C   0  0  0  0  0  0  0  0  0  0  0  0
   37.5980   28.6020   30.4900 H   0  0  0  0  0  0  0  0  0  0  0  0
   35.9950   28.3430   29.7710 H   0  0  0  0  0  0  0  0  0  0  0  0
   36.0050   29.3040   31.7340 C   0  0  0  0  0  0  0  0  0  0  0  0
   36.8830   29.8510   32.1420 H   0  0  0  0  0  0  0  0  0  0  0  0
   35.5120   30.0970   31.0930 H   0  0  0  0  0  0  0  0  0  0  0  0
   35.1530   28.7720   32.6500 C   0  0  0  0  0  0  0  0  0  0  0  0
   35.1340   27.6460   32.6760 H   0  0  0  0  0  0  0  0  0  0  0  0
   34.0930   29.0970   32.5920 H   0  0  0  0  0  0  0  0  0  0  0  0
   35.7720   29.2340   33.7810 O   0  0  0  0  0  0  0  0  0  0  0  0
   35.1080   30.1200   34.5820 C   0  0  0  0  0  0  0  0  0  0  0  0
   35.9640   30.8570   35.3800 C   0  0  0  0  0  0  0  0  0  0  0  0
   35.4170   31.8130   36.2590 C   0  0  0  0  0  0  0  0  0  0  0  0
   34.0560   31.9510   36.2650 N   0  0  0  0  0  0  0  0  0  0  0  0
   33.2420   31.2020   35.4600 C   0  0  0  0  0  0  0  0  0  0  0  0
   33.7920   30.3040   34.6360 N   0  0  0  0  0  0  0  0  0  0  0  0
   31.4580   32.4020   36.5210 C   0  0  0  0  0  0  0  0  0  0  0  0
   32.2360   33.0470   37.2730 O   0  0  0  0  0  0  0  0  0  0  0  0
   31.8410   31.4370   35.5560 N   0  0  0  0  0  0  0  0  0  0  0  0
   37.0450   30.8340   35.4610 H   0  0  0  0  0  0  0  0  0  0  0  0
   35.9890   32.4270   36.9110 H   0  0  0  0  0  0  0  0  0  0  0  0
   30.4080   32.6320   36.6480 H   0  0  0  0  0  0  0  0  0  0  0  0
   31.1800   30.9120   34.9400 H   0  0  0  0  0  0  0  0  0  0  0  0
  1  3  1  0  0  0  0
  2 11  1  0  0  0  0
  2 10  1  0  0  0  0
  3  2  2  0  0  0  0
  4  3  1  0  0  0  0
  4  5  2  0  0  0  0
  5  6  1  0  0  0  0
  5  9  1  0  0  0  0
  6  7  1  0  0  0  0
  7 14  1  0  0  0  0
  7  8  2  0  0  0  0
  8 15  1  0  0  0  0
  9 10  2  0  0  0  0
  9  8  1  0  0  0  0
 12  4  1  0  0  0  0
 13  6  1  0  0  0  0
 16 21  1  6  0  0  0
 16 20  1  0  0  0  0
 17 10  1  6  0  0  0
 17 16  1  0  0  0  0
 18 17  1  0  0  0  0
 18 19  1  0  0  0  0
 19 20  1  0  0  0  0
 20 23  1  1  0  0  0
 21 22  1  0  0  0  0
 24 23  1  0  0  0  0
 25  1  1  0  0  0  0
 25 28  1  0  0  0  0
 26 25  1  0  0  0  0
 27 25  1  0  0  0  0
 28 29  1  0  0  0  0
 28 31  1  0  0  0  0
 30 28  1  0  0  0  0
 31 32  1  0  0  0  0
 31 34  1  0  0  0  0
 33 31  1  0  0  0  0
 34 35  1  0  0  0  0
 35 40  2  0  0  0  0
 35 36  1  0  0  0  0
 36 44  1  0  0  0  0
 36 37  2  0  0  0  0
 37 38  1  0  0  0  0
 37 45  1  0  0  0  0
 39 43  1  0  0  0  0
 39 38  2  0  0  0  0
 40 39  1  0  0  0  0
 41 46  1  0  0  0  0
 41 42  2  0  0  0  0
 43 41  1  0  0  0  0
 47 43  1  0  0  0  0
M  END
>  <minimizedAffinity>
-5.77846432

$$$$

 OpenBabel03262521263D

 47 50  0  0  1  0  0  0  0  0999 V2000
   37.8740   27.1770   32.9610 S   0  0  0  0  0  0  0  0  0  0  0  0
   38.0700   24.7010   34.3620 C   0  0  0  0  0  0  0  0  0  0  0  0
   37.8310   25.4300   33.1830 C   0  0  0  0  0  0  0  0  0  0  0  0
   37.5210   24.6730   32.0500 C   0  0  0  0  0  0  0  0  0  0  0  0
   37.4530   23.3100   32.0820 C   0  0  0  0  0  0  0  0  0  0  0  0
   37.1890   22.3540   31.1910 N   0  0  0  0  0  0  0  0  0  0  0  0
   37.2510   21.1060   31.7390 C   0  0  0  0  0  0  0  0  0  0  0  0
   37.5760   21.3060   33.0650 C   0  0  0  0  0  0  0  0  0  0  0  0
   37.6970   22.6560   33.2610 C   0  0  0  0  0  0  0  0  0  0  0  0
   38.0030   23.3300   34.3970 C   0  0  0  0  0  0  0  0  0  0  0  0
   38.3030   25.3560   35.1940 H   0  0  0  0  0  0  0  0  0  0  0  0
   37.3180   25.1320   31.0910 H   0  0  0  0  0  0  0  0  0  0  0  0
   36.9620   22.5830   30.1800 H   0  0  0  0  0  0  0  0  0  0  0  0
   37.0680   20.1890   31.1800 H   0  0  0  0  0  0  0  0  0  0  0  0
   37.6890   20.4630   33.7330 H   0  0  0  0  0  0  0  0  0  0  0  0
   39.6820   22.1950   35.8430 C   0  0  2  0  0  3  0  0  0  0  0  0
   38.2840   22.7190   35.7210 C   0  0  1  0  0  3  0  0  0  0  0  0
   38.0980   23.6970   36.6900 O   0  0  0  0  0  0  0  0  0  0  0  0
   38.8240   23.1960   37.7940 C   0  0  0  0  0  2  0  0  0  0  0  0
   40.1230   22.7030   37.1960 C   0  0  1  0  0  3  0  0  0  0  0  0
   40.5030   22.6670   34.8210 O   0  0  0  0  0  0  0  0  0  0  0  0
   41.3540   22.1760   34.8130 H   0  0  0  0  0  0  0  0  0  0  0  0
   40.6210   21.6940   37.9870 O   0  0  0  0  0  0  0  0  0  0  0  0
   40.4330   21.9400   38.9300 H   0  0  0  0  0  0  0  0  0  0  0  0
   36.5250   27.8380   32.0120 C   0  0  0  0  0  0  0  0  0  0  0  0
   36.7850   27.7280   30.9270 H   0  0  0  0  0  0  0  0  0  0  0  0
   35.6230   27.1940   32.1590 H   0  0  0  0  0  0  0  0  0  0  0  0
   36.2260   29.2910   32.2780 C   0  0  0  0  0  0  0  0  0  0  0  0
   36.4850   29.4770   33.3430 H   0  0  0  0  0  0  0  0  0  0  0  0
   37.0490   29.8510   31.7360 H   0  0  0  0  0  0  0  0  0  0  0  0
   34.9850   29.6850   31.8860 C   0  0  0  0  0  0  0  0  0  0  0  0
   34.2750   28.8410   31.6590 H   0  0  0  0  0  0  0  0  0  0  0  0
   34.9330   30.3740   31.0170 H   0  0  0  0  0  0  0  0  0  0  0  0
   34.5990   30.2930   33.0510 O   0  0  0  0  0  0  0  0  0  0  0  0
   33.4580   29.8660   33.6700 C   0  0  0  0  0  0  0  0  0  0  0  0
   32.3350   30.0210   32.8780 C   0  0  0  0  0  0  0  0  0  0  0  0
   31.0840   29.6220   33.3890 C   0  0  0  0  0  0  0  0  0  0  0  0
   31.0630   29.1000   34.6530 N   0  0  0  0  0  0  0  0  0  0  0  0
   32.1960   28.9620   35.4060 C   0  0  0  0  0  0  0  0  0  0  0  0
   33.3680   29.3500   34.8930 N   0  0  0  0  0  0  0  0  0  0  0  0
   30.7130   28.0980   37.0810 C   0  0  0  0  0  0  0  0  0  0  0  0
   29.6870   28.2730   36.3720 O   0  0  0  0  0  0  0  0  0  0  0  0
   32.0460   28.4050   36.7080 N   0  0  0  0  0  0  0  0  0  0  0  0
   32.2320   30.4180   31.8750 H   0  0  0  0  0  0  0  0  0  0  0  0
   30.1660   29.7000   32.8600 H   0  0  0  0  0  0  0  0  0  0  0  0
   30.5240   27.6720   38.0580 H   0  0  0  0  0  0  0  0  0  0  0  0
   32.8860   28.2520   37.3120 H   0  0  0  0  0  0  0  0  0  0  0  0
  1  3  1  0  0  0  0
  2 10  1  0  0  0  0
  2 11  1  0  0  0  0
  3  2  2  0  0  0  0
  4  5  2  0  0  0  0
  4  3  1  0  0  0  0
  5  9  1  0  0  0  0
  6  7  1  0  0  0  0
  6  5  1  0  0  0  0
  7  8  2  0  0  0  0
  8  9  1  0  0  0  0
  8 15  1  0  0  0  0
  9 10  2  0  0  0  0
 12  4  1  0  0  0  0
 13  6  1  0  0  0  0
 14  7  1  0  0  0  0
 16 21  1  6  0  0  0
 16 20  1  0  0  0  0
 17 10  1  6  0  0  0
 17 16  1  0  0  0  0
 17 18  1  0  0  0  0
 18 19  1  0  0  0  0
 20 19  1  0  0  0  0
 20 23  1  1  0  0  0
 22 21  1  0  0  0  0
 23 24  1  0  0  0  0
 25 27  1  0  0  0  0
 25 28  1  0  0  0  0
 25  1  1  0  0  0  0
 26 25  1  0  0  0  0
 28 29  1  0  0  0  0
 30 28  1  0  0  0  0
 31 28  1  0  0  0  0
 31 34  1  0  0  0  0
 32 31  1  0  0  0  0
 33 31  1  0  0  0  0
 34 35  1  0  0  0  0
 35 40  1  0  0  0  0
 36 37  1  0  0  0  0
 36 35  2  0  0  0  0
 37 38  2  0  0  0  0
 38 39  1  0  0  0  0
 39 43  1  0  0  0  0
 40 39  2  0  0  0  0
 41 46  1  0  0  0  0
 42 41  2  0  0  0  0
 43 41  1  0  0  0  0
 43 47  1  0  0  0  0
 44 36  1  0  0  0  0
 45 37  1  0  0  0  0
M  END
>  <minimizedAffinity>
-5.64157295

$$$$

 OpenBabel03262521263D

 47 50  0  0  1  0  0  0  0  0999 V2000
   38.2070   26.0380   36.4270 S   0  0  0  0  0  0  0  0  0  0  0  0
   37.5350   25.9150   33.6580 C   0  0  0  0  0  0  0  0  0  0  0  0
   37.5380   26.5880   34.8920 C   0  0  0  0  0  0  0  0  0  0  0  0
   36.9340   27.8490   34.9010 C   0  0  0  0  0  0  0  0  0  0  0  0
   36.3750   28.3950   33.7820 C   0  0  0  0  0  0  0  0  0  0  0  0
   35.7500   29.5380   33.4970 N   0  0  0  0  0  0  0  0  0  0  0  0
   35.3710   29.6080   32.1880 C   0  0  0  0  0  0  0  0  0  0  0  0
   35.7920   28.4210   31.6240 C   0  0  0  0  0  0  0  0  0  0  0  0
   36.4040   27.6900   32.6080 C   0  0  0  0  0  0  0  0  0  0  0  0
   36.9740   26.4620   32.5310 C   0  0  0  0  0  0  0  0  0  0  0  0
   38.0190   24.9470   33.7320 H   0  0  0  0  0  0  0  0  0  0  0  0
   36.8790   28.4530   35.7980 H   0  0  0  0  0  0  0  0  0  0  0  0
   35.5870   30.2820   34.2360 H   0  0  0  0  0  0  0  0  0  0  0  0
   34.8470   30.4580   31.7530 H   0  0  0  0  0  0  0  0  0  0  0  0
   35.6130   28.2190   30.5770 H   0  0  0  0  0  0  0  0  0  0  0  0
   38.2730   25.8990   30.4830 C   0  0  2  0  0  3  0  0  0  0  0  0
   37.0580   25.6170   31.3120 C   0  0  1  0  0  3  0  0  0  0  0  0
   37.1030   24.2890   31.7150 O   0  0  0  0  0  0  0  0  0  0  0  0
   37.6500   23.6310   30.5910 C   0  0  0  0  0  2  0  0  0  0  0  0
   38.7960   24.5200   30.1590 C   0  0  1  0  0  3  0  0  0  0  0  0
   39.2130   26.6550   31.1820 O   0  0  0  0  0  0  0  0  0  0  0  0
   39.9110   26.9800   30.5720 H   0  0  0  0  0  0  0  0  0  0  0  0
   39.0020   24.3520   28.8090 O   0  0  0  0  0  0  0  0  0  0  0  0
   38.8590   23.3900   28.6070 H   0  0  0  0  0  0  0  0  0  0  0  0
   38.0400   24.2950   36.7270 C   0  0  0  0  0  0  0  0  0  0  0  0
   37.5160   24.1680   37.7100 H   0  0  0  0  0  0  0  0  0  0  0  0
   37.3440   23.8570   35.9710 H   0  0  0  0  0  0  0  0  0  0  0  0
   39.3450   23.5430   36.7920 C   0  0  0  0  0  0  0  0  0  0  0  0
   40.1280   24.2380   36.4160 H   0  0  0  0  0  0  0  0  0  0  0  0
   39.5870   23.4940   37.8970 H   0  0  0  0  0  0  0  0  0  0  0  0
   39.3080   22.3140   36.2130 C   0  0  0  0  0  0  0  0  0  0  0  0
   38.4050   21.6950   36.4810 H   0  0  0  0  0  0  0  0  0  0  0  0
   40.1890   21.6600   36.3780 H   0  0  0  0  0  0  0  0  0  0  0  0
   39.2020   22.7170   34.9090 O   0  0  0  0  0  0  0  0  0  0  0  0
   38.5170   21.9260   34.0280 C   0  0  0  0  0  0  0  0  0  0  0  0
   39.3420   21.3620   33.0710 C   0  0  0  0  0  0  0  0  0  0  0  0
   38.7710   20.5220   32.0950 C   0  0  0  0  0  0  0  0  0  0  0  0
   37.4210   20.3160   32.1590 N   0  0  0  0  0  0  0  0  0  0  0  0
   36.6380   20.8920   33.1210 C   0  0  0  0  0  0  0  0  0  0  0  0
   37.2090   21.6850   34.0340 N   0  0  0  0  0  0  0  0  0  0  0  0
   34.8320   19.7730   32.0110 C   0  0  0  0  0  0  0  0  0  0  0  0
   35.5780   19.2900   31.1190 O   0  0  0  0  0  0  0  0  0  0  0  0
   35.2450   20.6020   33.0840 N   0  0  0  0  0  0  0  0  0  0  0  0
   40.4120   21.4530   32.9230 H   0  0  0  0  0  0  0  0  0  0  0  0
   39.3190   20.0420   31.3210 H   0  0  0  0  0  0  0  0  0  0  0  0
   33.7850   19.5120   31.9200 H   0  0  0  0  0  0  0  0  0  0  0  0
   34.6090   20.9950   33.8160 H   0  0  0  0  0  0  0  0  0  0  0  0
  1 25  1  0  0  0  0
  2 11  1  0  0  0  0
  2  3  1  0  0  0  0
  3  4  2  0  0  0  0
  3  1  1  0  0  0  0
  4 12  1  0  0  0  0
  5  4  1  0  0  0  0
  6  5  1  0  0  0  0
  6 13  1  0  0  0  0
  7  6  1  0  0  0  0
  8  7  2  0  0  0  0
  8  9  1  0  0  0  0
  9  5  2  0  0  0  0
 10  9  1  0  0  0  0
 10  2  2  0  0  0  0
 14  7  1  0  0  0  0
 15  8  1  0  0  0  0
 16 21  1  1  0  0  0
 16 17  1  0  0  0  0
 17 18  1  0  0  0  0
 17 10  1  1  0  0  0
 19 18  1  0  0  0  0
 20 23  1  6  0  0  0
 20 16  1  0  0  0  0
 20 19  1  0  0  0  0
 22 21  1  0  0  0  0
 24 23  1  0  0  0  0
 25 28  1  0  0  0  0
 25 26  1  0  0  0  0
 27 25  1  0  0  0  0
 28 30  1  0  0  0  0
 29 28  1  0  0  0  0
 31 33  1  0  0  0  0
 31 32  1  0  0  0  0
 31 28  1  0  0  0  0
 34 31  1  0  0  0  0
 35 40  1  0  0  0  0
 35 34  1  0  0  0  0
 36 35  2  0  0  0  0
 37 38  2  0  0  0  0
 37 36  1  0  0  0  0
 38 39  1  0  0  0  0
 39 40  2  0  0  0  0
 41 43  1  0  0  0  0
 42 41  2  0  0  0  0
 43 39  1  0  0  0  0
 43 47  1  0  0  0  0
 44 36  1  0  0  0  0
 45 37  1  0  0  0  0
 46 41  1  0  0  0  0
M  END
>  <minimizedAffinity>
-5.50045156

$$$$

 OpenBabel03262521263D

 47 50  0  0  1  0  0  0  0  0999 V2000
   37.7160   25.5830   34.9270 S   0  0  0  0  0  0  0  0  0  0  0  0
   36.5870   28.0360   34.0110 C   0  0  0  0  0  0  0  0  0  0  0  0
   37.2690   26.8310   33.7670 C   0  0  0  0  0  0  0  0  0  0  0  0
   37.6370   26.5970   32.4390 C   0  0  0  0  0  0  0  0  0  0  0  0
   37.3540   27.4820   31.4390 C   0  0  0  0  0  0  0  0  0  0  0  0
   37.5720   27.5270   30.1240 N   0  0  0  0  0  0  0  0  0  0  0  0
   37.0750   28.6640   29.5560 C   0  0  0  0  0  0  0  0  0  0  0  0
   36.5090   29.3730   30.5960 C   0  0  0  0  0  0  0  0  0  0  0  0
   36.6850   28.6390   31.7400 C   0  0  0  0  0  0  0  0  0  0  0  0
   36.2990   28.9280   33.0080 C   0  0  0  0  0  0  0  0  0  0  0  0
   36.3360   28.1450   35.0610 H   0  0  0  0  0  0  0  0  0  0  0  0
   38.1670   25.7020   32.1390 H   0  0  0  0  0  0  0  0  0  0  0  0
   38.0790   26.7460   29.6170 H   0  0  0  0  0  0  0  0  0  0  0  0
   37.1490   28.8940   28.4940 H   0  0  0  0  0  0  0  0  0  0  0  0
   36.0360   30.3280   30.4140 H   0  0  0  0  0  0  0  0  0  0  0  0
   34.1160   30.1190   33.0960 C   0  0  2  0  0  3  0  0  0  0  0  0
   35.5730   30.1500   33.4390 C   0  0  1  0  0  3  0  0  0  0  0  0
   35.6960   30.2540   34.8190 O   0  0  0  0  0  0  0  0  0  0  0  0
   34.6270   31.1080   35.1710 C   0  0  0  0  0  2  0  0  0  0  0  0
   33.4530   30.5900   34.3690 C   0  0  1  0  0  3  0  0  0  0  0  0
   33.6950   28.8410   32.7370 O   0  0  0  0  0  0  0  0  0  0  0  0
   32.7940   28.8760   32.3450 H   0  0  0  0  0  0  0  0  0  0  0  0
   32.5790   31.6270   34.1410 O   0  0  0  0  0  0  0  0  0  0  0  0
   32.5640   32.1850   34.9630 H   0  0  0  0  0  0  0  0  0  0  0  0
   38.1040   24.0060   34.2070 C   0  0  0  0  0  0  0  0  0  0  0  0
   37.2600   23.3070   34.4430 H   0  0  0  0  0  0  0  0  0  0  0  0
   38.0990   24.0990   33.0930 H   0  0  0  0  0  0  0  0  0  0  0  0
   39.3820   23.3840   34.7120 C   0  0  0  0  0  0  0  0  0  0  0  0
   39.6830   22.6250   33.9570 H   0  0  0  0  0  0  0  0  0  0  0  0
   40.1650   24.1890   34.5590 H   0  0  0  0  0  0  0  0  0  0  0  0
   39.3220   22.9560   36.0000 C   0  0  0  0  0  0  0  0  0  0  0  0
   39.3160   21.8360   36.1220 H   0  0  0  0  0  0  0  0  0  0  0  0
   38.4780   23.3360   36.6130 H   0  0  0  0  0  0  0  0  0  0  0  0
   40.5280   23.4450   36.4240 O   0  0  0  0  0  0  0  0  0  0  0  0
   41.5970   22.5960   36.4920 C   0  0  0  0  0  0  0  0  0  0  0  0
   42.7740   23.1910   36.0750 C   0  0  0  0  0  0  0  0  0  0  0  0
   43.9610   22.4320   36.0920 C   0  0  0  0  0  0  0  0  0  0  0  0
   43.8690   21.1380   36.5250 N   0  0  0  0  0  0  0  0  0  0  0  0
   42.6860   20.5840   36.9280 C   0  0  0  0  0  0  0  0  0  0  0  0
   41.5770   21.3300   36.9020 N   0  0  0  0  0  0  0  0  0  0  0  0
   43.9850   18.5980   37.2700 C   0  0  0  0  0  0  0  0  0  0  0  0
   45.0480   19.1300   36.8570 O   0  0  0  0  0  0  0  0  0  0  0  0
   42.7170   19.2270   37.3580 N   0  0  0  0  0  0  0  0  0  0  0  0
   42.9650   24.1960   35.7160 H   0  0  0  0  0  0  0  0  0  0  0  0
   44.9130   22.7980   35.7930 H   0  0  0  0  0  0  0  0  0  0  0  0
   44.0830   17.5650   37.5800 H   0  0  0  0  0  0  0  0  0  0  0  0
   41.8440   18.7670   37.7040 H   0  0  0  0  0  0  0  0  0  0  0  0
  2 11  1  0  0  0  0
  3  2  1  0  0  0  0
  3  1  1  0  0  0  0
  4  3  2  0  0  0  0
  5  9  2  0  0  0  0
  5  4  1  0  0  0  0
  6  5  1  0  0  0  0
  7  6  1  0  0  0  0
  7  8  2  0  0  0  0
  8  9  1  0  0  0  0
  9 10  1  0  0  0  0
 10  2  2  0  0  0  0
 12  4  1  0  0  0  0
 13  6  1  0  0  0  0
 14  7  1  0  0  0  0
 15  8  1  0  0  0  0
 16 21  1  1  0  0  0
 16 17  1  0  0  0  0
 16 20  1  0  0  0  0
 17 10  1  1  0  0  0
 17 18  1  0  0  0  0
 18 19  1  0  0  0  0
 20 23  1  6  0  0  0
 20 19  1  0  0  0  0
 22 21  1  0  0  0  0
 23 24  1  0  0  0  0
 25 26  1  0  0  0  0
 25 28  1  0  0  0  0
 25  1  1  0  0  0  0
 27 25  1  0  0  0  0
 28 31  1  0  0  0  0
 29 28  1  0  0  0  0
 30 28  1  0  0  0  0
 31 32  1  0  0  0  0
 31 34  1  0  0  0  0
 31 33  1  0  0  0  0
 34 35  1  0  0  0  0
 35 40  1  0  0  0  0
 36 37  1  0  0  0  0
 36 35  2  0  0  0  0
 37 38  2  0  0  0  0
 38 39  1  0  0  0  0
 39 43  1  0  0  0  0
 40 39  2  0  0  0  0
 41 43  1  0  0  0  0
 41 46  1  0  0  0  0
 42 41  2  0  0  0  0
 43 47  1  0  0  0  0
 44 36  1  0  0  0  0
 45 37  1  0  0  0  0
M  END
>  <minimizedAffinity>
-5.37652445

$$$$

 OpenBabel03262521263D

 47 50  0  0  1  0  0  0  0  0999 V2000
   35.6780   29.1280   33.0810 S   0  0  0  0  0  0  0  0  0  0  0  0
   34.4120   31.2120   34.5590 C   0  0  0  0  0  0  0  0  0  0  0  0
   34.4860   29.8710   34.1450 C   0  0  0  0  0  0  0  0  0  0  0  0
   33.4890   29.0240   34.6380 C   0  0  0  0  0  0  0  0  0  0  0  0
   32.5030   29.4700   35.4700 C   0  0  0  0  0  0  0  0  0  0  0  0
   31.4550   28.9140   36.0790 N   0  0  0  0  0  0  0  0  0  0  0  0
   30.7550   29.8150   36.8280 C   0  0  0  0  0  0  0  0  0  0  0  0
   31.4190   31.0140   36.6700 C   0  0  0  0  0  0  0  0  0  0  0  0
   32.4850   30.7890   35.8390 C   0  0  0  0  0  0  0  0  0  0  0  0
   33.4230   31.6640   35.3970 C   0  0  0  0  0  0  0  0  0  0  0  0
   35.2170   31.8040   34.1360 H   0  0  0  0  0  0  0  0  0  0  0  0
   33.4490   27.9730   34.3820 H   0  0  0  0  0  0  0  0  0  0  0  0
   31.2270   27.8850   35.9650 H   0  0  0  0  0  0  0  0  0  0  0  0
   29.8650   29.5630   37.4040 H   0  0  0  0  0  0  0  0  0  0  0  0
   31.0650   31.9060   37.1680 H   0  0  0  0  0  0  0  0  0  0  0  0
   34.1490   33.3710   37.0560 C   0  0  2  0  0  3  0  0  0  0  0  0
   33.4930   33.1080   35.7350 C   0  0  1  0  0  3  0  0  0  0  0  0
   34.2330   33.7430   34.7460 O   0  0  0  0  0  0  0  0  0  0  0  0
   34.6430   34.9410   35.3720 C   0  0  0  0  0  2  0  0  0  0  0  0
   35.0950   34.5080   36.7490 C   0  0  1  0  0  3  0  0  0  0  0  0
   34.8270   32.2490   37.5300 O   0  0  0  0  0  0  0  0  0  0  0  0
   35.0920   32.3830   38.4670 H   0  0  0  0  0  0  0  0  0  0  0  0
   34.9340   35.5600   37.6200 O   0  0  0  0  0  0  0  0  0  0  0  0
   35.1720   36.3890   37.1270 H   0  0  0  0  0  0  0  0  0  0  0  0
   36.7070   27.9060   33.8590 C   0  0  0  0  0  0  0  0  0  0  0  0
   37.7030   28.3800   34.0630 H   0  0  0  0  0  0  0  0  0  0  0  0
   36.2910   27.6640   34.8680 H   0  0  0  0  0  0  0  0  0  0  0  0
   36.9390   26.6660   33.0350 C   0  0  0  0  0  0  0  0  0  0  0  0
   35.9790   26.1030   33.0360 H   0  0  0  0  0  0  0  0  0  0  0  0
   36.9870   27.0420   31.9670 H   0  0  0  0  0  0  0  0  0  0  0  0
   38.0460   25.9610   33.3870 C   0  0  0  0  0  0  0  0  0  0  0  0
   39.0210   26.4930   33.1970 H   0  0  0  0  0  0  0  0  0  0  0  0
   38.1550   24.9500   32.9420 H   0  0  0  0  0  0  0  0  0  0  0  0
   37.8210   25.9090   34.7370 O   0  0  0  0  0  0  0  0  0  0  0  0
   38.4500   24.9450   35.4740 C   0  0  0  0  0  0  0  0  0  0  0  0
   37.7830   24.6580   36.6510 C   0  0  0  0  0  0  0  0  0  0  0  0
   38.3180   23.6810   37.5130 C   0  0  0  0  0  0  0  0  0  0  0  0
   39.4780   23.0710   37.1230 N   0  0  0  0  0  0  0  0  0  0  0  0
   40.1090   23.3820   35.9500 C   0  0  0  0  0  0  0  0  0  0  0  0
   39.5760   24.3140   35.1530 N   0  0  0  0  0  0  0  0  0  0  0  0
   41.7320   21.7600   36.6480 C   0  0  0  0  0  0  0  0  0  0  0  0
   41.1420   21.5260   37.7370 O   0  0  0  0  0  0  0  0  0  0  0  0
   41.3110   22.6780   35.6530 N   0  0  0  0  0  0  0  0  0  0  0  0
   36.8680   25.0720   37.0590 H   0  0  0  0  0  0  0  0  0  0  0  0
   37.8810   23.3900   38.4370 H   0  0  0  0  0  0  0  0  0  0  0  0
   42.6380   21.1900   36.4900 H   0  0  0  0  0  0  0  0  0  0  0  0
   41.8150   22.8590   34.7550 H   0  0  0  0  0  0  0  0  0  0  0  0
  1 25  1  0  0  0  0
  1  3  1  0  0  0  0
  2 10  1  0  0  0  0
  3  2  2  0  0  0  0
  3  4  1  0  0  0  0
  4  5  2  0  0  0  0
  5  9  1  0  0  0  0
  5  6  1  0  0  0  0
  6  7  1  0  0  0  0
  7 14  1  0  0  0  0
  8  7  2  0  0  0  0
  8 15  1  0  0  0  0
  9  8  1  0  0  0  0
 10  9  2  0  0  0  0
 11  2  1  0  0  0  0
 12  4  1  0  0  0  0
 13  6  1  0  0  0  0
 16 21  1  6  0  0  0
 17 10  1  6  0  0  0
 17 16  1  0  0  0  0
 18 19  1  0  0  0  0
 18 17  1  0  0  0  0
 19 20  1  0  0  0  0
 20 16  1  0  0  0  0
 20 23  1  1  0  0  0
 21 22  1  0  0  0  0
 24 23  1  0  0  0  0
 25 26  1  0  0  0  0
 25 27  1  0  0  0  0
 28 29  1  0  0  0  0
 28 31  1  0  0  0  0
 28 25  1  0  0  0  0
 30 28  1  0  0  0  0
 31 34  1  0  0  0  0
 32 31  1  0  0  0  0
 33 31  1  0  0  0  0
 34 35  1  0  0  0  0
 35 36  1  0  0  0  0
 36 44  1  0  0  0  0
 36 37  2  0  0  0  0
 37 45  1  0  0  0  0
 38 37  1  0  0  0  0
 39 38  2  0  0  0  0
 40 35  2  0  0  0  0
 40 39  1  0  0  0  0
 41 42  2  0  0  0  0
 43 39  1  0  0  0  0
 43 41  1  0  0  0  0
 46 41  1  0  0  0  0
 47 43  1  0  0  0  0
M  END
>  <minimizedAffinity>
-5.37636471

$$$$

 OpenBabel03262521263D

 47 50  0  0  1  0  0  0  0  0999 V2000
   38.5530   21.0290   32.3310 S   0  0  0  0  0  0  0  0  0  0  0  0
   40.0310   22.5550   34.2340 C   0  0  0  0  0  0  0  0  0  0  0  0
   38.8640   21.8730   33.8470 C   0  0  0  0  0  0  0  0  0  0  0  0
   37.8230   21.8650   34.7800 C   0  0  0  0  0  0  0  0  0  0  0  0
   37.9310   22.4810   35.9930 C   0  0  0  0  0  0  0  0  0  0  0  0
   37.1330   22.6350   37.0510 N   0  0  0  0  0  0  0  0  0  0  0  0
   37.7270   23.3550   38.0460 C   0  0  0  0  0  0  0  0  0  0  0  0
   38.9830   23.6690   37.5670 C   0  0  0  0  0  0  0  0  0  0  0  0
   39.0940   23.1290   36.3140 C   0  0  0  0  0  0  0  0  0  0  0  0
   40.1420   23.1740   35.4540 C   0  0  0  0  0  0  0  0  0  0  0  0
   40.7900   22.5160   33.4600 H   0  0  0  0  0  0  0  0  0  0  0  0
   36.8800   21.3710   34.5850 H   0  0  0  0  0  0  0  0  0  0  0  0
   36.1540   22.2270   37.0730 H   0  0  0  0  0  0  0  0  0  0  0  0
   37.2450   23.5940   38.9930 H   0  0  0  0  0  0  0  0  0  0  0  0
   39.6700   24.2460   38.1720 H   0  0  0  0  0  0  0  0  0  0  0  0
   42.4040   23.0010   36.4790 C   0  0  2  0  0  3  0  0  0  0  0  0
   41.4430   23.8470   35.7030 C   0  0  1  0  0  3  0  0  0  0  0  0
   42.0140   24.1400   34.4710 O   0  0  0  0  0  0  0  0  0  0  0  0
   43.3800   24.3140   34.7860 C   0  0  0  0  0  2  0  0  0  0  0  0
   43.6990   23.1660   35.7180 C   0  0  1  0  0  3  0  0  0  0  0  0
   41.9990   21.6680   36.5260 O   0  0  0  0  0  0  0  0  0  0  0  0
   42.5370   21.1720   37.1820 H   0  0  0  0  0  0  0  0  0  0  0  0
   44.7360   23.5380   36.5420 O   0  0  0  0  0  0  0  0  0  0  0  0
   45.3640   24.0800   35.9960 H   0  0  0  0  0  0  0  0  0  0  0  0
   36.8330   20.7900   31.9550 C   0  0  0  0  0  0  0  0  0  0  0  0
   36.7230   19.7710   31.5000 H   0  0  0  0  0  0  0  0  0  0  0  0
   36.2510   20.7440   32.9080 H   0  0  0  0  0  0  0  0  0  0  0  0
   36.2560   21.7970   30.9930 C   0  0  0  0  0  0  0  0  0  0  0  0
   37.0540   22.0150   30.2490 H   0  0  0  0  0  0  0  0  0  0  0  0
   35.5160   21.2040   30.3750 H   0  0  0  0  0  0  0  0  0  0  0  0
   35.6860   22.8760   31.5920 C   0  0  0  0  0  0  0  0  0  0  0  0
   35.7820   22.8940   32.7150 H   0  0  0  0  0  0  0  0  0  0  0  0
   34.6140   23.0580   31.3720 H   0  0  0  0  0  0  0  0  0  0  0  0
   36.4950   23.8440   31.0590 O   0  0  0  0  0  0  0  0  0  0  0  0
   37.3090   24.5560   31.8940 C   0  0  0  0  0  0  0  0  0  0  0  0
   38.5640   24.7710   31.3550 C   0  0  0  0  0  0  0  0  0  0  0  0
   39.5110   25.4930   32.1060 C   0  0  0  0  0  0  0  0  0  0  0  0
   39.1220   25.9410   33.3380 N   0  0  0  0  0  0  0  0  0  0  0  0
   37.8700   25.7090   33.8390 C   0  0  0  0  0  0  0  0  0  0  0  0
   36.9940   25.0200   33.1010 N   0  0  0  0  0  0  0  0  0  0  0  0
   38.6620   26.8900   35.7690 C   0  0  0  0  0  0  0  0  0  0  0  0
   39.8150   27.0540   35.2910 O   0  0  0  0  0  0  0  0  0  0  0  0
   37.5820   26.2260   35.1340 N   0  0  0  0  0  0  0  0  0  0  0  0
   38.9810   24.4670   30.4010 H   0  0  0  0  0  0  0  0  0  0  0  0
   40.4990   25.7100   31.7800 H   0  0  0  0  0  0  0  0  0  0  0  0
   38.5150   27.3090   36.7560 H   0  0  0  0  0  0  0  0  0  0  0  0
   36.6300   26.1000   35.5470 H   0  0  0  0  0  0  0  0  0  0  0  0
  1  3  1  0  0  0  0
  2 10  1  0  0  0  0
  3  2  2  0  0  0  0
  3  4  1  0  0  0  0
  4  5  2  0  0  0  0
  5  9  1  0  0  0  0
  5  6  1  0  0  0  0
  6 13  1  0  0  0  0
  6  7  1  0  0  0  0
  7 14  1  0  0  0  0
  8  7  2  0  0  0  0
  8 15  1  0  0  0  0
  9  8  1  0  0  0  0
 10  9  2  0  0  0  0
 11  2  1  0  0  0  0
 12  4  1  0  0  0  0
 16 21  1  6  0  0  0
 17 10  1  6  0  0  0
 17 16  1  0  0  0  0
 18 19  1  0  0  0  0
 18 17  1  0  0  0  0
 19 20  1  0  0  0  0
 20 16  1  0  0  0  0
 20 23  1  1  0  0  0
 21 22  1  0  0  0  0
 24 23  1  0  0  0  0
 25  1  1  0  0  0  0
 25 27  1  0  0  0  0
 26 25  1  0  0  0  0
 28 31  1  0  0  0  0
 28 25  1  0  0  0  0
 29 28  1  0  0  0  0
 30 28  1  0  0  0  0
 31 32  1  0  0  0  0
 33 31  1  0  0  0  0
 34 31  1  0  0  0  0
 34 35  1  0  0  0  0
 35 40  1  0  0  0  0
 36 35  2  0  0  0  0
 36 37  1  0  0  0  0
 37 38  2  0  0  0  0
 38 39  1  0  0  0  0
 39 43  1  0  0  0  0
 40 39  2  0  0  0  0
 41 46  1  0  0  0  0
 42 41  2  0  0  0  0
 43 47  1  0  0  0  0
 43 41  1  0  0  0  0
 44 36  1  0  0  0  0
 45 37  1  0  0  0  0
M  END
>  <minimizedAffinity>
-5.36437845

$$$$
