
 OpenBabel03272509503D

 33 35  0  0  1  0  0  0  0  0999 V2000
   37.2280   30.2410   51.2380 C   0  0  0  0  0  0  0  0  0  0  0  0
   37.7230   30.8830   50.0940 C   0  0  0  0  0  0  0  0  0  0  0  0
   37.1080   30.6210   48.8820 C   0  0  0  0  0  0  0  0  0  0  0  0
   36.0570   29.7560   48.8590 N   0  0  0  0  0  0  0  0  0  0  0  0
   35.6000   29.1500   49.9740 C   0  0  0  0  0  0  0  0  0  0  0  0
   36.2030   29.4080   51.1540 N   0  0  0  0  0  0  0  0  0  0  0  0
   37.7400   30.4760   52.1610 H   0  0  0  0  0  0  0  0  0  0  0  0
   38.5560   31.5670   50.1200 H   0  0  0  0  0  0  0  0  0  0  0  0
   38.9610   31.7770   47.6680 C   0  0  1  0  0  3  0  0  0  0  0  0
   37.5620   31.2600   47.5960 C   0  0  1  0  0  3  0  0  0  0  0  0
   37.6300   30.2420   46.6260 O   0  0  0  0  0  0  0  0  0  0  0  0
   38.2860   30.8280   45.5630 C   0  0  0  0  0  2  0  0  0  0  0  0
   39.4030   31.6080   46.2110 C   0  0  2  0  0  3  0  0  0  0  0  0
   38.8890   33.1400   47.9320 O   0  0  0  0  0  0  0  0  0  0  0  0
   38.0850   33.4900   47.4440 H   0  0  0  0  0  0  0  0  0  0  0  0
   40.5750   30.8960   46.1160 O   0  0  0  0  0  0  0  0  0  0  0  0
   41.2860   31.3220   46.6690 H   0  0  0  0  0  0  0  0  0  0  0  0
   34.5440   28.3210   49.7480 O   0  0  0  0  0  0  0  0  0  0  0  0
   33.7360   28.5760   48.5920 C   0  0  0  0  0  0  0  0  0  0  0  0
   34.3410   28.8710   47.7320 H   0  0  0  0  0  0  0  0  0  0  0  0
   33.0850   29.4340   48.9100 H   0  0  0  0  0  0  0  0  0  0  0  0
   32.8000   27.4240   48.3530 C   0  0  0  0  0  0  0  0  0  0  0  0
   32.9840   27.0210   47.3360 H   0  0  0  0  0  0  0  0  0  0  0  0
   32.9700   26.5840   49.0570 H   0  0  0  0  0  0  0  0  0  0  0  0
   31.3730   27.8480   48.3530 C   0  0  0  0  0  0  0  0  0  0  0  0
   30.6930   27.7400   49.5410 C   0  0  0  0  0  0  0  0  0  0  0  0
   29.3600   28.1070   49.6540 C   0  0  0  0  0  0  0  0  0  0  0  0
   28.7300   28.5770   48.5780 N   0  0  0  0  0  0  0  0  0  0  0  0
   29.4070   28.6800   47.4120 C   0  0  0  0  0  0  0  0  0  0  0  0
   30.7000   28.3270   47.2890 N   0  0  0  0  0  0  0  0  0  0  0  0
   31.1830   27.3610   50.4290 H   0  0  0  0  0  0  0  0  0  0  0  0
   28.8570   28.0050   50.6110 H   0  0  0  0  0  0  0  0  0  0  0  0
   28.8400   29.0660   46.5830 H   0  0  0  0  0  0  0  0  0  0  0  0
  1  7  1  0  0  0  0
  2  8  1  0  0  0  0
  2  1  2  0  0  0  0
  3  2  1  0  0  0  0
  4  3  2  0  0  0  0
  4  5  1  0  0  0  0
  5  6  2  0  0  0  0
  6  1  1  0  0  0  0
  9 14  1  6  0  0  0
 10  9  1  0  0  0  0
 10  3  1  1  0  0  0
 11 10  1  0  0  0  0
 12 13  1  0  0  0  0
 12 11  1  0  0  0  0
 13 16  1  1  0  0  0
 13  9  1  0  0  0  0
 15 14  1  0  0  0  0
 16 17  1  0  0  0  0
 18  5  1  0  0  0  0
 19 21  1  0  0  0  0
 19 18  1  0  0  0  0
 20 19  1  0  0  0  0
 22 19  1  0  0  0  0
 22 24  1  0  0  0  0
 23 22  1  0  0  0  0
 25 22  1  0  0  0  0
 25 26  1  0  0  0  0
 26 27  2  0  0  0  0
 26 31  1  0  0  0  0
 27 32  1  0  0  0  0
 28 27  1  0  0  0  0
 29 28  2  0  0  0  0
 30 29  1  0  0  0  0
 30 25  2  0  0  0  0
 33 29  1  0  0  0  0
M  END
>  <minimizedAffinity>
-6.05415392

>  <minimizedRMSD>
0.633627594

$$$$
