
     RDKit          3D

 40 43  0  0  0  0  0  0  0  0999 V2000
   38.9137   30.8976   45.7752 C   0  0  0  0  0  0  0  0  0  0  0  0
   40.1116   31.5099   46.0262 C   0  0  0  0  0  0  0  0  0  0  0  0
   40.9418   31.4470   44.9162 C   0  0  0  0  0  0  0  0  0  0  0  0
   40.1853   30.7732   44.0009 N   0  0  0  0  0  0  0  0  0  0  0  0
   39.0122   30.4553   44.4978 N   0  0  0  0  0  0  0  0  0  0  0  0
   37.7790   30.7451   46.6650 C   0  0  0  0  0  0  0  0  0  0  0  0
   38.0008   30.9783   48.0490 C   0  0  0  0  0  0  0  0  0  0  0  0
   36.9188   30.8338   48.9127 C   0  0  0  0  0  0  0  0  0  0  0  0
   35.7221   30.4804   48.3832 N   0  0  0  0  0  0  0  0  0  0  0  0
   35.5395   30.2642   47.0586 C   0  0  0  0  0  0  0  0  0  0  0  0
   36.5798   30.4012   46.2132 N   0  0  0  0  0  0  0  0  0  0  0  0
   37.1366   31.0762   50.3740 C   0  0  0  0  0  0  0  0  0  0  0  0
   36.6010   32.3091   50.6240 F   0  0  0  0  0  0  0  0  0  0  0  0
   36.4721   30.1305   51.1579 F   0  0  0  0  0  0  0  0  0  0  0  0
   38.4845   31.0754   50.7039 F   0  0  0  0  0  0  0  0  0  0  0  0
   40.5472   30.4156   42.6351 C   0  0  0  0  0  0  0  0  0  0  0  0
   40.1788   31.2307   41.5508 C   0  0  0  0  0  0  0  0  0  0  0  0
   40.5586   30.8457   40.2987 C   0  0  0  0  0  0  0  0  0  0  0  0
   41.3078   29.6435   40.1239 C   0  0  0  0  0  0  0  0  0  0  0  0
   41.4698   29.0403   41.8678 S   0  0  0  0  0  0  0  0  0  0  0  0
   40.4151   31.9921   46.9515 H   0  0  0  0  0  0  0  0  0  0  0  0
   41.9377   31.8116   44.7446 H   0  0  0  0  0  0  0  0  0  0  0  0
   38.9520   31.2596   48.4722 H   0  0  0  0  0  0  0  0  0  0  0  0
   34.5515   29.9807   46.6854 H   0  0  0  0  0  0  0  0  0  0  0  0
   39.6119   32.1463   41.6437 H   0  0  0  0  0  0  0  0  0  0  0  0
   40.3792   31.3250   39.3499 H   0  0  0  0  0  0  0  0  0  0  0  0
   39.6656   28.2193   38.6708 O   0  0  0  0  0  0  0  0  0  0  0  0
   40.9876   27.7939   38.6278 C   0  0  2  0  0  0  0  0  0  0  0  0
   41.8643   28.9287   39.0590 C   0  0  1  0  0  0  0  0  0  0  0  0
   41.9031   29.7443   37.9035 O   0  0  0  0  0  0  0  0  0  0  0  0
   42.2571   28.8559   36.8844 C   0  0  0  0  0  0  0  0  0  0  0  0
   41.3740   27.6708   37.1506 C   0  0  2  0  0  0  0  0  0  0  0  0
   40.2690   27.6172   36.3221 O   0  0  0  0  0  0  0  0  0  0  0  0
   39.0221   27.4700   38.7394 H   0  0  0  0  0  0  0  0  0  0  0  0
   41.1791   26.8526   39.1732 H   0  0  0  0  0  0  0  0  0  0  0  0
   42.8985   28.6549   39.2529 H   0  0  0  0  0  0  0  0  0  0  0  0
   42.0271   29.3628   35.9252 H   0  0  0  0  0  0  0  0  0  0  0  0
   43.3210   28.5855   36.9036 H   0  0  0  0  0  0  0  0  0  0  0  0
   42.0076   26.7559   37.0487 H   0  0  0  0  0  0  0  0  0  0  0  0
   40.0601   28.4574   35.8559 H   0  0  0  0  0  0  0  0  0  0  0  0
  1  2  1  0
  1  6  1  0
  3  2  2  0
  4  5  1  0
  4  3  1  0
  5  1  2  0
  6  7  2  0
  7  8  1  0
  8 12  1  0
  9  8  2  0
 10  9  1  0
 11  6  1  0
 11 10  2  0
 12 13  1  0
 12 15  1  0
 12 14  1  0
 16  4  1  0
 17 16  2  0
 18 17  1  0
 19 18  2  0
 19 20  1  0
 20 16  1  0
  2 21  1  0
  3 22  1  0
  7 23  1  0
 10 24  1  0
 17 25  1  0
 18 26  1  0
 27 28  1  0
 28 29  1  0
 29 30  1  0
 30 31  1  0
 31 32  1  0
 32 33  1  0
 32 28  1  0
 27 34  1  0
 28 35  1  1
 29 36  1  1
 31 37  1  0
 31 38  1  0
 32 39  1  1
 33 40  1  0
 19 29  1  0
M  ISO  6  21  14  22  14  23  14  24  14  25  14  26  14
M  END
>  <DihAtoms>  (1) 
17,18,28,27

>  <DihDeg>  (1) 
111.58501908351793

$$$$
