
 OpenBabel03272509033D

 33 35  0  0  1  0  0  0  0  0999 V2000
   37.5220   31.2450   50.6700 C   0  0  0  0  0  0  0  0  0  0  0  0
   38.3200   31.7250   49.6080 C   0  0  0  0  0  0  0  0  0  0  0  0
   38.1270   31.1410   48.3380 C   0  0  0  0  0  0  0  0  0  0  0  0
   37.1880   30.1530   48.2090 N   0  0  0  0  0  0  0  0  0  0  0  0
   36.4610   29.7450   49.2680 C   0  0  0  0  0  0  0  0  0  0  0  0
   36.6170   30.2780   50.4990 N   0  0  0  0  0  0  0  0  0  0  0  0
   37.7280   31.7410   51.6150 H   0  0  0  0  0  0  0  0  0  0  0  0
   39.0560   32.4930   49.6910 H   0  0  0  0  0  0  0  0  0  0  0  0
   39.3290   30.5360   46.2770 C   0  0  1  0  0  3  0  0  0  0  0  0
   38.9520   31.6280   47.2070 C   0  0  1  0  0  3  0  0  0  0  0  0
   38.3360   32.6300   46.4880 O   0  0  0  0  0  0  0  0  0  0  0  0
   37.8350   32.0900   45.3240 C   0  0  0  0  0  2  0  0  0  0  0  0
   38.3660   30.7130   45.1300 C   0  0  1  0  0  3  0  0  0  0  0  0
   40.6350   30.6670   45.8250 O   0  0  0  0  0  0  0  0  0  0  0  0
   40.6490   30.3390   44.8880 H   0  0  0  0  0  0  0  0  0  0  0  0
   39.0030   30.5520   43.9060 O   0  0  0  0  0  0  0  0  0  0  0  0
   38.3440   30.6100   43.1880 H   0  0  0  0  0  0  0  0  0  0  0  0
   35.5130   28.6890   48.9980 C   0  0  0  0  0  3  0  0  0  0  0  0
   34.3380   28.9830   48.5630 C   0  0  0  0  0  3  0  0  0  0  0  0
   33.2180   28.1000   48.2090 C   0  0  0  0  0  0  0  0  0  0  0  0
   32.8840   27.5780   49.1370 H   0  0  0  0  0  0  0  0  0  0  0  0
   32.3500   28.6660   47.8430 H   0  0  0  0  0  0  0  0  0  0  0  0
   33.5760   27.0750   47.1760 C   0  0  0  0  0  0  0  0  0  0  0  0
   33.7530   25.7220   47.4250 C   0  0  0  0  0  0  0  0  0  0  0  0
   34.0810   24.8740   46.3760 C   0  0  0  0  0  0  0  0  0  0  0  0
   34.2390   25.3490   45.0750 C   0  0  0  0  0  0  0  0  0  0  0  0
   34.0620   26.7000   44.8300 C   0  0  0  0  0  0  0  0  0  0  0  0
   33.7330   27.5490   45.8810 C   0  0  0  0  0  0  0  0  0  0  0  0
   33.6200   25.4070   48.4480 H   0  0  0  0  0  0  0  0  0  0  0  0
   34.2050   23.8330   46.6280 H   0  0  0  0  0  0  0  0  0  0  0  0
   34.4930   24.6040   44.3370 H   0  0  0  0  0  0  0  0  0  0  0  0
   34.1910   27.0340   43.8160 H   0  0  0  0  0  0  0  0  0  0  0  0
   33.6170   28.5800   45.5900 H   0  0  0  0  0  0  0  0  0  0  0  0
  1  7  1  0  0  0  0
  2  8  1  0  0  0  0
  2  1  2  0  0  0  0
  3  2  1  0  0  0  0
  4  3  2  0  0  0  0
  4  5  1  0  0  0  0
  5  6  2  0  0  0  0
  6  1  1  0  0  0  0
  9 14  1  6  0  0  0
  9 10  1  0  0  0  0
 10  3  1  1  0  0  0
 11 10  1  0  0  0  0
 12 11  1  0  0  0  0
 13 16  1  6  0  0  0
 13 12  1  0  0  0  0
 13  9  1  0  0  0  0
 15 14  1  0  0  0  0
 17 16  1  0  0  0  0
 18  5  1  0  0  0  0
 19 18  2  0  0  0  0
 20 19  1  0  0  0  0
 20 21  1  0  0  0  0
 22 20  1  0  0  0  0
 23 24  1  0  0  0  0
 23 20  1  0  0  0  0
 24 29  1  0  0  0  0
 25 30  1  0  0  0  0
 25 24  2  0  0  0  0
 26 25  1  0  0  0  0
 27 26  2  0  0  0  0
 27 28  1  0  0  0  0
 28 23  2  0  0  0  0
 31 26  1  0  0  0  0
 32 27  1  0  0  0  0
 33 28  1  0  0  0  0
M  END
>  <minimizedAffinity>
-5.70391989

>  <minimizedRMSD>
1.12706673

$$$$
