REMARK  Name = 
REMARK  7 active torsions:
REMARK  status: ('A' for Active; 'I' for Inactive)
REMARK    1  A    between atoms: C_1  and  O_7
REMARK    2  A    between atoms: C_3  and  C_18
REMARK    3  A    between atoms: O_7  and  P_9
REMARK    4  A    between atoms: P_9  and  O_10
REMARK    5  A    between atoms: P_9  and  O_11
REMARK    6  A    between atoms: O_16  and  C_17
REMARK    7  A    between atoms: C_21  and  O_22
REMARK                            x       y       z     vdW  Elec       q    Type
REMARK                         _______ _______ _______ _____ _____    ______ ____
ROOT
ATOM      1  C   UNL     1      35.648  30.469  49.745  0.00  0.00    +0.000 A 
ATOM      2  C   UNL     1      35.979  29.476  50.667  0.00  0.00    +0.000 A 
ATOM      3  C   UNL     1      37.234  29.506  51.255  0.00  0.00    +0.000 A 
ATOM      4  N   UNL     1      38.098  30.503  50.912  0.00  0.00    +0.000 NA
ATOM      5  C   UNL     1      37.750  31.467  50.005  0.00  0.00    +0.000 A 
ATOM      6  N   UNL     1      36.521  31.439  49.428  0.00  0.00    +0.000 NA
ATOM      7  H   UNL     1      35.233  28.739  50.867  0.00  0.00    +0.000 HD
ATOM      8  H   UNL     1      38.456  32.244  49.754  0.00  0.00    +0.000 HD
ENDROOT
BRANCH   3  10
ATOM      9  C   UNL     1      38.972  27.919  52.047  0.00  0.00    +0.000 C 
ATOM     10  C   UNL     1      37.595  28.455  52.236  0.00  0.00    +0.000 C 
ATOM     11  O   UNL     1      37.563  28.967  53.533  0.00  0.00    +0.000 OA
ATOM     12  C   UNL     1      38.129  27.916  54.254  0.00  0.00    +0.000 C 
ATOM     13  C   UNL     1      39.445  27.728  53.490  0.00  0.00    +0.000 C 
BRANCH   9  14
ATOM     14  O   UNL     1      38.973  26.662  51.428  0.00  0.00    +0.000 OA
ATOM     15  H   UNL     1      38.300  26.048  51.857  0.00  0.00    +0.000 HD
ENDBRANCH   9  14
BRANCH  13  16
ATOM     16  O   UNL     1      40.315  28.719  53.895  0.00  0.00    +0.000 OA
ATOM     17  H   UNL     1      40.360  28.670  54.879  0.00  0.00    +0.000 HD
ENDBRANCH  13  16
ENDBRANCH   3  10
BRANCH   1  18
ATOM     18  O   UNL     1      34.436  30.574  49.074  0.00  0.00    +0.000 OA
BRANCH  18  20
ATOM     19  O   UNL     1      35.500  30.144  46.644  0.00  0.00    +0.000 OA
ATOM     20  P   UNL     1      34.224  30.030  47.468  0.00  0.00    +0.000 P 
BRANCH  20  21
ATOM     21  O   UNL     1      33.750  28.393  47.590  0.00  0.00    +0.000 OA
ATOM     22  H   UNL     1      33.455  28.041  46.695  0.00  0.00    +0.000 HD
ENDBRANCH  20  21
BRANCH  20  23
ATOM     23  O   UNL     1      33.063  30.950  46.669  0.00  0.00    +0.000 OA
ATOM     24  H   UNL     1      32.289  30.346  46.470  0.00  0.00    +0.000 HD
ENDBRANCH  20  23
ENDBRANCH  18  20
ENDBRANCH   1  18
TORSDOF 7
