
 OpenBabel03262520223D

 32 34  0  0  1  0  0  0  0  0999 V2000
   33.9050   29.6050   46.9490 C   0  0  0  0  0  0  0  0  0  0  0  0
   33.5990   28.2510   47.1690 C   0  0  0  0  0  0  0  0  0  0  0  0
   33.8860   27.5420   48.2840 C   0  0  0  0  0  0  0  0  0  0  0  0
   34.5220   28.1240   49.3150 C   0  0  0  0  0  0  0  0  0  0  0  0
   34.8310   29.4420   49.1240 C   0  0  0  0  0  0  0  0  0  0  0  0
   34.5200   30.0650   48.0110 N   0  0  0  0  0  0  0  0  0  0  0  0
   33.0630   27.6550   46.3690 H   0  0  0  0  0  0  0  0  0  0  0  0
   33.6030   26.4620   48.3720 H   0  0  0  0  0  0  0  0  0  0  0  0
   34.8000   27.6830   50.2320 H   0  0  0  0  0  0  0  0  0  0  0  0
   32.1920   30.8100   45.8530 C   0  0  0  0  0  0  0  0  0  0  0  0
   33.4990   30.2480   45.7130 C   0  0  0  0  0  0  0  0  0  0  0  0
   34.1250   30.4250   44.5090 C   0  0  0  0  0  0  0  0  0  0  0  0
   33.4390   31.1280   43.5450 N   0  0  0  0  0  0  0  0  0  0  0  0
   32.2250   31.6480   43.6860 C   0  0  0  0  0  0  0  0  0  0  0  0
   31.6060   31.4770   44.8630 N   0  0  0  0  0  0  0  0  0  0  0  0
   31.7090   32.3500   42.5920 N   0  0  0  0  0  0  0  0  0  0  0  0
   31.5860   30.7500   46.7330 H   0  0  0  0  0  0  0  0  0  0  0  0
   31.4440   33.3500   42.4510 H   0  0  0  0  0  0  0  0  0  0  0  0
   31.5770   31.7250   41.7860 H   0  0  0  0  0  0  0  0  0  0  0  0
   35.4650   29.8810   44.3010 C   0  0  0  0  0  0  0  0  0  0  0  0
   35.4030   28.5680   44.3290 F   0  0  0  0  0  0  0  0  0  0  0  0
   36.0760   30.3020   43.1370 F   0  0  0  0  0  0  0  0  0  0  0  0
   36.3430   30.2920   45.3460 F   0  0  0  0  0  0  0  0  0  0  0  0
   36.6260   31.1770   49.4360 C   0  0  2  0  0  0  0  0  0  0  0  0
   35.5450   30.3870   50.0750 C   0  0  2  0  0  0  0  0  0  0  0  0
   36.1640   29.6420   51.0900 O   0  0  0  0  0  0  0  0  0  0  0  0
   37.3420   29.1620   50.5530 C   0  0  0  0  0  0  0  0  0  0  0  0
   37.8420   30.2780   49.6940 C   0  0  2  0  0  0  0  0  0  0  0  0
   36.7960   32.3760   50.1720 O   0  0  0  0  0  0  0  0  0  0  0  0
   36.6690   32.1070   51.1300 H   0  0  0  0  0  0  0  0  0  0  0  0
   38.8180   31.0000   50.4110 O   0  0  0  0  0  0  0  0  0  0  0  0
   38.7360   31.9410   50.1560 H   0  0  0  0  0  0  0  0  0  0  0  0
  1  2  2  0  0  0  0
  1  6  1  0  0  0  0
  2  3  1  0  0  0  0
  3  8  1  0  0  0  0
  3  4  2  0  0  0  0
  4  9  1  0  0  0  0
  5  4  1  0  0  0  0
  6  5  2  0  0  0  0
  7  2  1  0  0  0  0
 10 17  1  0  0  0  0
 11 10  1  0  0  0  0
 11  1  1  0  0  0  0
 12 11  2  0  0  0  0
 13 14  2  0  0  0  0
 13 12  1  0  0  0  0
 14 15  1  0  0  0  0
 15 10  2  0  0  0  0
 16 14  1  0  0  0  0
 18 16  1  0  0  0  0
 19 16  1  0  0  0  0
 20 21  1  0  0  0  0
 20 12  1  0  0  0  0
 20 23  1  0  0  0  0
 22 20  1  0  0  0  0
 24 28  1  0  0  0  0
 24 25  1  0  0  0  0
 24 29  1  1  0  0  0
 25  5  1  6  0  0  0
 25 26  1  0  0  0  0
 27 26  1  0  0  0  0
 28 31  1  1  0  0  0
 28 27  1  0  0  0  0
 29 30  1  0  0  0  0
 32 31  1  0  0  0  0
M  END
>  <minimizedAffinity>
-5.96386051

>  <minimizedRMSD>
3.56018972

$$$$
