
     RDKit          3D

 29 30  0  0  0  0  0  0  0  0999 V2000
   35.6485   30.4688   49.7455 C   0  0  0  0  0  0  0  0  0  0  0  0
   35.9786   29.4758   50.6667 C   0  0  0  0  0  0  0  0  0  0  0  0
   37.2337   29.5060   51.2550 C   0  0  0  0  0  0  0  0  0  0  0  0
   38.0977   30.5034   50.9120 N   0  0  0  0  0  0  0  0  0  0  0  0
   37.7500   31.4667   50.0049 C   0  0  0  0  0  0  0  0  0  0  0  0
   36.5210   31.4386   49.4279 N   0  0  0  0  0  0  0  0  0  0  0  0
   34.4356   30.5744   49.0739 O   0  0  0  0  0  0  0  0  0  0  0  0
   35.4997   30.1441   46.6439 O   0  0  0  0  0  0  0  0  0  0  0  0
   34.2242   30.0296   47.4675 P   0  0  0  0  0  0  0  0  0  0  0  0
   33.7503   28.3930   47.5904 O   0  0  0  0  0  0  0  0  0  0  0  0
   33.0627   30.9497   46.6692 O   0  0  0  0  0  0  0  0  0  0  0  0
   35.2325   28.7394   50.8673 H   0  0  0  0  0  0  0  0  0  0  0  0
   38.4561   32.2442   49.7535 H   0  0  0  0  0  0  0  0  0  0  0  0
   33.4551   28.0411   46.6946 H   0  0  0  0  0  0  0  0  0  0  0  0
   32.2894   30.3455   46.4699 H   0  0  0  0  0  0  0  0  0  0  0  0
   38.9726   26.6616   51.4284 O   0  0  0  0  0  0  0  0  0  0  0  0
   38.9723   27.9188   52.0469 C   0  0  1  0  0  0  0  0  0  0  0  0
   37.5951   28.4554   52.2355 C   0  0  1  0  0  0  0  0  0  0  0  0
   37.5633   28.9669   53.5326 O   0  0  0  0  0  0  0  0  0  0  0  0
   38.1285   27.9155   54.2537 C   0  0  0  0  0  0  0  0  0  0  0  0
   39.4448   27.7279   53.4901 C   0  0  2  0  0  0  0  0  0  0  0  0
   40.3153   28.7189   53.8946 O   0  0  0  0  0  0  0  0  0  0  0  0
   38.2996   26.0484   51.8573 H   0  0  0  0  0  0  0  0  0  0  0  0
   39.6585   28.5498   51.4808 H   0  0  0  0  0  0  0  0  0  0  0  0
   36.8071   27.6827   52.1875 H   0  0  0  0  0  0  0  0  0  0  0  0
   38.2864   28.1354   55.3217 H   0  0  0  0  0  0  0  0  0  0  0  0
   37.4539   27.0309   54.0863 H   0  0  0  0  0  0  0  0  0  0  0  0
   39.8319   26.6994   53.6557 H   0  0  0  0  0  0  0  0  0  0  0  0
   40.3598   28.6699   54.8786 H   0  0  0  0  0  0  0  0  0  0  0  0
  1  2  2  0
  2  3  1  0
  4  3  2  0
  5  4  1  0
  6  1  1  0
  6  5  2  0
  7  1  1  0
  8  9  2  0
  9 10  1  0
  9  7  1  0
 11  9  1  0
  2 12  1  0
  5 13  1  0
 10 14  1  0
 11 15  1  0
 16 17  1  0
 17 18  1  0
 18 19  1  0
 19 20  1  0
 20 21  1  0
 21 22  1  0
 21 17  1  0
 16 23  1  0
 17 24  1  6
 18 25  1  1
 20 26  1  0
 20 27  1  0
 21 28  1  6
 22 29  1  0
  3 18  1  0
M  ISO  4  12  14  13  14  14   3  15   3
M  END
>  <DihAtoms>  (1) 
1,2,17,16

>  <DihDeg>  (1) 
-163.46389960884255

$$$$
