
 OpenBabel03272509513D

 33 35  0  0  1  0  0  0  0  0999 V2000
   39.9070   26.6920   33.9860 C   0  0  0  0  0  0  0  0  0  0  0  0
   39.5710   25.8550   35.0600 C   0  0  0  0  0  0  0  0  0  0  0  0
   38.2360   25.5470   35.2520 C   0  0  0  0  0  0  0  0  0  0  0  0
   37.3170   26.0670   34.3940 N   0  0  0  0  0  0  0  0  0  0  0  0
   37.6660   26.8710   33.3680 C   0  0  0  0  0  0  0  0  0  0  0  0
   38.9690   27.1690   33.1840 N   0  0  0  0  0  0  0  0  0  0  0  0
   40.9610   26.9050   33.8750 H   0  0  0  0  0  0  0  0  0  0  0  0
   40.3050   25.4460   35.7360 H   0  0  0  0  0  0  0  0  0  0  0  0
   38.4460   23.3250   36.3760 C   0  0  1  0  0  3  0  0  0  0  0  0
   37.7710   24.6560   36.3750 C   0  0  1  0  0  3  0  0  0  0  0  0
   38.1940   25.2490   37.5800 O   0  0  0  0  0  0  0  0  0  0  0  0
   37.9710   24.2770   38.5330 C   0  0  0  0  0  2  0  0  0  0  0  0
   38.4450   23.0060   37.8750 C   0  0  2  0  0  3  0  0  0  0  0  0
   37.5940   22.4220   35.7520 O   0  0  0  0  0  0  0  0  0  0  0  0
   36.6570   22.6830   36.0040 H   0  0  0  0  0  0  0  0  0  0  0  0
   39.7060   22.6960   38.3290 O   0  0  0  0  0  0  0  0  0  0  0  0
   40.0930   21.9500   37.7950 H   0  0  0  0  0  0  0  0  0  0  0  0
   36.6060   27.2910   32.6220 O   0  0  0  0  0  0  0  0  0  0  0  0
   36.5460   26.8650   31.2560 C   0  0  0  0  0  0  0  0  0  0  0  0
   37.5420   26.6970   30.8390 H   0  0  0  0  0  0  0  0  0  0  0  0
   36.0580   27.7300   30.7320 H   0  0  0  0  0  0  0  0  0  0  0  0
   35.5910   25.7130   31.1160 C   0  0  0  0  0  0  0  0  0  0  0  0
   34.9750   25.6480   32.0360 H   0  0  0  0  0  0  0  0  0  0  0  0
   34.8820   25.8470   30.2740 H   0  0  0  0  0  0  0  0  0  0  0  0
   36.2950   24.4050   31.0240 C   0  0  0  0  0  0  0  0  0  0  0  0
   35.5790   23.2880   31.3790 C   0  0  0  0  0  0  0  0  0  0  0  0
   36.1380   22.0190   31.3310 C   0  0  0  0  0  0  0  0  0  0  0  0
   37.4010   21.8880   30.9290 N   0  0  0  0  0  0  0  0  0  0  0  0
   38.0990   22.9930   30.5810 C   0  0  0  0  0  0  0  0  0  0  0  0
   37.5700   24.2300   30.6230 N   0  0  0  0  0  0  0  0  0  0  0  0
   34.5520   23.3680   31.7090 H   0  0  0  0  0  0  0  0  0  0  0  0
   35.5390   21.1600   31.6200 H   0  0  0  0  0  0  0  0  0  0  0  0
   39.1130   22.8180   30.2660 H   0  0  0  0  0  0  0  0  0  0  0  0
  1  2  1  0  0  0  0
  2  3  2  0  0  0  0
  2  8  1  0  0  0  0
  4  3  1  0  0  0  0
  5  4  2  0  0  0  0
  6  5  1  0  0  0  0
  6  1  2  0  0  0  0
  7  1  1  0  0  0  0
  9 14  1  6  0  0  0
  9 13  1  0  0  0  0
 10  3  1  6  0  0  0
 10  9  1  0  0  0  0
 10 11  1  0  0  0  0
 11 12  1  0  0  0  0
 13 16  1  1  0  0  0
 13 12  1  0  0  0  0
 14 15  1  0  0  0  0
 17 16  1  0  0  0  0
 18  5  1  0  0  0  0
 19 18  1  0  0  0  0
 20 19  1  0  0  0  0
 21 19  1  0  0  0  0
 22 19  1  0  0  0  0
 22 23  1  0  0  0  0
 24 22  1  0  0  0  0
 25 22  1  0  0  0  0
 25 26  1  0  0  0  0
 26 31  1  0  0  0  0
 27 26  2  0  0  0  0
 27 32  1  0  0  0  0
 28 27  1  0  0  0  0
 29 30  1  0  0  0  0
 29 28  2  0  0  0  0
 30 25  2  0  0  0  0
 33 29  1  0  0  0  0
M  END
>  <minimizedAffinity>
-5.37580919

$$$$

 OpenBabel03272509513D

 33 35  0  0  1  0  0  0  0  0999 V2000
   35.2030   24.9530   31.0680 C   0  0  0  0  0  0  0  0  0  0  0  0
   35.2530   23.5580   31.2010 C   0  0  0  0  0  0  0  0  0  0  0  0
   36.2850   23.0120   31.9440 C   0  0  0  0  0  0  0  0  0  0  0  0
   37.1960   23.8500   32.5080 N   0  0  0  0  0  0  0  0  0  0  0  0
   37.1260   25.1890   32.3650 C   0  0  0  0  0  0  0  0  0  0  0  0
   36.1180   25.7180   31.6390 N   0  0  0  0  0  0  0  0  0  0  0  0
   34.3800   25.3350   30.4790 H   0  0  0  0  0  0  0  0  0  0  0  0
   34.5270   22.9010   30.7500 H   0  0  0  0  0  0  0  0  0  0  0  0
   35.2970   20.9360   32.9240 C   0  0  1  0  0  3  0  0  0  0  0  0
   36.4280   21.5260   32.1470 C   0  0  1  0  0  3  0  0  0  0  0  0
   36.3200   20.9190   30.8820 O   0  0  0  0  0  0  0  0  0  0  0  0
   36.2010   19.5730   31.1600 C   0  0  0  0  0  2  0  0  0  0  0  0
   35.2480   19.5250   32.3270 C   0  0  2  0  0  3  0  0  0  0  0  0
   35.7110   20.8210   34.2450 O   0  0  0  0  0  0  0  0  0  0  0  0
   36.6870   20.5850   34.2250 H   0  0  0  0  0  0  0  0  0  0  0  0
   33.9870   19.2080   31.8780 O   0  0  0  0  0  0  0  0  0  0  0  0
   33.3200   19.3220   32.6100 H   0  0  0  0  0  0  0  0  0  0  0  0
   38.1280   25.8570   33.0030 O   0  0  0  0  0  0  0  0  0  0  0  0
   37.7600   26.7580   34.0540 C   0  0  0  0  0  0  0  0  0  0  0  0
   36.7130   26.6390   34.3420 H   0  0  0  0  0  0  0  0  0  0  0  0
   37.9150   27.7720   33.5980 H   0  0  0  0  0  0  0  0  0  0  0  0
   38.7500   26.6640   35.1820 C   0  0  0  0  0  0  0  0  0  0  0  0
   39.7520   26.9470   34.8010 H   0  0  0  0  0  0  0  0  0  0  0  0
   38.5200   27.3660   36.0090 H   0  0  0  0  0  0  0  0  0  0  0  0
   38.9010   25.2710   35.6840 C   0  0  0  0  0  0  0  0  0  0  0  0
   37.8580   24.7570   36.4150 C   0  0  0  0  0  0  0  0  0  0  0  0
   37.8940   23.4700   36.9310 C   0  0  0  0  0  0  0  0  0  0  0  0
   38.9710   22.7180   36.7060 N   0  0  0  0  0  0  0  0  0  0  0  0
   39.9940   23.2310   35.9850 C   0  0  0  0  0  0  0  0  0  0  0  0
   39.9720   24.4780   35.4800 N   0  0  0  0  0  0  0  0  0  0  0  0
   36.9730   25.3480   36.6110 H   0  0  0  0  0  0  0  0  0  0  0  0
   37.0500   23.1000   37.5040 H   0  0  0  0  0  0  0  0  0  0  0  0
   40.8320   22.5720   35.8400 H   0  0  0  0  0  0  0  0  0  0  0  0
  1  2  2  0  0  0  0
  1  6  1  0  0  0  0
  2  3  1  0  0  0  0
  3  4  2  0  0  0  0
  5  4  1  0  0  0  0
  5 18  1  0  0  0  0
  6  5  2  0  0  0  0
  7  1  1  0  0  0  0
  8  2  1  0  0  0  0
  9 14  1  1  0  0  0
 10  3  1  6  0  0  0
 10  9  1  0  0  0  0
 11 12  1  0  0  0  0
 11 10  1  0  0  0  0
 12 13  1  0  0  0  0
 13 16  1  6  0  0  0
 13  9  1  0  0  0  0
 15 14  1  0  0  0  0
 16 17  1  0  0  0  0
 18 19  1  0  0  0  0
 19 20  1  0  0  0  0
 19 22  1  0  0  0  0
 21 19  1  0  0  0  0
 22 25  1  0  0  0  0
 22 24  1  0  0  0  0
 23 22  1  0  0  0  0
 25 26  1  0  0  0  0
 26 31  1  0  0  0  0
 26 27  2  0  0  0  0
 27 32  1  0  0  0  0
 28 27  1  0  0  0  0
 29 28  2  0  0  0  0
 30 25  2  0  0  0  0
 30 29  1  0  0  0  0
 33 29  1  0  0  0  0
M  END
>  <minimizedAffinity>
-5.35614681

$$$$

 OpenBabel03272509513D

 33 35  0  0  1  0  0  0  0  0999 V2000
   39.5450   27.0900   34.1900 C   0  0  0  0  0  0  0  0  0  0  0  0
   39.1220   26.4480   35.3630 C   0  0  0  0  0  0  0  0  0  0  0  0
   38.2590   25.3730   35.2430 C   0  0  0  0  0  0  0  0  0  0  0  0
   37.8640   24.9910   33.9990 N   0  0  0  0  0  0  0  0  0  0  0  0
   38.2840   25.6250   32.8840 C   0  0  0  0  0  0  0  0  0  0  0  0
   39.1260   26.6730   33.0060 N   0  0  0  0  0  0  0  0  0  0  0  0
   40.2180   27.9230   34.3320 H   0  0  0  0  0  0  0  0  0  0  0  0
   39.4400   26.7580   36.3460 H   0  0  0  0  0  0  0  0  0  0  0  0
   38.3190   23.2410   36.5450 C   0  0  1  0  0  3  0  0  0  0  0  0
   37.7480   24.6170   36.4410 C   0  0  1  0  0  3  0  0  0  0  0  0
   38.2360   25.2710   37.5880 O   0  0  0  0  0  0  0  0  0  0  0  0
   37.9560   24.4010   38.6210 C   0  0  0  0  0  2  0  0  0  0  0  0
   38.3200   23.0470   38.0660 C   0  0  2  0  0  3  0  0  0  0  0  0
   37.3880   22.3600   36.0080 O   0  0  0  0  0  0  0  0  0  0  0  0
   36.4800   22.7130   36.2480 H   0  0  0  0  0  0  0  0  0  0  0  0
   39.5610   22.6790   38.5290 O   0  0  0  0  0  0  0  0  0  0  0  0
   39.8800   21.8630   38.0540 H   0  0  0  0  0  0  0  0  0  0  0  0
   37.7790   25.0960   31.7350 O   0  0  0  0  0  0  0  0  0  0  0  0
   36.6860   24.1780   31.8520 C   0  0  0  0  0  0  0  0  0  0  0  0
   35.7360   24.6400   31.5720 H   0  0  0  0  0  0  0  0  0  0  0  0
   36.6740   23.9210   32.9450 H   0  0  0  0  0  0  0  0  0  0  0  0
   37.0100   22.8970   31.1360 C   0  0  0  0  0  0  0  0  0  0  0  0
   36.5370   22.9200   30.1330 H   0  0  0  0  0  0  0  0  0  0  0  0
   38.0980   22.7670   30.9650 H   0  0  0  0  0  0  0  0  0  0  0  0
   36.4260   21.7080   31.8170 C   0  0  0  0  0  0  0  0  0  0  0  0
   36.0590   20.6530   31.0180 C   0  0  0  0  0  0  0  0  0  0  0  0
   35.5050   19.4960   31.5470 C   0  0  0  0  0  0  0  0  0  0  0  0
   35.3280   19.4140   32.8650 N   0  0  0  0  0  0  0  0  0  0  0  0
   35.6920   20.4570   33.6450 C   0  0  0  0  0  0  0  0  0  0  0  0
   36.2300   21.5850   33.1440 N   0  0  0  0  0  0  0  0  0  0  0  0
   36.1930   20.6950   29.9440 H   0  0  0  0  0  0  0  0  0  0  0  0
   35.2280   18.6840   30.8820 H   0  0  0  0  0  0  0  0  0  0  0  0
   35.5220   20.3260   34.6990 H   0  0  0  0  0  0  0  0  0  0  0  0
  1  7  1  0  0  0  0
  1  2  1  0  0  0  0
  2  8  1  0  0  0  0
  3  2  2  0  0  0  0
  4  3  1  0  0  0  0
  5  6  1  0  0  0  0
  5  4  2  0  0  0  0
  6  1  2  0  0  0  0
  9 14  1  6  0  0  0
  9 13  1  0  0  0  0
 10  3  1  6  0  0  0
 10  9  1  0  0  0  0
 10 11  1  0  0  0  0
 11 12  1  0  0  0  0
 13 16  1  1  0  0  0
 13 12  1  0  0  0  0
 14 15  1  0  0  0  0
 17 16  1  0  0  0  0
 18 19  1  0  0  0  0
 18  5  1  0  0  0  0
 19 21  1  0  0  0  0
 20 19  1  0  0  0  0
 22 25  1  0  0  0  0
 22 19  1  0  0  0  0
 23 22  1  0  0  0  0
 24 22  1  0  0  0  0
 25 30  1  0  0  0  0
 26 27  1  0  0  0  0
 26 25  2  0  0  0  0
 27 28  2  0  0  0  0
 28 29  1  0  0  0  0
 29 33  1  0  0  0  0
 30 29  2  0  0  0  0
 31 26  1  0  0  0  0
 32 27  1  0  0  0  0
M  END
>  <minimizedAffinity>
-5.28882933

$$$$

 OpenBabel03272509513D

 33 35  0  0  1  0  0  0  0  0999 V2000
   35.3500   25.7730   31.0450 C   0  0  0  0  0  0  0  0  0  0  0  0
   35.3480   24.3720   31.0950 C   0  0  0  0  0  0  0  0  0  0  0  0
   36.2370   23.7490   31.9530 C   0  0  0  0  0  0  0  0  0  0  0  0
   37.0680   24.5220   32.7030 N   0  0  0  0  0  0  0  0  0  0  0  0
   37.0520   25.8700   32.6370 C   0  0  0  0  0  0  0  0  0  0  0  0
   36.1820   26.4730   31.7980 N   0  0  0  0  0  0  0  0  0  0  0  0
   34.6390   26.2150   30.3610 H   0  0  0  0  0  0  0  0  0  0  0  0
   34.6860   23.7660   30.4960 H   0  0  0  0  0  0  0  0  0  0  0  0
   36.8190   21.8080   33.4150 C   0  0  1  0  0  3  0  0  0  0  0  0
   36.3130   22.2500   32.0810 C   0  0  1  0  0  3  0  0  0  0  0  0
   34.9940   21.7610   32.0420 O   0  0  0  0  0  0  0  0  0  0  0  0
   35.1110   20.4380   32.4180 C   0  0  0  0  0  2  0  0  0  0  0  0
   36.0850   20.4710   33.5690 C   0  0  2  0  0  3  0  0  0  0  0  0
   38.1740   21.5320   33.2790 O   0  0  0  0  0  0  0  0  0  0  0  0
   38.3000   21.1360   32.3640 H   0  0  0  0  0  0  0  0  0  0  0  0
   35.3950   20.4050   34.7560 O   0  0  0  0  0  0  0  0  0  0  0  0
   36.0070   20.5790   35.5230 H   0  0  0  0  0  0  0  0  0  0  0  0
   37.9560   26.4660   33.4630 O   0  0  0  0  0  0  0  0  0  0  0  0
   37.4710   27.0050   34.6980 C   0  0  0  0  0  0  0  0  0  0  0  0
   36.4340   26.7170   34.8880 H   0  0  0  0  0  0  0  0  0  0  0  0
   37.5320   28.1160   34.5420 H   0  0  0  0  0  0  0  0  0  0  0  0
   38.4350   26.6970   35.8090 C   0  0  0  0  0  0  0  0  0  0  0  0
   39.4100   27.1700   35.5760 H   0  0  0  0  0  0  0  0  0  0  0  0
   38.1100   27.1140   36.7830 H   0  0  0  0  0  0  0  0  0  0  0  0
   38.7240   25.2400   35.9160 C   0  0  0  0  0  0  0  0  0  0  0  0
   37.7720   24.4620   36.5270 C   0  0  0  0  0  0  0  0  0  0  0  0
   37.9380   23.0930   36.6800 C   0  0  0  0  0  0  0  0  0  0  0  0
   39.0520   22.5260   36.2190 N   0  0  0  0  0  0  0  0  0  0  0  0
   39.9850   23.2990   35.6180 C   0  0  0  0  0  0  0  0  0  0  0  0
   39.8360   24.6280   35.4640 N   0  0  0  0  0  0  0  0  0  0  0  0
   36.8580   24.8990   36.9100 H   0  0  0  0  0  0  0  0  0  0  0  0
   37.1620   22.5120   37.1690 H   0  0  0  0  0  0  0  0  0  0  0  0
   40.8600   22.7800   35.2690 H   0  0  0  0  0  0  0  0  0  0  0  0
  1  2  2  0  0  0  0
  1  6  1  0  0  0  0
  2  3  1  0  0  0  0
  3  4  2  0  0  0  0
  5  4  1  0  0  0  0
  5 18  1  0  0  0  0
  6  5  2  0  0  0  0
  7  1  1  0  0  0  0
  8  2  1  0  0  0  0
  9 14  1  6  0  0  0
  9 13  1  0  0  0  0
 10  3  1  1  0  0  0
 10  9  1  0  0  0  0
 11 10  1  0  0  0  0
 11 12  1  0  0  0  0
 12 13  1  0  0  0  0
 13 16  1  1  0  0  0
 15 14  1  0  0  0  0
 16 17  1  0  0  0  0
 18 19  1  0  0  0  0
 19 20  1  0  0  0  0
 19 22  1  0  0  0  0
 21 19  1  0  0  0  0
 22 25  1  0  0  0  0
 22 24  1  0  0  0  0
 23 22  1  0  0  0  0
 25 26  1  0  0  0  0
 26 27  2  0  0  0  0
 26 31  1  0  0  0  0
 27 32  1  0  0  0  0
 28 27  1  0  0  0  0
 29 28  2  0  0  0  0
 30 29  1  0  0  0  0
 30 25  2  0  0  0  0
 33 29  1  0  0  0  0
M  END
>  <minimizedAffinity>
-5.25645781

$$$$

 OpenBabel03272509513D

 33 35  0  0  1  0  0  0  0  0999 V2000
   35.8880   27.6400   31.5250 C   0  0  0  0  0  0  0  0  0  0  0  0
   36.8660   26.8750   32.1770 C   0  0  0  0  0  0  0  0  0  0  0  0
   37.1390   27.1610   33.5030 C   0  0  0  0  0  0  0  0  0  0  0  0
   36.4490   28.1640   34.1090 N   0  0  0  0  0  0  0  0  0  0  0  0
   35.5120   28.8870   33.4600 C   0  0  0  0  0  0  0  0  0  0  0  0
   35.2490   28.6050   32.1660 N   0  0  0  0  0  0  0  0  0  0  0  0
   35.7090   27.3810   30.4910 H   0  0  0  0  0  0  0  0  0  0  0  0
   37.4090   26.0810   31.6900 H   0  0  0  0  0  0  0  0  0  0  0  0
   37.9910   26.5380   35.7690 C   0  0  1  0  0  3  0  0  0  0  0  0
   38.1700   26.3980   34.2930 C   0  0  1  0  0  3  0  0  0  0  0  0
   37.9480   25.0280   34.0560 O   0  0  0  0  0  0  0  0  0  0  0  0
   38.7390   24.3890   34.9890 C   0  0  0  0  0  2  0  0  0  0  0  0
   38.5300   25.1870   36.2520 C   0  0  2  0  0  3  0  0  0  0  0  0
   38.8680   27.5230   36.2060 O   0  0  0  0  0  0  0  0  0  0  0  0
   39.7010   27.4380   35.6510 H   0  0  0  0  0  0  0  0  0  0  0  0
   37.6250   24.5390   37.0590 O   0  0  0  0  0  0  0  0  0  0  0  0
   37.3610   25.1240   37.8220 H   0  0  0  0  0  0  0  0  0  0  0  0
   34.9320   29.8460   34.2330 O   0  0  0  0  0  0  0  0  0  0  0  0
   35.6100   31.1020   34.3510 C   0  0  0  0  0  0  0  0  0  0  0  0
   35.0700   31.9040   33.8410 H   0  0  0  0  0  0  0  0  0  0  0  0
   36.5920   30.9210   33.8370 H   0  0  0  0  0  0  0  0  0  0  0  0
   35.9480   31.3730   35.7910 C   0  0  0  0  0  0  0  0  0  0  0  0
   35.8430   30.4290   36.3640 H   0  0  0  0  0  0  0  0  0  0  0  0
   36.9970   31.7060   35.9270 H   0  0  0  0  0  0  0  0  0  0  0  0
   34.9930   32.3240   36.4250 C   0  0  0  0  0  0  0  0  0  0  0  0
   33.7810   31.8150   36.8200 C   0  0  0  0  0  0  0  0  0  0  0  0
   32.8170   32.6120   37.4200 C   0  0  0  0  0  0  0  0  0  0  0  0
   33.0830   33.9030   37.6170 N   0  0  0  0  0  0  0  0  0  0  0  0
   34.2800   34.3960   37.2250 C   0  0  0  0  0  0  0  0  0  0  0  0
   35.2230   33.6340   36.6400 N   0  0  0  0  0  0  0  0  0  0  0  0
   33.5410   30.7700   36.6710 H   0  0  0  0  0  0  0  0  0  0  0  0
   31.8700   32.1730   37.7180 H   0  0  0  0  0  0  0  0  0  0  0  0
   34.4300   35.4450   37.4120 H   0  0  0  0  0  0  0  0  0  0  0  0
  1  6  2  0  0  0  0
  1  2  1  0  0  0  0
  2  3  2  0  0  0  0
  3  4  1  0  0  0  0
  5  4  2  0  0  0  0
  5 18  1  0  0  0  0
  6  5  1  0  0  0  0
  7  1  1  0  0  0  0
  8  2  1  0  0  0  0
  9 14  1  1  0  0  0
  9 13  1  0  0  0  0
 10  3  1  6  0  0  0
 10  9  1  0  0  0  0
 11 10  1  0  0  0  0
 11 12  1  0  0  0  0
 12 13  1  0  0  0  0
 13 16  1  1  0  0  0
 15 14  1  0  0  0  0
 16 17  1  0  0  0  0
 18 19  1  0  0  0  0
 19 22  1  0  0  0  0
 20 19  1  0  0  0  0
 21 19  1  0  0  0  0
 22 24  1  0  0  0  0
 22 23  1  0  0  0  0
 22 25  1  0  0  0  0
 25 30  2  0  0  0  0
 25 26  1  0  0  0  0
 26 27  2  0  0  0  0
 27 28  1  0  0  0  0
 27 32  1  0  0  0  0
 29 33  1  0  0  0  0
 29 28  2  0  0  0  0
 30 29  1  0  0  0  0
 31 26  1  0  0  0  0
M  END
>  <minimizedAffinity>
-5.09181261

$$$$

 OpenBabel03272509513D

 33 35  0  0  1  0  0  0  0  0999 V2000
   38.0150   27.7710   35.7210 C   0  0  0  0  0  0  0  0  0  0  0  0
   38.4890   26.4650   35.9160 C   0  0  0  0  0  0  0  0  0  0  0  0
   38.1440   25.5010   34.9860 C   0  0  0  0  0  0  0  0  0  0  0  0
   37.3650   25.8640   33.9310 N   0  0  0  0  0  0  0  0  0  0  0  0
   36.9200   27.1260   33.7650 C   0  0  0  0  0  0  0  0  0  0  0  0
   37.2590   28.0640   34.6760 N   0  0  0  0  0  0  0  0  0  0  0  0
   38.3090   28.4900   36.4730 H   0  0  0  0  0  0  0  0  0  0  0  0
   39.1060   26.1860   36.7550 H   0  0  0  0  0  0  0  0  0  0  0  0
   38.1430   23.4170   36.3650 C   0  0  1  0  0  3  0  0  0  0  0  0
   38.6020   24.0710   35.1040 C   0  0  1  0  0  3  0  0  0  0  0  0
   37.9540   23.3400   34.0900 O   0  0  0  0  0  0  0  0  0  0  0  0
   38.2090   22.0220   34.4070 C   0  0  0  0  0  2  0  0  0  0  0  0
   38.0150   21.9620   35.9010 C   0  0  2  0  0  3  0  0  0  0  0  0
   39.1910   23.4790   37.2750 O   0  0  0  0  0  0  0  0  0  0  0  0
   40.0400   23.3690   36.7500 H   0  0  0  0  0  0  0  0  0  0  0  0
   36.7710   21.4470   36.1830 O   0  0  0  0  0  0  0  0  0  0  0  0
   36.5680   21.5430   37.1530 H   0  0  0  0  0  0  0  0  0  0  0  0
   36.1550   27.2920   32.6510 O   0  0  0  0  0  0  0  0  0  0  0  0
   36.5890   26.6500   31.4460 C   0  0  0  0  0  0  0  0  0  0  0  0
   37.6150   26.2820   31.5300 H   0  0  0  0  0  0  0  0  0  0  0  0
   36.5420   27.4690   30.6800 H   0  0  0  0  0  0  0  0  0  0  0  0
   35.5760   25.6280   31.0120 C   0  0  0  0  0  0  0  0  0  0  0  0
   34.7550   25.6030   31.7560 H   0  0  0  0  0  0  0  0  0  0  0  0
   35.1080   25.8790   30.0390 H   0  0  0  0  0  0  0  0  0  0  0  0
   36.1360   24.2480   31.0010 C   0  0  0  0  0  0  0  0  0  0  0  0
   37.4550   24.1170   30.6410 C   0  0  0  0  0  0  0  0  0  0  0  0
   38.0780   22.8780   30.5970 C   0  0  0  0  0  0  0  0  0  0  0  0
   37.3730   21.7930   30.9150 N   0  0  0  0  0  0  0  0  0  0  0  0
   36.0750   21.9310   31.2690 C   0  0  0  0  0  0  0  0  0  0  0  0
   35.4580   23.1270   31.3150 N   0  0  0  0  0  0  0  0  0  0  0  0
   38.0490   24.9830   30.3780 H   0  0  0  0  0  0  0  0  0  0  0  0
   39.1220   22.8150   30.3070 H   0  0  0  0  0  0  0  0  0  0  0  0
   35.5640   21.0170   31.5130 H   0  0  0  0  0  0  0  0  0  0  0  0
  1  2  1  0  0  0  0
  1  7  1  0  0  0  0
  2  8  1  0  0  0  0
  3  2  2  0  0  0  0
  4  3  1  0  0  0  0
  5  4  2  0  0  0  0
  5  6  1  0  0  0  0
  6  1  2  0  0  0  0
  9 14  1  1  0  0  0
 10  3  1  1  0  0  0
 10  9  1  0  0  0  0
 11 12  1  0  0  0  0
 11 10  1  0  0  0  0
 12 13  1  0  0  0  0
 13 16  1  6  0  0  0
 13  9  1  0  0  0  0
 15 14  1  0  0  0  0
 16 17  1  0  0  0  0
 18  5  1  0  0  0  0
 19 20  1  0  0  0  0
 19 18  1  0  0  0  0
 21 19  1  0  0  0  0
 22 19  1  0  0  0  0
 22 23  1  0  0  0  0
 24 22  1  0  0  0  0
 25 22  1  0  0  0  0
 25 30  1  0  0  0  0
 26 25  2  0  0  0  0
 27 26  1  0  0  0  0
 27 28  2  0  0  0  0
 28 29  1  0  0  0  0
 29 30  2  0  0  0  0
 29 33  1  0  0  0  0
 31 26  1  0  0  0  0
 32 27  1  0  0  0  0
M  END
>  <minimizedAffinity>
-4.94415998

$$$$

 OpenBabel03272509513D

 33 35  0  0  1  0  0  0  0  0999 V2000
   39.6170   20.3270   31.7890 C   0  0  0  0  0  0  0  0  0  0  0  0
   40.1290   21.1400   32.8100 C   0  0  0  0  0  0  0  0  0  0  0  0
   39.2350   21.7100   33.6990 C   0  0  0  0  0  0  0  0  0  0  0  0
   37.9080   21.4560   33.5420 N   0  0  0  0  0  0  0  0  0  0  0  0
   37.4390   20.6700   32.5500 C   0  0  0  0  0  0  0  0  0  0  0  0
   38.3150   20.1160   31.6850 N   0  0  0  0  0  0  0  0  0  0  0  0
   40.3520   19.9030   31.1190 H   0  0  0  0  0  0  0  0  0  0  0  0
   41.1830   21.3370   32.9290 H   0  0  0  0  0  0  0  0  0  0  0  0
   39.0950   22.2040   36.1450 C   0  0  1  0  0  3  0  0  0  0  0  0
   39.6840   22.5980   34.8310 C   0  0  1  0  0  3  0  0  0  0  0  0
   41.0650   22.3870   35.0050 O   0  0  0  0  0  0  0  0  0  0  0  0
   41.3580   23.0180   36.1960 C   0  0  0  0  0  2  0  0  0  0  0  0
   40.2120   22.6390   37.1000 C   0  0  2  0  0  3  0  0  0  0  0  0
   37.9980   23.0260   36.3760 O   0  0  0  0  0  0  0  0  0  0  0  0
   38.2290   23.9300   36.0040 H   0  0  0  0  0  0  0  0  0  0  0  0
   40.6000   21.6120   37.9280 O   0  0  0  0  0  0  0  0  0  0  0  0
   39.8140   21.2490   38.4220 H   0  0  0  0  0  0  0  0  0  0  0  0
   36.0840   20.5360   32.5570 O   0  0  0  0  0  0  0  0  0  0  0  0
   35.2990   21.7310   32.4710 C   0  0  0  0  0  0  0  0  0  0  0  0
   35.3230   22.3010   33.4030 H   0  0  0  0  0  0  0  0  0  0  0  0
   34.2590   21.3500   32.2870 H   0  0  0  0  0  0  0  0  0  0  0  0
   35.6720   22.5050   31.2380 C   0  0  0  0  0  0  0  0  0  0  0  0
   36.6170   22.0920   30.8310 H   0  0  0  0  0  0  0  0  0  0  0  0
   34.9170   22.4120   30.4310 H   0  0  0  0  0  0  0  0  0  0  0  0
   35.9670   23.9340   31.5370 C   0  0  0  0  0  0  0  0  0  0  0  0
   35.1780   24.8730   30.9200 C   0  0  0  0  0  0  0  0  0  0  0  0
   35.3660   26.2320   31.1270 C   0  0  0  0  0  0  0  0  0  0  0  0
   36.3370   26.6280   31.9490 N   0  0  0  0  0  0  0  0  0  0  0  0
   37.1100   25.6970   32.5520 C   0  0  0  0  0  0  0  0  0  0  0  0
   36.9390   24.3750   32.3600 N   0  0  0  0  0  0  0  0  0  0  0  0
   34.3830   24.5770   30.2480 H   0  0  0  0  0  0  0  0  0  0  0  0
   34.7220   26.9440   30.6200 H   0  0  0  0  0  0  0  0  0  0  0  0
   37.8750   26.0830   33.2020 H   0  0  0  0  0  0  0  0  0  0  0  0
  1  2  1  0  0  0  0
  2  8  1  0  0  0  0
  2  3  2  0  0  0  0
  4  3  1  0  0  0  0
  5 18  1  0  0  0  0
  5  4  2  0  0  0  0
  6  1  2  0  0  0  0
  6  5  1  0  0  0  0
  7  1  1  0  0  0  0
  9 14  1  1  0  0  0
  9 13  1  0  0  0  0
 10  3  1  6  0  0  0
 10 11  1  0  0  0  0
 10  9  1  0  0  0  0
 11 12  1  0  0  0  0
 12 13  1  0  0  0  0
 13 16  1  1  0  0  0
 15 14  1  0  0  0  0
 16 17  1  0  0  0  0
 19 18  1  0  0  0  0
 19 20  1  0  0  0  0
 21 19  1  0  0  0  0
 22 25  1  0  0  0  0
 22 19  1  0  0  0  0
 23 22  1  0  0  0  0
 24 22  1  0  0  0  0
 25 30  1  0  0  0  0
 26 27  1  0  0  0  0
 26 25  2  0  0  0  0
 27 28  2  0  0  0  0
 28 29  1  0  0  0  0
 29 33  1  0  0  0  0
 30 29  2  0  0  0  0
 31 26  1  0  0  0  0
 32 27  1  0  0  0  0
M  END
>  <minimizedAffinity>
-4.90699291

$$$$

 OpenBabel03272509513D

 33 35  0  0  1  0  0  0  0  0999 V2000
   39.8280   26.8650   34.1570 C   0  0  0  0  0  0  0  0  0  0  0  0
   39.4970   26.0340   35.2370 C   0  0  0  0  0  0  0  0  0  0  0  0
   38.2110   25.5270   35.2980 C   0  0  0  0  0  0  0  0  0  0  0  0
   37.3330   25.8570   34.3130 N   0  0  0  0  0  0  0  0  0  0  0  0
   37.6750   26.6600   33.2840 C   0  0  0  0  0  0  0  0  0  0  0  0
   38.9310   27.1520   33.2280 N   0  0  0  0  0  0  0  0  0  0  0  0
   40.8420   27.2380   34.1510 H   0  0  0  0  0  0  0  0  0  0  0  0
   40.1990   25.7770   36.0140 H   0  0  0  0  0  0  0  0  0  0  0  0
   38.4340   23.2940   36.3990 C   0  0  1  0  0  3  0  0  0  0  0  0
   37.7560   24.6240   36.4150 C   0  0  1  0  0  3  0  0  0  0  0  0
   38.1860   25.2060   37.6230 O   0  0  0  0  0  0  0  0  0  0  0  0
   37.9720   24.2240   38.5680 C   0  0  0  0  0  2  0  0  0  0  0  0
   38.4440   22.9600   37.8950 C   0  0  2  0  0  3  0  0  0  0  0  0
   37.5790   22.3960   35.7720 O   0  0  0  0  0  0  0  0  0  0  0  0
   36.6440   22.6530   36.0330 H   0  0  0  0  0  0  0  0  0  0  0  0
   39.7090   22.6490   38.3360 O   0  0  0  0  0  0  0  0  0  0  0  0
   40.0940   21.9090   37.7920 H   0  0  0  0  0  0  0  0  0  0  0  0
   36.6610   26.8730   32.4000 O   0  0  0  0  0  0  0  0  0  0  0  0
   36.9870   27.5060   31.1570 C   0  0  0  0  0  0  0  0  0  0  0  0
   36.6510   26.9150   30.3010 H   0  0  0  0  0  0  0  0  0  0  0  0
   38.1090   27.5490   31.1700 H   0  0  0  0  0  0  0  0  0  0  0  0
   36.5240   28.9360   31.1690 C   0  0  0  0  0  0  0  0  0  0  0  0
   35.4160   28.9520   31.1320 H   0  0  0  0  0  0  0  0  0  0  0  0
   36.8130   29.4690   32.0970 H   0  0  0  0  0  0  0  0  0  0  0  0
   36.9670   29.6810   29.9580 C   0  0  0  0  0  0  0  0  0  0  0  0
   36.6660   31.0210   29.9090 C   0  0  0  0  0  0  0  0  0  0  0  0
   37.0310   31.8100   28.8290 C   0  0  0  0  0  0  0  0  0  0  0  0
   37.6910   31.2480   27.8170 N   0  0  0  0  0  0  0  0  0  0  0  0
   37.9830   29.9290   27.8730 C   0  0  0  0  0  0  0  0  0  0  0  0
   37.6340   29.1510   28.9150 N   0  0  0  0  0  0  0  0  0  0  0  0
   36.1310   31.5000   30.7190 H   0  0  0  0  0  0  0  0  0  0  0  0
   36.7740   32.8650   28.8270 H   0  0  0  0  0  0  0  0  0  0  0  0
   38.5170   29.5380   27.0240 H   0  0  0  0  0  0  0  0  0  0  0  0
  1  2  1  0  0  0  0
  2  3  2  0  0  0  0
  2  8  1  0  0  0  0
  4  3  1  0  0  0  0
  5  4  2  0  0  0  0
  6  5  1  0  0  0  0
  6  1  2  0  0  0  0
  7  1  1  0  0  0  0
  9 14  1  6  0  0  0
  9 10  1  0  0  0  0
  9 13  1  0  0  0  0
 10  3  1  6  0  0  0
 10 11  1  0  0  0  0
 11 12  1  0  0  0  0
 13 16  1  1  0  0  0
 13 12  1  0  0  0  0
 14 15  1  0  0  0  0
 17 16  1  0  0  0  0
 18  5  1  0  0  0  0
 19 22  1  0  0  0  0
 19 21  1  0  0  0  0
 19 18  1  0  0  0  0
 20 19  1  0  0  0  0
 22 24  1  0  0  0  0
 23 22  1  0  0  0  0
 25 22  1  0  0  0  0
 26 25  1  0  0  0  0
 26 31  1  0  0  0  0
 27 26  2  0  0  0  0
 28 29  2  0  0  0  0
 28 27  1  0  0  0  0
 29 30  1  0  0  0  0
 30 25  2  0  0  0  0
 32 27  1  0  0  0  0
 33 29  1  0  0  0  0
M  END
>  <minimizedAffinity>
-4.89973211

$$$$

 OpenBabel03272509513D

 33 35  0  0  1  0  0  0  0  0999 V2000
   35.4320   21.4260   32.3320 C   0  0  0  0  0  0  0  0  0  0  0  0
   35.7310   22.5410   31.5360 C   0  0  0  0  0  0  0  0  0  0  0  0
   36.8060   23.3320   31.9010 C   0  0  0  0  0  0  0  0  0  0  0  0
   37.5180   22.9930   33.0090 N   0  0  0  0  0  0  0  0  0  0  0  0
   37.2100   21.9150   33.7600 C   0  0  0  0  0  0  0  0  0  0  0  0
   36.1610   21.1450   33.4000 N   0  0  0  0  0  0  0  0  0  0  0  0
   34.5850   20.8370   32.0090 H   0  0  0  0  0  0  0  0  0  0  0  0
   35.1620   22.8030   30.6590 H   0  0  0  0  0  0  0  0  0  0  0  0
   36.3510   25.7380   31.4000 C   0  0  1  0  0  3  0  0  0  0  0  0
   37.2100   24.5510   31.1130 C   0  0  1  0  0  3  0  0  0  0  0  0
   38.4840   24.9400   31.5690 O   0  0  0  0  0  0  0  0  0  0  0  0
   38.6810   26.1840   31.0060 C   0  0  0  0  0  2  0  0  0  0  0  0
   37.3530   26.8760   31.1770 C   0  0  2  0  0  3  0  0  0  0  0  0
   35.3940   25.8150   30.3960 O   0  0  0  0  0  0  0  0  0  0  0  0
   35.8380   25.5170   29.5460 H   0  0  0  0  0  0  0  0  0  0  0  0
   37.4110   27.7210   32.2600 O   0  0  0  0  0  0  0  0  0  0  0  0
   36.5030   28.0680   32.4780 H   0  0  0  0  0  0  0  0  0  0  0  0
   38.0380   21.7410   34.8280 O   0  0  0  0  0  0  0  0  0  0  0  0
   37.7610   22.4980   36.0120 C   0  0  0  0  0  0  0  0  0  0  0  0
   37.2800   21.8880   36.7800 H   0  0  0  0  0  0  0  0  0  0  0  0
   37.0490   23.2910   35.6570 H   0  0  0  0  0  0  0  0  0  0  0  0
   38.9970   23.2310   36.4560 C   0  0  0  0  0  0  0  0  0  0  0  0
   38.9320   23.4060   37.5490 H   0  0  0  0  0  0  0  0  0  0  0  0
   39.9230   22.6450   36.2870 H   0  0  0  0  0  0  0  0  0  0  0  0
   39.0970   24.5860   35.8470 C   0  0  0  0  0  0  0  0  0  0  0  0
   38.1210   25.4920   36.1840 C   0  0  0  0  0  0  0  0  0  0  0  0
   38.1170   26.7820   35.6760 C   0  0  0  0  0  0  0  0  0  0  0  0
   39.0890   27.1460   34.8400 N   0  0  0  0  0  0  0  0  0  0  0  0
   40.0470   26.2480   34.5140 C   0  0  0  0  0  0  0  0  0  0  0  0
   40.0620   24.9930   35.0000 N   0  0  0  0  0  0  0  0  0  0  0  0
   37.3200   25.2200   36.8610 H   0  0  0  0  0  0  0  0  0  0  0  0
   37.3270   27.4680   35.9660 H   0  0  0  0  0  0  0  0  0  0  0  0
   40.8020   26.6050   33.8350 H   0  0  0  0  0  0  0  0  0  0  0  0
  1  6  1  0  0  0  0
  2  3  1  0  0  0  0
  2  1  2  0  0  0  0
  3  4  2  0  0  0  0
  4  5  1  0  0  0  0
  5 18  1  0  0  0  0
  6  5  2  0  0  0  0
  7  1  1  0  0  0  0
  8  2  1  0  0  0  0
  9 14  1  6  0  0  0
 10  9  1  0  0  0  0
 10 11  1  0  0  0  0
 10  3  1  1  0  0  0
 12 13  1  0  0  0  0
 12 11  1  0  0  0  0
 13  9  1  0  0  0  0
 13 16  1  1  0  0  0
 15 14  1  0  0  0  0
 16 17  1  0  0  0  0
 18 19  1  0  0  0  0
 19 22  1  0  0  0  0
 19 20  1  0  0  0  0
 21 19  1  0  0  0  0
 22 23  1  0  0  0  0
 24 22  1  0  0  0  0
 25 26  1  0  0  0  0
 25 22  1  0  0  0  0
 26 31  1  0  0  0  0
 27 32  1  0  0  0  0
 27 26  2  0  0  0  0
 28 27  1  0  0  0  0
 29 28  2  0  0  0  0
 29 30  1  0  0  0  0
 30 25  2  0  0  0  0
 33 29  1  0  0  0  0
M  END
>  <minimizedAffinity>
-4.88817787

$$$$
