
 OpenBabel03272508183D

 25 27  0  0  1  0  0  0  0  0999 V2000
   37.9230   30.7810   44.4280 C   0  0  0  0  0  0  0  0  0  0  0  0
   39.0830   31.1350   45.1330 C   0  0  0  0  0  0  0  0  0  0  0  0
   40.2390   30.6790   44.4780 C   0  0  0  0  0  0  0  0  0  0  0  0
   40.2190   29.9890   43.3140 N   0  0  0  0  0  0  0  0  0  0  0  0
   39.0630   29.6850   42.6890 C   0  0  0  0  0  0  0  0  0  0  0  0
   37.9180   30.0880   43.2590 N   0  0  0  0  0  0  0  0  0  0  0  0
   41.2560   30.8390   44.8500 H   0  0  0  0  0  0  0  0  0  0  0  0
   38.8610   29.1560   41.7750 H   0  0  0  0  0  0  0  0  0  0  0  0
   36.6230   31.3010   45.0150 C   0  0  0  0  0  0  0  0  0  0  0  0
   35.3510   30.8620   44.5060 C   0  0  0  0  0  0  0  0  0  0  0  0
   35.8670   30.1570   45.7310 C   0  0  0  0  0  0  0  0  0  0  0  0
   36.6820   32.1750   45.7230 H   0  0  0  0  0  0  0  0  0  0  0  0
   35.3780   30.2820   43.5350 H   0  0  0  0  0  0  0  0  0  0  0  0
   34.4050   31.4130   44.6010 H   0  0  0  0  0  0  0  0  0  0  0  0
   36.2540   29.1600   45.5670 H   0  0  0  0  0  0  0  0  0  0  0  0
   35.3390   30.3980   46.6600 H   0  0  0  0  0  0  0  0  0  0  0  0
   37.9390   32.0930   47.1170 C   0  0  2  0  0  3  0  0  0  0  0  0
   39.2480   31.8530   46.3500 C   0  0  2  0  0  3  0  0  0  0  0  0
   39.8770   33.0440   46.4010 O   0  0  0  0  0  0  0  0  0  0  0  0
   39.4600   33.7760   47.4750 C   0  0  0  0  0  2  0  0  0  0  0  0
   38.5330   32.8610   48.2870 C   0  0  1  0  0  3  0  0  0  0  0  0
   37.4770   30.8400   47.4920 O   0  0  0  0  0  0  0  0  0  0  0  0
   38.0280   30.4950   48.2170 H   0  0  0  0  0  0  0  0  0  0  0  0
   37.6060   33.5580   49.0070 O   0  0  0  0  0  0  0  0  0  0  0  0
   38.0530   34.3800   49.3790 H   0  0  0  0  0  0  0  0  0  0  0  0
  1  9  1  0  0  0  0
  1  2  1  0  0  0  0
  3  7  1  0  0  0  0
  3  2  2  0  0  0  0
  4  3  1  0  0  0  0
  5  6  1  0  0  0  0
  5  4  2  0  0  0  0
  6  1  2  0  0  0  0
  8  5  1  0  0  0  0
  9 12  1  0  0  0  0
  9 11  1  0  0  0  0
 10 14  1  0  0  0  0
 10  9  1  0  0  0  0
 10 11  1  0  0  0  0
 11 16  1  0  0  0  0
 13 10  1  0  0  0  0
 15 11  1  0  0  0  0
 17 22  1  1  0  0  0
 17 21  1  0  0  0  0
 18  2  1  6  0  0  0
 18 19  1  0  0  0  0
 18 17  1  0  0  0  0
 19 20  1  0  0  0  0
 20 21  1  0  0  0  0
 21 24  1  6  0  0  0
 22 23  1  0  0  0  0
 24 25  1  0  0  0  0
M  END
>  <minimizedAffinity>
-2.73828363

>  <minimizedRMSD>
5.20379639

$$$$
