
 OpenBabel03272503363D

 19 20  0  0  1  0  0  0  0  0999 V2000
   37.7630   30.7200   49.0700 C   0  0  0  0  0  0  0  0  0  0  0  0
   38.4050   30.6540   47.8260 C   0  0  0  0  0  0  0  0  0  0  0  0
   37.6210   30.5460   46.6780 C   0  0  0  0  0  0  0  0  0  0  0  0
   36.2740   30.5090   46.8290 N   0  0  0  0  0  0  0  0  0  0  0  0
   35.6730   30.5760   48.0540 C   0  0  0  0  0  0  0  0  0  0  0  0
   36.4260   30.6800   49.1460 N   0  0  0  0  0  0  0  0  0  0  0  0
   39.4480   30.6770   47.6520 H   0  0  0  0  0  0  0  0  0  0  0  0
   34.5960   30.5460   48.1630 H   0  0  0  0  0  0  0  0  0  0  0  0
   39.5670   31.1410   45.2430 C   0  0  1  0  0  0  0  0  0  0  0  0
   38.2230   30.4700   45.3180 C   0  0  2  0  0  0  0  0  0  0  0  0
   37.4590   31.1210   44.3690 O   0  0  0  0  0  0  0  0  0  0  0  0
   37.7730   32.4860   44.4730 C   0  0  0  0  0  0  0  0  0  0  0  0
   39.2060   32.5670   44.8800 C   0  0  1  0  0  0  0  0  0  0  0  0
   40.3280   31.0290   46.3800 O   0  0  0  0  0  0  0  0  0  0  0  0
   41.2820   31.1210   46.0770 H   0  0  0  0  0  0  0  0  0  0  0  0
   39.4580   33.3650   45.9680 O   0  0  0  0  0  0  0  0  0  0  0  0
   39.4340   34.3300   45.7810 H   0  0  0  0  0  0  0  0  0  0  0  0
   38.6800   30.8260   50.1170 O   0  0  0  0  0  0  0  0  0  0  0  0
   38.4220   30.4440   51.0160 H   0  0  0  0  0  0  0  0  0  0  0  0
  1  6  1  0  0  0  0
  1 18  1  0  0  0  0
  2  1  2  0  0  0  0
  3  4  2  0  0  0  0
  3  2  1  0  0  0  0
  4  5  1  0  0  0  0
  5  8  1  0  0  0  0
  5  6  2  0  0  0  0
  7  2  1  0  0  0  0
  9 10  1  0  0  0  0
  9 14  1  1  0  0  0
 10  3  1  1  0  0  0
 11 12  1  0  0  0  0
 11 10  1  0  0  0  0
 12 13  1  0  0  0  0
 13  9  1  0  0  0  0
 13 16  1  1  0  0  0
 15 14  1  0  0  0  0
 17 16  1  0  0  0  0
 18 19  1  0  0  0  0
M  END
>  <minimizedAffinity>
-4.89155102

>  <minimizedRMSD>
3.56016135

$$$$
