REMARK  Name = 
REMARK  7 active torsions:
REMARK  status: ('A' for Active; 'I' for Inactive)
REMARK    1  A    between atoms: N_1  and  C_6
REMARK    2  A    between atoms: C_3  and  C_18
REMARK    3  A    between atoms: C_10  and  S_12
REMARK    4  A    between atoms: S_12  and  C_13
REMARK    5  A    between atoms: C_16  and  C_35
REMARK    6  A    between atoms: O_33  and  C_34
REMARK    7  A    between atoms: C_38  and  O_39
REMARK                            x       y       z     vdW  Elec       q    Type
REMARK                         _______ _______ _______ _____ _____    ______ ____
ROOT
ATOM      1  C   UNL     1      35.246  29.426  47.892  0.00  0.00    +0.000 A 
ATOM      2  C   UNL     1      35.118  30.020  46.645  0.00  0.00    +0.000 A 
ATOM      3  C   UNL     1      33.990  29.682  45.894  0.00  0.00    +0.000 A 
ATOM      4  N   UNL     1      33.097  28.790  46.449  0.00  0.00    +0.000 NA
ATOM      5  C   UNL     1      33.259  28.248  47.642  0.00  0.00    +0.000 A 
ATOM      6  N   UNL     1      34.340  28.570  48.364  0.00  0.00    +0.000 NA
ATOM      7  H   UNL     1      35.823  30.724  46.210  0.00  0.00    +0.000 HD
ATOM      8  H   UNL     1      33.801  30.093  44.911  0.00  0.00    +0.000 HD
ENDROOT
BRANCH   1   9
ATOM      9  N   UNL     1      36.408  29.769  48.674  0.00  0.00    +0.000 N 
ATOM     10  C   UNL     1      37.536  30.541  48.240  0.00  0.00    +0.000 C 
ATOM     11  C   UNL     1      38.036  31.152  49.531  0.00  0.00    +0.000 C 
ATOM     12  C   UNL     1      37.023  30.758  50.609  0.00  0.00    +0.000 C 
ATOM     13  C   UNL     1      36.659  29.396  50.057  0.00  0.00    +0.000 C 
ATOM     14  H   UNL     1      37.290  31.340  47.513  0.00  0.00    +0.000 HD
ATOM     15  H   UNL     1      38.264  29.878  47.746  0.00  0.00    +0.000 HD
ATOM     16  H   UNL     1      38.978  30.626  49.793  0.00  0.00    +0.000 HD
ATOM     17  H   UNL     1      37.484  30.706  51.599  0.00  0.00    +0.000 HD
ATOM     18  H   UNL     1      36.173  31.443  50.529  0.00  0.00    +0.000 HD
ATOM     19  H   UNL     1      35.783  28.955  50.535  0.00  0.00    +0.000 HD
ATOM     20  H   UNL     1      37.551  28.739  50.044  0.00  0.00    +0.000 HD
BRANCH  11  21
ATOM     21  C   UNL     1      38.189  32.651  49.432  0.00  0.00    +0.000 C 
ATOM     22  F   UNL     1      37.043  33.204  49.954  0.00  0.00    +0.000 F 
ATOM     23  F   UNL     1      38.201  32.956  48.085  0.00  0.00    +0.000 F 
ATOM     24  F   UNL     1      39.315  33.123  50.048  0.00  0.00    +0.000 F 
ENDBRANCH  11  21
ENDBRANCH   1   9
BRANCH   5  25
ATOM     25  S   UNL     1      32.060  27.108  48.281  0.00  0.00    +0.000 S 
BRANCH  25  26
ATOM     26  C   UNL     1      30.577  27.714  48.809  0.00  0.00    +0.000 A 
ATOM     27  C   UNL     1      29.811  27.865  49.931  0.00  0.00    +0.000 A 
ATOM     28  C   UNL     1      28.591  28.439  49.963  0.00  0.00    +0.000 A 
ATOM     29  C   UNL     1      28.113  28.918  48.636  0.00  0.00    +0.000 A 
ATOM     30  S   UNL     1      29.481  28.483  47.505  0.00  0.00    +0.000 S 
ATOM     31  H   UNL     1      30.314  27.461  50.796  0.00  0.00    +0.000 HD
ATOM     32  H   UNL     1      27.991  28.556  50.845  0.00  0.00    +0.000 HD
BRANCH  29  34
ATOM     33  C   UNL     1      26.983  31.013  48.900  0.00  0.00    +0.000 C 
ATOM     34  C   UNL     1      26.851  29.555  48.439  0.00  0.00    +0.000 C 
ATOM     35  O   UNL     1      25.907  29.115  49.339  0.00  0.00    +0.000 OA
ATOM     36  C   UNL     1      24.867  30.040  49.090  0.00  0.00    +0.000 C 
ATOM     37  C   UNL     1      25.543  31.403  49.033  0.00  0.00    +0.000 C 
BRANCH  33  38
ATOM     38  O   UNL     1      27.718  31.774  48.025  0.00  0.00    +0.000 OA
ATOM     39  H   UNL     1      27.235  32.446  47.517  0.00  0.00    +0.000 HD
ENDBRANCH  33  38
BRANCH  37  40
ATOM     40  O   UNL     1      25.363  32.114  50.218  0.00  0.00    +0.000 OA
ATOM     41  H   UNL     1      26.206  32.613  50.372  0.00  0.00    +0.000 HD
ENDBRANCH  37  40
ENDBRANCH  29  34
ENDBRANCH  25  26
ENDBRANCH   5  25
TORSDOF 7
