
 OpenBabel03272508243D

 25 27  0  0  1  0  0  0  0  0999 V2000
   35.8260   30.5410   49.0700 C   0  0  1  0  0  0  0  0  0  0  0  0
   35.9150   29.1030   48.8470 C   0  0  1  0  0  0  0  0  0  0  0  0
   36.0360   29.6140   50.2580 C   0  0  0  0  0  0  0  0  0  0  0  0
   34.8060   31.0280   49.0760 H   0  0  0  0  0  0  0  0  0  0  0  0
   36.8840   28.7650   48.3750 H   0  0  0  0  0  0  0  0  0  0  0  0
   37.0410   29.5710   50.7220 H   0  0  0  0  0  0  0  0  0  0  0  0
   35.2070   29.4920   50.9630 H   0  0  0  0  0  0  0  0  0  0  0  0
   37.0090   31.4460   48.8160 C   0  0  0  0  0  0  0  0  0  0  0  0
   37.2010   32.5210   49.7030 C   0  0  0  0  0  0  0  0  0  0  0  0
   38.2820   33.3360   49.4190 C   0  0  0  0  0  0  0  0  0  0  0  0
   39.0870   33.0880   48.3460 N   0  0  0  0  0  0  0  0  0  0  0  0
   38.8630   32.0420   47.5200 C   0  0  0  0  0  0  0  0  0  0  0  0
   37.8120   31.2120   47.7590 N   0  0  0  0  0  0  0  0  0  0  0  0
   36.5510   32.6860   50.5340 H   0  0  0  0  0  0  0  0  0  0  0  0
   38.4860   34.1820   50.0650 H   0  0  0  0  0  0  0  0  0  0  0  0
   39.4730   31.8070   46.6590 H   0  0  0  0  0  0  0  0  0  0  0  0
   33.9680   29.0720   47.3800 C   0  0  2  0  0  3  0  0  0  0  0  0
   34.7500   28.2780   48.4080 C   0  0  2  0  0  3  0  0  0  0  0  0
   33.8710   28.0640   49.4380 O   0  0  0  0  0  0  0  0  0  0  0  0
   32.5790   28.1350   48.9960 C   0  0  0  0  0  2  0  0  0  0  0  0
   32.6030   28.3870   47.5110 C   0  0  1  0  0  3  0  0  0  0  0  0
   34.4660   28.9560   46.0990 O   0  0  0  0  0  0  0  0  0  0  0  0
   35.0760   29.7100   45.9090 H   0  0  0  0  0  0  0  0  0  0  0  0
   31.5780   29.1780   47.0520 O   0  0  0  0  0  0  0  0  0  0  0  0
   31.5100   29.0060   46.0730 H   0  0  0  0  0  0  0  0  0  0  0  0
  1  4  1  6  0  0  0
  1  3  1  0  0  0  0
  2  5  1  6  0  0  0
  2  1  1  0  0  0  0
  2  3  1  0  0  0  0
  3  6  1  0  0  0  0
  3  7  1  0  0  0  0
  8  1  1  0  0  0  0
  8  9  1  0  0  0  0
  9 14  1  0  0  0  0
 10  9  2  0  0  0  0
 10 15  1  0  0  0  0
 11 10  1  0  0  0  0
 12 13  1  0  0  0  0
 12 11  2  0  0  0  0
 13  8  2  0  0  0  0
 16 12  1  0  0  0  0
 17 22  1  6  0  0  0
 17 21  1  0  0  0  0
 17 18  1  0  0  0  0
 18  2  1  0  0  0  0
 18 19  1  1  0  0  0
 20 19  1  0  0  0  0
 21 24  1  1  0  0  0
 21 20  1  0  0  0  0
 23 22  1  0  0  0  0
 25 24  1  0  0  0  0
M  END
>  <minimizedAffinity>
-5.04652786

>  <minimizedRMSD>
1.44024217

$$$$
