REMARK  Name = 
REMARK  4 active torsions:
REMARK  status: ('A' for Active; 'I' for Inactive)
REMARK    1  A    between atoms: C_1  and  C_7
REMARK    2  A    between atoms: C_8  and  C_19
REMARK    3  A    between atoms: O_17  and  C_18
REMARK    4  A    between atoms: C_22  and  O_23
REMARK                            x       y       z     vdW  Elec       q    Type
REMARK                         _______ _______ _______ _____ _____    ______ ____
ROOT
ATOM      1  C   UNL     1      35.926  30.398  49.979  0.00  0.00    +0.000 C 
ATOM      2  C   UNL     1      35.796  28.952  49.840  0.00  0.00    +0.000 C 
ATOM      3  C   UNL     1      36.472  29.492  51.073  0.00  0.00    +0.000 C 
ATOM      4  H   UNL     1      35.028  30.994  50.319  0.00  0.00    +0.000 HD
ATOM      5  H   UNL     1      36.490  28.494  49.075  0.00  0.00    +0.000 HD
ATOM      6  H   UNL     1      37.569  29.353  51.144  0.00  0.00    +0.000 HD
ATOM      7  H   UNL     1      35.952  29.484  52.036  0.00  0.00    +0.000 HD
ENDROOT
BRANCH   1   8
ATOM      8  C   UNL     1      37.011  31.158  49.252  0.00  0.00    +0.000 A 
ATOM      9  C   UNL     1      37.315  32.450  49.717  0.00  0.00    +0.000 A 
ATOM     10  C   UNL     1      38.298  33.118  49.008  0.00  0.00    +0.000 A 
ATOM     11  N   UNL     1      38.910  32.536  47.936  0.00  0.00    +0.000 NA
ATOM     12  C   UNL     1      38.583  31.291  47.525  0.00  0.00    +0.000 A 
ATOM     13  N   UNL     1      37.623  30.595  48.191  0.00  0.00    +0.000 NA
ATOM     14  H   UNL     1      36.816  32.875  50.560  0.00  0.00    +0.000 HD
ATOM     15  H   UNL     1      38.580  34.118  49.316  0.00  0.00    +0.000 HD
ATOM     16  H   UNL     1      39.040  30.791  46.683  0.00  0.00    +0.000 HD
ENDBRANCH   1   8
BRANCH   2  18
ATOM     17  C   UNL     1      33.484  29.020  49.071  0.00  0.00    +0.000 C 
ATOM     18  C   UNL     1      34.482  28.247  49.910  0.00  0.00    +0.000 C 
ATOM     19  O   UNL     1      33.970  28.266  51.182  0.00  0.00    +0.000 OA
ATOM     20  C   UNL     1      32.617  28.460  51.158  0.00  0.00    +0.000 C 
ATOM     21  C   UNL     1      32.179  28.542  49.719  0.00  0.00    +0.000 C 
BRANCH  17  22
ATOM     22  O   UNL     1      33.525  28.699  47.731  0.00  0.00    +0.000 OA
ATOM     23  H   UNL     1      34.106  29.340  47.252  0.00  0.00    +0.000 HD
ENDBRANCH  17  22
BRANCH  21  24
ATOM     24  O   UNL     1      31.137  29.408  49.490  0.00  0.00    +0.000 OA
ATOM     25  H   UNL     1      30.739  29.140  48.617  0.00  0.00    +0.000 HD
ENDBRANCH  21  24
ENDBRANCH   2  18
TORSDOF 4
