
 OpenBabel03262523433D

 28 30  0  0  1  0  0  0  0  0999 V2000
   36.3650   32.0220   50.5820 Cl  0  0  0  0  0  0  0  0  0  0  0  0
   37.3850   32.1450   49.1670 C   0  0  0  0  0  0  0  0  0  0  0  0
   37.2150   31.2830   48.0980 C   0  0  0  0  0  0  0  0  0  0  0  0
   38.0530   31.4330   47.0140 C   0  0  0  0  0  0  0  0  0  0  0  0
   39.0310   32.4100   46.9870 C   0  0  0  0  0  0  0  0  0  0  0  0
   39.1690   33.2580   48.0820 C   0  0  0  0  0  0  0  0  0  0  0  0
   40.4270   34.4650   47.9710 Cl  0  0  0  0  0  0  0  0  0  0  0  0
   38.3500   33.1320   49.1770 C   0  0  0  0  0  0  0  0  0  0  0  0
   37.9140   30.7570   46.1850 H   0  0  0  0  0  0  0  0  0  0  0  0
   38.5000   33.8100   49.9930 H   0  0  0  0  0  0  0  0  0  0  0  0
   35.2120   28.2780   49.2540 C   0  0  0  0  0  0  0  0  0  0  0  0
   36.2340   29.2370   49.1520 C   0  0  0  0  0  0  0  0  0  0  0  0
   36.1510   30.2740   48.2100 C   0  0  0  0  0  0  0  0  0  0  0  0
   35.0510   30.3040   47.4120 N   0  0  0  0  0  0  0  0  0  0  0  0
   34.0880   29.3690   47.5340 C   0  0  0  0  0  0  0  0  0  0  0  0
   34.1590   28.3850   48.4230 N   0  0  0  0  0  0  0  0  0  0  0  0
   35.4460   27.5610   50.0290 H   0  0  0  0  0  0  0  0  0  0  0  0
   37.1350   29.2630   49.7650 H   0  0  0  0  0  0  0  0  0  0  0  0
   33.2050   29.3810   46.9020 H   0  0  0  0  0  0  0  0  0  0  0  0
   40.2500   31.1330   45.3430 C   0  0  1  0  0  0  0  0  0  0  0  0
   39.9190   32.5390   45.7890 C   0  0  1  0  0  0  0  0  0  0  0  0
   39.2920   33.1880   44.7430 O   0  0  0  0  0  0  0  0  0  0  0  0
   39.3660   32.4100   43.6080 C   0  0  0  0  0  0  0  0  0  0  0  0
   40.4320   31.3710   43.8400 C   0  0  2  0  0  0  0  0  0  0  0  0
   41.4240   30.6580   45.9180 O   0  0  0  0  0  0  0  0  0  0  0  0
   41.1870   29.8510   46.4300 H   0  0  0  0  0  0  0  0  0  0  0  0
   40.1930   30.2010   43.1240 O   0  0  0  0  0  0  0  0  0  0  0  0
   40.9780   29.6140   43.2650 H   0  0  0  0  0  0  0  0  0  0  0  0
  2  8  1  0  0  0  0
  2  1  1  0  0  0  0
  3 13  1  0  0  0  0
  3  2  2  0  0  0  0
  4  3  1  0  0  0  0
  5  4  2  0  0  0  0
  5  6  1  0  0  0  0
  6  8  2  0  0  0  0
  7  6  1  0  0  0  0
  8 10  1  0  0  0  0
  9  4  1  0  0  0  0
 11 17  1  0  0  0  0
 12 11  1  0  0  0  0
 12 18  1  0  0  0  0
 13 12  2  0  0  0  0
 14 15  2  0  0  0  0
 14 13  1  0  0  0  0
 15 16  1  0  0  0  0
 16 11  2  0  0  0  0
 19 15  1  0  0  0  0
 20 21  1  0  0  0  0
 20 25  1  1  0  0  0
 21  5  1  1  0  0  0
 22 21  1  0  0  0  0
 23 24  1  0  0  0  0
 23 22  1  0  0  0  0
 24 27  1  6  0  0  0
 24 20  1  0  0  0  0
 25 26  1  0  0  0  0
 27 28  1  0  0  0  0
M  END
>  <minimizedAffinity>
-7.10139847

>  <minimizedRMSD>
2.45323038

$$$$
