
 OpenBabel03262520523D

 48 52  0  0  1  0  0  0  0  0999 V2000
   42.5420   25.1600   33.4980 C   0  0  0  0  0  0  0  0  0  0  0  0
   43.2200   25.8680   32.9900 H   0  0  0  0  0  0  0  0  0  0  0  0
   42.4070   24.2410   32.8950 H   0  0  0  0  0  0  0  0  0  0  0  0
   40.2630   25.6490   32.6640 C   0  0  0  0  0  0  0  0  0  0  0  0
   41.1790   25.7440   33.7100 C   0  0  0  0  0  0  0  0  0  0  0  0
   40.8040   26.3690   34.8950 C   0  0  0  0  0  0  0  0  0  0  0  0
   39.5360   26.8980   35.0550 C   0  0  0  0  0  0  0  0  0  0  0  0
   38.9590   27.5330   36.0910 N   0  0  0  0  0  0  0  0  0  0  0  0
   37.7100   27.8310   35.7060 C   0  0  0  0  0  0  0  0  0  0  0  0
   37.4490   27.3960   34.4130 C   0  0  0  0  0  0  0  0  0  0  0  0
   38.6340   26.8010   34.0190 C   0  0  0  0  0  0  0  0  0  0  0  0
   38.9920   26.1900   32.8480 C   0  0  0  0  0  0  0  0  0  0  0  0
   40.4450   25.1870   31.7060 H   0  0  0  0  0  0  0  0  0  0  0  0
   41.5610   26.4090   35.6710 H   0  0  0  0  0  0  0  0  0  0  0  0
   39.3920   27.7450   36.9940 H   0  0  0  0  0  0  0  0  0  0  0  0
   37.0040   28.3520   36.3500 H   0  0  0  0  0  0  0  0  0  0  0  0
   36.5170   27.5280   33.9090 H   0  0  0  0  0  0  0  0  0  0  0  0
   36.7160   25.4560   32.1060 C   0  0  1  0  0  3  0  0  0  0  0  0
   38.0090   26.0890   31.7160 C   0  0  1  0  0  3  0  0  0  0  0  0
   37.7800   27.3520   31.2410 O   0  0  0  0  0  0  0  0  0  0  0  0
   36.5230   27.3590   30.6450 C   0  0  0  0  0  2  0  0  0  0  0  0
   35.7100   26.2840   31.3050 C   0  0  1  0  0  3  0  0  0  0  0  0
   36.6170   24.1100   31.7400 O   0  0  0  0  0  0  0  0  0  0  0  0
   35.9650   23.6430   32.3210 H   0  0  0  0  0  0  0  0  0  0  0  0
   35.1780   25.4780   30.2740 O   0  0  0  0  0  0  0  0  0  0  0  0
   34.9050   24.5950   30.6400 H   0  0  0  0  0  0  0  0  0  0  0  0
   43.0780   24.7400   34.8560 C   0  0  0  0  0  0  0  0  0  0  0  0
   42.6240   25.4280   35.5960 H   0  0  0  0  0  0  0  0  0  0  0  0
   44.1920   24.8590   34.7640 H   0  0  0  0  0  0  0  0  0  0  0  0
   42.3040   23.1420   36.6480 C   0  0  1  0  0  0  0  0  0  0  0  0
   43.5850   22.5260   36.1300 C   0  0  0  0  0  0  0  0  0  0  0  0
   42.7310   23.3500   35.2530 C   0  0  2  0  0  0  0  0  0  0  0  0
   42.4610   23.9040   37.4330 H   0  0  0  0  0  0  0  0  0  0  0  0
   44.5550   22.9930   36.4090 H   0  0  0  0  0  0  0  0  0  0  0  0
   43.6550   21.4300   35.9820 H   0  0  0  0  0  0  0  0  0  0  0  0
   42.1530   22.7410   34.5010 H   0  0  0  0  0  0  0  0  0  0  0  0
   41.2140   22.1560   36.9810 C   0  0  0  0  0  0  0  0  0  0  0  0
   41.4430   21.7440   37.9880 H   0  0  0  0  0  0  0  0  0  0  0  0
   41.2040   21.2870   36.2820 H   0  0  0  0  0  0  0  0  0  0  0  0
   37.9850   23.7210   35.9400 C   0  0  0  0  0  0  0  0  0  0  0  0
   39.2660   23.0890   35.8910 C   0  0  0  0  0  0  0  0  0  0  0  0
   39.8960   22.8070   37.0650 C   0  0  0  0  0  0  0  0  0  0  0  0
   39.2810   23.1370   38.2100 N   0  0  0  0  0  0  0  0  0  0  0  0
   38.0840   23.7280   38.2600 C   0  0  0  0  0  0  0  0  0  0  0  0
   37.4520   24.0120   37.1200 N   0  0  0  0  0  0  0  0  0  0  0  0
   37.4970   23.9400   35.0090 H   0  0  0  0  0  0  0  0  0  0  0  0
   39.6710   22.8660   34.9130 H   0  0  0  0  0  0  0  0  0  0  0  0
   37.6070   23.9860   39.2030 H   0  0  0  0  0  0  0  0  0  0  0  0
  1  5  1  0  0  0  0
  1 27  1  0  0  0  0
  2  1  1  0  0  0  0
  3  1  1  0  0  0  0
  4 12  2  0  0  0  0
  4  5  1  0  0  0  0
  5  6  2  0  0  0  0
  6  7  1  0  0  0  0
  6 14  1  0  0  0  0
  7  8  1  0  0  0  0
  8 15  1  0  0  0  0
  9  8  1  0  0  0  0
  9 16  1  0  0  0  0
 10  9  2  0  0  0  0
 11 10  1  0  0  0  0
 11  7  2  0  0  0  0
 12 11  1  0  0  0  0
 13  4  1  0  0  0  0
 17 10  1  0  0  0  0
 18 23  1  6  0  0  0
 19 18  1  0  0  0  0
 19 12  1  1  0  0  0
 20 19  1  0  0  0  0
 21 20  1  0  0  0  0
 21 22  1  0  0  0  0
 22 25  1  6  0  0  0
 22 18  1  0  0  0  0
 23 24  1  0  0  0  0
 25 26  1  0  0  0  0
 27 32  1  0  0  0  0
 27 28  1  0  0  0  0
 29 27  1  0  0  0  0
 30 37  1  0  0  0  0
 30 33  1  1  0  0  0
 31 34  1  0  0  0  0
 31 30  1  0  0  0  0
 32 36  1  6  0  0  0
 32 31  1  0  0  0  0
 32 30  1  0  0  0  0
 35 31  1  0  0  0  0
 37 42  1  0  0  0  0
 37 38  1  0  0  0  0
 39 37  1  0  0  0  0
 40 45  1  0  0  0  0
 41 40  2  0  0  0  0
 41 42  1  0  0  0  0
 42 43  2  0  0  0  0
 43 44  1  0  0  0  0
 44 48  1  0  0  0  0
 45 44  2  0  0  0  0
 46 40  1  0  0  0  0
 47 41  1  0  0  0  0
M  END
>  <minimizedAffinity>
-6.41188908

$$$$

 OpenBabel03262520523D

 48 52  0  0  1  0  0  0  0  0999 V2000
   39.9110   26.9860   33.9440 C   0  0  0  0  0  0  0  0  0  0  0  0
   39.8330   26.8430   32.8520 H   0  0  0  0  0  0  0  0  0  0  0  0
   40.5830   27.8310   34.1860 H   0  0  0  0  0  0  0  0  0  0  0  0
   39.5850   24.9590   35.3280 C   0  0  0  0  0  0  0  0  0  0  0  0
   40.4700   25.7770   34.6280 C   0  0  0  0  0  0  0  0  0  0  0  0
   41.8220   25.4480   34.5890 C   0  0  0  0  0  0  0  0  0  0  0  0
   42.3030   24.3220   35.2340 C   0  0  0  0  0  0  0  0  0  0  0  0
   43.5440   23.8120   35.3320 N   0  0  0  0  0  0  0  0  0  0  0  0
   43.4420   22.7020   36.0750 C   0  0  0  0  0  0  0  0  0  0  0  0
   42.1330   22.4660   36.4760 C   0  0  0  0  0  0  0  0  0  0  0  0
   41.4230   23.5170   35.9240 C   0  0  0  0  0  0  0  0  0  0  0  0
   40.0920   23.8310   35.9700 C   0  0  0  0  0  0  0  0  0  0  0  0
   38.5210   25.1170   35.4220 H   0  0  0  0  0  0  0  0  0  0  0  0
   42.4590   26.1220   34.0280 H   0  0  0  0  0  0  0  0  0  0  0  0
   44.3970   24.2000   34.9170 H   0  0  0  0  0  0  0  0  0  0  0  0
   44.2990   22.0770   36.3210 H   0  0  0  0  0  0  0  0  0  0  0  0
   41.8260   21.6360   37.0730 H   0  0  0  0  0  0  0  0  0  0  0  0
   38.5610   23.6090   37.9380 C   0  0  1  0  0  3  0  0  0  0  0  0
   39.1340   22.9550   36.7270 C   0  0  1  0  0  3  0  0  0  0  0  0
   38.1250   22.5970   35.8730 O   0  0  0  0  0  0  0  0  0  0  0  0
   37.0020   22.3110   36.6430 C   0  0  0  0  0  2  0  0  0  0  0  0
   37.1190   23.0990   37.9150 C   0  0  1  0  0  3  0  0  0  0  0  0
   39.1810   23.2230   39.1310 O   0  0  0  0  0  0  0  0  0  0  0  0
   39.0580   23.9210   39.8220 H   0  0  0  0  0  0  0  0  0  0  0  0
   36.9450   22.1880   38.9810 O   0  0  0  0  0  0  0  0  0  0  0  0
   37.3160   22.5710   39.8200 H   0  0  0  0  0  0  0  0  0  0  0  0
   38.5600   27.2850   34.5720 C   0  0  0  0  0  0  0  0  0  0  0  0
   38.6510   28.2820   35.0450 H   0  0  0  0  0  0  0  0  0  0  0  0
   38.4070   26.4540   35.3140 H   0  0  0  0  0  0  0  0  0  0  0  0
   37.5320   26.4830   32.4110 C   0  0  1  0  0  0  0  0  0  0  0  0
   37.5290   27.9910   32.2870 C   0  0  0  0  0  0  0  0  0  0  0  0
   37.4300   27.3390   33.6070 C   0  0  2  0  0  0  0  0  0  0  0  0
   38.4840   26.0120   32.1020 H   0  0  0  0  0  0  0  0  0  0  0  0
   38.4910   28.5150   32.0960 H   0  0  0  0  0  0  0  0  0  0  0  0
   36.6540   28.5110   31.8480 H   0  0  0  0  0  0  0  0  0  0  0  0
   36.3940   27.3890   34.0480 H   0  0  0  0  0  0  0  0  0  0  0  0
   36.3150   25.7960   31.8500 C   0  0  0  0  0  0  0  0  0  0  0  0
   36.1990   26.1420   30.8000 H   0  0  0  0  0  0  0  0  0  0  0  0
   35.3800   26.0940   32.3820 H   0  0  0  0  0  0  0  0  0  0  0  0
   37.8230   22.4090   32.3120 C   0  0  0  0  0  0  0  0  0  0  0  0
   37.6310   23.8260   32.3360 C   0  0  0  0  0  0  0  0  0  0  0  0
   36.4820   24.3340   31.8110 C   0  0  0  0  0  0  0  0  0  0  0  0
   35.5860   23.4780   31.2980 N   0  0  0  0  0  0  0  0  0  0  0  0
   35.7620   22.1530   31.2740 C   0  0  0  0  0  0  0  0  0  0  0  0
   36.8820   21.6380   31.7830 N   0  0  0  0  0  0  0  0  0  0  0  0
   38.7320   22.0190   32.7270 H   0  0  0  0  0  0  0  0  0  0  0  0
   38.4190   24.4250   32.7740 H   0  0  0  0  0  0  0  0  0  0  0  0
   35.0180   21.4810   30.8510 H   0  0  0  0  0  0  0  0  0  0  0  0
  1  3  1  0  0  0  0
  1 27  1  0  0  0  0
  1  5  1  0  0  0  0
  2  1  1  0  0  0  0
  4 13  1  0  0  0  0
  4 12  1  0  0  0  0
  5  4  2  0  0  0  0
  6  5  1  0  0  0  0
  6  7  2  0  0  0  0
  7  8  1  0  0  0  0
  7 11  1  0  0  0  0
  8  9  1  0  0  0  0
  9 16  1  0  0  0  0
  9 10  2  0  0  0  0
 10 17  1  0  0  0  0
 11 12  2  0  0  0  0
 11 10  1  0  0  0  0
 14  6  1  0  0  0  0
 15  8  1  0  0  0  0
 18 23  1  1  0  0  0
 19 12  1  6  0  0  0
 19 18  1  0  0  0  0
 20 21  1  0  0  0  0
 20 19  1  0  0  0  0
 21 22  1  0  0  0  0
 22 18  1  0  0  0  0
 22 25  1  1  0  0  0
 23 24  1  0  0  0  0
 25 26  1  0  0  0  0
 27 28  1  0  0  0  0
 27 29  1  0  0  0  0
 30 33  1  6  0  0  0
 30 32  1  0  0  0  0
 31 30  1  0  0  0  0
 31 32  1  0  0  0  0
 32 36  1  1  0  0  0
 32 27  1  0  0  0  0
 34 31  1  0  0  0  0
 35 31  1  0  0  0  0
 37 39  1  0  0  0  0
 37 30  1  0  0  0  0
 38 37  1  0  0  0  0
 40 41  1  0  0  0  0
 40 46  1  0  0  0  0
 41 47  1  0  0  0  0
 42 37  1  0  0  0  0
 42 41  2  0  0  0  0
 43 42  1  0  0  0  0
 44 43  2  0  0  0  0
 44 45  1  0  0  0  0
 45 40  2  0  0  0  0
 48 44  1  0  0  0  0
M  END
>  <minimizedAffinity>
-6.03341579

$$$$

 OpenBabel03262520523D

 48 52  0  0  1  0  0  0  0  0999 V2000
   37.5600   26.2040   35.0970 C   0  0  0  0  0  0  0  0  0  0  0  0
   37.1830   25.8430   36.0710 H   0  0  0  0  0  0  0  0  0  0  0  0
   37.1080   25.6330   34.2630 H   0  0  0  0  0  0  0  0  0  0  0  0
   39.6180   24.8900   35.5020 C   0  0  0  0  0  0  0  0  0  0  0  0
   39.0440   26.0470   34.9780 C   0  0  0  0  0  0  0  0  0  0  0  0
   39.8560   27.0010   34.3720 C   0  0  0  0  0  0  0  0  0  0  0  0
   41.2250   26.8210   34.2800 C   0  0  0  0  0  0  0  0  0  0  0  0
   42.1910   27.5910   33.7480 N   0  0  0  0  0  0  0  0  0  0  0  0
   43.3440   26.9350   33.9330 C   0  0  0  0  0  0  0  0  0  0  0  0
   43.1530   25.7260   34.5890 C   0  0  0  0  0  0  0  0  0  0  0  0
   41.7870   25.6760   34.7990 C   0  0  0  0  0  0  0  0  0  0  0  0
   40.9990   24.7310   35.3980 C   0  0  0  0  0  0  0  0  0  0  0  0
   39.0860   24.0870   35.9890 H   0  0  0  0  0  0  0  0  0  0  0  0
   39.3500   27.8770   33.9830 H   0  0  0  0  0  0  0  0  0  0  0  0
   42.0650   28.5000   33.2920 H   0  0  0  0  0  0  0  0  0  0  0  0
   44.3050   27.3260   33.5990 H   0  0  0  0  0  0  0  0  0  0  0  0
   43.9360   25.0430   34.8360 H   0  0  0  0  0  0  0  0  0  0  0  0
   40.6350   22.6090   36.6740 C   0  0  1  0  0  3  0  0  0  0  0  0
   41.6130   23.4840   35.9680 C   0  0  1  0  0  3  0  0  0  0  0  0
   42.1950   22.7920   34.9400 O   0  0  0  0  0  0  0  0  0  0  0  0
   42.2410   21.4510   35.3060 C   0  0  0  0  0  2  0  0  0  0  0  0
   41.1210   21.2140   36.2760 C   0  0  1  0  0  3  0  0  0  0  0  0
   40.6650   22.7410   38.0660 O   0  0  0  0  0  0  0  0  0  0  0  0
   39.7970   22.4670   38.4560 H   0  0  0  0  0  0  0  0  0  0  0  0
   41.6850   20.5900   37.4120 O   0  0  0  0  0  0  0  0  0  0  0  0
   41.0790   20.6940   38.1930 H   0  0  0  0  0  0  0  0  0  0  0  0
   37.2330   27.6710   34.8750 C   0  0  0  0  0  0  0  0  0  0  0  0
   38.1930   28.1700   34.6340 H   0  0  0  0  0  0  0  0  0  0  0  0
   36.7910   28.0090   35.8520 H   0  0  0  0  0  0  0  0  0  0  0  0
   36.8830   28.3020   32.4580 C   0  0  1  0  0  0  0  0  0  0  0  0
   36.0220   29.2810   33.2250 C   0  0  0  0  0  0  0  0  0  0  0  0
   36.2910   27.9310   33.7560 C   0  0  2  0  0  0  0  0  0  0  0  0
   37.9380   28.6170   32.3590 H   0  0  0  0  0  0  0  0  0  0  0  0
   36.5180   30.1070   33.7810 H   0  0  0  0  0  0  0  0  0  0  0  0
   35.0150   29.5500   32.8500 H   0  0  0  0  0  0  0  0  0  0  0  0
   35.4030   27.2400   33.6740 H   0  0  0  0  0  0  0  0  0  0  0  0
   36.2840   27.8040   31.1680 C   0  0  0  0  0  0  0  0  0  0  0  0
   36.9170   28.1950   30.3410 H   0  0  0  0  0  0  0  0  0  0  0  0
   35.2590   28.2110   30.9950 H   0  0  0  0  0  0  0  0  0  0  0  0
   37.5950   24.3170   30.8880 C   0  0  0  0  0  0  0  0  0  0  0  0
   37.5340   25.7440   30.9730 C   0  0  0  0  0  0  0  0  0  0  0  0
   36.3130   26.3350   31.0820 C   0  0  0  0  0  0  0  0  0  0  0  0
   35.2270   25.5490   31.1060 N   0  0  0  0  0  0  0  0  0  0  0  0
   35.2800   24.2160   31.0270 C   0  0  0  0  0  0  0  0  0  0  0  0
   36.4680   23.6190   30.9180 N   0  0  0  0  0  0  0  0  0  0  0  0
   38.5630   23.8610   30.8000 H   0  0  0  0  0  0  0  0  0  0  0  0
   38.4730   26.2810   30.9440 H   0  0  0  0  0  0  0  0  0  0  0  0
   34.3820   23.6020   31.0480 H   0  0  0  0  0  0  0  0  0  0  0  0
  1  2  1  0  0  0  0
  3  1  1  0  0  0  0
  4 13  1  0  0  0  0
  5  1  1  0  0  0  0
  5  4  2  0  0  0  0
  6  5  1  0  0  0  0
  7  6  2  0  0  0  0
  7 11  1  0  0  0  0
  8  9  1  0  0  0  0
  8  7  1  0  0  0  0
  9 10  2  0  0  0  0
 10 11  1  0  0  0  0
 10 17  1  0  0  0  0
 11 12  2  0  0  0  0
 12  4  1  0  0  0  0
 14  6  1  0  0  0  0
 15  8  1  0  0  0  0
 16  9  1  0  0  0  0
 18 23  1  1  0  0  0
 19 12  1  6  0  0  0
 19 18  1  0  0  0  0
 20 21  1  0  0  0  0
 20 19  1  0  0  0  0
 21 22  1  0  0  0  0
 22 18  1  0  0  0  0
 22 25  1  1  0  0  0
 23 24  1  0  0  0  0
 25 26  1  0  0  0  0
 27  1  1  0  0  0  0
 27 29  1  0  0  0  0
 28 27  1  0  0  0  0
 30 33  1  6  0  0  0
 30 31  1  0  0  0  0
 30 32  1  0  0  0  0
 31 32  1  0  0  0  0
 31 34  1  0  0  0  0
 32 36  1  6  0  0  0
 32 27  1  0  0  0  0
 35 31  1  0  0  0  0
 37 30  1  0  0  0  0
 38 37  1  0  0  0  0
 39 37  1  0  0  0  0
 40 45  2  0  0  0  0
 40 41  1  0  0  0  0
 41 42  2  0  0  0  0
 42 43  1  0  0  0  0
 42 37  1  0  0  0  0
 44 48  1  0  0  0  0
 44 43  2  0  0  0  0
 45 44  1  0  0  0  0
 46 40  1  0  0  0  0
 47 41  1  0  0  0  0
M  END
>  <minimizedAffinity>
-5.9354105

$$$$

 OpenBabel03262520523D

 48 52  0  0  1  0  0  0  0  0999 V2000
   36.7990   21.8390   31.2150 C   0  0  0  0  0  0  0  0  0  0  0  0
   36.4970   20.7940   31.4090 H   0  0  0  0  0  0  0  0  0  0  0  0
   37.2000   21.9500   30.1890 H   0  0  0  0  0  0  0  0  0  0  0  0
   37.6260   22.1950   33.5200 C   0  0  0  0  0  0  0  0  0  0  0  0
   37.8740   22.2950   32.1520 C   0  0  0  0  0  0  0  0  0  0  0  0
   39.0900   22.8080   31.7120 C   0  0  0  0  0  0  0  0  0  0  0  0
   40.0600   23.2200   32.6090 C   0  0  0  0  0  0  0  0  0  0  0  0
   41.2870   23.7370   32.4190 N   0  0  0  0  0  0  0  0  0  0  0  0
   41.7990   23.9560   33.6380 C   0  0  0  0  0  0  0  0  0  0  0  0
   40.9160   23.5880   34.6450 C   0  0  0  0  0  0  0  0  0  0  0  0
   39.8100   23.1190   33.9590 C   0  0  0  0  0  0  0  0  0  0  0  0
   38.6170   22.6170   34.4050 C   0  0  0  0  0  0  0  0  0  0  0  0
   36.7230   21.8130   33.9720 H   0  0  0  0  0  0  0  0  0  0  0  0
   39.2220   22.8590   30.6370 H   0  0  0  0  0  0  0  0  0  0  0  0
   41.7380   23.9230   31.5190 H   0  0  0  0  0  0  0  0  0  0  0  0
   42.7920   24.3750   33.7930 H   0  0  0  0  0  0  0  0  0  0  0  0
   41.1220   23.6750   35.6890 H   0  0  0  0  0  0  0  0  0  0  0  0
   39.5550   22.7180   36.7240 C   0  0  1  0  0  3  0  0  0  0  0  0
   38.3440   22.5100   35.8780 C   0  0  1  0  0  3  0  0  0  0  0  0
   37.3910   23.4400   36.1990 O   0  0  0  0  0  0  0  0  0  0  0  0
   37.5440   23.7540   37.5460 C   0  0  0  0  0  2  0  0  0  0  0  0
   38.9800   23.5040   37.9030 C   0  0  1  0  0  3  0  0  0  0  0  0
   40.1290   21.5280   37.1830 O   0  0  0  0  0  0  0  0  0  0  0  0
   41.0870   21.6670   37.3920 H   0  0  0  0  0  0  0  0  0  0  0  0
   38.9820   22.6730   39.0460 O   0  0  0  0  0  0  0  0  0  0  0  0
   39.8650   22.2250   39.1390 H   0  0  0  0  0  0  0  0  0  0  0  0
   35.6300   22.7990   31.3530 C   0  0  0  0  0  0  0  0  0  0  0  0
   35.4200   22.8790   32.4390 H   0  0  0  0  0  0  0  0  0  0  0  0
   34.7980   22.3100   30.7760 H   0  0  0  0  0  0  0  0  0  0  0  0
   36.1990   25.2090   31.8340 C   0  0  1  0  0  0  0  0  0  0  0  0
   34.9410   25.2850   30.9990 C   0  0  0  0  0  0  0  0  0  0  0  0
   35.8910   24.1680   30.8380 C   0  0  2  0  0  0  0  0  0  0  0  0
   36.0110   25.0660   32.9140 H   0  0  0  0  0  0  0  0  0  0  0  0
   33.9700   25.0080   31.4660 H   0  0  0  0  0  0  0  0  0  0  0  0
   34.8410   26.0590   30.2120 H   0  0  0  0  0  0  0  0  0  0  0  0
   36.5030   24.2420   29.8930 H   0  0  0  0  0  0  0  0  0  0  0  0
   37.2220   26.2770   31.5420 C   0  0  0  0  0  0  0  0  0  0  0  0
   36.6650   27.2220   31.3610 H   0  0  0  0  0  0  0  0  0  0  0  0
   37.7950   26.0670   30.6080 H   0  0  0  0  0  0  0  0  0  0  0  0
   38.4590   26.4450   35.0640 C   0  0  0  0  0  0  0  0  0  0  0  0
   37.6170   26.2290   33.9280 C   0  0  0  0  0  0  0  0  0  0  0  0
   38.1130   26.5090   32.6910 C   0  0  0  0  0  0  0  0  0  0  0  0
   39.3680   26.9720   32.6010 N   0  0  0  0  0  0  0  0  0  0  0  0
   40.1570   27.1750   33.6600 C   0  0  0  0  0  0  0  0  0  0  0  0
   39.6880   26.9070   34.8790 N   0  0  0  0  0  0  0  0  0  0  0  0
   38.0580   26.2230   36.0340 H   0  0  0  0  0  0  0  0  0  0  0  0
   36.6200   25.8520   34.1150 H   0  0  0  0  0  0  0  0  0  0  0  0
   41.1720   27.5530   33.5580 H   0  0  0  0  0  0  0  0  0  0  0  0
  1 27  1  0  0  0  0
  1  2  1  0  0  0  0
  1  5  1  0  0  0  0
  3  1  1  0  0  0  0
  4 13  1  0  0  0  0
  4 12  1  0  0  0  0
  5  4  2  0  0  0  0
  6  5  1  0  0  0  0
  6  7  2  0  0  0  0
  7 11  1  0  0  0  0
  8  7  1  0  0  0  0
  8  9  1  0  0  0  0
  9 16  1  0  0  0  0
  9 10  2  0  0  0  0
 10 17  1  0  0  0  0
 11 12  2  0  0  0  0
 11 10  1  0  0  0  0
 14  6  1  0  0  0  0
 15  8  1  0  0  0  0
 18 23  1  1  0  0  0
 18 22  1  0  0  0  0
 19 12  1  6  0  0  0
 19 20  1  0  0  0  0
 19 18  1  0  0  0  0
 20 21  1  0  0  0  0
 21 22  1  0  0  0  0
 22 25  1  1  0  0  0
 23 24  1  0  0  0  0
 25 26  1  0  0  0  0
 27 28  1  0  0  0  0
 29 27  1  0  0  0  0
 30 33  1  1  0  0  0
 31 34  1  0  0  0  0
 31 30  1  0  0  0  0
 32 36  1  6  0  0  0
 32 31  1  0  0  0  0
 32 27  1  0  0  0  0
 32 30  1  0  0  0  0
 35 31  1  0  0  0  0
 37 30  1  0  0  0  0
 37 42  1  0  0  0  0
 38 37  1  0  0  0  0
 39 37  1  0  0  0  0
 40 46  1  0  0  0  0
 41 47  1  0  0  0  0
 41 40  2  0  0  0  0
 42 41  1  0  0  0  0
 43 42  2  0  0  0  0
 43 44  1  0  0  0  0
 44 45  2  0  0  0  0
 45 40  1  0  0  0  0
 48 44  1  0  0  0  0
M  END
>  <minimizedAffinity>
-5.89282179

$$$$

 OpenBabel03262520523D

 48 52  0  0  1  0  0  0  0  0999 V2000
   37.7270   24.8100   36.5330 C   0  0  0  0  0  0  0  0  0  0  0  0
   37.3280   24.8250   37.5630 H   0  0  0  0  0  0  0  0  0  0  0  0
   37.0200   24.3140   35.8420 H   0  0  0  0  0  0  0  0  0  0  0  0
   39.9440   24.4700   35.4850 C   0  0  0  0  0  0  0  0  0  0  0  0
   39.0200   24.0600   36.4450 C   0  0  0  0  0  0  0  0  0  0  0  0
   39.3250   22.9850   37.2740 C   0  0  0  0  0  0  0  0  0  0  0  0
   40.5310   22.3160   37.1630 C   0  0  0  0  0  0  0  0  0  0  0  0
   41.0360   21.2700   37.8420 N   0  0  0  0  0  0  0  0  0  0  0  0
   42.2470   21.0290   37.3230 C   0  0  0  0  0  0  0  0  0  0  0  0
   42.5550   21.9110   36.2950 C   0  0  0  0  0  0  0  0  0  0  0  0
   41.4400   22.7250   36.2130 C   0  0  0  0  0  0  0  0  0  0  0  0
   41.1510   23.7810   35.3910 C   0  0  0  0  0  0  0  0  0  0  0  0
   39.8130   25.2890   34.7940 H   0  0  0  0  0  0  0  0  0  0  0  0
   38.5670   22.7150   38.0000 H   0  0  0  0  0  0  0  0  0  0  0  0
   40.5800   20.7620   38.6060 H   0  0  0  0  0  0  0  0  0  0  0  0
   42.8930   20.2290   37.6820 H   0  0  0  0  0  0  0  0  0  0  0  0
   43.4690   21.8990   35.7440 H   0  0  0  0  0  0  0  0  0  0  0  0
   41.5270   25.0040   33.2400 C   0  0  1  0  0  3  0  0  0  0  0  0
   42.1420   24.2240   34.3520 C   0  0  1  0  0  3  0  0  0  0  0  0
   43.0970   24.9820   34.9760 O   0  0  0  0  0  0  0  0  0  0  0  0
   43.6440   25.8380   34.0250 C   0  0  0  0  0  2  0  0  0  0  0  0
   42.6000   26.0600   32.9700 C   0  0  1  0  0  3  0  0  0  0  0  0
   41.3040   24.2500   32.0830 O   0  0  0  0  0  0  0  0  0  0  0  0
   40.5840   24.6590   31.5410 H   0  0  0  0  0  0  0  0  0  0  0  0
   43.2070   25.7820   31.7250 O   0  0  0  0  0  0  0  0  0  0  0  0
   42.5090   25.6050   31.0390 H   0  0  0  0  0  0  0  0  0  0  0  0
   37.9720   26.2130   36.0040 C   0  0  0  0  0  0  0  0  0  0  0  0
   38.9960   26.2110   35.5800 H   0  0  0  0  0  0  0  0  0  0  0  0
   37.8680   26.8740   36.9070 H   0  0  0  0  0  0  0  0  0  0  0  0
   37.6350   27.1030   33.6670 C   0  0  1  0  0  0  0  0  0  0  0  0
   36.8450   28.0510   34.5420 C   0  0  0  0  0  0  0  0  0  0  0  0
   37.0360   26.6400   34.9320 C   0  0  2  0  0  0  0  0  0  0  0  0
   38.7070   27.3620   33.5820 H   0  0  0  0  0  0  0  0  0  0  0  0
   37.3960   28.7860   35.1700 H   0  0  0  0  0  0  0  0  0  0  0  0
   35.8520   28.4160   34.2120 H   0  0  0  0  0  0  0  0  0  0  0  0
   36.1060   26.0160   34.7960 H   0  0  0  0  0  0  0  0  0  0  0  0
   36.9930   26.7740   32.3440 C   0  0  0  0  0  0  0  0  0  0  0  0
   37.6160   27.2460   31.5530 H   0  0  0  0  0  0  0  0  0  0  0  0
   35.9750   27.2210   32.2480 H   0  0  0  0  0  0  0  0  0  0  0  0
   35.8000   23.3880   31.3120 C   0  0  0  0  0  0  0  0  0  0  0  0
   35.8400   24.7930   31.5730 C   0  0  0  0  0  0  0  0  0  0  0  0
   36.9840   25.3250   32.0870 C   0  0  0  0  0  0  0  0  0  0  0  0
   38.0160   24.5020   32.3210 N   0  0  0  0  0  0  0  0  0  0  0  0
   37.9820   23.1890   32.0790 C   0  0  0  0  0  0  0  0  0  0  0  0
   36.8700   22.6500   31.5770 N   0  0  0  0  0  0  0  0  0  0  0  0
   34.8930   22.9780   30.9090 H   0  0  0  0  0  0  0  0  0  0  0  0
   34.9490   25.3640   31.3460 H   0  0  0  0  0  0  0  0  0  0  0  0
   38.8350   22.5440   32.2790 H   0  0  0  0  0  0  0  0  0  0  0  0
  1  2  1  0  0  0  0
  3  1  1  0  0  0  0
  4  5  1  0  0  0  0
  5  1  1  0  0  0  0
  5  6  2  0  0  0  0
  6 14  1  0  0  0  0
  7  6  1  0  0  0  0
  7  8  1  0  0  0  0
  8 15  1  0  0  0  0
  9 16  1  0  0  0  0
  9  8  1  0  0  0  0
 10  9  2  0  0  0  0
 11 10  1  0  0  0  0
 11  7  2  0  0  0  0
 12  4  2  0  0  0  0
 12 11  1  0  0  0  0
 13  4  1  0  0  0  0
 17 10  1  0  0  0  0
 18 23  1  6  0  0  0
 18 19  1  0  0  0  0
 19 20  1  0  0  0  0
 19 12  1  1  0  0  0
 21 20  1  0  0  0  0
 22 25  1  6  0  0  0
 22 18  1  0  0  0  0
 22 21  1  0  0  0  0
 24 23  1  0  0  0  0
 26 25  1  0  0  0  0
 27  1  1  0  0  0  0
 27 29  1  0  0  0  0
 28 27  1  0  0  0  0
 30 33  1  6  0  0  0
 30 31  1  0  0  0  0
 30 32  1  0  0  0  0
 31 32  1  0  0  0  0
 31 34  1  0  0  0  0
 32 36  1  6  0  0  0
 32 27  1  0  0  0  0
 35 31  1  0  0  0  0
 37 30  1  0  0  0  0
 38 37  1  0  0  0  0
 39 37  1  0  0  0  0
 40 41  2  0  0  0  0
 40 45  1  0  0  0  0
 41 42  1  0  0  0  0
 42 43  2  0  0  0  0
 42 37  1  0  0  0  0
 44 48  1  0  0  0  0
 44 43  1  0  0  0  0
 45 44  2  0  0  0  0
 46 40  1  0  0  0  0
 47 41  1  0  0  0  0
M  END
>  <minimizedAffinity>
-5.89052486

$$$$

 OpenBabel03262520523D

 48 52  0  0  1  0  0  0  0  0999 V2000
   36.5110   25.9300   31.4220 C   0  0  0  0  0  0  0  0  0  0  0  0
   35.6050   26.4290   31.8100 H   0  0  0  0  0  0  0  0  0  0  0  0
   36.3030   25.4280   30.4580 H   0  0  0  0  0  0  0  0  0  0  0  0
   36.6710   23.5540   32.0960 C   0  0  0  0  0  0  0  0  0  0  0  0
   37.0150   24.8780   32.3610 C   0  0  0  0  0  0  0  0  0  0  0  0
   37.8020   25.1730   33.4700 C   0  0  0  0  0  0  0  0  0  0  0  0
   38.2500   24.1730   34.3160 C   0  0  0  0  0  0  0  0  0  0  0  0
   39.0080   24.2180   35.4260 N   0  0  0  0  0  0  0  0  0  0  0  0
   39.1370   22.9530   35.8490 C   0  0  0  0  0  0  0  0  0  0  0  0
   38.4660   22.0600   35.0240 C   0  0  0  0  0  0  0  0  0  0  0  0
   37.9070   22.8660   34.0490 C   0  0  0  0  0  0  0  0  0  0  0  0
   37.1330   22.5640   32.9620 C   0  0  0  0  0  0  0  0  0  0  0  0
   36.0700   23.2120   31.2670 H   0  0  0  0  0  0  0  0  0  0  0  0
   38.0370   26.2200   33.6210 H   0  0  0  0  0  0  0  0  0  0  0  0
   39.4070   25.0560   35.8590 H   0  0  0  0  0  0  0  0  0  0  0  0
   39.7060   22.6850   36.7380 H   0  0  0  0  0  0  0  0  0  0  0  0
   38.4390   21.0030   35.1750 H   0  0  0  0  0  0  0  0  0  0  0  0
   35.3940   20.7740   33.1620 C   0  0  1  0  0  3  0  0  0  0  0  0
   36.7550   21.1380   32.6740 C   0  0  1  0  0  3  0  0  0  0  0  0
   36.8280   20.9470   31.3210 O   0  0  0  0  0  0  0  0  0  0  0  0
   35.9720   19.9000   30.9950 C   0  0  0  0  0  2  0  0  0  0  0  0
   34.8950   19.8620   32.0400 C   0  0  1  0  0  3  0  0  0  0  0  0
   35.4000   20.0750   34.3730 O   0  0  0  0  0  0  0  0  0  0  0  0
   34.5340   20.1890   34.8390 H   0  0  0  0  0  0  0  0  0  0  0  0
   34.8390   18.5360   32.5250 O   0  0  0  0  0  0  0  0  0  0  0  0
   34.3870   18.5170   33.4100 H   0  0  0  0  0  0  0  0  0  0  0  0
   37.6420   26.9170   31.1870 C   0  0  0  0  0  0  0  0  0  0  0  0
   37.8920   26.8520   30.1100 H   0  0  0  0  0  0  0  0  0  0  0  0
   38.4700   26.5560   31.8570 H   0  0  0  0  0  0  0  0  0  0  0  0
   35.9250   28.6020   31.9450 C   0  0  1  0  0  0  0  0  0  0  0  0
   36.4290   29.1530   30.6300 C   0  0  0  0  0  0  0  0  0  0  0  0
   37.3010   28.3300   31.4920 C   0  0  2  0  0  0  0  0  0  0  0  0
   35.1110   27.8610   31.8370 H   0  0  0  0  0  0  0  0  0  0  0  0
   36.1090   28.6600   29.6850 H   0  0  0  0  0  0  0  0  0  0  0  0
   36.6120   30.2400   30.5150 H   0  0  0  0  0  0  0  0  0  0  0  0
   38.0870   28.9350   32.0280 H   0  0  0  0  0  0  0  0  0  0  0  0
   35.6530   29.6370   33.0060 C   0  0  0  0  0  0  0  0  0  0  0  0
   35.7190   30.6330   32.5150 H   0  0  0  0  0  0  0  0  0  0  0  0
   36.4300   29.6320   33.8080 H   0  0  0  0  0  0  0  0  0  0  0  0
   31.9630   29.0830   33.1900 C   0  0  0  0  0  0  0  0  0  0  0  0
   33.2950   29.2120   32.6840 C   0  0  0  0  0  0  0  0  0  0  0  0
   34.2950   29.5110   33.5580 C   0  0  0  0  0  0  0  0  0  0  0  0
   33.9800   29.6690   34.8520 N   0  0  0  0  0  0  0  0  0  0  0  0
   32.7370   29.5490   35.3280 C   0  0  0  0  0  0  0  0  0  0  0  0
   31.7450   29.2580   34.4860 N   0  0  0  0  0  0  0  0  0  0  0  0
   31.1820   28.8490   32.4920 H   0  0  0  0  0  0  0  0  0  0  0  0
   33.4370   29.0640   31.6210 H   0  0  0  0  0  0  0  0  0  0  0  0
   32.5090   29.6840   36.3840 H   0  0  0  0  0  0  0  0  0  0  0  0
  1  2  1  0  0  0  0
  1  5  1  0  0  0  0
  3  1  1  0  0  0  0
  4  5  2  0  0  0  0
  4 12  1  0  0  0  0
  5  6  1  0  0  0  0
  6 14  1  0  0  0  0
  6  7  2  0  0  0  0
  7  8  1  0  0  0  0
  8  9  1  0  0  0  0
  8 15  1  0  0  0  0
  9 16  1  0  0  0  0
 10 17  1  0  0  0  0
 10  9  2  0  0  0  0
 11  7  1  0  0  0  0
 11 10  1  0  0  0  0
 12 11  2  0  0  0  0
 13  4  1  0  0  0  0
 18 23  1  1  0  0  0
 19 12  1  6  0  0  0
 19 18  1  0  0  0  0
 20 19  1  0  0  0  0
 21 20  1  0  0  0  0
 21 22  1  0  0  0  0
 22 25  1  1  0  0  0
 22 18  1  0  0  0  0
 23 24  1  0  0  0  0
 25 26  1  0  0  0  0
 27  1  1  0  0  0  0
 27 32  1  0  0  0  0
 27 29  1  0  0  0  0
 28 27  1  0  0  0  0
 30 33  1  6  0  0  0
 30 37  1  0  0  0  0
 31 32  1  0  0  0  0
 31 30  1  0  0  0  0
 32 30  1  0  0  0  0
 32 36  1  1  0  0  0
 34 31  1  0  0  0  0
 35 31  1  0  0  0  0
 37 42  1  0  0  0  0
 37 39  1  0  0  0  0
 38 37  1  0  0  0  0
 40 45  1  0  0  0  0
 41 40  2  0  0  0  0
 41 42  1  0  0  0  0
 42 43  2  0  0  0  0
 43 44  1  0  0  0  0
 44 48  1  0  0  0  0
 45 44  2  0  0  0  0
 46 40  1  0  0  0  0
 47 41  1  0  0  0  0
M  END
>  <minimizedAffinity>
-5.87431765

$$$$

 OpenBabel03262520523D

 48 52  0  0  1  0  0  0  0  0999 V2000
   38.7050   24.2100   36.2080 C   0  0  0  0  0  0  0  0  0  0  0  0
   37.9860   24.8880   36.7020 H   0  0  0  0  0  0  0  0  0  0  0  0
   39.6710   24.7200   36.0300 H   0  0  0  0  0  0  0  0  0  0  0  0
   38.1440   24.6770   33.8430 C   0  0  0  0  0  0  0  0  0  0  0  0
   38.2080   23.7430   34.8740 C   0  0  0  0  0  0  0  0  0  0  0  0
   37.8130   22.4300   34.6350 C   0  0  0  0  0  0  0  0  0  0  0  0
   37.3600   22.0350   33.3890 C   0  0  0  0  0  0  0  0  0  0  0  0
   36.9350   20.8430   32.9320 N   0  0  0  0  0  0  0  0  0  0  0  0
   36.6120   21.0240   31.6440 C   0  0  0  0  0  0  0  0  0  0  0  0
   36.8190   22.3350   31.2370 C   0  0  0  0  0  0  0  0  0  0  0  0
   37.2990   22.9620   32.3730 C   0  0  0  0  0  0  0  0  0  0  0  0
   37.6830   24.2570   32.5960 C   0  0  0  0  0  0  0  0  0  0  0  0
   38.4250   25.7170   33.9150 H   0  0  0  0  0  0  0  0  0  0  0  0
   37.8880   21.7510   35.4770 H   0  0  0  0  0  0  0  0  0  0  0  0
   36.8720   19.9720   33.4670 H   0  0  0  0  0  0  0  0  0  0  0  0
   36.2330   20.2210   31.0140 H   0  0  0  0  0  0  0  0  0  0  0  0
   36.6290   22.6980   30.2510 H   0  0  0  0  0  0  0  0  0  0  0  0
   36.3150   26.0010   31.4340 C   0  0  1  0  0  3  0  0  0  0  0  0
   37.6130   25.2690   31.4880 C   0  0  1  0  0  3  0  0  0  0  0  0
   38.6390   26.1590   31.6630 O   0  0  0  0  0  0  0  0  0  0  0  0
   38.2690   27.3550   31.0560 C   0  0  0  0  0  2  0  0  0  0  0  0
   36.7700   27.4130   31.0600 C   0  0  1  0  0  3  0  0  0  0  0  0
   35.4360   25.5140   30.4610 O   0  0  0  0  0  0  0  0  0  0  0  0
   34.5020   25.7400   30.6990 H   0  0  0  0  0  0  0  0  0  0  0  0
   36.3640   27.6830   29.7340 O   0  0  0  0  0  0  0  0  0  0  0  0
   35.4120   27.4260   29.6100 H   0  0  0  0  0  0  0  0  0  0  0  0
   38.9880   22.9770   37.0500 C   0  0  0  0  0  0  0  0  0  0  0  0
   38.6710   22.1060   36.4420 H   0  0  0  0  0  0  0  0  0  0  0  0
   38.3650   23.1230   37.9750 H   0  0  0  0  0  0  0  0  0  0  0  0
   41.3860   22.7760   36.2950 C   0  0  1  0  0  0  0  0  0  0  0  0
   41.1580   21.5410   37.1380 C   0  0  0  0  0  0  0  0  0  0  0  0
   40.4180   22.7890   37.4060 C   0  0  2  0  0  0  0  0  0  0  0  0
   41.0730   22.6610   35.2410 H   0  0  0  0  0  0  0  0  0  0  0  0
   40.5410   20.7140   36.7210 H   0  0  0  0  0  0  0  0  0  0  0  0
   41.9440   21.1900   37.8360 H   0  0  0  0  0  0  0  0  0  0  0  0
   40.7830   23.3290   38.3260 H   0  0  0  0  0  0  0  0  0  0  0  0
   42.7450   23.4090   36.4500 C   0  0  0  0  0  0  0  0  0  0  0  0
   43.4970   22.6430   36.1590 H   0  0  0  0  0  0  0  0  0  0  0  0
   42.9660   23.6770   37.5110 H   0  0  0  0  0  0  0  0  0  0  0  0
   42.0270   25.9580   33.8150 C   0  0  0  0  0  0  0  0  0  0  0  0
   41.8880   24.8480   34.7060 C   0  0  0  0  0  0  0  0  0  0  0  0
   42.9190   24.5570   35.5460 C   0  0  0  0  0  0  0  0  0  0  0  0
   44.0150   25.3280   35.4960 N   0  0  0  0  0  0  0  0  0  0  0  0
   44.1480   26.3670   34.6650 C   0  0  0  0  0  0  0  0  0  0  0  0
   43.1490   26.6660   33.8350 N   0  0  0  0  0  0  0  0  0  0  0  0
   41.2090   26.1780   33.1560 H   0  0  0  0  0  0  0  0  0  0  0  0
   40.9600   24.2920   34.6630 H   0  0  0  0  0  0  0  0  0  0  0  0
   45.0490   26.9760   34.6450 H   0  0  0  0  0  0  0  0  0  0  0  0
  1  2  1  0  0  0  0
  1 27  1  0  0  0  0
  3  1  1  0  0  0  0
  4 13  1  0  0  0  0
  4  5  1  0  0  0  0
  5  1  1  0  0  0  0
  6  5  2  0  0  0  0
  6 14  1  0  0  0  0
  7  6  1  0  0  0  0
  8  7  1  0  0  0  0
  8 15  1  0  0  0  0
  9  8  1  0  0  0  0
 10  9  2  0  0  0  0
 10 11  1  0  0  0  0
 11 12  1  0  0  0  0
 11  7  2  0  0  0  0
 12  4  2  0  0  0  0
 16  9  1  0  0  0  0
 17 10  1  0  0  0  0
 18 23  1  6  0  0  0
 18 19  1  0  0  0  0
 19 20  1  0  0  0  0
 19 12  1  1  0  0  0
 21 22  1  0  0  0  0
 21 20  1  0  0  0  0
 22 25  1  6  0  0  0
 22 18  1  0  0  0  0
 23 24  1  0  0  0  0
 26 25  1  0  0  0  0
 27 32  1  0  0  0  0
 27 29  1  0  0  0  0
 28 27  1  0  0  0  0
 30 33  1  6  0  0  0
 30 37  1  0  0  0  0
 30 31  1  0  0  0  0
 30 32  1  0  0  0  0
 31 32  1  0  0  0  0
 31 35  1  0  0  0  0
 32 36  1  1  0  0  0
 34 31  1  0  0  0  0
 37 39  1  0  0  0  0
 38 37  1  0  0  0  0
 40 45  2  0  0  0  0
 40 41  1  0  0  0  0
 41 42  2  0  0  0  0
 42 37  1  0  0  0  0
 43 42  1  0  0  0  0
 44 43  2  0  0  0  0
 45 44  1  0  0  0  0
 46 40  1  0  0  0  0
 47 41  1  0  0  0  0
 48 44  1  0  0  0  0
M  END
>  <minimizedAffinity>
-5.87159348

$$$$

 OpenBabel03262520523D

 48 52  0  0  1  0  0  0  0  0999 V2000
   37.0380   22.0700   31.2860 C   0  0  0  0  0  0  0  0  0  0  0  0
   37.6530   21.5010   32.0060 H   0  0  0  0  0  0  0  0  0  0  0  0
   37.3730   21.8840   30.2480 H   0  0  0  0  0  0  0  0  0  0  0  0
   38.3470   24.0580   31.9630 C   0  0  0  0  0  0  0  0  0  0  0  0
   37.1310   23.5470   31.5150 C   0  0  0  0  0  0  0  0  0  0  0  0
   36.0620   24.4110   31.2990 C   0  0  0  0  0  0  0  0  0  0  0  0
   36.1860   25.7710   31.5210 C   0  0  0  0  0  0  0  0  0  0  0  0
   35.3070   26.7800   31.3830 N   0  0  0  0  0  0  0  0  0  0  0  0
   35.9540   27.8990   31.7350 C   0  0  0  0  0  0  0  0  0  0  0  0
   37.2660   27.6410   32.1110 C   0  0  0  0  0  0  0  0  0  0  0  0
   37.3890   26.2710   31.9640 C   0  0  0  0  0  0  0  0  0  0  0  0
   38.4480   25.4310   32.1810 C   0  0  0  0  0  0  0  0  0  0  0  0
   39.2390   23.4830   32.1610 H   0  0  0  0  0  0  0  0  0  0  0  0
   35.1440   23.9520   30.9490 H   0  0  0  0  0  0  0  0  0  0  0  0
   34.3350   26.7040   31.0680 H   0  0  0  0  0  0  0  0  0  0  0  0
   35.4840   28.8810   31.7210 H   0  0  0  0  0  0  0  0  0  0  0  0
   37.9610   28.3880   32.4270 H   0  0  0  0  0  0  0  0  0  0  0  0
   39.8940   25.9640   34.1540 C   0  0  1  0  0  3  0  0  0  0  0  0
   39.7600   25.9780   32.6690 C   0  0  1  0  0  3  0  0  0  0  0  0
   40.7620   25.2330   32.1070 O   0  0  0  0  0  0  0  0  0  0  0  0
   41.8710   25.3180   32.9420 C   0  0  0  0  0  2  0  0  0  0  0  0
   41.3660   25.5870   34.3290 C   0  0  1  0  0  3  0  0  0  0  0  0
   39.6490   27.2050   34.7500 O   0  0  0  0  0  0  0  0  0  0  0  0
   39.3730   27.0830   35.6930 H   0  0  0  0  0  0  0  0  0  0  0  0
   42.0680   26.7140   34.8120 O   0  0  0  0  0  0  0  0  0  0  0  0
   41.5720   27.1240   35.5710 H   0  0  0  0  0  0  0  0  0  0  0  0
   35.5710   21.6840   31.3680 C   0  0  0  0  0  0  0  0  0  0  0  0
   35.4060   20.9230   30.5800 H   0  0  0  0  0  0  0  0  0  0  0  0
   35.0190   22.6450   31.1800 H   0  0  0  0  0  0  0  0  0  0  0  0
   36.2300   20.8310   33.6500 C   0  0  1  0  0  0  0  0  0  0  0  0
   35.4450   19.6910   33.0400 C   0  0  0  0  0  0  0  0  0  0  0  0
   35.1620   21.0900   32.6680 C   0  0  2  0  0  0  0  0  0  0  0  0
   37.3000   20.8350   33.3720 H   0  0  0  0  0  0  0  0  0  0  0  0
   35.9190   19.0820   32.2390 H   0  0  0  0  0  0  0  0  0  0  0  0
   34.7280   19.1150   33.6590 H   0  0  0  0  0  0  0  0  0  0  0  0
   34.2070   21.4830   33.1230 H   0  0  0  0  0  0  0  0  0  0  0  0
   35.9940   21.0510   35.1220 C   0  0  0  0  0  0  0  0  0  0  0  0
   36.0210   20.0520   35.6090 H   0  0  0  0  0  0  0  0  0  0  0  0
   34.9810   21.4720   35.3270 H   0  0  0  0  0  0  0  0  0  0  0  0
   39.3000   22.7150   35.6310 C   0  0  0  0  0  0  0  0  0  0  0  0
   38.2450   21.9340   35.0640 C   0  0  0  0  0  0  0  0  0  0  0  0
   37.0600   21.8620   35.7310 C   0  0  0  0  0  0  0  0  0  0  0  0
   36.9420   22.5300   36.8880 N   0  0  0  0  0  0  0  0  0  0  0  0
   37.9260   23.2610   37.4210 C   0  0  0  0  0  0  0  0  0  0  0  0
   39.0930   23.3420   36.7810 N   0  0  0  0  0  0  0  0  0  0  0  0
   40.2300   22.7630   35.0980 H   0  0  0  0  0  0  0  0  0  0  0  0
   38.4480   21.4350   34.1250 H   0  0  0  0  0  0  0  0  0  0  0  0
   37.8030   23.7930   38.3620 H   0  0  0  0  0  0  0  0  0  0  0  0
  1 27  1  0  0  0  0
  1  5  1  0  0  0  0
  1  2  1  0  0  0  0
  3  1  1  0  0  0  0
  4 13  1  0  0  0  0
  4 12  1  0  0  0  0
  5  4  2  0  0  0  0
  6  5  1  0  0  0  0
  6  7  2  0  0  0  0
  7 11  1  0  0  0  0
  8  7  1  0  0  0  0
  8  9  1  0  0  0  0
  9 10  2  0  0  0  0
 10 17  1  0  0  0  0
 11 10  1  0  0  0  0
 11 12  2  0  0  0  0
 14  6  1  0  0  0  0
 15  8  1  0  0  0  0
 16  9  1  0  0  0  0
 18 22  1  0  0  0  0
 18 23  1  6  0  0  0
 19 12  1  1  0  0  0
 19 18  1  0  0  0  0
 20 19  1  0  0  0  0
 20 21  1  0  0  0  0
 21 22  1  0  0  0  0
 22 25  1  6  0  0  0
 23 24  1  0  0  0  0
 25 26  1  0  0  0  0
 27 32  1  0  0  0  0
 28 27  1  0  0  0  0
 29 27  1  0  0  0  0
 30 33  1  6  0  0  0
 30 37  1  0  0  0  0
 31 30  1  0  0  0  0
 31 35  1  0  0  0  0
 32 31  1  0  0  0  0
 32 36  1  1  0  0  0
 32 30  1  0  0  0  0
 34 31  1  0  0  0  0
 37 39  1  0  0  0  0
 37 38  1  0  0  0  0
 37 42  1  0  0  0  0
 40 45  1  0  0  0  0
 41 40  2  0  0  0  0
 41 42  1  0  0  0  0
 42 43  2  0  0  0  0
 43 44  1  0  0  0  0
 44 48  1  0  0  0  0
 45 44  2  0  0  0  0
 46 40  1  0  0  0  0
 47 41  1  0  0  0  0
M  END
>  <minimizedAffinity>
-5.8375988

$$$$

 OpenBabel03262520523D

 48 52  0  0  1  0  0  0  0  0999 V2000
   38.1570   26.6800   35.5490 C   0  0  0  0  0  0  0  0  0  0  0  0
   37.4850   25.8870   35.9220 H   0  0  0  0  0  0  0  0  0  0  0  0
   38.3510   27.4350   36.3350 H   0  0  0  0  0  0  0  0  0  0  0  0
   36.5620   28.3370   34.6360 C   0  0  0  0  0  0  0  0  0  0  0  0
   37.5700   27.4090   34.3810 C   0  0  0  0  0  0  0  0  0  0  0  0
   37.9880   27.1940   33.0710 C   0  0  0  0  0  0  0  0  0  0  0  0
   37.4210   27.8870   32.0160 C   0  0  0  0  0  0  0  0  0  0  0  0
   37.6600   27.8480   30.6930 N   0  0  0  0  0  0  0  0  0  0  0  0
   36.8230   28.7290   30.1300 C   0  0  0  0  0  0  0  0  0  0  0  0
   36.0230   29.3600   31.0730 C   0  0  0  0  0  0  0  0  0  0  0  0
   36.4260   28.8030   32.2740 C   0  0  0  0  0  0  0  0  0  0  0  0
   36.0060   29.0230   33.5570 C   0  0  0  0  0  0  0  0  0  0  0  0
   36.1630   28.5840   35.6080 H   0  0  0  0  0  0  0  0  0  0  0  0
   38.7750   26.4610   32.9380 H   0  0  0  0  0  0  0  0  0  0  0  0
   38.3470   27.2580   30.2150 H   0  0  0  0  0  0  0  0  0  0  0  0
   36.7940   28.9110   29.0560 H   0  0  0  0  0  0  0  0  0  0  0  0
   35.2880   30.0990   30.8430 H   0  0  0  0  0  0  0  0  0  0  0  0
   33.5600   29.4080   33.9320 C   0  0  1  0  0  3  0  0  0  0  0  0
   34.9170   30.0200   33.8370 C   0  0  1  0  0  3  0  0  0  0  0  0
   35.2190   30.6570   35.0110 O   0  0  0  0  0  0  0  0  0  0  0  0
   34.0270   31.1150   35.5620 C   0  0  0  0  0  2  0  0  0  0  0  0
   32.9310   30.2190   35.0660 C   0  0  1  0  0  3  0  0  0  0  0  0
   32.7980   29.5500   32.7680 O   0  0  0  0  0  0  0  0  0  0  0  0
   32.1080   28.8410   32.7210 H   0  0  0  0  0  0  0  0  0  0  0  0
   31.9290   31.0540   34.5230 O   0  0  0  0  0  0  0  0  0  0  0  0
   31.3450   30.5320   33.9110 H   0  0  0  0  0  0  0  0  0  0  0  0
   39.5010   26.1200   35.1130 C   0  0  0  0  0  0  0  0  0  0  0  0
   40.2560   26.5580   35.7950 H   0  0  0  0  0  0  0  0  0  0  0  0
   39.6130   26.4630   34.0480 H   0  0  0  0  0  0  0  0  0  0  0  0
   38.3690   23.8670   35.0180 C   0  0  1  0  0  0  0  0  0  0  0  0
   39.0980   23.8610   36.3440 C   0  0  0  0  0  0  0  0  0  0  0  0
   39.6110   24.6410   35.2010 C   0  0  2  0  0  0  0  0  0  0  0  0
   37.3690   24.3380   35.0600 H   0  0  0  0  0  0  0  0  0  0  0  0
   38.6930   24.4720   37.1810 H   0  0  0  0  0  0  0  0  0  0  0  0
   39.6240   22.9470   36.6850 H   0  0  0  0  0  0  0  0  0  0  0  0
   40.5160   24.1730   34.7190 H   0  0  0  0  0  0  0  0  0  0  0  0
   38.3810   22.5540   34.2800 C   0  0  0  0  0  0  0  0  0  0  0  0
   38.0890   21.7670   35.0080 H   0  0  0  0  0  0  0  0  0  0  0  0
   39.4020   22.2830   33.9190 H   0  0  0  0  0  0  0  0  0  0  0  0
   36.3360   23.6540   31.3530 C   0  0  0  0  0  0  0  0  0  0  0  0
   37.2900   23.6460   32.4180 C   0  0  0  0  0  0  0  0  0  0  0  0
   37.3900   22.5300   33.1920 C   0  0  0  0  0  0  0  0  0  0  0  0
   36.5880   21.4920   32.9140 N   0  0  0  0  0  0  0  0  0  0  0  0
   35.6950   21.4960   31.9190 C   0  0  0  0  0  0  0  0  0  0  0  0
   35.5830   22.5800   31.1520 N   0  0  0  0  0  0  0  0  0  0  0  0
   36.2640   24.5390   30.7500 H   0  0  0  0  0  0  0  0  0  0  0  0
   37.8870   24.5380   32.5540 H   0  0  0  0  0  0  0  0  0  0  0  0
   35.0560   20.6390   31.7160 H   0  0  0  0  0  0  0  0  0  0  0  0
  1  2  1  0  0  0  0
  1  3  1  0  0  0  0
  4 13  1  0  0  0  0
  5  4  1  0  0  0  0
  5  1  1  0  0  0  0
  6  5  2  0  0  0  0
  7 11  2  0  0  0  0
  7  6  1  0  0  0  0
  8  7  1  0  0  0  0
  9  8  1  0  0  0  0
  9 10  2  0  0  0  0
 10 11  1  0  0  0  0
 11 12  1  0  0  0  0
 12  4  2  0  0  0  0
 14  6  1  0  0  0  0
 15  8  1  0  0  0  0
 16  9  1  0  0  0  0
 17 10  1  0  0  0  0
 18 23  1  6  0  0  0
 18 22  1  0  0  0  0
 19 12  1  1  0  0  0
 19 18  1  0  0  0  0
 19 20  1  0  0  0  0
 20 21  1  0  0  0  0
 22 25  1  6  0  0  0
 22 21  1  0  0  0  0
 24 23  1  0  0  0  0
 26 25  1  0  0  0  0
 27 32  1  0  0  0  0
 27  1  1  0  0  0  0
 27 28  1  0  0  0  0
 29 27  1  0  0  0  0
 30 33  1  6  0  0  0
 30 32  1  0  0  0  0
 30 31  1  0  0  0  0
 31 35  1  0  0  0  0
 31 34  1  0  0  0  0
 32 36  1  6  0  0  0
 32 31  1  0  0  0  0
 37 38  1  0  0  0  0
 37 30  1  0  0  0  0
 39 37  1  0  0  0  0
 40 41  1  0  0  0  0
 41 47  1  0  0  0  0
 41 42  2  0  0  0  0
 42 37  1  0  0  0  0
 43 42  1  0  0  0  0
 44 43  2  0  0  0  0
 45 40  2  0  0  0  0
 45 44  1  0  0  0  0
 46 40  1  0  0  0  0
 48 44  1  0  0  0  0
M  END
>  <minimizedAffinity>
-5.83319664

$$$$
