
 OpenBabel03262521343D

 25 27  0  0  1  0  0  0  0  0999 V2000
   38.1880   26.9740   34.4950 C   0  0  1  0  0  0  0  0  0  0  0  0
   38.5530   27.2380   35.8680 C   0  0  0  0  0  0  0  0  0  0  0  0
   37.7340   25.9770   35.5770 C   0  0  2  0  0  0  0  0  0  0  0  0
   38.9710   26.5970   33.8000 H   0  0  0  0  0  0  0  0  0  0  0  0
   39.5990   27.1310   36.2080 H   0  0  0  0  0  0  0  0  0  0  0  0
   37.9480   28.0450   36.3770 H   0  0  0  0  0  0  0  0  0  0  0  0
   36.6710   25.9730   35.8690 H   0  0  0  0  0  0  0  0  0  0  0  0
   35.6220   27.8580   31.9240 C   0  0  0  0  0  0  0  0  0  0  0  0
   36.7120   27.2090   32.5080 C   0  0  0  0  0  0  0  0  0  0  0  0
   37.0450   27.6010   33.8050 C   0  0  0  0  0  0  0  0  0  0  0  0
   36.2970   28.5830   34.4160 N   0  0  0  0  0  0  0  0  0  0  0  0
   35.2480   29.1750   33.7880 C   0  0  0  0  0  0  0  0  0  0  0  0
   34.9030   28.8160   32.5370 N   0  0  0  0  0  0  0  0  0  0  0  0
   35.3900   27.5210   30.9010 H   0  0  0  0  0  0  0  0  0  0  0  0
   37.2530   26.4460   31.9670 H   0  0  0  0  0  0  0  0  0  0  0  0
   34.6690   29.9440   34.2760 H   0  0  0  0  0  0  0  0  0  0  0  0
   38.3750   23.9870   37.0050 C   0  0  2  0  0  3  0  0  0  0  0  0
   38.4300   24.6650   35.6730 C   0  0  2  0  0  3  0  0  0  0  0  0
   39.7790   24.7700   35.3660 O   0  0  0  0  0  0  0  0  0  0  0  0
   40.4070   23.6480   35.8870 C   0  0  0  0  0  2  0  0  0  0  0  0
   39.4990   22.9810   36.8600 C   0  0  2  0  0  3  0  0  0  0  0  0
   37.1870   23.2880   37.2030 O   0  0  0  0  0  0  0  0  0  0  0  0
   37.0350   23.2230   38.1930 H   0  0  0  0  0  0  0  0  0  0  0  0
   38.9980   21.8050   36.3120 O   0  0  0  0  0  0  0  0  0  0  0  0
   39.2790   21.6630   35.3670 H   0  0  0  0  0  0  0  0  0  0  0  0
  1  4  1  6  0  0  0
  1  3  1  0  0  0  0
  1  2  1  0  0  0  0
  2  5  1  0  0  0  0
  2  6  1  0  0  0  0
  3 18  1  0  0  0  0
  3  2  1  0  0  0  0
  3  7  1  1  0  0  0
  8  9  2  0  0  0  0
  8 13  1  0  0  0  0
  9 10  1  0  0  0  0
 10 11  2  0  0  0  0
 10  1  1  0  0  0  0
 12 16  1  0  0  0  0
 12 11  1  0  0  0  0
 13 12  2  0  0  0  0
 14  8  1  0  0  0  0
 15  9  1  0  0  0  0
 17 22  1  6  0  0  0
 18 19  1  1  0  0  0
 18 17  1  0  0  0  0
 19 20  1  0  0  0  0
 20 21  1  0  0  0  0
 21 24  1  6  0  0  0
 21 17  1  0  0  0  0
 22 23  1  0  0  0  0
 25 24  1  0  0  0  0
M  END
>  <minimizedAffinity>
-4.85338402

$$$$

 OpenBabel03262521343D

 25 27  0  0  1  0  0  0  0  0999 V2000
   38.3500   26.1470   34.4660 C   0  0  1  0  0  0  0  0  0  0  0  0
   38.3440   27.1910   35.4640 C   0  0  0  0  0  0  0  0  0  0  0  0
   37.5800   25.9020   35.7770 C   0  0  2  0  0  0  0  0  0  0  0  0
   39.2750   25.5410   34.3380 H   0  0  0  0  0  0  0  0  0  0  0  0
   39.2540   27.4300   36.0440 H   0  0  0  0  0  0  0  0  0  0  0  0
   37.6580   28.0620   35.2410 H   0  0  0  0  0  0  0  0  0  0  0  0
   36.4790   25.9330   35.7480 H   0  0  0  0  0  0  0  0  0  0  0  0
   36.1190   27.1940   31.6560 C   0  0  0  0  0  0  0  0  0  0  0  0
   36.9590   27.3100   32.7660 C   0  0  0  0  0  0  0  0  0  0  0  0
   37.4630   26.1180   33.2890 C   0  0  0  0  0  0  0  0  0  0  0  0
   37.1090   24.9280   32.6940 N   0  0  0  0  0  0  0  0  0  0  0  0
   36.2850   24.8870   31.6140 C   0  0  0  0  0  0  0  0  0  0  0  0
   35.7850   26.0210   31.0870 N   0  0  0  0  0  0  0  0  0  0  0  0
   35.7430   28.1550   31.2710 H   0  0  0  0  0  0  0  0  0  0  0  0
   37.1930   28.2790   33.1800 H   0  0  0  0  0  0  0  0  0  0  0  0
   36.0140   23.9480   31.1560 H   0  0  0  0  0  0  0  0  0  0  0  0
   37.6120   23.5920   36.8140 C   0  0  2  0  0  3  0  0  0  0  0  0
   38.1690   24.9800   36.7870 C   0  0  2  0  0  3  0  0  0  0  0  0
   38.0230   25.4640   38.0790 O   0  0  0  0  0  0  0  0  0  0  0  0
   38.1920   24.3910   38.9410 C   0  0  0  0  0  2  0  0  0  0  0  0
   38.0900   23.1190   38.1730 C   0  0  2  0  0  3  0  0  0  0  0  0
   38.1720   22.7680   35.8420 O   0  0  0  0  0  0  0  0  0  0  0  0
   37.5100   22.0420   35.6410 H   0  0  0  0  0  0  0  0  0  0  0  0
   39.3490   22.5420   38.0430 O   0  0  0  0  0  0  0  0  0  0  0  0
   40.0790   23.1050   38.4200 H   0  0  0  0  0  0  0  0  0  0  0  0
  1  4  1  6  0  0  0
  1  2  1  0  0  0  0
  1  3  1  0  0  0  0
  2  3  1  0  0  0  0
  2  5  1  0  0  0  0
  3  7  1  6  0  0  0
  3 18  1  0  0  0  0
  6  2  1  0  0  0  0
  8  9  1  0  0  0  0
  9 15  1  0  0  0  0
  9 10  2  0  0  0  0
 10  1  1  0  0  0  0
 11 10  1  0  0  0  0
 12 11  2  0  0  0  0
 13 12  1  0  0  0  0
 13  8  2  0  0  0  0
 14  8  1  0  0  0  0
 16 12  1  0  0  0  0
 17 22  1  6  0  0  0
 17 21  1  0  0  0  0
 18 17  1  0  0  0  0
 18 19  1  1  0  0  0
 19 20  1  0  0  0  0
 21 24  1  6  0  0  0
 21 20  1  0  0  0  0
 23 22  1  0  0  0  0
 24 25  1  0  0  0  0
M  END
>  <minimizedAffinity>
-4.74382639

$$$$

 OpenBabel03262521343D

 25 27  0  0  1  0  0  0  0  0999 V2000
   37.5680   25.4560   35.4500 C   0  0  1  0  0  0  0  0  0  0  0  0
   37.8700   26.8600   35.2970 C   0  0  0  0  0  0  0  0  0  0  0  0
   38.3700   25.9020   34.2130 C   0  0  2  0  0  0  0  0  0  0  0  0
   36.5310   25.1100   35.2440 H   0  0  0  0  0  0  0  0  0  0  0  0
   37.0770   27.5880   35.0450 H   0  0  0  0  0  0  0  0  0  0  0  0
   38.7020   27.2450   35.9580 H   0  0  0  0  0  0  0  0  0  0  0  0
   39.4490   25.6740   34.1820 H   0  0  0  0  0  0  0  0  0  0  0  0
   38.7590   23.4650   38.3810 C   0  0  0  0  0  0  0  0  0  0  0  0
   37.9760   24.3530   37.6400 C   0  0  0  0  0  0  0  0  0  0  0  0
   38.3360   24.5300   36.3040 C   0  0  0  0  0  0  0  0  0  0  0  0
   39.4170   23.8360   35.8080 N   0  0  0  0  0  0  0  0  0  0  0  0
   40.1380   22.9870   36.5870 C   0  0  0  0  0  0  0  0  0  0  0  0
   39.8130   22.7960   37.8790 N   0  0  0  0  0  0  0  0  0  0  0  0
   38.4440   23.3510   39.4310 H   0  0  0  0  0  0  0  0  0  0  0  0
   37.1410   24.8630   38.0970 H   0  0  0  0  0  0  0  0  0  0  0  0
   40.9840   22.4490   36.1880 H   0  0  0  0  0  0  0  0  0  0  0  0
   36.7420   27.0750   32.6690 C   0  0  2  0  0  3  0  0  0  0  0  0
   37.6840   25.9350   32.8930 C   0  0  2  0  0  3  0  0  0  0  0  0
   36.9370   24.7870   32.6690 O   0  0  0  0  0  0  0  0  0  0  0  0
   36.0240   25.0810   31.6670 C   0  0  0  0  0  2  0  0  0  0  0  0
   35.9420   26.5570   31.4900 C   0  0  2  0  0  3  0  0  0  0  0  0
   37.3930   28.2410   32.2770 O   0  0  0  0  0  0  0  0  0  0  0  0
   36.8130   29.0160   32.5410 H   0  0  0  0  0  0  0  0  0  0  0  0
   36.5710   26.9290   30.3070 O   0  0  0  0  0  0  0  0  0  0  0  0
   37.0100   26.1660   29.8400 H   0  0  0  0  0  0  0  0  0  0  0  0
  1  4  1  6  0  0  0
  1 10  1  0  0  0  0
  2  1  1  0  0  0  0
  2  6  1  0  0  0  0
  3  7  1  6  0  0  0
  3  2  1  0  0  0  0
  3  1  1  0  0  0  0
  5  2  1  0  0  0  0
  8 14  1  0  0  0  0
  9 15  1  0  0  0  0
  9  8  2  0  0  0  0
 10  9  1  0  0  0  0
 11 10  2  0  0  0  0
 11 12  1  0  0  0  0
 12 13  2  0  0  0  0
 13  8  1  0  0  0  0
 16 12  1  0  0  0  0
 17 22  1  6  0  0  0
 17 18  1  0  0  0  0
 18 19  1  1  0  0  0
 18  3  1  0  0  0  0
 20 19  1  0  0  0  0
 21 24  1  6  0  0  0
 21 20  1  0  0  0  0
 21 17  1  0  0  0  0
 22 23  1  0  0  0  0
 25 24  1  0  0  0  0
M  END
>  <minimizedAffinity>
-4.73040199

$$$$

 OpenBabel03262521343D

 25 27  0  0  1  0  0  0  0  0999 V2000
   38.2660   25.8820   34.5220 C   0  0  1  0  0  0  0  0  0  0  0  0
   38.4790   26.6940   35.6970 C   0  0  0  0  0  0  0  0  0  0  0  0
   37.4610   25.5550   35.7930 C   0  0  2  0  0  0  0  0  0  0  0  0
   39.0420   25.1330   34.2450 H   0  0  0  0  0  0  0  0  0  0  0  0
   39.4190   26.6220   36.2740 H   0  0  0  0  0  0  0  0  0  0  0  0
   37.9930   27.7140   35.6690 H   0  0  0  0  0  0  0  0  0  0  0  0
   36.3900   25.8190   35.8140 H   0  0  0  0  0  0  0  0  0  0  0  0
   36.2480   27.8830   32.0930 C   0  0  0  0  0  0  0  0  0  0  0  0
   37.0880   27.6080   33.1750 C   0  0  0  0  0  0  0  0  0  0  0  0
   37.3930   26.2640   33.3960 C   0  0  0  0  0  0  0  0  0  0  0  0
   36.8590   25.3140   32.5560 N   0  0  0  0  0  0  0  0  0  0  0  0
   36.0460   25.6520   31.5200 C   0  0  0  0  0  0  0  0  0  0  0  0
   35.7360   26.9400   31.2820 N   0  0  0  0  0  0  0  0  0  0  0  0
   36.0320   28.9540   31.9500 H   0  0  0  0  0  0  0  0  0  0  0  0
   37.4700   28.4070   33.7920 H   0  0  0  0  0  0  0  0  0  0  0  0
   35.6320   24.8980   30.8680 H   0  0  0  0  0  0  0  0  0  0  0  0
   38.6470   24.6100   37.8210 C   0  0  2  0  0  3  0  0  0  0  0  0
   37.8410   24.3550   36.5870 C   0  0  2  0  0  3  0  0  0  0  0  0
   38.5830   23.4520   35.8390 O   0  0  0  0  0  0  0  0  0  0  0  0
   39.2380   22.6190   36.7340 C   0  0  0  0  0  2  0  0  0  0  0  0
   39.1980   23.2250   38.0940 C   0  0  2  0  0  3  0  0  0  0  0  0
   37.8620   24.9900   38.9070 O   0  0  0  0  0  0  0  0  0  0  0  0
   38.4420   25.5220   39.5290 H   0  0  0  0  0  0  0  0  0  0  0  0
   38.3070   22.5240   38.8990 O   0  0  0  0  0  0  0  0  0  0  0  0
   37.8200   21.8050   38.4110 H   0  0  0  0  0  0  0  0  0  0  0  0
  1  4  1  6  0  0  0
  1  2  1  0  0  0  0
  1  3  1  0  0  0  0
  2  3  1  0  0  0  0
  2  5  1  0  0  0  0
  3  7  1  1  0  0  0
  3 18  1  0  0  0  0
  6  2  1  0  0  0  0
  8  9  1  0  0  0  0
  9 10  2  0  0  0  0
  9 15  1  0  0  0  0
 10  1  1  0  0  0  0
 11 10  1  0  0  0  0
 12 11  2  0  0  0  0
 13 12  1  0  0  0  0
 13  8  2  0  0  0  0
 14  8  1  0  0  0  0
 16 12  1  0  0  0  0
 17 21  1  0  0  0  0
 17 22  1  1  0  0  0
 18 19  1  6  0  0  0
 18 17  1  0  0  0  0
 19 20  1  0  0  0  0
 20 21  1  0  0  0  0
 21 24  1  1  0  0  0
 22 23  1  0  0  0  0
 25 24  1  0  0  0  0
M  END
>  <minimizedAffinity>
-4.6513586

$$$$

 OpenBabel03262521343D

 25 27  0  0  1  0  0  0  0  0999 V2000
   38.9570   25.0320   34.4400 C   0  0  1  0  0  0  0  0  0  0  0  0
   39.4340   24.3820   33.2410 C   0  0  0  0  0  0  0  0  0  0  0  0
   37.9230   24.4070   33.4860 C   0  0  2  0  0  0  0  0  0  0  0  0
   38.9580   26.1450   34.4770 H   0  0  0  0  0  0  0  0  0  0  0  0
   39.8510   24.9690   32.4030 H   0  0  0  0  0  0  0  0  0  0  0  0
   39.8850   23.3580   33.4000 H   0  0  0  0  0  0  0  0  0  0  0  0
   37.4330   23.4680   33.7920 H   0  0  0  0  0  0  0  0  0  0  0  0
   38.0640   24.1850   37.9700 C   0  0  0  0  0  0  0  0  0  0  0  0
   38.0140   24.8290   36.7310 C   0  0  0  0  0  0  0  0  0  0  0  0
   38.9340   24.4020   35.7730 C   0  0  0  0  0  0  0  0  0  0  0  0
   39.8170   23.3970   36.1000 N   0  0  0  0  0  0  0  0  0  0  0  0
   39.8120   22.8140   37.3280 C   0  0  0  0  0  0  0  0  0  0  0  0
   38.9340   23.2050   38.2710 N   0  0  0  0  0  0  0  0  0  0  0  0
   37.3220   24.5490   38.6980 H   0  0  0  0  0  0  0  0  0  0  0  0
   37.2920   25.6100   36.5460 H   0  0  0  0  0  0  0  0  0  0  0  0
   40.5090   22.0270   37.5730 H   0  0  0  0  0  0  0  0  0  0  0  0
   37.6830   25.6720   31.3060 C   0  0  2  0  0  3  0  0  0  0  0  0
   37.1010   25.3110   32.6360 C   0  0  2  0  0  3  0  0  0  0  0  0
   36.8380   26.5180   33.2660 O   0  0  0  0  0  0  0  0  0  0  0  0
   36.4670   27.4230   32.2820 C   0  0  0  0  0  2  0  0  0  0  0  0
   36.8440   26.8820   30.9470 C   0  0  2  0  0  3  0  0  0  0  0  0
   37.4690   24.6900   30.3420 O   0  0  0  0  0  0  0  0  0  0  0  0
   38.1920   24.7810   29.6510 H   0  0  0  0  0  0  0  0  0  0  0  0
   35.7050   26.4680   30.2640 O   0  0  0  0  0  0  0  0  0  0  0  0
   34.8740   26.5450   30.8070 H   0  0  0  0  0  0  0  0  0  0  0  0
  1  4  1  6  0  0  0
  1 10  1  0  0  0  0
  2  6  1  0  0  0  0
  2  3  1  0  0  0  0
  2  1  1  0  0  0  0
  3  7  1  1  0  0  0
  3  1  1  0  0  0  0
  5  2  1  0  0  0  0
  8 13  1  0  0  0  0
  8 14  1  0  0  0  0
  9  8  2  0  0  0  0
 10 11  2  0  0  0  0
 10  9  1  0  0  0  0
 11 12  1  0  0  0  0
 12 16  1  0  0  0  0
 12 13  2  0  0  0  0
 15  9  1  0  0  0  0
 17 22  1  6  0  0  0
 17 18  1  0  0  0  0
 18 19  1  1  0  0  0
 18  3  1  0  0  0  0
 20 19  1  0  0  0  0
 21 24  1  6  0  0  0
 21 17  1  0  0  0  0
 21 20  1  0  0  0  0
 23 22  1  0  0  0  0
 24 25  1  0  0  0  0
M  END
>  <minimizedAffinity>
-4.64601612

$$$$

 OpenBabel03262521343D

 25 27  0  0  1  0  0  0  0  0999 V2000
   37.7060   25.6900   35.6510 C   0  0  1  0  0  0  0  0  0  0  0  0
   38.0460   27.0940   35.6520 C   0  0  0  0  0  0  0  0  0  0  0  0
   38.5810   26.2310   34.5060 C   0  0  2  0  0  0  0  0  0  0  0  0
   36.6730   25.3940   35.3590 H   0  0  0  0  0  0  0  0  0  0  0  0
   37.2840   27.8640   35.4320 H   0  0  0  0  0  0  0  0  0  0  0  0
   38.8510   27.3900   36.3880 H   0  0  0  0  0  0  0  0  0  0  0  0
   39.6550   25.9780   34.5070 H   0  0  0  0  0  0  0  0  0  0  0  0
   38.7430   23.4450   38.4540 C   0  0  0  0  0  0  0  0  0  0  0  0
   38.0230   24.4260   37.7680 C   0  0  0  0  0  0  0  0  0  0  0  0
   38.4060   24.6650   36.4470 C   0  0  0  0  0  0  0  0  0  0  0  0
   39.4460   23.9380   35.9140 N   0  0  0  0  0  0  0  0  0  0  0  0
   40.1050   22.9970   36.6400 C   0  0  0  0  0  0  0  0  0  0  0  0
   39.7570   22.7440   37.9160 N   0  0  0  0  0  0  0  0  0  0  0  0
   38.4110   23.2850   39.4920 H   0  0  0  0  0  0  0  0  0  0  0  0
   37.2170   24.9570   38.2520 H   0  0  0  0  0  0  0  0  0  0  0  0
   40.9200   22.4330   36.2120 H   0  0  0  0  0  0  0  0  0  0  0  0
   38.3960   25.4400   32.1080 C   0  0  2  0  0  3  0  0  0  0  0  0
   37.9660   26.4100   33.1620 C   0  0  2  0  0  3  0  0  0  0  0  0
   38.2250   27.6680   32.6370 O   0  0  0  0  0  0  0  0  0  0  0  0
   38.0060   27.5950   31.2690 C   0  0  0  0  0  2  0  0  0  0  0  0
   37.9500   26.1660   30.8540 C   0  0  2  0  0  3  0  0  0  0  0  0
   37.7110   24.2300   32.1790 O   0  0  0  0  0  0  0  0  0  0  0  0
   38.2930   23.5270   31.7620 H   0  0  0  0  0  0  0  0  0  0  0  0
   36.6390   25.8100   30.5570 O   0  0  0  0  0  0  0  0  0  0  0  0
   35.9840   26.5400   30.7370 H   0  0  0  0  0  0  0  0  0  0  0  0
  1  4  1  6  0  0  0
  1  2  1  0  0  0  0
  1 10  1  0  0  0  0
  2  6  1  0  0  0  0
  3  7  1  1  0  0  0
  3  1  1  0  0  0  0
  3  2  1  0  0  0  0
  5  2  1  0  0  0  0
  8 14  1  0  0  0  0
  9 15  1  0  0  0  0
  9  8  2  0  0  0  0
 10  9  1  0  0  0  0
 11 10  2  0  0  0  0
 11 12  1  0  0  0  0
 12 13  2  0  0  0  0
 13  8  1  0  0  0  0
 16 12  1  0  0  0  0
 17 22  1  1  0  0  0
 17 18  1  0  0  0  0
 18 19  1  6  0  0  0
 18  3  1  0  0  0  0
 20 19  1  0  0  0  0
 21 24  1  1  0  0  0
 21 20  1  0  0  0  0
 21 17  1  0  0  0  0
 23 22  1  0  0  0  0
 24 25  1  0  0  0  0
M  END
>  <minimizedAffinity>
-4.58369923

$$$$

 OpenBabel03262521343D

 25 27  0  0  1  0  0  0  0  0999 V2000
   39.2080   26.7220   34.8930 C   0  0  1  0  0  0  0  0  0  0  0  0
   38.2170   27.3660   35.7230 C   0  0  0  0  0  0  0  0  0  0  0  0
   38.0960   25.8550   35.5110 C   0  0  2  0  0  0  0  0  0  0  0  0
   40.2270   26.5570   35.3120 H   0  0  0  0  0  0  0  0  0  0  0  0
   38.4770   27.7470   36.7270 H   0  0  0  0  0  0  0  0  0  0  0  0
   37.4300   27.9510   35.1610 H   0  0  0  0  0  0  0  0  0  0  0  0
   37.2930   25.4880   34.8490 H   0  0  0  0  0  0  0  0  0  0  0  0
   39.9890   25.9720   31.3150 C   0  0  0  0  0  0  0  0  0  0  0  0
   40.0870   25.9270   32.7080 C   0  0  0  0  0  0  0  0  0  0  0  0
   39.1710   26.7030   33.4190 C   0  0  0  0  0  0  0  0  0  0  0  0
   38.2490   27.4500   32.7210 N   0  0  0  0  0  0  0  0  0  0  0  0
   38.2100   27.4490   31.3630 C   0  0  0  0  0  0  0  0  0  0  0  0
   39.0810   26.7090   30.6500 N   0  0  0  0  0  0  0  0  0  0  0  0
   40.7280   25.3460   30.7890 H   0  0  0  0  0  0  0  0  0  0  0  0
   40.8380   25.3160   33.1870 H   0  0  0  0  0  0  0  0  0  0  0  0
   37.4830   28.0390   30.8260 H   0  0  0  0  0  0  0  0  0  0  0  0
   37.8710   23.5840   36.6090 C   0  0  2  0  0  3  0  0  0  0  0  0
   38.4380   24.9670   36.6560 C   0  0  2  0  0  3  0  0  0  0  0  0
   38.0190   25.5000   37.8670 O   0  0  0  0  0  0  0  0  0  0  0  0
   37.9810   24.4580   38.7820 C   0  0  0  0  0  2  0  0  0  0  0  0
   38.0350   23.1600   38.0550 C   0  0  2  0  0  3  0  0  0  0  0  0
   38.6200   22.7230   35.8130 O   0  0  0  0  0  0  0  0  0  0  0  0
   38.0090   21.9930   35.4960 H   0  0  0  0  0  0  0  0  0  0  0  0
   39.2840   22.5720   38.2240 O   0  0  0  0  0  0  0  0  0  0  0  0
   39.9210   23.1460   38.7320 H   0  0  0  0  0  0  0  0  0  0  0  0
  1  4  1  1  0  0  0
  1  3  1  0  0  0  0
  1  2  1  0  0  0  0
  2  5  1  0  0  0  0
  3  7  1  6  0  0  0
  3  2  1  0  0  0  0
  3 18  1  0  0  0  0
  6  2  1  0  0  0  0
  8  9  1  0  0  0  0
  9 15  1  0  0  0  0
  9 10  2  0  0  0  0
 10  1  1  0  0  0  0
 11 10  1  0  0  0  0
 12 11  2  0  0  0  0
 13  8  2  0  0  0  0
 13 12  1  0  0  0  0
 14  8  1  0  0  0  0
 16 12  1  0  0  0  0
 17 22  1  6  0  0  0
 17 18  1  0  0  0  0
 17 21  1  0  0  0  0
 18 19  1  1  0  0  0
 19 20  1  0  0  0  0
 21 24  1  6  0  0  0
 21 20  1  0  0  0  0
 23 22  1  0  0  0  0
 24 25  1  0  0  0  0
M  END
>  <minimizedAffinity>
-4.51520729

$$$$

 OpenBabel03262521343D

 25 27  0  0  1  0  0  0  0  0999 V2000
   35.4780   29.2080   34.3180 C   0  0  1  0  0  0  0  0  0  0  0  0
   35.4900   28.5140   33.0510 C   0  0  0  0  0  0  0  0  0  0  0  0
   36.7760   28.5050   33.8810 C   0  0  2  0  0  0  0  0  0  0  0  0
   34.9490   28.7370   35.1770 H   0  0  0  0  0  0  0  0  0  0  0  0
   34.9320   27.5700   32.9150 H   0  0  0  0  0  0  0  0  0  0  0  0
   35.5610   29.1810   32.1410 H   0  0  0  0  0  0  0  0  0  0  0  0
   37.6170   29.1300   33.5380 H   0  0  0  0  0  0  0  0  0  0  0  0
   36.1080   32.5900   35.7790 C   0  0  0  0  0  0  0  0  0  0  0  0
   35.9600   31.2030   35.7210 C   0  0  0  0  0  0  0  0  0  0  0  0
   35.6600   30.6640   34.4690 C   0  0  0  0  0  0  0  0  0  0  0  0
   35.5300   31.5120   33.3930 N   0  0  0  0  0  0  0  0  0  0  0  0
   35.6860   32.8560   33.5210 C   0  0  0  0  0  0  0  0  0  0  0  0
   35.9770   33.4040   34.7160 N   0  0  0  0  0  0  0  0  0  0  0  0
   36.3450   32.9780   36.7820 H   0  0  0  0  0  0  0  0  0  0  0  0
   36.0770   30.5990   36.6090 H   0  0  0  0  0  0  0  0  0  0  0  0
   35.5810   33.5120   32.6700 H   0  0  0  0  0  0  0  0  0  0  0  0
   38.5290   27.1820   35.1410 C   0  0  2  0  0  3  0  0  0  0  0  0
   37.1560   27.2300   34.5500 C   0  0  2  0  0  3  0  0  0  0  0  0
   37.0860   26.1490   33.6830 O   0  0  0  0  0  0  0  0  0  0  0  0
   37.8450   25.1290   34.2380 C   0  0  0  0  0  2  0  0  0  0  0  0
   38.7130   25.6870   35.3110 C   0  0  2  0  0  3  0  0  0  0  0  0
   38.5940   27.7760   36.3980 O   0  0  0  0  0  0  0  0  0  0  0  0
   39.5410   28.0750   36.5440 H   0  0  0  0  0  0  0  0  0  0  0  0
   38.2320   25.3020   36.5580 O   0  0  0  0  0  0  0  0  0  0  0  0
   37.3770   24.7930   36.5080 H   0  0  0  0  0  0  0  0  0  0  0  0
  1 10  1  0  0  0  0
  1  4  1  1  0  0  0
  2  3  1  0  0  0  0
  2  1  1  0  0  0  0
  3  7  1  6  0  0  0
  3  1  1  0  0  0  0
  3 18  1  0  0  0  0
  5  2  1  0  0  0  0
  6  2  1  0  0  0  0
  8 14  1  0  0  0  0
  9  8  1  0  0  0  0
  9 15  1  0  0  0  0
 10  9  2  0  0  0  0
 11 12  2  0  0  0  0
 11 10  1  0  0  0  0
 12 13  1  0  0  0  0
 13  8  2  0  0  0  0
 16 12  1  0  0  0  0
 17 21  1  0  0  0  0
 17 22  1  1  0  0  0
 18 19  1  6  0  0  0
 18 17  1  0  0  0  0
 19 20  1  0  0  0  0
 20 21  1  0  0  0  0
 21 24  1  1  0  0  0
 22 23  1  0  0  0  0
 25 24  1  0  0  0  0
M  END
>  <minimizedAffinity>
-4.44204521

$$$$

 OpenBabel03262521343D

 25 27  0  0  1  0  0  0  0  0999 V2000
   38.4740   27.0200   34.3680 C   0  0  1  0  0  0  0  0  0  0  0  0
   38.1150   27.4760   35.6910 C   0  0  0  0  0  0  0  0  0  0  0  0
   37.6960   26.0610   35.2870 C   0  0  2  0  0  0  0  0  0  0  0  0
   39.5330   26.7370   34.1730 H   0  0  0  0  0  0  0  0  0  0  0  0
   38.8820   27.6050   36.4760 H   0  0  0  0  0  0  0  0  0  0  0  0
   37.2440   28.1960   35.7290 H   0  0  0  0  0  0  0  0  0  0  0  0
   36.6300   25.8790   35.0680 H   0  0  0  0  0  0  0  0  0  0  0  0
   37.3670   27.2010   30.8020 C   0  0  0  0  0  0  0  0  0  0  0  0
   38.1310   26.8340   31.9130 C   0  0  0  0  0  0  0  0  0  0  0  0
   37.7210   27.3490   33.1440 C   0  0  0  0  0  0  0  0  0  0  0  0
   36.6150   28.1680   33.1870 N   0  0  0  0  0  0  0  0  0  0  0  0
   35.9170   28.4860   32.0650 C   0  0  0  0  0  0  0  0  0  0  0  0
   36.2890   28.0030   30.8650 N   0  0  0  0  0  0  0  0  0  0  0  0
   37.7210   26.7750   29.8500 H   0  0  0  0  0  0  0  0  0  0  0  0
   38.9870   26.1860   31.8020 H   0  0  0  0  0  0  0  0  0  0  0  0
   35.0520   29.1290   32.1110 H   0  0  0  0  0  0  0  0  0  0  0  0
   38.1990   23.5790   35.2880 C   0  0  2  0  0  3  0  0  0  0  0  0
   38.4250   24.9210   35.9080 C   0  0  2  0  0  3  0  0  0  0  0  0
   38.1030   24.7700   37.2490 O   0  0  0  0  0  0  0  0  0  0  0  0
   38.4670   23.4820   37.6160 C   0  0  0  0  0  2  0  0  0  0  0  0
   38.7000   22.6680   36.3910 C   0  0  2  0  0  3  0  0  0  0  0  0
   38.9840   23.3700   34.1580 O   0  0  0  0  0  0  0  0  0  0  0  0
   38.5170   22.6920   33.5850 H   0  0  0  0  0  0  0  0  0  0  0  0
   40.0620   22.4450   36.2220 O   0  0  0  0  0  0  0  0  0  0  0  0
   40.6230   22.9170   36.8970 H   0  0  0  0  0  0  0  0  0  0  0  0
  1  4  1  6  0  0  0
  1  3  1  0  0  0  0
  1  2  1  0  0  0  0
  2  6  1  0  0  0  0
  2  5  1  0  0  0  0
  3  7  1  6  0  0  0
  3  2  1  0  0  0  0
  3 18  1  0  0  0  0
  8 13  2  0  0  0  0
  8  9  1  0  0  0  0
  9 10  2  0  0  0  0
 10 11  1  0  0  0  0
 10  1  1  0  0  0  0
 12 16  1  0  0  0  0
 12 11  2  0  0  0  0
 13 12  1  0  0  0  0
 14  8  1  0  0  0  0
 15  9  1  0  0  0  0
 17 22  1  6  0  0  0
 17 18  1  0  0  0  0
 17 21  1  0  0  0  0
 18 19  1  1  0  0  0
 19 20  1  0  0  0  0
 21 24  1  6  0  0  0
 21 20  1  0  0  0  0
 23 22  1  0  0  0  0
 24 25  1  0  0  0  0
M  END
>  <minimizedAffinity>
-4.36617661

$$$$
