
     RDKit          3D

 40 42  0  0  0  0  0  0  0  0999 V2000
   33.2793   27.2837   47.9946 C   0  0  0  0  0  0  0  0  0  0  0  0
   33.7095   26.2094   47.0429 C   0  0  0  0  0  0  0  0  0  0  0  0
   33.9464   24.8865   47.3888 C   0  0  0  0  0  0  0  0  0  0  0  0
   34.3386   23.9861   46.4091 C   0  0  0  0  0  0  0  0  0  0  0  0
   34.5017   24.3778   45.0808 C   0  0  0  0  0  0  0  0  0  0  0  0
   34.2649   25.6975   44.7393 C   0  0  0  0  0  0  0  0  0  0  0  0
   33.8718   26.5998   45.7208 C   0  0  0  0  0  0  0  0  0  0  0  0
   34.6909   28.3993   49.7258 C   0  0  0  0  0  0  0  0  0  0  0  0
   34.3977   28.0823   48.5137 C   0  0  0  0  0  0  0  0  0  0  0  0
   37.3655   30.2330   51.4141 C   0  0  0  0  0  0  0  0  0  0  0  0
   38.1331   30.6941   50.3222 C   0  0  0  0  0  0  0  0  0  0  0  0
   37.6883   30.3514   49.0284 C   0  0  0  0  0  0  0  0  0  0  0  0
   36.5498   29.5992   48.9051 N   0  0  0  0  0  0  0  0  0  0  0  0
   35.8675   29.1940   49.9944 C   0  0  0  0  0  0  0  0  0  0  0  0
   36.2601   29.5010   51.2491 N   0  0  0  0  0  0  0  0  0  0  0  0
   32.7604   26.8119   48.8631 H   0  0  0  0  0  0  0  0  0  0  0  0
   32.5294   27.9093   47.4888 H   0  0  0  0  0  0  0  0  0  0  0  0
   33.8058   24.6372   48.4287 H   0  0  0  0  0  0  0  0  0  0  0  0
   34.5081   22.9734   46.7349 H   0  0  0  0  0  0  0  0  0  0  0  0
   34.8093   23.5968   44.4020 H   0  0  0  0  0  0  0  0  0  0  0  0
   34.3999   25.9674   43.7055 H   0  0  0  0  0  0  0  0  0  0  0  0
   33.7118   27.6014   45.3573 H   0  0  0  0  0  0  0  0  0  0  0  0
   34.0838   28.0818   50.5887 H   0  0  0  0  0  0  0  0  0  0  0  0
   34.9627   28.3713   47.6344 H   0  0  0  0  0  0  0  0  0  0  0  0
   37.7703   30.5362   52.3770 H   0  0  0  0  0  0  0  0  0  0  0  0
   39.0209   31.2799   50.3992 H   0  0  0  0  0  0  0  0  0  0  0  0
   37.9364   31.7563   45.7424 O   0  0  0  0  0  0  0  0  0  0  0  0
   37.7813   31.8981   47.1149 C   0  0  1  0  0  0  0  0  0  0  0  0
   38.4760   30.8231   47.8653 C   0  0  1  0  0  0  0  0  0  0  0  0
   39.7336   31.2676   48.2149 O   0  0  0  0  0  0  0  0  0  0  0  0
   39.7266   32.6459   48.2172 C   0  0  0  0  0  0  0  0  0  0  0  0
   38.4762   33.1508   47.5864 C   0  0  1  0  0  0  0  0  0  0  0  0
   38.7218   34.0198   46.5309 O   0  0  0  0  0  0  0  0  0  0  0  0
   37.9850   32.6725   45.3640 H   0  0  0  0  0  0  0  0  0  0  0  0
   36.7154   31.9300   47.4419 H   0  0  0  0  0  0  0  0  0  0  0  0
   38.6256   29.9577   47.1702 H   0  0  0  0  0  0  0  0  0  0  0  0
   40.6417   33.0027   47.6723 H   0  0  0  0  0  0  0  0  0  0  0  0
   39.8053   33.1024   49.2441 H   0  0  0  0  0  0  0  0  0  0  0  0
   37.8199   33.6948   48.3081 H   0  0  0  0  0  0  0  0  0  0  0  0
   39.1133   34.8450   46.8748 H   0  0  0  0  0  0  0  0  0  0  0  0
  1  9  1  0
  2  3  2  0
  2  1  1  0
  4  3  1  0
  5  4  2  0
  6  5  1  0
  6  7  2  0
  7  2  1  0
  8 14  1  0
  9  8  2  0
 11 10  2  0
 12 11  1  0
 13 12  2  0
 13 14  1  0
 14 15  2  0
 15 10  1  0
  1 16  1  0
  1 17  1  0
  3 18  1  0
  4 19  1  0
  5 20  1  0
  6 21  1  0
  7 22  1  0
  8 23  1  0
  9 24  1  0
 10 25  1  0
 11 26  1  0
 27 28  1  0
 28 29  1  0
 29 30  1  0
 30 31  1  0
 31 32  1  0
 32 33  1  0
 32 28  1  0
 27 34  1  0
 28 35  1  6
 29 36  1  6
 31 37  1  0
 31 38  1  0
 32 39  1  1
 33 40  1  0
 12 29  1  0
M  ISO  8  16   8  17   8  18  14  19  14  20  14  21  14  22  14  25  14
M  ISO  1  26  14
M  END
>  <DihAtoms>  (1) 
10,11,28,27

>  <DihDeg>  (1) 
-168.29605375213748

$$$$
