
 OpenBabel03262521233D

 47 50  0  0  1  0  0  0  0  0999 V2000
   38.6310   27.3690   52.7380 S   0  0  0  0  0  0  0  0  0  0  0  0
   40.1000   25.0360   53.4670 C   0  0  0  0  0  0  0  0  0  0  0  0
   39.7390   26.0150   52.5260 C   0  0  0  0  0  0  0  0  0  0  0  0
   40.3320   25.8990   51.2650 C   0  0  0  0  0  0  0  0  0  0  0  0
   41.2080   24.8960   50.9650 C   0  0  0  0  0  0  0  0  0  0  0  0
   41.9080   24.5420   49.8860 N   0  0  0  0  0  0  0  0  0  0  0  0
   42.6640   23.4270   50.1040 C   0  0  0  0  0  0  0  0  0  0  0  0
   42.4120   23.0660   51.4110 C   0  0  0  0  0  0  0  0  0  0  0  0
   41.5220   23.9720   51.9260 C   0  0  0  0  0  0  0  0  0  0  0  0
   40.9820   24.0280   53.1690 C   0  0  0  0  0  0  0  0  0  0  0  0
   39.6000   25.1940   54.4170 H   0  0  0  0  0  0  0  0  0  0  0  0
   40.1240   26.5970   50.4650 H   0  0  0  0  0  0  0  0  0  0  0  0
   41.8530   25.0940   48.9820 H   0  0  0  0  0  0  0  0  0  0  0  0
   43.3070   22.9740   49.3500 H   0  0  0  0  0  0  0  0  0  0  0  0
   42.8940   22.1990   51.8420 H   0  0  0  0  0  0  0  0  0  0  0  0
   42.1960   23.6280   55.3050 C   0  0  2  0  0  0  0  0  0  0  0  0
   41.2540   23.0790   54.2780 C   0  0  1  0  0  0  0  0  0  0  0  0
   40.0460   22.7930   54.9020 O   0  0  0  0  0  0  0  0  0  0  0  0
   40.4450   22.3110   56.1680 C   0  0  0  0  0  0  0  0  0  0  0  0
   41.5260   23.2730   56.6110 C   0  0  1  0  0  0  0  0  0  0  0  0
   42.3640   25.0050   55.1690 O   0  0  0  0  0  0  0  0  0  0  0  0
   43.1130   25.3140   55.7250 H   0  0  0  0  0  0  0  0  0  0  0  0
   42.3810   22.6160   57.4650 O   0  0  0  0  0  0  0  0  0  0  0  0
   41.8290   22.0110   58.0260 H   0  0  0  0  0  0  0  0  0  0  0  0
   38.1690   28.1940   51.2340 C   0  0  0  0  0  0  0  0  0  0  0  0
   39.0950   28.6500   50.7970 H   0  0  0  0  0  0  0  0  0  0  0  0
   37.8410   27.4330   50.4840 H   0  0  0  0  0  0  0  0  0  0  0  0
   37.1460   29.2870   51.4080 C   0  0  0  0  0  0  0  0  0  0  0  0
   36.1830   28.8810   51.0270 H   0  0  0  0  0  0  0  0  0  0  0  0
   36.9600   29.3220   52.5250 H   0  0  0  0  0  0  0  0  0  0  0  0
   37.5270   30.4920   50.9070 C   0  0  0  0  0  0  0  0  0  0  0  0
   38.5720   30.8080   51.1880 H   0  0  0  0  0  0  0  0  0  0  0  0
   36.8710   31.3570   51.1370 H   0  0  0  0  0  0  0  0  0  0  0  0
   37.5030   30.1650   49.5770 O   0  0  0  0  0  0  0  0  0  0  0  0
   38.1060   31.0030   48.6810 C   0  0  0  0  0  0  0  0  0  0  0  0
   38.3860   32.2440   49.2220 C   0  0  0  0  0  0  0  0  0  0  0  0
   39.0090   33.2130   48.4100 C   0  0  0  0  0  0  0  0  0  0  0  0
   39.2990   32.8560   47.1230 N   0  0  0  0  0  0  0  0  0  0  0  0
   39.0060   31.6170   46.6230 C   0  0  0  0  0  0  0  0  0  0  0  0
   38.4150   30.7200   47.4190 N   0  0  0  0  0  0  0  0  0  0  0  0
   39.9380   32.4610   44.5820 C   0  0  0  0  0  0  0  0  0  0  0  0
   40.1590   33.6030   45.0650 O   0  0  0  0  0  0  0  0  0  0  0  0
   39.3580   31.3640   45.2670 N   0  0  0  0  0  0  0  0  0  0  0  0
   38.2030   32.6350   50.2160 H   0  0  0  0  0  0  0  0  0  0  0  0
   39.2640   34.1930   48.7330 H   0  0  0  0  0  0  0  0  0  0  0  0
   40.2300   32.3410   43.5460 H   0  0  0  0  0  0  0  0  0  0  0  0
   39.1820   30.4230   44.8480 H   0  0  0  0  0  0  0  0  0  0  0  0
  2 11  1  0  0  0  0
  3  1  1  0  0  0  0
  3  2  2  0  0  0  0
  4  3  1  0  0  0  0
  5  4  2  0  0  0  0
  5  9  1  0  0  0  0
  6  7  1  0  0  0  0
  6  5  1  0  0  0  0
  7  8  2  0  0  0  0
  8 15  1  0  0  0  0
  8  9  1  0  0  0  0
  9 10  2  0  0  0  0
 10  2  1  0  0  0  0
 12  4  1  0  0  0  0
 13  6  1  0  0  0  0
 14  7  1  0  0  0  0
 16 21  1  6  0  0  0
 16 20  1  0  0  0  0
 17 10  1  6  0  0  0
 17 18  1  0  0  0  0
 17 16  1  0  0  0  0
 18 19  1  0  0  0  0
 19 20  1  0  0  0  0
 20 23  1  1  0  0  0
 21 22  1  0  0  0  0
 23 24  1  0  0  0  0
 25 28  1  0  0  0  0
 25  1  1  0  0  0  0
 26 25  1  0  0  0  0
 27 25  1  0  0  0  0
 28 30  1  0  0  0  0
 29 28  1  0  0  0  0
 31 33  1  0  0  0  0
 31 32  1  0  0  0  0
 31 28  1  0  0  0  0
 34 31  1  0  0  0  0
 35 36  1  0  0  0  0
 35 34  1  0  0  0  0
 36 44  1  0  0  0  0
 37 45  1  0  0  0  0
 37 36  2  0  0  0  0
 38 37  1  0  0  0  0
 39 38  2  0  0  0  0
 39 40  1  0  0  0  0
 40 35  2  0  0  0  0
 41 42  2  0  0  0  0
 41 43  1  0  0  0  0
 43 39  1  0  0  0  0
 46 41  1  0  0  0  0
 47 43  1  0  0  0  0
M  END
>  <minimizedAffinity>
-4.63939047

>  <minimizedRMSD>
0.608648598

$$$$
