
 OpenBabel03272509503D

 33 35  0  0  1  0  0  0  0  0999 V2000
   37.4300   30.5860   51.0710 C   0  0  0  0  0  0  0  0  0  0  0  0
   38.2250   31.0780   50.0260 C   0  0  0  0  0  0  0  0  0  0  0  0
   37.9520   30.6440   48.7410 C   0  0  0  0  0  0  0  0  0  0  0  0
   36.9300   29.7650   48.5530 N   0  0  0  0  0  0  0  0  0  0  0  0
   36.1790   29.3060   49.5760 C   0  0  0  0  0  0  0  0  0  0  0  0
   36.4490   29.7320   50.8280 N   0  0  0  0  0  0  0  0  0  0  0  0
   37.6790   30.9520   52.0570 H   0  0  0  0  0  0  0  0  0  0  0  0
   39.0330   31.7740   50.1830 H   0  0  0  0  0  0  0  0  0  0  0  0
   37.9960   30.9720   46.2640 C   0  0  1  0  0  3  0  0  0  0  0  0
   38.7460   31.1120   47.5490 C   0  0  1  0  0  3  0  0  0  0  0  0
   38.9210   32.5020   47.6850 O   0  0  0  0  0  0  0  0  0  0  0  0
   39.4170   32.9030   46.4620 C   0  0  0  0  0  2  0  0  0  0  0  0
   38.5850   32.1380   45.4630 C   0  0  2  0  0  3  0  0  0  0  0  0
   38.4180   29.7920   45.6620 O   0  0  0  0  0  0  0  0  0  0  0  0
   39.3960   29.6930   45.8660 H   0  0  0  0  0  0  0  0  0  0  0  0
   37.6010   32.9570   44.9630 O   0  0  0  0  0  0  0  0  0  0  0  0
   36.9510   32.4290   44.4210 H   0  0  0  0  0  0  0  0  0  0  0  0
   35.2070   28.4350   49.1880 O   0  0  0  0  0  0  0  0  0  0  0  0
   34.4350   28.7750   48.0300 C   0  0  0  0  0  0  0  0  0  0  0  0
   35.0580   29.1940   47.2360 H   0  0  0  0  0  0  0  0  0  0  0  0
   33.7250   29.5600   48.4070 H   0  0  0  0  0  0  0  0  0  0  0  0
   33.5760   27.6110   47.6220 C   0  0  0  0  0  0  0  0  0  0  0  0
   33.7980   27.3560   46.5670 H   0  0  0  0  0  0  0  0  0  0  0  0
   33.7860   26.6980   48.2150 H   0  0  0  0  0  0  0  0  0  0  0  0
   32.1250   27.9470   47.6460 C   0  0  0  0  0  0  0  0  0  0  0  0
   31.4040   27.5090   48.7300 C   0  0  0  0  0  0  0  0  0  0  0  0
   30.0470   27.7650   48.8530 C   0  0  0  0  0  0  0  0  0  0  0  0
   29.4330   28.4560   47.8930 N   0  0  0  0  0  0  0  0  0  0  0  0
   30.1510   28.8840   46.8290 C   0  0  0  0  0  0  0  0  0  0  0  0
   31.4680   28.6410   46.6960 N   0  0  0  0  0  0  0  0  0  0  0  0
   31.8790   26.9460   49.5230 H   0  0  0  0  0  0  0  0  0  0  0  0
   29.5110   27.4020   49.7250 H   0  0  0  0  0  0  0  0  0  0  0  0
   29.5960   29.4350   46.0900 H   0  0  0  0  0  0  0  0  0  0  0  0
  1  7  1  0  0  0  0
  2  8  1  0  0  0  0
  2  1  2  0  0  0  0
  3  2  1  0  0  0  0
  4  3  2  0  0  0  0
  4  5  1  0  0  0  0
  5  6  2  0  0  0  0
  6  1  1  0  0  0  0
  9 14  1  6  0  0  0
  9 10  1  0  0  0  0
 10 11  1  0  0  0  0
 10  3  1  1  0  0  0
 12 11  1  0  0  0  0
 13 16  1  1  0  0  0
 13  9  1  0  0  0  0
 13 12  1  0  0  0  0
 14 15  1  0  0  0  0
 17 16  1  0  0  0  0
 18  5  1  0  0  0  0
 19 21  1  0  0  0  0
 19 18  1  0  0  0  0
 20 19  1  0  0  0  0
 22 25  1  0  0  0  0
 22 19  1  0  0  0  0
 22 24  1  0  0  0  0
 23 22  1  0  0  0  0
 25 26  1  0  0  0  0
 26 27  2  0  0  0  0
 26 31  1  0  0  0  0
 27 32  1  0  0  0  0
 28 27  1  0  0  0  0
 29 28  2  0  0  0  0
 30 29  1  0  0  0  0
 30 25  2  0  0  0  0
 33 29  1  0  0  0  0
M  END
>  <minimizedAffinity>
-5.50000143

>  <minimizedRMSD>
0.902326524

$$$$
