
 OpenBabel03272507593D

 32 34  0  0  1  0  0  0  0  0999 V2000
   38.7000   26.7100   33.1380 C   0  0  0  0  0  0  0  0  0  0  0  0
   40.0160   27.1480   32.9280 C   0  0  0  0  0  0  0  0  0  0  0  0
   41.0570   26.5100   33.5780 C   0  0  0  0  0  0  0  0  0  0  0  0
   40.7930   25.4490   34.4280 C   0  0  0  0  0  0  0  0  0  0  0  0
   39.4900   25.0490   34.6090 C   0  0  0  0  0  0  0  0  0  0  0  0
   38.4830   25.6810   33.9680 N   0  0  0  0  0  0  0  0  0  0  0  0
   40.3650   27.9610   32.2940 H   0  0  0  0  0  0  0  0  0  0  0  0
   42.0970   26.7850   33.4700 H   0  0  0  0  0  0  0  0  0  0  0  0
   41.5590   24.9230   34.9530 H   0  0  0  0  0  0  0  0  0  0  0  0
   35.8350   28.9840   32.2680 C   0  0  0  0  0  0  0  0  0  0  0  0
   36.7630   28.2300   33.0440 C   0  0  0  0  0  0  0  0  0  0  0  0
   37.7380   27.4880   32.3810 C   0  0  0  0  0  0  0  0  0  0  0  0
   37.7450   27.5280   31.0080 N   0  0  0  0  0  0  0  0  0  0  0  0
   36.8400   28.2600   30.3130 C   0  0  0  0  0  0  0  0  0  0  0  0
   35.8950   28.9800   30.9260 N   0  0  0  0  0  0  0  0  0  0  0  0
   37.0580   28.1360   28.9120 N   0  0  0  0  0  0  0  0  0  0  0  0
   35.0670   29.5690   32.7690 H   0  0  0  0  0  0  0  0  0  0  0  0
   37.0390   27.1820   28.4730 H   0  0  0  0  0  0  0  0  0  0  0  0
   37.2370   28.9980   28.3150 H   0  0  0  0  0  0  0  0  0  0  0  0
   36.6550   28.2670   34.5240 C   0  0  0  0  0  0  0  0  0  0  0  0
   35.8630   29.3230   34.9510 F   0  0  0  0  0  0  0  0  0  0  0  0
   36.0930   27.0990   34.9540 F   0  0  0  0  0  0  0  0  0  0  0  0
   37.8840   28.4020   35.1520 F   0  0  0  0  0  0  0  0  0  0  0  0
   38.0720   24.2380   36.4830 C   0  0  1  0  0  3  0  0  0  0  0  0
   39.1630   23.9150   35.5120 C   0  0  2  0  0  3  0  0  0  0  0  0
   40.2600   23.5750   36.3350 O   0  0  0  0  0  0  0  0  0  0  0  0
   39.6540   22.6010   37.1300 C   0  0  0  0  0  2  0  0  0  0  0  0
   38.4450   23.3260   37.6510 C   0  0  2  0  0  3  0  0  0  0  0  0
   38.1380   25.5530   36.9480 O   0  0  0  0  0  0  0  0  0  0  0  0
   37.4900   25.5910   37.7190 H   0  0  0  0  0  0  0  0  0  0  0  0
   37.3780   22.4460   37.8980 O   0  0  0  0  0  0  0  0  0  0  0  0
   37.6280   21.8560   38.6450 H   0  0  0  0  0  0  0  0  0  0  0  0
  1  6  1  0  0  0  0
  2  1  2  0  0  0  0
  2  3  1  0  0  0  0
  3  4  2  0  0  0  0
  4  5  1  0  0  0  0
  4  9  1  0  0  0  0
  6  5  2  0  0  0  0
  7  2  1  0  0  0  0
  8  3  1  0  0  0  0
 10 17  1  0  0  0  0
 10 11  1  0  0  0  0
 11 20  1  0  0  0  0
 12 11  2  0  0  0  0
 12  1  1  0  0  0  0
 13 12  1  0  0  0  0
 14 15  1  0  0  0  0
 14 13  2  0  0  0  0
 15 10  2  0  0  0  0
 16 14  1  0  0  0  0
 18 16  1  0  0  0  0
 19 16  1  0  0  0  0
 20 21  1  0  0  0  0
 20 22  1  0  0  0  0
 20 23  1  0  0  0  0
 24 29  1  1  0  0  0
 24 28  1  0  0  0  0
 25  5  1  1  0  0  0
 25 26  1  0  0  0  0
 25 24  1  0  0  0  0
 26 27  1  0  0  0  0
 27 28  1  0  0  0  0
 28 31  1  6  0  0  0
 29 30  1  0  0  0  0
 31 32  1  0  0  0  0
M  END
>  <minimizedAffinity>
-5.95990181

$$$$

 OpenBabel03272507593D

 32 34  0  0  1  0  0  0  0  0999 V2000
   38.6190   22.9210   34.3070 C   0  0  0  0  0  0  0  0  0  0  0  0
   38.4540   24.2560   33.9120 C   0  0  0  0  0  0  0  0  0  0  0  0
   37.5890   24.5570   32.8760 C   0  0  0  0  0  0  0  0  0  0  0  0
   36.8960   23.5420   32.2380 C   0  0  0  0  0  0  0  0  0  0  0  0
   37.0840   22.2450   32.6530 C   0  0  0  0  0  0  0  0  0  0  0  0
   37.9320   21.9650   33.6660 N   0  0  0  0  0  0  0  0  0  0  0  0
   38.9300   25.1450   34.3210 H   0  0  0  0  0  0  0  0  0  0  0  0
   37.4060   25.5590   32.5130 H   0  0  0  0  0  0  0  0  0  0  0  0
   36.2170   23.7210   31.4340 H   0  0  0  0  0  0  0  0  0  0  0  0
   40.0720   22.7550   37.7700 C   0  0  0  0  0  0  0  0  0  0  0  0
   39.1190   22.8940   36.7190 C   0  0  0  0  0  0  0  0  0  0  0  0
   39.5590   22.7860   35.4020 C   0  0  0  0  0  0  0  0  0  0  0  0
   40.8970   22.5510   35.1950 N   0  0  0  0  0  0  0  0  0  0  0  0
   41.7660   22.4270   36.2290 C   0  0  0  0  0  0  0  0  0  0  0  0
   41.3680   22.5270   37.5010 N   0  0  0  0  0  0  0  0  0  0  0  0
   43.0870   22.1890   35.7540 N   0  0  0  0  0  0  0  0  0  0  0  0
   39.7460   22.8370   38.8040 H   0  0  0  0  0  0  0  0  0  0  0  0
   43.5290   22.8820   35.1000 H   0  0  0  0  0  0  0  0  0  0  0  0
   43.6200   21.3190   36.0560 H   0  0  0  0  0  0  0  0  0  0  0  0
   37.6990   23.1460   37.0690 C   0  0  0  0  0  0  0  0  0  0  0  0
   36.8560   22.2100   36.4890 F   0  0  0  0  0  0  0  0  0  0  0  0
   37.5600   23.0750   38.4270 F   0  0  0  0  0  0  0  0  0  0  0  0
   37.2570   24.3970   36.6650 F   0  0  0  0  0  0  0  0  0  0  0  0
   35.2260   20.6020   32.8170 C   0  0  1  0  0  3  0  0  0  0  0  0
   36.3600   21.1260   31.9950 C   0  0  2  0  0  3  0  0  0  0  0  0
   37.1970   20.0020   31.8130 O   0  0  0  0  0  0  0  0  0  0  0  0
   36.2590   19.1010   31.3070 C   0  0  0  0  0  2  0  0  0  0  0  0
   35.1790   19.1470   32.3520 C   0  0  2  0  0  3  0  0  0  0  0  0
   35.5140   20.5890   34.1830 O   0  0  0  0  0  0  0  0  0  0  0  0
   34.7730   20.0490   34.6030 H   0  0  0  0  0  0  0  0  0  0  0  0
   33.9130   18.8870   31.8010 O   0  0  0  0  0  0  0  0  0  0  0  0
   33.8920   17.9530   31.4950 H   0  0  0  0  0  0  0  0  0  0  0  0
  1 12  1  0  0  0  0
  2  1  1  0  0  0  0
  2  7  1  0  0  0  0
  3  2  2  0  0  0  0
  4  5  2  0  0  0  0
  4  3  1  0  0  0  0
  5  6  1  0  0  0  0
  6  1  2  0  0  0  0
  8  3  1  0  0  0  0
  9  4  1  0  0  0  0
 10 17  1  0  0  0  0
 11 20  1  0  0  0  0
 11 10  2  0  0  0  0
 12 11  1  0  0  0  0
 13 12  2  0  0  0  0
 13 14  1  0  0  0  0
 14 15  2  0  0  0  0
 15 10  1  0  0  0  0
 16 19  1  0  0  0  0
 16 14  1  0  0  0  0
 18 16  1  0  0  0  0
 20 22  1  0  0  0  0
 21 20  1  0  0  0  0
 23 20  1  0  0  0  0
 24 29  1  1  0  0  0
 25  5  1  1  0  0  0
 25 24  1  0  0  0  0
 26 25  1  0  0  0  0
 27 26  1  0  0  0  0
 27 28  1  0  0  0  0
 28 31  1  6  0  0  0
 28 24  1  0  0  0  0
 29 30  1  0  0  0  0
 32 31  1  0  0  0  0
M  END
>  <minimizedAffinity>
-5.9177537

$$$$

 OpenBabel03272507593D

 32 34  0  0  1  0  0  0  0  0999 V2000
   38.2600   24.3770   32.7800 C   0  0  0  0  0  0  0  0  0  0  0  0
   39.4020   24.4420   31.9700 C   0  0  0  0  0  0  0  0  0  0  0  0
   40.6010   23.9390   32.4420 C   0  0  0  0  0  0  0  0  0  0  0  0
   40.6630   23.3780   33.7060 C   0  0  0  0  0  0  0  0  0  0  0  0
   39.5220   23.3330   34.4720 C   0  0  0  0  0  0  0  0  0  0  0  0
   38.3590   23.8280   33.9980 N   0  0  0  0  0  0  0  0  0  0  0  0
   39.4960   24.8510   30.9650 H   0  0  0  0  0  0  0  0  0  0  0  0
   41.5250   23.9500   31.8800 H   0  0  0  0  0  0  0  0  0  0  0  0
   41.5620   22.9750   34.1170 H   0  0  0  0  0  0  0  0  0  0  0  0
   35.0210   24.7170   30.9020 C   0  0  0  0  0  0  0  0  0  0  0  0
   36.1520   24.1190   31.5290 C   0  0  0  0  0  0  0  0  0  0  0  0
   37.0960   24.9490   32.1310 C   0  0  0  0  0  0  0  0  0  0  0  0
   36.8760   26.3040   32.0820 N   0  0  0  0  0  0  0  0  0  0  0  0
   35.7820   26.8260   31.4730 C   0  0  0  0  0  0  0  0  0  0  0  0
   34.8640   26.0510   30.8880 N   0  0  0  0  0  0  0  0  0  0  0  0
   35.7850   28.2470   31.5580 N   0  0  0  0  0  0  0  0  0  0  0  0
   34.2750   24.0840   30.4270 H   0  0  0  0  0  0  0  0  0  0  0  0
   36.6010   28.7820   31.1710 H   0  0  0  0  0  0  0  0  0  0  0  0
   34.9710   28.7610   32.0090 H   0  0  0  0  0  0  0  0  0  0  0  0
   36.2800   22.6410   31.5170 C   0  0  0  0  0  0  0  0  0  0  0  0
   36.1880   22.1100   32.7950 F   0  0  0  0  0  0  0  0  0  0  0  0
   35.2740   22.1170   30.7540 F   0  0  0  0  0  0  0  0  0  0  0  0
   37.4840   22.2070   30.9830 F   0  0  0  0  0  0  0  0  0  0  0  0
   38.6470   23.4490   36.7960 C   0  0  1  0  0  3  0  0  0  0  0  0
   39.5460   22.7400   35.8340 C   0  0  2  0  0  3  0  0  0  0  0  0
   40.8260   22.8470   36.4240 O   0  0  0  0  0  0  0  0  0  0  0  0
   40.5350   22.3380   37.6910 C   0  0  0  0  0  2  0  0  0  0  0  0
   39.3730   23.1930   38.1150 C   0  0  2  0  0  3  0  0  0  0  0  0
   38.6290   24.8310   36.5960 O   0  0  0  0  0  0  0  0  0  0  0  0
   38.1560   25.2070   37.4030 H   0  0  0  0  0  0  0  0  0  0  0  0
   38.5100   22.5020   38.9820 O   0  0  0  0  0  0  0  0  0  0  0  0
   38.9860   22.3320   39.8260 H   0  0  0  0  0  0  0  0  0  0  0  0
  1  6  1  0  0  0  0
  2  3  1  0  0  0  0
  2  1  2  0  0  0  0
  3  4  2  0  0  0  0
  4  9  1  0  0  0  0
  4  5  1  0  0  0  0
  6  5  2  0  0  0  0
  7  2  1  0  0  0  0
  8  3  1  0  0  0  0
 10 11  1  0  0  0  0
 11 12  2  0  0  0  0
 12  1  1  0  0  0  0
 13 12  1  0  0  0  0
 14 16  1  0  0  0  0
 14 13  2  0  0  0  0
 15 10  2  0  0  0  0
 15 14  1  0  0  0  0
 16 19  1  0  0  0  0
 17 10  1  0  0  0  0
 18 16  1  0  0  0  0
 20 11  1  0  0  0  0
 20 21  1  0  0  0  0
 22 20  1  0  0  0  0
 23 20  1  0  0  0  0
 24 29  1  6  0  0  0
 24 28  1  0  0  0  0
 25  5  1  6  0  0  0
 25 26  1  0  0  0  0
 25 24  1  0  0  0  0
 26 27  1  0  0  0  0
 27 28  1  0  0  0  0
 28 31  1  1  0  0  0
 29 30  1  0  0  0  0
 31 32  1  0  0  0  0
M  END
>  <minimizedAffinity>
-5.88416195

$$$$

 OpenBabel03272507593D

 32 34  0  0  1  0  0  0  0  0999 V2000
   39.5810   24.9970   34.9410 C   0  0  0  0  0  0  0  0  0  0  0  0
   40.5930   25.9580   34.8020 C   0  0  0  0  0  0  0  0  0  0  0  0
   40.3790   27.0590   33.9920 C   0  0  0  0  0  0  0  0  0  0  0  0
   39.1730   27.2030   33.3270 C   0  0  0  0  0  0  0  0  0  0  0  0
   38.2050   26.2390   33.4880 C   0  0  0  0  0  0  0  0  0  0  0  0
   38.4270   25.1700   34.2810 N   0  0  0  0  0  0  0  0  0  0  0  0
   41.5800   25.9720   35.2610 H   0  0  0  0  0  0  0  0  0  0  0  0
   41.1060   27.8440   33.8330 H   0  0  0  0  0  0  0  0  0  0  0  0
   38.9570   28.0330   32.6920 H   0  0  0  0  0  0  0  0  0  0  0  0
   39.7150   22.6410   37.8670 C   0  0  0  0  0  0  0  0  0  0  0  0
   39.3030   23.7170   37.0270 C   0  0  0  0  0  0  0  0  0  0  0  0
   39.9730   23.9140   35.8220 C   0  0  0  0  0  0  0  0  0  0  0  0
   40.9990   23.0540   35.5140 N   0  0  0  0  0  0  0  0  0  0  0  0
   41.3540   22.0440   36.3470 C   0  0  0  0  0  0  0  0  0  0  0  0
   40.7280   21.8340   37.5080 N   0  0  0  0  0  0  0  0  0  0  0  0
   42.4390   21.2990   35.8040 N   0  0  0  0  0  0  0  0  0  0  0  0
   39.2040   22.4730   38.8120 H   0  0  0  0  0  0  0  0  0  0  0  0
   43.3340   21.7950   35.5690 H   0  0  0  0  0  0  0  0  0  0  0  0
   42.3440   20.2530   35.6370 H   0  0  0  0  0  0  0  0  0  0  0  0
   38.1800   24.5790   37.4690 C   0  0  0  0  0  0  0  0  0  0  0  0
   36.9900   24.2260   36.8480 F   0  0  0  0  0  0  0  0  0  0  0  0
   38.0240   24.4440   38.8190 F   0  0  0  0  0  0  0  0  0  0  0  0
   38.3930   25.9240   37.2010 F   0  0  0  0  0  0  0  0  0  0  0  0
   36.5390   25.1300   32.0140 C   0  0  1  0  0  3  0  0  0  0  0  0
   36.8970   26.3560   32.7920 C   0  0  2  0  0  3  0  0  0  0  0  0
   36.9160   27.3810   31.8200 O   0  0  0  0  0  0  0  0  0  0  0  0
   35.6500   27.1900   31.2650 C   0  0  0  0  0  2  0  0  0  0  0  0
   35.6790   25.7310   30.9040 C   0  0  2  0  0  3  0  0  0  0  0  0
   37.6460   24.5380   31.4040 O   0  0  0  0  0  0  0  0  0  0  0  0
   37.2620   23.8550   30.7680 H   0  0  0  0  0  0  0  0  0  0  0  0
   34.3980   25.1570   30.9600 O   0  0  0  0  0  0  0  0  0  0  0  0
   33.8470   25.5550   30.2490 H   0  0  0  0  0  0  0  0  0  0  0  0
  1 12  1  0  0  0  0
  2  1  1  0  0  0  0
  2  7  1  0  0  0  0
  3  2  2  0  0  0  0
  4  5  2  0  0  0  0
  4  3  1  0  0  0  0
  5  6  1  0  0  0  0
  6  1  2  0  0  0  0
  8  3  1  0  0  0  0
  9  4  1  0  0  0  0
 10 17  1  0  0  0  0
 11 20  1  0  0  0  0
 11 10  2  0  0  0  0
 12 11  1  0  0  0  0
 13 12  2  0  0  0  0
 13 14  1  0  0  0  0
 14 15  2  0  0  0  0
 15 10  1  0  0  0  0
 16 14  1  0  0  0  0
 18 16  1  0  0  0  0
 19 16  1  0  0  0  0
 20 22  1  0  0  0  0
 21 20  1  0  0  0  0
 23 20  1  0  0  0  0
 24 29  1  6  0  0  0
 24 25  1  0  0  0  0
 25  5  1  6  0  0  0
 26 25  1  0  0  0  0
 27 26  1  0  0  0  0
 28 31  1  1  0  0  0
 28 27  1  0  0  0  0
 28 24  1  0  0  0  0
 30 29  1  0  0  0  0
 32 31  1  0  0  0  0
M  END
>  <minimizedAffinity>
-5.83689356

$$$$

 OpenBabel03272507593D

 32 34  0  0  1  0  0  0  0  0999 V2000
   37.5680   24.8140   32.8950 C   0  0  0  0  0  0  0  0  0  0  0  0
   36.6880   23.9030   32.2940 C   0  0  0  0  0  0  0  0  0  0  0  0
   36.8020   22.5550   32.5840 C   0  0  0  0  0  0  0  0  0  0  0  0
   37.7800   22.1180   33.4620 C   0  0  0  0  0  0  0  0  0  0  0  0
   38.6240   23.0420   34.0310 C   0  0  0  0  0  0  0  0  0  0  0  0
   38.5020   24.3540   33.7390 N   0  0  0  0  0  0  0  0  0  0  0  0
   35.8810   24.1050   31.5930 H   0  0  0  0  0  0  0  0  0  0  0  0
   36.1640   21.7900   32.1640 H   0  0  0  0  0  0  0  0  0  0  0  0
   37.9090   21.0900   33.7190 H   0  0  0  0  0  0  0  0  0  0  0  0
   37.0220   28.5330   32.9790 C   0  0  0  0  0  0  0  0  0  0  0  0
   37.2790   27.2030   33.4240 C   0  0  0  0  0  0  0  0  0  0  0  0
   37.3090   26.1790   32.4810 C   0  0  0  0  0  0  0  0  0  0  0  0
   37.0870   26.5170   31.1670 N   0  0  0  0  0  0  0  0  0  0  0  0
   36.8470   27.7970   30.7930 C   0  0  0  0  0  0  0  0  0  0  0  0
   36.8120   28.7970   31.6790 N   0  0  0  0  0  0  0  0  0  0  0  0
   36.6500   27.8840   29.3850 N   0  0  0  0  0  0  0  0  0  0  0  0
   36.9950   29.3440   33.7030 H   0  0  0  0  0  0  0  0  0  0  0  0
   35.8880   27.3160   28.9380 H   0  0  0  0  0  0  0  0  0  0  0  0
   37.2670   28.5170   28.7930 H   0  0  0  0  0  0  0  0  0  0  0  0
   37.5040   26.9640   34.8710 C   0  0  0  0  0  0  0  0  0  0  0  0
   36.6660   25.9730   35.3620 F   0  0  0  0  0  0  0  0  0  0  0  0
   38.7990   26.5700   35.0570 F   0  0  0  0  0  0  0  0  0  0  0  0
   37.2910   28.0950   35.6460 F   0  0  0  0  0  0  0  0  0  0  0  0
   39.1660   22.3280   36.3500 C   0  0  1  0  0  3  0  0  0  0  0  0
   39.6870   22.6140   34.9780 C   0  0  2  0  0  3  0  0  0  0  0  0
   40.6410   23.6370   35.1830 O   0  0  0  0  0  0  0  0  0  0  0  0
   41.4190   23.0260   36.1670 C   0  0  0  0  0  2  0  0  0  0  0  0
   40.3920   22.6570   37.2000 C   0  0  2  0  0  3  0  0  0  0  0  0
   38.1500   23.2050   36.7330 O   0  0  0  0  0  0  0  0  0  0  0  0
   38.0190   23.0420   37.7190 H   0  0  0  0  0  0  0  0  0  0  0  0
   40.7670   21.5100   37.9190 O   0  0  0  0  0  0  0  0  0  0  0  0
   41.5620   21.7250   38.4570 H   0  0  0  0  0  0  0  0  0  0  0  0
  1  6  1  0  0  0  0
  2  3  1  0  0  0  0
  2  1  2  0  0  0  0
  3  4  2  0  0  0  0
  4  9  1  0  0  0  0
  4  5  1  0  0  0  0
  6  5  2  0  0  0  0
  7  2  1  0  0  0  0
  8  3  1  0  0  0  0
 10 11  1  0  0  0  0
 10 17  1  0  0  0  0
 11 20  1  0  0  0  0
 12  1  1  0  0  0  0
 12 11  2  0  0  0  0
 13 12  1  0  0  0  0
 14 13  2  0  0  0  0
 14 15  1  0  0  0  0
 15 10  2  0  0  0  0
 16 14  1  0  0  0  0
 18 16  1  0  0  0  0
 19 16  1  0  0  0  0
 20 22  1  0  0  0  0
 20 21  1  0  0  0  0
 20 23  1  0  0  0  0
 24 29  1  1  0  0  0
 24 28  1  0  0  0  0
 25  5  1  6  0  0  0
 25 26  1  0  0  0  0
 25 24  1  0  0  0  0
 26 27  1  0  0  0  0
 27 28  1  0  0  0  0
 28 31  1  6  0  0  0
 29 30  1  0  0  0  0
 31 32  1  0  0  0  0
M  END
>  <minimizedAffinity>
-5.81863403

$$$$

 OpenBabel03272507593D

 32 34  0  0  1  0  0  0  0  0999 V2000
   37.5350   22.9400   32.3440 C   0  0  0  0  0  0  0  0  0  0  0  0
   37.0900   24.1150   31.7220 C   0  0  0  0  0  0  0  0  0  0  0  0
   37.0970   25.3040   32.4290 C   0  0  0  0  0  0  0  0  0  0  0  0
   37.5410   25.3240   33.7400 C   0  0  0  0  0  0  0  0  0  0  0  0
   37.9700   24.1520   34.3160 C   0  0  0  0  0  0  0  0  0  0  0  0
   37.9570   22.9980   33.6140 N   0  0  0  0  0  0  0  0  0  0  0  0
   36.7180   24.2440   30.7070 H   0  0  0  0  0  0  0  0  0  0  0  0
   36.7710   26.2520   32.0220 H   0  0  0  0  0  0  0  0  0  0  0  0
   37.5670   26.2140   34.3290 H   0  0  0  0  0  0  0  0  0  0  0  0
   36.3030   19.8410   30.6100 C   0  0  0  0  0  0  0  0  0  0  0  0
   36.3430   20.9590   31.4920 C   0  0  0  0  0  0  0  0  0  0  0  0
   37.4590   21.7920   31.4620 C   0  0  0  0  0  0  0  0  0  0  0  0
   38.4620   21.4810   30.5750 N   0  0  0  0  0  0  0  0  0  0  0  0
   38.3780   20.4050   29.7550 C   0  0  0  0  0  0  0  0  0  0  0  0
   37.3180   19.5910   29.7660 N   0  0  0  0  0  0  0  0  0  0  0  0
   39.5380   20.3000   28.9370 N   0  0  0  0  0  0  0  0  0  0  0  0
   35.4400   19.1790   30.6200 H   0  0  0  0  0  0  0  0  0  0  0  0
   40.4820   20.2300   29.3920 H   0  0  0  0  0  0  0  0  0  0  0  0
   39.4520   20.2940   27.8770 H   0  0  0  0  0  0  0  0  0  0  0  0
   35.1970   21.1920   32.4050 C   0  0  0  0  0  0  0  0  0  0  0  0
   34.6950   22.4780   32.2770 F   0  0  0  0  0  0  0  0  0  0  0  0
   34.2030   20.3040   32.1010 F   0  0  0  0  0  0  0  0  0  0  0  0
   35.5260   21.0150   33.7410 F   0  0  0  0  0  0  0  0  0  0  0  0
   38.3080   22.7900   36.3680 C   0  0  1  0  0  3  0  0  0  0  0  0
   38.4540   24.1300   35.7210 C   0  0  2  0  0  3  0  0  0  0  0  0
   37.6940   24.9900   36.5450 O   0  0  0  0  0  0  0  0  0  0  0  0
   38.2700   24.6880   37.7800 C   0  0  0  0  0  2  0  0  0  0  0  0
   38.1400   23.1920   37.8330 C   0  0  2  0  0  3  0  0  0  0  0  0
   37.1380   22.1320   35.9840 O   0  0  0  0  0  0  0  0  0  0  0  0
   37.0560   21.3510   36.6160 H   0  0  0  0  0  0  0  0  0  0  0  0
   39.1720   22.6070   38.5850 O   0  0  0  0  0  0  0  0  0  0  0  0
   39.0640   22.8770   39.5250 H   0  0  0  0  0  0  0  0  0  0  0  0
  1  6  1  0  0  0  0
  2  1  2  0  0  0  0
  2  3  1  0  0  0  0
  3  4  2  0  0  0  0
  4  5  1  0  0  0  0
  4  9  1  0  0  0  0
  6  5  2  0  0  0  0
  7  2  1  0  0  0  0
  8  3  1  0  0  0  0
 10 17  1  0  0  0  0
 10 11  1  0  0  0  0
 11 20  1  0  0  0  0
 12 11  2  0  0  0  0
 12  1  1  0  0  0  0
 13 12  1  0  0  0  0
 14 15  1  0  0  0  0
 14 13  2  0  0  0  0
 15 10  2  0  0  0  0
 16 18  1  0  0  0  0
 16 14  1  0  0  0  0
 19 16  1  0  0  0  0
 20 23  1  0  0  0  0
 21 20  1  0  0  0  0
 22 20  1  0  0  0  0
 24 29  1  6  0  0  0
 24 28  1  0  0  0  0
 25  5  1  6  0  0  0
 25 24  1  0  0  0  0
 25 26  1  0  0  0  0
 26 27  1  0  0  0  0
 27 28  1  0  0  0  0
 28 31  1  1  0  0  0
 29 30  1  0  0  0  0
 31 32  1  0  0  0  0
M  END
>  <minimizedAffinity>
-5.81454277

$$$$

 OpenBabel03272507593D

 32 34  0  0  1  0  0  0  0  0999 V2000
   37.9800   25.8830   34.1540 C   0  0  0  0  0  0  0  0  0  0  0  0
   37.3420   26.7720   35.0310 C   0  0  0  0  0  0  0  0  0  0  0  0
   36.7190   27.8980   34.5230 C   0  0  0  0  0  0  0  0  0  0  0  0
   36.7300   28.1370   33.1590 C   0  0  0  0  0  0  0  0  0  0  0  0
   37.3660   27.2420   32.3320 C   0  0  0  0  0  0  0  0  0  0  0  0
   37.9700   26.1480   32.8400 N   0  0  0  0  0  0  0  0  0  0  0  0
   37.2570   26.7090   36.1140 H   0  0  0  0  0  0  0  0  0  0  0  0
   36.2060   28.6310   35.1300 H   0  0  0  0  0  0  0  0  0  0  0  0
   36.2640   28.9900   32.7170 H   0  0  0  0  0  0  0  0  0  0  0  0
   40.5010   23.6370   35.8070 C   0  0  0  0  0  0  0  0  0  0  0  0
   39.9470   24.7540   35.1170 C   0  0  0  0  0  0  0  0  0  0  0  0
   38.5800   24.7630   34.8530 C   0  0  0  0  0  0  0  0  0  0  0  0
   37.8420   23.6830   35.2760 N   0  0  0  0  0  0  0  0  0  0  0  0
   38.4150   22.6420   35.9290 C   0  0  0  0  0  0  0  0  0  0  0  0
   39.7250   22.6110   36.1940 N   0  0  0  0  0  0  0  0  0  0  0  0
   37.4440   21.6560   36.2590 N   0  0  0  0  0  0  0  0  0  0  0  0
   41.5670   23.6130   36.0210 H   0  0  0  0  0  0  0  0  0  0  0  0
   36.8720   21.2220   35.4920 H   0  0  0  0  0  0  0  0  0  0  0  0
   37.2970   21.3610   37.2710 H   0  0  0  0  0  0  0  0  0  0  0  0
   40.8470   25.8620   34.7100 C   0  0  0  0  0  0  0  0  0  0  0  0
   40.3840   27.0880   35.1640 F   0  0  0  0  0  0  0  0  0  0  0  0
   42.0870   25.6400   35.2400 F   0  0  0  0  0  0  0  0  0  0  0  0
   40.9890   25.9650   33.3340 F   0  0  0  0  0  0  0  0  0  0  0  0
   38.7510   27.2180   30.2680 C   0  0  1  0  0  3  0  0  0  0  0  0
   37.4010   27.4620   30.8620 C   0  0  2  0  0  3  0  0  0  0  0  0
   37.1220   28.8070   30.5320 O   0  0  0  0  0  0  0  0  0  0  0  0
   37.3340   28.7510   29.1540 C   0  0  0  0  0  2  0  0  0  0  0  0
   38.7160   28.1660   29.0700 C   0  0  2  0  0  3  0  0  0  0  0  0
   39.7890   27.6430   31.1000 O   0  0  0  0  0  0  0  0  0  0  0  0
   40.6170   27.6080   30.5250 H   0  0  0  0  0  0  0  0  0  0  0  0
   38.8920   27.4180   27.8930 O   0  0  0  0  0  0  0  0  0  0  0  0
   38.8590   28.0320   27.1260 H   0  0  0  0  0  0  0  0  0  0  0  0
  1 12  1  0  0  0  0
  1  2  1  0  0  0  0
  2  7  1  0  0  0  0
  3  2  2  0  0  0  0
  3  8  1  0  0  0  0
  4  3  1  0  0  0  0
  5  6  1  0  0  0  0
  5  4  2  0  0  0  0
  6  1  2  0  0  0  0
  9  4  1  0  0  0  0
 10 17  1  0  0  0  0
 10 15  1  0  0  0  0
 11 10  2  0  0  0  0
 12 11  1  0  0  0  0
 12 13  2  0  0  0  0
 13 14  1  0  0  0  0
 14 15  2  0  0  0  0
 14 16  1  0  0  0  0
 16 19  1  0  0  0  0
 18 16  1  0  0  0  0
 20 11  1  0  0  0  0
 20 21  1  0  0  0  0
 20 22  1  0  0  0  0
 23 20  1  0  0  0  0
 24 25  1  0  0  0  0
 24 29  1  1  0  0  0
 25  5  1  1  0  0  0
 26 25  1  0  0  0  0
 27 26  1  0  0  0  0
 28 31  1  6  0  0  0
 28 27  1  0  0  0  0
 28 24  1  0  0  0  0
 30 29  1  0  0  0  0
 32 31  1  0  0  0  0
M  END
>  <minimizedAffinity>
-5.75400591

$$$$

 OpenBabel03272507593D

 32 34  0  0  1  0  0  0  0  0999 V2000
   38.4180   22.8030   34.1870 C   0  0  0  0  0  0  0  0  0  0  0  0
   37.9120   21.5760   33.7360 C   0  0  0  0  0  0  0  0  0  0  0  0
   36.9450   21.5600   32.7460 C   0  0  0  0  0  0  0  0  0  0  0  0
   36.4870   22.7520   32.2110 C   0  0  0  0  0  0  0  0  0  0  0  0
   37.0060   23.9350   32.6790 C   0  0  0  0  0  0  0  0  0  0  0  0
   37.9490   23.9360   33.6450 N   0  0  0  0  0  0  0  0  0  0  0  0
   38.1790   20.5730   34.0640 H   0  0  0  0  0  0  0  0  0  0  0  0
   36.5060   20.6570   32.3440 H   0  0  0  0  0  0  0  0  0  0  0  0
   35.7430   22.7950   31.4460 H   0  0  0  0  0  0  0  0  0  0  0  0
   40.0900   22.6560   37.5500 C   0  0  0  0  0  0  0  0  0  0  0  0
   39.0800   22.8310   36.5600 C   0  0  0  0  0  0  0  0  0  0  0  0
   39.4180   22.6350   35.2220 C   0  0  0  0  0  0  0  0  0  0  0  0
   40.7150   22.2830   34.9380 N   0  0  0  0  0  0  0  0  0  0  0  0
   41.6410   22.1280   35.9170 C   0  0  0  0  0  0  0  0  0  0  0  0
   41.3420   22.3100   37.2060 N   0  0  0  0  0  0  0  0  0  0  0  0
   42.9020   21.7630   35.3670 N   0  0  0  0  0  0  0  0  0  0  0  0
   39.8430   22.8050   38.5990 H   0  0  0  0  0  0  0  0  0  0  0  0
   43.3520   22.3910   34.6550 H   0  0  0  0  0  0  0  0  0  0  0  0
   43.3840   20.8650   35.6720 H   0  0  0  0  0  0  0  0  0  0  0  0
   37.7130   23.2120   36.9910 C   0  0  0  0  0  0  0  0  0  0  0  0
   36.7670   22.2920   36.5630 F   0  0  0  0  0  0  0  0  0  0  0  0
   37.6800   23.2690   38.3560 F   0  0  0  0  0  0  0  0  0  0  0  0
   37.3200   24.4520   36.5080 F   0  0  0  0  0  0  0  0  0  0  0  0
   37.2520   25.6300   30.8770 C   0  0  1  0  0  3  0  0  0  0  0  0
   36.5400   25.2360   32.1320 C   0  0  2  0  0  3  0  0  0  0  0  0
   36.8090   26.3000   33.0220 O   0  0  0  0  0  0  0  0  0  0  0  0
   36.3920   27.3700   32.2300 C   0  0  0  0  0  2  0  0  0  0  0  0
   37.1780   27.1530   30.9670 C   0  0  2  0  0  3  0  0  0  0  0  0
   38.6040   25.2810   30.8940 O   0  0  0  0  0  0  0  0  0  0  0  0
   39.0080   25.7570   30.1020 H   0  0  0  0  0  0  0  0  0  0  0  0
   36.4940   27.6420   29.8400 O   0  0  0  0  0  0  0  0  0  0  0  0
   36.4410   28.6210   29.9080 H   0  0  0  0  0  0  0  0  0  0  0  0
  1 12  1  0  0  0  0
  2  7  1  0  0  0  0
  2  1  1  0  0  0  0
  3  2  2  0  0  0  0
  4  5  2  0  0  0  0
  4  3  1  0  0  0  0
  5  6  1  0  0  0  0
  6  1  2  0  0  0  0
  8  3  1  0  0  0  0
  9  4  1  0  0  0  0
 10 17  1  0  0  0  0
 11 20  1  0  0  0  0
 11 10  2  0  0  0  0
 12 11  1  0  0  0  0
 13 12  2  0  0  0  0
 13 14  1  0  0  0  0
 14 15  2  0  0  0  0
 15 10  1  0  0  0  0
 16 19  1  0  0  0  0
 16 14  1  0  0  0  0
 18 16  1  0  0  0  0
 20 22  1  0  0  0  0
 21 20  1  0  0  0  0
 23 20  1  0  0  0  0
 24 29  1  1  0  0  0
 24 28  1  0  0  0  0
 24 25  1  0  0  0  0
 25  5  1  1  0  0  0
 25 26  1  0  0  0  0
 27 26  1  0  0  0  0
 28 31  1  6  0  0  0
 28 27  1  0  0  0  0
 30 29  1  0  0  0  0
 31 32  1  0  0  0  0
M  END
>  <minimizedAffinity>
-5.59316921

$$$$

 OpenBabel03272507593D

 32 34  0  0  1  0  0  0  0  0999 V2000
   37.2470   25.0340   32.4740 C   0  0  0  0  0  0  0  0  0  0  0  0
   36.4240   26.0430   31.9550 C   0  0  0  0  0  0  0  0  0  0  0  0
   35.3460   25.7000   31.1590 C   0  0  0  0  0  0  0  0  0  0  0  0
   35.0900   24.3680   30.8810 C   0  0  0  0  0  0  0  0  0  0  0  0
   35.9200   23.4070   31.4070 C   0  0  0  0  0  0  0  0  0  0  0  0
   36.9680   23.7560   32.1830 N   0  0  0  0  0  0  0  0  0  0  0  0
   36.5070   27.1200   32.0910 H   0  0  0  0  0  0  0  0  0  0  0  0
   34.6640   26.4170   30.7210 H   0  0  0  0  0  0  0  0  0  0  0  0
   34.2720   24.0500   30.2730 H   0  0  0  0  0  0  0  0  0  0  0  0
   40.6820   25.9230   33.7150 C   0  0  0  0  0  0  0  0  0  0  0  0
   39.6490   25.3820   32.8960 C   0  0  0  0  0  0  0  0  0  0  0  0
   38.3250   25.5690   33.2830 C   0  0  0  0  0  0  0  0  0  0  0  0
   38.0930   26.2700   34.4420 N   0  0  0  0  0  0  0  0  0  0  0  0
   39.1100   26.7660   35.1890 C   0  0  0  0  0  0  0  0  0  0  0  0
   40.3890   26.5990   34.8380 N   0  0  0  0  0  0  0  0  0  0  0  0
   38.6110   27.4480   36.3340 N   0  0  0  0  0  0  0  0  0  0  0  0
   41.7220   25.7860   33.4280 H   0  0  0  0  0  0  0  0  0  0  0  0
   37.9960   26.9320   37.0100 H   0  0  0  0  0  0  0  0  0  0  0  0
   38.8570   28.4690   36.5040 H   0  0  0  0  0  0  0  0  0  0  0  0
   40.0260   24.6430   31.6650 C   0  0  0  0  0  0  0  0  0  0  0  0
   39.3320   25.1090   30.5580 F   0  0  0  0  0  0  0  0  0  0  0  0
   41.3640   24.8080   31.4430 F   0  0  0  0  0  0  0  0  0  0  0  0
   39.7780   23.2810   31.7550 F   0  0  0  0  0  0  0  0  0  0  0  0
   35.0510   21.2490   32.2860 C   0  0  1  0  0  3  0  0  0  0  0  0
   35.6800   21.9660   31.1330 C   0  0  2  0  0  3  0  0  0  0  0  0
   36.8910   21.2700   30.9200 O   0  0  0  0  0  0  0  0  0  0  0  0
   36.3890   19.9720   30.8110 C   0  0  0  0  0  2  0  0  0  0  0  0
   35.5880   19.8340   32.0750 C   0  0  2  0  0  3  0  0  0  0  0  0
   35.5300   21.6930   33.5200 O   0  0  0  0  0  0  0  0  0  0  0  0
   35.1880   21.0220   34.1900 H   0  0  0  0  0  0  0  0  0  0  0  0
   34.5030   18.9570   31.9090 O   0  0  0  0  0  0  0  0  0  0  0  0
   34.8560   18.0500   31.7650 H   0  0  0  0  0  0  0  0  0  0  0  0
  1 12  1  0  0  0  0
  2  7  1  0  0  0  0
  2  1  2  0  0  0  0
  3  2  1  0  0  0  0
  4  3  2  0  0  0  0
  4  5  1  0  0  0  0
  5  6  2  0  0  0  0
  6  1  1  0  0  0  0
  8  3  1  0  0  0  0
  9  4  1  0  0  0  0
 10 15  1  0  0  0  0
 11 12  1  0  0  0  0
 11 10  2  0  0  0  0
 12 13  2  0  0  0  0
 13 14  1  0  0  0  0
 14 16  1  0  0  0  0
 15 14  2  0  0  0  0
 16 19  1  0  0  0  0
 16 18  1  0  0  0  0
 17 10  1  0  0  0  0
 20 23  1  0  0  0  0
 20 11  1  0  0  0  0
 21 20  1  0  0  0  0
 22 20  1  0  0  0  0
 24 29  1  1  0  0  0
 25  5  1  1  0  0  0
 25 24  1  0  0  0  0
 26 25  1  0  0  0  0
 27 26  1  0  0  0  0
 27 28  1  0  0  0  0
 28 31  1  6  0  0  0
 28 24  1  0  0  0  0
 29 30  1  0  0  0  0
 32 31  1  0  0  0  0
M  END
>  <minimizedAffinity>
-5.51632977

$$$$
