
 OpenBabel03272508533D

 38 41  0  0  1  0  0  0  0  0999 V2000
   38.3750   31.6380   44.2240 C   0  0  0  0  0  0  0  0  0  0  0  0
   37.3060   32.2910   44.1150 O   0  0  0  0  0  0  0  0  0  0  0  0
   38.9160   31.3480   45.5270 N   0  0  0  0  0  0  0  0  0  0  0  0
   39.8670   30.9920   45.6790 H   0  0  0  0  0  0  0  0  0  0  0  0
   39.1030   31.1530   43.0360 C   0  0  0  0  0  0  0  0  0  0  0  0
   40.2460   30.4250   43.2250 C   0  0  0  0  0  0  0  0  0  0  0  0
   40.9200   29.9810   42.0980 C   0  0  0  0  0  0  0  0  0  0  0  0
   40.4020   30.2960   40.8620 C   0  0  0  0  0  0  0  0  0  0  0  0
   39.2330   31.0400   40.6680 C   0  0  0  0  0  0  0  0  0  0  0  0
   38.6260   31.4420   41.8050 N   0  0  0  0  0  0  0  0  0  0  0  0
   40.6580   30.1740   44.1840 H   0  0  0  0  0  0  0  0  0  0  0  0
   41.8180   29.4080   42.1720 H   0  0  0  0  0  0  0  0  0  0  0  0
   40.9010   29.9660   39.9590 H   0  0  0  0  0  0  0  0  0  0  0  0
   39.8230   31.6820   38.3300 C   0  0  1  0  0  3  0  0  0  0  0  0
   38.7440   31.3350   39.3160 C   0  0  2  0  0  3  0  0  0  0  0  0
   37.8220   32.3730   39.2910 O   0  0  0  0  0  0  0  0  0  0  0  0
   38.4850   33.5160   38.9190 C   0  0  0  0  0  2  0  0  0  0  0  0
   39.6480   33.1420   38.0530 C   0  0  2  0  0  3  0  0  0  0  0  0
   41.0780   31.5020   38.9280 O   0  0  0  0  0  0  0  0  0  0  0  0
   41.4550   32.3630   39.2790 H   0  0  0  0  0  0  0  0  0  0  0  0
   39.4010   33.3910   36.6920 O   0  0  0  0  0  0  0  0  0  0  0  0
   38.4530   33.6880   36.5910 H   0  0  0  0  0  0  0  0  0  0  0  0
   38.4360   31.0150   47.9480 C   0  0  2  0  0  0  0  0  0  0  0  0
   38.7430   32.4440   47.7710 C   0  0  0  0  0  0  0  0  0  0  0  0
   38.0590   31.5800   46.6770 C   0  0  1  0  0  0  0  0  0  0  0  0
   39.3520   30.3820   48.0440 H   0  0  0  0  0  0  0  0  0  0  0  0
   38.0980   33.2410   48.1530 H   0  0  0  0  0  0  0  0  0  0  0  0
   39.7800   32.7640   47.5940 H   0  0  0  0  0  0  0  0  0  0  0  0
   36.9920   31.8210   46.4830 H   0  0  0  0  0  0  0  0  0  0  0  0
   35.1110   30.3150   49.4060 C   0  0  0  0  0  0  0  0  0  0  0  0
   35.4450   29.6770   50.6430 C   0  0  0  0  0  0  0  0  0  0  0  0
   36.8500   29.5100   50.9400 C   0  0  0  0  0  0  0  0  0  0  0  0
   37.7650   29.9580   50.0540 N   0  0  0  0  0  0  0  0  0  0  0  0
   37.3750   30.5580   48.8960 C   0  0  0  0  0  0  0  0  0  0  0  0
   36.0550   30.7510   48.5440 N   0  0  0  0  0  0  0  0  0  0  0  0
   34.0520   30.4110   49.2380 H   0  0  0  0  0  0  0  0  0  0  0  0
   34.6920   29.3380   51.3140 H   0  0  0  0  0  0  0  0  0  0  0  0
   37.1330   29.0350   51.8590 H   0  0  0  0  0  0  0  0  0  0  0  0
  1  3  1  0  0  0  0
  2  1  2  0  0  0  0
  3  4  1  0  0  0  0
  3 25  1  0  0  0  0
  5  6  1  0  0  0  0
  5  1  1  0  0  0  0
  6 11  1  0  0  0  0
  7 12  1  0  0  0  0
  7  6  2  0  0  0  0
  8  7  1  0  0  0  0
  9  8  2  0  0  0  0
  9 10  1  0  0  0  0
 10  5  2  0  0  0  0
 13  8  1  0  0  0  0
 14 19  1  1  0  0  0
 14 15  1  0  0  0  0
 15  9  1  1  0  0  0
 16 15  1  0  0  0  0
 17 16  1  0  0  0  0
 18 21  1  6  0  0  0
 18 14  1  0  0  0  0
 18 17  1  0  0  0  0
 19 20  1  0  0  0  0
 22 21  1  0  0  0  0
 23 26  1  6  0  0  0
 23 34  1  0  0  0  0
 24 23  1  0  0  0  0
 24 27  1  0  0  0  0
 25 29  1  6  0  0  0
 25 24  1  0  0  0  0
 25 23  1  0  0  0  0
 28 24  1  0  0  0  0
 30 31  1  0  0  0  0
 31 32  2  0  0  0  0
 31 37  1  0  0  0  0
 32 38  1  0  0  0  0
 33 32  1  0  0  0  0
 34 33  2  0  0  0  0
 35 34  1  0  0  0  0
 35 30  2  0  0  0  0
 36 30  1  0  0  0  0
M  END
>  <minimizedAffinity>
-5.00583267

>  <minimizedRMSD>
0.86280334

$$$$
