REMARK  Name = 
REMARK  4 active torsions:
REMARK  status: ('A' for Active; 'I' for Inactive)
REMARK    1  A    between atoms: C_1  and  O_7
REMARK    2  A    between atoms: C_5  and  C_13
REMARK    3  A    between atoms: O_11  and  C_12
REMARK    4  A    between atoms: C_16  and  O_17
REMARK                            x       y       z     vdW  Elec       q    Type
REMARK                         _______ _______ _______ _____ _____    ______ ____
ROOT
ATOM      1  C   UNL     1      37.297  29.995  51.176  0.00  0.00    +0.000 A 
ATOM      2  C   UNL     1      37.949  30.915  50.354  0.00  0.00    +0.000 A 
ATOM      3  C   UNL     1      37.274  31.387  49.234  0.00  0.00    +0.000 A 
ATOM      4  N   UNL     1      36.020  30.929  48.999  0.00  0.00    +0.000 NA
ATOM      5  C   UNL     1      35.409  30.030  49.819  0.00  0.00    +0.000 A 
ATOM      6  N   UNL     1      36.052  29.578  50.889  0.00  0.00    +0.000 NA
ATOM      7  H   UNL     1      38.950  31.309  50.503  0.00  0.00    +0.000 HD
ATOM      8  H   UNL     1      37.702  32.087  48.561  0.00  0.00    +0.000 HD
ENDROOT
BRANCH   5  10
ATOM      9  C   UNL     1      32.982  30.628  49.731  0.00  0.00    +0.000 C 
ATOM     10  C   UNL     1      34.051  29.577  49.505  0.00  0.00    +0.000 C 
ATOM     11  O   UNL     1      33.643  28.442  50.192  0.00  0.00    +0.000 OA
ATOM     12  C   UNL     1      32.321  28.613  50.579  0.00  0.00    +0.000 C 
ATOM     13  C   UNL     1      31.764  29.694  49.640  0.00  0.00    +0.000 C 
BRANCH   9  14
ATOM     14  O   UNL     1      32.973  31.125  51.017  0.00  0.00    +0.000 OA
ATOM     15  H   UNL     1      33.866  31.402  51.341  0.00  0.00    +0.000 HD
ENDBRANCH   9  14
BRANCH  13  16
ATOM     16  O   UNL     1      31.655  29.113  48.391  0.00  0.00    +0.000 OA
ATOM     17  H   UNL     1      31.532  29.753  47.657  0.00  0.00    +0.000 HD
ENDBRANCH  13  16
ENDBRANCH   5  10
BRANCH   1  18
ATOM     18  O   UNL     1      38.093  29.610  52.260  0.00  0.00    +0.000 OA
ATOM     19  H   UNL     1      38.382  28.641  52.262  0.00  0.00    +0.000 HD
ENDBRANCH   1  18
TORSDOF 4
