REMARK  Name = 
REMARK  6 active torsions:
REMARK  status: ('A' for Active; 'I' for Inactive)
REMARK    1  A    between atoms: N_1  and  C_11
REMARK    2  A    between atoms: C_3  and  C_15
REMARK    3  A    between atoms: N_6  and  C_21
REMARK    4  A    between atoms: C_19  and  C_34
REMARK    5  A    between atoms: O_32  and  C_33
REMARK    6  A    between atoms: C_37  and  O_38
REMARK                            x       y       z     vdW  Elec       q    Type
REMARK                         _______ _______ _______ _____ _____    ______ ____
ROOT
ATOM      1  N   UNL     1      37.370  31.065  47.139  0.00  0.00    +0.000 N 
ATOM      2  C   UNL     1      36.779  30.726  45.970  0.00  0.00    +0.000 A 
ATOM      3  C   UNL     1      37.234  31.193  44.748  0.00  0.00    +0.000 A 
ATOM      4  C   UNL     1      38.349  32.044  44.769  0.00  0.00    +0.000 A 
ATOM      5  O   UNL     1      38.812  32.503  43.695  0.00  0.00    +0.000 OA
ATOM      6  N   UNL     1      38.949  32.387  45.960  0.00  0.00    +0.000 N 
ATOM      7  C   UNL     1      38.410  31.867  47.061  0.00  0.00    +0.000 A 
ATOM      8  O   UNL     1      38.979  32.200  48.117  0.00  0.00    +0.000 OA
ATOM      9  H   UNL     1      35.914  30.063  45.978  0.00  0.00    +0.000 HD
ENDROOT
BRANCH   1  12
ATOM     10  C   UNL     1      37.256  29.476  50.501  0.00  0.00    +0.000 A 
ATOM     11  C   UNL     1      37.733  29.964  49.274  0.00  0.00    +0.000 A 
ATOM     12  C   UNL     1      36.892  30.580  48.362  0.00  0.00    +0.000 A 
ATOM     13  N   UNL     1      35.594  30.692  48.701  0.00  0.00    +0.000 NA
ATOM     14  C   UNL     1      35.098  30.227  49.890  0.00  0.00    +0.000 A 
ATOM     15  N   UNL     1      35.943  29.624  50.775  0.00  0.00    +0.000 NA
ATOM     16  H   UNL     1      37.971  29.007  51.162  0.00  0.00    +0.000 HD
ATOM     17  H   UNL     1      38.773  29.875  48.999  0.00  0.00    +0.000 HD
ATOM     18  H   UNL     1      34.049  30.330  50.138  0.00  0.00    +0.000 HD
ENDBRANCH   1  12
BRANCH   3  19
ATOM     19  C   UNL     1      36.648  30.868  43.476  0.00  0.00    +0.000 A 
ATOM     20  C   UNL     1      37.000  29.768  42.731  0.00  0.00    +0.000 A 
ATOM     21  C   UNL     1      36.470  29.418  41.514  0.00  0.00    +0.000 A 
ATOM     22  C   UNL     1      35.488  30.238  40.971  0.00  0.00    +0.000 A 
ATOM     23  C   UNL     1      35.147  31.349  41.746  0.00  0.00    +0.000 A 
ATOM     24  N   UNL     1      35.698  31.641  42.928  0.00  0.00    +0.000 NA
ATOM     25  H   UNL     1      37.773  29.097  43.128  0.00  0.00    +0.000 HD
ATOM     26  H   UNL     1      36.792  28.535  40.976  0.00  0.00    +0.000 HD
ATOM     27  H   UNL     1      35.019  30.033  40.016  0.00  0.00    +0.000 HD
BRANCH  23  29
ATOM     28  C   UNL     1      33.549  33.075  42.453  0.00  0.00    +0.000 C 
ATOM     29  C   UNL     1      34.106  32.295  41.262  0.00  0.00    +0.000 C 
ATOM     30  O   UNL     1      34.624  33.322  40.501  0.00  0.00    +0.000 OA
ATOM     31  C   UNL     1      33.662  34.302  40.473  0.00  0.00    +0.000 C 
ATOM     32  C   UNL     1      32.766  34.138  41.679  0.00  0.00    +0.000 C 
BRANCH  28  33
ATOM     33  O   UNL     1      32.731  32.292  43.256  0.00  0.00    +0.000 OA
ATOM     34  H   UNL     1      33.032  31.347  43.064  0.00  0.00    +0.000 HD
ENDBRANCH  28  33
BRANCH  32  35
ATOM     35  O   UNL     1      31.580  33.531  41.219  0.00  0.00    +0.000 OA
ATOM     36  H   UNL     1      31.459  32.630  41.641  0.00  0.00    +0.000 HD
ENDBRANCH  32  35
ENDBRANCH  23  29
ENDBRANCH   3  19
BRANCH   6  37
ATOM     37  C   UNL     1      40.088  33.258  45.966  0.00  0.00    +0.000 C 
ATOM     38  F   UNL     1      39.967  34.227  45.031  0.00  0.00    +0.000 F 
ATOM     39  F   UNL     1      41.281  32.607  45.688  0.00  0.00    +0.000 F 
ATOM     40  F   UNL     1      40.175  33.869  47.214  0.00  0.00    +0.000 F 
ENDBRANCH   6  37
TORSDOF 6
