
 OpenBabel03272508183D

 25 27  0  0  1  0  0  0  0  0999 V2000
   38.3300   25.2020   34.1940 C   0  0  0  0  0  0  0  0  0  0  0  0
   38.7200   23.8580   34.0960 C   0  0  0  0  0  0  0  0  0  0  0  0
   38.0280   23.1990   33.0670 C   0  0  0  0  0  0  0  0  0  0  0  0
   37.1070   23.7980   32.2780 N   0  0  0  0  0  0  0  0  0  0  0  0
   36.7830   25.0990   32.4280 C   0  0  0  0  0  0  0  0  0  0  0  0
   37.4030   25.7920   33.3940 N   0  0  0  0  0  0  0  0  0  0  0  0
   38.1710   22.1440   32.8120 H   0  0  0  0  0  0  0  0  0  0  0  0
   36.0890   25.7300   31.9020 H   0  0  0  0  0  0  0  0  0  0  0  0
   39.0830   26.0220   35.2270 C   0  0  0  0  0  0  0  0  0  0  0  0
   38.6590   27.3540   35.5690 C   0  0  0  0  0  0  0  0  0  0  0  0
   38.1980   26.2470   36.4760 C   0  0  0  0  0  0  0  0  0  0  0  0
   40.0820   25.6360   35.5730 H   0  0  0  0  0  0  0  0  0  0  0  0
   37.8790   27.8160   34.8920 H   0  0  0  0  0  0  0  0  0  0  0  0
   39.3010   28.1310   36.0060 H   0  0  0  0  0  0  0  0  0  0  0  0
   37.1590   25.9630   36.3760 H   0  0  0  0  0  0  0  0  0  0  0  0
   38.6860   26.2200   37.4570 H   0  0  0  0  0  0  0  0  0  0  0  0
   39.1720   22.6940   36.2420 C   0  0  2  0  0  3  0  0  0  0  0  0
   39.6670   23.1080   34.8480 C   0  0  2  0  0  3  0  0  0  0  0  0
   40.9220   23.5500   35.0660 O   0  0  0  0  0  0  0  0  0  0  0  0
   41.4490   22.9970   36.1970 C   0  0  0  0  0  2  0  0  0  0  0  0
   40.4270   21.9600   36.6860 C   0  0  1  0  0  3  0  0  0  0  0  0
   38.1080   21.8310   36.0310 O   0  0  0  0  0  0  0  0  0  0  0  0
   38.4430   20.9720   35.7180 H   0  0  0  0  0  0  0  0  0  0  0  0
   40.4890   21.7570   38.0360 O   0  0  0  0  0  0  0  0  0  0  0  0
   41.4590   21.7660   38.3080 H   0  0  0  0  0  0  0  0  0  0  0  0
  1  9  1  0  0  0  0
  2  1  1  0  0  0  0
  3  2  2  0  0  0  0
  4  5  2  0  0  0  0
  4  3  1  0  0  0  0
  5  6  1  0  0  0  0
  6  1  2  0  0  0  0
  7  3  1  0  0  0  0
  8  5  1  0  0  0  0
  9 10  1  0  0  0  0
  9 12  1  0  0  0  0
  9 11  1  0  0  0  0
 10 14  1  0  0  0  0
 10 11  1  0  0  0  0
 11 16  1  0  0  0  0
 13 10  1  0  0  0  0
 15 11  1  0  0  0  0
 17 22  1  6  0  0  0
 17 21  1  0  0  0  0
 18  2  1  1  0  0  0
 18 19  1  0  0  0  0
 18 17  1  0  0  0  0
 19 20  1  0  0  0  0
 20 21  1  0  0  0  0
 21 24  1  1  0  0  0
 23 22  1  0  0  0  0
 24 25  1  0  0  0  0
M  END
>  <minimizedAffinity>
-4.77917767

$$$$

 OpenBabel03272508183D

 25 27  0  0  1  0  0  0  0  0999 V2000
   38.8310   25.5170   33.9750 C   0  0  0  0  0  0  0  0  0  0  0  0
   38.7350   24.3360   34.7260 C   0  0  0  0  0  0  0  0  0  0  0  0
   37.9720   23.3650   34.0580 C   0  0  0  0  0  0  0  0  0  0  0  0
   37.4090   23.5590   32.8430 N   0  0  0  0  0  0  0  0  0  0  0  0
   37.5450   24.7230   32.1750 C   0  0  0  0  0  0  0  0  0  0  0  0
   38.2610   25.6980   32.7550 N   0  0  0  0  0  0  0  0  0  0  0  0
   37.7630   22.3690   34.4590 H   0  0  0  0  0  0  0  0  0  0  0  0
   37.1760   25.0480   31.2190 H   0  0  0  0  0  0  0  0  0  0  0  0
   39.7080   26.6010   34.5780 C   0  0  0  0  0  0  0  0  0  0  0  0
   41.1370   26.4470   34.6440 C   0  0  0  0  0  0  0  0  0  0  0  0
   40.5970   27.2360   33.4830 C   0  0  0  0  0  0  0  0  0  0  0  0
   39.1990   27.4330   35.1390 H   0  0  0  0  0  0  0  0  0  0  0  0
   41.5360   25.4130   34.4160 H   0  0  0  0  0  0  0  0  0  0  0  0
   41.7990   26.9700   35.3470 H   0  0  0  0  0  0  0  0  0  0  0  0
   40.6070   26.7270   32.5280 H   0  0  0  0  0  0  0  0  0  0  0  0
   40.7760   28.3160   33.5360 H   0  0  0  0  0  0  0  0  0  0  0  0
   40.0310   22.6630   36.0250 C   0  0  2  0  0  3  0  0  0  0  0  0
   39.2730   23.9990   36.0000 C   0  0  2  0  0  3  0  0  0  0  0  0
   38.5130   23.9630   37.1130 O   0  0  0  0  0  0  0  0  0  0  0  0
   39.0510   23.1300   38.0500 C   0  0  0  0  0  2  0  0  0  0  0  0
   40.4120   22.6810   37.4970 C   0  0  1  0  0  3  0  0  0  0  0  0
   41.1300   22.8300   35.1980 O   0  0  0  0  0  0  0  0  0  0  0  0
   41.7870   23.3960   35.6400 H   0  0  0  0  0  0  0  0  0  0  0  0
   40.7960   21.4600   37.9740 O   0  0  0  0  0  0  0  0  0  0  0  0
   40.5370   21.4100   38.9470 H   0  0  0  0  0  0  0  0  0  0  0  0
  1  9  1  0  0  0  0
  1  2  1  0  0  0  0
  3  7  1  0  0  0  0
  3  2  2  0  0  0  0
  4  3  1  0  0  0  0
  5  6  1  0  0  0  0
  5  4  2  0  0  0  0
  6  1  2  0  0  0  0
  8  5  1  0  0  0  0
  9 10  1  0  0  0  0
  9 12  1  0  0  0  0
 10 14  1  0  0  0  0
 11 16  1  0  0  0  0
 11  9  1  0  0  0  0
 11 10  1  0  0  0  0
 13 10  1  0  0  0  0
 15 11  1  0  0  0  0
 17 22  1  6  0  0  0
 17 21  1  0  0  0  0
 18  2  1  6  0  0  0
 18 17  1  0  0  0  0
 18 19  1  0  0  0  0
 19 20  1  0  0  0  0
 21 24  1  1  0  0  0
 21 20  1  0  0  0  0
 22 23  1  0  0  0  0
 24 25  1  0  0  0  0
M  END
>  <minimizedAffinity>
-4.59033108

$$$$

 OpenBabel03272508183D

 25 27  0  0  1  0  0  0  0  0999 V2000
   37.7850   25.3770   33.9890 C   0  0  0  0  0  0  0  0  0  0  0  0
   38.6610   25.1680   35.0650 C   0  0  0  0  0  0  0  0  0  0  0  0
   38.7050   26.2880   35.9120 C   0  0  0  0  0  0  0  0  0  0  0  0
   37.9870   27.4150   35.7050 N   0  0  0  0  0  0  0  0  0  0  0  0
   37.1600   27.5450   34.6470 C   0  0  0  0  0  0  0  0  0  0  0  0
   37.0690   26.5140   33.7930 N   0  0  0  0  0  0  0  0  0  0  0  0
   39.3240   26.3480   36.8130 H   0  0  0  0  0  0  0  0  0  0  0  0
   36.5240   28.3510   34.3290 H   0  0  0  0  0  0  0  0  0  0  0  0
   37.6060   24.1890   33.0600 C   0  0  0  0  0  0  0  0  0  0  0  0
   36.8290   24.3020   31.8540 C   0  0  0  0  0  0  0  0  0  0  0  0
   38.3180   24.4560   31.7130 C   0  0  0  0  0  0  0  0  0  0  0  0
   37.9340   23.1790   33.4330 H   0  0  0  0  0  0  0  0  0  0  0  0
   36.2070   25.2420   31.7500 H   0  0  0  0  0  0  0  0  0  0  0  0
   36.3540   23.4640   31.3250 H   0  0  0  0  0  0  0  0  0  0  0  0
   38.6700   25.4670   31.5560 H   0  0  0  0  0  0  0  0  0  0  0  0
   38.8260   23.6130   31.2300 H   0  0  0  0  0  0  0  0  0  0  0  0
   39.1210   23.4140   36.7620 C   0  0  2  0  0  3  0  0  0  0  0  0
   39.4660   24.0450   35.4040 C   0  0  2  0  0  3  0  0  0  0  0  0
   40.8140   24.1020   35.4060 O   0  0  0  0  0  0  0  0  0  0  0  0
   41.3450   23.1660   36.2440 C   0  0  0  0  0  2  0  0  0  0  0  0
   40.1690   22.3130   36.7390 C   0  0  1  0  0  3  0  0  0  0  0  0
   37.8340   22.9150   36.6370 O   0  0  0  0  0  0  0  0  0  0  0  0
   37.8480   22.1130   36.0860 H   0  0  0  0  0  0  0  0  0  0  0  0
   40.4010   21.7580   37.9650 O   0  0  0  0  0  0  0  0  0  0  0  0
   41.3640   21.4640   37.9970 H   0  0  0  0  0  0  0  0  0  0  0  0
  1  2  1  0  0  0  0
  2  3  2  0  0  0  0
  3  7  1  0  0  0  0
  4  3  1  0  0  0  0
  5  4  2  0  0  0  0
  6  1  2  0  0  0  0
  6  5  1  0  0  0  0
  8  5  1  0  0  0  0
  9 12  1  0  0  0  0
  9  1  1  0  0  0  0
 10  9  1  0  0  0  0
 11 10  1  0  0  0  0
 11  9  1  0  0  0  0
 13 10  1  0  0  0  0
 14 10  1  0  0  0  0
 15 11  1  0  0  0  0
 16 11  1  0  0  0  0
 17 22  1  6  0  0  0
 18  2  1  1  0  0  0
 18 19  1  0  0  0  0
 18 17  1  0  0  0  0
 19 20  1  0  0  0  0
 20 21  1  0  0  0  0
 21 17  1  0  0  0  0
 21 24  1  1  0  0  0
 23 22  1  0  0  0  0
 24 25  1  0  0  0  0
M  END
>  <minimizedAffinity>
-4.43518019

$$$$

 OpenBabel03272508183D

 25 27  0  0  1  0  0  0  0  0999 V2000
   37.9650   24.5830   33.5270 C   0  0  0  0  0  0  0  0  0  0  0  0
   38.1780   23.5470   34.4480 C   0  0  0  0  0  0  0  0  0  0  0  0
   37.5870   22.3480   34.0140 C   0  0  0  0  0  0  0  0  0  0  0  0
   36.9060   22.2250   32.8530 N   0  0  0  0  0  0  0  0  0  0  0  0
   36.7430   23.2670   32.0110 C   0  0  0  0  0  0  0  0  0  0  0  0
   37.2790   24.4450   32.3630 N   0  0  0  0  0  0  0  0  0  0  0  0
   37.6250   21.4100   34.5760 H   0  0  0  0  0  0  0  0  0  0  0  0
   36.2420   23.3510   31.0640 H   0  0  0  0  0  0  0  0  0  0  0  0
   38.6370   25.9020   33.8680 C   0  0  0  0  0  0  0  0  0  0  0  0
   38.2820   27.1150   33.1800 C   0  0  0  0  0  0  0  0  0  0  0  0
   37.6120   26.8710   34.5050 C   0  0  0  0  0  0  0  0  0  0  0  0
   39.5440   25.8700   34.5330 H   0  0  0  0  0  0  0  0  0  0  0  0
   37.6410   26.9920   32.2550 H   0  0  0  0  0  0  0  0  0  0  0  0
   38.9200   28.0040   33.0920 H   0  0  0  0  0  0  0  0  0  0  0  0
   36.5760   26.5630   34.4540 H   0  0  0  0  0  0  0  0  0  0  0  0
   37.9590   27.5130   35.3220 H   0  0  0  0  0  0  0  0  0  0  0  0
   39.6940   22.2630   35.9370 C   0  0  2  0  0  3  0  0  0  0  0  0
   38.8700   23.5360   35.6910 C   0  0  2  0  0  3  0  0  0  0  0  0
   38.2410   23.7480   36.8650 O   0  0  0  0  0  0  0  0  0  0  0  0
   38.9210   23.1750   37.8990 C   0  0  0  0  0  2  0  0  0  0  0  0
   40.2340   22.6400   37.3080 C   0  0  1  0  0  3  0  0  0  0  0  0
   40.6850   22.2540   34.9680 O   0  0  0  0  0  0  0  0  0  0  0  0
   41.3570   22.9240   35.1840 H   0  0  0  0  0  0  0  0  0  0  0  0
   40.7310   21.5780   38.0080 O   0  0  0  0  0  0  0  0  0  0  0  0
   40.5840   21.7550   38.9880 H   0  0  0  0  0  0  0  0  0  0  0  0
  1  9  1  0  0  0  0
  1  2  1  0  0  0  0
  3  2  2  0  0  0  0
  3  7  1  0  0  0  0
  4  3  1  0  0  0  0
  5  6  1  0  0  0  0
  5  4  2  0  0  0  0
  6  1  2  0  0  0  0
  8  5  1  0  0  0  0
  9 11  1  0  0  0  0
  9 12  1  0  0  0  0
 10  9  1  0  0  0  0
 10 11  1  0  0  0  0
 11 16  1  0  0  0  0
 13 10  1  0  0  0  0
 14 10  1  0  0  0  0
 15 11  1  0  0  0  0
 17 22  1  6  0  0  0
 17 21  1  0  0  0  0
 18  2  1  6  0  0  0
 18 17  1  0  0  0  0
 18 19  1  0  0  0  0
 19 20  1  0  0  0  0
 21 20  1  0  0  0  0
 21 24  1  1  0  0  0
 22 23  1  0  0  0  0
 24 25  1  0  0  0  0
M  END
>  <minimizedAffinity>
-4.43081808

$$$$

 OpenBabel03272508183D

 25 27  0  0  1  0  0  0  0  0999 V2000
   39.8270   23.3850   36.6210 C   0  0  0  0  0  0  0  0  0  0  0  0
   38.8770   24.1600   35.9380 C   0  0  0  0  0  0  0  0  0  0  0  0
   37.7770   24.4600   36.7580 C   0  0  0  0  0  0  0  0  0  0  0  0
   37.6640   24.0480   38.0410 N   0  0  0  0  0  0  0  0  0  0  0  0
   38.6210   23.3050   38.6360 C   0  0  0  0  0  0  0  0  0  0  0  0
   39.7010   22.9790   37.9110 N   0  0  0  0  0  0  0  0  0  0  0  0
   36.9150   25.0500   36.4330 H   0  0  0  0  0  0  0  0  0  0  0  0
   38.6990   22.8980   39.6280 H   0  0  0  0  0  0  0  0  0  0  0  0
   41.0940   23.0780   35.8420 C   0  0  0  0  0  0  0  0  0  0  0  0
   42.3570   22.9200   36.5130 C   0  0  0  0  0  0  0  0  0  0  0  0
   41.6020   21.6590   36.1910 C   0  0  0  0  0  0  0  0  0  0  0  0
   41.0530   23.1660   34.7200 H   0  0  0  0  0  0  0  0  0  0  0  0
   42.3840   23.2340   37.6000 H   0  0  0  0  0  0  0  0  0  0  0  0
   43.3430   23.0520   36.0480 H   0  0  0  0  0  0  0  0  0  0  0  0
   41.1190   21.1770   37.0310 H   0  0  0  0  0  0  0  0  0  0  0  0
   42.0310   21.0580   35.3810 H   0  0  0  0  0  0  0  0  0  0  0  0
   38.8450   26.1940   34.5130 C   0  0  2  0  0  3  0  0  0  0  0  0
   38.8700   24.6610   34.6060 C   0  0  2  0  0  3  0  0  0  0  0  0
   37.9560   24.2650   33.6960 O   0  0  0  0  0  0  0  0  0  0  0  0
   37.7840   25.2120   32.7280 C   0  0  0  0  0  2  0  0  0  0  0  0
   38.8350   26.2990   32.9970 C   0  0  1  0  0  3  0  0  0  0  0  0
   40.0420   26.6300   35.0600 O   0  0  0  0  0  0  0  0  0  0  0  0
   40.7700   26.4430   34.4410 H   0  0  0  0  0  0  0  0  0  0  0  0
   38.4480   27.5270   32.5400 O   0  0  0  0  0  0  0  0  0  0  0  0
   37.9820   27.3980   31.6560 H   0  0  0  0  0  0  0  0  0  0  0  0
  1  6  1  0  0  0  0
  2  1  2  0  0  0  0
  2  3  1  0  0  0  0
  3  4  2  0  0  0  0
  4  5  1  0  0  0  0
  5  8  1  0  0  0  0
  6  5  2  0  0  0  0
  7  3  1  0  0  0  0
  9 11  1  0  0  0  0
  9 10  1  0  0  0  0
  9  1  1  0  0  0  0
 10 13  1  0  0  0  0
 11 10  1  0  0  0  0
 11 15  1  0  0  0  0
 12  9  1  0  0  0  0
 14 10  1  0  0  0  0
 16 11  1  0  0  0  0
 17 18  1  0  0  0  0
 17 22  1  6  0  0  0
 18  2  1  1  0  0  0
 19 18  1  0  0  0  0
 20 21  1  0  0  0  0
 20 19  1  0  0  0  0
 21 24  1  1  0  0  0
 21 17  1  0  0  0  0
 23 22  1  0  0  0  0
 25 24  1  0  0  0  0
M  END
>  <minimizedAffinity>
-4.16608095

$$$$

 OpenBabel03272508183D

 25 27  0  0  1  0  0  0  0  0999 V2000
   39.7590   23.8330   36.1850 C   0  0  0  0  0  0  0  0  0  0  0  0
   38.6450   24.6540   35.9530 C   0  0  0  0  0  0  0  0  0  0  0  0
   37.7240   24.5760   37.0100 C   0  0  0  0  0  0  0  0  0  0  0  0
   37.9030   23.8040   38.1060 N   0  0  0  0  0  0  0  0  0  0  0  0
   39.0030   23.0390   38.2640 C   0  0  0  0  0  0  0  0  0  0  0  0
   39.9270   23.0630   37.2910 N   0  0  0  0  0  0  0  0  0  0  0  0
   36.7810   25.1300   37.0410 H   0  0  0  0  0  0  0  0  0  0  0  0
   39.3090   22.3770   39.0540 H   0  0  0  0  0  0  0  0  0  0  0  0
   40.8520   23.9120   35.1340 C   0  0  0  0  0  0  0  0  0  0  0  0
   41.9330   22.9610   35.1150 C   0  0  0  0  0  0  0  0  0  0  0  0
   40.7760   22.6850   34.1940 C   0  0  0  0  0  0  0  0  0  0  0  0
   40.8970   24.8370   34.4950 H   0  0  0  0  0  0  0  0  0  0  0  0
   42.0270   22.2980   36.0270 H   0  0  0  0  0  0  0  0  0  0  0  0
   42.9160   23.1280   34.6550 H   0  0  0  0  0  0  0  0  0  0  0  0
   40.1100   21.8910   34.5060 H   0  0  0  0  0  0  0  0  0  0  0  0
   40.9840   22.8450   33.1300 H   0  0  0  0  0  0  0  0  0  0  0  0
   37.5910   26.7940   35.2630 C   0  0  2  0  0  3  0  0  0  0  0  0
   38.3330   25.5100   34.8600 C   0  0  2  0  0  3  0  0  0  0  0  0
   37.6620   25.0730   33.7750 O   0  0  0  0  0  0  0  0  0  0  0  0
   37.0150   26.0990   33.1500 C   0  0  0  0  0  2  0  0  0  0  0  0
   37.4500   27.3840   33.8690 C   0  0  1  0  0  3  0  0  0  0  0  0
   38.4730   27.5160   36.0510 O   0  0  0  0  0  0  0  0  0  0  0  0
   39.1690   27.9020   35.4900 H   0  0  0  0  0  0  0  0  0  0  0  0
   36.5110   28.3730   33.7900 O   0  0  0  0  0  0  0  0  0  0  0  0
   36.1120   28.3510   32.8660 H   0  0  0  0  0  0  0  0  0  0  0  0
  1  6  1  0  0  0  0
  2  1  2  0  0  0  0
  2  3  1  0  0  0  0
  3  7  1  0  0  0  0
  3  4  2  0  0  0  0
  4  5  1  0  0  0  0
  5  8  1  0  0  0  0
  6  5  2  0  0  0  0
  9  1  1  0  0  0  0
 10  9  1  0  0  0  0
 10 13  1  0  0  0  0
 11 15  1  0  0  0  0
 11 10  1  0  0  0  0
 11  9  1  0  0  0  0
 12  9  1  0  0  0  0
 14 10  1  0  0  0  0
 16 11  1  0  0  0  0
 17 22  1  1  0  0  0
 18 17  1  0  0  0  0
 18  2  1  1  0  0  0
 19 18  1  0  0  0  0
 20 19  1  0  0  0  0
 20 21  1  0  0  0  0
 21 24  1  1  0  0  0
 21 17  1  0  0  0  0
 23 22  1  0  0  0  0
 25 24  1  0  0  0  0
M  END
>  <minimizedAffinity>
-4.16445923

$$$$

 OpenBabel03272508183D

 25 27  0  0  1  0  0  0  0  0999 V2000
   38.1090   23.1320   35.8710 C   0  0  0  0  0  0  0  0  0  0  0  0
   38.5070   23.7140   34.6580 C   0  0  0  0  0  0  0  0  0  0  0  0
   37.9980   23.0020   33.5590 C   0  0  0  0  0  0  0  0  0  0  0  0
   37.2230   21.9000   33.6720 N   0  0  0  0  0  0  0  0  0  0  0  0
   36.8760   21.3960   34.8750 C   0  0  0  0  0  0  0  0  0  0  0  0
   37.3290   22.0250   35.9710 N   0  0  0  0  0  0  0  0  0  0  0  0
   38.1840   23.2750   32.5150 H   0  0  0  0  0  0  0  0  0  0  0  0
   36.2780   20.5470   35.1510 H   0  0  0  0  0  0  0  0  0  0  0  0
   38.5420   23.8790   37.1210 C   0  0  0  0  0  0  0  0  0  0  0  0
   38.1910   23.3980   38.4310 C   0  0  0  0  0  0  0  0  0  0  0  0
   39.5580   23.0290   37.9220 C   0  0  0  0  0  0  0  0  0  0  0  0
   38.9770   24.9080   36.9900 H   0  0  0  0  0  0  0  0  0  0  0  0
   37.4210   22.5700   38.4660 H   0  0  0  0  0  0  0  0  0  0  0  0
   38.1390   24.0130   39.3390 H   0  0  0  0  0  0  0  0  0  0  0  0
   39.6750   22.0030   37.5980 H   0  0  0  0  0  0  0  0  0  0  0  0
   40.3890   23.5540   38.4080 H   0  0  0  0  0  0  0  0  0  0  0  0
   40.7680   24.7220   34.8510 C   0  0  2  0  0  3  0  0  0  0  0  0
   39.3080   24.8600   34.3950 C   0  0  2  0  0  3  0  0  0  0  0  0
   38.9530   26.0940   34.8100 O   0  0  0  0  0  0  0  0  0  0  0  0
   40.0450   26.9000   34.9460 C   0  0  0  0  0  2  0  0  0  0  0  0
   41.2420   26.0980   34.4140 C   0  0  1  0  0  3  0  0  0  0  0  0
   41.3160   23.7090   34.0790 O   0  0  0  0  0  0  0  0  0  0  0  0
   41.4610   24.0340   33.1730 H   0  0  0  0  0  0  0  0  0  0  0  0
   42.4230   26.4740   34.9890 O   0  0  0  0  0  0  0  0  0  0  0  0
   42.4150   27.4770   35.0900 H   0  0  0  0  0  0  0  0  0  0  0  0
  1  6  1  0  0  0  0
  1  9  1  0  0  0  0
  2  1  2  0  0  0  0
  3  4  2  0  0  0  0
  3  2  1  0  0  0  0
  4  5  1  0  0  0  0
  5  8  1  0  0  0  0
  5  6  2  0  0  0  0
  7  3  1  0  0  0  0
  9 11  1  0  0  0  0
  9 10  1  0  0  0  0
 10 13  1  0  0  0  0
 10 14  1  0  0  0  0
 11 16  1  0  0  0  0
 11 10  1  0  0  0  0
 12  9  1  0  0  0  0
 15 11  1  0  0  0  0
 17 22  1  6  0  0  0
 18  2  1  1  0  0  0
 18 19  1  0  0  0  0
 18 17  1  0  0  0  0
 19 20  1  0  0  0  0
 21 17  1  0  0  0  0
 21 20  1  0  0  0  0
 21 24  1  1  0  0  0
 23 22  1  0  0  0  0
 24 25  1  0  0  0  0
M  END
>  <minimizedAffinity>
-4.15628672

$$$$

 OpenBabel03272508183D

 25 27  0  0  1  0  0  0  0  0999 V2000
   37.1380   27.4690   33.9790 C   0  0  0  0  0  0  0  0  0  0  0  0
   36.8440   26.8950   32.7330 C   0  0  0  0  0  0  0  0  0  0  0  0
   35.8000   27.5790   32.0890 C   0  0  0  0  0  0  0  0  0  0  0  0
   35.1700   28.6540   32.6140 N   0  0  0  0  0  0  0  0  0  0  0  0
   35.5090   29.1560   33.8200 C   0  0  0  0  0  0  0  0  0  0  0  0
   36.4970   28.5500   34.4950 N   0  0  0  0  0  0  0  0  0  0  0  0
   35.4040   27.3030   31.1070 H   0  0  0  0  0  0  0  0  0  0  0  0
   35.1260   29.9870   34.3840 H   0  0  0  0  0  0  0  0  0  0  0  0
   38.3110   26.8490   34.7190 C   0  0  0  0  0  0  0  0  0  0  0  0
   38.5260   27.1080   36.1180 C   0  0  0  0  0  0  0  0  0  0  0  0
   37.8000   25.8370   35.7710 C   0  0  0  0  0  0  0  0  0  0  0  0
   39.1060   26.3410   34.1050 H   0  0  0  0  0  0  0  0  0  0  0  0
   37.9070   27.9410   36.5690 H   0  0  0  0  0  0  0  0  0  0  0  0
   39.4880   27.0150   36.6400 H   0  0  0  0  0  0  0  0  0  0  0  0
   36.7330   25.8430   35.9550 H   0  0  0  0  0  0  0  0  0  0  0  0
   38.3800   24.9190   35.9180 H   0  0  0  0  0  0  0  0  0  0  0  0
   38.1010   26.1320   30.7320 C   0  0  2  0  0  3  0  0  0  0  0  0
   37.4220   25.7800   32.0640 C   0  0  2  0  0  3  0  0  0  0  0  0
   36.7150   24.6660   31.7840 O   0  0  0  0  0  0  0  0  0  0  0  0
   37.2480   23.9990   30.7200 C   0  0  0  0  0  2  0  0  0  0  0  0
   38.5520   24.7270   30.3650 C   0  0  1  0  0  3  0  0  0  0  0  0
   39.1670   26.9580   31.0520 O   0  0  0  0  0  0  0  0  0  0  0  0
   39.8770   26.4300   31.4590 H   0  0  0  0  0  0  0  0  0  0  0  0
   38.8870   24.5910   29.0470 O   0  0  0  0  0  0  0  0  0  0  0  0
   38.6730   23.6480   28.7670 H   0  0  0  0  0  0  0  0  0  0  0  0
  1  6  1  0  0  0  0
  1  9  1  0  0  0  0
  2  1  2  0  0  0  0
  3  4  2  0  0  0  0
  3  2  1  0  0  0  0
  4  5  1  0  0  0  0
  5  8  1  0  0  0  0
  5  6  2  0  0  0  0
  7  3  1  0  0  0  0
  9 11  1  0  0  0  0
  9 10  1  0  0  0  0
 10 13  1  0  0  0  0
 10 14  1  0  0  0  0
 11 16  1  0  0  0  0
 11 15  1  0  0  0  0
 11 10  1  0  0  0  0
 12  9  1  0  0  0  0
 17 22  1  1  0  0  0
 17 18  1  0  0  0  0
 18  2  1  6  0  0  0
 19 18  1  0  0  0  0
 20 19  1  0  0  0  0
 21 24  1  6  0  0  0
 21 20  1  0  0  0  0
 21 17  1  0  0  0  0
 22 23  1  0  0  0  0
 25 24  1  0  0  0  0
M  END
>  <minimizedAffinity>
-4.13873529

$$$$

 OpenBabel03272508183D

 25 27  0  0  1  0  0  0  0  0999 V2000
   37.3970   22.7840   32.6970 C   0  0  0  0  0  0  0  0  0  0  0  0
   38.1180   23.4230   33.7170 C   0  0  0  0  0  0  0  0  0  0  0  0
   37.8660   24.8040   33.7330 C   0  0  0  0  0  0  0  0  0  0  0  0
   37.0280   25.4240   32.8710 N   0  0  0  0  0  0  0  0  0  0  0  0
   36.3630   24.7440   31.9140 C   0  0  0  0  0  0  0  0  0  0  0  0
   36.5580   23.4190   31.8380 N   0  0  0  0  0  0  0  0  0  0  0  0
   38.3230   25.5000   34.4430 H   0  0  0  0  0  0  0  0  0  0  0  0
   35.6700   25.0650   31.1570 H   0  0  0  0  0  0  0  0  0  0  0  0
   37.5400   21.2730   32.6500 C   0  0  0  0  0  0  0  0  0  0  0  0
   36.9420   20.5040   31.5910 C   0  0  0  0  0  0  0  0  0  0  0  0
   38.3950   20.8580   31.4290 C   0  0  0  0  0  0  0  0  0  0  0  0
   37.9610   20.7590   33.5590 H   0  0  0  0  0  0  0  0  0  0  0  0
   36.2070   21.0550   30.9310 H   0  0  0  0  0  0  0  0  0  0  0  0
   36.6850   19.4370   31.6490 H   0  0  0  0  0  0  0  0  0  0  0  0
   38.6070   21.6410   30.7120 H   0  0  0  0  0  0  0  0  0  0  0  0
   39.0910   20.0210   31.5550 H   0  0  0  0  0  0  0  0  0  0  0  0
   38.4440   22.8390   36.1080 C   0  0  2  0  0  3  0  0  0  0  0  0
   39.0200   22.8990   34.6850 C   0  0  2  0  0  3  0  0  0  0  0  0
   40.2600   23.4020   34.8570 O   0  0  0  0  0  0  0  0  0  0  0  0
   40.7190   23.1590   36.1190 C   0  0  0  0  0  2  0  0  0  0  0  0
   39.6720   22.2600   36.7920 C   0  0  1  0  0  3  0  0  0  0  0  0
   37.3960   21.9330   36.0590 O   0  0  0  0  0  0  0  0  0  0  0  0
   37.7500   21.0290   35.9910 H   0  0  0  0  0  0  0  0  0  0  0  0
   39.6550   22.4010   38.1510 O   0  0  0  0  0  0  0  0  0  0  0  0
   40.6070   22.4940   38.4670 H   0  0  0  0  0  0  0  0  0  0  0  0
  1  2  1  0  0  0  0
  2  3  2  0  0  0  0
  3  7  1  0  0  0  0
  4  3  1  0  0  0  0
  5  4  2  0  0  0  0
  6  5  1  0  0  0  0
  6  1  2  0  0  0  0
  8  5  1  0  0  0  0
  9  1  1  0  0  0  0
  9 12  1  0  0  0  0
 10 14  1  0  0  0  0
 10  9  1  0  0  0  0
 11 16  1  0  0  0  0
 11 10  1  0  0  0  0
 11  9  1  0  0  0  0
 13 10  1  0  0  0  0
 15 11  1  0  0  0  0
 17 22  1  6  0  0  0
 17 21  1  0  0  0  0
 18  2  1  6  0  0  0
 18 19  1  0  0  0  0
 18 17  1  0  0  0  0
 19 20  1  0  0  0  0
 20 21  1  0  0  0  0
 21 24  1  1  0  0  0
 23 22  1  0  0  0  0
 24 25  1  0  0  0  0
M  END
>  <minimizedAffinity>
-4.11197805

$$$$
