
 OpenBabel03272509503D

 33 35  0  0  1  0  0  0  0  0999 V2000
   38.0810   31.5410   50.0080 C   0  0  0  0  0  0  0  0  0  0  0  0
   38.6140   31.7820   48.7330 C   0  0  0  0  0  0  0  0  0  0  0  0
   38.1680   30.9980   47.6830 C   0  0  0  0  0  0  0  0  0  0  0  0
   37.2390   30.0380   47.9360 N   0  0  0  0  0  0  0  0  0  0  0  0
   36.7420   29.8250   49.1720 C   0  0  0  0  0  0  0  0  0  0  0  0
   37.1790   30.5910   50.1940 N   0  0  0  0  0  0  0  0  0  0  0  0
   38.4580   32.1770   50.7970 H   0  0  0  0  0  0  0  0  0  0  0  0
   39.3500   32.5460   48.5410 H   0  0  0  0  0  0  0  0  0  0  0  0
   38.2440   32.4680   45.6640 C   0  0  1  0  0  3  0  0  0  0  0  0
   38.6770   31.1770   46.2770 C   0  0  1  0  0  3  0  0  0  0  0  0
   40.0780   31.2930   46.3510 O   0  0  0  0  0  0  0  0  0  0  0  0
   40.4510   31.7050   45.0890 C   0  0  0  0  0  2  0  0  0  0  0  0
   39.4240   32.7490   44.7270 C   0  0  2  0  0  3  0  0  0  0  0  0
   37.1310   32.2040   44.8740 O   0  0  0  0  0  0  0  0  0  0  0  0
   37.2720   31.2980   44.4650 H   0  0  0  0  0  0  0  0  0  0  0  0
   39.9480   34.0020   44.9340 O   0  0  0  0  0  0  0  0  0  0  0  0
   39.2380   34.6950   44.8470 H   0  0  0  0  0  0  0  0  0  0  0  0
   35.8240   28.8200   49.2240 O   0  0  0  0  0  0  0  0  0  0  0  0
   34.7510   28.8530   48.2740 C   0  0  0  0  0  0  0  0  0  0  0  0
   35.1190   28.9500   47.2500 H   0  0  0  0  0  0  0  0  0  0  0  0
   34.1760   29.7740   48.5590 H   0  0  0  0  0  0  0  0  0  0  0  0
   33.8170   27.7000   48.5130 C   0  0  0  0  0  0  0  0  0  0  0  0
   34.1660   26.8300   47.9200 H   0  0  0  0  0  0  0  0  0  0  0  0
   33.8060   27.3720   49.5720 H   0  0  0  0  0  0  0  0  0  0  0  0
   32.4390   27.9800   48.0210 C   0  0  0  0  0  0  0  0  0  0  0  0
   31.3990   27.5280   48.7960 C   0  0  0  0  0  0  0  0  0  0  0  0
   30.0770   27.7340   48.4330 C   0  0  0  0  0  0  0  0  0  0  0  0
   29.8160   28.3900   47.3020 N   0  0  0  0  0  0  0  0  0  0  0  0
   30.8460   28.8320   46.5450 C   0  0  0  0  0  0  0  0  0  0  0  0
   32.1340   28.6380   46.8860 N   0  0  0  0  0  0  0  0  0  0  0  0
   31.5850   26.9920   49.7180 H   0  0  0  0  0  0  0  0  0  0  0  0
   29.2830   27.3600   49.0710 H   0  0  0  0  0  0  0  0  0  0  0  0
   30.5670   29.3530   45.6460 H   0  0  0  0  0  0  0  0  0  0  0  0
  1  6  1  0  0  0  0
  1  7  1  0  0  0  0
  2  1  2  0  0  0  0
  3  4  2  0  0  0  0
  3  2  1  0  0  0  0
  4  5  1  0  0  0  0
  5 18  1  0  0  0  0
  5  6  2  0  0  0  0
  8  2  1  0  0  0  0
  9 14  1  6  0  0  0
  9 10  1  0  0  0  0
 10 11  1  0  0  0  0
 10  3  1  1  0  0  0
 12 11  1  0  0  0  0
 13 16  1  1  0  0  0
 13 12  1  0  0  0  0
 13  9  1  0  0  0  0
 15 14  1  0  0  0  0
 17 16  1  0  0  0  0
 19 22  1  0  0  0  0
 19 21  1  0  0  0  0
 19 18  1  0  0  0  0
 20 19  1  0  0  0  0
 22 24  1  0  0  0  0
 23 22  1  0  0  0  0
 25 22  1  0  0  0  0
 25 26  1  0  0  0  0
 26 31  1  0  0  0  0
 27 26  2  0  0  0  0
 27 32  1  0  0  0  0
 28 27  1  0  0  0  0
 29 30  1  0  0  0  0
 29 28  2  0  0  0  0
 30 25  2  0  0  0  0
 33 29  1  0  0  0  0
M  END
>  <minimizedAffinity>
-5.79272127

>  <minimizedRMSD>
1.68623924

$$$$
