
 OpenBabel03272509213D

 46 50  0  0  1  0  0  0  0  0999 V2000
   38.0960   31.3440   47.8020 C   0  0  0  0  0  0  0  0  0  0  0  0
   37.1020   31.3320   48.7680 C   0  0  0  0  0  0  0  0  0  0  0  0
   37.1420   32.4460   49.6250 C   0  0  0  0  0  0  0  0  0  0  0  0
   38.1020   33.4490   49.4890 C   0  0  0  0  0  0  0  0  0  0  0  0
   39.0660   33.3490   48.4630 C   0  0  0  0  0  0  0  0  0  0  0  0
   39.0510   32.2700   47.6090 C   0  0  0  0  0  0  0  0  0  0  0  0
   36.4180   32.5590   50.4260 H   0  0  0  0  0  0  0  0  0  0  0  0
   38.1060   34.2980   50.1670 H   0  0  0  0  0  0  0  0  0  0  0  0
   39.7690   34.1520   48.4180 H   0  0  0  0  0  0  0  0  0  0  0  0
   34.9950   30.3090   48.0960 C   0  0  0  0  0  0  0  0  0  0  0  0
   36.1220   30.3100   48.9090 C   0  0  0  0  0  0  0  0  0  0  0  0
   36.2440   29.2780   49.8540 C   0  0  0  0  0  0  0  0  0  0  0  0
   35.2620   28.3450   49.9190 N   0  0  0  0  0  0  0  0  0  0  0  0
   34.1770   28.3890   49.0990 C   0  0  0  0  0  0  0  0  0  0  0  0
   34.0450   29.3630   48.1950 N   0  0  0  0  0  0  0  0  0  0  0  0
   34.8890   31.0980   47.3650 H   0  0  0  0  0  0  0  0  0  0  0  0
   33.4380   27.6000   49.2200 H   0  0  0  0  0  0  0  0  0  0  0  0
   37.4320   29.2310   50.7510 C   0  0  0  0  0  0  0  0  0  0  0  0
   38.3530   29.1400   50.1390 H   0  0  0  0  0  0  0  0  0  0  0  0
   37.4700   30.0540   51.4830 H   0  0  0  0  0  0  0  0  0  0  0  0
   37.3730   28.2890   51.3260 H   0  0  0  0  0  0  0  0  0  0  0  0
   38.1390   30.2630   46.8920 O   0  0  0  0  0  0  0  0  0  0  0  0
   38.3790   29.3830   47.3060 H   0  0  0  0  0  0  0  0  0  0  0  0
   40.0160   32.2320   46.6320 O   0  0  0  0  0  0  0  0  0  0  0  0
   40.4930   31.0620   44.4850 C   0  0  0  0  0  0  0  0  0  0  0  0
   39.8340   31.9660   45.3070 C   0  0  0  0  0  0  0  0  0  0  0  0
   38.8300   32.7450   44.7630 C   0  0  0  0  0  0  0  0  0  0  0  0
   38.4780   32.6270   43.4030 C   0  0  0  0  0  0  0  0  0  0  0  0
   37.5760   33.2250   42.6050 N   0  0  0  0  0  0  0  0  0  0  0  0
   37.6610   32.7270   41.3540 C   0  0  0  0  0  0  0  0  0  0  0  0
   38.6480   31.7940   41.3870 N   0  0  0  0  0  0  0  0  0  0  0  0
   39.1570   31.7220   42.6320 C   0  0  0  0  0  0  0  0  0  0  0  0
   40.1550   30.9400   43.1480 C   0  0  0  0  0  0  0  0  0  0  0  0
   41.2600   30.5060   45.0150 H   0  0  0  0  0  0  0  0  0  0  0  0
   38.2330   33.4860   45.2760 H   0  0  0  0  0  0  0  0  0  0  0  0
   36.9100   33.9600   42.9020 H   0  0  0  0  0  0  0  0  0  0  0  0
   37.1240   32.9440   40.4640 H   0  0  0  0  0  0  0  0  0  0  0  0
   40.2740   28.6010   42.2710 C   0  0  2  0  0  3  0  0  0  0  0  0
   40.9290   29.9350   42.3520 C   0  0  1  0  0  3  0  0  0  0  0  0
   41.1160   30.4520   41.1000 O   0  0  0  0  0  0  0  0  0  0  0  0
   40.7740   29.4830   40.1690 C   0  0  0  0  0  2  0  0  0  0  0  0
   39.8240   28.5380   40.8270 C   0  0  2  0  0  3  0  0  0  0  0  0
   39.2030   28.4580   43.1500 O   0  0  0  0  0  0  0  0  0  0  0  0
   38.3800   28.5990   42.6260 H   0  0  0  0  0  0  0  0  0  0  0  0
   38.4810   28.8630   40.6650 O   0  0  0  0  0  0  0  0  0  0  0  0
   38.2980   29.3750   39.8390 H   0  0  0  0  0  0  0  0  0  0  0  0
  1  2  1  0  0  0  0
  2 11  1  0  0  0  0
  2  3  2  0  0  0  0
  3  7  1  0  0  0  0
  4  3  1  0  0  0  0
  4  8  1  0  0  0  0
  5  4  2  0  0  0  0
  6  1  2  0  0  0  0
  6  5  1  0  0  0  0
  9  5  1  0  0  0  0
 10 15  2  0  0  0  0
 10 11  1  0  0  0  0
 11 12  2  0  0  0  0
 12 13  1  0  0  0  0
 12 18  1  0  0  0  0
 14 17  1  0  0  0  0
 14 13  2  0  0  0  0
 15 14  1  0  0  0  0
 16 10  1  0  0  0  0
 18 21  1  0  0  0  0
 18 20  1  0  0  0  0
 19 18  1  0  0  0  0
 22 23  1  0  0  0  0
 22  1  1  0  0  0  0
 24  6  1  0  0  0  0
 25 34  1  0  0  0  0
 25 26  1  0  0  0  0
 26 24  1  0  0  0  0
 27 35  1  0  0  0  0
 27 26  2  0  0  0  0
 28 27  1  0  0  0  0
 29 36  1  0  0  0  0
 29 28  1  0  0  0  0
 30 31  2  0  0  0  0
 30 29  1  0  0  0  0
 31 32  1  0  0  0  0
 32 33  1  0  0  0  0
 32 28  2  0  0  0  0
 33 25  2  0  0  0  0
 37 30  1  0  0  0  0
 38 39  1  0  0  0  0
 38 43  1  1  0  0  0
 39 33  1  1  0  0  0
 40 39  1  0  0  0  0
 41 42  1  0  0  0  0
 41 40  1  0  0  0  0
 42 45  1  1  0  0  0
 42 38  1  0  0  0  0
 44 43  1  0  0  0  0
 46 45  1  0  0  0  0
M  END
>  <minimizedAffinity>
-7.75429869

>  <minimizedRMSD>
0.986256003

$$$$
