REMARK  Name = 
REMARK  6 active torsions:
REMARK  status: ('A' for Active; 'I' for Inactive)
REMARK    1  A    between atoms: C_1  and  C_2
REMARK    2  A    between atoms: C_1  and  C_9
REMARK    3  A    between atoms: C_8  and  C_14
REMARK    4  A    between atoms: C_12  and  C_29
REMARK    5  A    between atoms: O_27  and  C_28
REMARK    6  A    between atoms: C_32  and  O_33
REMARK                            x       y       z     vdW  Elec       q    Type
REMARK                         _______ _______ _______ _____ _____    ______ ____
ROOT
ATOM      1  C   UNL     1      37.365  30.233  51.414  0.00  0.00    +0.000 A 
ATOM      2  C   UNL     1      38.133  30.694  50.322  0.00  0.00    +0.000 A 
ATOM      3  C   UNL     1      37.688  30.351  49.028  0.00  0.00    +0.000 A 
ATOM      4  N   UNL     1      36.550  29.599  48.905  0.00  0.00    +0.000 NA
ATOM      5  C   UNL     1      35.867  29.194  49.994  0.00  0.00    +0.000 A 
ATOM      6  N   UNL     1      36.260  29.501  51.249  0.00  0.00    +0.000 NA
ATOM      7  H   UNL     1      37.770  30.536  52.377  0.00  0.00    +0.000 HD
ATOM      8  H   UNL     1      39.021  31.280  50.399  0.00  0.00    +0.000 HD
ENDROOT
BRANCH   3  10
ATOM      9  C   UNL     1      37.659  31.623  46.920  0.00  0.00    +0.000 C 
ATOM     10  C   UNL     1      38.476  30.823  47.865  0.00  0.00    +0.000 C 
ATOM     11  O   UNL     1      39.581  31.562  48.231  0.00  0.00    +0.000 OA
ATOM     12  C   UNL     1      39.302  32.897  48.032  0.00  0.00    +0.000 C 
ATOM     13  C   UNL     1      38.044  33.044  47.250  0.00  0.00    +0.000 C 
BRANCH   9  14
ATOM     14  O   UNL     1      37.971  31.341  45.597  0.00  0.00    +0.000 OA
ATOM     15  H   UNL     1      37.874  32.190  45.093  0.00  0.00    +0.000 HD
ENDBRANCH   9  14
BRANCH  13  16
ATOM     16  O   UNL     1      38.214  33.801  46.098  0.00  0.00    +0.000 OA
ATOM     17  H   UNL     1      38.400  34.727  46.344  0.00  0.00    +0.000 HD
ENDBRANCH  13  16
ENDBRANCH   3  10
BRANCH   5  18
ATOM     18  C   UNL     1      34.691  28.399  49.726  0.00  0.00    +0.000 C 
ATOM     19  C   UNL     1      34.398  28.082  48.514  0.00  0.00    +0.000 C 
BRANCH  19  20
ATOM     20  C   UNL     1      33.279  27.284  47.995  0.00  0.00    +0.000 C 
ATOM     21  H   UNL     1      32.760  26.812  48.863  0.00  0.00    +0.000 HD
ATOM     22  H   UNL     1      32.529  27.909  47.489  0.00  0.00    +0.000 HD
BRANCH  20  23
ATOM     23  C   UNL     1      33.709  26.209  47.043  0.00  0.00    +0.000 A 
ATOM     24  C   UNL     1      33.946  24.887  47.389  0.00  0.00    +0.000 A 
ATOM     25  C   UNL     1      34.339  23.986  46.409  0.00  0.00    +0.000 A 
ATOM     26  C   UNL     1      34.502  24.378  45.081  0.00  0.00    +0.000 A 
ATOM     27  C   UNL     1      34.265  25.698  44.739  0.00  0.00    +0.000 A 
ATOM     28  C   UNL     1      33.872  26.600  45.721  0.00  0.00    +0.000 A 
ATOM     29  H   UNL     1      33.806  24.637  48.429  0.00  0.00    +0.000 HD
ATOM     30  H   UNL     1      34.508  22.973  46.735  0.00  0.00    +0.000 HD
ATOM     31  H   UNL     1      34.809  23.597  44.402  0.00  0.00    +0.000 HD
ATOM     32  H   UNL     1      34.400  25.967  43.706  0.00  0.00    +0.000 HD
ATOM     33  H   UNL     1      33.712  27.601  45.357  0.00  0.00    +0.000 HD
ENDBRANCH  20  23
ENDBRANCH  19  20
ENDBRANCH   5  18
TORSDOF 6
