
     RDKit          3D

 32 34  0  0  0  0  0  0  0  0999 V2000
   37.2179   30.4316   50.3080 C   0  0  0  0  0  0  0  0  0  0  0  0
   37.6003   30.3841   51.4910 O   0  0  0  0  0  0  0  0  0  0  0  0
   37.8909   31.1893   49.2764 C   0  0  0  0  0  0  0  0  0  0  0  0
   38.2857   32.4829   49.6063 C   0  0  0  0  0  0  0  0  0  0  0  0
   38.9378   33.2378   48.6292 C   0  0  0  0  0  0  0  0  0  0  0  0
   39.1534   32.6717   47.4080 N   0  0  0  0  0  0  0  0  0  0  0  0
   38.7619   31.4192   47.1141 C   0  0  0  0  0  0  0  0  0  0  0  0
   38.1306   30.6767   48.0471 N   0  0  0  0  0  0  0  0  0  0  0  0
   36.0270   29.6884   49.9213 C   0  0  0  0  0  0  0  0  0  0  0  0
   34.7880   30.2667   49.8984 C   0  0  0  0  0  0  0  0  0  0  0  0
   33.8879   29.2738   49.4851 C   0  0  0  0  0  0  0  0  0  0  0  0
   34.6662   28.1327   49.2812 C   0  0  0  0  0  0  0  0  0  0  0  0
   35.9096   28.4311   49.5509 O   0  0  0  0  0  0  0  0  0  0  0  0
   38.1513   32.9859   50.5332 H   0  0  0  0  0  0  0  0  0  0  0  0
   39.2733   34.2598   48.8247 H   0  0  0  0  0  0  0  0  0  0  0  0
   38.9224   30.9515   46.1540 H   0  0  0  0  0  0  0  0  0  0  0  0
   34.4105   31.2582   50.1202 H   0  0  0  0  0  0  0  0  0  0  0  0
   32.8153   29.2251   49.3110 H   0  0  0  0  0  0  0  0  0  0  0  0
   35.6427   26.5982   46.9329 O   0  0  0  0  0  0  0  0  0  0  0  0
   34.3148   26.5817   47.3490 C   0  0  2  0  0  0  0  0  0  0  0  0
   34.3486   26.7725   48.8519 C   0  0  2  0  0  0  0  0  0  0  0  0
   33.0688   26.3530   49.2115 O   0  0  0  0  0  0  0  0  0  0  0  0
   32.8622   25.1807   48.5300 C   0  0  0  0  0  0  0  0  0  0  0  0
   33.7520   25.1588   47.3127 C   0  0  2  0  0  0  0  0  0  0  0  0
   34.8470   24.3153   47.5864 O   0  0  0  0  0  0  0  0  0  0  0  0
   35.9911   27.5034   47.1524 H   0  0  0  0  0  0  0  0  0  0  0  0
   33.7041   27.3054   46.8153 H   0  0  0  0  0  0  0  0  0  0  0  0
   35.0613   26.0129   49.2362 H   0  0  0  0  0  0  0  0  0  0  0  0
   33.1188   24.3283   49.2245 H   0  0  0  0  0  0  0  0  0  0  0  0
   31.7870   25.0399   48.2653 H   0  0  0  0  0  0  0  0  0  0  0  0
   33.2509   24.9086   46.3803 H   0  0  0  0  0  0  0  0  0  0  0  0
   34.7756   23.9282   48.5166 H   0  0  0  0  0  0  0  0  0  0  0  0
  1  2  2  0
  3  4  2  0
  3  1  1  0
  5  4  1  0
  6  5  2  0
  7  6  1  0
  7  8  2  0
  8  3  1  0
  9  1  1  0
 10  9  2  0
 11 10  1  0
 12 11  2  0
 12 13  1  0
 13  9  1  0
  4 14  1  0
  5 15  1  0
  7 16  1  0
 10 17  1  0
 11 18  1  0
 19 20  1  0
 20 21  1  0
 21 22  1  0
 22 23  1  0
 23 24  1  0
 24 25  1  0
 24 20  1  0
 19 26  1  0
 20 27  1  6
 21 28  1  1
 23 29  1  0
 23 30  1  0
 24 31  1  6
 25 32  1  0
 12 21  1  0
M  ISO  5  14  14  15  14  16  14  17  14  18  14
M  END
>  <DihAtoms>  (1) 
10,11,20,19

>  <DihDeg>  (1) 
-109.03755990799228

$$$$
