REMARK  Name = 
REMARK  6 active torsions:
REMARK  status: ('A' for Active; 'I' for Inactive)
REMARK    1  A    between atoms: C_1  and  C_15
REMARK    2  A    between atoms: C_4  and  C_7
REMARK    3  A    between atoms: C_15  and  C_21
REMARK    4  A    between atoms: C_19  and  C_34
REMARK    5  A    between atoms: O_32  and  C_33
REMARK    6  A    between atoms: C_37  and  O_38
REMARK                            x       y       z     vdW  Elec       q    Type
REMARK                         _______ _______ _______ _____ _____    ______ ____
ROOT
ATOM      1  C   UNL     1      35.544  29.701  49.806  0.00  0.00    +0.000 A 
ATOM      2  C   UNL     1      36.538  29.529  50.751  0.00  0.00    +0.000 A 
ATOM      3  C   UNL     1      37.673  30.069  50.144  0.00  0.00    +0.000 A 
ATOM      4  C   UNL     1      37.323  30.528  48.898  0.00  0.00    +0.000 A 
ATOM      5  O   UNL     1      36.038  30.292  48.727  0.00  0.00    +0.000 OA
ATOM      6  H   UNL     1      36.501  29.088  51.741  0.00  0.00    +0.000 HD
ATOM      7  H   UNL     1      38.689  30.131  50.563  0.00  0.00    +0.000 HD
ENDROOT
BRANCH   4   9
ATOM      8  C   UNL     1      38.620  32.468  48.139  0.00  0.00    +0.000 A 
ATOM      9  C   UNL     1      38.200  31.167  47.919  0.00  0.00    +0.000 A 
ATOM     10  C   UNL     1      38.587  30.448  46.793  0.00  0.00    +0.000 A 
ATOM     11  C   UNL     1      39.417  31.035  45.854  0.00  0.00    +0.000 A 
ATOM     12  N   UNL     1      39.961  30.620  44.684  0.00  0.00    +0.000 N 
ATOM     13  N   UNL     1      40.683  31.625  44.210  0.00  0.00    +0.000 NA
ATOM     14  C   UNL     1      40.614  32.682  45.054  0.00  0.00    +0.000 A 
ATOM     15  C   UNL     1      39.808  32.330  46.117  0.00  0.00    +0.000 A 
ATOM     16  C   UNL     1      39.461  33.084  47.203  0.00  0.00    +0.000 A 
ATOM     17  H   UNL     1      38.326  33.042  49.014  0.00  0.00    +0.000 HD
ATOM     18  H   UNL     1      38.235  29.422  46.653  0.00  0.00    +0.000 HD
ATOM     19  H   UNL     1      39.787  29.663  44.304  0.00  0.00    +0.000 HD
ATOM     20  H   UNL     1      41.123  33.633  44.888  0.00  0.00    +0.000 HD
ATOM     21  H   UNL     1      39.816  34.103  47.334  0.00  0.00    +0.000 HD
ENDBRANCH   4   9
BRANCH   1  22
ATOM     22  C   UNL     1      34.166  29.286  49.994  0.00  0.00    +0.000 C 
ATOM     23  O   UNL     1      33.499  29.820  50.896  0.00  0.00    +0.000 OA
BRANCH  22  28
ATOM     24  C   UNL     1      31.696  27.157  48.354  0.00  0.00    +0.000 A 
ATOM     25  C   UNL     1      32.457  26.360  47.524  0.00  0.00    +0.000 A 
ATOM     26  C   UNL     1      33.818  26.533  47.508  0.00  0.00    +0.000 A 
ATOM     27  N   UNL     1      34.369  27.469  48.298  0.00  0.00    +0.000 NA
ATOM     28  C   UNL     1      33.607  28.257  49.120  0.00  0.00    +0.000 A 
ATOM     29  N   UNL     1      32.263  28.086  49.135  0.00  0.00    +0.000 NA
ATOM     30  H   UNL     1      30.620  27.021  48.367  0.00  0.00    +0.000 HD
ATOM     31  H   UNL     1      31.981  25.627  46.911  0.00  0.00    +0.000 HD
BRANCH  26  33
ATOM     32  C   UNL     1      33.977  24.769  45.740  0.00  0.00    +0.000 C 
ATOM     33  C   UNL     1      34.710  25.709  46.637  0.00  0.00    +0.000 C 
ATOM     34  O   UNL     1      35.646  24.980  47.352  0.00  0.00    +0.000 OA
ATOM     35  C   UNL     1      35.166  23.688  47.483  0.00  0.00    +0.000 C 
ATOM     36  C   UNL     1      34.496  23.425  46.149  0.00  0.00    +0.000 C 
BRANCH  32  37
ATOM     37  O   UNL     1      32.591  24.875  45.804  0.00  0.00    +0.000 OA
ATOM     38  H   UNL     1      32.240  25.390  45.009  0.00  0.00    +0.000 HD
ENDBRANCH  32  37
BRANCH  36  39
ATOM     39  O   UNL     1      35.482  22.963  45.271  0.00  0.00    +0.000 OA
ATOM     40  H   UNL     1      35.997  23.706  44.864  0.00  0.00    +0.000 HD
ENDBRANCH  36  39
ENDBRANCH  26  33
ENDBRANCH  22  28
ENDBRANCH   1  22
TORSDOF 6
