
 OpenBabel03272509503D

 33 35  0  0  1  0  0  0  0  0999 V2000
   37.4310   30.5840   51.0720 C   0  0  0  0  0  0  0  0  0  0  0  0
   38.2260   31.0780   50.0280 C   0  0  0  0  0  0  0  0  0  0  0  0
   37.9540   30.6450   48.7420 C   0  0  0  0  0  0  0  0  0  0  0  0
   36.9330   29.7660   48.5530 N   0  0  0  0  0  0  0  0  0  0  0  0
   36.1820   29.3050   49.5750 C   0  0  0  0  0  0  0  0  0  0  0  0
   36.4510   29.7300   50.8280 N   0  0  0  0  0  0  0  0  0  0  0  0
   37.6800   30.9490   52.0590 H   0  0  0  0  0  0  0  0  0  0  0  0
   39.0340   31.7740   50.1860 H   0  0  0  0  0  0  0  0  0  0  0  0
   38.0010   30.9720   46.2650 C   0  0  1  0  0  3  0  0  0  0  0  0
   38.7480   31.1150   47.5510 C   0  0  1  0  0  3  0  0  0  0  0  0
   38.9190   32.5060   47.6860 O   0  0  0  0  0  0  0  0  0  0  0  0
   39.4150   32.9080   46.4640 C   0  0  0  0  0  2  0  0  0  0  0  0
   38.5870   32.1410   45.4640 C   0  0  2  0  0  3  0  0  0  0  0  0
   38.4260   29.7930   45.6630 O   0  0  0  0  0  0  0  0  0  0  0  0
   39.4040   29.6970   45.8690 H   0  0  0  0  0  0  0  0  0  0  0  0
   37.6010   32.9560   44.9620 O   0  0  0  0  0  0  0  0  0  0  0  0
   36.9540   32.4260   44.4200 H   0  0  0  0  0  0  0  0  0  0  0  0
   35.2100   28.4340   49.1860 O   0  0  0  0  0  0  0  0  0  0  0  0
   34.4350   28.7780   48.0310 C   0  0  0  0  0  0  0  0  0  0  0  0
   35.0550   29.2010   47.2380 H   0  0  0  0  0  0  0  0  0  0  0  0
   33.7250   29.5590   48.4140 H   0  0  0  0  0  0  0  0  0  0  0  0
   33.5760   27.6140   47.6210 C   0  0  0  0  0  0  0  0  0  0  0  0
   33.7990   27.3610   46.5650 H   0  0  0  0  0  0  0  0  0  0  0  0
   33.7870   26.7000   48.2130 H   0  0  0  0  0  0  0  0  0  0  0  0
   32.1250   27.9480   47.6450 C   0  0  0  0  0  0  0  0  0  0  0  0
   31.4040   27.5090   48.7280 C   0  0  0  0  0  0  0  0  0  0  0  0
   30.0470   27.7640   48.8520 C   0  0  0  0  0  0  0  0  0  0  0  0
   29.4330   28.4560   47.8920 N   0  0  0  0  0  0  0  0  0  0  0  0
   30.1500   28.8850   46.8290 C   0  0  0  0  0  0  0  0  0  0  0  0
   31.4680   28.6430   46.6960 N   0  0  0  0  0  0  0  0  0  0  0  0
   31.8800   26.9460   49.5210 H   0  0  0  0  0  0  0  0  0  0  0  0
   29.5120   27.4000   49.7240 H   0  0  0  0  0  0  0  0  0  0  0  0
   29.5950   29.4360   46.0900 H   0  0  0  0  0  0  0  0  0  0  0  0
  1  7  1  0  0  0  0
  2  8  1  0  0  0  0
  2  1  2  0  0  0  0
  3  2  1  0  0  0  0
  4  3  2  0  0  0  0
  4  5  1  0  0  0  0
  5  6  2  0  0  0  0
  6  1  1  0  0  0  0
  9 14  1  6  0  0  0
  9 10  1  0  0  0  0
 10 11  1  0  0  0  0
 10  3  1  1  0  0  0
 12 11  1  0  0  0  0
 13 16  1  1  0  0  0
 13  9  1  0  0  0  0
 13 12  1  0  0  0  0
 14 15  1  0  0  0  0
 17 16  1  0  0  0  0
 18  5  1  0  0  0  0
 19 21  1  0  0  0  0
 19 18  1  0  0  0  0
 20 19  1  0  0  0  0
 22 25  1  0  0  0  0
 22 19  1  0  0  0  0
 22 24  1  0  0  0  0
 23 22  1  0  0  0  0
 25 26  1  0  0  0  0
 26 27  2  0  0  0  0
 26 31  1  0  0  0  0
 27 32  1  0  0  0  0
 28 27  1  0  0  0  0
 29 28  2  0  0  0  0
 30 29  1  0  0  0  0
 30 25  2  0  0  0  0
 33 29  1  0  0  0  0
M  END
>  <minimizedAffinity>
-5.49767065

>  <minimizedRMSD>
0.889849782

$$$$
