
 OpenBabel03272509033D

 33 35  0  0  1  0  0  0  0  0999 V2000
   37.5240   31.2450   50.6710 C   0  0  0  0  0  0  0  0  0  0  0  0
   38.3220   31.7250   49.6090 C   0  0  0  0  0  0  0  0  0  0  0  0
   38.1280   31.1400   48.3390 C   0  0  0  0  0  0  0  0  0  0  0  0
   37.1890   30.1520   48.2100 N   0  0  0  0  0  0  0  0  0  0  0  0
   36.4630   29.7440   49.2700 C   0  0  0  0  0  0  0  0  0  0  0  0
   36.6190   30.2780   50.5010 N   0  0  0  0  0  0  0  0  0  0  0  0
   37.7310   31.7420   51.6160 H   0  0  0  0  0  0  0  0  0  0  0  0
   39.0570   32.4930   49.6910 H   0  0  0  0  0  0  0  0  0  0  0  0
   39.3280   30.5350   46.2770 C   0  0  1  0  0  3  0  0  0  0  0  0
   38.9520   31.6270   47.2080 C   0  0  1  0  0  3  0  0  0  0  0  0
   38.3360   32.6300   46.4900 O   0  0  0  0  0  0  0  0  0  0  0  0
   37.8340   32.0900   45.3250 C   0  0  0  0  0  2  0  0  0  0  0  0
   38.3640   30.7130   45.1300 C   0  0  1  0  0  3  0  0  0  0  0  0
   40.6340   30.6660   45.8240 O   0  0  0  0  0  0  0  0  0  0  0  0
   40.6460   30.3380   44.8870 H   0  0  0  0  0  0  0  0  0  0  0  0
   39.0000   30.5520   43.9070 O   0  0  0  0  0  0  0  0  0  0  0  0
   38.3400   30.6100   43.1880 H   0  0  0  0  0  0  0  0  0  0  0  0
   35.5140   28.6880   49.0010 C   0  0  0  0  0  3  0  0  0  0  0  0
   34.3400   28.9820   48.5650 C   0  0  0  0  0  3  0  0  0  0  0  0
   33.2200   28.0990   48.2120 C   0  0  0  0  0  0  0  0  0  0  0  0
   32.8870   27.5760   49.1390 H   0  0  0  0  0  0  0  0  0  0  0  0
   32.3510   28.6650   47.8470 H   0  0  0  0  0  0  0  0  0  0  0  0
   33.5770   27.0740   47.1770 C   0  0  0  0  0  0  0  0  0  0  0  0
   33.7540   25.7210   47.4250 C   0  0  0  0  0  0  0  0  0  0  0  0
   34.0820   24.8740   46.3760 C   0  0  0  0  0  0  0  0  0  0  0  0
   34.2390   25.3510   45.0750 C   0  0  0  0  0  0  0  0  0  0  0  0
   34.0630   26.7010   44.8310 C   0  0  0  0  0  0  0  0  0  0  0  0
   33.7340   27.5500   45.8830 C   0  0  0  0  0  0  0  0  0  0  0  0
   33.6220   25.4050   48.4480 H   0  0  0  0  0  0  0  0  0  0  0  0
   34.2060   23.8330   46.6260 H   0  0  0  0  0  0  0  0  0  0  0  0
   34.4930   24.6060   44.3360 H   0  0  0  0  0  0  0  0  0  0  0  0
   34.1910   27.0360   43.8170 H   0  0  0  0  0  0  0  0  0  0  0  0
   33.6180   28.5810   45.5930 H   0  0  0  0  0  0  0  0  0  0  0  0
  1  7  1  0  0  0  0
  2  8  1  0  0  0  0
  2  1  2  0  0  0  0
  3  2  1  0  0  0  0
  4  3  2  0  0  0  0
  4  5  1  0  0  0  0
  5  6  2  0  0  0  0
  6  1  1  0  0  0  0
  9 14  1  6  0  0  0
  9 10  1  0  0  0  0
 10  3  1  1  0  0  0
 11 10  1  0  0  0  0
 12 11  1  0  0  0  0
 13 16  1  6  0  0  0
 13 12  1  0  0  0  0
 13  9  1  0  0  0  0
 15 14  1  0  0  0  0
 17 16  1  0  0  0  0
 18  5  1  0  0  0  0
 19 18  2  0  0  0  0
 20 19  1  0  0  0  0
 20 21  1  0  0  0  0
 22 20  1  0  0  0  0
 23 24  1  0  0  0  0
 23 20  1  0  0  0  0
 24 29  1  0  0  0  0
 25 30  1  0  0  0  0
 25 24  2  0  0  0  0
 26 25  1  0  0  0  0
 27 26  2  0  0  0  0
 27 28  1  0  0  0  0
 28 23  2  0  0  0  0
 31 26  1  0  0  0  0
 32 27  1  0  0  0  0
 33 28  1  0  0  0  0
M  END
>  <minimizedAffinity>
-5.7056179

>  <minimizedRMSD>
1.21524286

$$$$
