
 OpenBabel03262520083D

 18 19  0  0  1  0  0  0  0  0999 V2000
   38.0720   21.7000   33.1630 C   0  0  0  0  0  0  0  0  0  0  0  0
   39.3860   21.4770   32.7270 C   0  0  0  0  0  0  0  0  0  0  0  0
   40.4380   21.7140   33.6220 C   0  0  0  0  0  0  0  0  0  0  0  0
   40.1210   22.1530   34.8820 N   0  0  0  0  0  0  0  0  0  0  0  0
   38.8390   22.3540   35.2620 C   0  0  0  0  0  0  0  0  0  0  0  0
   37.8220   22.1320   34.4160 N   0  0  0  0  0  0  0  0  0  0  0  0
   37.3210   21.4900   32.4040 H   0  0  0  0  0  0  0  0  0  0  0  0
   39.6360   21.1310   31.7350 H   0  0  0  0  0  0  0  0  0  0  0  0
   41.4830   21.5680   33.3650 H   0  0  0  0  0  0  0  0  0  0  0  0
   39.6610   22.9840   37.5250 C   0  0  1  0  0  3  0  0  0  0  0  0
   38.4600   22.8220   36.5960 C   0  0  1  0  0  3  0  0  0  0  0  0
   37.9510   24.0980   36.6260 O   0  0  0  0  0  0  0  0  0  0  0  0
   37.9090   24.4460   37.9650 C   0  0  0  0  0  2  0  0  0  0  0  0
   38.8710   23.5430   38.7170 C   0  0  1  0  0  3  0  0  0  0  0  0
   40.2430   21.8040   37.8900 O   0  0  0  0  0  0  0  0  0  0  0  0
   41.1400   21.6910   37.4520 H   0  0  0  0  0  0  0  0  0  0  0  0
   38.2220   22.4450   39.2700 O   0  0  0  0  0  0  0  0  0  0  0  0
   37.2480   22.5530   39.3490 H   0  0  0  0  0  0  0  0  0  0  0  0
  1  6  1  0  0  0  0
  2  1  2  0  0  0  0
  2  3  1  0  0  0  0
  3  4  2  0  0  0  0
  4  5  1  0  0  0  0
  6  5  2  0  0  0  0
  7  1  1  0  0  0  0
  8  2  1  0  0  0  0
  9  3  1  0  0  0  0
 10 15  1  1  0  0  0
 10 14  1  0  0  0  0
 11  5  1  6  0  0  0
 11 12  1  0  0  0  0
 11 10  1  0  0  0  0
 12 13  1  0  0  0  0
 13 14  1  0  0  0  0
 14 17  1  6  0  0  0
 16 15  1  0  0  0  0
 17 18  1  0  0  0  0
M  END
>  <minimizedAffinity>
-4.40721655

$$$$

 OpenBabel03262520083D

 18 19  0  0  1  0  0  0  0  0999 V2000
   38.3800   23.9590   38.5380 C   0  0  0  0  0  0  0  0  0  0  0  0
   39.3820   23.0200   38.2580 C   0  0  0  0  0  0  0  0  0  0  0  0
   39.8780   22.9390   36.9500 C   0  0  0  0  0  0  0  0  0  0  0  0
   39.3520   23.7890   36.0120 N   0  0  0  0  0  0  0  0  0  0  0  0
   38.3860   24.6810   36.3240 C   0  0  0  0  0  0  0  0  0  0  0  0
   37.9010   24.7690   37.5710 N   0  0  0  0  0  0  0  0  0  0  0  0
   38.0550   23.9530   39.5770 H   0  0  0  0  0  0  0  0  0  0  0  0
   39.7970   22.3500   38.9980 H   0  0  0  0  0  0  0  0  0  0  0  0
   40.6530   22.2400   36.6490 H   0  0  0  0  0  0  0  0  0  0  0  0
   38.6400   26.8630   35.1550 C   0  0  1  0  0  3  0  0  0  0  0  0
   37.7980   25.6040   35.3520 C   0  0  1  0  0  3  0  0  0  0  0  0
   37.7640   25.1270   34.0650 O   0  0  0  0  0  0  0  0  0  0  0  0
   37.4350   26.2150   33.2760 C   0  0  0  0  0  2  0  0  0  0  0  0
   37.7600   27.4770   34.0560 C   0  0  1  0  0  3  0  0  0  0  0  0
   38.6510   27.6980   36.2350 O   0  0  0  0  0  0  0  0  0  0  0  0
   39.5460   27.6890   36.6910 H   0  0  0  0  0  0  0  0  0  0  0  0
   36.6450   27.9750   34.7200 O   0  0  0  0  0  0  0  0  0  0  0  0
   35.7890   27.6360   34.3740 H   0  0  0  0  0  0  0  0  0  0  0  0
  1  7  1  0  0  0  0
  2  1  1  0  0  0  0
  2  8  1  0  0  0  0
  3  2  2  0  0  0  0
  4  5  2  0  0  0  0
  4  3  1  0  0  0  0
  5  6  1  0  0  0  0
  6  1  2  0  0  0  0
  9  3  1  0  0  0  0
 10 11  1  0  0  0  0
 10 15  1  1  0  0  0
 11  5  1  1  0  0  0
 12 11  1  0  0  0  0
 13 14  1  0  0  0  0
 13 12  1  0  0  0  0
 14 17  1  1  0  0  0
 14 10  1  0  0  0  0
 15 16  1  0  0  0  0
 18 17  1  0  0  0  0
M  END
>  <minimizedAffinity>
-4.27754545

$$$$

 OpenBabel03262520083D

 18 19  0  0  1  0  0  0  0  0999 V2000
   42.5450   21.0230   36.9190 C   0  0  0  0  0  0  0  0  0  0  0  0
   43.5720   21.8460   36.4380 C   0  0  0  0  0  0  0  0  0  0  0  0
   43.2400   23.1140   35.9420 C   0  0  0  0  0  0  0  0  0  0  0  0
   41.9180   23.4800   35.9550 N   0  0  0  0  0  0  0  0  0  0  0  0
   40.9580   22.6550   36.4290 C   0  0  0  0  0  0  0  0  0  0  0  0
   41.2610   21.4400   36.9060 N   0  0  0  0  0  0  0  0  0  0  0  0
   42.8930   20.0590   37.2840 H   0  0  0  0  0  0  0  0  0  0  0  0
   44.6140   21.5570   36.4270 H   0  0  0  0  0  0  0  0  0  0  0  0
   43.9740   23.8120   35.5510 H   0  0  0  0  0  0  0  0  0  0  0  0
   39.0720   23.4440   37.8480 C   0  0  1  0  0  3  0  0  0  0  0  0
   39.5380   23.0090   36.4600 C   0  0  1  0  0  3  0  0  0  0  0  0
   39.2150   24.1260   35.7300 O   0  0  0  0  0  0  0  0  0  0  0  0
   37.9190   24.4440   36.0950 C   0  0  0  0  0  2  0  0  0  0  0  0
   37.6330   23.7900   37.4350 C   0  0  1  0  0  3  0  0  0  0  0  0
   39.0410   22.4330   38.7650 O   0  0  0  0  0  0  0  0  0  0  0  0
   39.7710   22.5410   39.4470 H   0  0  0  0  0  0  0  0  0  0  0  0
   36.9940   22.5640   37.2850 O   0  0  0  0  0  0  0  0  0  0  0  0
   36.5730   22.4370   36.4060 H   0  0  0  0  0  0  0  0  0  0  0  0
  1  7  1  0  0  0  0
  2  1  2  0  0  0  0
  3  4  2  0  0  0  0
  3  2  1  0  0  0  0
  4  5  1  0  0  0  0
  5  6  2  0  0  0  0
  6  1  1  0  0  0  0
  8  2  1  0  0  0  0
  9  3  1  0  0  0  0
 10 15  1  1  0  0  0
 11  5  1  1  0  0  0
 11 10  1  0  0  0  0
 12 13  1  0  0  0  0
 12 11  1  0  0  0  0
 13 14  1  0  0  0  0
 14 17  1  6  0  0  0
 14 10  1  0  0  0  0
 15 16  1  0  0  0  0
 18 17  1  0  0  0  0
M  END
>  <minimizedAffinity>
-4.11445618

$$$$

 OpenBabel03262520083D

 18 19  0  0  1  0  0  0  0  0999 V2000
   37.6090   24.3960   32.9450 C   0  0  0  0  0  0  0  0  0  0  0  0
   37.0960   25.6880   33.1240 C   0  0  0  0  0  0  0  0  0  0  0  0
   37.4260   26.3840   34.2950 C   0  0  0  0  0  0  0  0  0  0  0  0
   38.2370   25.7570   35.2050 N   0  0  0  0  0  0  0  0  0  0  0  0
   38.7110   24.5100   34.9930 C   0  0  0  0  0  0  0  0  0  0  0  0
   38.4040   23.8310   33.8780 N   0  0  0  0  0  0  0  0  0  0  0  0
   37.3020   23.9310   32.0100 H   0  0  0  0  0  0  0  0  0  0  0  0
   36.4560   26.1820   32.4070 H   0  0  0  0  0  0  0  0  0  0  0  0
   37.0710   27.3880   34.5110 H   0  0  0  0  0  0  0  0  0  0  0  0
   39.3990   22.2910   35.8860 C   0  0  1  0  0  3  0  0  0  0  0  0
   39.5790   23.8070   35.9390 C   0  0  1  0  0  3  0  0  0  0  0  0
   40.9200   23.9060   35.6620 O   0  0  0  0  0  0  0  0  0  0  0  0
   41.5370   22.9800   36.4840 C   0  0  0  0  0  2  0  0  0  0  0  0
   40.4950   21.9610   36.9110 C   0  0  1  0  0  3  0  0  0  0  0  0
   38.1970   21.8570   36.3650 O   0  0  0  0  0  0  0  0  0  0  0  0
   37.6100   21.5230   35.6210 H   0  0  0  0  0  0  0  0  0  0  0  0
   39.9420   22.2750   38.1470 O   0  0  0  0  0  0  0  0  0  0  0  0
   40.4790   22.9050   38.6770 H   0  0  0  0  0  0  0  0  0  0  0  0
  1  2  2  0  0  0  0
  1  6  1  0  0  0  0
  2  3  1  0  0  0  0
  3  9  1  0  0  0  0
  3  4  2  0  0  0  0
  5  4  1  0  0  0  0
  6  5  2  0  0  0  0
  7  1  1  0  0  0  0
  8  2  1  0  0  0  0
 10 11  1  0  0  0  0
 10 15  1  1  0  0  0
 10 14  1  0  0  0  0
 11  5  1  6  0  0  0
 12 11  1  0  0  0  0
 12 13  1  0  0  0  0
 13 14  1  0  0  0  0
 14 17  1  1  0  0  0
 16 15  1  0  0  0  0
 17 18  1  0  0  0  0
M  END
>  <minimizedAffinity>
-4.05332851

$$$$

 OpenBabel03262520083D

 18 19  0  0  1  0  0  0  0  0999 V2000
   38.8900   25.7760   33.3770 C   0  0  0  0  0  0  0  0  0  0  0  0
   38.7100   24.8060   32.3810 C   0  0  0  0  0  0  0  0  0  0  0  0
   38.2610   23.5330   32.7580 C   0  0  0  0  0  0  0  0  0  0  0  0
   38.0210   23.3070   34.0890 N   0  0  0  0  0  0  0  0  0  0  0  0
   38.2060   24.2720   35.0170 C   0  0  0  0  0  0  0  0  0  0  0  0
   38.6360   25.4940   34.6720 N   0  0  0  0  0  0  0  0  0  0  0  0
   39.2390   26.7330   32.9950 H   0  0  0  0  0  0  0  0  0  0  0  0
   38.9000   24.9840   31.3320 H   0  0  0  0  0  0  0  0  0  0  0  0
   38.0970   22.7250   32.0500 H   0  0  0  0  0  0  0  0  0  0  0  0
   39.0220   23.1900   37.1050 C   0  0  1  0  0  3  0  0  0  0  0  0
   37.9620   24.0700   36.4460 C   0  0  1  0  0  3  0  0  0  0  0  0
   38.0770   25.2070   37.2080 O   0  0  0  0  0  0  0  0  0  0  0  0
   38.0790   24.7720   38.5220 C   0  0  0  0  0  2  0  0  0  0  0  0
   38.4650   23.3040   38.5320 C   0  0  1  0  0  3  0  0  0  0  0  0
   38.9800   21.8830   36.7130 O   0  0  0  0  0  0  0  0  0  0  0  0
   39.7660   21.6530   36.1310 H   0  0  0  0  0  0  0  0  0  0  0  0
   37.3480   22.4760   38.5520 O   0  0  0  0  0  0  0  0  0  0  0  0
   36.5230   22.9250   38.8420 H   0  0  0  0  0  0  0  0  0  0  0  0
  1  6  1  0  0  0  0
  2  3  1  0  0  0  0
  2  1  2  0  0  0  0
  3  4  2  0  0  0  0
  4  5  1  0  0  0  0
  6  5  2  0  0  0  0
  7  1  1  0  0  0  0
  8  2  1  0  0  0  0
  9  3  1  0  0  0  0
 10 15  1  6  0  0  0
 10 14  1  0  0  0  0
 11  5  1  6  0  0  0
 11 10  1  0  0  0  0
 11 12  1  0  0  0  0
 12 13  1  0  0  0  0
 13 14  1  0  0  0  0
 14 17  1  6  0  0  0
 16 15  1  0  0  0  0
 17 18  1  0  0  0  0
M  END
>  <minimizedAffinity>
-3.96946955

$$$$

 OpenBabel03262520083D

 18 19  0  0  1  0  0  0  0  0999 V2000
   43.1550   25.0670   34.9790 C   0  0  0  0  0  0  0  0  0  0  0  0
   44.1480   24.2880   35.5880 C   0  0  0  0  0  0  0  0  0  0  0  0
   43.7560   23.1890   36.3650 C   0  0  0  0  0  0  0  0  0  0  0  0
   42.4140   22.9380   36.4870 N   0  0  0  0  0  0  0  0  0  0  0  0
   41.4880   23.7150   35.8810 C   0  0  0  0  0  0  0  0  0  0  0  0
   41.8490   24.7690   35.1350 N   0  0  0  0  0  0  0  0  0  0  0  0
   43.5500   25.8970   34.3960 H   0  0  0  0  0  0  0  0  0  0  0  0
   45.2070   24.4860   35.4930 H   0  0  0  0  0  0  0  0  0  0  0  0
   44.4610   22.5350   36.8710 H   0  0  0  0  0  0  0  0  0  0  0  0
   39.6190   23.0840   37.3990 C   0  0  1  0  0  3  0  0  0  0  0  0
   40.0470   23.4800   35.9870 C   0  0  1  0  0  3  0  0  0  0  0  0
   39.2740   24.6000   35.8000 O   0  0  0  0  0  0  0  0  0  0  0  0
   37.9990   24.2380   36.1960 C   0  0  0  0  0  2  0  0  0  0  0  0
   38.1130   23.0240   37.1010 C   0  0  1  0  0  3  0  0  0  0  0  0
   40.0470   21.8460   37.7810 O   0  0  0  0  0  0  0  0  0  0  0  0
   40.7660   21.9110   38.4800 H   0  0  0  0  0  0  0  0  0  0  0  0
   37.9290   21.8380   36.3980 O   0  0  0  0  0  0  0  0  0  0  0  0
   37.4820   21.9530   35.5310 H   0  0  0  0  0  0  0  0  0  0  0  0
  1  6  2  0  0  0  0
  1  2  1  0  0  0  0
  2  3  2  0  0  0  0
  3  4  1  0  0  0  0
  3  9  1  0  0  0  0
  5  4  2  0  0  0  0
  6  5  1  0  0  0  0
  7  1  1  0  0  0  0
  8  2  1  0  0  0  0
 10 15  1  6  0  0  0
 11  5  1  1  0  0  0
 11 10  1  0  0  0  0
 12 11  1  0  0  0  0
 12 13  1  0  0  0  0
 13 14  1  0  0  0  0
 14 17  1  6  0  0  0
 14 10  1  0  0  0  0
 15 16  1  0  0  0  0
 18 17  1  0  0  0  0
M  END
>  <minimizedAffinity>
-3.86072946

$$$$

 OpenBabel03262520083D

 18 19  0  0  1  0  0  0  0  0999 V2000
   37.0630   27.5680   34.5240 C   0  0  0  0  0  0  0  0  0  0  0  0
   37.3070   27.4820   33.1470 C   0  0  0  0  0  0  0  0  0  0  0  0
   37.8450   26.2930   32.6350 C   0  0  0  0  0  0  0  0  0  0  0  0
   38.1040   25.2760   33.5160 N   0  0  0  0  0  0  0  0  0  0  0  0
   37.8520   25.4000   34.8380 C   0  0  0  0  0  0  0  0  0  0  0  0
   37.3380   26.5310   35.3420 N   0  0  0  0  0  0  0  0  0  0  0  0
   36.6450   28.5240   34.8330 H   0  0  0  0  0  0  0  0  0  0  0  0
   37.1030   28.2840   32.4520 H   0  0  0  0  0  0  0  0  0  0  0  0
   38.0650   26.1440   31.5810 H   0  0  0  0  0  0  0  0  0  0  0  0
   39.5980   23.9860   35.9090 C   0  0  1  0  0  3  0  0  0  0  0  0
   38.1150   24.3380   35.8100 C   0  0  1  0  0  3  0  0  0  0  0  0
   37.8570   24.6850   37.1140 O   0  0  0  0  0  0  0  0  0  0  0  0
   38.4080   23.6740   37.8810 C   0  0  0  0  0  2  0  0  0  0  0  0
   39.4460   22.9550   37.0380 C   0  0  1  0  0  3  0  0  0  0  0  0
   40.0950   23.3630   34.8010 O   0  0  0  0  0  0  0  0  0  0  0  0
   40.7130   23.9690   34.2910 H   0  0  0  0  0  0  0  0  0  0  0  0
   38.9190   21.8230   36.4260 O   0  0  0  0  0  0  0  0  0  0  0  0
   38.0870   21.4980   36.8360 H   0  0  0  0  0  0  0  0  0  0  0  0
  1  7  1  0  0  0  0
  1  6  1  0  0  0  0
  2  1  2  0  0  0  0
  3  2  1  0  0  0  0
  3  4  2  0  0  0  0
  4  5  1  0  0  0  0
  5  6  2  0  0  0  0
  8  2  1  0  0  0  0
  9  3  1  0  0  0  0
 10 15  1  6  0  0  0
 10 14  1  0  0  0  0
 11  5  1  6  0  0  0
 11 10  1  0  0  0  0
 11 12  1  0  0  0  0
 12 13  1  0  0  0  0
 14 17  1  6  0  0  0
 14 13  1  0  0  0  0
 16 15  1  0  0  0  0
 17 18  1  0  0  0  0
M  END
>  <minimizedAffinity>
-3.82109427

$$$$

 OpenBabel03262520083D

 18 19  0  0  1  0  0  0  0  0999 V2000
   37.2500   26.2520   33.6330 C   0  0  0  0  0  0  0  0  0  0  0  0
   37.1780   27.5380   34.1880 C   0  0  0  0  0  0  0  0  0  0  0  0
   37.7430   27.7560   35.4510 C   0  0  0  0  0  0  0  0  0  0  0  0
   38.3380   26.6920   36.0780 N   0  0  0  0  0  0  0  0  0  0  0  0
   38.3870   25.4680   35.5080 C   0  0  0  0  0  0  0  0  0  0  0  0
   37.8500   25.2440   34.3000 N   0  0  0  0  0  0  0  0  0  0  0  0
   36.7870   26.1750   32.6520 H   0  0  0  0  0  0  0  0  0  0  0  0
   36.7080   28.3760   33.6940 H   0  0  0  0  0  0  0  0  0  0  0  0
   37.7290   28.7200   35.9520 H   0  0  0  0  0  0  0  0  0  0  0  0
   38.1230   23.6720   37.2110 C   0  0  1  0  0  3  0  0  0  0  0  0
   39.0130   24.3080   36.1440 C   0  0  1  0  0  3  0  0  0  0  0  0
   39.2020   23.2350   35.3090 O   0  0  0  0  0  0  0  0  0  0  0  0
   39.5430   22.1790   36.1350 C   0  0  0  0  0  2  0  0  0  0  0  0
   39.0700   22.5080   37.5400 C   0  0  1  0  0  3  0  0  0  0  0  0
   37.9580   24.4410   38.3260 O   0  0  0  0  0  0  0  0  0  0  0  0
   37.0240   24.8080   38.3780 H   0  0  0  0  0  0  0  0  0  0  0  0
   40.0840   23.0710   38.3070 O   0  0  0  0  0  0  0  0  0  0  0  0
   40.9870   22.9120   37.9540 H   0  0  0  0  0  0  0  0  0  0  0  0
  1  2  2  0  0  0  0
  1  6  1  0  0  0  0
  2  3  1  0  0  0  0
  3  9  1  0  0  0  0
  3  4  2  0  0  0  0
  5  4  1  0  0  0  0
  6  5  2  0  0  0  0
  7  1  1  0  0  0  0
  8  2  1  0  0  0  0
 10 14  1  0  0  0  0
 10 15  1  1  0  0  0
 11  5  1  6  0  0  0
 11 10  1  0  0  0  0
 12 13  1  0  0  0  0
 12 11  1  0  0  0  0
 13 14  1  0  0  0  0
 14 17  1  1  0  0  0
 15 16  1  0  0  0  0
 18 17  1  0  0  0  0
M  END
>  <minimizedAffinity>
-3.78298163

$$$$

 OpenBabel03262520083D

 18 19  0  0  1  0  0  0  0  0999 V2000
   39.8030   22.8760   37.5510 C   0  0  0  0  0  0  0  0  0  0  0  0
   38.9910   23.2830   38.6200 C   0  0  0  0  0  0  0  0  0  0  0  0
   37.8780   24.0880   38.3480 C   0  0  0  0  0  0  0  0  0  0  0  0
   37.6430   24.4360   37.0420 N   0  0  0  0  0  0  0  0  0  0  0  0
   38.4500   24.0220   36.0410 C   0  0  0  0  0  0  0  0  0  0  0  0
   39.5200   23.2510   36.2860 N   0  0  0  0  0  0  0  0  0  0  0  0
   40.6430   22.2540   37.8550 H   0  0  0  0  0  0  0  0  0  0  0  0
   39.1760   23.0090   39.6490 H   0  0  0  0  0  0  0  0  0  0  0  0
   37.1990   24.4470   39.1170 H   0  0  0  0  0  0  0  0  0  0  0  0
   38.1580   25.8810   34.4120 C   0  0  1  0  0  3  0  0  0  0  0  0
   38.2340   24.3710   34.6360 C   0  0  1  0  0  3  0  0  0  0  0  0
   39.2790   24.0510   33.8040 O   0  0  0  0  0  0  0  0  0  0  0  0
   39.0050   24.6870   32.6060 C   0  0  0  0  0  2  0  0  0  0  0  0
   38.0220   25.8110   32.8830 C   0  0  1  0  0  3  0  0  0  0  0  0
   37.0380   26.4630   34.9320 O   0  0  0  0  0  0  0  0  0  0  0  0
   37.2620   27.0250   35.7340 H   0  0  0  0  0  0  0  0  0  0  0  0
   36.7090   25.4170   32.6530 O   0  0  0  0  0  0  0  0  0  0  0  0
   36.6250   24.6140   32.0920 H   0  0  0  0  0  0  0  0  0  0  0  0
  1  7  1  0  0  0  0
  1  2  1  0  0  0  0
  2  8  1  0  0  0  0
  3  2  2  0  0  0  0
  3  9  1  0  0  0  0
  4  3  1  0  0  0  0
  5  6  1  0  0  0  0
  5  4  2  0  0  0  0
  6  1  2  0  0  0  0
 10 11  1  0  0  0  0
 10 15  1  1  0  0  0
 11  5  1  1  0  0  0
 12 11  1  0  0  0  0
 13 14  1  0  0  0  0
 13 12  1  0  0  0  0
 14 17  1  1  0  0  0
 14 10  1  0  0  0  0
 15 16  1  0  0  0  0
 18 17  1  0  0  0  0
M  END
>  <minimizedAffinity>
-3.76149988

$$$$
