
     RDKit          3D

 30 32  0  0  0  0  0  0  0  0999 V2000
   37.0328   31.1624   49.2726 C   0  0  0  0  0  0  0  0  0  0  0  0
   37.2831   32.4586   49.7463 C   0  0  0  0  0  0  0  0  0  0  0  0
   38.2724   33.0996   48.9818 C   0  0  0  0  0  0  0  0  0  0  0  0
   38.8926   32.5267   47.9257 N   0  0  0  0  0  0  0  0  0  0  0  0
   38.5991   31.2728   47.5243 C   0  0  0  0  0  0  0  0  0  0  0  0
   37.6643   30.5988   48.2097 N   0  0  0  0  0  0  0  0  0  0  0  0
   35.9179   30.4165   49.9847 C   0  0  0  0  0  0  0  0  0  0  0  0
   35.7604   28.9940   49.8292 C   0  0  0  0  0  0  0  0  0  0  0  0
   36.5124   29.4595   51.0457 C   0  0  0  0  0  0  0  0  0  0  0  0
   38.6281   34.1171   49.1728 H   0  0  0  0  0  0  0  0  0  0  0  0
   38.9827   30.6688   46.7222 H   0  0  0  0  0  0  0  0  0  0  0  0
   35.1134   31.0273   50.4795 H   0  0  0  0  0  0  0  0  0  0  0  0
   36.3697   28.5144   49.0058 H   0  0  0  0  0  0  0  0  0  0  0  0
   34.8269   28.4376   49.9928 H   0  0  0  0  0  0  0  0  0  0  0  0
   37.5850   29.3226   51.0121 H   0  0  0  0  0  0  0  0  0  0  0  0
   35.9709   29.3499   51.9934 H   0  0  0  0  0  0  0  0  0  0  0  0
   34.5612   32.2768   50.6344 O   0  0  0  0  0  0  0  0  0  0  0  0
   35.2159   33.4990   50.6476 C   0  0  2  0  0  0  0  0  0  0  0  0
   36.7075   33.1801   50.8304 C   0  0  2  0  0  0  0  0  0  0  0  0
   37.2343   34.3361   51.2816 O   0  0  0  0  0  0  0  0  0  0  0  0
   36.2868   35.1019   51.8973 C   0  0  0  0  0  0  0  0  0  0  0  0
   35.0133   34.2459   51.9563 C   0  0  1  0  0  0  0  0  0  0  0  0
   33.8747   35.0003   51.9809 O   0  0  0  0  0  0  0  0  0  0  0  0
   34.5381   31.9109   51.5366 H   0  0  0  0  0  0  0  0  0  0  0  0
   35.0146   34.1233   49.7791 H   0  0  0  0  0  0  0  0  0  0  0  0
   36.6821   32.4924   51.7392 H   0  0  0  0  0  0  0  0  0  0  0  0
   36.0281   35.9845   51.2824 H   0  0  0  0  0  0  0  0  0  0  0  0
   36.5334   35.4716   52.9024 H   0  0  0  0  0  0  0  0  0  0  0  0
   35.1096   33.5161   52.7679 H   0  0  0  0  0  0  0  0  0  0  0  0
   34.0440   35.8007   52.5677 H   0  0  0  0  0  0  0  0  0  0  0  0
  1  2  1  0
  1  7  1  0
  3  2  2  0
  4  3  1  0
  5  4  2  0
  5  6  1  0
  6  1  2  0
  7  9  1  0
  8  7  1  0
  8  9  1  0
  3 10  1  0
  5 11  1  0
  7 12  1  0
  8 13  1  0
  8 14  1  0
  9 15  1  0
  9 16  1  0
 17 18  1  0
 18 19  1  0
 19 20  1  0
 20 21  1  0
 21 22  1  0
 22 23  1  0
 22 18  1  0
 17 24  1  0
 18 25  1  6
 19 26  1  1
 21 27  1  0
 21 28  1  0
 22 29  1  1
 23 30  1  0
  2 19  1  0
M  ISO  7  10  14  11  14  12  13  13  13  14  13  15  13  16  13
M  END
>  <DihAtoms>  (1) 
0,1,18,17

>  <DihDeg>  (1) 
84.57794569543437

$$$$
