
 OpenBabel03272508533D

 38 41  0  0  1  0  0  0  0  0999 V2000
   38.3450   31.5560   44.3450 C   0  0  0  0  0  0  0  0  0  0  0  0
   37.2300   32.1250   44.2240 O   0  0  0  0  0  0  0  0  0  0  0  0
   38.9190   31.3610   45.6520 N   0  0  0  0  0  0  0  0  0  0  0  0
   39.8950   31.0810   45.8050 H   0  0  0  0  0  0  0  0  0  0  0  0
   39.0950   31.0770   43.1680 C   0  0  0  0  0  0  0  0  0  0  0  0
   40.2610   30.3910   43.3740 C   0  0  0  0  0  0  0  0  0  0  0  0
   40.9540   29.9520   42.2570 C   0  0  0  0  0  0  0  0  0  0  0  0
   40.4320   30.2290   41.0140 C   0  0  0  0  0  0  0  0  0  0  0  0
   39.2400   30.9300   40.8020 C   0  0  0  0  0  0  0  0  0  0  0  0
   38.6140   31.3300   41.9310 N   0  0  0  0  0  0  0  0  0  0  0  0
   40.6770   30.1700   44.3380 H   0  0  0  0  0  0  0  0  0  0  0  0
   41.8710   29.4110   42.3440 H   0  0  0  0  0  0  0  0  0  0  0  0
   40.9460   29.9020   40.1180 H   0  0  0  0  0  0  0  0  0  0  0  0
   39.8170   31.5580   38.4580 C   0  0  1  0  0  3  0  0  0  0  0  0
   38.7470   31.1860   39.4440 C   0  0  2  0  0  3  0  0  0  0  0  0
   37.7870   32.1880   39.3980 O   0  0  0  0  0  0  0  0  0  0  0  0
   38.4100   33.3510   39.0130 C   0  0  0  0  0  2  0  0  0  0  0  0
   39.5900   33.0060   38.1580 C   0  0  2  0  0  3  0  0  0  0  0  0
   41.0750   31.4340   39.0640 O   0  0  0  0  0  0  0  0  0  0  0  0
   41.4190   32.3120   39.4030 H   0  0  0  0  0  0  0  0  0  0  0  0
   39.3410   33.2240   36.7920 O   0  0  0  0  0  0  0  0  0  0  0  0
   38.3830   33.4860   36.6820 H   0  0  0  0  0  0  0  0  0  0  0  0
   38.4230   30.9790   48.0620 C   0  0  2  0  0  0  0  0  0  0  0  0
   38.7470   32.4090   47.9180 C   0  0  0  0  0  0  0  0  0  0  0  0
   38.0580   31.5770   46.8020 C   0  0  1  0  0  0  0  0  0  0  0  0
   39.3320   30.3340   48.1490 H   0  0  0  0  0  0  0  0  0  0  0  0
   38.1100   33.2040   48.3150 H   0  0  0  0  0  0  0  0  0  0  0  0
   39.7880   32.7210   47.7530 H   0  0  0  0  0  0  0  0  0  0  0  0
   36.9960   31.8350   46.6090 H   0  0  0  0  0  0  0  0  0  0  0  0
   35.0830   30.2800   49.4850 C   0  0  0  0  0  0  0  0  0  0  0  0
   35.4040   29.6170   50.7120 C   0  0  0  0  0  0  0  0  0  0  0  0
   36.8050   29.4330   51.0160 C   0  0  0  0  0  0  0  0  0  0  0  0
   37.7300   29.8900   50.1440 N   0  0  0  0  0  0  0  0  0  0  0  0
   37.3520   30.5130   48.9940 C   0  0  0  0  0  0  0  0  0  0  0  0
   36.0360   30.7240   48.6370 N   0  0  0  0  0  0  0  0  0  0  0  0
   34.0260   30.3870   49.3120 H   0  0  0  0  0  0  0  0  0  0  0  0
   34.6440   29.2710   51.3720 H   0  0  0  0  0  0  0  0  0  0  0  0
   37.0790   28.9390   51.9280 H   0  0  0  0  0  0  0  0  0  0  0  0
  1  3  1  0  0  0  0
  2  1  2  0  0  0  0
  3  4  1  0  0  0  0
  3 25  1  0  0  0  0
  5  6  1  0  0  0  0
  5  1  1  0  0  0  0
  6 11  1  0  0  0  0
  7 12  1  0  0  0  0
  7  6  2  0  0  0  0
  8  7  1  0  0  0  0
  9  8  2  0  0  0  0
  9 10  1  0  0  0  0
 10  5  2  0  0  0  0
 13  8  1  0  0  0  0
 14 19  1  1  0  0  0
 14 15  1  0  0  0  0
 15  9  1  1  0  0  0
 16 15  1  0  0  0  0
 17 16  1  0  0  0  0
 18 21  1  6  0  0  0
 18 14  1  0  0  0  0
 18 17  1  0  0  0  0
 19 20  1  0  0  0  0
 22 21  1  0  0  0  0
 23 26  1  6  0  0  0
 23 34  1  0  0  0  0
 24 23  1  0  0  0  0
 24 27  1  0  0  0  0
 25 29  1  6  0  0  0
 25 24  1  0  0  0  0
 25 23  1  0  0  0  0
 28 24  1  0  0  0  0
 30 31  1  0  0  0  0
 31 32  2  0  0  0  0
 31 37  1  0  0  0  0
 32 38  1  0  0  0  0
 33 32  1  0  0  0  0
 34 33  2  0  0  0  0
 35 34  1  0  0  0  0
 35 30  2  0  0  0  0
 36 30  1  0  0  0  0
M  END
>  <minimizedAffinity>
-5.00003099

>  <minimizedRMSD>
0.890496135

$$$$
