
 OpenBabel03272508533D

 38 41  0  0  1  0  0  0  0  0999 V2000
   38.4800   31.7970   44.5640 C   0  0  0  0  0  0  0  0  0  0  0  0
   37.3780   32.4020   44.5110 O   0  0  0  0  0  0  0  0  0  0  0  0
   39.0530   31.4500   45.8390 N   0  0  0  0  0  0  0  0  0  0  0  0
   40.0230   31.1320   45.9560 H   0  0  0  0  0  0  0  0  0  0  0  0
   39.2130   31.4290   43.3380 C   0  0  0  0  0  0  0  0  0  0  0  0
   40.2330   30.5220   43.4370 C   0  0  0  0  0  0  0  0  0  0  0  0
   40.9140   30.1900   42.2770 C   0  0  0  0  0  0  0  0  0  0  0  0
   40.5270   30.7880   41.0990 C   0  0  0  0  0  0  0  0  0  0  0  0
   39.4840   31.7160   40.9970 C   0  0  0  0  0  0  0  0  0  0  0  0
   38.8620   31.9950   42.1620 N   0  0  0  0  0  0  0  0  0  0  0  0
   40.5430   30.0500   44.3510 H   0  0  0  0  0  0  0  0  0  0  0  0
   41.7200   29.4890   42.2820 H   0  0  0  0  0  0  0  0  0  0  0  0
   41.0360   30.5540   40.1720 H   0  0  0  0  0  0  0  0  0  0  0  0
   37.7910   31.8850   39.1710 C   0  0  1  0  0  3  0  0  0  0  0  0
   39.1300   32.3110   39.7030 C   0  0  2  0  0  3  0  0  0  0  0  0
   40.0650   32.0420   38.7120 O   0  0  0  0  0  0  0  0  0  0  0  0
   39.5930   30.9940   37.9610 C   0  0  0  0  0  2  0  0  0  0  0  0
   38.0960   31.0080   37.9960 C   0  0  2  0  0  3  0  0  0  0  0  0
   37.1320   31.1070   40.1330 O   0  0  0  0  0  0  0  0  0  0  0  0
   37.2450   30.1250   39.9650 H   0  0  0  0  0  0  0  0  0  0  0  0
   37.5380   31.5140   36.8090 O   0  0  0  0  0  0  0  0  0  0  0  0
   38.2810   31.8380   36.2240 H   0  0  0  0  0  0  0  0  0  0  0  0
   38.7160   31.1280   48.2850 C   0  0  2  0  0  0  0  0  0  0  0  0
   38.7440   32.5820   48.0500 C   0  0  0  0  0  0  0  0  0  0  0  0
   38.2020   31.5630   47.0110 C   0  0  1  0  0  0  0  0  0  0  0  0
   39.7380   30.6830   48.3690 H   0  0  0  0  0  0  0  0  0  0  0  0
   37.9720   33.2580   48.4290 H   0  0  0  0  0  0  0  0  0  0  0  0
   39.6960   33.0830   47.8240 H   0  0  0  0  0  0  0  0  0  0  0  0
   37.1040   31.5920   46.8490 H   0  0  0  0  0  0  0  0  0  0  0  0
   35.9060   29.2190   49.7430 C   0  0  0  0  0  0  0  0  0  0  0  0
   36.1210   29.3810   51.1490 C   0  0  0  0  0  0  0  0  0  0  0  0
   37.2600   30.1720   51.5560 C   0  0  0  0  0  0  0  0  0  0  0  0
   38.0550   30.7130   50.6070 N   0  0  0  0  0  0  0  0  0  0  0  0
   37.7900   30.5190   49.2860 C   0  0  0  0  0  0  0  0  0  0  0  0
   36.7230   29.7770   48.8230 N   0  0  0  0  0  0  0  0  0  0  0  0
   35.0450   28.6210   49.5010 H   0  0  0  0  0  0  0  0  0  0  0  0
   35.4710   28.9370   51.8650 H   0  0  0  0  0  0  0  0  0  0  0  0
   37.4490   30.3110   52.6020 H   0  0  0  0  0  0  0  0  0  0  0  0
  1  3  1  0  0  0  0
  2  1  2  0  0  0  0
  3  4  1  0  0  0  0
  3 25  1  0  0  0  0
  5  6  1  0  0  0  0
  5  1  1  0  0  0  0
  6 11  1  0  0  0  0
  7 12  1  0  0  0  0
  7  6  2  0  0  0  0
  8  7  1  0  0  0  0
  9  8  2  0  0  0  0
  9 10  1  0  0  0  0
 10  5  2  0  0  0  0
 13  8  1  0  0  0  0
 14 15  1  0  0  0  0
 14 19  1  1  0  0  0
 15  9  1  1  0  0  0
 16 15  1  0  0  0  0
 17 18  1  0  0  0  0
 17 16  1  0  0  0  0
 18 21  1  6  0  0  0
 18 14  1  0  0  0  0
 20 19  1  0  0  0  0
 22 21  1  0  0  0  0
 23 26  1  6  0  0  0
 23 34  1  0  0  0  0
 24 23  1  0  0  0  0
 24 27  1  0  0  0  0
 25 29  1  6  0  0  0
 25 24  1  0  0  0  0
 25 23  1  0  0  0  0
 28 24  1  0  0  0  0
 30 31  1  0  0  0  0
 31 32  2  0  0  0  0
 31 37  1  0  0  0  0
 32 38  1  0  0  0  0
 33 32  1  0  0  0  0
 34 33  2  0  0  0  0
 35 34  1  0  0  0  0
 35 30  2  0  0  0  0
 36 30  1  0  0  0  0
M  END
>  <minimizedAffinity>
-5.26108027

>  <minimizedRMSD>
1.54204631

$$$$
