
 OpenBabel03272504523D

 25 27  0  0  1  0  0  0  0  0999 V2000
   37.2580   31.3370   49.1370 C   0  0  0  0  0  0  0  0  0  0  0  0
   37.4190   32.6160   49.6970 C   0  0  0  0  0  0  0  0  0  0  0  0
   38.3650   33.4330   49.0730 C   0  0  0  0  0  0  0  0  0  0  0  0
   39.0600   32.9640   47.9890 N   0  0  0  0  0  0  0  0  0  0  0  0
   38.8710   31.7270   47.4860 C   0  0  0  0  0  0  0  0  0  0  0  0
   37.9580   30.9040   48.0690 N   0  0  0  0  0  0  0  0  0  0  0  0
   36.8660   32.9630   50.5410 H   0  0  0  0  0  0  0  0  0  0  0  0
   38.5740   34.4390   49.4180 H   0  0  0  0  0  0  0  0  0  0  0  0
   36.2260   30.4450   49.7720 C   0  0  0  0  0  0  0  0  0  0  0  0
   36.2490   29.0000   49.5700 C   0  0  0  0  0  0  0  0  0  0  0  0
   36.7930   29.5520   50.8610 C   0  0  0  0  0  0  0  0  0  0  0  0
   35.2410   30.9380   50.0200 H   0  0  0  0  0  0  0  0  0  0  0  0
   35.3530   28.3830   49.5420 H   0  0  0  0  0  0  0  0  0  0  0  0
   37.0800   28.6380   48.8970 H   0  0  0  0  0  0  0  0  0  0  0  0
   36.1230   29.3980   51.7270 H   0  0  0  0  0  0  0  0  0  0  0  0
   37.8620   29.5850   51.0630 H   0  0  0  0  0  0  0  0  0  0  0  0
   39.7910   32.3540   45.2440 C   0  0  1  0  0  0  0  0  0  0  0  0
   39.6700   31.3070   46.3090 C   0  0  2  0  0  0  0  0  0  0  0  0
   39.1370   30.2100   45.6440 O   0  0  0  0  0  0  0  0  0  0  0  0
   38.2540   30.6670   44.7070 C   0  0  0  0  0  0  0  0  0  0  0  0
   38.5460   32.0990   44.4200 C   0  0  1  0  0  0  0  0  0  0  0  0
   39.8430   33.6560   45.7280 O   0  0  0  0  0  0  0  0  0  0  0  0
   40.8120   33.9330   45.7300 H   0  0  0  0  0  0  0  0  0  0  0  0
   37.5350   32.9140   44.9280 O   0  0  0  0  0  0  0  0  0  0  0  0
   36.6370   32.6870   44.5880 H   0  0  0  0  0  0  0  0  0  0  0  0
  1  2  1  0  0  0  0
  1  9  1  0  0  0  0
  2  7  1  0  0  0  0
  3  8  1  0  0  0  0
  3  2  2  0  0  0  0
  4  3  1  0  0  0  0
  5  4  2  0  0  0  0
  5  6  1  0  0  0  0
  6  1  2  0  0  0  0
  9 12  1  0  0  0  0
  9 11  1  0  0  0  0
 10  9  1  0  0  0  0
 10 11  1  0  0  0  0
 11 16  1  0  0  0  0
 11 15  1  0  0  0  0
 13 10  1  0  0  0  0
 14 10  1  0  0  0  0
 17 22  1  1  0  0  0
 17 18  1  0  0  0  0
 18  5  1  1  0  0  0
 19 18  1  0  0  0  0
 20 19  1  0  0  0  0
 21 20  1  0  0  0  0
 21 24  1  1  0  0  0
 21 17  1  0  0  0  0
 22 23  1  0  0  0  0
 25 24  1  0  0  0  0
M  END
>  <minimizedAffinity>
-6.17190266

>  <minimizedRMSD>
0.602203369

$$$$
