
 OpenBabel03272508473D

 40 44  0  0  1  0  0  0  0  0999 V2000
   35.5040   29.5780   49.6370 C   0  0  0  0  0  0  0  0  0  0  0  0
   36.5280   29.2160   50.4920 C   0  0  0  0  0  0  0  0  0  0  0  0
   37.6740   29.7180   49.8710 C   0  0  0  0  0  0  0  0  0  0  0  0
   37.3000   30.3400   48.7060 C   0  0  0  0  0  0  0  0  0  0  0  0
   35.9910   30.2380   48.5960 O   0  0  0  0  0  0  0  0  0  0  0  0
   36.5050   28.6730   51.4300 H   0  0  0  0  0  0  0  0  0  0  0  0
   38.7130   29.6440   50.2270 H   0  0  0  0  0  0  0  0  0  0  0  0
   38.6060   32.2950   48.0020 C   0  0  0  0  0  0  0  0  0  0  0  0
   38.1770   31.0040   47.7440 C   0  0  0  0  0  0  0  0  0  0  0  0
   38.5550   30.3170   46.5950 C   0  0  0  0  0  0  0  0  0  0  0  0
   39.3860   30.9280   45.6710 C   0  0  0  0  0  0  0  0  0  0  0  0
   39.9230   30.5460   44.4870 N   0  0  0  0  0  0  0  0  0  0  0  0
   40.6490   31.5610   44.0410 N   0  0  0  0  0  0  0  0  0  0  0  0
   40.5900   32.5910   44.9180 C   0  0  0  0  0  0  0  0  0  0  0  0
   39.7860   32.2120   45.9720 C   0  0  0  0  0  0  0  0  0  0  0  0
   39.4470   32.9340   47.0820 C   0  0  0  0  0  0  0  0  0  0  0  0
   38.3190   32.8430   48.8960 H   0  0  0  0  0  0  0  0  0  0  0  0
   38.1960   29.2980   46.4240 H   0  0  0  0  0  0  0  0  0  0  0  0
   39.7410   29.6020   44.0780 H   0  0  0  0  0  0  0  0  0  0  0  0
   41.1040   33.5440   44.7790 H   0  0  0  0  0  0  0  0  0  0  0  0
   39.8090   33.9460   47.2430 H   0  0  0  0  0  0  0  0  0  0  0  0
   34.1050   29.2670   49.8710 C   0  0  0  0  0  0  0  0  0  0  0  0
   33.5140   29.8390   50.8020 O   0  0  0  0  0  0  0  0  0  0  0  0
   31.4650   27.1660   48.4800 C   0  0  0  0  0  0  0  0  0  0  0  0
   32.0940   26.4950   47.4510 C   0  0  0  0  0  0  0  0  0  0  0  0
   33.4220   26.7450   47.2150 C   0  0  0  0  0  0  0  0  0  0  0  0
   34.0700   27.6320   47.9880 N   0  0  0  0  0  0  0  0  0  0  0  0
   33.4380   28.2950   49.0070 C   0  0  0  0  0  0  0  0  0  0  0  0
   32.1270   28.0480   49.2400 N   0  0  0  0  0  0  0  0  0  0  0  0
   30.4150   26.9690   48.6670 H   0  0  0  0  0  0  0  0  0  0  0  0
   31.5440   25.7970   46.8590 H   0  0  0  0  0  0  0  0  0  0  0  0
   34.2930   26.8660   44.8710 C   0  0  1  0  0  3  0  0  0  0  0  0
   34.1740   26.0590   46.1200 C   0  0  2  0  0  3  0  0  0  0  0  0
   33.6410   24.8250   45.7860 O   0  0  0  0  0  0  0  0  0  0  0  0
   32.8530   24.9940   44.6610 C   0  0  0  0  0  2  0  0  0  0  0  0
   33.6250   26.0090   43.8410 C   0  0  2  0  0  3  0  0  0  0  0  0
   33.7590   28.1480   44.9610 O   0  0  0  0  0  0  0  0  0  0  0  0
   34.4960   28.8290   45.0820 H   0  0  0  0  0  0  0  0  0  0  0  0
   34.5570   25.3030   43.0740 O   0  0  0  0  0  0  0  0  0  0  0  0
   35.3800   25.0930   43.5860 H   0  0  0  0  0  0  0  0  0  0  0  0
  1 22  1  0  0  0  0
  1  2  2  0  0  0  0
  2  6  1  0  0  0  0
  3  7  1  0  0  0  0
  3  2  1  0  0  0  0
  4  3  2  0  0  0  0
  5  4  1  0  0  0  0
  5  1  1  0  0  0  0
  8 17  1  0  0  0  0
  9  8  1  0  0  0  0
  9  4  1  0  0  0  0
 10  9  2  0  0  0  0
 11 15  2  0  0  0  0
 11 10  1  0  0  0  0
 12 11  1  0  0  0  0
 13 12  1  0  0  0  0
 13 14  2  0  0  0  0
 14 15  1  0  0  0  0
 15 16  1  0  0  0  0
 16 21  1  0  0  0  0
 16  8  2  0  0  0  0
 18 10  1  0  0  0  0
 19 12  1  0  0  0  0
 20 14  1  0  0  0  0
 22 23  2  0  0  0  0
 24 30  1  0  0  0  0
 24 29  1  0  0  0  0
 25 24  2  0  0  0  0
 26 25  1  0  0  0  0
 26 27  2  0  0  0  0
 27 28  1  0  0  0  0
 28 29  2  0  0  0  0
 28 22  1  0  0  0  0
 31 25  1  0  0  0  0
 32 37  1  1  0  0  0
 32 33  1  0  0  0  0
 33 26  1  1  0  0  0
 34 33  1  0  0  0  0
 35 34  1  0  0  0  0
 36 39  1  6  0  0  0
 36 35  1  0  0  0  0
 36 32  1  0  0  0  0
 37 38  1  0  0  0  0
 39 40  1  0  0  0  0
M  END
>  <minimizedAffinity>
-6.29315519

>  <minimizedRMSD>
1.50712979

$$$$
