
 OpenBabel03272508533D

 38 41  0  0  1  0  0  0  0  0999 V2000
   38.4020   31.8520   44.5540 C   0  0  0  0  0  0  0  0  0  0  0  0
   37.3000   32.4480   44.4410 O   0  0  0  0  0  0  0  0  0  0  0  0
   38.9350   31.5610   45.8600 N   0  0  0  0  0  0  0  0  0  0  0  0
   39.9020   31.2530   46.0210 H   0  0  0  0  0  0  0  0  0  0  0  0
   39.1760   31.4370   43.3690 C   0  0  0  0  0  0  0  0  0  0  0  0
   40.1820   30.5250   43.5340 C   0  0  0  0  0  0  0  0  0  0  0  0
   40.9020   30.1500   42.4110 C   0  0  0  0  0  0  0  0  0  0  0  0
   40.5640   30.7120   41.2010 C   0  0  0  0  0  0  0  0  0  0  0  0
   39.5350   31.6450   41.0300 C   0  0  0  0  0  0  0  0  0  0  0  0
   38.8730   31.9680   42.1630 N   0  0  0  0  0  0  0  0  0  0  0  0
   40.4540   30.0800   44.4730 H   0  0  0  0  0  0  0  0  0  0  0  0
   41.7010   29.4430   42.4680 H   0  0  0  0  0  0  0  0  0  0  0  0
   41.1040   30.4430   40.3010 H   0  0  0  0  0  0  0  0  0  0  0  0
   37.9040   31.7800   39.1460 C   0  0  1  0  0  3  0  0  0  0  0  0
   39.2330   32.2000   39.7060 C   0  0  2  0  0  3  0  0  0  0  0  0
   40.1940   31.8800   38.7560 O   0  0  0  0  0  0  0  0  0  0  0  0
   39.7260   30.8150   38.0260 C   0  0  0  0  0  2  0  0  0  0  0  0
   38.2290   30.8580   38.0130 C   0  0  2  0  0  3  0  0  0  0  0  0
   37.2000   31.0470   40.1110 O   0  0  0  0  0  0  0  0  0  0  0  0
   37.2980   30.0590   39.9810 H   0  0  0  0  0  0  0  0  0  0  0  0
   37.7190   31.3310   36.7910 O   0  0  0  0  0  0  0  0  0  0  0  0
   38.4850   31.6210   36.2200 H   0  0  0  0  0  0  0  0  0  0  0  0
   38.4100   31.1030   48.2500 C   0  0  2  0  0  0  0  0  0  0  0  0
   38.6830   32.5460   48.1470 C   0  0  0  0  0  0  0  0  0  0  0  0
   38.0470   31.7170   46.9990 C   0  0  1  0  0  0  0  0  0  0  0  0
   39.3410   30.4900   48.3390 H   0  0  0  0  0  0  0  0  0  0  0  0
   38.0100   33.3070   48.5500 H   0  0  0  0  0  0  0  0  0  0  0  0
   39.7150   32.9000   48.0090 H   0  0  0  0  0  0  0  0  0  0  0  0
   36.9790   31.9390   46.7910 H   0  0  0  0  0  0  0  0  0  0  0  0
   35.0770   30.1950   49.5670 C   0  0  0  0  0  0  0  0  0  0  0  0
   35.3980   29.5660   50.8120 C   0  0  0  0  0  0  0  0  0  0  0  0
   36.7970   29.4800   51.1650 C   0  0  0  0  0  0  0  0  0  0  0  0
   37.7200   29.9890   50.3200 N   0  0  0  0  0  0  0  0  0  0  0  0
   37.3410   30.5750   49.1510 C   0  0  0  0  0  0  0  0  0  0  0  0
   36.0280   30.6940   48.7470 N   0  0  0  0  0  0  0  0  0  0  0  0
   34.0210   30.2300   49.3570 H   0  0  0  0  0  0  0  0  0  0  0  0
   34.6400   29.1770   51.4490 H   0  0  0  0  0  0  0  0  0  0  0  0
   37.0710   29.0130   52.0920 H   0  0  0  0  0  0  0  0  0  0  0  0
  1  3  1  0  0  0  0
  2  1  2  0  0  0  0
  3  4  1  0  0  0  0
  3 25  1  0  0  0  0
  5  6  1  0  0  0  0
  5  1  1  0  0  0  0
  6 11  1  0  0  0  0
  7 12  1  0  0  0  0
  7  6  2  0  0  0  0
  8  7  1  0  0  0  0
  9  8  2  0  0  0  0
  9 10  1  0  0  0  0
 10  5  2  0  0  0  0
 13  8  1  0  0  0  0
 14 15  1  0  0  0  0
 14 19  1  1  0  0  0
 15  9  1  1  0  0  0
 16 15  1  0  0  0  0
 17 16  1  0  0  0  0
 18 21  1  6  0  0  0
 18 17  1  0  0  0  0
 18 14  1  0  0  0  0
 20 19  1  0  0  0  0
 22 21  1  0  0  0  0
 23 26  1  6  0  0  0
 23 34  1  0  0  0  0
 24 23  1  0  0  0  0
 24 27  1  0  0  0  0
 25 29  1  6  0  0  0
 25 24  1  0  0  0  0
 25 23  1  0  0  0  0
 28 24  1  0  0  0  0
 30 31  1  0  0  0  0
 31 32  2  0  0  0  0
 31 37  1  0  0  0  0
 32 38  1  0  0  0  0
 33 32  1  0  0  0  0
 34 33  2  0  0  0  0
 35 34  1  0  0  0  0
 35 30  2  0  0  0  0
 36 30  1  0  0  0  0
M  END
>  <minimizedAffinity>
-5.14000511

>  <minimizedRMSD>
0.152693406

$$$$
