REMARK  Name = 
REMARK  3 active torsions:
REMARK  status: ('A' for Active; 'I' for Inactive)
REMARK    1  A    between atoms: N_12  and  C_22
REMARK    2  A    between atoms: O_20  and  C_21
REMARK    3  A    between atoms: C_25  and  O_26
REMARK                            x       y       z     vdW  Elec       q    Type
REMARK                         _______ _______ _______ _____ _____    ______ ____
ROOT
ATOM      1  C   UNL     1      37.784  30.681  50.608  0.00  0.00    +0.000 A 
ATOM      2  C   UNL     1      38.454  31.605  49.788  0.00  0.00    +0.000 A 
ATOM      3  C   UNL     1      37.924  31.866  48.497  0.00  0.00    +0.000 A 
ATOM      4  N   UNL     1      36.796  31.202  48.135  0.00  0.00    +0.000 NA
ATOM      5  C   UNL     1      36.186  30.321  48.960  0.00  0.00    +0.000 A 
ATOM      6  N   UNL     1      36.669  30.053  50.192  0.00  0.00    +0.000 NA
ATOM      7  N   UNL     1      35.007  29.614  48.606  0.00  0.00    +0.000 N 
ATOM      8  C   UNL     1      34.748  29.420  47.291  0.00  0.00    +0.000 A 
ATOM      9  C   UNL     1      33.593  28.731  47.013  0.00  0.00    +0.000 A 
ATOM     10  C   UNL     1      32.730  28.252  47.978  0.00  0.00    +0.000 A 
ATOM     11  O   UNL     1      31.666  27.617  47.716  0.00  0.00    +0.000 OA
ATOM     12  N   UNL     1      33.035  28.474  49.298  0.00  0.00    +0.000 N 
ATOM     13  C   UNL     1      34.166  29.149  49.559  0.00  0.00    +0.000 A 
ATOM     14  O   UNL     1      34.502  29.384  50.751  0.00  0.00    +0.000 OA
ATOM     15  H   UNL     1      38.213  30.503  51.584  0.00  0.00    +0.000 HD
ATOM     16  H   UNL     1      39.344  32.130  50.070  0.00  0.00    +0.000 HD
ATOM     17  H   UNL     1      38.371  32.558  47.804  0.00  0.00    +0.000 HD
ATOM     18  H   UNL     1      35.407  29.785  46.510  0.00  0.00    +0.000 HD
ATOM     19  H   UNL     1      33.329  28.543  45.980  0.00  0.00    +0.000 HD
ENDROOT
BRANCH  12  21
ATOM     20  C   UNL     1      31.188  28.982  50.863  0.00  0.00    +0.000 C 
ATOM     21  C   UNL     1      32.172  27.997  50.332  0.00  0.00    +0.000 C 
ATOM     22  O   UNL     1      31.452  26.853  49.941  0.00  0.00    +0.000 OA
ATOM     23  C   UNL     1      30.547  26.736  51.004  0.00  0.00    +0.000 C 
ATOM     24  C   UNL     1      29.937  28.124  50.993  0.00  0.00    +0.000 C 
BRANCH  20  25
ATOM     25  O   UNL     1      31.521  29.383  52.177  0.00  0.00    +0.000 OA
ATOM     26  H   UNL     1      32.142  30.139  52.184  0.00  0.00    +0.000 HD
ENDBRANCH  20  25
BRANCH  24  27
ATOM     27  O   UNL     1      29.078  28.266  49.930  0.00  0.00    +0.000 OA
ATOM     28  H   UNL     1      28.163  28.038  50.156  0.00  0.00    +0.000 HD
ENDBRANCH  24  27
ENDBRANCH  12  21
TORSDOF 3
