REMARK  Name = 
REMARK  5 active torsions:
REMARK  status: ('A' for Active; 'I' for Inactive)
REMARK    1  A    between atoms: C_1  and  N_9
REMARK    2  A    between atoms: C_2  and  N_10
REMARK    3  A    between atoms: N_15  and  C_26
REMARK    4  A    between atoms: O_24  and  C_25
REMARK    5  A    between atoms: C_29  and  O_30
REMARK                            x       y       z     vdW  Elec       q    Type
REMARK                         _______ _______ _______ _____ _____    ______ ____
ROOT
ATOM      1  N   UNL     1      36.712  31.328  48.965  0.00  0.00    +0.000 N 
ATOM      2  C   UNL     1      36.558  32.332  49.821  0.00  0.00    +0.000 A 
ATOM      3  C   UNL     1      37.537  33.317  49.929  0.00  0.00    +0.000 A 
ATOM      4  C   UNL     1      38.608  33.147  49.105  0.00  0.00    +0.000 A 
ATOM      5  O   UNL     1      39.491  34.055  49.216  0.00  0.00    +0.000 OA
ATOM      6  N   UNL     1      38.804  32.164  48.236  0.00  0.00    +0.000 N 
ATOM      7  C   UNL     1      37.823  31.232  48.171  0.00  0.00    +0.000 A 
ATOM      8  O   UNL     1      37.990  30.284  47.348  0.00  0.00    +0.000 OA
ATOM      9  H   UNL     1      35.663  32.380  50.439  0.00  0.00    +0.000 HD
ATOM     10  H   UNL     1      37.407  34.125  50.622  0.00  0.00    +0.000 HD
ENDROOT
BRANCH   1  12
ATOM     11  C   UNL     1      35.646  29.328  49.843  0.00  0.00    +0.000 A 
ATOM     12  C   UNL     1      35.744  30.279  48.808  0.00  0.00    +0.000 A 
ATOM     13  C   UNL     1      34.907  30.161  47.684  0.00  0.00    +0.000 A 
ATOM     14  N   UNL     1      34.042  29.125  47.661  0.00  0.00    +0.000 NA
ATOM     15  C   UNL     1      33.948  28.230  48.632  0.00  0.00    +0.000 A 
ATOM     16  N   UNL     1      34.745  28.332  49.713  0.00  0.00    +0.000 NA
ATOM     17  H   UNL     1      35.002  30.894  46.917  0.00  0.00    +0.000 HD
ATOM     18  H   UNL     1      33.261  27.404  48.617  0.00  0.00    +0.000 HD
BRANCH  11  21
ATOM     19  C   UNL     1      37.643  30.067  51.352  0.00  0.00    +0.000 C 
ATOM     20  O   UNL     1      38.211  30.825  50.536  0.00  0.00    +0.000 OA
ATOM     21  N   UNL     1      36.433  29.366  51.013  0.00  0.00    +0.000 N 
ATOM     22  H   UNL     1      38.113  29.974  52.317  0.00  0.00    +0.000 HD
ATOM     23  H   UNL     1      36.110  28.778  51.841  0.00  0.00    +0.000 HD
ENDBRANCH  11  21
ENDBRANCH   1  12
BRANCH   6  25
ATOM     24  C   UNL     1      39.718  32.420  45.958  0.00  0.00    +0.000 C 
ATOM     25  C   UNL     1      39.951  32.057  47.411  0.00  0.00    +0.000 C 
ATOM     26  O   UNL     1      40.983  32.917  47.752  0.00  0.00    +0.000 OA
ATOM     27  C   UNL     1      41.858  32.969  46.709  0.00  0.00    +0.000 C 
ATOM     28  C   UNL     1      41.177  32.335  45.490  0.00  0.00    +0.000 C 
BRANCH  24  29
ATOM     29  O   UNL     1      38.919  31.518  45.295  0.00  0.00    +0.000 OA
ATOM     30  H   UNL     1      38.230  32.046  44.781  0.00  0.00    +0.000 HD
ENDBRANCH  24  29
BRANCH  28  31
ATOM     31  O   UNL     1      41.412  33.057  44.343  0.00  0.00    +0.000 OA
ATOM     32  H   UNL     1      40.990  32.587  43.606  0.00  0.00    +0.000 HD
ENDBRANCH  28  31
ENDBRANCH   6  25
TORSDOF 5
