
 OpenBabel03272507523D

 32 34  0  0  1  0  0  0  0  0999 V2000
   36.4940   31.1490   48.6890 N   0  0  0  0  0  0  0  0  0  0  0  0
   36.8060   32.0260   49.6360 C   0  0  0  0  0  0  0  0  0  0  0  0
   37.8720   32.9040   49.4550 C   0  0  0  0  0  0  0  0  0  0  0  0
   38.5210   32.7720   48.2650 C   0  0  0  0  0  0  0  0  0  0  0  0
   39.4900   33.5810   48.1160 O   0  0  0  0  0  0  0  0  0  0  0  0
   38.2450   31.9140   47.2910 N   0  0  0  0  0  0  0  0  0  0  0  0
   37.2010   31.0820   47.5180 C   0  0  0  0  0  0  0  0  0  0  0  0
   36.9210   30.2540   46.6020 O   0  0  0  0  0  0  0  0  0  0  0  0
   36.2250   32.0540   50.5560 H   0  0  0  0  0  0  0  0  0  0  0  0
   38.1190   33.6100   50.2240 H   0  0  0  0  0  0  0  0  0  0  0  0
   35.2860   29.5290   50.0400 C   0  0  0  0  0  0  0  0  0  0  0  0
   35.4110   30.2140   48.8150 C   0  0  0  0  0  0  0  0  0  0  0  0
   34.4900   29.9550   47.7840 C   0  0  0  0  0  0  0  0  0  0  0  0
   33.5200   29.0490   48.0330 N   0  0  0  0  0  0  0  0  0  0  0  0
   33.4000   28.4040   49.1830 C   0  0  0  0  0  0  0  0  0  0  0  0
   34.2770   28.6430   50.1770 N   0  0  0  0  0  0  0  0  0  0  0  0
   34.6080   30.4870   46.8690 H   0  0  0  0  0  0  0  0  0  0  0  0
   32.6300   27.6830   49.3840 H   0  0  0  0  0  0  0  0  0  0  0  0
   37.4670   29.2270   51.4400 C   0  0  0  0  0  0  0  0  0  0  0  0
   38.0720   28.4560   50.6630 O   0  0  0  0  0  0  0  0  0  0  0  0
   36.1530   29.7260   51.1350 N   0  0  0  0  0  0  0  0  0  0  0  0
   37.9900   29.4910   52.3450 H   0  0  0  0  0  0  0  0  0  0  0  0
   35.8160   30.3650   51.9180 H   0  0  0  0  0  0  0  0  0  0  0  0
   38.5200   32.8150   45.0110 C   0  0  1  0  0  3  0  0  0  0  0  0
   38.9720   31.8380   46.0770 C   0  0  1  0  0  3  0  0  0  0  0  0
   40.3160   32.1550   46.1950 O   0  0  0  0  0  0  0  0  0  0  0  0
   40.8120   32.3830   44.9460 C   0  0  0  0  0  2  0  0  0  0  0  0
   39.6240   32.5250   43.9860 C   0  0  2  0  0  3  0  0  0  0  0  0
   37.2730   32.5300   44.5060 O   0  0  0  0  0  0  0  0  0  0  0  0
   36.7500   33.3920   44.4880 H   0  0  0  0  0  0  0  0  0  0  0  0
   39.8110   33.5570   43.0950 O   0  0  0  0  0  0  0  0  0  0  0  0
   39.0480   33.5700   42.4940 H   0  0  0  0  0  0  0  0  0  0  0  0
  1 12  1  0  0  0  0
  1  2  1  0  0  0  0
  2  9  1  0  0  0  0
  3  2  2  0  0  0  0
  3 10  1  0  0  0  0
  4  3  1  0  0  0  0
  5  4  2  0  0  0  0
  6  7  1  0  0  0  0
  6  4  1  0  0  0  0
  7  1  1  0  0  0  0
  8  7  2  0  0  0  0
 11 16  1  0  0  0  0
 11 21  1  0  0  0  0
 12 11  2  0  0  0  0
 13 14  2  0  0  0  0
 13 12  1  0  0  0  0
 14 15  1  0  0  0  0
 15 18  1  0  0  0  0
 15 16  2  0  0  0  0
 17 13  1  0  0  0  0
 19 22  1  0  0  0  0
 20 19  2  0  0  0  0
 21 19  1  0  0  0  0
 21 23  1  0  0  0  0
 24 29  1  6  0  0  0
 24 25  1  0  0  0  0
 25 26  1  0  0  0  0
 25  6  1  1  0  0  0
 27 26  1  0  0  0  0
 28 31  1  6  0  0  0
 28 27  1  0  0  0  0
 28 24  1  0  0  0  0
 30 29  1  0  0  0  0
 32 31  1  0  0  0  0
M  END
>  <minimizedAffinity>
-6.30129099

>  <minimizedRMSD>
1.33513486

$$$$
