
 OpenBabel03272507513D

 32 34  0  0  1  0  0  0  0  0999 V2000
   36.6240   31.2370   48.7000 N   0  0  0  0  0  0  0  0  0  0  0  0
   36.9830   32.1310   49.6150 C   0  0  0  0  0  0  0  0  0  0  0  0
   38.0470   32.9960   49.3700 C   0  0  0  0  0  0  0  0  0  0  0  0
   38.6440   32.8340   48.1570 C   0  0  0  0  0  0  0  0  0  0  0  0
   39.6120   33.6310   47.9500 O   0  0  0  0  0  0  0  0  0  0  0  0
   38.3210   31.9590   47.2140 N   0  0  0  0  0  0  0  0  0  0  0  0
   37.2800   31.1410   47.5020 C   0  0  0  0  0  0  0  0  0  0  0  0
   36.9550   30.2970   46.6160 O   0  0  0  0  0  0  0  0  0  0  0  0
   36.4410   32.1830   50.5580 H   0  0  0  0  0  0  0  0  0  0  0  0
   38.3320   33.7150   50.1130 H   0  0  0  0  0  0  0  0  0  0  0  0
   35.4550   29.6650   50.1380 C   0  0  0  0  0  0  0  0  0  0  0  0
   35.5410   30.3150   48.8910 C   0  0  0  0  0  0  0  0  0  0  0  0
   34.5800   30.0350   47.9020 C   0  0  0  0  0  0  0  0  0  0  0  0
   33.6140   29.1440   48.2110 N   0  0  0  0  0  0  0  0  0  0  0  0
   33.5320   28.5320   49.3820 C   0  0  0  0  0  0  0  0  0  0  0  0
   34.4460   28.7920   50.3360 N   0  0  0  0  0  0  0  0  0  0  0  0
   34.6690   30.5400   46.9690 H   0  0  0  0  0  0  0  0  0  0  0  0
   32.7640   27.8230   49.6310 H   0  0  0  0  0  0  0  0  0  0  0  0
   37.5970   29.2500   51.5700 C   0  0  0  0  0  0  0  0  0  0  0  0
   38.0700   28.2990   50.9100 O   0  0  0  0  0  0  0  0  0  0  0  0
   36.3620   29.8860   51.1950 N   0  0  0  0  0  0  0  0  0  0  0  0
   38.1690   29.5600   52.4280 H   0  0  0  0  0  0  0  0  0  0  0  0
   36.1360   30.6700   51.8810 H   0  0  0  0  0  0  0  0  0  0  0  0
   38.5070   32.8120   44.9050 C   0  0  1  0  0  3  0  0  0  0  0  0
   38.9950   31.8520   45.9720 C   0  0  1  0  0  3  0  0  0  0  0  0
   40.3460   32.1580   46.0270 O   0  0  0  0  0  0  0  0  0  0  0  0
   40.7900   32.3550   44.7530 C   0  0  0  0  0  2  0  0  0  0  0  0
   39.5650   32.4890   43.8420 C   0  0  2  0  0  3  0  0  0  0  0  0
   37.2370   32.5280   44.4600 O   0  0  0  0  0  0  0  0  0  0  0  0
   36.7210   33.3940   44.4460 H   0  0  0  0  0  0  0  0  0  0  0  0
   39.7230   33.5020   42.9230 O   0  0  0  0  0  0  0  0  0  0  0  0
   38.9350   33.5090   42.3550 H   0  0  0  0  0  0  0  0  0  0  0  0
  1 12  1  0  0  0  0
  1  2  1  0  0  0  0
  2  9  1  0  0  0  0
  3  2  2  0  0  0  0
  3 10  1  0  0  0  0
  4  3  1  0  0  0  0
  5  4  2  0  0  0  0
  6  7  1  0  0  0  0
  6  4  1  0  0  0  0
  7  1  1  0  0  0  0
  8  7  2  0  0  0  0
 11 16  1  0  0  0  0
 11 21  1  0  0  0  0
 12 11  2  0  0  0  0
 13 14  2  0  0  0  0
 13 12  1  0  0  0  0
 14 15  1  0  0  0  0
 15 18  1  0  0  0  0
 15 16  2  0  0  0  0
 17 13  1  0  0  0  0
 19 22  1  0  0  0  0
 20 19  2  0  0  0  0
 21 19  1  0  0  0  0
 21 23  1  0  0  0  0
 24 29  1  6  0  0  0
 24 25  1  0  0  0  0
 25 26  1  0  0  0  0
 25  6  1  1  0  0  0
 27 26  1  0  0  0  0
 28 31  1  6  0  0  0
 28 27  1  0  0  0  0
 28 24  1  0  0  0  0
 30 29  1  0  0  0  0
 32 31  1  0  0  0  0
M  END
>  <minimizedAffinity>
-6.2225008

>  <minimizedRMSD>
1.45422256

$$$$
