
 OpenBabel03272506153D

 28 30  0  0  1  0  0  0  0  0999 V2000
   37.5980   30.4330   50.1200 C   0  0  0  0  0  0  0  0  0  0  0  0
   38.4520   31.5480   50.0780 C   0  0  0  0  0  0  0  0  0  0  0  0
   38.5290   32.2900   48.8700 C   0  0  0  0  0  0  0  0  0  0  0  0
   37.7670   31.8720   47.8260 N   0  0  0  0  0  0  0  0  0  0  0  0
   36.9590   30.7920   47.9150 C   0  0  0  0  0  0  0  0  0  0  0  0
   36.8670   30.0670   49.0510 N   0  0  0  0  0  0  0  0  0  0  0  0
   36.1530   30.3340   46.8390 N   0  0  0  0  0  0  0  0  0  0  0  0
   36.5340   30.6450   45.5780 C   0  0  0  0  0  0  0  0  0  0  0  0
   35.7130   30.1750   44.5820 C   0  0  0  0  0  0  0  0  0  0  0  0
   34.5720   29.4340   44.8090 C   0  0  0  0  0  0  0  0  0  0  0  0
   33.8180   29.0030   43.8870 O   0  0  0  0  0  0  0  0  0  0  0  0
   34.2260   29.1440   46.1060 N   0  0  0  0  0  0  0  0  0  0  0  0
   35.0350   29.6080   47.0720 C   0  0  0  0  0  0  0  0  0  0  0  0
   34.7720   29.3750   48.2830 O   0  0  0  0  0  0  0  0  0  0  0  0
   37.5620   29.8880   51.0530 H   0  0  0  0  0  0  0  0  0  0  0  0
   39.0540   31.8800   50.8990 H   0  0  0  0  0  0  0  0  0  0  0  0
   39.1550   33.1570   48.7480 H   0  0  0  0  0  0  0  0  0  0  0  0
   37.4250   31.2270   45.3670 H   0  0  0  0  0  0  0  0  0  0  0  0
   35.9630   30.3900   43.5500 H   0  0  0  0  0  0  0  0  0  0  0  0
   31.7610   28.9870   45.9630 C   0  0  1  0  0  3  0  0  0  0  0  0
   33.0540   28.3790   46.3910 C   0  0  1  0  0  3  0  0  0  0  0  0
   33.1120   27.0860   45.8380 O   0  0  0  0  0  0  0  0  0  0  0  0
   31.7990   26.6490   46.0520 C   0  0  0  0  0  2  0  0  0  0  0  0
   31.0280   27.7780   45.3970 C   0  0  2  0  0  3  0  0  0  0  0  0
   31.0030   29.4140   47.0760 O   0  0  0  0  0  0  0  0  0  0  0  0
   31.2340   30.3240   47.3510 H   0  0  0  0  0  0  0  0  0  0  0  0
   31.1150   27.6930   44.0280 O   0  0  0  0  0  0  0  0  0  0  0  0
   30.3880   27.1830   43.6390 H   0  0  0  0  0  0  0  0  0  0  0  0
  1 15  1  0  0  0  0
  2  1  1  0  0  0  0
  2 16  1  0  0  0  0
  3  2  2  0  0  0  0
  4  5  2  0  0  0  0
  4  3  1  0  0  0  0
  5  6  1  0  0  0  0
  6  1  2  0  0  0  0
  7 13  1  0  0  0  0
  7  5  1  0  0  0  0
  8  7  1  0  0  0  0
  9 10  1  0  0  0  0
  9  8  2  0  0  0  0
 10 12  1  0  0  0  0
 11 10  2  0  0  0  0
 12 13  1  0  0  0  0
 13 14  2  0  0  0  0
 17  3  1  0  0  0  0
 18  8  1  0  0  0  0
 19  9  1  0  0  0  0
 20 21  1  0  0  0  0
 20 25  1  1  0  0  0
 21 12  1  6  0  0  0
 22 23  1  0  0  0  0
 22 21  1  0  0  0  0
 24 27  1  6  0  0  0
 24 20  1  0  0  0  0
 24 23  1  0  0  0  0
 25 26  1  0  0  0  0
 28 27  1  0  0  0  0
M  END
>  <minimizedAffinity>
-4.74812984

>  <minimizedRMSD>
3.719347

$$$$
