REMARK  Name = 
REMARK  5 active torsions:
REMARK  status: ('A' for Active; 'I' for Inactive)
REMARK    1  A    between atoms: C_1  and  C_7
REMARK    2  A    between atoms: C_3  and  C_12
REMARK    3  A    between atoms: N_10  and  C_22
REMARK    4  A    between atoms: O_20  and  C_21
REMARK    5  A    between atoms: C_25  and  O_26
REMARK                            x       y       z     vdW  Elec       q    Type
REMARK                         _______ _______ _______ _____ _____    ______ ____
ROOT
ATOM      1  C   UNL     1      39.099  31.111  45.902  0.00  0.00    +0.000 A 
ATOM      2  C   UNL     1      39.910  32.201  45.897  0.00  0.00    +0.000 A 
ATOM      3  C   UNL     1      40.934  32.034  44.968  0.00  0.00    +0.000 A 
ATOM      4  N   UNL     1      40.687  30.812  44.437  0.00  0.00    +0.000 N 
ATOM      5  N   UNL     1      39.611  30.266  44.981  0.00  0.00    +0.000 NA
ATOM      6  H   UNL     1      39.763  33.079  46.542  0.00  0.00    +0.000 HD
ATOM      7  H   UNL     1      41.723  32.742  44.753  0.00  0.00    +0.000 HD
ENDROOT
BRANCH   1   8
ATOM      8  C   UNL     1      37.910  30.873  46.722  0.00  0.00    +0.000 A 
ATOM      9  C   UNL     1      38.057  31.043  48.129  0.00  0.00    +0.000 A 
ATOM     10  C   UNL     1      36.931  30.820  48.934  0.00  0.00    +0.000 A 
ATOM     11  N   UNL     1      35.769  30.455  48.317  0.00  0.00    +0.000 NA
ATOM     12  C   UNL     1      35.669  30.305  46.980  0.00  0.00    +0.000 A 
ATOM     13  N   UNL     1      36.751  30.519  46.211  0.00  0.00    +0.000 NA
ATOM     14  H   UNL     1      39.009  31.333  48.548  0.00  0.00    +0.000 HD
ATOM     15  H   UNL     1      34.707  30.010  46.552  0.00  0.00    +0.000 HD
BRANCH  10  16
ATOM     16  C   UNL     1      37.053  30.989  50.402  0.00  0.00    +0.000 C 
ATOM     17  F   UNL     1      36.562  32.243  50.685  0.00  0.00    +0.000 F 
ATOM     18  F   UNL     1      36.312  30.048  51.104  0.00  0.00    +0.000 F 
ATOM     19  F   UNL     1      38.369  30.936  50.821  0.00  0.00    +0.000 F 
ENDBRANCH  10  16
ENDBRANCH   1   8
BRANCH   4  21
ATOM     20  C   UNL     1      40.919  28.878  42.922  0.00  0.00    +0.000 C 
ATOM     21  C   UNL     1      41.497  30.178  43.401  0.00  0.00    +0.000 C 
ATOM     22  O   UNL     1      41.552  30.975  42.258  0.00  0.00    +0.000 OA
ATOM     23  C   UNL     1      40.368  30.716  41.559  0.00  0.00    +0.000 C 
ATOM     24  C   UNL     1      40.267  29.218  41.626  0.00  0.00    +0.000 C 
BRANCH  20  25
ATOM     25  O   UNL     1      40.153  28.201  43.828  0.00  0.00    +0.000 OA
ATOM     26  H   UNL     1      40.464  27.270  44.000  0.00  0.00    +0.000 HD
ENDBRANCH  20  25
BRANCH  24  27
ATOM     27  O   UNL     1      38.949  28.773  41.573  0.00  0.00    +0.000 OA
ATOM     28  H   UNL     1      38.606  28.948  40.644  0.00  0.00    +0.000 HD
ENDBRANCH  24  27
ENDBRANCH   4  21
TORSDOF 5
