
 OpenBabel03272505493D

 40 44  0  0  1  0  0  0  0  0999 V2000
   35.5400   29.3110   32.7890 C   0  0  0  0  0  0  0  0  0  0  0  0
   36.0380   29.1630   31.5410 C   0  0  0  0  0  0  0  0  0  0  0  0
   37.0740   28.2630   31.2920 C   0  0  0  0  0  0  0  0  0  0  0  0
   37.5750   27.5260   32.3610 C   0  0  0  0  0  0  0  0  0  0  0  0
   37.0590   27.6830   33.6380 C   0  0  0  0  0  0  0  0  0  0  0  0
   36.0500   28.5790   33.8060 N   0  0  0  0  0  0  0  0  0  0  0  0
   35.6550   29.7310   30.7000 H   0  0  0  0  0  0  0  0  0  0  0  0
   37.4920   28.1220   30.3030 H   0  0  0  0  0  0  0  0  0  0  0  0
   38.3710   26.8100   32.2670 H   0  0  0  0  0  0  0  0  0  0  0  0
   34.4200   30.2810   33.0740 C   0  0  0  0  0  0  0  0  0  0  0  0
   33.7280   30.9160   31.9190 C   0  0  0  0  0  0  0  0  0  0  0  0
   33.0340   29.8520   32.7410 C   0  0  0  0  0  0  0  0  0  0  0  0
   33.3350   31.9450   32.0620 H   0  0  0  0  0  0  0  0  0  0  0  0
   33.9920   30.6940   30.8850 H   0  0  0  0  0  0  0  0  0  0  0  0
   32.2180   30.1970   33.4400 H   0  0  0  0  0  0  0  0  0  0  0  0
   32.8680   28.8480   32.3380 H   0  0  0  0  0  0  0  0  0  0  0  0
   33.9370   31.5270   36.5150 C   0  0  0  0  0  0  0  0  0  0  0  0
   35.0490   32.3600   36.7020 C   0  0  0  0  0  0  0  0  0  0  0  0
   35.9650   32.4950   35.6440 C   0  0  0  0  0  0  0  0  0  0  0  0
   35.7330   31.8140   34.4950 N   0  0  0  0  0  0  0  0  0  0  0  0
   34.6470   31.0100   34.3400 C   0  0  0  0  0  0  0  0  0  0  0  0
   33.7490   30.8650   35.3450 N   0  0  0  0  0  0  0  0  0  0  0  0
   33.2120   31.3950   37.2990 H   0  0  0  0  0  0  0  0  0  0  0  0
   35.1980   32.8920   37.6460 H   0  0  0  0  0  0  0  0  0  0  0  0
   36.8350   33.1290   35.7500 H   0  0  0  0  0  0  0  0  0  0  0  0
   37.5430   26.9370   34.8070 C   0  0  0  0  0  0  0  0  0  0  0  0
   38.2810   27.3330   35.8720 N   0  0  0  0  0  0  0  0  0  0  0  0
   38.4670   26.2670   36.6890 C   0  0  0  0  0  0  0  0  0  0  0  0
   37.8350   25.1930   36.1190 N   0  0  0  0  0  0  0  0  0  0  0  0
   37.2790   25.6100   34.9820 N   0  0  0  0  0  0  0  0  0  0  0  0
   39.0310   26.3430   37.6090 H   0  0  0  0  0  0  0  0  0  0  0  0
   39.0000   23.0270   36.3410 C   0  0  2  0  0  3  0  0  0  0  0  0
   37.8140   23.8590   36.7070 C   0  0  1  0  0  3  0  0  0  0  0  0
   37.6800   23.8930   38.0720 O   0  0  0  0  0  0  0  0  0  0  0  0
   38.7530   23.3090   38.6790 C   0  0  0  0  0  2  0  0  0  0  0  0
   39.7850   23.0040   37.6240 C   0  0  1  0  0  3  0  0  0  0  0  0
   39.7250   23.5240   35.2600 O   0  0  0  0  0  0  0  0  0  0  0  0
   40.6530   23.1860   35.3010 H   0  0  0  0  0  0  0  0  0  0  0  0
   40.3010   21.7170   37.7870 O   0  0  0  0  0  0  0  0  0  0  0  0
   41.2540   21.7490   37.9760 H   0  0  0  0  0  0  0  0  0  0  0  0
  1 10  1  0  0  0  0
  1  6  1  0  0  0  0
  2  1  2  0  0  0  0
  3  2  1  0  0  0  0
  3  4  2  0  0  0  0
  4  5  1  0  0  0  0
  5  6  2  0  0  0  0
  5 26  1  0  0  0  0
  7  2  1  0  0  0  0
  8  3  1  0  0  0  0
  9  4  1  0  0  0  0
 10 21  1  0  0  0  0
 11 13  1  0  0  0  0
 11 12  1  0  0  0  0
 11 10  1  0  0  0  0
 12 10  1  0  0  0  0
 12 15  1  0  0  0  0
 14 11  1  0  0  0  0
 16 12  1  0  0  0  0
 17 18  1  0  0  0  0
 17 23  1  0  0  0  0
 18 24  1  0  0  0  0
 19 25  1  0  0  0  0
 19 18  2  0  0  0  0
 20 19  1  0  0  0  0
 21 20  2  0  0  0  0
 21 22  1  0  0  0  0
 22 17  2  0  0  0  0
 26 30  2  0  0  0  0
 26 27  1  0  0  0  0
 27 28  2  0  0  0  0
 28 31  1  0  0  0  0
 29 28  1  0  0  0  0
 30 29  1  0  0  0  0
 32 37  1  6  0  0  0
 32 33  1  0  0  0  0
 32 36  1  0  0  0  0
 33 29  1  1  0  0  0
 33 34  1  0  0  0  0
 34 35  1  0  0  0  0
 36 39  1  1  0  0  0
 36 35  1  0  0  0  0
 37 38  1  0  0  0  0
 39 40  1  0  0  0  0
M  END
>  <minimizedAffinity>
-6.61105061

$$$$

 OpenBabel03272505493D

 40 44  0  0  1  0  0  0  0  0999 V2000
   35.9920   29.2210   32.3340 C   0  0  0  0  0  0  0  0  0  0  0  0
   36.4730   28.8760   31.1180 C   0  0  0  0  0  0  0  0  0  0  0  0
   37.3800   27.8240   30.9860 C   0  0  0  0  0  0  0  0  0  0  0  0
   37.7710   27.1460   32.1370 C   0  0  0  0  0  0  0  0  0  0  0  0
   37.2740   27.5060   33.3800 C   0  0  0  0  0  0  0  0  0  0  0  0
   36.3930   28.5410   33.4320 N   0  0  0  0  0  0  0  0  0  0  0  0
   36.1750   29.3960   30.2150 H   0  0  0  0  0  0  0  0  0  0  0  0
   37.7810   27.5240   30.0260 H   0  0  0  0  0  0  0  0  0  0  0  0
   38.4640   26.3240   32.1350 H   0  0  0  0  0  0  0  0  0  0  0  0
   35.0120   30.3560   32.4920 C   0  0  0  0  0  0  0  0  0  0  0  0
   35.5460   31.7430   32.5760 C   0  0  0  0  0  0  0  0  0  0  0  0
   34.8230   31.2720   31.3330 C   0  0  0  0  0  0  0  0  0  0  0  0
   34.9820   32.4720   33.1950 H   0  0  0  0  0  0  0  0  0  0  0  0
   36.6120   31.9630   32.5120 H   0  0  0  0  0  0  0  0  0  0  0  0
   33.7780   31.6680   31.1690 H   0  0  0  0  0  0  0  0  0  0  0  0
   35.3670   31.0760   30.4040 H   0  0  0  0  0  0  0  0  0  0  0  0
   31.7680   28.8020   33.3220 C   0  0  0  0  0  0  0  0  0  0  0  0
   31.5940   29.1480   34.6690 C   0  0  0  0  0  0  0  0  0  0  0  0
   32.5910   29.9170   35.2930 C   0  0  0  0  0  0  0  0  0  0  0  0
   33.6740   30.2870   34.5660 N   0  0  0  0  0  0  0  0  0  0  0  0
   33.8190   29.9370   33.2590 C   0  0  0  0  0  0  0  0  0  0  0  0
   32.8710   29.1960   32.6360 N   0  0  0  0  0  0  0  0  0  0  0  0
   31.0280   28.2140   32.8060 H   0  0  0  0  0  0  0  0  0  0  0  0
   30.7040   28.8280   35.2200 H   0  0  0  0  0  0  0  0  0  0  0  0
   32.4940   30.2040   36.3310 H   0  0  0  0  0  0  0  0  0  0  0  0
   37.6460   26.8320   34.6300 C   0  0  0  0  0  0  0  0  0  0  0  0
   38.2270   27.3070   35.7590 N   0  0  0  0  0  0  0  0  0  0  0  0
   38.3640   26.2840   36.6370 C   0  0  0  0  0  0  0  0  0  0  0  0
   37.8610   25.1560   36.0430 N   0  0  0  0  0  0  0  0  0  0  0  0
   37.4290   25.5000   34.8300 N   0  0  0  0  0  0  0  0  0  0  0  0
   38.8050   26.4250   37.6150 H   0  0  0  0  0  0  0  0  0  0  0  0
   39.0160   22.9960   36.3500 C   0  0  2  0  0  3  0  0  0  0  0  0
   37.8330   23.8470   36.6820 C   0  0  1  0  0  3  0  0  0  0  0  0
   37.6980   23.9330   38.0450 O   0  0  0  0  0  0  0  0  0  0  0  0
   38.7680   23.3690   38.6750 C   0  0  0  0  0  2  0  0  0  0  0  0
   39.8000   23.0190   37.6340 C   0  0  1  0  0  3  0  0  0  0  0  0
   39.7440   23.4470   35.2520 O   0  0  0  0  0  0  0  0  0  0  0  0
   40.6710   23.1080   35.3060 H   0  0  0  0  0  0  0  0  0  0  0  0
   40.3090   21.7370   37.8470 O   0  0  0  0  0  0  0  0  0  0  0  0
   41.2630   21.7730   38.0360 H   0  0  0  0  0  0  0  0  0  0  0  0
  1 10  1  0  0  0  0
  1  6  1  0  0  0  0
  2  1  2  0  0  0  0
  3  2  1  0  0  0  0
  3  4  2  0  0  0  0
  4  5  1  0  0  0  0
  5  6  2  0  0  0  0
  5 26  1  0  0  0  0
  7  2  1  0  0  0  0
  8  3  1  0  0  0  0
  9  4  1  0  0  0  0
 10 11  1  0  0  0  0
 10 21  1  0  0  0  0
 11 13  1  0  0  0  0
 12 10  1  0  0  0  0
 12 11  1  0  0  0  0
 14 11  1  0  0  0  0
 15 12  1  0  0  0  0
 16 12  1  0  0  0  0
 17 18  1  0  0  0  0
 18 24  1  0  0  0  0
 18 19  2  0  0  0  0
 19 25  1  0  0  0  0
 20 19  1  0  0  0  0
 21 20  2  0  0  0  0
 22 21  1  0  0  0  0
 22 17  2  0  0  0  0
 23 17  1  0  0  0  0
 26 30  2  0  0  0  0
 26 27  1  0  0  0  0
 27 28  2  0  0  0  0
 28 31  1  0  0  0  0
 29 28  1  0  0  0  0
 30 29  1  0  0  0  0
 32 37  1  6  0  0  0
 32 33  1  0  0  0  0
 32 36  1  0  0  0  0
 33 29  1  1  0  0  0
 33 34  1  0  0  0  0
 34 35  1  0  0  0  0
 36 39  1  1  0  0  0
 36 35  1  0  0  0  0
 37 38  1  0  0  0  0
 39 40  1  0  0  0  0
M  END
>  <minimizedAffinity>
-6.40715456

$$$$

 OpenBabel03272505493D

 40 44  0  0  1  0  0  0  0  0999 V2000
   38.7310   24.4180   35.3650 C   0  0  0  0  0  0  0  0  0  0  0  0
   38.4310   25.1260   36.4760 C   0  0  0  0  0  0  0  0  0  0  0  0
   38.1690   26.4930   36.3980 C   0  0  0  0  0  0  0  0  0  0  0  0
   38.2240   27.1020   35.1470 C   0  0  0  0  0  0  0  0  0  0  0  0
   38.5320   26.3690   34.0110 C   0  0  0  0  0  0  0  0  0  0  0  0
   38.7770   25.0390   34.1650 N   0  0  0  0  0  0  0  0  0  0  0  0
   38.3850   24.6630   37.4560 H   0  0  0  0  0  0  0  0  0  0  0  0
   37.9250   27.0860   37.2700 H   0  0  0  0  0  0  0  0  0  0  0  0
   38.0380   28.1480   34.9870 H   0  0  0  0  0  0  0  0  0  0  0  0
   39.0180   22.9390   35.4350 C   0  0  0  0  0  0  0  0  0  0  0  0
   40.4030   22.4750   35.1490 C   0  0  0  0  0  0  0  0  0  0  0  0
   39.8610   22.4510   36.5610 C   0  0  0  0  0  0  0  0  0  0  0  0
   40.5220   21.4760   34.6780 H   0  0  0  0  0  0  0  0  0  0  0  0
   41.2130   23.1640   34.9070 H   0  0  0  0  0  0  0  0  0  0  0  0
   39.5950   21.4420   36.9900 H   0  0  0  0  0  0  0  0  0  0  0  0
   40.2130   23.1660   37.3120 H   0  0  0  0  0  0  0  0  0  0  0  0
   35.8900   20.9930   35.6720 C   0  0  0  0  0  0  0  0  0  0  0  0
   35.6340   20.6530   34.3360 C   0  0  0  0  0  0  0  0  0  0  0  0
   36.5370   21.0920   33.3530 C   0  0  0  0  0  0  0  0  0  0  0  0
   37.6110   21.8230   33.7400 N   0  0  0  0  0  0  0  0  0  0  0  0
   37.8360   22.1400   35.0430 C   0  0  0  0  0  0  0  0  0  0  0  0
   36.9800   21.7280   36.0100 N   0  0  0  0  0  0  0  0  0  0  0  0
   35.2230   20.6770   36.4560 H   0  0  0  0  0  0  0  0  0  0  0  0
   34.7550   20.0610   34.0670 H   0  0  0  0  0  0  0  0  0  0  0  0
   36.3750   20.8500   32.3110 H   0  0  0  0  0  0  0  0  0  0  0  0
   38.6070   26.9500   32.6650 C   0  0  0  0  0  0  0  0  0  0  0  0
   39.6560   27.1150   31.8230 N   0  0  0  0  0  0  0  0  0  0  0  0
   39.2100   27.7040   30.6870 C   0  0  0  0  0  0  0  0  0  0  0  0
   37.8620   27.9090   30.8270 N   0  0  0  0  0  0  0  0  0  0  0  0
   37.5080   27.4480   32.0270 N   0  0  0  0  0  0  0  0  0  0  0  0
   39.8730   27.9370   29.8650 H   0  0  0  0  0  0  0  0  0  0  0  0
   36.4380   29.8340   30.2260 C   0  0  2  0  0  3  0  0  0  0  0  0
   37.0250   28.5250   29.8050 C   0  0  1  0  0  3  0  0  0  0  0  0
   37.6850   28.6800   28.6130 O   0  0  0  0  0  0  0  0  0  0  0  0
   37.7530   29.9970   28.2640 C   0  0  0  0  0  2  0  0  0  0  0  0
   37.2350   30.8190   29.4150 C   0  0  1  0  0  3  0  0  0  0  0  0
   36.5050   30.0670   31.5970 O   0  0  0  0  0  0  0  0  0  0  0  0
   36.4680   31.0400   31.7700 H   0  0  0  0  0  0  0  0  0  0  0  0
   36.3610   31.8110   28.9670 O   0  0  0  0  0  0  0  0  0  0  0  0
   36.7130   32.6960   29.1660 H   0  0  0  0  0  0  0  0  0  0  0  0
  1 10  1  0  0  0  0
  1  2  1  0  0  0  0
  2  7  1  0  0  0  0
  3  2  2  0  0  0  0
  3  8  1  0  0  0  0
  4  3  1  0  0  0  0
  5  6  1  0  0  0  0
  5  4  2  0  0  0  0
  6  1  2  0  0  0  0
  9  4  1  0  0  0  0
 10 12  1  0  0  0  0
 11 10  1  0  0  0  0
 11 12  1  0  0  0  0
 12 15  1  0  0  0  0
 12 16  1  0  0  0  0
 13 11  1  0  0  0  0
 14 11  1  0  0  0  0
 17 22  1  0  0  0  0
 17 23  1  0  0  0  0
 18 17  2  0  0  0  0
 19 20  2  0  0  0  0
 19 18  1  0  0  0  0
 20 21  1  0  0  0  0
 21 10  1  0  0  0  0
 21 22  2  0  0  0  0
 24 18  1  0  0  0  0
 25 19  1  0  0  0  0
 26  5  1  0  0  0  0
 27 26  1  0  0  0  0
 28 29  1  0  0  0  0
 28 27  2  0  0  0  0
 29 30  1  0  0  0  0
 30 26  2  0  0  0  0
 31 28  1  0  0  0  0
 32 37  1  1  0  0  0
 33 32  1  0  0  0  0
 33 29  1  1  0  0  0
 34 33  1  0  0  0  0
 35 34  1  0  0  0  0
 35 36  1  0  0  0  0
 36 39  1  6  0  0  0
 36 32  1  0  0  0  0
 37 38  1  0  0  0  0
 39 40  1  0  0  0  0
M  END
>  <minimizedAffinity>
-6.10058451

$$$$

 OpenBabel03272505493D

 40 44  0  0  1  0  0  0  0  0999 V2000
   35.6960   29.6710   33.0560 C   0  0  0  0  0  0  0  0  0  0  0  0
   35.9780   30.2440   31.8650 C   0  0  0  0  0  0  0  0  0  0  0  0
   36.7180   29.5560   30.9040 C   0  0  0  0  0  0  0  0  0  0  0  0
   37.1520   28.2690   31.2070 C   0  0  0  0  0  0  0  0  0  0  0  0
   36.8590   27.6870   32.4300 C   0  0  0  0  0  0  0  0  0  0  0  0
   36.1330   28.4180   33.3190 N   0  0  0  0  0  0  0  0  0  0  0  0
   35.6460   31.2460   31.6180 H   0  0  0  0  0  0  0  0  0  0  0  0
   36.9590   29.9890   29.9410 H   0  0  0  0  0  0  0  0  0  0  0  0
   37.7270   27.6620   30.5310 H   0  0  0  0  0  0  0  0  0  0  0  0
   34.8970   30.4030   34.1060 C   0  0  0  0  0  0  0  0  0  0  0  0
   35.6260   30.9890   35.2640 C   0  0  0  0  0  0  0  0  0  0  0  0
   35.0540   31.8810   34.1850 C   0  0  0  0  0  0  0  0  0  0  0  0
   35.0910   31.0310   36.2360 H   0  0  0  0  0  0  0  0  0  0  0  0
   36.7090   30.9190   35.3700 H   0  0  0  0  0  0  0  0  0  0  0  0
   34.1290   32.4730   34.4480 H   0  0  0  0  0  0  0  0  0  0  0  0
   35.7070   32.3880   33.4680 H   0  0  0  0  0  0  0  0  0  0  0  0
   31.6040   28.9760   33.2440 C   0  0  0  0  0  0  0  0  0  0  0  0
   31.0190   28.7630   34.5000 C   0  0  0  0  0  0  0  0  0  0  0  0
   31.7570   29.1110   35.6440 C   0  0  0  0  0  0  0  0  0  0  0  0
   32.9970   29.6350   35.4820 N   0  0  0  0  0  0  0  0  0  0  0  0
   33.5420   29.8300   34.2510 C   0  0  0  0  0  0  0  0  0  0  0  0
   32.8500   29.5020   33.1320 N   0  0  0  0  0  0  0  0  0  0  0  0
   31.0740   28.7230   32.3410 H   0  0  0  0  0  0  0  0  0  0  0  0
   30.0150   28.3390   34.5860 H   0  0  0  0  0  0  0  0  0  0  0  0
   31.3410   28.9630   36.6310 H   0  0  0  0  0  0  0  0  0  0  0  0
   37.2860   26.3350   32.8110 C   0  0  0  0  0  0  0  0  0  0  0  0
   36.9430   25.1210   32.3180 N   0  0  0  0  0  0  0  0  0  0  0  0
   37.6140   24.1680   33.0100 C   0  0  0  0  0  0  0  0  0  0  0  0
   38.3850   24.8020   33.9490 N   0  0  0  0  0  0  0  0  0  0  0  0
   38.1790   26.1130   33.8190 N   0  0  0  0  0  0  0  0  0  0  0  0
   37.4990   23.1150   32.7910 H   0  0  0  0  0  0  0  0  0  0  0  0
   38.8790   24.3230   36.3200 C   0  0  2  0  0  3  0  0  0  0  0  0
   39.2530   24.1060   34.8890 C   0  0  1  0  0  3  0  0  0  0  0  0
   39.3280   22.7600   34.6330 O   0  0  0  0  0  0  0  0  0  0  0  0
   38.8760   22.0380   35.6990 C   0  0  0  0  0  2  0  0  0  0  0  0
   38.2850   22.9940   36.7020 C   0  0  1  0  0  3  0  0  0  0  0  0
   38.0090   25.3930   36.5180 O   0  0  0  0  0  0  0  0  0  0  0  0
   37.5130   25.2640   37.3640 H   0  0  0  0  0  0  0  0  0  0  0  0
   38.7140   22.6910   37.9950 O   0  0  0  0  0  0  0  0  0  0  0  0
   37.9600   22.4440   38.5580 H   0  0  0  0  0  0  0  0  0  0  0  0
  1  6  1  0  0  0  0
  1 10  1  0  0  0  0
  2  1  2  0  0  0  0
  3  4  2  0  0  0  0
  3  2  1  0  0  0  0
  4  5  1  0  0  0  0
  5 26  1  0  0  0  0
  5  6  2  0  0  0  0
  7  2  1  0  0  0  0
  8  3  1  0  0  0  0
  9  4  1  0  0  0  0
 10 12  1  0  0  0  0
 10 21  1  0  0  0  0
 10 11  1  0  0  0  0
 11 14  1  0  0  0  0
 11 13  1  0  0  0  0
 12 15  1  0  0  0  0
 12 11  1  0  0  0  0
 16 12  1  0  0  0  0
 17 18  1  0  0  0  0
 18 24  1  0  0  0  0
 18 19  2  0  0  0  0
 19 25  1  0  0  0  0
 20 19  1  0  0  0  0
 21 20  2  0  0  0  0
 22 17  2  0  0  0  0
 22 21  1  0  0  0  0
 23 17  1  0  0  0  0
 26 30  2  0  0  0  0
 27 26  1  0  0  0  0
 27 28  2  0  0  0  0
 28 29  1  0  0  0  0
 30 29  1  0  0  0  0
 31 28  1  0  0  0  0
 32 37  1  6  0  0  0
 32 36  1  0  0  0  0
 33 29  1  6  0  0  0
 33 32  1  0  0  0  0
 34 33  1  0  0  0  0
 34 35  1  0  0  0  0
 35 36  1  0  0  0  0
 36 39  1  1  0  0  0
 37 38  1  0  0  0  0
 39 40  1  0  0  0  0
M  END
>  <minimizedAffinity>
-6.07467365

$$$$

 OpenBabel03272505493D

 40 44  0  0  1  0  0  0  0  0999 V2000
   35.0870   29.5130   32.2520 C   0  0  0  0  0  0  0  0  0  0  0  0
   35.7130   30.2080   31.2760 C   0  0  0  0  0  0  0  0  0  0  0  0
   36.8100   29.6630   30.6090 C   0  0  0  0  0  0  0  0  0  0  0  0
   37.2370   28.3900   30.9770 C   0  0  0  0  0  0  0  0  0  0  0  0
   36.5900   27.6840   31.9790 C   0  0  0  0  0  0  0  0  0  0  0  0
   35.5270   28.2790   32.5850 N   0  0  0  0  0  0  0  0  0  0  0  0
   35.3900   31.1990   30.9800 H   0  0  0  0  0  0  0  0  0  0  0  0
   37.3310   30.1950   29.8220 H   0  0  0  0  0  0  0  0  0  0  0  0
   38.0710   27.8890   30.5210 H   0  0  0  0  0  0  0  0  0  0  0  0
   33.9000   30.0900   32.9820 C   0  0  0  0  0  0  0  0  0  0  0  0
   32.7690   30.6250   32.1760 C   0  0  0  0  0  0  0  0  0  0  0  0
   32.6230   29.3260   32.9360 C   0  0  0  0  0  0  0  0  0  0  0  0
   32.1980   31.4790   32.5990 H   0  0  0  0  0  0  0  0  0  0  0  0
   32.7640   30.6010   31.0860 H   0  0  0  0  0  0  0  0  0  0  0  0
   31.9880   29.3480   33.8700 H   0  0  0  0  0  0  0  0  0  0  0  0
   32.5940   28.3660   32.4110 H   0  0  0  0  0  0  0  0  0  0  0  0
   35.9740   31.7040   35.5740 C   0  0  0  0  0  0  0  0  0  0  0  0
   35.0730   31.8680   36.6350 C   0  0  0  0  0  0  0  0  0  0  0  0
   33.7510   31.4240   36.4600 C   0  0  0  0  0  0  0  0  0  0  0  0
   33.4090   30.8580   35.2770 N   0  0  0  0  0  0  0  0  0  0  0  0
   34.3030   30.7110   34.2620 C   0  0  0  0  0  0  0  0  0  0  0  0
   35.5830   31.1320   34.4060 N   0  0  0  0  0  0  0  0  0  0  0  0
   36.9960   32.0310   35.6650 H   0  0  0  0  0  0  0  0  0  0  0  0
   35.3910   32.3300   37.5740 H   0  0  0  0  0  0  0  0  0  0  0  0
   33.0260   31.5330   37.2550 H   0  0  0  0  0  0  0  0  0  0  0  0
   36.9890   26.3400   32.4140 C   0  0  0  0  0  0  0  0  0  0  0  0
   36.6140   25.1140   31.9750 N   0  0  0  0  0  0  0  0  0  0  0  0
   37.2690   24.1760   32.7020 C   0  0  0  0  0  0  0  0  0  0  0  0
   38.0620   24.8310   33.6070 N   0  0  0  0  0  0  0  0  0  0  0  0
   37.8850   26.1390   33.4230 N   0  0  0  0  0  0  0  0  0  0  0  0
   37.1270   23.1170   32.5300 H   0  0  0  0  0  0  0  0  0  0  0  0
   38.5280   24.3940   35.9930 C   0  0  2  0  0  3  0  0  0  0  0  0
   38.9220   24.1550   34.5700 C   0  0  1  0  0  3  0  0  0  0  0  0
   39.0070   22.8060   34.3380 O   0  0  0  0  0  0  0  0  0  0  0  0
   38.5440   22.0990   35.4090 C   0  0  0  0  0  2  0  0  0  0  0  0
   37.9360   23.0690   36.3890 C   0  0  1  0  0  3  0  0  0  0  0  0
   37.6500   25.4620   36.1620 O   0  0  0  0  0  0  0  0  0  0  0  0
   37.1440   25.3450   37.0030 H   0  0  0  0  0  0  0  0  0  0  0  0
   38.3500   22.7890   37.6920 O   0  0  0  0  0  0  0  0  0  0  0  0
   37.5900   22.5480   38.2500 H   0  0  0  0  0  0  0  0  0  0  0  0
  1  6  1  0  0  0  0
  1 10  1  0  0  0  0
  2  1  2  0  0  0  0
  3  4  2  0  0  0  0
  3  2  1  0  0  0  0
  4  5  1  0  0  0  0
  5 26  1  0  0  0  0
  5  6  2  0  0  0  0
  7  2  1  0  0  0  0
  8  3  1  0  0  0  0
  9  4  1  0  0  0  0
 10 21  1  0  0  0  0
 11 13  1  0  0  0  0
 11 12  1  0  0  0  0
 11 10  1  0  0  0  0
 12 10  1  0  0  0  0
 12 15  1  0  0  0  0
 14 11  1  0  0  0  0
 16 12  1  0  0  0  0
 17 23  1  0  0  0  0
 17 18  1  0  0  0  0
 18 24  1  0  0  0  0
 19 18  2  0  0  0  0
 19 25  1  0  0  0  0
 20 19  1  0  0  0  0
 21 22  1  0  0  0  0
 21 20  2  0  0  0  0
 22 17  2  0  0  0  0
 26 30  2  0  0  0  0
 27 26  1  0  0  0  0
 27 28  2  0  0  0  0
 28 29  1  0  0  0  0
 30 29  1  0  0  0  0
 31 28  1  0  0  0  0
 32 37  1  6  0  0  0
 32 36  1  0  0  0  0
 33 29  1  6  0  0  0
 33 32  1  0  0  0  0
 34 33  1  0  0  0  0
 34 35  1  0  0  0  0
 35 36  1  0  0  0  0
 36 39  1  1  0  0  0
 37 38  1  0  0  0  0
 39 40  1  0  0  0  0
M  END
>  <minimizedAffinity>
-6.04393625

$$$$

 OpenBabel03272505493D

 40 44  0  0  1  0  0  0  0  0999 V2000
   38.6400   24.8290   35.4190 C   0  0  0  0  0  0  0  0  0  0  0  0
   38.3810   25.8810   36.2270 C   0  0  0  0  0  0  0  0  0  0  0  0
   38.3170   27.1750   35.7110 C   0  0  0  0  0  0  0  0  0  0  0  0
   38.5250   27.3470   34.3450 C   0  0  0  0  0  0  0  0  0  0  0  0
   38.7900   26.2640   33.5220 C   0  0  0  0  0  0  0  0  0  0  0  0
   38.8380   25.0310   34.0970 N   0  0  0  0  0  0  0  0  0  0  0  0
   38.2170   25.7590   37.2920 H   0  0  0  0  0  0  0  0  0  0  0  0
   38.1100   28.0360   36.3330 H   0  0  0  0  0  0  0  0  0  0  0  0
   38.4960   28.3040   33.8570 H   0  0  0  0  0  0  0  0  0  0  0  0
   38.7130   23.4240   35.9640 C   0  0  0  0  0  0  0  0  0  0  0  0
   37.5930   22.9400   36.8170 C   0  0  0  0  0  0  0  0  0  0  0  0
   37.7680   22.4180   35.4080 C   0  0  0  0  0  0  0  0  0  0  0  0
   37.8380   22.2110   37.6180 H   0  0  0  0  0  0  0  0  0  0  0  0
   36.7240   23.5570   37.0460 H   0  0  0  0  0  0  0  0  0  0  0  0
   38.1600   21.3650   35.2980 H   0  0  0  0  0  0  0  0  0  0  0  0
   37.0820   22.7140   34.6080 H   0  0  0  0  0  0  0  0  0  0  0  0
   41.6200   21.5310   37.2280 C   0  0  0  0  0  0  0  0  0  0  0  0
   42.7060   22.2370   36.6910 C   0  0  0  0  0  0  0  0  0  0  0  0
   42.4400   23.3640   35.8950 C   0  0  0  0  0  0  0  0  0  0  0  0
   41.1490   23.7170   35.6820 N   0  0  0  0  0  0  0  0  0  0  0  0
   40.1120   23.0140   36.2140 C   0  0  0  0  0  0  0  0  0  0  0  0
   40.3430   21.9240   36.9850 N   0  0  0  0  0  0  0  0  0  0  0  0
   41.7780   20.6620   37.8430 H   0  0  0  0  0  0  0  0  0  0  0  0
   43.7330   21.9170   36.8880 H   0  0  0  0  0  0  0  0  0  0  0  0
   43.2510   23.9340   35.4630 H   0  0  0  0  0  0  0  0  0  0  0  0
   39.0190   26.3780   32.0760 C   0  0  0  0  0  0  0  0  0  0  0  0
   39.4860   25.4800   31.1750 N   0  0  0  0  0  0  0  0  0  0  0  0
   39.5140   26.0690   29.9540 C   0  0  0  0  0  0  0  0  0  0  0  0
   39.0590   27.3530   30.1020 N   0  0  0  0  0  0  0  0  0  0  0  0
   38.7620   27.5290   31.3890 N   0  0  0  0  0  0  0  0  0  0  0  0
   39.8530   25.5400   29.0730 H   0  0  0  0  0  0  0  0  0  0  0  0
   37.5520   28.8020   28.7880 C   0  0  2  0  0  3  0  0  0  0  0  0
   38.9440   28.3030   29.0030 C   0  0  1  0  0  3  0  0  0  0  0  0
   39.7980   29.3680   29.1420 O   0  0  0  0  0  0  0  0  0  0  0  0
   39.1030   30.5390   29.2150 C   0  0  0  0  0  2  0  0  0  0  0  0
   37.6340   30.2140   29.3010 C   0  0  1  0  0  3  0  0  0  0  0  0
   36.5760   28.0400   29.4260 O   0  0  0  0  0  0  0  0  0  0  0  0
   35.7690   28.5920   29.5740 H   0  0  0  0  0  0  0  0  0  0  0  0
   36.8910   31.0250   28.4410 O   0  0  0  0  0  0  0  0  0  0  0  0
   36.2700   31.5800   28.9430 H   0  0  0  0  0  0  0  0  0  0  0  0
  1 10  1  0  0  0  0
  1  2  1  0  0  0  0
  2  7  1  0  0  0  0
  3  2  2  0  0  0  0
  3  8  1  0  0  0  0
  4  3  1  0  0  0  0
  5  6  1  0  0  0  0
  5  4  2  0  0  0  0
  6  1  2  0  0  0  0
  9  4  1  0  0  0  0
 10 21  1  0  0  0  0
 10 11  1  0  0  0  0
 11 14  1  0  0  0  0
 11 13  1  0  0  0  0
 12 10  1  0  0  0  0
 12 11  1  0  0  0  0
 15 12  1  0  0  0  0
 16 12  1  0  0  0  0
 17 23  1  0  0  0  0
 18 24  1  0  0  0  0
 18 17  2  0  0  0  0
 19 18  1  0  0  0  0
 20 19  2  0  0  0  0
 20 21  1  0  0  0  0
 21 22  2  0  0  0  0
 22 17  1  0  0  0  0
 25 19  1  0  0  0  0
 26  5  1  0  0  0  0
 27 26  1  0  0  0  0
 28 29  1  0  0  0  0
 28 27  2  0  0  0  0
 29 30  1  0  0  0  0
 30 26  2  0  0  0  0
 31 28  1  0  0  0  0
 32 33  1  0  0  0  0
 32 36  1  0  0  0  0
 32 37  1  1  0  0  0
 33 34  1  0  0  0  0
 33 29  1  1  0  0  0
 34 35  1  0  0  0  0
 35 36  1  0  0  0  0
 36 39  1  6  0  0  0
 37 38  1  0  0  0  0
 39 40  1  0  0  0  0
M  END
>  <minimizedAffinity>
-6.00865459

$$$$

 OpenBabel03272505493D

 40 44  0  0  1  0  0  0  0  0999 V2000
   36.2220   28.1840   31.8600 C   0  0  0  0  0  0  0  0  0  0  0  0
   36.8520   29.1120   31.1060 C   0  0  0  0  0  0  0  0  0  0  0  0
   36.2530   30.3450   30.8500 C   0  0  0  0  0  0  0  0  0  0  0  0
   34.9950   30.5890   31.3930 C   0  0  0  0  0  0  0  0  0  0  0  0
   34.3540   29.6320   32.1650 C   0  0  0  0  0  0  0  0  0  0  0  0
   34.9990   28.4520   32.3720 N   0  0  0  0  0  0  0  0  0  0  0  0
   37.8330   28.9340   30.6780 H   0  0  0  0  0  0  0  0  0  0  0  0
   36.7340   31.1080   30.2510 H   0  0  0  0  0  0  0  0  0  0  0  0
   34.4550   31.5070   31.2500 H   0  0  0  0  0  0  0  0  0  0  0  0
   36.8570   26.8460   32.1440 C   0  0  0  0  0  0  0  0  0  0  0  0
   36.1060   25.6160   31.7710 C   0  0  0  0  0  0  0  0  0  0  0  0
   37.3240   26.0420   30.9810 C   0  0  0  0  0  0  0  0  0  0  0  0
   36.2540   24.7150   32.4040 H   0  0  0  0  0  0  0  0  0  0  0  0
   35.1280   25.6500   31.2910 H   0  0  0  0  0  0  0  0  0  0  0  0
   38.2670   25.4400   31.1300 H   0  0  0  0  0  0  0  0  0  0  0  0
   37.2240   26.4550   29.9720 H   0  0  0  0  0  0  0  0  0  0  0  0
   39.8550   27.0360   34.2910 C   0  0  0  0  0  0  0  0  0  0  0  0
   39.3130   26.9960   35.5830 C   0  0  0  0  0  0  0  0  0  0  0  0
   37.9170   26.9030   35.7170 C   0  0  0  0  0  0  0  0  0  0  0  0
   37.1600   26.8570   34.5950 N   0  0  0  0  0  0  0  0  0  0  0  0
   37.7100   26.8990   33.3510 C   0  0  0  0  0  0  0  0  0  0  0  0
   39.0540   26.9870   33.1950 N   0  0  0  0  0  0  0  0  0  0  0  0
   40.9180   27.1070   34.1420 H   0  0  0  0  0  0  0  0  0  0  0  0
   39.9610   27.0350   36.4630 H   0  0  0  0  0  0  0  0  0  0  0  0
   37.4620   26.8700   36.6980 H   0  0  0  0  0  0  0  0  0  0  0  0
   33.0280   29.8260   32.7650 C   0  0  0  0  0  0  0  0  0  0  0  0
   31.9560   30.5410   32.3440 N   0  0  0  0  0  0  0  0  0  0  0  0
   30.9610   30.4030   33.2540 C   0  0  0  0  0  0  0  0  0  0  0  0
   31.4240   29.5920   34.2560 N   0  0  0  0  0  0  0  0  0  0  0  0
   32.6750   29.2490   33.9490 N   0  0  0  0  0  0  0  0  0  0  0  0
   30.0020   30.8870   33.1290 H   0  0  0  0  0  0  0  0  0  0  0  0
   30.4290   27.7360   35.5460 C   0  0  2  0  0  3  0  0  0  0  0  0
   30.6350   29.2110   35.4210 C   0  0  1  0  0  3  0  0  0  0  0  0
   31.1590   29.7030   36.5900 O   0  0  0  0  0  0  0  0  0  0  0  0
   31.4900   28.6860   37.4370 C   0  0  0  0  0  2  0  0  0  0  0  0
   31.3280   27.3830   36.6990 C   0  0  1  0  0  3  0  0  0  0  0  0
   30.7200   27.0270   34.3830 O   0  0  0  0  0  0  0  0  0  0  0  0
   30.9350   26.0890   34.6120 H   0  0  0  0  0  0  0  0  0  0  0  0
   30.6620   26.4420   37.4870 O   0  0  0  0  0  0  0  0  0  0  0  0
   31.2340   25.6760   37.6650 H   0  0  0  0  0  0  0  0  0  0  0  0
  1 10  1  0  0  0  0
  1  6  1  0  0  0  0
  2  1  2  0  0  0  0
  3  2  1  0  0  0  0
  3  4  2  0  0  0  0
  4  5  1  0  0  0  0
  5  6  2  0  0  0  0
  5 26  1  0  0  0  0
  7  2  1  0  0  0  0
  8  3  1  0  0  0  0
  9  4  1  0  0  0  0
 10 21  1  0  0  0  0
 11 10  1  0  0  0  0
 11 13  1  0  0  0  0
 12 15  1  0  0  0  0
 12 11  1  0  0  0  0
 12 10  1  0  0  0  0
 14 11  1  0  0  0  0
 16 12  1  0  0  0  0
 17 18  1  0  0  0  0
 18 19  2  0  0  0  0
 18 24  1  0  0  0  0
 19 25  1  0  0  0  0
 20 19  1  0  0  0  0
 21 20  2  0  0  0  0
 22 21  1  0  0  0  0
 22 17  2  0  0  0  0
 23 17  1  0  0  0  0
 26 30  2  0  0  0  0
 27 26  1  0  0  0  0
 27 28  2  0  0  0  0
 28 29  1  0  0  0  0
 30 29  1  0  0  0  0
 31 28  1  0  0  0  0
 32 37  1  6  0  0  0
 32 36  1  0  0  0  0
 33 29  1  6  0  0  0
 33 32  1  0  0  0  0
 33 34  1  0  0  0  0
 34 35  1  0  0  0  0
 36 35  1  0  0  0  0
 36 39  1  1  0  0  0
 37 38  1  0  0  0  0
 39 40  1  0  0  0  0
M  END
>  <minimizedAffinity>
-5.95372725

$$$$

 OpenBabel03272505493D

 40 44  0  0  1  0  0  0  0  0999 V2000
   38.6240   24.6230   35.4090 C   0  0  0  0  0  0  0  0  0  0  0  0
   38.4220   25.3740   36.5150 C   0  0  0  0  0  0  0  0  0  0  0  0
   38.2620   26.7560   36.4150 C   0  0  0  0  0  0  0  0  0  0  0  0
   38.3160   27.3340   35.1500 C   0  0  0  0  0  0  0  0  0  0  0  0
   38.5230   26.5570   34.0200 C   0  0  0  0  0  0  0  0  0  0  0  0
   38.6710   25.2160   34.1950 N   0  0  0  0  0  0  0  0  0  0  0  0
   38.3780   24.9360   37.5060 H   0  0  0  0  0  0  0  0  0  0  0  0
   38.0980   27.3830   37.2820 H   0  0  0  0  0  0  0  0  0  0  0  0
   38.2040   28.3880   34.9730 H   0  0  0  0  0  0  0  0  0  0  0  0
   38.7990   23.1280   35.5020 C   0  0  0  0  0  0  0  0  0  0  0  0
   37.6230   22.3040   35.8940 C   0  0  0  0  0  0  0  0  0  0  0  0
   38.1320   22.2890   34.4690 C   0  0  0  0  0  0  0  0  0  0  0  0
   37.8190   21.3740   36.4680 H   0  0  0  0  0  0  0  0  0  0  0  0
   36.6450   22.7400   36.1000 H   0  0  0  0  0  0  0  0  0  0  0  0
   38.6870   21.3650   34.1340 H   0  0  0  0  0  0  0  0  0  0  0  0
   37.5710   22.7770   33.6660 H   0  0  0  0  0  0  0  0  0  0  0  0
   42.4850   23.0800   35.6950 C   0  0  0  0  0  0  0  0  0  0  0  0
   42.7320   22.1170   36.6830 C   0  0  0  0  0  0  0  0  0  0  0  0
   41.6300   21.4830   37.2840 C   0  0  0  0  0  0  0  0  0  0  0  0
   40.3840   21.8310   36.8820 N   0  0  0  0  0  0  0  0  0  0  0  0
   40.1710   22.7700   35.9200 C   0  0  0  0  0  0  0  0  0  0  0  0
   41.2170   23.3950   35.3260 N   0  0  0  0  0  0  0  0  0  0  0  0
   43.3000   23.5900   35.2090 H   0  0  0  0  0  0  0  0  0  0  0  0
   43.7540   21.8660   36.9780 H   0  0  0  0  0  0  0  0  0  0  0  0
   41.7790   20.7350   38.0510 H   0  0  0  0  0  0  0  0  0  0  0  0
   38.5900   27.1040   32.6590 C   0  0  0  0  0  0  0  0  0  0  0  0
   39.6320   27.2310   31.8010 N   0  0  0  0  0  0  0  0  0  0  0  0
   39.1800   27.8000   30.6560 C   0  0  0  0  0  0  0  0  0  0  0  0
   37.8380   28.0310   30.8080 N   0  0  0  0  0  0  0  0  0  0  0  0
   37.4920   27.6050   32.0230 N   0  0  0  0  0  0  0  0  0  0  0  0
   39.8380   28.0020   29.8210 H   0  0  0  0  0  0  0  0  0  0  0  0
   36.4280   29.9590   30.1830 C   0  0  2  0  0  3  0  0  0  0  0  0
   36.9990   28.6370   29.7820 C   0  0  1  0  0  3  0  0  0  0  0  0
   37.6500   28.7620   28.5820 O   0  0  0  0  0  0  0  0  0  0  0  0
   37.7280   30.0720   28.2070 C   0  0  0  0  0  2  0  0  0  0  0  0
   37.2280   30.9210   29.3470 C   0  0  1  0  0  3  0  0  0  0  0  0
   36.5090   30.2170   31.5490 O   0  0  0  0  0  0  0  0  0  0  0  0
   36.4830   31.1930   31.7040 H   0  0  0  0  0  0  0  0  0  0  0  0
   36.3590   31.9120   28.8880 O   0  0  0  0  0  0  0  0  0  0  0  0
   36.7220   32.7970   29.0680 H   0  0  0  0  0  0  0  0  0  0  0  0
  1 10  1  0  0  0  0
  1  2  1  0  0  0  0
  2  7  1  0  0  0  0
  3  2  2  0  0  0  0
  3  8  1  0  0  0  0
  4  3  1  0  0  0  0
  5  6  1  0  0  0  0
  5  4  2  0  0  0  0
  6  1  2  0  0  0  0
  9  4  1  0  0  0  0
 10 11  1  0  0  0  0
 10 21  1  0  0  0  0
 11 14  1  0  0  0  0
 11 13  1  0  0  0  0
 12 10  1  0  0  0  0
 12 11  1  0  0  0  0
 15 12  1  0  0  0  0
 16 12  1  0  0  0  0
 17 18  1  0  0  0  0
 18 24  1  0  0  0  0
 18 19  2  0  0  0  0
 19 25  1  0  0  0  0
 20 19  1  0  0  0  0
 21 20  2  0  0  0  0
 22 17  2  0  0  0  0
 22 21  1  0  0  0  0
 23 17  1  0  0  0  0
 26  5  1  0  0  0  0
 27 26  1  0  0  0  0
 28 29  1  0  0  0  0
 28 27  2  0  0  0  0
 29 30  1  0  0  0  0
 30 26  2  0  0  0  0
 31 28  1  0  0  0  0
 32 37  1  1  0  0  0
 33 32  1  0  0  0  0
 33 29  1  1  0  0  0
 34 33  1  0  0  0  0
 35 34  1  0  0  0  0
 35 36  1  0  0  0  0
 36 39  1  6  0  0  0
 36 32  1  0  0  0  0
 37 38  1  0  0  0  0
 39 40  1  0  0  0  0
M  END
>  <minimizedAffinity>
-5.91207838

$$$$

 OpenBabel03272505493D

 40 44  0  0  1  0  0  0  0  0999 V2000
   37.3870   27.7550   32.0920 C   0  0  0  0  0  0  0  0  0  0  0  0
   37.7750   28.1280   30.8520 C   0  0  0  0  0  0  0  0  0  0  0  0
   37.2280   29.2600   30.2480 C   0  0  0  0  0  0  0  0  0  0  0  0
   36.2770   29.9890   30.9570 C   0  0  0  0  0  0  0  0  0  0  0  0
   35.8840   29.5990   32.2280 C   0  0  0  0  0  0  0  0  0  0  0  0
   36.4600   28.4840   32.7530 N   0  0  0  0  0  0  0  0  0  0  0  0
   38.5150   27.5700   30.2900 H   0  0  0  0  0  0  0  0  0  0  0  0
   37.5200   29.5850   29.2570 H   0  0  0  0  0  0  0  0  0  0  0  0
   35.8000   30.8730   30.5740 H   0  0  0  0  0  0  0  0  0  0  0  0
   37.9690   26.5330   32.7570 C   0  0  0  0  0  0  0  0  0  0  0  0
   39.4330   26.5070   33.0250 C   0  0  0  0  0  0  0  0  0  0  0  0
   38.4470   26.6720   34.1600 C   0  0  0  0  0  0  0  0  0  0  0  0
   39.9420   25.5200   32.9900 H   0  0  0  0  0  0  0  0  0  0  0  0
   40.0890   27.3400   32.7710 H   0  0  0  0  0  0  0  0  0  0  0  0
   38.2910   25.7820   34.8360 H   0  0  0  0  0  0  0  0  0  0  0  0
   38.3310   27.6340   34.6700 H   0  0  0  0  0  0  0  0  0  0  0  0
   35.3940   24.3240   31.3030 C   0  0  0  0  0  0  0  0  0  0  0  0
   35.8300   23.0470   31.6830 C   0  0  0  0  0  0  0  0  0  0  0  0
   37.0090   22.9450   32.4400 C   0  0  0  0  0  0  0  0  0  0  0  0
   37.6700   24.0820   32.7670 N   0  0  0  0  0  0  0  0  0  0  0  0
   37.2260   25.3100   32.3850 C   0  0  0  0  0  0  0  0  0  0  0  0
   36.0910   25.4340   31.6540 N   0  0  0  0  0  0  0  0  0  0  0  0
   34.4960   24.4470   30.7220 H   0  0  0  0  0  0  0  0  0  0  0  0
   35.2660   22.1540   31.3980 H   0  0  0  0  0  0  0  0  0  0  0  0
   37.3780   21.9770   32.7530 H   0  0  0  0  0  0  0  0  0  0  0  0
   34.8870   30.3220   33.0270 C   0  0  0  0  0  0  0  0  0  0  0  0
   33.8340   31.0910   32.6550 N   0  0  0  0  0  0  0  0  0  0  0  0
   33.2110   31.5400   33.7730 C   0  0  0  0  0  0  0  0  0  0  0  0
   33.8900   31.0430   34.8540 N   0  0  0  0  0  0  0  0  0  0  0  0
   34.9010   30.3070   34.3920 N   0  0  0  0  0  0  0  0  0  0  0  0
   32.3380   32.1760   33.7230 H   0  0  0  0  0  0  0  0  0  0  0  0
   34.5560   32.0660   37.0010 C   0  0  2  0  0  3  0  0  0  0  0  0
   33.5160   31.3100   36.2370 C   0  0  1  0  0  3  0  0  0  0  0  0
   32.3120   31.9580   36.3380 O   0  0  0  0  0  0  0  0  0  0  0  0
   32.4620   33.1690   36.9480 C   0  0  0  0  0  2  0  0  0  0  0  0
   33.9350   33.4300   37.1250 C   0  0  1  0  0  3  0  0  0  0  0  0
   35.8050   32.0830   36.3850 O   0  0  0  0  0  0  0  0  0  0  0  0
   36.3200   32.8660   36.7000 H   0  0  0  0  0  0  0  0  0  0  0  0
   34.2070   33.9080   38.4080 O   0  0  0  0  0  0  0  0  0  0  0  0
   34.5780   34.8060   38.3690 H   0  0  0  0  0  0  0  0  0  0  0  0
  1  6  1  0  0  0  0
  1 10  1  0  0  0  0
  2  1  2  0  0  0  0
  3  2  1  0  0  0  0
  3  4  2  0  0  0  0
  4  5  1  0  0  0  0
  5  6  2  0  0  0  0
  5 26  1  0  0  0  0
  7  2  1  0  0  0  0
  8  3  1  0  0  0  0
  9  4  1  0  0  0  0
 10 11  1  0  0  0  0
 10 12  1  0  0  0  0
 11 12  1  0  0  0  0
 12 16  1  0  0  0  0
 12 15  1  0  0  0  0
 13 11  1  0  0  0  0
 14 11  1  0  0  0  0
 17 22  2  0  0  0  0
 17 18  1  0  0  0  0
 18 19  2  0  0  0  0
 19 25  1  0  0  0  0
 19 20  1  0  0  0  0
 21 10  1  0  0  0  0
 21 20  2  0  0  0  0
 22 21  1  0  0  0  0
 23 17  1  0  0  0  0
 24 18  1  0  0  0  0
 26 30  2  0  0  0  0
 27 26  1  0  0  0  0
 27 28  2  0  0  0  0
 28 29  1  0  0  0  0
 30 29  1  0  0  0  0
 31 28  1  0  0  0  0
 32 37  1  6  0  0  0
 32 36  1  0  0  0  0
 33 29  1  6  0  0  0
 33 34  1  0  0  0  0
 33 32  1  0  0  0  0
 34 35  1  0  0  0  0
 35 36  1  0  0  0  0
 36 39  1  1  0  0  0
 37 38  1  0  0  0  0
 40 39  1  0  0  0  0
M  END
>  <minimizedAffinity>
-5.81985903

$$$$
