
 OpenBabel03272507513D

 32 34  0  0  1  0  0  0  0  0999 V2000
   36.3530   31.1530   48.7310 N   0  0  0  0  0  0  0  0  0  0  0  0
   36.5430   32.0200   49.7190 C   0  0  0  0  0  0  0  0  0  0  0  0
   37.6240   32.8980   49.6830 C   0  0  0  0  0  0  0  0  0  0  0  0
   38.4190   32.7760   48.5840 C   0  0  0  0  0  0  0  0  0  0  0  0
   39.4000   33.5850   48.5670 O   0  0  0  0  0  0  0  0  0  0  0  0
   38.2690   31.9280   47.5750 N   0  0  0  0  0  0  0  0  0  0  0  0
   37.2030   31.0960   47.6590 C   0  0  0  0  0  0  0  0  0  0  0  0
   37.0410   30.2780   46.7060 O   0  0  0  0  0  0  0  0  0  0  0  0
   35.8490   32.0410   50.5580 H   0  0  0  0  0  0  0  0  0  0  0  0
   37.7720   33.5960   50.4830 H   0  0  0  0  0  0  0  0  0  0  0  0
   35.0580   29.4350   49.8620 C   0  0  0  0  0  0  0  0  0  0  0  0
   35.2630   30.2190   48.7090 C   0  0  0  0  0  0  0  0  0  0  0  0
   34.4080   30.0540   47.6040 C   0  0  0  0  0  0  0  0  0  0  0  0
   33.4220   29.1390   47.7140 N   0  0  0  0  0  0  0  0  0  0  0  0
   33.2280   28.4010   48.7960 C   0  0  0  0  0  0  0  0  0  0  0  0
   34.0410   28.5490   49.8600 N   0  0  0  0  0  0  0  0  0  0  0  0
   34.5850   30.6600   46.7470 H   0  0  0  0  0  0  0  0  0  0  0  0
   32.4450   27.6710   48.8870 H   0  0  0  0  0  0  0  0  0  0  0  0
   37.2150   29.1620   51.3050 C   0  0  0  0  0  0  0  0  0  0  0  0
   37.9460   28.6390   50.4360 O   0  0  0  0  0  0  0  0  0  0  0  0
   35.8540   29.5330   51.0220 N   0  0  0  0  0  0  0  0  0  0  0  0
   37.6670   29.3170   52.2710 H   0  0  0  0  0  0  0  0  0  0  0  0
   35.4070   29.9620   51.8890 H   0  0  0  0  0  0  0  0  0  0  0  0
   40.1280   33.0120   46.3650 C   0  0  1  0  0  3  0  0  0  0  0  0
   39.1440   31.8630   46.4620 C   0  0  1  0  0  3  0  0  0  0  0  0
   39.9930   30.7670   46.4670 O   0  0  0  0  0  0  0  0  0  0  0  0
   40.9900   30.9960   45.5660 C   0  0  0  0  0  2  0  0  0  0  0  0
   40.9460   32.4790   45.1820 C   0  0  2  0  0  3  0  0  0  0  0  0
   39.5300   34.2140   46.0690 O   0  0  0  0  0  0  0  0  0  0  0  0
   39.9050   34.9030   46.7030 H   0  0  0  0  0  0  0  0  0  0  0  0
   42.2070   33.0250   45.1170 O   0  0  0  0  0  0  0  0  0  0  0  0
   42.1150   33.9500   44.8330 H   0  0  0  0  0  0  0  0  0  0  0  0
  1  2  1  0  0  0  0
  2  9  1  0  0  0  0
  3  2  2  0  0  0  0
  3 10  1  0  0  0  0
  4  3  1  0  0  0  0
  5  4  2  0  0  0  0
  6  7  1  0  0  0  0
  6  4  1  0  0  0  0
  7  1  1  0  0  0  0
  8  7  2  0  0  0  0
 11 21  1  0  0  0  0
 12  1  1  0  0  0  0
 12 11  2  0  0  0  0
 13 14  2  0  0  0  0
 13 12  1  0  0  0  0
 14 15  1  0  0  0  0
 15 18  1  0  0  0  0
 15 16  2  0  0  0  0
 16 11  1  0  0  0  0
 17 13  1  0  0  0  0
 19 22  1  0  0  0  0
 20 19  2  0  0  0  0
 21 19  1  0  0  0  0
 21 23  1  0  0  0  0
 24 29  1  6  0  0  0
 24 25  1  0  0  0  0
 25 26  1  0  0  0  0
 25  6  1  1  0  0  0
 27 26  1  0  0  0  0
 28 31  1  1  0  0  0
 28 27  1  0  0  0  0
 28 24  1  0  0  0  0
 29 30  1  0  0  0  0
 32 31  1  0  0  0  0
M  END
>  <minimizedAffinity>
-4.44687796

>  <minimizedRMSD>
1.16029143

$$$$
