
 OpenBabel03272506153D

 28 30  0  0  1  0  0  0  0  0999 V2000
   38.0340   31.2290   43.1690 C   0  0  0  0  0  0  0  0  0  0  0  0
   37.2800   31.2850   41.9850 C   0  0  0  0  0  0  0  0  0  0  0  0
   35.9110   30.9130   42.0410 C   0  0  0  0  0  0  0  0  0  0  0  0
   35.4150   30.5240   43.2440 N   0  0  0  0  0  0  0  0  0  0  0  0
   36.1810   30.4870   44.3580 C   0  0  0  0  0  0  0  0  0  0  0  0
   37.4860   30.8340   44.3330 N   0  0  0  0  0  0  0  0  0  0  0  0
   35.6880   30.0840   45.6270 N   0  0  0  0  0  0  0  0  0  0  0  0
   34.6080   29.2680   45.6630 C   0  0  0  0  0  0  0  0  0  0  0  0
   34.1770   28.9150   46.9190 C   0  0  0  0  0  0  0  0  0  0  0  0
   34.7770   29.3410   48.0870 C   0  0  0  0  0  0  0  0  0  0  0  0
   34.3760   29.0120   49.2430 O   0  0  0  0  0  0  0  0  0  0  0  0
   35.8690   30.1680   47.9990 N   0  0  0  0  0  0  0  0  0  0  0  0
   36.2810   30.5080   46.7670 C   0  0  0  0  0  0  0  0  0  0  0  0
   37.2790   31.2640   46.6190 O   0  0  0  0  0  0  0  0  0  0  0  0
   39.0730   31.5170   43.0930 H   0  0  0  0  0  0  0  0  0  0  0  0
   37.6680   31.5910   41.0350 H   0  0  0  0  0  0  0  0  0  0  0  0
   35.2600   30.9260   41.1840 H   0  0  0  0  0  0  0  0  0  0  0  0
   34.1150   28.9170   44.7620 H   0  0  0  0  0  0  0  0  0  0  0  0
   33.3180   28.2640   47.0160 H   0  0  0  0  0  0  0  0  0  0  0  0
   37.9960   30.4160   49.2380 C   0  0  1  0  0  0  0  0  0  0  0  0
   36.5230   30.6340   49.1810 C   0  0  1  0  0  0  0  0  0  0  0  0
   36.2920   32.0030   49.4140 O   0  0  0  0  0  0  0  0  0  0  0  0
   37.1980   32.2480   50.4530 C   0  0  0  0  0  0  0  0  0  0  0  0
   38.4790   31.7350   49.8230 C   0  0  2  0  0  0  0  0  0  0  0  0
   38.3310   29.4250   50.1870 O   0  0  0  0  0  0  0  0  0  0  0  0
   38.3050   28.5250   49.8050 H   0  0  0  0  0  0  0  0  0  0  0  0
   38.9310   32.6120   48.8660 O   0  0  0  0  0  0  0  0  0  0  0  0
   39.5550   33.2640   49.2210 H   0  0  0  0  0  0  0  0  0  0  0  0
  1  6  1  0  0  0  0
  2  3  1  0  0  0  0
  2  1  2  0  0  0  0
  3  4  2  0  0  0  0
  4  5  1  0  0  0  0
  5  7  1  0  0  0  0
  6  5  2  0  0  0  0
  7  8  1  0  0  0  0
  7 13  1  0  0  0  0
  8  9  2  0  0  0  0
  9 19  1  0  0  0  0
  9 10  1  0  0  0  0
 10 11  2  0  0  0  0
 12 10  1  0  0  0  0
 13 12  1  0  0  0  0
 14 13  2  0  0  0  0
 15  1  1  0  0  0  0
 16  2  1  0  0  0  0
 17  3  1  0  0  0  0
 18  8  1  0  0  0  0
 20 24  1  0  0  0  0
 20 25  1  1  0  0  0
 21 12  1  6  0  0  0
 21 20  1  0  0  0  0
 21 22  1  0  0  0  0
 22 23  1  0  0  0  0
 24 27  1  6  0  0  0
 24 23  1  0  0  0  0
 26 25  1  0  0  0  0
 27 28  1  0  0  0  0
M  END
>  <minimizedAffinity>
-4.76176643

>  <minimizedRMSD>
5.99824762

$$$$
