REMARK  Name = 
REMARK  6 active torsions:
REMARK  status: ('A' for Active; 'I' for Inactive)
REMARK    1  A    between atoms: C_1  and  C_8
REMARK    2  A    between atoms: C_1  and  C_10
REMARK    3  A    between atoms: C_14  and  C_16
REMARK    4  A    between atoms: N_19  and  C_34
REMARK    5  A    between atoms: O_32  and  C_33
REMARK    6  A    between atoms: C_37  and  O_38
REMARK                            x       y       z     vdW  Elec       q    Type
REMARK                         _______ _______ _______ _____ _____    ______ ____
ROOT
ATOM      1  C   UNL     1      36.508  30.538  46.264  0.00  0.00    +0.000 A 
ATOM      2  C   UNL     1      37.136  30.936  47.393  0.00  0.00    +0.000 A 
ATOM      3  C   UNL     1      36.544  30.742  48.641  0.00  0.00    +0.000 A 
ATOM      4  C   UNL     1      35.295  30.129  48.687  0.00  0.00    +0.000 A 
ATOM      5  C   UNL     1      34.657  29.724  47.525  0.00  0.00    +0.000 A 
ATOM      6  N   UNL     1      35.295  29.946  46.344  0.00  0.00    +0.000 NA
ATOM      7  H   UNL     1      38.109  31.414  47.370  0.00  0.00    +0.000 HD
ATOM      8  H   UNL     1      37.023  31.049  49.562  0.00  0.00    +0.000 HD
ATOM      9  H   UNL     1      34.761  29.938  49.600  0.00  0.00    +0.000 HD
ENDROOT
BRANCH   1  10
ATOM     10  C   UNL     1      37.136  30.742  44.908  0.00  0.00    +0.000 C 
ATOM     11  C   UNL     1      36.832  29.756  43.835  0.00  0.00    +0.000 C 
ATOM     12  C   UNL     1      36.244  31.149  43.788  0.00  0.00    +0.000 C 
ATOM     13  H   UNL     1      37.624  29.559  43.082  0.00  0.00    +0.000 HD
ATOM     14  H   UNL     1      36.165  28.908  43.992  0.00  0.00    +0.000 HD
ATOM     15  H   UNL     1      36.680  31.863  43.030  0.00  0.00    +0.000 HD
ATOM     16  H   UNL     1      35.181  31.319  43.987  0.00  0.00    +0.000 HD
BRANCH  10  21
ATOM     17  C   UNL     1      39.762  33.336  44.971  0.00  0.00    +0.000 A 
ATOM     18  C   UNL     1      40.925  32.594  45.220  0.00  0.00    +0.000 A 
ATOM     19  C   UNL     1      40.807  31.201  45.366  0.00  0.00    +0.000 A 
ATOM     20  N   UNL     1      39.578  30.640  45.260  0.00  0.00    +0.000 NA
ATOM     21  C   UNL     1      38.464  31.383  45.019  0.00  0.00    +0.000 A 
ATOM     22  N   UNL     1      38.552  32.728  44.874  0.00  0.00    +0.000 NA
ATOM     23  H   UNL     1      39.807  34.405  44.853  0.00  0.00    +0.000 HD
ATOM     24  H   UNL     1      41.898  33.087  45.298  0.00  0.00    +0.000 HD
ATOM     25  H   UNL     1      41.681  30.594  45.559  0.00  0.00    +0.000 HD
ENDBRANCH  10  21
ENDBRANCH   1  10
BRANCH   5  26
ATOM     26  C   UNL     1      33.341  29.073  47.505  0.00  0.00    +0.000 A 
ATOM     27  N   UNL     1      32.381  29.035  46.549  0.00  0.00    +0.000 NA
ATOM     28  C   UNL     1      31.341  28.298  47.011  0.00  0.00    +0.000 A 
ATOM     29  N   UNL     1      31.661  27.874  48.274  0.00  0.00    +0.000 N 
ATOM     30  N   UNL     1      32.873  28.348  48.562  0.00  0.00    +0.000 NA
ATOM     31  H   UNL     1      30.453  28.128  46.417  0.00  0.00    +0.000 HD
BRANCH  29  33
ATOM     32  C   UNL     1      29.446  26.802  48.481  0.00  0.00    +0.000 C 
ATOM     33  C   UNL     1      30.785  27.052  49.099  0.00  0.00    +0.000 C 
ATOM     34  O   UNL     1      31.362  25.857  49.444  0.00  0.00    +0.000 OA
ATOM     35  C   UNL     1      30.629  24.809  48.969  0.00  0.00    +0.000 C 
ATOM     36  C   UNL     1      29.544  25.356  48.077  0.00  0.00    +0.000 C 
BRANCH  32  37
ATOM     37  O   UNL     1      29.148  27.652  47.420  0.00  0.00    +0.000 OA
ATOM     38  H   UNL     1      28.477  27.226  46.833  0.00  0.00    +0.000 HD
ENDBRANCH  32  37
BRANCH  36  39
ATOM     39  O   UNL     1      28.317  24.752  48.353  0.00  0.00    +0.000 OA
ATOM     40  H   UNL     1      27.992  24.262  47.579  0.00  0.00    +0.000 HD
ENDBRANCH  36  39
ENDBRANCH  29  33
ENDBRANCH   5  26
TORSDOF 6
