
 OpenBabel03272510113D

 35 38  0  0  1  0  0  0  0  0999 V2000
   34.0280   28.8050   48.2840 C   0  0  0  0  0  0  0  0  0  0  0  0
   34.6560   28.3710   49.3970 C   0  0  0  0  0  0  0  0  0  0  0  0
   35.8920   28.7980   49.8200 C   0  0  0  0  0  0  0  0  0  0  0  0
   36.5710   29.7300   49.0890 C   0  0  0  0  0  0  0  0  0  0  0  0
   35.9310   30.1900   47.9300 C   0  0  0  0  0  0  0  0  0  0  0  0
   34.7140   29.7320   47.5650 N   0  0  0  0  0  0  0  0  0  0  0  0
   34.1950   27.6310   50.0410 H   0  0  0  0  0  0  0  0  0  0  0  0
   36.3940   28.4510   50.7110 H   0  0  0  0  0  0  0  0  0  0  0  0
   36.3790   30.9300   47.2760 H   0  0  0  0  0  0  0  0  0  0  0  0
   31.9120   27.4770   48.5850 C   0  0  0  0  0  0  0  0  0  0  0  0
   32.7320   28.3480   47.8520 C   0  0  0  0  0  0  0  0  0  0  0  0
   32.2350   28.7830   46.6340 C   0  0  0  0  0  0  0  0  0  0  0  0
   31.0010   28.3530   46.2140 N   0  0  0  0  0  0  0  0  0  0  0  0
   30.2700   27.5150   46.9730 C   0  0  0  0  0  0  0  0  0  0  0  0
   30.7170   27.0730   48.1570 N   0  0  0  0  0  0  0  0  0  0  0  0
   32.2790   27.1260   49.5360 H   0  0  0  0  0  0  0  0  0  0  0  0
   32.8290   29.4620   46.0210 H   0  0  0  0  0  0  0  0  0  0  0  0
   29.3280   27.2890   46.4760 H   0  0  0  0  0  0  0  0  0  0  0  0
   37.8270   30.2790   49.3620 O   0  0  0  0  0  0  0  0  0  0  0  0
   38.3920   31.2460   48.5430 C   0  0  0  0  0  0  0  0  0  0  0  0
   38.5080   32.4980   49.1400 C   0  0  0  0  0  0  0  0  0  0  0  0
   39.0850   33.3700   48.2150 C   0  0  0  0  0  0  0  0  0  0  0  0
   39.2900   32.6210   47.1200 N   0  0  0  0  0  0  0  0  0  0  0  0
   38.8900   31.3890   47.3010 N   0  0  0  0  0  0  0  0  0  0  0  0
   38.2580   32.9220   50.1230 H   0  0  0  0  0  0  0  0  0  0  0  0
   39.3680   34.4130   48.2120 H   0  0  0  0  0  0  0  0  0  0  0  0
   38.9450   32.7960   44.6820 C   0  0  1  0  0  3  0  0  0  0  0  0
   39.8730   33.0100   45.8290 C   0  0  2  0  0  3  0  0  0  0  0  0
   41.0210   32.3200   45.5600 O   0  0  0  0  0  0  0  0  0  0  0  0
   40.7820   31.3240   44.6550 C   0  0  0  0  0  2  0  0  0  0  0  0
   39.3920   31.4850   44.1210 C   0  0  2  0  0  3  0  0  0  0  0  0
   37.6040   32.7880   45.0590 O   0  0  0  0  0  0  0  0  0  0  0  0
   37.1730   33.6090   44.7370 H   0  0  0  0  0  0  0  0  0  0  0  0
   39.3830   31.5410   42.7150 O   0  0  0  0  0  0  0  0  0  0  0  0
   39.1190   30.6880   42.3280 H   0  0  0  0  0  0  0  0  0  0  0  0
  1  2  1  0  0  0  0
  2  3  2  0  0  0  0
  2  7  1  0  0  0  0
  3  8  1  0  0  0  0
  4 19  1  0  0  0  0
  4  3  1  0  0  0  0
  5  4  2  0  0  0  0
  6  5  1  0  0  0  0
  6  1  2  0  0  0  0
  9  5  1  0  0  0  0
 10 16  1  0  0  0  0
 11  1  1  0  0  0  0
 11 10  2  0  0  0  0
 12 11  1  0  0  0  0
 13 12  2  0  0  0  0
 13 14  1  0  0  0  0
 14 15  2  0  0  0  0
 15 10  1  0  0  0  0
 17 12  1  0  0  0  0
 18 14  1  0  0  0  0
 20 21  1  0  0  0  0
 20 19  1  0  0  0  0
 21 25  1  0  0  0  0
 22 21  2  0  0  0  0
 23 24  1  0  0  0  0
 23 22  1  0  0  0  0
 24 20  2  0  0  0  0
 26 22  1  0  0  0  0
 27 32  1  1  0  0  0
 27 28  1  0  0  0  0
 28 23  1  1  0  0  0
 29 28  1  0  0  0  0
 30 29  1  0  0  0  0
 31 34  1  6  0  0  0
 31 30  1  0  0  0  0
 31 27  1  0  0  0  0
 33 32  1  0  0  0  0
 35 34  1  0  0  0  0
M  END
>  <minimizedAffinity>
-6.88712931

>  <minimizedRMSD>
1.29580617

$$$$
