
 OpenBabel03272510113D

 35 38  0  0  1  0  0  0  0  0999 V2000
   34.0240   28.8050   48.2810 C   0  0  0  0  0  0  0  0  0  0  0  0
   34.6520   28.3690   49.3930 C   0  0  0  0  0  0  0  0  0  0  0  0
   35.8880   28.7940   49.8170 C   0  0  0  0  0  0  0  0  0  0  0  0
   36.5670   29.7280   49.0870 C   0  0  0  0  0  0  0  0  0  0  0  0
   35.9260   30.1910   47.9290 C   0  0  0  0  0  0  0  0  0  0  0  0
   34.7090   29.7340   47.5630 N   0  0  0  0  0  0  0  0  0  0  0  0
   34.1910   27.6280   50.0350 H   0  0  0  0  0  0  0  0  0  0  0  0
   36.3910   28.4460   50.7070 H   0  0  0  0  0  0  0  0  0  0  0  0
   36.3740   30.9320   47.2760 H   0  0  0  0  0  0  0  0  0  0  0  0
   31.9080   27.4760   48.5800 C   0  0  0  0  0  0  0  0  0  0  0  0
   32.7270   28.3490   47.8480 C   0  0  0  0  0  0  0  0  0  0  0  0
   32.2300   28.7870   46.6320 C   0  0  0  0  0  0  0  0  0  0  0  0
   30.9960   28.3580   46.2110 N   0  0  0  0  0  0  0  0  0  0  0  0
   30.2650   27.5180   46.9690 C   0  0  0  0  0  0  0  0  0  0  0  0
   30.7120   27.0730   48.1510 N   0  0  0  0  0  0  0  0  0  0  0  0
   32.2750   27.1230   49.5300 H   0  0  0  0  0  0  0  0  0  0  0  0
   32.8240   29.4670   46.0200 H   0  0  0  0  0  0  0  0  0  0  0  0
   29.3230   27.2930   46.4710 H   0  0  0  0  0  0  0  0  0  0  0  0
   37.8230   30.2760   49.3600 O   0  0  0  0  0  0  0  0  0  0  0  0
   38.3880   31.2440   48.5430 C   0  0  0  0  0  0  0  0  0  0  0  0
   38.5050   32.4950   49.1400 C   0  0  0  0  0  0  0  0  0  0  0  0
   39.0830   33.3670   48.2150 C   0  0  0  0  0  0  0  0  0  0  0  0
   39.2880   32.6190   47.1200 N   0  0  0  0  0  0  0  0  0  0  0  0
   38.8880   31.3860   47.3000 N   0  0  0  0  0  0  0  0  0  0  0  0
   38.2550   32.9190   50.1230 H   0  0  0  0  0  0  0  0  0  0  0  0
   39.3660   34.4100   48.2120 H   0  0  0  0  0  0  0  0  0  0  0  0
   38.9440   32.7950   44.6820 C   0  0  1  0  0  3  0  0  0  0  0  0
   39.8720   33.0080   45.8290 C   0  0  2  0  0  3  0  0  0  0  0  0
   41.0210   32.3170   45.5610 O   0  0  0  0  0  0  0  0  0  0  0  0
   40.7800   31.3210   44.6540 C   0  0  0  0  0  2  0  0  0  0  0  0
   39.3910   31.4840   44.1200 C   0  0  2  0  0  3  0  0  0  0  0  0
   37.6030   32.7870   45.0590 O   0  0  0  0  0  0  0  0  0  0  0  0
   37.1730   33.6090   44.7360 H   0  0  0  0  0  0  0  0  0  0  0  0
   39.3810   31.5390   42.7150 O   0  0  0  0  0  0  0  0  0  0  0  0
   39.1190   30.6880   42.3270 H   0  0  0  0  0  0  0  0  0  0  0  0
  1  2  1  0  0  0  0
  2  3  2  0  0  0  0
  2  7  1  0  0  0  0
  3  8  1  0  0  0  0
  4 19  1  0  0  0  0
  4  3  1  0  0  0  0
  5  4  2  0  0  0  0
  6  5  1  0  0  0  0
  6  1  2  0  0  0  0
  9  5  1  0  0  0  0
 10 16  1  0  0  0  0
 11  1  1  0  0  0  0
 11 10  2  0  0  0  0
 12 11  1  0  0  0  0
 13 12  2  0  0  0  0
 13 14  1  0  0  0  0
 14 15  2  0  0  0  0
 15 10  1  0  0  0  0
 17 12  1  0  0  0  0
 18 14  1  0  0  0  0
 20 21  1  0  0  0  0
 20 19  1  0  0  0  0
 21 25  1  0  0  0  0
 22 21  2  0  0  0  0
 23 24  1  0  0  0  0
 23 22  1  0  0  0  0
 24 20  2  0  0  0  0
 26 22  1  0  0  0  0
 27 32  1  1  0  0  0
 27 28  1  0  0  0  0
 28 23  1  1  0  0  0
 29 28  1  0  0  0  0
 30 29  1  0  0  0  0
 31 34  1  6  0  0  0
 31 30  1  0  0  0  0
 31 27  1  0  0  0  0
 33 32  1  0  0  0  0
 35 34  1  0  0  0  0
M  END
>  <minimizedAffinity>
-6.88786697

>  <minimizedRMSD>
1.51186073

$$$$
