
 OpenBabel03272503293D

 34 36  0  0  1  0  0  0  0  0999 V2000
   35.1330   29.4650   47.9330 C   0  0  0  0  0  0  0  0  0  0  0  0
   35.0840   29.9170   46.5980 C   0  0  0  0  0  0  0  0  0  0  0  0
   33.9240   29.6170   45.8760 C   0  0  0  0  0  0  0  0  0  0  0  0
   32.9350   28.9130   46.5160 N   0  0  0  0  0  0  0  0  0  0  0  0
   33.0280   28.5090   47.7820 C   0  0  0  0  0  0  0  0  0  0  0  0
   34.1270   28.7830   48.4950 N   0  0  0  0  0  0  0  0  0  0  0  0
   35.8880   30.4710   46.1260 H   0  0  0  0  0  0  0  0  0  0  0  0
   33.8130   29.9330   44.8340 H   0  0  0  0  0  0  0  0  0  0  0  0
   36.3230   29.7780   48.6770 N   0  0  0  0  0  0  0  0  0  0  0  0
   37.4490   30.5500   48.2230 C   0  0  0  0  0  0  0  0  0  0  0  0
   37.9870   31.1500   49.5140 C   0  0  2  0  0  0  0  0  0  0  0  0
   37.0200   30.7390   50.5920 C   0  0  0  0  0  0  0  0  0  0  0  0
   36.6190   29.3800   50.0200 C   0  0  0  0  0  0  0  0  0  0  0  0
   37.0760   31.4060   47.6220 H   0  0  0  0  0  0  0  0  0  0  0  0
   38.1490   29.8880   47.7080 H   0  0  0  0  0  0  0  0  0  0  0  0
   38.9640   30.6580   49.7590 H   0  0  0  0  0  0  0  0  0  0  0  0
   36.1130   31.3700   50.5550 H   0  0  0  0  0  0  0  0  0  0  0  0
   37.4840   30.6460   51.5820 H   0  0  0  0  0  0  0  0  0  0  0  0
   37.4730   28.6890   50.0820 H   0  0  0  0  0  0  0  0  0  0  0  0
   35.7300   28.9780   50.5120 H   0  0  0  0  0  0  0  0  0  0  0  0
   38.1740   32.6260   49.4330 C   0  0  0  0  0  0  0  0  0  0  0  0
   37.0170   33.2090   49.9540 F   0  0  0  0  0  0  0  0  0  0  0  0
   38.1940   32.9680   48.0880 F   0  0  0  0  0  0  0  0  0  0  0  0
   39.3030   33.0810   50.0500 F   0  0  0  0  0  0  0  0  0  0  0  0
   31.7010   27.6010   48.5610 S   0  0  0  0  0  0  0  0  0  0  0  0
   29.5130   28.8030   47.6160 C   0  0  2  0  0  0  0  0  0  0  0  0
   30.3350   27.5300   47.3570 C   0  0  2  0  0  0  0  0  0  0  0  0
   29.4100   26.5810   47.7900 O   0  0  0  0  0  0  0  0  0  0  0  0
   29.0840   27.0140   49.0580 C   0  0  0  0  0  0  0  0  0  0  0  0
   29.1550   28.5260   49.0810 C   0  0  2  0  0  0  0  0  0  0  0  0
   28.3880   28.7810   46.7980 O   0  0  0  0  0  0  0  0  0  0  0  0
   27.8220   29.5710   46.9310 H   0  0  0  0  0  0  0  0  0  0  0  0
   27.9870   29.1330   49.4750 O   0  0  0  0  0  0  0  0  0  0  0  0
   27.6470   28.6390   50.2660 H   0  0  0  0  0  0  0  0  0  0  0  0
  1  6  1  0  0  0  0
  1  9  1  0  0  0  0
  2  1  2  0  0  0  0
  3  4  2  0  0  0  0
  3  2  1  0  0  0  0
  4  5  1  0  0  0  0
  5  6  2  0  0  0  0
  5 25  1  0  0  0  0
  7  2  1  0  0  0  0
  8  3  1  0  0  0  0
  9 13  1  0  0  0  0
 10  9  1  0  0  0  0
 10 11  1  0  0  0  0
 11 16  1  1  0  0  0
 11 12  1  0  0  0  0
 12 18  1  0  0  0  0
 13 19  1  0  0  0  0
 13 20  1  0  0  0  0
 13 12  1  0  0  0  0
 14 10  1  0  0  0  0
 15 10  1  0  0  0  0
 17 12  1  0  0  0  0
 21 11  1  0  0  0  0
 21 22  1  0  0  0  0
 21 24  1  0  0  0  0
 23 21  1  0  0  0  0
 26 31  1  6  0  0  0
 26 30  1  0  0  0  0
 27 26  1  0  0  0  0
 27 28  1  0  0  0  0
 27 25  1  1  0  0  0
 28 29  1  0  0  0  0
 29 30  1  0  0  0  0
 30 33  1  6  0  0  0
 31 32  1  0  0  0  0
 33 34  1  0  0  0  0
M  END
>  <minimizedAffinity>
-6.14818001

>  <minimizedRMSD>
2.12949538

$$$$
