
 OpenBabel03262522573D

 25 27  0  0  1  0  0  0  0  0999 V2000
   36.0180   30.1300   48.8380 C   0  0  0  0  0  0  0  0  0  0  0  0
   35.9730   29.1480   49.8120 C   0  0  0  0  0  0  0  0  0  0  0  0
   34.8650   28.3690   49.6120 C   0  0  0  0  0  0  0  0  0  0  0  0
   34.2480   28.8810   48.5200 N   0  0  0  0  0  0  0  0  0  0  0  0
   34.9460   29.9330   48.0680 N   0  0  0  0  0  0  0  0  0  0  0  0
   36.7110   29.0330   50.6010 H   0  0  0  0  0  0  0  0  0  0  0  0
   34.5860   27.5260   50.2280 H   0  0  0  0  0  0  0  0  0  0  0  0
   38.0410   33.1410   49.4090 C   0  0  0  0  0  0  0  0  0  0  0  0
   38.9800   33.0650   48.3560 C   0  0  0  0  0  0  0  0  0  0  0  0
   38.9050   31.9860   47.4700 C   0  0  0  0  0  0  0  0  0  0  0  0
   37.9300   31.0630   47.6680 N   0  0  0  0  0  0  0  0  0  0  0  0
   37.0360   31.1630   48.6950 C   0  0  0  0  0  0  0  0  0  0  0  0
   37.1090   32.1880   49.5330 N   0  0  0  0  0  0  0  0  0  0  0  0
   38.0290   33.9460   50.1410 H   0  0  0  0  0  0  0  0  0  0  0  0
   39.7140   33.8640   48.3030 H   0  0  0  0  0  0  0  0  0  0  0  0
   39.6230   31.9490   46.6870 H   0  0  0  0  0  0  0  0  0  0  0  0
   32.5640   28.9350   46.7230 C   0  0  1  0  0  3  0  0  0  0  0  0
   33.0240   28.3030   48.0040 C   0  0  1  0  0  3  0  0  0  0  0  0
   33.1480   26.9320   47.7890 O   0  0  0  0  0  0  0  0  0  0  0  0
   33.6870   26.8990   46.4860 C   0  0  0  0  0  2  0  0  0  0  0  0
   32.6240   27.7400   45.7680 C   0  0  2  0  0  3  0  0  0  0  0  0
   31.2410   29.4060   46.8000 O   0  0  0  0  0  0  0  0  0  0  0  0
   30.9160   29.1650   47.7030 H   0  0  0  0  0  0  0  0  0  0  0  0
   32.9940   28.0970   44.4920 O   0  0  0  0  0  0  0  0  0  0  0  0
   32.5910   27.4390   43.8540 H   0  0  0  0  0  0  0  0  0  0  0  0
  1  2  1  0  0  0  0
  2  6  1  0  0  0  0
  3  2  2  0  0  0  0
  3  7  1  0  0  0  0
  4  3  1  0  0  0  0
  5  4  1  0  0  0  0
  5  1  2  0  0  0  0
  8 13  1  0  0  0  0
  8 14  1  0  0  0  0
  9  8  2  0  0  0  0
 10 11  2  0  0  0  0
 10  9  1  0  0  0  0
 11 12  1  0  0  0  0
 12  1  1  0  0  0  0
 12 13  2  0  0  0  0
 15  9  1  0  0  0  0
 16 10  1  0  0  0  0
 17 22  1  1  0  0  0
 17 18  1  0  0  0  0
 18  4  1  6  0  0  0
 19 18  1  0  0  0  0
 20 19  1  0  0  0  0
 21 24  1  6  0  0  0
 21 20  1  0  0  0  0
 21 17  1  0  0  0  0
 22 23  1  0  0  0  0
 25 24  1  0  0  0  0
M  END
>  <minimizedAffinity>
-5.05058384

>  <minimizedRMSD>
2.31773949

$$$$
