
 OpenBabel03272510113D

 35 38  0  0  1  0  0  0  0  0999 V2000
   34.0200   28.8040   48.2790 C   0  0  0  0  0  0  0  0  0  0  0  0
   34.6490   28.3670   49.3910 C   0  0  0  0  0  0  0  0  0  0  0  0
   35.8850   28.7910   49.8150 C   0  0  0  0  0  0  0  0  0  0  0  0
   36.5640   29.7260   49.0850 C   0  0  0  0  0  0  0  0  0  0  0  0
   35.9230   30.1900   47.9290 C   0  0  0  0  0  0  0  0  0  0  0  0
   34.7050   29.7340   47.5620 N   0  0  0  0  0  0  0  0  0  0  0  0
   34.1880   27.6250   50.0330 H   0  0  0  0  0  0  0  0  0  0  0  0
   36.3870   28.4420   50.7040 H   0  0  0  0  0  0  0  0  0  0  0  0
   36.3710   30.9310   47.2760 H   0  0  0  0  0  0  0  0  0  0  0  0
   31.9050   27.4730   48.5760 C   0  0  0  0  0  0  0  0  0  0  0  0
   32.7230   28.3490   47.8470 C   0  0  0  0  0  0  0  0  0  0  0  0
   32.2240   28.7920   46.6330 C   0  0  0  0  0  0  0  0  0  0  0  0
   30.9890   28.3640   46.2120 N   0  0  0  0  0  0  0  0  0  0  0  0
   30.2600   27.5210   46.9680 C   0  0  0  0  0  0  0  0  0  0  0  0
   30.7100   27.0710   48.1470 N   0  0  0  0  0  0  0  0  0  0  0  0
   32.2750   27.1160   49.5240 H   0  0  0  0  0  0  0  0  0  0  0  0
   32.8160   29.4760   46.0230 H   0  0  0  0  0  0  0  0  0  0  0  0
   29.3170   27.2980   46.4700 H   0  0  0  0  0  0  0  0  0  0  0  0
   37.8200   30.2730   49.3590 O   0  0  0  0  0  0  0  0  0  0  0  0
   38.3860   31.2410   48.5420 C   0  0  0  0  0  0  0  0  0  0  0  0
   38.5010   32.4920   49.1390 C   0  0  0  0  0  0  0  0  0  0  0  0
   39.0800   33.3650   48.2150 C   0  0  0  0  0  0  0  0  0  0  0  0
   39.2860   32.6160   47.1200 N   0  0  0  0  0  0  0  0  0  0  0  0
   38.8860   31.3840   47.3000 N   0  0  0  0  0  0  0  0  0  0  0  0
   38.2500   32.9160   50.1220 H   0  0  0  0  0  0  0  0  0  0  0  0
   39.3630   34.4080   48.2120 H   0  0  0  0  0  0  0  0  0  0  0  0
   38.9440   32.7940   44.6820 C   0  0  1  0  0  3  0  0  0  0  0  0
   39.8710   33.0060   45.8300 C   0  0  2  0  0  3  0  0  0  0  0  0
   41.0200   32.3140   45.5620 O   0  0  0  0  0  0  0  0  0  0  0  0
   40.7790   31.3190   44.6540 C   0  0  0  0  0  2  0  0  0  0  0  0
   39.3900   31.4830   44.1200 C   0  0  2  0  0  3  0  0  0  0  0  0
   37.6020   32.7880   45.0570 O   0  0  0  0  0  0  0  0  0  0  0  0
   37.1720   33.6100   44.7360 H   0  0  0  0  0  0  0  0  0  0  0  0
   39.3820   31.5400   42.7150 O   0  0  0  0  0  0  0  0  0  0  0  0
   39.1190   30.6880   42.3250 H   0  0  0  0  0  0  0  0  0  0  0  0
  1  2  1  0  0  0  0
  2  3  2  0  0  0  0
  2  7  1  0  0  0  0
  3  8  1  0  0  0  0
  4 19  1  0  0  0  0
  4  3  1  0  0  0  0
  5  4  2  0  0  0  0
  6  5  1  0  0  0  0
  6  1  2  0  0  0  0
  9  5  1  0  0  0  0
 10 16  1  0  0  0  0
 11  1  1  0  0  0  0
 11 10  2  0  0  0  0
 12 11  1  0  0  0  0
 13 12  2  0  0  0  0
 13 14  1  0  0  0  0
 14 15  2  0  0  0  0
 15 10  1  0  0  0  0
 17 12  1  0  0  0  0
 18 14  1  0  0  0  0
 20 21  1  0  0  0  0
 20 19  1  0  0  0  0
 21 25  1  0  0  0  0
 22 21  2  0  0  0  0
 23 24  1  0  0  0  0
 23 22  1  0  0  0  0
 24 20  2  0  0  0  0
 26 22  1  0  0  0  0
 27 32  1  1  0  0  0
 27 28  1  0  0  0  0
 28 23  1  1  0  0  0
 29 28  1  0  0  0  0
 30 29  1  0  0  0  0
 31 34  1  6  0  0  0
 31 30  1  0  0  0  0
 31 27  1  0  0  0  0
 33 32  1  0  0  0  0
 35 34  1  0  0  0  0
M  END
>  <minimizedAffinity>
-6.88607454

>  <minimizedRMSD>
1.00767577

$$$$
