
     RDKit          3D

 30 32  0  0  0  0  0  0  0  0999 V2000
   38.0789   33.1973   49.3919 C   0  0  0  0  0  0  0  0  0  0  0  0
   38.9144   32.9310   48.2844 C   0  0  0  0  0  0  0  0  0  0  0  0
   38.6792   31.7756   47.5325 C   0  0  0  0  0  0  0  0  0  0  0  0
   37.6561   30.9664   47.9072 N   0  0  0  0  0  0  0  0  0  0  0  0
   36.8654   31.2501   48.9827 C   0  0  0  0  0  0  0  0  0  0  0  0
   37.0902   32.3461   49.6941 N   0  0  0  0  0  0  0  0  0  0  0  0
   35.7867   30.3290   49.3190 C   0  0  0  0  0  0  0  0  0  0  0  0
   35.8676   28.9484   49.3636 C   0  0  0  0  0  0  0  0  0  0  0  0
   34.6466   28.4395   49.7186 C   0  0  0  0  0  0  0  0  0  0  0  0
   33.8363   29.5108   49.8863 N   0  0  0  0  0  0  0  0  0  0  0  0
   34.5287   30.6337   49.6448 N   0  0  0  0  0  0  0  0  0  0  0  0
   38.1926   34.0721   50.0288 H   0  0  0  0  0  0  0  0  0  0  0  0
   39.6995   33.6536   48.0847 H   0  0  0  0  0  0  0  0  0  0  0  0
   39.3210   31.5962   46.7036 H   0  0  0  0  0  0  0  0  0  0  0  0
   36.7682   28.3786   49.1472 H   0  0  0  0  0  0  0  0  0  0  0  0
   34.4284   27.3865   49.8284 H   0  0  0  0  0  0  0  0  0  0  0  0
   30.4728   29.9504   49.0065 O   0  0  0  0  0  0  0  0  0  0  0  0
   31.5450   29.0464   49.1113 C   0  0  1  0  0  0  0  0  0  0  0  0
   32.4484   29.3554   50.2694 C   0  0  1  0  0  0  0  0  0  0  0  0
   32.2832   28.3538   51.2242 O   0  0  0  0  0  0  0  0  0  0  0  0
   32.1655   27.2061   50.4131 C   0  0  0  0  0  0  0  0  0  0  0  0
   31.0123   27.6676   49.5136 C   0  0  2  0  0  0  0  0  0  0  0  0
   30.8083   26.8396   48.4353 O   0  0  0  0  0  0  0  0  0  0  0  0
   30.5629   30.5708   49.7725 H   0  0  0  0  0  0  0  0  0  0  0  0
   32.0616   29.0089   48.1423 H   0  0  0  0  0  0  0  0  0  0  0  0
   32.0395   30.2901   50.7535 H   0  0  0  0  0  0  0  0  0  0  0  0
   31.8582   26.3107   50.9898 H   0  0  0  0  0  0  0  0  0  0  0  0
   33.0808   27.0188   49.8289 H   0  0  0  0  0  0  0  0  0  0  0  0
   30.1299   27.7625   50.1838 H   0  0  0  0  0  0  0  0  0  0  0  0
   30.0795   26.1952   48.6685 H   0  0  0  0  0  0  0  0  0  0  0  0
  1  6  2  0
  2  1  1  0
  3  4  1  0
  3  2  2  0
  4  5  2  0
  5  7  1  0
  5  6  1  0
  7  8  1  0
  7 11  2  0
  8  9  2  0
  9 10  1  0
 11 10  1  0
  1 12  1  0
  2 13  1  0
  3 14  1  0
  8 15  1  0
  9 16  1  0
 17 18  1  0
 18 19  1  0
 19 20  1  0
 20 21  1  0
 21 22  1  0
 22 23  1  0
 22 18  1  0
 17 24  1  0
 18 25  1  6
 19 26  1  1
 21 27  1  0
 21 28  1  0
 22 29  1  1
 23 30  1  0
 10 19  1  0
M  ISO  5  12  14  13  14  14  14  15  14  16  14
M  END
>  <DihAtoms>  (1) 
8,9,18,17

>  <DihDeg>  (1) 
67.63337798845933

$$$$
