
     RDKit          3D

 39 41  0  0  0  0  0  0  0  0999 V2000
   36.4658   29.8816   48.6876 N   0  0  0  0  0  0  0  0  0  0  0  0
   37.5881   30.6614   48.2339 C   0  0  0  0  0  0  0  0  0  0  0  0
   38.0982   31.2956   49.5187 C   0  0  2  0  0  0  0  0  0  0  0  0
   37.1208   30.8950   50.5921 C   0  0  0  0  0  0  0  0  0  0  0  0
   36.7485   29.5180   50.0435 C   0  0  0  0  0  0  0  0  0  0  0  0
   35.2920   29.5363   47.9338 C   0  0  0  0  0  0  0  0  0  0  0  0
   35.2351   29.9986   46.6031 C   0  0  0  0  0  0  0  0  0  0  0  0
   34.0902   29.6656   45.8717 C   0  0  0  0  0  0  0  0  0  0  0  0
   33.1218   28.9234   46.4992 N   0  0  0  0  0  0  0  0  0  0  0  0
   33.2216   28.5099   47.7605 C   0  0  0  0  0  0  0  0  0  0  0  0
   34.3075   28.8142   48.4837 N   0  0  0  0  0  0  0  0  0  0  0  0
   31.9230   27.5493   48.5238 S   0  0  0  0  0  0  0  0  0  0  0  0
   38.2653   32.7725   49.4083 C   0  0  0  0  0  0  0  0  0  0  0  0
   37.0856   33.3502   49.8856 F   0  0  0  0  0  0  0  0  0  0  0  0
   38.3149   33.0836   48.0556 F   0  0  0  0  0  0  0  0  0  0  0  0
   39.3706   33.2588   50.0429 F   0  0  0  0  0  0  0  0  0  0  0  0
   37.2113   31.4980   47.6088 H   0  0  0  0  0  0  0  0  0  0  0  0
   38.3050   29.9981   47.7442 H   0  0  0  0  0  0  0  0  0  0  0  0
   39.0779   30.8242   49.7890 H   0  0  0  0  0  0  0  0  0  0  0  0
   36.2065   31.5123   50.5282 H   0  0  0  0  0  0  0  0  0  0  0  0
   37.5717   30.8299   51.5902 H   0  0  0  0  0  0  0  0  0  0  0  0
   37.6106   28.8406   50.1333 H   0  0  0  0  0  0  0  0  0  0  0  0
   35.8583   29.1139   50.5324 H   0  0  0  0  0  0  0  0  0  0  0  0
   36.0219   30.5847   46.1410 H   0  0  0  0  0  0  0  0  0  0  0  0
   33.9742   29.9894   44.8324 H   0  0  0  0  0  0  0  0  0  0  0  0
   32.6937   24.3954   46.3011 O   0  0  0  0  0  0  0  0  0  0  0  0
   32.4968   25.7248   46.6618 C   0  0  2  0  0  0  0  0  0  0  0  0
   32.2960   25.7979   48.1838 C   0  0  2  0  0  0  0  0  0  0  0  0
   31.1149   25.0634   48.2835 O   0  0  0  0  0  0  0  0  0  0  0  0
   30.2754   25.6945   47.3884 C   0  0  0  0  0  0  0  0  0  0  0  0
   31.1108   26.2270   46.2428 C   0  0  2  0  0  0  0  0  0  0  0  0
   30.7198   25.7674   45.0079 O   0  0  0  0  0  0  0  0  0  0  0  0
   32.8192   24.2929   45.3337 H   0  0  0  0  0  0  0  0  0  0  0  0
   33.3146   26.3423   46.3051 H   0  0  0  0  0  0  0  0  0  0  0  0
   33.1349   25.4053   48.7515 H   0  0  0  0  0  0  0  0  0  0  0  0
   29.7754   26.5368   47.9490 H   0  0  0  0  0  0  0  0  0  0  0  0
   29.5347   24.9536   47.0383 H   0  0  0  0  0  0  0  0  0  0  0  0
   31.1589   27.3312   46.2404 H   0  0  0  0  0  0  0  0  0  0  0  0
   29.7296   25.8227   44.9702 H   0  0  0  0  0  0  0  0  0  0  0  0
  1  5  1  0
  2  1  1  0
  2  3  1  0
  3  4  1  0
  5  4  1  0
  6 11  1  0
  6  1  1  0
  7  6  2  0
  8  9  2  0
  8  7  1  0
  9 10  1  0
 10 11  2  0
 10 12  1  0
 13  3  1  0
 13 14  1  0
 13 16  1  0
 15 13  1  0
  2 17  1  0
  2 18  1  0
  3 19  1  1
  4 20  1  0
  4 21  1  0
  5 22  1  0
  5 23  1  0
  7 24  1  0
  8 25  1  0
 26 27  1  0
 27 28  1  0
 28 29  1  0
 29 30  1  0
 30 31  1  0
 31 32  1  0
 31 27  1  0
 26 33  1  0
 27 34  1  6
 28 35  1  1
 30 36  1  0
 30 37  1  0
 31 38  1  6
 32 39  1  0
 12 28  1  0
M  ISO  8  17  13  18  13  19  13  20  13  21  13  22  13  23  13  24  14
M  ISO  1  25  14
M  END
>  <DihAtoms>  (1) 
9,11,27,26

>  <DihDeg>  (1) 
-67.24307835345235

$$$$
