
 OpenBabel03272509183D

 33 35  0  0  1  0  0  0  0  0999 V2000
   36.4400   30.3950   47.5390 C   0  0  0  0  0  0  0  0  0  0  0  0
   35.1770   30.3870   48.1350 C   0  0  0  0  0  0  0  0  0  0  0  0
   35.1490   30.9090   49.4270 C   0  0  0  0  0  0  0  0  0  0  0  0
   36.3120   31.3880   50.0380 C   0  0  0  0  0  0  0  0  0  0  0  0
   37.5190   31.3490   49.3540 C   0  0  0  0  0  0  0  0  0  0  0  0
   37.5870   30.8440   48.0830 C   0  0  0  0  0  0  0  0  0  0  0  0
   34.1840   30.9180   49.9170 H   0  0  0  0  0  0  0  0  0  0  0  0
   36.1720   31.7690   51.0360 H   0  0  0  0  0  0  0  0  0  0  0  0
   38.3080   31.7500   49.9530 H   0  0  0  0  0  0  0  0  0  0  0  0
   33.2590   30.7040   46.6450 C   0  0  0  0  0  0  0  0  0  0  0  0
   33.9920   29.8930   47.4990 C   0  0  0  0  0  0  0  0  0  0  0  0
   33.5220   28.5910   47.7010 C   0  0  0  0  0  0  0  0  0  0  0  0
   32.3870   28.2030   47.0570 N   0  0  0  0  0  0  0  0  0  0  0  0
   31.7090   29.0290   46.2380 C   0  0  0  0  0  0  0  0  0  0  0  0
   32.1440   30.2710   46.0330 N   0  0  0  0  0  0  0  0  0  0  0  0
   33.5460   31.7260   46.4260 H   0  0  0  0  0  0  0  0  0  0  0  0
   30.8370   28.5440   45.8190 H   0  0  0  0  0  0  0  0  0  0  0  0
   34.2560   27.6610   48.6050 C   0  0  0  0  0  0  0  0  0  0  0  0
   33.5520   27.1800   49.3190 H   0  0  0  0  0  0  0  0  0  0  0  0
   34.9700   28.2610   49.1980 H   0  0  0  0  0  0  0  0  0  0  0  0
   34.8220   26.9170   48.0150 H   0  0  0  0  0  0  0  0  0  0  0  0
   36.5440   29.8800   46.2290 O   0  0  0  0  0  0  0  0  0  0  0  0
   36.5050   28.8690   46.0830 H   0  0  0  0  0  0  0  0  0  0  0  0
   38.7910   30.8150   47.4280 O   0  0  0  0  0  0  0  0  0  0  0  0
   39.8020   30.8620   45.2690 C   0  0  1  0  0  3  0  0  0  0  0  0
   39.1980   31.6710   46.4030 C   0  0  1  0  0  3  0  0  0  0  0  0
   38.0020   32.1850   45.8380 O   0  0  0  0  0  0  0  0  0  0  0  0
   38.5360   32.7620   44.6750 C   0  0  0  0  0  2  0  0  0  0  0  0
   39.2460   31.5600   44.0550 C   0  0  1  0  0  3  0  0  0  0  0  0
   41.1810   30.8600   45.2670 O   0  0  0  0  0  0  0  0  0  0  0  0
   41.5560   31.2600   46.1080 H   0  0  0  0  0  0  0  0  0  0  0  0
   40.2470   31.9630   43.1730 O   0  0  0  0  0  0  0  0  0  0  0  0
   39.9760   32.8600   42.8510 H   0  0  0  0  0  0  0  0  0  0  0  0
  1  6  2  0  0  0  0
  1  2  1  0  0  0  0
  2  3  2  0  0  0  0
  3  7  1  0  0  0  0
  3  4  1  0  0  0  0
  4  8  1  0  0  0  0
  5  9  1  0  0  0  0
  5  4  2  0  0  0  0
  6  5  1  0  0  0  0
 10 11  1  0  0  0  0
 11 12  2  0  0  0  0
 11  2  1  0  0  0  0
 12 18  1  0  0  0  0
 13 12  1  0  0  0  0
 14 13  2  0  0  0  0
 15 14  1  0  0  0  0
 15 10  2  0  0  0  0
 16 10  1  0  0  0  0
 17 14  1  0  0  0  0
 18 20  1  0  0  0  0
 18 19  1  0  0  0  0
 21 18  1  0  0  0  0
 22  1  1  0  0  0  0
 23 22  1  0  0  0  0
 24  6  1  0  0  0  0
 25 30  1  6  0  0  0
 25 26  1  0  0  0  0
 26 24  1  1  0  0  0
 27 26  1  0  0  0  0
 28 27  1  0  0  0  0
 29 32  1  6  0  0  0
 29 28  1  0  0  0  0
 29 25  1  0  0  0  0
 30 31  1  0  0  0  0
 33 32  1  0  0  0  0
M  END
>  <minimizedAffinity>
-5.84184551

>  <minimizedRMSD>
2.98817706

$$$$
