
 OpenBabel03272509453D

 19 20  0  0  1  0  0  0  0  0999 V2000
   36.2610   30.0180   49.1640 O   0  0  0  0  0  0  0  0  0  0  0  0
   38.0760   33.1640   49.3650 C   0  0  0  0  0  0  0  0  0  0  0  0
   38.9450   32.9800   48.2640 C   0  0  0  0  0  0  0  0  0  0  0  0
   38.8680   31.8030   47.5150 C   0  0  0  0  0  0  0  0  0  0  0  0
   37.9330   30.8750   47.9030 N   0  0  0  0  0  0  0  0  0  0  0  0
   37.1180   31.0780   48.9580 C   0  0  0  0  0  0  0  0  0  0  0  0
   37.1960   32.2220   49.6810 N   0  0  0  0  0  0  0  0  0  0  0  0
   38.1190   34.0680   49.9580 H   0  0  0  0  0  0  0  0  0  0  0  0
   39.6670   33.7660   48.0130 H   0  0  0  0  0  0  0  0  0  0  0  0
   39.5050   31.6340   46.6830 H   0  0  0  0  0  0  0  0  0  0  0  0
   34.1600   30.2110   47.9370 C   0  0  2  0  0  3  0  0  0  0  0  0
   34.8850   30.3540   49.2340 C   0  0  1  0  0  3  0  0  0  0  0  0
   34.3030   29.4060   50.0710 O   0  0  0  0  0  0  0  0  0  0  0  0
   34.3120   28.2600   49.2770 C   0  0  0  0  0  2  0  0  0  0  0  0
   33.6760   28.7580   47.9970 C   0  0  2  0  0  3  0  0  0  0  0  0
   34.9390   30.4560   46.8230 O   0  0  0  0  0  0  0  0  0  0  0  0
   34.4200   31.0800   46.2240 H   0  0  0  0  0  0  0  0  0  0  0  0
   34.1870   28.0450   46.9120 O   0  0  0  0  0  0  0  0  0  0  0  0
   35.0030   27.5280   47.2040 H   0  0  0  0  0  0  0  0  0  0  0  0
  2  7  1  0  0  0  0
  2  8  1  0  0  0  0
  3  2  2  0  0  0  0
  4  5  2  0  0  0  0
  4  3  1  0  0  0  0
  5  6  1  0  0  0  0
  6  1  1  0  0  0  0
  6  7  2  0  0  0  0
  9  3  1  0  0  0  0
 10  4  1  0  0  0  0
 11 16  1  6  0  0  0
 11 15  1  0  0  0  0
 11 12  1  0  0  0  0
 12  1  1  6  0  0  0
 12 13  1  0  0  0  0
 14 13  1  0  0  0  0
 15 18  1  6  0  0  0
 15 14  1  0  0  0  0
 17 16  1  0  0  0  0
 18 19  1  0  0  0  0
M  END
>  <minimizedAffinity>
-4.48382378

>  <minimizedRMSD>
3.23819542

$$$$
