
 OpenBabel03272508293D

 38 41  0  0  1  0  0  0  0  0999 V2000
   38.6830   23.8510   33.2090 C   0  0  2  0  0  0  0  0  0  0  0  0
   37.7530   24.3220   32.1030 C   0  0  2  0  0  0  0  0  0  0  0  0
   36.9160   25.2250   32.6850 O   0  0  0  0  0  0  0  0  0  0  0  0
   37.4840   25.7670   33.7940 C   0  0  0  0  0  0  0  0  0  0  0  0
   38.8690   25.1780   33.9530 C   0  0  1  0  0  0  0  0  0  0  0  0
   38.2120   23.1280   33.8860 H   0  0  0  0  0  0  0  0  0  0  0  0
   38.3450   24.8340   31.3400 H   0  0  0  0  0  0  0  0  0  0  0  0
   37.6240   26.8590   33.6080 H   0  0  0  0  0  0  0  0  0  0  0  0
   36.8640   25.6600   34.7160 H   0  0  0  0  0  0  0  0  0  0  0  0
   39.6210   25.7560   33.4050 H   0  0  0  0  0  0  0  0  0  0  0  0
   36.2850   22.2220   32.4530 C   0  0  1  0  0  0  0  0  0  0  0  0
   37.0230   23.1180   31.5960 C   0  0  1  0  0  0  0  0  0  0  0  0
   35.5380   23.1090   31.4450 C   0  0  0  0  0  0  0  0  0  0  0  0
   35.9000   22.4310   33.4680 H   0  0  0  0  0  0  0  0  0  0  0  0
   37.5650   22.6400   30.7300 H   0  0  0  0  0  0  0  0  0  0  0  0
   35.0620   22.6330   30.5780 H   0  0  0  0  0  0  0  0  0  0  0  0
   35.0520   24.0310   31.7870 H   0  0  0  0  0  0  0  0  0  0  0  0
   36.1410   20.7480   32.1170 C   0  0  0  0  0  0  0  0  0  0  0  0
   35.4830   19.9300   33.0380 C   0  0  0  0  0  0  0  0  0  0  0  0
   35.3980   18.5990   32.6950 C   0  0  0  0  0  0  0  0  0  0  0  0
   35.9340   18.1350   31.5210 N   0  0  0  0  0  0  0  0  0  0  0  0
   36.5670   18.9610   30.6520 C   0  0  0  0  0  0  0  0  0  0  0  0
   36.6710   20.2850   30.9550 N   0  0  0  0  0  0  0  0  0  0  0  0
   35.0790   20.3380   33.9460 H   0  0  0  0  0  0  0  0  0  0  0  0
   34.8940   17.9110   33.3760 H   0  0  0  0  0  0  0  0  0  0  0  0
   36.9920   18.6020   29.7240 H   0  0  0  0  0  0  0  0  0  0  0  0
   39.8870   23.3520   32.7530 O   0  0  0  0  0  0  0  0  0  0  0  0
   39.9630   23.5520   31.7920 H   0  0  0  0  0  0  0  0  0  0  0  0
   39.2610   24.9860   35.2480 O   0  0  0  0  0  0  0  0  0  0  0  0
   38.6500   23.2170   36.6730 C   0  0  2  0  0  3  0  0  0  0  0  0
   38.2590   24.5440   36.0890 C   0  0  1  0  0  3  0  0  0  0  0  0
   38.1490   25.4430   37.1360 O   0  0  0  0  0  0  0  0  0  0  0  0
   37.9660   24.7460   38.2970 C   0  0  0  0  0  2  0  0  0  0  0  0
   37.9530   23.2790   38.0170 C   0  0  2  0  0  3  0  0  0  0  0  0
   40.0220   23.0740   36.8400 O   0  0  0  0  0  0  0  0  0  0  0  0
   40.5040   23.9110   36.9590 H   0  0  0  0  0  0  0  0  0  0  0  0
   38.6190   22.5280   38.9790 O   0  0  0  0  0  0  0  0  0  0  0  0
   39.5820   22.4430   38.7760 H   0  0  0  0  0  0  0  0  0  0  0  0
  1  6  1  1  0  0  0
  1  5  1  0  0  0  0
  2  7  1  6  0  0  0
  2  3  1  0  0  0  0
  2  1  1  0  0  0  0
  3  4  1  0  0  0  0
  4  5  1  0  0  0  0
  4  9  1  0  0  0  0
  5 10  1  6  0  0  0
  5 29  1  0  0  0  0
  8  4  1  0  0  0  0
 11 14  1  1  0  0  0
 12 15  1  6  0  0  0
 12  2  1  0  0  0  0
 12 11  1  0  0  0  0
 13 12  1  0  0  0  0
 13 17  1  0  0  0  0
 13 11  1  0  0  0  0
 16 13  1  0  0  0  0
 18 11  1  0  0  0  0
 18 19  1  0  0  0  0
 19 24  1  0  0  0  0
 20 19  2  0  0  0  0
 20 25  1  0  0  0  0
 21 20  1  0  0  0  0
 22 23  1  0  0  0  0
 22 21  2  0  0  0  0
 23 18  2  0  0  0  0
 26 22  1  0  0  0  0
 27  1  1  0  0  0  0
 28 27  1  0  0  0  0
 30 35  1  1  0  0  0
 30 34  1  0  0  0  0
 31 29  1  6  0  0  0
 31 30  1  0  0  0  0
 31 32  1  0  0  0  0
 32 33  1  0  0  0  0
 34 33  1  0  0  0  0
 34 37  1  1  0  0  0
 35 36  1  0  0  0  0
 38 37  1  0  0  0  0
M  END
>  <minimizedAffinity>
-5.6009903

$$$$

 OpenBabel03272508293D

 38 41  0  0  1  0  0  0  0  0999 V2000
   37.4490   25.2100   33.0810 C   0  0  2  0  0  0  0  0  0  0  0  0
   37.9130   26.5570   32.5510 C   0  0  2  0  0  0  0  0  0  0  0  0
   38.4400   27.2130   33.6210 O   0  0  0  0  0  0  0  0  0  0  0  0
   38.8470   26.3340   34.5750 C   0  0  0  0  0  0  0  0  0  0  0  0
   38.5860   24.9320   34.0690 C   0  0  1  0  0  0  0  0  0  0  0  0
   36.5040   25.2700   33.6350 H   0  0  0  0  0  0  0  0  0  0  0  0
   38.7050   26.3910   31.8160 H   0  0  0  0  0  0  0  0  0  0  0  0
   39.9540   26.4320   34.6800 H   0  0  0  0  0  0  0  0  0  0  0  0
   38.3970   26.5180   35.5790 H   0  0  0  0  0  0  0  0  0  0  0  0
   39.4330   24.5450   33.4910 H   0  0  0  0  0  0  0  0  0  0  0  0
   36.6460   28.6790   31.7910 C   0  0  1  0  0  0  0  0  0  0  0  0
   36.7100   27.2530   31.9970 C   0  0  1  0  0  0  0  0  0  0  0  0
   36.6640   27.7290   30.5830 C   0  0  0  0  0  0  0  0  0  0  0  0
   37.4950   29.3820   31.7050 H   0  0  0  0  0  0  0  0  0  0  0  0
   35.7540   26.7580   32.3350 H   0  0  0  0  0  0  0  0  0  0  0  0
   35.7500   27.6260   29.9820 H   0  0  0  0  0  0  0  0  0  0  0  0
   37.5960   27.5680   30.0300 H   0  0  0  0  0  0  0  0  0  0  0  0
   35.3310   29.4340   31.8920 C   0  0  0  0  0  0  0  0  0  0  0  0
   35.2110   30.6300   31.1820 C   0  0  0  0  0  0  0  0  0  0  0  0
   34.0070   31.2850   31.3240 C   0  0  0  0  0  0  0  0  0  0  0  0
   33.0130   30.7730   32.1170 N   0  0  0  0  0  0  0  0  0  0  0  0
   33.1690   29.6080   32.7920 C   0  0  0  0  0  0  0  0  0  0  0  0
   34.3440   28.9300   32.6770 N   0  0  0  0  0  0  0  0  0  0  0  0
   36.0170   30.9930   30.5720 H   0  0  0  0  0  0  0  0  0  0  0  0
   33.8540   32.2250   30.7920 H   0  0  0  0  0  0  0  0  0  0  0  0
   32.3880   29.1990   33.4200 H   0  0  0  0  0  0  0  0  0  0  0  0
   37.3640   24.2280   32.1150 O   0  0  0  0  0  0  0  0  0  0  0  0
   37.7810   24.5660   31.2890 H   0  0  0  0  0  0  0  0  0  0  0  0
   38.2160   24.0380   35.0350 O   0  0  0  0  0  0  0  0  0  0  0  0
   37.8700   23.8730   37.3550 C   0  0  2  0  0  3  0  0  0  0  0  0
   38.8280   24.2310   36.2570 C   0  0  1  0  0  3  0  0  0  0  0  0
   39.9020   23.3610   36.3420 O   0  0  0  0  0  0  0  0  0  0  0  0
   39.9460   22.8380   37.6040 C   0  0  0  0  0  2  0  0  0  0  0  0
   38.8280   23.3900   38.4260 C   0  0  2  0  0  3  0  0  0  0  0  0
   36.9820   22.8650   37.0010 O   0  0  0  0  0  0  0  0  0  0  0  0
   37.3120   22.2570   36.3170 H   0  0  0  0  0  0  0  0  0  0  0  0
   38.2370   22.4460   39.2580 O   0  0  0  0  0  0  0  0  0  0  0  0
   37.5090   21.9590   38.8020 H   0  0  0  0  0  0  0  0  0  0  0  0
  1  6  1  1  0  0  0
  1  5  1  0  0  0  0
  2  7  1  6  0  0  0
  2  1  1  0  0  0  0
  2  3  1  0  0  0  0
  3  4  1  0  0  0  0
  4  8  1  0  0  0  0
  4  9  1  0  0  0  0
  5 10  1  6  0  0  0
  5  4  1  0  0  0  0
  5 29  1  0  0  0  0
 11 14  1  1  0  0  0
 11 18  1  0  0  0  0
 11 12  1  0  0  0  0
 12 15  1  1  0  0  0
 12  2  1  0  0  0  0
 13 11  1  0  0  0  0
 13 12  1  0  0  0  0
 16 13  1  0  0  0  0
 17 13  1  0  0  0  0
 18 23  1  0  0  0  0
 19 20  1  0  0  0  0
 19 18  2  0  0  0  0
 20 21  2  0  0  0  0
 21 22  1  0  0  0  0
 22 26  1  0  0  0  0
 23 22  2  0  0  0  0
 24 19  1  0  0  0  0
 25 20  1  0  0  0  0
 27  1  1  0  0  0  0
 28 27  1  0  0  0  0
 30 35  1  6  0  0  0
 30 34  1  0  0  0  0
 31 29  1  6  0  0  0
 31 32  1  0  0  0  0
 31 30  1  0  0  0  0
 32 33  1  0  0  0  0
 33 34  1  0  0  0  0
 34 37  1  6  0  0  0
 36 35  1  0  0  0  0
 38 37  1  0  0  0  0
M  END
>  <minimizedAffinity>
-5.56645012

$$$$

 OpenBabel03272508293D

 38 41  0  0  1  0  0  0  0  0999 V2000
   37.7230   24.1480   33.2040 C   0  0  2  0  0  0  0  0  0  0  0  0
   38.0600   25.4210   32.4460 C   0  0  2  0  0  0  0  0  0  0  0  0
   39.1480   25.9470   33.0740 O   0  0  0  0  0  0  0  0  0  0  0  0
   39.8370   24.9830   33.7380 C   0  0  0  0  0  0  0  0  0  0  0  0
   39.1440   23.6580   33.5030 C   0  0  1  0  0  0  0  0  0  0  0  0
   37.2070   24.3380   34.1520 H   0  0  0  0  0  0  0  0  0  0  0  0
   38.3400   25.1570   31.4220 H   0  0  0  0  0  0  0  0  0  0  0  0
   40.8470   24.8990   33.2700 H   0  0  0  0  0  0  0  0  0  0  0  0
   39.9870   25.2010   34.8220 H   0  0  0  0  0  0  0  0  0  0  0  0
   39.5150   23.1620   32.5980 H   0  0  0  0  0  0  0  0  0  0  0  0
   36.8120   27.6240   31.9250 C   0  0  1  0  0  0  0  0  0  0  0  0
   36.8660   26.3180   32.5340 C   0  0  1  0  0  0  0  0  0  0  0  0
   35.9290   26.4880   31.3850 C   0  0  0  0  0  0  0  0  0  0  0  0
   37.4430   28.0070   31.1030 H   0  0  0  0  0  0  0  0  0  0  0  0
   36.3430   26.2130   33.5280 H   0  0  0  0  0  0  0  0  0  0  0  0
   34.8440   26.5440   31.5450 H   0  0  0  0  0  0  0  0  0  0  0  0
   36.2310   25.9450   30.4820 H   0  0  0  0  0  0  0  0  0  0  0  0
   35.9790   28.7420   32.5280 C   0  0  0  0  0  0  0  0  0  0  0  0
   35.9050   28.8210   33.9200 C   0  0  0  0  0  0  0  0  0  0  0  0
   35.1210   29.8390   34.4160 C   0  0  0  0  0  0  0  0  0  0  0  0
   34.4670   30.7030   33.5740 N   0  0  0  0  0  0  0  0  0  0  0  0
   34.5640   30.5930   32.2260 C   0  0  0  0  0  0  0  0  0  0  0  0
   35.3300   29.5990   31.6970 N   0  0  0  0  0  0  0  0  0  0  0  0
   36.4350   28.1220   34.5410 H   0  0  0  0  0  0  0  0  0  0  0  0
   35.0250   29.9520   35.4970 H   0  0  0  0  0  0  0  0  0  0  0  0
   34.0500   31.2700   31.5570 H   0  0  0  0  0  0  0  0  0  0  0  0
   37.0140   23.2250   32.4610 O   0  0  0  0  0  0  0  0  0  0  0  0
   37.0070   23.5210   31.5220 H   0  0  0  0  0  0  0  0  0  0  0  0
   39.1760   22.8010   34.5670 O   0  0  0  0  0  0  0  0  0  0  0  0
   38.4380   23.3020   36.7430 C   0  0  2  0  0  3  0  0  0  0  0  0
   39.5670   23.3820   35.7560 C   0  0  1  0  0  3  0  0  0  0  0  0
   40.6200   22.6440   36.2700 O   0  0  0  0  0  0  0  0  0  0  0  0
   40.4530   22.5180   37.6200 C   0  0  0  0  0  2  0  0  0  0  0  0
   39.2030   23.2160   38.0480 C   0  0  2  0  0  3  0  0  0  0  0  0
   37.6360   22.1810   36.5700 O   0  0  0  0  0  0  0  0  0  0  0  0
   38.0870   21.4220   36.1610 H   0  0  0  0  0  0  0  0  0  0  0  0
   38.4890   22.5210   39.0200 O   0  0  0  0  0  0  0  0  0  0  0  0
   37.8570   21.8770   38.6190 H   0  0  0  0  0  0  0  0  0  0  0  0
  1  5  1  0  0  0  0
  1  6  1  1  0  0  0
  2  7  1  6  0  0  0
  2 12  1  0  0  0  0
  2  3  1  0  0  0  0
  2  1  1  0  0  0  0
  3  4  1  0  0  0  0
  4  9  1  0  0  0  0
  5 10  1  6  0  0  0
  5  4  1  0  0  0  0
  5 29  1  0  0  0  0
  8  4  1  0  0  0  0
 11 14  1  6  0  0  0
 11 18  1  0  0  0  0
 11 12  1  0  0  0  0
 12 15  1  1  0  0  0
 13 16  1  0  0  0  0
 13 11  1  0  0  0  0
 13 12  1  0  0  0  0
 17 13  1  0  0  0  0
 18 19  1  0  0  0  0
 19 20  2  0  0  0  0
 19 24  1  0  0  0  0
 20 25  1  0  0  0  0
 21 20  1  0  0  0  0
 22 21  2  0  0  0  0
 23 22  1  0  0  0  0
 23 18  2  0  0  0  0
 26 22  1  0  0  0  0
 27  1  1  0  0  0  0
 28 27  1  0  0  0  0
 30 35  1  6  0  0  0
 30 34  1  0  0  0  0
 31 29  1  6  0  0  0
 31 32  1  0  0  0  0
 31 30  1  0  0  0  0
 32 33  1  0  0  0  0
 33 34  1  0  0  0  0
 34 37  1  1  0  0  0
 36 35  1  0  0  0  0
 38 37  1  0  0  0  0
M  END
>  <minimizedAffinity>
-5.45117092

$$$$

 OpenBabel03272508293D

 38 41  0  0  1  0  0  0  0  0999 V2000
   39.1380   23.9730   34.4950 C   0  0  2  0  0  0  0  0  0  0  0  0
   39.1040   24.9430   35.6650 C   0  0  2  0  0  0  0  0  0  0  0  0
   38.1530   24.4650   36.5130 O   0  0  0  0  0  0  0  0  0  0  0  0
   37.9690   23.1300   36.3330 C   0  0  0  0  0  0  0  0  0  0  0  0
   38.9280   22.6620   35.2600 C   0  0  1  0  0  0  0  0  0  0  0  0
   38.3030   24.1140   33.7980 H   0  0  0  0  0  0  0  0  0  0  0  0
   40.0730   24.9150   36.1720 H   0  0  0  0  0  0  0  0  0  0  0  0
   38.2710   22.6130   37.2750 H   0  0  0  0  0  0  0  0  0  0  0  0
   36.9120   22.8460   36.1170 H   0  0  0  0  0  0  0  0  0  0  0  0
   39.8970   22.3710   35.6810 H   0  0  0  0  0  0  0  0  0  0  0  0
   37.3890   26.7500   34.9760 C   0  0  1  0  0  0  0  0  0  0  0  0
   38.7480   26.2870   35.1140 C   0  0  1  0  0  0  0  0  0  0  0  0
   38.3230   27.4090   36.0030 C   0  0  0  0  0  0  0  0  0  0  0  0
   36.4940   26.3680   35.5000 H   0  0  0  0  0  0  0  0  0  0  0  0
   39.4640   26.6050   34.3030 H   0  0  0  0  0  0  0  0  0  0  0  0
   38.6650   28.4360   35.8190 H   0  0  0  0  0  0  0  0  0  0  0  0
   38.2490   27.1330   37.0610 H   0  0  0  0  0  0  0  0  0  0  0  0
   36.9930   27.7200   33.8750 C   0  0  0  0  0  0  0  0  0  0  0  0
   36.0020   28.6610   34.1610 C   0  0  0  0  0  0  0  0  0  0  0  0
   35.6650   29.5020   33.1240 C   0  0  0  0  0  0  0  0  0  0  0  0
   36.2790   29.3980   31.9020 N   0  0  0  0  0  0  0  0  0  0  0  0
   37.2370   28.4690   31.6620 C   0  0  0  0  0  0  0  0  0  0  0  0
   37.5980   27.6190   32.6630 N   0  0  0  0  0  0  0  0  0  0  0  0
   35.5480   28.7050   35.1340 H   0  0  0  0  0  0  0  0  0  0  0  0
   34.8970   30.2590   33.2870 H   0  0  0  0  0  0  0  0  0  0  0  0
   37.7250   28.3820   30.7000 H   0  0  0  0  0  0  0  0  0  0  0  0
   40.3320   23.9710   33.8030 O   0  0  0  0  0  0  0  0  0  0  0  0
   40.9890   24.4970   34.3150 H   0  0  0  0  0  0  0  0  0  0  0  0
   38.4400   21.6720   34.4520 O   0  0  0  0  0  0  0  0  0  0  0  0
   37.4880   21.8190   32.3060 C   0  0  2  0  0  3  0  0  0  0  0  0
   37.2800   22.0030   33.7820 C   0  0  1  0  0  3  0  0  0  0  0  0
   36.2890   21.1180   34.1750 O   0  0  0  0  0  0  0  0  0  0  0  0
   35.5570   20.7610   33.0780 C   0  0  0  0  0  2  0  0  0  0  0  0
   36.0870   21.4490   31.8630 C   0  0  2  0  0  3  0  0  0  0  0  0
   38.3830   20.8010   32.0020 O   0  0  0  0  0  0  0  0  0  0  0  0
   38.4430   20.1010   32.6750 H   0  0  0  0  0  0  0  0  0  0  0  0
   36.1020   20.6380   30.7330 O   0  0  0  0  0  0  0  0  0  0  0  0
   36.9390   20.1180   30.6650 H   0  0  0  0  0  0  0  0  0  0  0  0
  1  6  1  6  0  0  0
  1  5  1  0  0  0  0
  1  2  1  0  0  0  0
  2  7  1  1  0  0  0
  2  3  1  0  0  0  0
  4  3  1  0  0  0  0
  4  8  1  0  0  0  0
  5 10  1  1  0  0  0
  5  4  1  0  0  0  0
  9  4  1  0  0  0  0
 11 12  1  0  0  0  0
 11 14  1  1  0  0  0
 11 13  1  0  0  0  0
 12 15  1  6  0  0  0
 12  2  1  0  0  0  0
 12 13  1  0  0  0  0
 13 17  1  0  0  0  0
 16 13  1  0  0  0  0
 18 19  1  0  0  0  0
 18 11  1  0  0  0  0
 19 24  1  0  0  0  0
 20 25  1  0  0  0  0
 20 19  2  0  0  0  0
 21 20  1  0  0  0  0
 22 21  2  0  0  0  0
 22 23  1  0  0  0  0
 23 18  2  0  0  0  0
 26 22  1  0  0  0  0
 27 28  1  0  0  0  0
 27  1  1  0  0  0  0
 29  5  1  0  0  0  0
 30 35  1  1  0  0  0
 30 31  1  0  0  0  0
 31 32  1  0  0  0  0
 31 29  1  1  0  0  0
 33 32  1  0  0  0  0
 34 37  1  6  0  0  0
 34 30  1  0  0  0  0
 34 33  1  0  0  0  0
 35 36  1  0  0  0  0
 38 37  1  0  0  0  0
M  END
>  <minimizedAffinity>
-5.16495514

$$$$

 OpenBabel03272508293D

 38 41  0  0  1  0  0  0  0  0999 V2000
   34.1290   30.2310   34.5460 C   0  0  2  0  0  0  0  0  0  0  0  0
   34.9130   30.3930   33.2540 C   0  0  2  0  0  0  0  0  0  0  0  0
   34.0650   30.0170   32.2580 O   0  0  0  0  0  0  0  0  0  0  0  0
   32.7700   30.1480   32.6490 C   0  0  0  0  0  0  0  0  0  0  0  0
   32.7550   30.7010   34.0580 C   0  0  1  0  0  0  0  0  0  0  0  0
   34.0520   29.1870   34.8710 H   0  0  0  0  0  0  0  0  0  0  0  0
   35.1600   31.4510   33.1230 H   0  0  0  0  0  0  0  0  0  0  0  0
   32.2920   30.9210   32.0010 H   0  0  0  0  0  0  0  0  0  0  0  0
   32.1720   29.2110   32.5500 H   0  0  0  0  0  0  0  0  0  0  0  0
   32.7640   31.7970   34.0630 H   0  0  0  0  0  0  0  0  0  0  0  0
   36.0170   28.0620   33.4310 C   0  0  1  0  0  0  0  0  0  0  0  0
   36.1090   29.5000   33.3470 C   0  0  1  0  0  0  0  0  0  0  0  0
   36.5980   28.7220   32.1700 C   0  0  0  0  0  0  0  0  0  0  0  0
   35.1610   27.4270   33.1400 H   0  0  0  0  0  0  0  0  0  0  0  0
   36.9380   29.9780   33.9440 H   0  0  0  0  0  0  0  0  0  0  0  0
   37.6720   28.6170   31.9700 H   0  0  0  0  0  0  0  0  0  0  0  0
   35.9740   28.8310   31.2760 H   0  0  0  0  0  0  0  0  0  0  0  0
   37.0640   27.2460   34.1700 C   0  0  0  0  0  0  0  0  0  0  0  0
   37.6910   27.8340   35.2700 C   0  0  0  0  0  0  0  0  0  0  0  0
   38.6470   27.0610   35.8910 C   0  0  0  0  0  0  0  0  0  0  0  0
   38.9430   25.8020   35.4370 N   0  0  0  0  0  0  0  0  0  0  0  0
   38.3120   25.2650   34.3630 C   0  0  0  0  0  0  0  0  0  0  0  0
   37.3600   25.9990   33.7220 N   0  0  0  0  0  0  0  0  0  0  0  0
   37.4270   28.8250   35.5910 H   0  0  0  0  0  0  0  0  0  0  0  0
   39.1710   27.4670   36.7580 H   0  0  0  0  0  0  0  0  0  0  0  0
   38.5410   24.2720   34.0000 H   0  0  0  0  0  0  0  0  0  0  0  0
   34.5940   31.0130   35.5850 O   0  0  0  0  0  0  0  0  0  0  0  0
   35.2550   31.6470   35.2240 H   0  0  0  0  0  0  0  0  0  0  0  0
   31.7430   30.2270   34.8460 O   0  0  0  0  0  0  0  0  0  0  0  0
   31.6880   28.8120   36.7240 C   0  0  2  0  0  3  0  0  0  0  0  0
   31.8960   28.9130   35.2410 C   0  0  1  0  0  3  0  0  0  0  0  0
   30.9040   28.1630   34.6310 O   0  0  0  0  0  0  0  0  0  0  0  0
   30.4160   27.2610   35.5330 C   0  0  0  0  0  2  0  0  0  0  0  0
   31.1230   27.4110   36.8410 C   0  0  2  0  0  3  0  0  0  0  0  0
   30.7860   29.7470   37.2160 O   0  0  0  0  0  0  0  0  0  0  0  0
   30.1240   30.0480   36.5700 H   0  0  0  0  0  0  0  0  0  0  0  0
   30.2820   27.2840   37.9410 O   0  0  0  0  0  0  0  0  0  0  0  0
   29.8740   28.1470   38.1910 H   0  0  0  0  0  0  0  0  0  0  0  0
  1  6  1  1  0  0  0
  1 27  1  0  0  0  0
  2  7  1  6  0  0  0
  2 12  1  0  0  0  0
  2  1  1  0  0  0  0
  3  4  1  0  0  0  0
  3  2  1  0  0  0  0
  4  5  1  0  0  0  0
  5 10  1  6  0  0  0
  5  1  1  0  0  0  0
  5 29  1  0  0  0  0
  8  4  1  0  0  0  0
  9  4  1  0  0  0  0
 11 14  1  6  0  0  0
 11 18  1  0  0  0  0
 12 11  1  0  0  0  0
 12 15  1  1  0  0  0
 13 12  1  0  0  0  0
 13 11  1  0  0  0  0
 16 13  1  0  0  0  0
 17 13  1  0  0  0  0
 18 19  1  0  0  0  0
 19 24  1  0  0  0  0
 19 20  2  0  0  0  0
 20 25  1  0  0  0  0
 21 20  1  0  0  0  0
 22 21  2  0  0  0  0
 23 18  2  0  0  0  0
 23 22  1  0  0  0  0
 26 22  1  0  0  0  0
 28 27  1  0  0  0  0
 30 34  1  0  0  0  0
 30 35  1  6  0  0  0
 31 29  1  6  0  0  0
 31 30  1  0  0  0  0
 32 31  1  0  0  0  0
 32 33  1  0  0  0  0
 33 34  1  0  0  0  0
 34 37  1  1  0  0  0
 36 35  1  0  0  0  0
 37 38  1  0  0  0  0
M  END
>  <minimizedAffinity>
-5.12171268

$$$$

 OpenBabel03272508293D

 38 41  0  0  1  0  0  0  0  0999 V2000
   35.9330   25.2080   31.4450 C   0  0  2  0  0  0  0  0  0  0  0  0
   36.9460   26.3280   31.2680 C   0  0  2  0  0  0  0  0  0  0  0  0
   37.9470   26.0630   32.1520 O   0  0  0  0  0  0  0  0  0  0  0  0
   37.9830   24.7400   32.4600 C   0  0  0  0  0  0  0  0  0  0  0  0
   36.8980   24.0400   31.6710 C   0  0  1  0  0  0  0  0  0  0  0  0
   35.3110   25.3320   32.3400 H   0  0  0  0  0  0  0  0  0  0  0  0
   37.3510   26.2770   30.2530 H   0  0  0  0  0  0  0  0  0  0  0  0
   38.9550   24.3290   32.0960 H   0  0  0  0  0  0  0  0  0  0  0  0
   37.9190   24.5310   33.5550 H   0  0  0  0  0  0  0  0  0  0  0  0
   37.2570   23.7190   30.6860 H   0  0  0  0  0  0  0  0  0  0  0  0
   36.4240   28.3340   32.8120 C   0  0  1  0  0  0  0  0  0  0  0  0
   36.2440   27.6120   31.5760 C   0  0  1  0  0  0  0  0  0  0  0  0
   36.9470   28.9270   31.4940 C   0  0  0  0  0  0  0  0  0  0  0  0
   37.2650   28.2470   33.5230 H   0  0  0  0  0  0  0  0  0  0  0  0
   35.2050   27.6310   31.1380 H   0  0  0  0  0  0  0  0  0  0  0  0
   36.4440   29.8100   31.0790 H   0  0  0  0  0  0  0  0  0  0  0  0
   38.0110   28.8460   31.2450 H   0  0  0  0  0  0  0  0  0  0  0  0
   35.3070   29.1790   33.4020 C   0  0  0  0  0  0  0  0  0  0  0  0
   35.6020   29.9560   34.5240 C   0  0  0  0  0  0  0  0  0  0  0  0
   34.5500   30.6870   35.0330 C   0  0  0  0  0  0  0  0  0  0  0  0
   33.3080   30.6340   34.4550 N   0  0  0  0  0  0  0  0  0  0  0  0
   33.0610   29.8650   33.3650 C   0  0  0  0  0  0  0  0  0  0  0  0
   34.0750   29.1290   32.8330 N   0  0  0  0  0  0  0  0  0  0  0  0
   36.5910   29.9670   34.9430 H   0  0  0  0  0  0  0  0  0  0  0  0
   34.7200   31.3140   35.9090 H   0  0  0  0  0  0  0  0  0  0  0  0
   32.0830   29.8190   32.9050 H   0  0  0  0  0  0  0  0  0  0  0  0
   35.1310   24.9990   30.3420 O   0  0  0  0  0  0  0  0  0  0  0  0
   35.4910   25.5240   29.5910 H   0  0  0  0  0  0  0  0  0  0  0  0
   36.2980   23.0000   32.3250 O   0  0  0  0  0  0  0  0  0  0  0  0
   35.9800   20.6810   32.5540 C   0  0  2  0  0  3  0  0  0  0  0  0
   36.9200   21.7800   32.1510 C   0  0  1  0  0  3  0  0  0  0  0  0
   37.1870   21.6240   30.8010 O   0  0  0  0  0  0  0  0  0  0  0  0
   36.9160   20.3330   30.4450 C   0  0  0  0  0  2  0  0  0  0  0  0
   36.4300   19.5660   31.6320 C   0  0  2  0  0  3  0  0  0  0  0  0
   34.6440   20.9920   32.3310 O   0  0  0  0  0  0  0  0  0  0  0  0
   34.4930   21.6330   31.6150 H   0  0  0  0  0  0  0  0  0  0  0  0
   35.3910   18.6910   31.3350 O   0  0  0  0  0  0  0  0  0  0  0  0
   34.5100   19.1320   31.4020 H   0  0  0  0  0  0  0  0  0  0  0  0
  1  5  1  0  0  0  0
  1  6  1  1  0  0  0
  2  7  1  6  0  0  0
  2  1  1  0  0  0  0
  2 12  1  0  0  0  0
  2  3  1  0  0  0  0
  3  4  1  0  0  0  0
  4  9  1  0  0  0  0
  5 10  1  6  0  0  0
  5 29  1  0  0  0  0
  5  4  1  0  0  0  0
  8  4  1  0  0  0  0
 11 18  1  0  0  0  0
 11 14  1  1  0  0  0
 12 15  1  6  0  0  0
 12 11  1  0  0  0  0
 13 12  1  0  0  0  0
 13 11  1  0  0  0  0
 16 13  1  0  0  0  0
 17 13  1  0  0  0  0
 18 19  1  0  0  0  0
 19 24  1  0  0  0  0
 19 20  2  0  0  0  0
 20 25  1  0  0  0  0
 21 20  1  0  0  0  0
 22 21  2  0  0  0  0
 23 22  1  0  0  0  0
 23 18  2  0  0  0  0
 26 22  1  0  0  0  0
 27  1  1  0  0  0  0
 28 27  1  0  0  0  0
 30 35  1  6  0  0  0
 31 29  1  6  0  0  0
 31 30  1  0  0  0  0
 32 31  1  0  0  0  0
 33 32  1  0  0  0  0
 33 34  1  0  0  0  0
 34 37  1  6  0  0  0
 34 30  1  0  0  0  0
 36 35  1  0  0  0  0
 37 38  1  0  0  0  0
M  END
>  <minimizedAffinity>
-5.02198362

$$$$

 OpenBabel03272508293D

 38 41  0  0  1  0  0  0  0  0999 V2000
   39.3940   26.6370   33.2220 C   0  0  2  0  0  0  0  0  0  0  0  0
   40.7570   27.0980   33.7130 C   0  0  2  0  0  0  0  0  0  0  0  0
   41.5720   27.0640   32.6230 O   0  0  0  0  0  0  0  0  0  0  0  0
   40.8510   27.1650   31.4750 C   0  0  0  0  0  0  0  0  0  0  0  0
   39.3910   27.3090   31.8450 C   0  0  1  0  0  0  0  0  0  0  0  0
   39.3320   25.5510   33.0860 H   0  0  0  0  0  0  0  0  0  0  0  0
   40.6750   28.1320   34.0580 H   0  0  0  0  0  0  0  0  0  0  0  0
   41.1450   28.1150   30.9690 H   0  0  0  0  0  0  0  0  0  0  0  0
   41.0300   26.3300   30.7560 H   0  0  0  0  0  0  0  0  0  0  0  0
   39.1130   28.3590   31.9960 H   0  0  0  0  0  0  0  0  0  0  0  0
   41.4390   24.7390   34.5240 C   0  0  1  0  0  0  0  0  0  0  0  0
   41.1910   26.1380   34.7750 C   0  0  1  0  0  0  0  0  0  0  0  0
   42.6060   25.6740   34.8790 C   0  0  0  0  0  0  0  0  0  0  0  0
   41.6480   24.2600   33.5510 H   0  0  0  0  0  0  0  0  0  0  0  0
   40.7270   26.3880   35.7730 H   0  0  0  0  0  0  0  0  0  0  0  0
   43.0930   25.5590   35.8560 H   0  0  0  0  0  0  0  0  0  0  0  0
   43.2580   26.0570   34.0850 H   0  0  0  0  0  0  0  0  0  0  0  0
   41.2120   23.6920   35.6010 C   0  0  0  0  0  0  0  0  0  0  0  0
   39.9530   23.6370   36.2020 C   0  0  0  0  0  0  0  0  0  0  0  0
   39.8060   22.6850   37.1860 C   0  0  0  0  0  0  0  0  0  0  0  0
   40.8450   21.8600   37.5320 N   0  0  0  0  0  0  0  0  0  0  0  0
   42.0550   21.9450   36.9260 C   0  0  0  0  0  0  0  0  0  0  0  0
   42.2400   22.8740   35.9470 N   0  0  0  0  0  0  0  0  0  0  0  0
   39.1680   24.3040   35.8980 H   0  0  0  0  0  0  0  0  0  0  0  0
   38.8440   22.5930   37.6910 H   0  0  0  0  0  0  0  0  0  0  0  0
   42.8790   21.2970   37.1940 H   0  0  0  0  0  0  0  0  0  0  0  0
   38.3410   27.0720   34.0020 O   0  0  0  0  0  0  0  0  0  0  0  0
   38.6830   27.7380   34.6420 H   0  0  0  0  0  0  0  0  0  0  0  0
   38.5210   26.7020   30.9820 O   0  0  0  0  0  0  0  0  0  0  0  0
   36.1920   26.4670   31.2070 C   0  0  2  0  0  3  0  0  0  0  0  0
   37.5450   25.9440   31.5960 C   0  0  1  0  0  3  0  0  0  0  0  0
   37.6420   24.6480   31.1170 O   0  0  0  0  0  0  0  0  0  0  0  0
   36.3840   24.1610   30.9030 C   0  0  0  0  0  2  0  0  0  0  0  0
   35.3670   25.1960   31.2590 C   0  0  2  0  0  3  0  0  0  0  0  0
   36.1630   27.0170   29.9310 O   0  0  0  0  0  0  0  0  0  0  0  0
   36.8290   26.6570   29.3200 H   0  0  0  0  0  0  0  0  0  0  0  0
   34.2940   25.2410   30.3760 O   0  0  0  0  0  0  0  0  0  0  0  0
   34.4720   25.8420   29.6130 H   0  0  0  0  0  0  0  0  0  0  0  0
  1  6  1  6  0  0  0
  1  2  1  0  0  0  0
  1 27  1  0  0  0  0
  2  7  1  1  0  0  0
  2 12  1  0  0  0  0
  3  2  1  0  0  0  0
  4  5  1  0  0  0  0
  4  3  1  0  0  0  0
  5 10  1  1  0  0  0
  5  1  1  0  0  0  0
  8  4  1  0  0  0  0
  9  4  1  0  0  0  0
 11 14  1  6  0  0  0
 11 12  1  0  0  0  0
 11 13  1  0  0  0  0
 11 18  1  0  0  0  0
 12 13  1  0  0  0  0
 12 15  1  1  0  0  0
 13 16  1  0  0  0  0
 17 13  1  0  0  0  0
 18 23  2  0  0  0  0
 18 19  1  0  0  0  0
 19 20  2  0  0  0  0
 20 21  1  0  0  0  0
 20 25  1  0  0  0  0
 22 26  1  0  0  0  0
 22 21  2  0  0  0  0
 23 22  1  0  0  0  0
 24 19  1  0  0  0  0
 27 28  1  0  0  0  0
 29  5  1  0  0  0  0
 30 35  1  6  0  0  0
 30 34  1  0  0  0  0
 30 31  1  0  0  0  0
 31 29  1  6  0  0  0
 32 31  1  0  0  0  0
 33 32  1  0  0  0  0
 33 34  1  0  0  0  0
 34 37  1  6  0  0  0
 36 35  1  0  0  0  0
 38 37  1  0  0  0  0
M  END
>  <minimizedAffinity>
-5.02179575

$$$$

 OpenBabel03272508293D

 38 41  0  0  1  0  0  0  0  0999 V2000
   34.8450   29.3330   33.2180 C   0  0  2  0  0  0  0  0  0  0  0  0
   35.9900   29.5820   32.2500 C   0  0  2  0  0  0  0  0  0  0  0  0
   35.4380   30.2240   31.1840 O   0  0  0  0  0  0  0  0  0  0  0  0
   34.2930   30.8620   31.5420 C   0  0  0  0  0  0  0  0  0  0  0  0
   34.0710   30.6410   33.0230 C   0  0  1  0  0  0  0  0  0  0  0  0
   34.2050   28.4940   32.9180 H   0  0  0  0  0  0  0  0  0  0  0  0
   36.7130   30.2500   32.7260 H   0  0  0  0  0  0  0  0  0  0  0  0
   34.4540   31.9580   31.4070 H   0  0  0  0  0  0  0  0  0  0  0  0
   33.4060   30.5740   30.9290 H   0  0  0  0  0  0  0  0  0  0  0  0
   34.5710   31.4080   33.6260 H   0  0  0  0  0  0  0  0  0  0  0  0
   35.7350   27.1310   31.4670 C   0  0  1  0  0  0  0  0  0  0  0  0
   36.5530   28.2470   31.8770 C   0  0  1  0  0  0  0  0  0  0  0  0
   36.6650   27.8150   30.4520 C   0  0  0  0  0  0  0  0  0  0  0  0
   34.7000   27.1640   31.0830 H   0  0  0  0  0  0  0  0  0  0  0  0
   37.4620   27.9940   32.4950 H   0  0  0  0  0  0  0  0  0  0  0  0
   37.5470   27.2680   30.0960 H   0  0  0  0  0  0  0  0  0  0  0  0
   36.2530   28.5360   29.7370 H   0  0  0  0  0  0  0  0  0  0  0  0
   36.1610   25.6980   31.7400 C   0  0  0  0  0  0  0  0  0  0  0  0
   35.4650   24.6770   31.0910 C   0  0  0  0  0  0  0  0  0  0  0  0
   35.8760   23.3960   31.3890 C   0  0  0  0  0  0  0  0  0  0  0  0
   36.9030   23.1700   32.2690 N   0  0  0  0  0  0  0  0  0  0  0  0
   37.5550   24.1900   32.8810 C   0  0  0  0  0  0  0  0  0  0  0  0
   37.1770   25.4700   32.6120 N   0  0  0  0  0  0  0  0  0  0  0  0
   34.6660   24.9010   30.4090 H   0  0  0  0  0  0  0  0  0  0  0  0
   35.3700   22.5560   30.9110 H   0  0  0  0  0  0  0  0  0  0  0  0
   38.3650   24.0180   33.5760 H   0  0  0  0  0  0  0  0  0  0  0  0
   35.2460   29.1700   34.5290 O   0  0  0  0  0  0  0  0  0  0  0  0
   36.1980   29.4100   34.5950 H   0  0  0  0  0  0  0  0  0  0  0  0
   32.7610   30.5190   33.3910 O   0  0  0  0  0  0  0  0  0  0  0  0
   31.7270   30.3840   35.5000 C   0  0  2  0  0  3  0  0  0  0  0  0
   32.4050   31.2690   34.4940 C   0  0  1  0  0  3  0  0  0  0  0  0
   33.5650   31.7490   35.0790 O   0  0  0  0  0  0  0  0  0  0  0  0
   33.4470   31.6530   36.4360 C   0  0  0  0  0  2  0  0  0  0  0  0
   32.1200   31.0680   36.7940 C   0  0  2  0  0  3  0  0  0  0  0  0
   32.1900   29.0740   35.4780 O   0  0  0  0  0  0  0  0  0  0  0  0
   33.1040   28.9740   35.1590 H   0  0  0  0  0  0  0  0  0  0  0  0
   32.1810   30.1700   37.8540 O   0  0  0  0  0  0  0  0  0  0  0  0
   32.3760   29.2520   37.5460 H   0  0  0  0  0  0  0  0  0  0  0  0
  1  6  1  6  0  0  0
  1 27  1  0  0  0  0
  2  7  1  1  0  0  0
  2  1  1  0  0  0  0
  3  4  1  0  0  0  0
  3  2  1  0  0  0  0
  4  5  1  0  0  0  0
  5  1  1  0  0  0  0
  5 29  1  0  0  0  0
  5 10  1  1  0  0  0
  8  4  1  0  0  0  0
  9  4  1  0  0  0  0
 11 14  1  6  0  0  0
 11 18  1  0  0  0  0
 11 12  1  0  0  0  0
 12  2  1  0  0  0  0
 12 15  1  1  0  0  0
 13 11  1  0  0  0  0
 13 12  1  0  0  0  0
 16 13  1  0  0  0  0
 17 13  1  0  0  0  0
 18 23  1  0  0  0  0
 19 20  1  0  0  0  0
 19 18  2  0  0  0  0
 20 21  2  0  0  0  0
 21 22  1  0  0  0  0
 22 26  1  0  0  0  0
 23 22  2  0  0  0  0
 24 19  1  0  0  0  0
 25 20  1  0  0  0  0
 27 28  1  0  0  0  0
 30 35  1  1  0  0  0
 30 34  1  0  0  0  0
 31 29  1  6  0  0  0
 31 32  1  0  0  0  0
 31 30  1  0  0  0  0
 32 33  1  0  0  0  0
 33 34  1  0  0  0  0
 34 37  1  1  0  0  0
 36 35  1  0  0  0  0
 38 37  1  0  0  0  0
M  END
>  <minimizedAffinity>
-4.97114086

$$$$

 OpenBabel03272508293D

 38 41  0  0  1  0  0  0  0  0999 V2000
   37.7100   26.9640   33.5710 C   0  0  2  0  0  0  0  0  0  0  0  0
   36.9260   27.0090   32.2700 C   0  0  2  0  0  0  0  0  0  0  0  0
   37.1940   25.8330   31.6370 O   0  0  0  0  0  0  0  0  0  0  0  0
   37.5740   24.8790   32.5280 C   0  0  0  0  0  0  0  0  0  0  0  0
   37.5270   25.4820   33.9150 C   0  0  1  0  0  0  0  0  0  0  0  0
   38.7790   27.1670   33.4340 H   0  0  0  0  0  0  0  0  0  0  0  0
   35.8590   27.0460   32.5040 H   0  0  0  0  0  0  0  0  0  0  0  0
   36.8070   24.0680   32.5090 H   0  0  0  0  0  0  0  0  0  0  0  0
   38.5620   24.4140   32.2960 H   0  0  0  0  0  0  0  0  0  0  0  0
   36.5360   25.3730   34.3710 H   0  0  0  0  0  0  0  0  0  0  0  0
   37.1740   28.3720   30.0870 C   0  0  1  0  0  0  0  0  0  0  0  0
   37.4180   28.1920   31.4980 C   0  0  1  0  0  0  0  0  0  0  0  0
   36.5040   29.3060   31.1080 C   0  0  0  0  0  0  0  0  0  0  0  0
   36.3910   27.8900   29.4750 H   0  0  0  0  0  0  0  0  0  0  0  0
   38.4200   28.5460   31.8760 H   0  0  0  0  0  0  0  0  0  0  0  0
   36.8350   30.3520   31.1600 H   0  0  0  0  0  0  0  0  0  0  0  0
   35.4580   29.1420   31.3910 H   0  0  0  0  0  0  0  0  0  0  0  0
   38.1590   29.1210   29.2050 C   0  0  0  0  0  0  0  0  0  0  0  0
   39.5200   28.9920   29.4930 C   0  0  0  0  0  0  0  0  0  0  0  0
   40.3690   29.7070   28.6780 C   0  0  0  0  0  0  0  0  0  0  0  0
   39.8830   30.4860   27.6600 N   0  0  0  0  0  0  0  0  0  0  0  0
   38.5530   30.5860   27.4120 C   0  0  0  0  0  0  0  0  0  0  0  0
   37.6810   29.8940   28.1960 N   0  0  0  0  0  0  0  0  0  0  0  0
   39.8550   28.3690   30.3020 H   0  0  0  0  0  0  0  0  0  0  0  0
   41.4440   29.6450   28.8540 H   0  0  0  0  0  0  0  0  0  0  0  0
   38.1630   31.1990   26.6110 H   0  0  0  0  0  0  0  0  0  0  0  0
   37.2010   27.7820   34.5600 O   0  0  0  0  0  0  0  0  0  0  0  0
   36.3220   28.1150   34.2650 H   0  0  0  0  0  0  0  0  0  0  0  0
   38.4980   25.0320   34.7660 O   0  0  0  0  0  0  0  0  0  0  0  0
   39.1750   23.1720   36.0370 C   0  0  2  0  0  3  0  0  0  0  0  0
   38.0580   24.1170   35.7010 C   0  0  1  0  0  3  0  0  0  0  0  0
   37.7370   24.8070   36.8580 O   0  0  0  0  0  0  0  0  0  0  0  0
   38.1790   24.0930   37.9350 C   0  0  0  0  0  2  0  0  0  0  0  0
   38.8440   22.8360   37.4770 C   0  0  2  0  0  3  0  0  0  0  0  0
   40.4330   23.7560   35.9470 O   0  0  0  0  0  0  0  0  0  0  0  0
   40.4430   24.7180   36.0880 H   0  0  0  0  0  0  0  0  0  0  0  0
   39.9840   22.5170   38.2070 O   0  0  0  0  0  0  0  0  0  0  0  0
   40.7910   22.9470   37.8330 H   0  0  0  0  0  0  0  0  0  0  0  0
  1  6  1  6  0  0  0
  1  5  1  0  0  0  0
  1 27  1  0  0  0  0
  2  7  1  1  0  0  0
  2  1  1  0  0  0  0
  3  2  1  0  0  0  0
  3  4  1  0  0  0  0
  4  5  1  0  0  0  0
  5 10  1  1  0  0  0
  5 29  1  0  0  0  0
  8  4  1  0  0  0  0
  9  4  1  0  0  0  0
 11 14  1  6  0  0  0
 11 13  1  0  0  0  0
 11 12  1  0  0  0  0
 12 15  1  1  0  0  0
 12  2  1  0  0  0  0
 13 16  1  0  0  0  0
 13 17  1  0  0  0  0
 13 12  1  0  0  0  0
 18 19  1  0  0  0  0
 18 11  1  0  0  0  0
 19 24  1  0  0  0  0
 20 25  1  0  0  0  0
 20 19  2  0  0  0  0
 21 20  1  0  0  0  0
 22 21  2  0  0  0  0
 22 23  1  0  0  0  0
 23 18  2  0  0  0  0
 26 22  1  0  0  0  0
 28 27  1  0  0  0  0
 30 35  1  1  0  0  0
 30 34  1  0  0  0  0
 31 29  1  6  0  0  0
 31 30  1  0  0  0  0
 31 32  1  0  0  0  0
 32 33  1  0  0  0  0
 34 33  1  0  0  0  0
 34 37  1  1  0  0  0
 35 36  1  0  0  0  0
 38 37  1  0  0  0  0
M  END
>  <minimizedAffinity>
-4.95268965

$$$$
