
     RDKit          3D

 24 25  0  0  0  0  0  0  0  0999 V2000
   37.3255   30.2320   51.4336 C   0  0  0  0  0  0  0  0  0  0  0  0
   38.0693   30.7293   50.3376 C   0  0  0  0  0  0  0  0  0  0  0  0
   37.7000   30.3742   49.0378 C   0  0  0  0  0  0  0  0  0  0  0  0
   36.6137   29.5457   48.9003 N   0  0  0  0  0  0  0  0  0  0  0  0
   35.9236   29.0870   49.9640 C   0  0  0  0  0  0  0  0  0  0  0  0
   36.2847   29.4336   51.2241 N   0  0  0  0  0  0  0  0  0  0  0  0
   34.8751   28.2733   49.5915 O   0  0  0  0  0  0  0  0  0  0  0  0
   37.5942   30.4944   52.4486 H   0  0  0  0  0  0  0  0  0  0  0  0
   38.9249   31.3866   50.5262 H   0  0  0  0  0  0  0  0  0  0  0  0
   38.2370   30.7302   48.1936 H   0  0  0  0  0  0  0  0  0  0  0  0
   32.1996   28.7911   49.5963 O   0  0  0  0  0  0  0  0  0  0  0  0
   32.6304   27.7559   50.4018 C   0  0  2  0  0  0  0  0  0  0  0  0
   34.1012   27.7516   50.6613 C   0  0  1  0  0  0  0  0  0  0  0  0
   34.4411   26.4057   50.7555 O   0  0  0  0  0  0  0  0  0  0  0  0
   33.8304   25.8631   49.6257 C   0  0  0  0  0  0  0  0  0  0  0  0
   32.4165   26.3859   49.7483 C   0  0  2  0  0  0  0  0  0  0  0  0
   31.8662   26.5501   48.4771 O   0  0  0  0  0  0  0  0  0  0  0  0
   31.3979   29.2077   50.0444 H   0  0  0  0  0  0  0  0  0  0  0  0
   32.1157   27.7676   51.3921 H   0  0  0  0  0  0  0  0  0  0  0  0
   34.3018   28.2974   51.6182 H   0  0  0  0  0  0  0  0  0  0  0  0
   34.3122   26.1436   48.6891 H   0  0  0  0  0  0  0  0  0  0  0  0
   33.8665   24.7453   49.7412 H   0  0  0  0  0  0  0  0  0  0  0  0
   31.8231   25.7400   50.4096 H   0  0  0  0  0  0  0  0  0  0  0  0
   32.5964   26.4925   47.7838 H   0  0  0  0  0  0  0  0  0  0  0  0
  2  1  2  0
  3  2  1  0
  4  3  2  0
  4  5  1  0
  5  6  2  0
  6  1  1  0
  7  5  1  0
  1  8  1  0
  2  9  1  0
  3 10  1  0
 11 12  1  0
 12 13  1  0
 13 14  1  0
 14 15  1  0
 15 16  1  0
 16 17  1  0
 16 12  1  0
 11 18  1  0
 12 19  1  1
 13 20  1  1
 15 21  1  0
 15 22  1  0
 16 23  1  1
 17 24  1  0
  7 13  1  0
M  ISO  3   8  14   9  14  10  14
M  END
>  <DihAtoms>  (1) 
4,6,12,11

>  <DihDeg>  (1) 
123.71827117221825

$$$$
