
 OpenBabel03272509453D

 19 20  0  0  1  0  0  0  0  0999 V2000
   35.1940   28.8120   48.1580 O   0  0  0  0  0  0  0  0  0  0  0  0
   36.7590   29.7860   51.2940 C   0  0  0  0  0  0  0  0  0  0  0  0
   37.8270   30.5520   50.7710 C   0  0  0  0  0  0  0  0  0  0  0  0
   37.9580   30.6950   49.3870 C   0  0  0  0  0  0  0  0  0  0  0  0
   37.0210   30.0710   48.6020 N   0  0  0  0  0  0  0  0  0  0  0  0
   36.0130   29.3470   49.1290 C   0  0  0  0  0  0  0  0  0  0  0  0
   35.8890   29.2100   50.4730 N   0  0  0  0  0  0  0  0  0  0  0  0
   36.6390   29.6620   52.3620 H   0  0  0  0  0  0  0  0  0  0  0  0
   38.5370   31.0220   51.4610 H   0  0  0  0  0  0  0  0  0  0  0  0
   38.7490   31.2630   48.9630 H   0  0  0  0  0  0  0  0  0  0  0  0
   32.7870   28.7280   47.7580 C   0  0  2  0  0  3  0  0  0  0  0  0
   33.9410   28.3300   48.6180 C   0  0  1  0  0  3  0  0  0  0  0  0
   34.0030   26.9430   48.5070 O   0  0  0  0  0  0  0  0  0  0  0  0
   33.9340   26.7500   47.1290 C   0  0  0  0  0  2  0  0  0  0  0  0
   32.7190   27.5710   46.7550 C   0  0  2  0  0  3  0  0  0  0  0  0
   32.9400   29.9500   47.1340 O   0  0  0  0  0  0  0  0  0  0  0  0
   32.0880   30.4710   47.2800 H   0  0  0  0  0  0  0  0  0  0  0  0
   32.8680   28.0610   45.4570 O   0  0  0  0  0  0  0  0  0  0  0  0
   33.8240   27.9400   45.1590 H   0  0  0  0  0  0  0  0  0  0  0  0
  1  6  1  0  0  0  0
  2  8  1  0  0  0  0
  3  2  1  0  0  0  0
  3  9  1  0  0  0  0
  4  3  2  0  0  0  0
  5  6  2  0  0  0  0
  5  4  1  0  0  0  0
  6  7  1  0  0  0  0
  7  2  2  0  0  0  0
 10  4  1  0  0  0  0
 11 16  1  6  0  0  0
 11 12  1  0  0  0  0
 12  1  1  6  0  0  0
 13 12  1  0  0  0  0
 14 13  1  0  0  0  0
 15 18  1  6  0  0  0
 15 14  1  0  0  0  0
 15 11  1  0  0  0  0
 16 17  1  0  0  0  0
 19 18  1  0  0  0  0
M  END
>  <minimizedAffinity>
-3.73234963

>  <minimizedRMSD>
2.21411467

$$$$
