REMARK  Name = 
REMARK  7 active torsions:
REMARK  status: ('A' for Active; 'I' for Inactive)
REMARK    1  A    between atoms: C_1  and  O_14
REMARK    2  A    between atoms: C_2  and  C_8
REMARK    3  A    between atoms: C_6  and  O_15
REMARK    4  A    between atoms: C_9  and  C_13
REMARK    5  A    between atoms: O_15  and  C_27
REMARK    6  A    between atoms: O_25  and  C_26
REMARK    7  A    between atoms: C_30  and  O_31
REMARK                            x       y       z     vdW  Elec       q    Type
REMARK                         _______ _______ _______ _____ _____    ______ ____
ROOT
ATOM      1  C   UNL     1      38.004  31.405  47.633  0.00  0.00    +0.000 A 
ATOM      2  C   UNL     1      37.076  31.335  48.675  0.00  0.00    +0.000 A 
ATOM      3  C   UNL     1      37.194  32.353  49.618  0.00  0.00    +0.000 A 
ATOM      4  C   UNL     1      38.175  33.343  49.494  0.00  0.00    +0.000 A 
ATOM      5  C   UNL     1      39.049  33.319  48.416  0.00  0.00    +0.000 A 
ATOM      6  C   UNL     1      38.965  32.334  47.469  0.00  0.00    +0.000 A 
ATOM      7  H   UNL     1      36.489  32.328  50.438  0.00  0.00    +0.000 HD
ATOM      8  H   UNL     1      38.173  34.080  50.280  0.00  0.00    +0.000 HD
ATOM      9  H   UNL     1      39.734  34.138  48.465  0.00  0.00    +0.000 HD
ENDROOT
BRANCH   2  11
ATOM     10  C   UNL     1      34.941  30.346  47.994  0.00  0.00    +0.000 A 
ATOM     11  C   UNL     1      36.076  30.316  48.791  0.00  0.00    +0.000 A 
ATOM     12  C   UNL     1      36.189  29.256  49.698  0.00  0.00    +0.000 A 
ATOM     13  N   UNL     1      35.191  28.331  49.743  0.00  0.00    +0.000 NA
ATOM     14  C   UNL     1      34.108  28.405  48.948  0.00  0.00    +0.000 A 
ATOM     15  N   UNL     1      33.985  29.407  48.078  0.00  0.00    +0.000 NA
ATOM     16  H   UNL     1      34.767  31.127  47.262  0.00  0.00    +0.000 HD
ATOM     17  H   UNL     1      33.427  27.583  49.128  0.00  0.00    +0.000 HD
BRANCH  12  18
ATOM     18  C   UNL     1      37.379  29.156  50.588  0.00  0.00    +0.000 C 
ATOM     19  H   UNL     1      37.062  28.982  51.640  0.00  0.00    +0.000 HD
ATOM     20  H   UNL     1      37.906  30.127  50.558  0.00  0.00    +0.000 HD
ATOM     21  H   UNL     1      38.066  28.369  50.226  0.00  0.00    +0.000 HD
ENDBRANCH  12  18
ENDBRANCH   2  11
BRANCH   1  22
ATOM     22  O   UNL     1      37.944  30.404  46.640  0.00  0.00    +0.000 OA
ATOM     23  H   UNL     1      38.287  29.465  46.853  0.00  0.00    +0.000 HD
ENDBRANCH   1  22
BRANCH   6  24
ATOM     24  O   UNL     1      39.840  32.331  46.413  0.00  0.00    +0.000 OA
BRANCH  24  26
ATOM     25  C   UNL     1      41.494  32.984  44.826  0.00  0.00    +0.000 C 
ATOM     26  C   UNL     1      40.857  33.256  46.176  0.00  0.00    +0.000 C 
ATOM     27  O   UNL     1      40.204  34.501  45.983  0.00  0.00    +0.000 OA
ATOM     28  C   UNL     1      41.281  35.241  45.473  0.00  0.00    +0.000 C 
ATOM     29  C   UNL     1      41.689  34.375  44.283  0.00  0.00    +0.000 C 
BRANCH  25  30
ATOM     30  O   UNL     1      42.689  32.299  44.908  0.00  0.00    +0.000 OA
ATOM     31  H   UNL     1      42.858  31.954  45.836  0.00  0.00    +0.000 HD
ENDBRANCH  25  30
BRANCH  29  32
ATOM     32  O   UNL     1      43.011  34.616  43.911  0.00  0.00    +0.000 OA
ATOM     33  H   UNL     1      43.206  35.542  44.204  0.00  0.00    +0.000 HD
ENDBRANCH  29  32
ENDBRANCH  24  26
ENDBRANCH   6  24
TORSDOF 7
