REMARK  Name = 
REMARK  8 active torsions:
REMARK  status: ('A' for Active; 'I' for Inactive)
REMARK    1  A    between atoms: C_1  and  C_4
REMARK    2  A    between atoms: C_3  and  O_11
REMARK    3  A    between atoms: O_11  and  P_13
REMARK    4  A    between atoms: P_13  and  O_14
REMARK    5  A    between atoms: P_13  and  O_15
REMARK    6  A    between atoms: O_15  and  C_27
REMARK    7  A    between atoms: O_25  and  C_26
REMARK    8  A    between atoms: C_30  and  O_31
REMARK                            x       y       z     vdW  Elec       q    Type
REMARK                         _______ _______ _______ _____ _____    ______ ____
ROOT
ATOM      1  C   UNL     1      36.990  31.560  48.656  0.00  0.00    +0.000 C 
ATOM      2  C   UNL     1      36.261  30.878  47.609  0.00  0.00    +0.000 C 
ATOM      3  C   UNL     1      37.189  30.118  48.489  0.00  0.00    +0.000 C 
ATOM      4  H   UNL     1      36.519  31.841  49.661  0.00  0.00    +0.000 HD
ATOM      5  H   UNL     1      35.234  31.158  47.713  0.00  0.00    +0.000 HD
ATOM      6  H   UNL     1      36.616  31.054  46.571  0.00  0.00    +0.000 HD
ATOM      7  H   UNL     1      37.913  29.586  47.900  0.00  0.00    +0.000 HD
ENDROOT
BRANCH   1   8
ATOM      8  C   UNL     1      38.156  32.446  48.323  0.00  0.00    +0.000 A 
ATOM      9  C   UNL     1      38.549  33.353  49.337  0.00  0.00    +0.000 A 
ATOM     10  C   UNL     1      39.609  34.165  49.006  0.00  0.00    +0.000 A 
ATOM     11  N   UNL     1      40.198  34.054  47.770  0.00  0.00    +0.000 NA
ATOM     12  C   UNL     1      39.783  33.168  46.835  0.00  0.00    +0.000 A 
ATOM     13  N   UNL     1      38.730  32.346  47.135  0.00  0.00    +0.000 NA
ATOM     14  N   UNL     1      40.370  33.052  45.567  0.00  0.00    +0.000 N 
ATOM     15  H   UNL     1      38.081  33.433  50.304  0.00  0.00    +0.000 HD
ATOM     16  H   UNL     1      40.025  34.907  49.669  0.00  0.00    +0.000 HD
ATOM     17  H   UNL     1      39.913  33.859  45.061  0.00  0.00    +0.000 HD
ATOM     18  H   UNL     1      41.039  32.269  45.474  0.00  0.00    +0.000 HD
ENDBRANCH   1   8
BRANCH   3  19
ATOM     19  O   UNL     1      36.579  29.314  49.462  0.00  0.00    +0.000 OA
BRANCH  19  21
ATOM     20  O   UNL     1      34.600  27.687  49.703  0.00  0.00    +0.000 OA
ATOM     21  P   UNL     1      34.999  28.972  49.046  0.00  0.00    +0.000 P 
BRANCH  21  22
ATOM     22  O   UNL     1      33.961  30.169  49.708  0.00  0.00    +0.000 OA
ATOM     23  H   UNL     1      33.395  29.845  50.418  0.00  0.00    +0.000 HD
ENDBRANCH  21  22
BRANCH  21  24
ATOM     24  O   UNL     1      34.879  28.927  47.368  0.00  0.00    +0.000 OA
BRANCH  24  26
ATOM     25  C   UNL     1      33.004  27.501  47.607  0.00  0.00    +0.000 C 
ATOM     26  C   UNL     1      33.614  28.655  46.896  0.00  0.00    +0.000 C 
ATOM     27  O   UNL     1      32.752  29.727  46.968  0.00  0.00    +0.000 OA
ATOM     28  C   UNL     1      31.480  29.243  47.205  0.00  0.00    +0.000 C 
ATOM     29  C   UNL     1      31.630  27.968  47.993  0.00  0.00    +0.000 C 
BRANCH  25  30
ATOM     30  O   UNL     1      32.837  26.385  46.759  0.00  0.00    +0.000 OA
ATOM     31  H   UNL     1      33.735  26.051  46.498  0.00  0.00    +0.000 HD
ENDBRANCH  25  30
BRANCH  29  32
ATOM     32  O   UNL     1      31.575  28.237  49.359  0.00  0.00    +0.000 OA
ATOM     33  H   UNL     1      30.695  27.894  49.702  0.00  0.00    +0.000 HD
ENDBRANCH  29  32
ENDBRANCH  24  26
ENDBRANCH  21  24
ENDBRANCH  19  21
ENDBRANCH   3  19
TORSDOF 8
