
 OpenBabel03272508263D

 38 41  0  0  1  0  0  0  0  0999 V2000
   33.7900   28.9490   47.2880 C   0  0  2  0  0  0  0  0  0  0  0  0
   34.5650   28.1440   48.3190 C   0  0  2  0  0  0  0  0  0  0  0  0
   33.6970   27.9260   49.3450 O   0  0  0  0  0  0  0  0  0  0  0  0
   32.4100   27.9990   48.9140 C   0  0  0  0  0  0  0  0  0  0  0  0
   32.4230   28.2710   47.4250 C   0  0  1  0  0  0  0  0  0  0  0  0
   33.6890   30.0070   47.5590 H   0  0  0  0  0  0  0  0  0  0  0  0
   34.8370   27.1810   47.8790 H   0  0  0  0  0  0  0  0  0  0  0  0
   31.9460   26.9930   49.0490 H   0  0  0  0  0  0  0  0  0  0  0  0
   31.7870   28.7340   49.4780 H   0  0  0  0  0  0  0  0  0  0  0  0
   32.4610   27.3420   46.8450 H   0  0  0  0  0  0  0  0  0  0  0  0
   35.6480   30.3850   49.0190 C   0  0  1  0  0  0  0  0  0  0  0  0
   35.7380   28.9730   48.7360 C   0  0  1  0  0  0  0  0  0  0  0  0
   35.9360   29.3910   50.1550 C   0  0  0  0  0  0  0  0  0  0  0  0
   34.7400   30.9620   49.2690 H   0  0  0  0  0  0  0  0  0  0  0  0
   36.6880   28.6280   48.2340 H   0  0  0  0  0  0  0  0  0  0  0  0
   36.9340   29.3880   50.6110 H   0  0  0  0  0  0  0  0  0  0  0  0
   35.1250   29.0820   50.8250 H   0  0  0  0  0  0  0  0  0  0  0  0
   36.8260   31.3140   48.7770 C   0  0  0  0  0  0  0  0  0  0  0  0
   37.0790   32.3050   49.7270 C   0  0  0  0  0  0  0  0  0  0  0  0
   38.1440   33.1350   49.4510 C   0  0  0  0  0  0  0  0  0  0  0  0
   38.8870   32.9740   48.3090 N   0  0  0  0  0  0  0  0  0  0  0  0
   38.6080   32.0000   47.4080 C   0  0  0  0  0  0  0  0  0  0  0  0
   37.5630   31.1590   47.6470 N   0  0  0  0  0  0  0  0  0  0  0  0
   36.4700   32.3930   50.6080 H   0  0  0  0  0  0  0  0  0  0  0  0
   38.3910   33.9280   50.1570 H   0  0  0  0  0  0  0  0  0  0  0  0
   39.1900   31.8680   46.5060 H   0  0  0  0  0  0  0  0  0  0  0  0
   34.2850   28.8400   46.0040 O   0  0  0  0  0  0  0  0  0  0  0  0
   34.9590   28.1220   45.9910 H   0  0  0  0  0  0  0  0  0  0  0  0
   31.4080   29.0720   46.9830 O   0  0  0  0  0  0  0  0  0  0  0  0
   29.2360   28.2320   47.3140 C   0  0  2  0  0  0  0  0  0  0  0  0
   30.3800   28.3980   46.3560 C   0  0  1  0  0  0  0  0  0  0  0  0
   29.9320   29.1790   45.3040 O   0  0  0  0  0  0  0  0  0  0  0  0
   28.5670   29.1220   45.2630 C   0  0  0  0  0  0  0  0  0  0  0  0
   28.0590   28.2440   46.3600 C   0  0  2  0  0  0  0  0  0  0  0  0
   29.1340   29.2720   48.2300 O   0  0  0  0  0  0  0  0  0  0  0  0
   29.4970   30.1200   47.9220 H   0  0  0  0  0  0  0  0  0  0  0  0
   26.9070   28.7320   46.9670 O   0  0  0  0  0  0  0  0  0  0  0  0
   27.1180   29.3470   47.7110 H   0  0  0  0  0  0  0  0  0  0  0  0
  1  5  1  0  0  0  0
  1  6  1  1  0  0  0
  1  2  1  0  0  0  0
  2  7  1  6  0  0  0
  2 12  1  0  0  0  0
  2  3  1  0  0  0  0
  4  8  1  0  0  0  0
  4  3  1  0  0  0  0
  4  9  1  0  0  0  0
  5 10  1  6  0  0  0
  5  4  1  0  0  0  0
 11 14  1  6  0  0  0
 11 13  1  0  0  0  0
 12 15  1  6  0  0  0
 12 11  1  0  0  0  0
 12 13  1  0  0  0  0
 13 16  1  0  0  0  0
 13 17  1  0  0  0  0
 18 11  1  0  0  0  0
 18 19  1  0  0  0  0
 19 24  1  0  0  0  0
 20 19  2  0  0  0  0
 20 25  1  0  0  0  0
 21 20  1  0  0  0  0
 22 23  1  0  0  0  0
 22 21  2  0  0  0  0
 23 18  2  0  0  0  0
 26 22  1  0  0  0  0
 27  1  1  0  0  0  0
 28 27  1  0  0  0  0
 29  5  1  0  0  0  0
 30 35  1  1  0  0  0
 31 29  1  1  0  0  0
 31 30  1  0  0  0  0
 32 31  1  0  0  0  0
 33 32  1  0  0  0  0
 33 34  1  0  0  0  0
 34 37  1  1  0  0  0
 34 30  1  0  0  0  0
 36 35  1  0  0  0  0
 37 38  1  0  0  0  0
M  END
>  <minimizedAffinity>
-5.5028162

>  <minimizedRMSD>
1.02790451

$$$$
