
 OpenBabel03262521103D

 24 25  0  0  1  0  0  0  0  0999 V2000
   39.5670   27.2280   34.1220 O   0  0  0  0  0  0  0  0  0  0  0  0
   38.3770   26.9490   35.0240 P   0  0  1  0  0  0  0  0  0  0  0  0
   38.5980   27.6420   36.5500 O   0  0  0  0  0  0  0  0  0  0  0  0
   39.3490   27.1260   36.9730 H   0  0  0  0  0  0  0  0  0  0  0  0
   36.9290   27.6000   34.3940 O   0  0  0  0  0  0  0  0  0  0  0  0
   36.7180   27.7610   33.0320 C   0  0  0  0  0  0  0  0  0  0  0  0
   36.4840   28.9950   32.3930 C   0  0  0  0  0  0  0  0  0  0  0  0
   36.2920   28.9880   31.0210 C   0  0  0  0  0  0  0  0  0  0  0  0
   36.3340   27.8070   30.3450 N   0  0  0  0  0  0  0  0  0  0  0  0
   36.5630   26.6330   30.9990 C   0  0  0  0  0  0  0  0  0  0  0  0
   36.7520   26.6170   32.3360 N   0  0  0  0  0  0  0  0  0  0  0  0
   36.4730   29.8690   33.0400 H   0  0  0  0  0  0  0  0  0  0  0  0
   36.1140   29.9430   30.5480 H   0  0  0  0  0  0  0  0  0  0  0  0
   36.5940   25.6970   30.4420 H   0  0  0  0  0  0  0  0  0  0  0  0
   38.2470   25.2660   35.1250 O   0  0  0  0  0  0  0  0  0  0  0  0
   39.0370   23.3210   36.3040 C   0  0  1  0  0  3  0  0  0  0  0  0
   38.6070   24.7590   36.3640 C   0  0  2  0  0  3  0  0  0  0  0  0
   37.5880   24.7680   37.2820 O   0  0  0  0  0  0  0  0  0  0  0  0
   38.1860   24.0730   38.3600 C   0  0  0  0  0  2  0  0  0  0  0  0
   38.7490   22.8280   37.7050 C   0  0  2  0  0  3  0  0  0  0  0  0
   38.2840   22.5740   35.3960 O   0  0  0  0  0  0  0  0  0  0  0  0
   37.9370   23.1170   34.6410 H   0  0  0  0  0  0  0  0  0  0  0  0
   39.9190   22.3800   38.2620 O   0  0  0  0  0  0  0  0  0  0  0  0
   39.8390   22.4770   39.2480 H   0  0  0  0  0  0  0  0  0  0  0  0
  2  1  2  6  0  0  0
  2 15  1  0  0  0  0
  2  3  1  0  0  0  0
  3  4  1  0  0  0  0
  5  2  1  0  0  0  0
  6  5  1  0  0  0  0
  7  6  1  0  0  0  0
  7 12  1  0  0  0  0
  8  7  2  0  0  0  0
  9 10  2  0  0  0  0
  9  8  1  0  0  0  0
 10 11  1  0  0  0  0
 11  6  2  0  0  0  0
 13  8  1  0  0  0  0
 14 10  1  0  0  0  0
 16 21  1  6  0  0  0
 16 17  1  0  0  0  0
 16 20  1  0  0  0  0
 17 15  1  6  0  0  0
 17 18  1  0  0  0  0
 18 19  1  0  0  0  0
 20 23  1  1  0  0  0
 20 19  1  0  0  0  0
 22 21  1  0  0  0  0
 23 24  1  0  0  0  0
M  END
>  <minimizedAffinity>
-4.92553091

$$$$

 OpenBabel03262521103D

 24 25  0  0  1  0  0  0  0  0999 V2000
   38.5480   27.7090   35.5350 O   0  0  0  0  0  0  0  0  0  0  0  0
   39.3160   26.7510   34.6410 P   0  0  1  0  0  0  0  0  0  0  0  0
   40.9590   26.7360   35.0390 O   0  0  0  0  0  0  0  0  0  0  0  0
   41.3070   27.6430   34.7780 H   0  0  0  0  0  0  0  0  0  0  0  0
   38.7600   25.1430   34.7950 O   0  0  0  0  0  0  0  0  0  0  0  0
   38.8930   24.4220   35.9740 C   0  0  0  0  0  0  0  0  0  0  0  0
   39.8880   23.4530   36.2160 C   0  0  0  0  0  0  0  0  0  0  0  0
   39.8860   22.8190   37.4490 C   0  0  0  0  0  0  0  0  0  0  0  0
   38.9390   23.1460   38.3700 N   0  0  0  0  0  0  0  0  0  0  0  0
   37.9940   24.0900   38.0970 C   0  0  0  0  0  0  0  0  0  0  0  0
   37.9760   24.7190   36.9030 N   0  0  0  0  0  0  0  0  0  0  0  0
   40.5880   23.2780   35.4030 H   0  0  0  0  0  0  0  0  0  0  0  0
   40.6560   22.0780   37.6170 H   0  0  0  0  0  0  0  0  0  0  0  0
   37.2430   24.3410   38.8460 H   0  0  0  0  0  0  0  0  0  0  0  0
   39.0710   27.2870   33.0560 O   0  0  0  0  0  0  0  0  0  0  0  0
   37.6840   26.7810   31.1540 C   0  0  1  0  0  3  0  0  0  0  0  0
   37.7680   27.1240   32.6140 C   0  0  2  0  0  3  0  0  0  0  0  0
   36.9970   28.2510   32.7400 O   0  0  0  0  0  0  0  0  0  0  0  0
   35.8090   27.8440   32.0880 C   0  0  0  0  0  2  0  0  0  0  0  0
   36.3080   27.2800   30.7730 C   0  0  2  0  0  3  0  0  0  0  0  0
   38.6390   27.4550   30.3910 O   0  0  0  0  0  0  0  0  0  0  0  0
   39.4640   27.6660   30.8990 H   0  0  0  0  0  0  0  0  0  0  0  0
   35.5730   26.2230   30.3000 O   0  0  0  0  0  0  0  0  0  0  0  0
   34.6140   26.4250   30.4670 H   0  0  0  0  0  0  0  0  0  0  0  0
  2  5  1  0  0  0  0
  2  3  1  0  0  0  0
  2  1  2  1  0  0  0
  4  3  1  0  0  0  0
  5  6  1  0  0  0  0
  6  7  2  0  0  0  0
  6 11  1  0  0  0  0
  7  8  1  0  0  0  0
  8 13  1  0  0  0  0
  8  9  2  0  0  0  0
 10  9  1  0  0  0  0
 10 14  1  0  0  0  0
 11 10  2  0  0  0  0
 12  7  1  0  0  0  0
 15  2  1  0  0  0  0
 16 21  1  6  0  0  0
 16 17  1  0  0  0  0
 17 18  1  0  0  0  0
 17 15  1  6  0  0  0
 19 18  1  0  0  0  0
 20 23  1  1  0  0  0
 20 16  1  0  0  0  0
 20 19  1  0  0  0  0
 21 22  1  0  0  0  0
 23 24  1  0  0  0  0
M  END
>  <minimizedAffinity>
-4.80807638

$$$$

 OpenBabel03262521103D

 24 25  0  0  1  0  0  0  0  0999 V2000
   36.9150   27.8320   34.5650 O   0  0  0  0  0  0  0  0  0  0  0  0
   38.0160   26.9610   35.1440 P   0  0  1  0  0  0  0  0  0  0  0  0
   38.7140   27.6880   36.5020 O   0  0  0  0  0  0  0  0  0  0  0  0
   39.2010   28.4950   36.1530 H   0  0  0  0  0  0  0  0  0  0  0  0
   37.4290   25.4380   35.6510 O   0  0  0  0  0  0  0  0  0  0  0  0
   38.1730   24.5870   36.4570 C   0  0  0  0  0  0  0  0  0  0  0  0
   37.9130   24.3370   37.8200 C   0  0  0  0  0  0  0  0  0  0  0  0
   38.7510   23.4580   38.4870 C   0  0  0  0  0  0  0  0  0  0  0  0
   39.7810   22.8740   37.8160 N   0  0  0  0  0  0  0  0  0  0  0  0
   39.9990   23.1420   36.4980 C   0  0  0  0  0  0  0  0  0  0  0  0
   39.1960   23.9960   35.8280 N   0  0  0  0  0  0  0  0  0  0  0  0
   37.0610   24.8630   38.2440 H   0  0  0  0  0  0  0  0  0  0  0  0
   38.5370   23.2780   39.5320 H   0  0  0  0  0  0  0  0  0  0  0  0
   40.8290   22.6660   35.9750 H   0  0  0  0  0  0  0  0  0  0  0  0
   39.1500   26.7500   33.9080 O   0  0  0  0  0  0  0  0  0  0  0  0
   38.0330   25.2480   32.3940 C   0  0  1  0  0  3  0  0  0  0  0  0
   38.5780   26.6240   32.6520 C   0  0  2  0  0  3  0  0  0  0  0  0
   39.4570   26.8370   31.6210 O   0  0  0  0  0  0  0  0  0  0  0  0
   38.6560   26.4980   30.5040 C   0  0  0  0  0  2  0  0  0  0  0  0
   38.0800   25.1490   30.8850 C   0  0  2  0  0  3  0  0  0  0  0  0
   38.8340   24.2440   32.9400 O   0  0  0  0  0  0  0  0  0  0  0  0
   39.3290   24.5380   33.7470 H   0  0  0  0  0  0  0  0  0  0  0  0
   36.8080   24.9310   30.4190 O   0  0  0  0  0  0  0  0  0  0  0  0
   36.7600   25.2920   29.4950 H   0  0  0  0  0  0  0  0  0  0  0  0
  2  1  2  6  0  0  0
  2  5  1  0  0  0  0
  2  3  1  0  0  0  0
  4  3  1  0  0  0  0
  5  6  1  0  0  0  0
  6  7  1  0  0  0  0
  7 12  1  0  0  0  0
  7  8  2  0  0  0  0
  8 13  1  0  0  0  0
  9  8  1  0  0  0  0
 10  9  2  0  0  0  0
 11  6  2  0  0  0  0
 11 10  1  0  0  0  0
 14 10  1  0  0  0  0
 15  2  1  0  0  0  0
 16 17  1  0  0  0  0
 16 21  1  1  0  0  0
 17 15  1  1  0  0  0
 18 17  1  0  0  0  0
 19 20  1  0  0  0  0
 19 18  1  0  0  0  0
 20 23  1  6  0  0  0
 20 16  1  0  0  0  0
 21 22  1  0  0  0  0
 24 23  1  0  0  0  0
M  END
>  <minimizedAffinity>
-4.76834679

$$$$

 OpenBabel03262521103D

 24 25  0  0  1  0  0  0  0  0999 V2000
   37.0270   27.8060   34.4210 O   0  0  0  0  0  0  0  0  0  0  0  0
   38.0930   26.9020   35.0170 P   0  0  1  0  0  0  0  0  0  0  0  0
   38.7730   27.5960   36.4000 O   0  0  0  0  0  0  0  0  0  0  0  0
   39.2880   28.3950   36.0740 H   0  0  0  0  0  0  0  0  0  0  0  0
   37.4580   25.3880   35.4900 O   0  0  0  0  0  0  0  0  0  0  0  0
   38.1350   24.5360   36.3520 C   0  0  0  0  0  0  0  0  0  0  0  0
   39.0210   23.5180   35.9460 C   0  0  0  0  0  0  0  0  0  0  0  0
   39.6200   22.7510   36.9330 C   0  0  0  0  0  0  0  0  0  0  0  0
   39.3360   23.0000   38.2410 N   0  0  0  0  0  0  0  0  0  0  0  0
   38.4720   23.9950   38.5920 C   0  0  0  0  0  0  0  0  0  0  0  0
   37.8770   24.7540   37.6480 N   0  0  0  0  0  0  0  0  0  0  0  0
   39.1670   23.4160   34.8740 H   0  0  0  0  0  0  0  0  0  0  0  0
   40.2970   21.9750   36.6040 H   0  0  0  0  0  0  0  0  0  0  0  0
   38.2560   24.1810   39.6440 H   0  0  0  0  0  0  0  0  0  0  0  0
   39.2530   26.6780   33.8070 O   0  0  0  0  0  0  0  0  0  0  0  0
   41.5050   27.4870   33.5500 C   0  0  1  0  0  3  0  0  0  0  0  0
   40.5480   26.6000   34.2930 C   0  0  2  0  0  3  0  0  0  0  0  0
   41.1010   25.3490   34.1930 O   0  0  0  0  0  0  0  0  0  0  0  0
   42.4300   25.6040   34.6070 C   0  0  0  0  0  2  0  0  0  0  0  0
   42.8350   26.7980   33.7660 C   0  0  2  0  0  3  0  0  0  0  0  0
   41.2370   27.5360   32.1800 O   0  0  0  0  0  0  0  0  0  0  0  0
   40.2780   27.3970   31.9680 H   0  0  0  0  0  0  0  0  0  0  0  0
   43.6830   27.6700   34.4010 O   0  0  0  0  0  0  0  0  0  0  0  0
   44.3400   27.1300   34.9140 H   0  0  0  0  0  0  0  0  0  0  0  0
  2  1  2  6  0  0  0
  2  5  1  0  0  0  0
  2  3  1  0  0  0  0
  4  3  1  0  0  0  0
  5  6  1  0  0  0  0
  6 11  1  0  0  0  0
  7  6  2  0  0  0  0
  7  8  1  0  0  0  0
  8  9  2  0  0  0  0
  9 10  1  0  0  0  0
 10 14  1  0  0  0  0
 11 10  2  0  0  0  0
 12  7  1  0  0  0  0
 13  8  1  0  0  0  0
 15  2  1  0  0  0  0
 16 21  1  6  0  0  0
 16 20  1  0  0  0  0
 16 17  1  0  0  0  0
 17 15  1  6  0  0  0
 18 17  1  0  0  0  0
 18 19  1  0  0  0  0
 20 23  1  1  0  0  0
 20 19  1  0  0  0  0
 22 21  1  0  0  0  0
 23 24  1  0  0  0  0
M  END
>  <minimizedAffinity>
-4.70604181

$$$$

 OpenBabel03262521103D

 24 25  0  0  1  0  0  0  0  0999 V2000
   38.5820   27.7690   36.1990 O   0  0  0  0  0  0  0  0  0  0  0  0
   38.2200   26.7870   35.0980 P   0  0  1  0  0  0  0  0  0  0  0  0
   39.5890   26.3350   34.2150 O   0  0  0  0  0  0  0  0  0  0  0  0
   39.8730   27.1620   33.7190 H   0  0  0  0  0  0  0  0  0  0  0  0
   37.5410   25.3480   35.7200 O   0  0  0  0  0  0  0  0  0  0  0  0
   38.2500   24.4910   36.5510 C   0  0  0  0  0  0  0  0  0  0  0  0
   37.9520   24.2560   37.9080 C   0  0  0  0  0  0  0  0  0  0  0  0
   38.7590   23.3680   38.6030 C   0  0  0  0  0  0  0  0  0  0  0  0
   39.7960   22.7630   37.9620 N   0  0  0  0  0  0  0  0  0  0  0  0
   40.0510   23.0170   36.6470 C   0  0  0  0  0  0  0  0  0  0  0  0
   39.2790   23.8790   35.9510 N   0  0  0  0  0  0  0  0  0  0  0  0
   37.0990   24.7990   38.3070 H   0  0  0  0  0  0  0  0  0  0  0  0
   38.5160   23.2000   39.6430 H   0  0  0  0  0  0  0  0  0  0  0  0
   40.8850   22.5230   36.1490 H   0  0  0  0  0  0  0  0  0  0  0  0
   37.0870   27.5730   34.1190 O   0  0  0  0  0  0  0  0  0  0  0  0
   36.3190   28.1020   31.9000 C   0  0  1  0  0  3  0  0  0  0  0  0
   37.2320   27.2870   32.7710 C   0  0  2  0  0  3  0  0  0  0  0  0
   36.9350   25.9870   32.4470 O   0  0  0  0  0  0  0  0  0  0  0  0
   37.0180   26.0320   31.0350 C   0  0  0  0  0  2  0  0  0  0  0  0
   36.1640   27.2310   30.6730 C   0  0  2  0  0  3  0  0  0  0  0  0
   35.0640   28.3010   32.4780 O   0  0  0  0  0  0  0  0  0  0  0  0
   35.0900   28.3060   33.4690 H   0  0  0  0  0  0  0  0  0  0  0  0
   36.6100   27.9280   29.5790 O   0  0  0  0  0  0  0  0  0  0  0  0
   36.9170   27.2660   28.9050 H   0  0  0  0  0  0  0  0  0  0  0  0
  2  5  1  0  0  0  0
  2  1  2  1  0  0  0
  3  2  1  0  0  0  0
  4  3  1  0  0  0  0
  5  6  1  0  0  0  0
  6  7  1  0  0  0  0
  7 12  1  0  0  0  0
  7  8  2  0  0  0  0
  8 13  1  0  0  0  0
  9  8  1  0  0  0  0
 10  9  2  0  0  0  0
 11  6  2  0  0  0  0
 11 10  1  0  0  0  0
 14 10  1  0  0  0  0
 15  2  1  0  0  0  0
 16 21  1  1  0  0  0
 16 17  1  0  0  0  0
 17 15  1  1  0  0  0
 18 17  1  0  0  0  0
 19 18  1  0  0  0  0
 20 23  1  6  0  0  0
 20 19  1  0  0  0  0
 20 16  1  0  0  0  0
 21 22  1  0  0  0  0
 24 23  1  0  0  0  0
M  END
>  <minimizedAffinity>
-4.65514946

$$$$

 OpenBabel03262521103D

 24 25  0  0  1  0  0  0  0  0999 V2000
   36.9520   24.2450   32.4020 O   0  0  0  0  0  0  0  0  0  0  0  0
   37.9550   23.3680   33.1320 P   0  0  1  0  0  0  0  0  0  0  0  0
   39.1130   22.7540   32.0650 O   0  0  0  0  0  0  0  0  0  0  0  0
   38.6180   22.1120   31.4710 H   0  0  0  0  0  0  0  0  0  0  0  0
   38.8060   24.2330   34.3350 O   0  0  0  0  0  0  0  0  0  0  0  0
   38.7640   23.8770   35.6760 C   0  0  0  0  0  0  0  0  0  0  0  0
   37.7520   24.2600   36.5790 C   0  0  0  0  0  0  0  0  0  0  0  0
   37.8550   23.8190   37.8890 C   0  0  0  0  0  0  0  0  0  0  0  0
   38.9120   23.0440   38.2550 N   0  0  0  0  0  0  0  0  0  0  0  0
   39.8700   22.6950   37.3510 C   0  0  0  0  0  0  0  0  0  0  0  0
   39.7910   23.1130   36.0700 N   0  0  0  0  0  0  0  0  0  0  0  0
   36.9600   24.8800   36.1680 H   0  0  0  0  0  0  0  0  0  0  0  0
   37.0700   24.1230   38.5680 H   0  0  0  0  0  0  0  0  0  0  0  0
   40.7110   22.0740   37.6600 H   0  0  0  0  0  0  0  0  0  0  0  0
   37.0610   22.1270   33.8520 O   0  0  0  0  0  0  0  0  0  0  0  0
   35.4290   20.4040   33.4460 C   0  0  1  0  0  3  0  0  0  0  0  0
   36.6220   21.1700   32.9500 C   0  0  2  0  0  3  0  0  0  0  0  0
   37.5530   20.2020   32.6730 O   0  0  0  0  0  0  0  0  0  0  0  0
   36.7950   19.3130   31.8760 C   0  0  0  0  0  2  0  0  0  0  0  0
   35.5380   19.0960   32.6940 C   0  0  2  0  0  3  0  0  0  0  0  0
   35.4910   20.1470   34.8170 O   0  0  0  0  0  0  0  0  0  0  0  0
   35.9970   20.8370   35.3180 H   0  0  0  0  0  0  0  0  0  0  0  0
   34.4020   18.9240   31.9450 O   0  0  0  0  0  0  0  0  0  0  0  0
   34.6390   18.3540   31.1660 H   0  0  0  0  0  0  0  0  0  0  0  0
  2  1  2  6  0  0  0
  2 15  1  0  0  0  0
  2  5  1  0  0  0  0
  3  2  1  0  0  0  0
  4  3  1  0  0  0  0
  5  6  1  0  0  0  0
  6 11  2  0  0  0  0
  6  7  1  0  0  0  0
  7  8  2  0  0  0  0
  8  9  1  0  0  0  0
  8 13  1  0  0  0  0
 10 14  1  0  0  0  0
 10  9  2  0  0  0  0
 11 10  1  0  0  0  0
 12  7  1  0  0  0  0
 16 21  1  1  0  0  0
 17 16  1  0  0  0  0
 17 15  1  1  0  0  0
 18 17  1  0  0  0  0
 19 18  1  0  0  0  0
 19 20  1  0  0  0  0
 20 23  1  6  0  0  0
 20 16  1  0  0  0  0
 21 22  1  0  0  0  0
 24 23  1  0  0  0  0
M  END
>  <minimizedAffinity>
-4.63744164

$$$$

 OpenBabel03262521103D

 24 25  0  0  1  0  0  0  0  0999 V2000
   40.0020   27.1590   34.1370 O   0  0  0  0  0  0  0  0  0  0  0  0
   38.8780   26.7280   35.0640 P   0  0  1  0  0  0  0  0  0  0  0  0
   38.6440   27.8590   36.2990 O   0  0  0  0  0  0  0  0  0  0  0  0
   39.4670   27.8040   36.8730 H   0  0  0  0  0  0  0  0  0  0  0  0
   37.3880   26.5850   34.2410 O   0  0  0  0  0  0  0  0  0  0  0  0
   36.7750   27.6650   33.6210 C   0  0  0  0  0  0  0  0  0  0  0  0
   36.7180   27.8670   32.2280 C   0  0  0  0  0  0  0  0  0  0  0  0
   36.0670   29.0000   31.7650 C   0  0  0  0  0  0  0  0  0  0  0  0
   35.5140   29.8670   32.6570 N   0  0  0  0  0  0  0  0  0  0  0  0
   35.5910   29.6360   33.9980 C   0  0  0  0  0  0  0  0  0  0  0  0
   36.2210   28.5390   34.4710 N   0  0  0  0  0  0  0  0  0  0  0  0
   37.1960   27.1050   31.6180 H   0  0  0  0  0  0  0  0  0  0  0  0
   36.0330   29.1390   30.6930 H   0  0  0  0  0  0  0  0  0  0  0  0
   35.1430   30.3400   34.6990 H   0  0  0  0  0  0  0  0  0  0  0  0
   39.3310   25.2220   35.6860 O   0  0  0  0  0  0  0  0  0  0  0  0
   38.3780   23.1400   36.4280 C   0  0  1  0  0  3  0  0  0  0  0  0
   38.4420   24.2070   35.3730 C   0  0  2  0  0  3  0  0  0  0  0  0
   38.7620   23.5270   34.2250 O   0  0  0  0  0  0  0  0  0  0  0  0
   37.8010   22.4890   34.2450 C   0  0  0  0  0  2  0  0  0  0  0  0
   37.9240   21.9260   35.6470 C   0  0  2  0  0  3  0  0  0  0  0  0
   39.6240   22.8740   36.9970 O   0  0  0  0  0  0  0  0  0  0  0  0
   40.2280   23.6610   36.9910 H   0  0  0  0  0  0  0  0  0  0  0  0
   36.7410   21.4790   36.1780 O   0  0  0  0  0  0  0  0  0  0  0  0
   36.2440   21.0120   35.4560 H   0  0  0  0  0  0  0  0  0  0  0  0
  2  1  2  6  0  0  0
  2 15  1  0  0  0  0
  2  3  1  0  0  0  0
  3  4  1  0  0  0  0
  5  2  1  0  0  0  0
  6  5  1  0  0  0  0
  6 11  1  0  0  0  0
  7  6  2  0  0  0  0
  8  7  1  0  0  0  0
  8  9  2  0  0  0  0
  9 10  1  0  0  0  0
 10 11  2  0  0  0  0
 10 14  1  0  0  0  0
 12  7  1  0  0  0  0
 13  8  1  0  0  0  0
 16 21  1  6  0  0  0
 17 15  1  1  0  0  0
 17 16  1  0  0  0  0
 18 19  1  0  0  0  0
 18 17  1  0  0  0  0
 19 20  1  0  0  0  0
 20 23  1  1  0  0  0
 20 16  1  0  0  0  0
 22 21  1  0  0  0  0
 24 23  1  0  0  0  0
M  END
>  <minimizedAffinity>
-4.62221622

$$$$

 OpenBabel03262521103D

 24 25  0  0  1  0  0  0  0  0999 V2000
   36.9820   22.8190   37.2020 O   0  0  0  0  0  0  0  0  0  0  0  0
   38.3710   23.4320   37.1680 P   0  0  1  0  0  0  0  0  0  0  0  0
   39.1630   23.2230   38.6470 O   0  0  0  0  0  0  0  0  0  0  0  0
   38.6620   23.7950   39.3030 H   0  0  0  0  0  0  0  0  0  0  0  0
   39.3610   22.7110   35.9760 O   0  0  0  0  0  0  0  0  0  0  0  0
   40.7230   22.5190   36.1600 C   0  0  0  0  0  0  0  0  0  0  0  0
   41.7320   23.3430   35.6210 C   0  0  0  0  0  0  0  0  0  0  0  0
   43.0510   23.0160   35.8980 C   0  0  0  0  0  0  0  0  0  0  0  0
   43.3240   21.9270   36.6670 N   0  0  0  0  0  0  0  0  0  0  0  0
   42.3190   21.1550   37.1700 C   0  0  0  0  0  0  0  0  0  0  0  0
   41.0270   21.4550   36.9120 N   0  0  0  0  0  0  0  0  0  0  0  0
   41.3890   24.1830   35.0230 H   0  0  0  0  0  0  0  0  0  0  0  0
   43.8110   23.6590   35.4770 H   0  0  0  0  0  0  0  0  0  0  0  0
   42.5550   20.2860   37.7840 H   0  0  0  0  0  0  0  0  0  0  0  0
   38.1560   25.0710   36.8120 O   0  0  0  0  0  0  0  0  0  0  0  0
   39.2640   26.7160   35.4480 C   0  0  1  0  0  3  0  0  0  0  0  0
   38.5290   25.4080   35.5210 C   0  0  2  0  0  3  0  0  0  0  0  0
   37.4710   25.5680   34.6630 O   0  0  0  0  0  0  0  0  0  0  0  0
   38.1270   26.0450   33.5040 C   0  0  0  0  0  2  0  0  0  0  0  0
   38.9920   27.1720   34.0320 C   0  0  2  0  0  3  0  0  0  0  0  0
   38.7560   27.6650   36.3370 O   0  0  0  0  0  0  0  0  0  0  0  0
   38.3540   27.2610   37.1480 H   0  0  0  0  0  0  0  0  0  0  0  0
   40.1900   27.3150   33.3780 O   0  0  0  0  0  0  0  0  0  0  0  0
   40.0210   27.1780   32.4090 H   0  0  0  0  0  0  0  0  0  0  0  0
  2  1  2  1  0  0  0
  2  3  1  0  0  0  0
  3  4  1  0  0  0  0
  5  6  1  0  0  0  0
  5  2  1  0  0  0  0
  6 11  1  0  0  0  0
  7  8  1  0  0  0  0
  7  6  2  0  0  0  0
  8  9  2  0  0  0  0
  9 10  1  0  0  0  0
 10 14  1  0  0  0  0
 11 10  2  0  0  0  0
 12  7  1  0  0  0  0
 13  8  1  0  0  0  0
 15  2  1  0  0  0  0
 16 17  1  0  0  0  0
 16 21  1  1  0  0  0
 17 15  1  1  0  0  0
 18 17  1  0  0  0  0
 19 20  1  0  0  0  0
 19 18  1  0  0  0  0
 20 23  1  6  0  0  0
 20 16  1  0  0  0  0
 21 22  1  0  0  0  0
 24 23  1  0  0  0  0
M  END
>  <minimizedAffinity>
-4.61099672

$$$$

 OpenBabel03262521103D

 24 25  0  0  1  0  0  0  0  0999 V2000
   38.7530   25.8340   34.0050 O   0  0  0  0  0  0  0  0  0  0  0  0
   38.0560   26.3380   35.2570 P   0  0  1  0  0  0  0  0  0  0  0  0
   38.9680   27.5430   36.0150 O   0  0  0  0  0  0  0  0  0  0  0  0
   39.7880   27.0790   36.3650 H   0  0  0  0  0  0  0  0  0  0  0  0
   36.5300   27.0240   34.9100 O   0  0  0  0  0  0  0  0  0  0  0  0
   36.3770   28.0820   34.0250 C   0  0  0  0  0  0  0  0  0  0  0  0
   35.7390   29.3020   34.3300 C   0  0  0  0  0  0  0  0  0  0  0  0
   35.6670   30.2620   33.3330 C   0  0  0  0  0  0  0  0  0  0  0  0
   36.2060   30.0000   32.1110 N   0  0  0  0  0  0  0  0  0  0  0  0
   36.8140   28.8070   31.8550 C   0  0  0  0  0  0  0  0  0  0  0  0
   36.8950   27.8570   32.8110 N   0  0  0  0  0  0  0  0  0  0  0  0
   35.3490   29.3920   35.3410 H   0  0  0  0  0  0  0  0  0  0  0  0
   35.1750   31.1900   33.5850 H   0  0  0  0  0  0  0  0  0  0  0  0
   37.2400   28.6140   30.8700 H   0  0  0  0  0  0  0  0  0  0  0  0
   37.8590   24.9920   36.2620 O   0  0  0  0  0  0  0  0  0  0  0  0
   38.9370   23.1030   37.2940 C   0  0  1  0  0  3  0  0  0  0  0  0
   38.8730   24.0570   36.1350 C   0  0  2  0  0  3  0  0  0  0  0  0
   40.1290   24.6070   36.0820 O   0  0  0  0  0  0  0  0  0  0  0  0
   40.9370   23.4460   36.1110 C   0  0  0  0  0  2  0  0  0  0  0  0
   40.3840   22.6640   37.2850 C   0  0  2  0  0  3  0  0  0  0  0  0
   38.6580   23.7240   38.5130 O   0  0  0  0  0  0  0  0  0  0  0  0
   38.0470   24.5000   38.4230 H   0  0  0  0  0  0  0  0  0  0  0  0
   40.4290   21.3020   37.1230 O   0  0  0  0  0  0  0  0  0  0  0  0
   41.2950   21.0790   36.6920 H   0  0  0  0  0  0  0  0  0  0  0  0
  2  1  2  6  0  0  0
  2  3  1  0  0  0  0
  2 15  1  0  0  0  0
  3  4  1  0  0  0  0
  5  2  1  0  0  0  0
  6  7  1  0  0  0  0
  6  5  1  0  0  0  0
  7 12  1  0  0  0  0
  8 13  1  0  0  0  0
  8  7  2  0  0  0  0
  9  8  1  0  0  0  0
 10  9  2  0  0  0  0
 10 11  1  0  0  0  0
 11  6  2  0  0  0  0
 14 10  1  0  0  0  0
 16 21  1  1  0  0  0
 17 15  1  1  0  0  0
 17 16  1  0  0  0  0
 18 19  1  0  0  0  0
 18 17  1  0  0  0  0
 19 20  1  0  0  0  0
 20 23  1  6  0  0  0
 20 16  1  0  0  0  0
 22 21  1  0  0  0  0
 24 23  1  0  0  0  0
M  END
>  <minimizedAffinity>
-4.57976007

$$$$
