
     RDKit          3D

 24 25  0  0  0  0  0  0  0  0999 V2000
   37.3255   30.2320   51.4336 C   0  0  0  0  0  0  0  0  0  0  0  0
   38.0693   30.7293   50.3376 C   0  0  0  0  0  0  0  0  0  0  0  0
   37.7000   30.3742   49.0378 C   0  0  0  0  0  0  0  0  0  0  0  0
   36.6137   29.5457   48.9003 N   0  0  0  0  0  0  0  0  0  0  0  0
   35.9236   29.0870   49.9640 C   0  0  0  0  0  0  0  0  0  0  0  0
   36.2847   29.4336   51.2241 N   0  0  0  0  0  0  0  0  0  0  0  0
   34.8751   28.2733   49.5915 O   0  0  0  0  0  0  0  0  0  0  0  0
   37.5942   30.4944   52.4486 H   0  0  0  0  0  0  0  0  0  0  0  0
   38.9249   31.3866   50.5262 H   0  0  0  0  0  0  0  0  0  0  0  0
   38.2370   30.7302   48.1936 H   0  0  0  0  0  0  0  0  0  0  0  0
   33.5301   30.0422   51.1690 O   0  0  0  0  0  0  0  0  0  0  0  0
   33.1213   28.7250   51.2295 C   0  0  2  0  0  0  0  0  0  0  0  0
   34.1012   27.7516   50.6613 C   0  0  1  0  0  0  0  0  0  0  0  0
   33.3192   26.7425   50.1081 O   0  0  0  0  0  0  0  0  0  0  0  0
   32.3871   27.4617   49.3613 C   0  0  0  0  0  0  0  0  0  0  0  0
   31.8775   28.4646   50.3721 C   0  0  2  0  0  0  0  0  0  0  0  0
   31.5007   29.6379   49.7185 O   0  0  0  0  0  0  0  0  0  0  0  0
   33.3744   30.4480   52.0790 H   0  0  0  0  0  0  0  0  0  0  0  0
   32.9080   28.4113   52.2791 H   0  0  0  0  0  0  0  0  0  0  0  0
   34.7501   27.3663   51.4885 H   0  0  0  0  0  0  0  0  0  0  0  0
   32.8050   27.9266   48.4683 H   0  0  0  0  0  0  0  0  0  0  0  0
   31.5822   26.7369   49.0599 H   0  0  0  0  0  0  0  0  0  0  0  0
   31.0810   28.0222   50.9857 H   0  0  0  0  0  0  0  0  0  0  0  0
   31.8527   29.6251   48.7735 H   0  0  0  0  0  0  0  0  0  0  0  0
  2  1  2  0
  3  2  1  0
  4  3  2  0
  4  5  1  0
  5  6  2  0
  6  1  1  0
  7  5  1  0
  1  8  1  0
  2  9  1  0
  3 10  1  0
 11 12  1  0
 12 13  1  0
 13 14  1  0
 14 15  1  0
 15 16  1  0
 16 17  1  0
 16 12  1  0
 11 18  1  0
 12 19  1  1
 13 20  1  1
 15 21  1  0
 15 22  1  0
 16 23  1  1
 17 24  1  0
  7 13  1  0
M  ISO  3   8  14   9  14  10  14
M  END
>  <DihAtoms>  (1) 
4,6,12,11

>  <DihDeg>  (1) 
123.71827117221825

$$$$
