
     RDKit          3D

 24 25  0  0  0  0  0  0  0  0999 V2000
   37.3255   30.2320   51.4336 C   0  0  0  0  0  0  0  0  0  0  0  0
   38.0693   30.7293   50.3376 C   0  0  0  0  0  0  0  0  0  0  0  0
   37.7000   30.3742   49.0378 C   0  0  0  0  0  0  0  0  0  0  0  0
   36.6137   29.5457   48.9003 N   0  0  0  0  0  0  0  0  0  0  0  0
   35.9236   29.0870   49.9640 C   0  0  0  0  0  0  0  0  0  0  0  0
   36.2847   29.4336   51.2241 N   0  0  0  0  0  0  0  0  0  0  0  0
   34.8751   28.2733   49.5915 O   0  0  0  0  0  0  0  0  0  0  0  0
   37.5942   30.4944   52.4486 H   0  0  0  0  0  0  0  0  0  0  0  0
   38.9249   31.3866   50.5262 H   0  0  0  0  0  0  0  0  0  0  0  0
   38.2370   30.7302   48.1936 H   0  0  0  0  0  0  0  0  0  0  0  0
   32.6611   29.6658   50.3568 O   0  0  0  0  0  0  0  0  0  0  0  0
   32.7373   28.3504   50.7690 C   0  0  2  0  0  0  0  0  0  0  0  0
   34.1012   27.7516   50.6613 C   0  0  1  0  0  0  0  0  0  0  0  0
   33.8780   26.4135   50.3520 O   0  0  0  0  0  0  0  0  0  0  0  0
   32.9604   26.4973   49.3057 C   0  0  0  0  0  0  0  0  0  0  0  0
   31.9064   27.4164   49.8819 C   0  0  2  0  0  0  0  0  0  0  0  0
   31.3106   28.1478   48.8543 O   0  0  0  0  0  0  0  0  0  0  0  0
   32.1608   30.1760   51.0684 H   0  0  0  0  0  0  0  0  0  0  0  0
   32.4032   28.2342   51.8276 H   0  0  0  0  0  0  0  0  0  0  0  0
   34.6264   27.8676   51.6434 H   0  0  0  0  0  0  0  0  0  0  0  0
   33.3895   26.8668   48.3743 H   0  0  0  0  0  0  0  0  0  0  0  0
   32.5568   25.4607   49.1426 H   0  0  0  0  0  0  0  0  0  0  0  0
   31.1933   26.8483   50.4944 H   0  0  0  0  0  0  0  0  0  0  0  0
   31.8595   28.0560   48.0132 H   0  0  0  0  0  0  0  0  0  0  0  0
  2  1  2  0
  3  2  1  0
  4  3  2  0
  4  5  1  0
  5  6  2  0
  6  1  1  0
  7  5  1  0
  1  8  1  0
  2  9  1  0
  3 10  1  0
 11 12  1  0
 12 13  1  0
 13 14  1  0
 14 15  1  0
 15 16  1  0
 16 17  1  0
 16 12  1  0
 11 18  1  0
 12 19  1  1
 13 20  1  1
 15 21  1  0
 15 22  1  0
 16 23  1  1
 17 24  1  0
  7 13  1  0
M  ISO  3   8  14   9  14  10  14
M  END
>  <DihAtoms>  (1) 
4,6,12,11

>  <DihDeg>  (1) 
123.71827117221825

$$$$
