
 OpenBabel03272504563D

 33 35  0  0  1  0  0  0  0  0999 V2000
   37.0420   31.5300   48.7030 C   0  0  1  0  0  0  0  0  0  0  0  0
   36.2140   30.9560   47.6650 C   0  0  0  0  0  0  0  0  0  0  0  0
   37.2010   30.1080   48.3870 C   0  0  2  0  0  0  0  0  0  0  0  0
   36.6630   31.7190   49.7670 H   0  0  0  0  0  0  0  0  0  0  0  0
   35.2050   31.2340   47.8820 H   0  0  0  0  0  0  0  0  0  0  0  0
   36.4830   31.2250   46.6210 H   0  0  0  0  0  0  0  0  0  0  0  0
   37.8630   29.6270   47.6910 H   0  0  0  0  0  0  0  0  0  0  0  0
   38.1900   32.4320   48.3540 C   0  0  0  0  0  0  0  0  0  0  0  0
   38.5420   33.3880   49.3380 C   0  0  0  0  0  0  0  0  0  0  0  0
   39.5870   34.2140   48.9920 C   0  0  0  0  0  0  0  0  0  0  0  0
   40.2000   34.0700   47.7710 N   0  0  0  0  0  0  0  0  0  0  0  0
   39.8240   33.1370   46.8660 C   0  0  0  0  0  0  0  0  0  0  0  0
   38.7870   32.3000   47.1810 N   0  0  0  0  0  0  0  0  0  0  0  0
   40.4360   32.9870   45.6130 N   0  0  0  0  0  0  0  0  0  0  0  0
   38.0550   33.4940   50.2930 H   0  0  0  0  0  0  0  0  0  0  0  0
   39.9720   34.9930   49.6320 H   0  0  0  0  0  0  0  0  0  0  0  0
   39.9670   33.7610   45.0680 H   0  0  0  0  0  0  0  0  0  0  0  0
   41.1260   32.2180   45.5630 H   0  0  0  0  0  0  0  0  0  0  0  0
   36.6620   29.2220   49.3300 O   0  0  0  0  0  0  0  0  0  0  0  0
   34.6150   27.7170   49.7410 O   0  0  0  0  0  0  0  0  0  0  0  0
   35.0320   28.9850   49.0600 P   0  0  1  0  0  0  0  0  0  0  0  0
   34.1370   30.2340   49.8270 O   0  0  0  0  0  0  0  0  0  0  0  0
   33.6200   29.9350   50.5840 H   0  0  0  0  0  0  0  0  0  0  0  0
   34.7540   28.9720   47.4010 O   0  0  0  0  0  0  0  0  0  0  0  0
   33.2760   30.1650   45.9880 C   0  0  1  0  0  0  0  0  0  0  0  0
   33.4340   29.1320   47.0440 C   0  0  1  0  0  0  0  0  0  0  0  0
   32.8260   27.9680   46.6230 O   0  0  0  0  0  0  0  0  0  0  0  0
   31.8920   28.2940   45.6580 C   0  0  0  0  0  0  0  0  0  0  0  0
   32.3950   29.5260   44.9520 C   0  0  2  0  0  0  0  0  0  0  0  0
   32.5940   31.3070   46.4620 O   0  0  0  0  0  0  0  0  0  0  0  0
   33.1630   31.7530   47.1430 H   0  0  0  0  0  0  0  0  0  0  0  0
   33.1430   29.1690   43.8330 O   0  0  0  0  0  0  0  0  0  0  0  0
   32.6000   29.3920   43.0180 H   0  0  0  0  0  0  0  0  0  0  0  0
  1  4  1  1  0  0  0
  2  5  1  0  0  0  0
  2  3  1  0  0  0  0
  2  1  1  0  0  0  0
  3  7  1  6  0  0  0
  3  1  1  0  0  0  0
  3 19  1  0  0  0  0
  6  2  1  0  0  0  0
  8  1  1  0  0  0  0
  8  9  1  0  0  0  0
  9 15  1  0  0  0  0
 10  9  2  0  0  0  0
 10 16  1  0  0  0  0
 11 10  1  0  0  0  0
 12 13  1  0  0  0  0
 12 11  2  0  0  0  0
 13  8  2  0  0  0  0
 14 12  1  0  0  0  0
 17 14  1  0  0  0  0
 18 14  1  0  0  0  0
 21 19  1  0  0  0  0
 21 20  2  1  0  0  0
 21 22  1  0  0  0  0
 22 23  1  0  0  0  0
 24 21  1  0  0  0  0
 25 30  1  1  0  0  0
 25 26  1  0  0  0  0
 26 24  1  6  0  0  0
 27 26  1  0  0  0  0
 28 27  1  0  0  0  0
 29 32  1  6  0  0  0
 29 28  1  0  0  0  0
 29 25  1  0  0  0  0
 30 31  1  0  0  0  0
 33 32  1  0  0  0  0
M  END
>  <minimizedAffinity>
-5.11791372

>  <minimizedRMSD>
0.838775039

$$$$
