
 OpenBabel03272509453D

 19 20  0  0  1  0  0  0  0  0999 V2000
   37.8220   30.1580   47.0130 O   0  0  0  0  0  0  0  0  0  0  0  0
   36.2960   29.5710   50.2630 C   0  0  0  0  0  0  0  0  0  0  0  0
   37.1210   30.4150   51.0420 C   0  0  0  0  0  0  0  0  0  0  0  0
   38.1480   31.1350   50.4250 C   0  0  0  0  0  0  0  0  0  0  0  0
   38.2960   30.9760   49.0700 N   0  0  0  0  0  0  0  0  0  0  0  0
   37.4930   30.1640   48.3520 C   0  0  0  0  0  0  0  0  0  0  0  0
   36.4980   29.4670   48.9550 N   0  0  0  0  0  0  0  0  0  0  0  0
   35.4960   29.0040   50.7200 H   0  0  0  0  0  0  0  0  0  0  0  0
   36.9430   30.4910   52.1210 H   0  0  0  0  0  0  0  0  0  0  0  0
   38.7850   31.7770   50.9820 H   0  0  0  0  0  0  0  0  0  0  0  0
   39.2720   31.7130   45.8120 C   0  0  2  0  0  3  0  0  0  0  0  0
   37.9310   31.4370   46.4080 C   0  0  1  0  0  3  0  0  0  0  0  0
   37.0570   31.4220   45.3260 O   0  0  0  0  0  0  0  0  0  0  0  0
   37.7150   30.5870   44.4230 C   0  0  0  0  0  2  0  0  0  0  0  0
   39.0990   31.1930   44.3800 C   0  0  2  0  0  3  0  0  0  0  0  0
   40.3200   31.0980   46.4680 O   0  0  0  0  0  0  0  0  0  0  0  0
   41.0360   31.7940   46.6120 H   0  0  0  0  0  0  0  0  0  0  0  0
   40.0390   30.1950   44.1250 O   0  0  0  0  0  0  0  0  0  0  0  0
   39.6100   29.2900   44.2430 H   0  0  0  0  0  0  0  0  0  0  0  0
  1  6  1  0  0  0  0
  2  8  1  0  0  0  0
  2  3  1  0  0  0  0
  3  9  1  0  0  0  0
  4 10  1  0  0  0  0
  4  3  2  0  0  0  0
  5  4  1  0  0  0  0
  6  7  1  0  0  0  0
  6  5  2  0  0  0  0
  7  2  2  0  0  0  0
 11 12  1  0  0  0  0
 11 16  1  1  0  0  0
 12  1  1  6  0  0  0
 13 12  1  0  0  0  0
 14 13  1  0  0  0  0
 15 18  1  1  0  0  0
 15 14  1  0  0  0  0
 15 11  1  0  0  0  0
 16 17  1  0  0  0  0
 18 19  1  0  0  0  0
M  END
>  <minimizedAffinity>
-4.26226282

>  <minimizedRMSD>
6.23256636

$$$$
