
 OpenBabel03262521063D

 36 38  0  0  1  0  0  0  0  0999 V2000
   38.4110   26.5490   33.1290 Br  0  0  0  0  0  0  0  0  0  0  0  0
   37.0790   25.5290   32.2740 C   0  0  0  0  0  0  0  0  0  0  0  0
   36.1920   26.2280   31.5250 C   0  0  0  0  0  0  0  0  0  0  0  0
   35.1640   25.5460   30.8520 C   0  0  0  0  0  0  0  0  0  0  0  0
   35.0740   24.1650   30.9650 C   0  0  0  0  0  0  0  0  0  0  0  0
   35.9980   23.5320   31.7320 C   0  0  0  0  0  0  0  0  0  0  0  0
   37.0130   24.1810   32.3990 C   0  0  0  0  0  0  0  0  0  0  0  0
   34.4230   26.0300   30.2390 H   0  0  0  0  0  0  0  0  0  0  0  0
   34.2880   23.6230   30.4510 H   0  0  0  0  0  0  0  0  0  0  0  0
   35.9320   22.4560   31.8220 H   0  0  0  0  0  0  0  0  0  0  0  0
   36.7670   28.3330   30.2440 C   0  0  0  0  0  0  0  0  0  0  0  0
   36.1400   27.6850   31.2990 C   0  0  0  0  0  0  0  0  0  0  0  0
   35.3970   28.4790   32.2260 C   0  0  0  0  0  0  0  0  0  0  0  0
   35.3680   29.8220   31.9900 N   0  0  0  0  0  0  0  0  0  0  0  0
   35.9940   30.3890   30.9530 C   0  0  0  0  0  0  0  0  0  0  0  0
   36.6940   29.6660   30.0750 N   0  0  0  0  0  0  0  0  0  0  0  0
   37.3240   27.6790   29.5630 H   0  0  0  0  0  0  0  0  0  0  0  0
   34.8920   28.0270   33.0610 H   0  0  0  0  0  0  0  0  0  0  0  0
   35.9780   31.4560   30.7560 H   0  0  0  0  0  0  0  0  0  0  0  0
   37.9860   23.5280   33.2060 N   0  0  0  0  0  0  0  0  0  0  0  0
   38.7340   24.1850   33.5330 H   0  0  0  0  0  0  0  0  0  0  0  0
   38.1590   21.9200   33.7310 S   0  0  0  0  0  0  0  0  0  0  0  0
   39.2610   21.2220   33.0130 O   0  0  0  0  0  0  0  0  0  0  0  0
   40.2270   21.2460   33.1700 H   0  0  0  0  0  0  0  0  0  0  0  0
   36.8800   21.1630   33.4690 O   0  0  0  0  0  0  0  0  0  0  0  0
   36.6840   20.5190   32.7510 H   0  0  0  0  0  0  0  0  0  0  0  0
   38.4850   21.9340   35.3910 O   0  0  0  0  0  0  0  0  0  0  0  0
   39.9450   22.5190   37.1130 C   0  0  2  0  0  3  0  0  0  0  0  0
   39.4060   22.8930   35.7470 C   0  0  2  0  0  3  0  0  0  0  0  0
   38.6660   24.0770   35.9650 O   0  0  0  0  0  0  0  0  0  0  0  0
   37.9110   23.6880   37.0900 C   0  0  0  0  0  2  0  0  0  0  0  0
   39.0340   23.3140   38.0400 C   0  0  1  0  0  3  0  0  0  0  0  0
   41.2790   22.8470   37.2690 O   0  0  0  0  0  0  0  0  0  0  0  0
   41.6380   22.2260   37.9590 H   0  0  0  0  0  0  0  0  0  0  0  0
   38.5800   22.5380   39.1040 O   0  0  0  0  0  0  0  0  0  0  0  0
   39.3660   22.4480   39.7140 H   0  0  0  0  0  0  0  0  0  0  0  0
  2  7  1  0  0  0  0
  2  1  1  0  0  0  0
  3  2  2  0  0  0  0
  4  5  2  0  0  0  0
  4  3  1  0  0  0  0
  5  6  1  0  0  0  0
  6 10  1  0  0  0  0
  6  7  2  0  0  0  0
  7 20  1  0  0  0  0
  8  4  1  0  0  0  0
  9  5  1  0  0  0  0
 11 12  1  0  0  0  0
 12  3  1  0  0  0  0
 12 13  2  0  0  0  0
 13 18  1  0  0  0  0
 14 13  1  0  0  0  0
 15 14  2  0  0  0  0
 16 11  2  0  0  0  0
 16 15  1  0  0  0  0
 17 11  1  0  0  0  0
 19 15  1  0  0  0  0
 20 21  1  0  0  0  0
 20 22  1  0  0  0  0
 22 27  1  0  0  0  0
 23 24  1  0  0  0  0
 23 22  1  0  0  0  0
 25 22  1  0  0  0  0
 26 25  1  0  0  0  0
 28 33  1  6  0  0  0
 28 32  1  0  0  0  0
 29 27  1  1  0  0  0
 29 30  1  0  0  0  0
 29 28  1  0  0  0  0
 30 31  1  0  0  0  0
 31 32  1  0  0  0  0
 32 35  1  1  0  0  0
 33 34  1  0  0  0  0
 35 36  1  0  0  0  0
M  END
>  <minimizedAffinity>
-5.96698189

$$$$

 OpenBabel03262521063D

 36 38  0  0  1  0  0  0  0  0999 V2000
   35.8880   29.2020   34.4980 Br  0  0  0  0  0  0  0  0  0  0  0  0
   36.5490   28.2520   33.0140 C   0  0  0  0  0  0  0  0  0  0  0  0
   36.3350   28.8260   31.8040 C   0  0  0  0  0  0  0  0  0  0  0  0
   36.7950   28.1850   30.6410 C   0  0  0  0  0  0  0  0  0  0  0  0
   37.4630   26.9730   30.7500 C   0  0  0  0  0  0  0  0  0  0  0  0
   37.6410   26.4580   31.9940 C   0  0  0  0  0  0  0  0  0  0  0  0
   37.1980   27.0700   33.1460 C   0  0  0  0  0  0  0  0  0  0  0  0
   36.6640   28.5770   29.6470 H   0  0  0  0  0  0  0  0  0  0  0  0
   37.8250   26.4650   29.8630 H   0  0  0  0  0  0  0  0  0  0  0  0
   38.1610   25.5140   32.0830 H   0  0  0  0  0  0  0  0  0  0  0  0
   34.2730   30.2690   31.5450 C   0  0  0  0  0  0  0  0  0  0  0  0
   35.6490   30.0990   31.5090 C   0  0  0  0  0  0  0  0  0  0  0  0
   36.4560   31.2270   31.1640 C   0  0  0  0  0  0  0  0  0  0  0  0
   35.7930   32.3890   30.8970 N   0  0  0  0  0  0  0  0  0  0  0  0
   34.4610   32.4920   30.9490 C   0  0  0  0  0  0  0  0  0  0  0  0
   33.6890   31.4500   31.2690 N   0  0  0  0  0  0  0  0  0  0  0  0
   33.7010   29.3750   31.8140 H   0  0  0  0  0  0  0  0  0  0  0  0
   37.5270   31.1480   31.1220 H   0  0  0  0  0  0  0  0  0  0  0  0
   33.9230   33.4110   30.7380 H   0  0  0  0  0  0  0  0  0  0  0  0
   37.3790   26.5400   34.4530 N   0  0  0  0  0  0  0  0  0  0  0  0
   36.5590   25.9650   34.7630 H   0  0  0  0  0  0  0  0  0  0  0  0
   38.6450   26.6590   35.5830 S   0  0  0  0  0  0  0  0  0  0  0  0
   38.5240   27.8840   36.4200 O   0  0  0  0  0  0  0  0  0  0  0  0
   37.9700   28.0530   37.2090 H   0  0  0  0  0  0  0  0  0  0  0  0
   39.9660   26.7200   34.8550 O   0  0  0  0  0  0  0  0  0  0  0  0
   40.5370   27.5040   34.6860 H   0  0  0  0  0  0  0  0  0  0  0  0
   38.6030   25.2890   36.5750 O   0  0  0  0  0  0  0  0  0  0  0  0
   38.0860   23.0440   36.9370 C   0  0  2  0  0  3  0  0  0  0  0  0
   38.1280   24.1720   35.9260 C   0  0  2  0  0  3  0  0  0  0  0  0
   39.1380   23.7980   35.0120 O   0  0  0  0  0  0  0  0  0  0  0  0
   40.1610   23.4380   35.9130 C   0  0  0  0  0  2  0  0  0  0  0  0
   39.4360   22.3730   36.7150 C   0  0  1  0  0  3  0  0  0  0  0  0
   37.0240   22.1830   36.7330 O   0  0  0  0  0  0  0  0  0  0  0  0
   36.8290   21.7690   37.6170 H   0  0  0  0  0  0  0  0  0  0  0  0
   40.0790   22.0990   37.9200 O   0  0  0  0  0  0  0  0  0  0  0  0
   39.5890   21.3190   38.3060 H   0  0  0  0  0  0  0  0  0  0  0  0
  2  7  1  0  0  0  0
  2  1  1  0  0  0  0
  3  2  2  0  0  0  0
  4  5  2  0  0  0  0
  4  3  1  0  0  0  0
  5  6  1  0  0  0  0
  6 10  1  0  0  0  0
  6  7  2  0  0  0  0
  7 20  1  0  0  0  0
  8  4  1  0  0  0  0
  9  5  1  0  0  0  0
 11 17  1  0  0  0  0
 12 11  1  0  0  0  0
 12  3  1  0  0  0  0
 13 12  2  0  0  0  0
 14 15  2  0  0  0  0
 14 13  1  0  0  0  0
 15 16  1  0  0  0  0
 16 11  2  0  0  0  0
 18 13  1  0  0  0  0
 19 15  1  0  0  0  0
 20 21  1  0  0  0  0
 20 22  1  0  0  0  0
 22 23  1  0  0  0  0
 22 27  1  0  0  0  0
 23 24  1  0  0  0  0
 25 22  1  0  0  0  0
 26 25  1  0  0  0  0
 28 33  1  6  0  0  0
 29 27  1  1  0  0  0
 29 28  1  0  0  0  0
 30 31  1  0  0  0  0
 30 29  1  0  0  0  0
 31 32  1  0  0  0  0
 32 28  1  0  0  0  0
 32 35  1  1  0  0  0
 33 34  1  0  0  0  0
 35 36  1  0  0  0  0
M  END
>  <minimizedAffinity>
-5.83816147

$$$$

 OpenBabel03262521063D

 36 38  0  0  1  0  0  0  0  0999 V2000
   40.1010   26.7580   31.5320 Br  0  0  0  0  0  0  0  0  0  0  0  0
   38.4060   27.5220   31.8310 C   0  0  0  0  0  0  0  0  0  0  0  0
   37.9520   28.3480   30.8560 C   0  0  0  0  0  0  0  0  0  0  0  0
   36.6960   28.9620   30.9960 C   0  0  0  0  0  0  0  0  0  0  0  0
   35.9390   28.7120   32.1330 C   0  0  0  0  0  0  0  0  0  0  0  0
   36.4580   27.8740   33.0670 C   0  0  0  0  0  0  0  0  0  0  0  0
   37.6860   27.2620   32.9480 C   0  0  0  0  0  0  0  0  0  0  0  0
   36.2680   29.6280   30.2680 H   0  0  0  0  0  0  0  0  0  0  0  0
   34.9670   29.1770   32.2580 H   0  0  0  0  0  0  0  0  0  0  0  0
   35.8710   27.6760   33.9540 H   0  0  0  0  0  0  0  0  0  0  0  0
   38.8550   27.8420   28.5470 C   0  0  0  0  0  0  0  0  0  0  0  0
   38.6210   28.7210   29.5950 C   0  0  0  0  0  0  0  0  0  0  0  0
   39.0540   30.0740   29.4440 C   0  0  0  0  0  0  0  0  0  0  0  0
   39.6680   30.3880   28.2670 N   0  0  0  0  0  0  0  0  0  0  0  0
   39.8660   29.4950   27.2920 C   0  0  0  0  0  0  0  0  0  0  0  0
   39.4690   28.2260   27.4120 N   0  0  0  0  0  0  0  0  0  0  0  0
   38.5050   26.8180   28.7130 H   0  0  0  0  0  0  0  0  0  0  0  0
   38.8970   30.7960   30.2260 H   0  0  0  0  0  0  0  0  0  0  0  0
   40.3540   29.7340   26.3520 H   0  0  0  0  0  0  0  0  0  0  0  0
   38.2390   26.3830   33.9200 N   0  0  0  0  0  0  0  0  0  0  0  0
   38.1100   25.3760   33.6620 H   0  0  0  0  0  0  0  0  0  0  0  0
   39.0540   26.6520   35.3890 S   0  0  0  0  0  0  0  0  0  0  0  0
   38.5470   27.8660   36.0870 O   0  0  0  0  0  0  0  0  0  0  0  0
   37.7540   27.9820   36.6490 H   0  0  0  0  0  0  0  0  0  0  0  0
   40.5260   26.8500   35.1200 O   0  0  0  0  0  0  0  0  0  0  0  0
   41.0400   27.6890   35.1070 H   0  0  0  0  0  0  0  0  0  0  0  0
   38.8310   25.2970   36.3770 O   0  0  0  0  0  0  0  0  0  0  0  0
   38.3340   23.0370   36.6640 C   0  0  2  0  0  3  0  0  0  0  0  0
   38.5160   24.1620   35.6660 C   0  0  2  0  0  3  0  0  0  0  0  0
   39.6840   23.8190   34.9480 O   0  0  0  0  0  0  0  0  0  0  0  0
   40.5420   23.4980   36.0190 C   0  0  0  0  0  2  0  0  0  0  0  0
   39.7230   22.4120   36.6910 C   0  0  1  0  0  3  0  0  0  0  0  0
   37.3540   22.1390   36.2850 O   0  0  0  0  0  0  0  0  0  0  0  0
   37.0200   21.7220   37.1240 H   0  0  0  0  0  0  0  0  0  0  0  0
   40.1520   22.1660   37.9930 O   0  0  0  0  0  0  0  0  0  0  0  0
   39.6280   21.3700   38.2940 H   0  0  0  0  0  0  0  0  0  0  0  0
  1  2  1  0  0  0  0
  2  7  1  0  0  0  0
  3  4  1  0  0  0  0
  3  2  2  0  0  0  0
  4  5  2  0  0  0  0
  5  9  1  0  0  0  0
  5  6  1  0  0  0  0
  6 10  1  0  0  0  0
  7  6  2  0  0  0  0
  7 20  1  0  0  0  0
  8  4  1  0  0  0  0
 11 17  1  0  0  0  0
 11 12  1  0  0  0  0
 12  3  1  0  0  0  0
 13 12  2  0  0  0  0
 13 18  1  0  0  0  0
 14 13  1  0  0  0  0
 15 16  1  0  0  0  0
 15 14  2  0  0  0  0
 16 11  2  0  0  0  0
 19 15  1  0  0  0  0
 20 22  1  0  0  0  0
 21 20  1  0  0  0  0
 22 23  1  0  0  0  0
 22 27  1  0  0  0  0
 23 24  1  0  0  0  0
 25 22  1  0  0  0  0
 26 25  1  0  0  0  0
 28 33  1  6  0  0  0
 28 32  1  0  0  0  0
 29 27  1  1  0  0  0
 29 28  1  0  0  0  0
 30 29  1  0  0  0  0
 30 31  1  0  0  0  0
 31 32  1  0  0  0  0
 32 35  1  1  0  0  0
 33 34  1  0  0  0  0
 35 36  1  0  0  0  0
M  END
>  <minimizedAffinity>
-5.766078

$$$$

 OpenBabel03262521063D

 36 38  0  0  1  0  0  0  0  0999 V2000
   38.3820   26.8010   33.8570 Br  0  0  0  0  0  0  0  0  0  0  0  0
   37.4270   25.4820   32.9120 C   0  0  0  0  0  0  0  0  0  0  0  0
   36.5710   25.9400   31.9650 C   0  0  0  0  0  0  0  0  0  0  0  0
   35.8170   25.0250   31.2110 C   0  0  0  0  0  0  0  0  0  0  0  0
   35.9610   23.6640   31.4490 C   0  0  0  0  0  0  0  0  0  0  0  0
   36.8370   23.2790   32.4120 C   0  0  0  0  0  0  0  0  0  0  0  0
   37.5860   24.1600   33.1620 C   0  0  0  0  0  0  0  0  0  0  0  0
   35.1190   25.3100   30.4440 H   0  0  0  0  0  0  0  0  0  0  0  0
   35.3880   22.9440   30.8760 H   0  0  0  0  0  0  0  0  0  0  0  0
   36.9530   22.2200   32.6010 H   0  0  0  0  0  0  0  0  0  0  0  0
   35.4350   28.1790   32.2770 C   0  0  0  0  0  0  0  0  0  0  0  0
   36.2970   27.3390   31.5860 C   0  0  0  0  0  0  0  0  0  0  0  0
   36.9610   27.8610   30.4340 C   0  0  0  0  0  0  0  0  0  0  0  0
   36.6870   29.1570   30.1090 N   0  0  0  0  0  0  0  0  0  0  0  0
   35.8460   29.9190   30.8150 C   0  0  0  0  0  0  0  0  0  0  0  0
   35.2150   29.4510   31.8950 N   0  0  0  0  0  0  0  0  0  0  0  0
   34.9520   27.7310   33.1510 H   0  0  0  0  0  0  0  0  0  0  0  0
   37.6390   27.2520   29.8630 H   0  0  0  0  0  0  0  0  0  0  0  0
   35.6200   30.9510   30.5660 H   0  0  0  0  0  0  0  0  0  0  0  0
   38.5050   23.7680   34.1740 N   0  0  0  0  0  0  0  0  0  0  0  0
   39.4940   23.7540   33.8260 H   0  0  0  0  0  0  0  0  0  0  0  0
   38.3090   23.3300   35.8050 S   0  0  0  0  0  0  0  0  0  0  0  0
   37.5960   22.0300   35.9450 O   0  0  0  0  0  0  0  0  0  0  0  0
   37.9380   21.1160   35.8700 H   0  0  0  0  0  0  0  0  0  0  0  0
   37.4970   24.3860   36.5160 O   0  0  0  0  0  0  0  0  0  0  0  0
   36.5490   24.3570   36.7780 H   0  0  0  0  0  0  0  0  0  0  0  0
   39.8410   23.2140   36.5140 O   0  0  0  0  0  0  0  0  0  0  0  0
   41.6300   21.9310   37.2810 C   0  0  2  0  0  3  0  0  0  0  0  0
   40.3690   21.9450   36.4420 C   0  0  2  0  0  3  0  0  0  0  0  0
   40.8190   21.7880   35.1130 O   0  0  0  0  0  0  0  0  0  0  0  0
   41.8540   22.7450   35.0920 C   0  0  0  0  0  2  0  0  0  0  0  0
   42.7020   22.2350   36.2420 C   0  0  1  0  0  3  0  0  0  0  0  0
   41.8350   20.7210   37.9180 O   0  0  0  0  0  0  0  0  0  0  0  0
   42.3880   20.9210   38.7210 H   0  0  0  0  0  0  0  0  0  0  0  0
   43.6000   23.1990   36.6950 O   0  0  0  0  0  0  0  0  0  0  0  0
   44.1740   22.7270   37.3630 H   0  0  0  0  0  0  0  0  0  0  0  0
  2  7  1  0  0  0  0
  2  1  1  0  0  0  0
  3  2  2  0  0  0  0
  4  5  2  0  0  0  0
  4  3  1  0  0  0  0
  5  6  1  0  0  0  0
  6 10  1  0  0  0  0
  6  7  2  0  0  0  0
  7 20  1  0  0  0  0
  8  4  1  0  0  0  0
  9  5  1  0  0  0  0
 11 17  1  0  0  0  0
 12  3  1  0  0  0  0
 12 11  2  0  0  0  0
 13 12  1  0  0  0  0
 14 13  2  0  0  0  0
 14 15  1  0  0  0  0
 15 16  2  0  0  0  0
 16 11  1  0  0  0  0
 18 13  1  0  0  0  0
 19 15  1  0  0  0  0
 20 22  1  0  0  0  0
 21 20  1  0  0  0  0
 22 23  1  0  0  0  0
 22 27  1  0  0  0  0
 22 25  1  0  0  0  0
 24 23  1  0  0  0  0
 25 26  1  0  0  0  0
 28 33  1  6  0  0  0
 29 27  1  6  0  0  0
 29 28  1  0  0  0  0
 30 29  1  0  0  0  0
 31 30  1  0  0  0  0
 31 32  1  0  0  0  0
 32 35  1  1  0  0  0
 32 28  1  0  0  0  0
 33 34  1  0  0  0  0
 35 36  1  0  0  0  0
M  END
>  <minimizedAffinity>
-5.46995592

$$$$

 OpenBabel03262521063D

 36 38  0  0  1  0  0  0  0  0999 V2000
   40.1440   25.3320   32.0270 Br  0  0  0  0  0  0  0  0  0  0  0  0
   39.3730   26.0330   33.5950 C   0  0  0  0  0  0  0  0  0  0  0  0
   38.0210   25.9530   33.6730 C   0  0  0  0  0  0  0  0  0  0  0  0
   37.3620   26.4520   34.8090 C   0  0  0  0  0  0  0  0  0  0  0  0
   38.1060   27.0200   35.8340 C   0  0  0  0  0  0  0  0  0  0  0  0
   39.4550   27.0660   35.6860 C   0  0  0  0  0  0  0  0  0  0  0  0
   40.1200   26.5820   34.5820 C   0  0  0  0  0  0  0  0  0  0  0  0
   36.2940   26.4240   34.9440 H   0  0  0  0  0  0  0  0  0  0  0  0
   37.6130   27.4090   36.7180 H   0  0  0  0  0  0  0  0  0  0  0  0
   40.0380   27.5080   36.4830 H   0  0  0  0  0  0  0  0  0  0  0  0
   36.3020   26.1460   31.8260 C   0  0  0  0  0  0  0  0  0  0  0  0
   37.0850   25.3860   32.6840 C   0  0  0  0  0  0  0  0  0  0  0  0
   36.9760   23.9630   32.6050 C   0  0  0  0  0  0  0  0  0  0  0  0
   36.1020   23.4700   31.6820 N   0  0  0  0  0  0  0  0  0  0  0  0
   35.3750   24.2550   30.8810 C   0  0  0  0  0  0  0  0  0  0  0  0
   35.4600   25.5860   30.9380 N   0  0  0  0  0  0  0  0  0  0  0  0
   36.4220   27.2300   31.9270 H   0  0  0  0  0  0  0  0  0  0  0  0
   37.5600   23.3280   33.2480 H   0  0  0  0  0  0  0  0  0  0  0  0
   34.6760   23.8730   30.1430 H   0  0  0  0  0  0  0  0  0  0  0  0
   41.5320   26.6260   34.4160 N   0  0  0  0  0  0  0  0  0  0  0  0
   41.8460   27.4960   33.9230 H   0  0  0  0  0  0  0  0  0  0  0  0
   42.7800   25.5590   34.8590 S   0  0  0  0  0  0  0  0  0  0  0  0
   43.8640   26.2570   35.6050 O   0  0  0  0  0  0  0  0  0  0  0  0
   43.9130   26.5100   36.5500 H   0  0  0  0  0  0  0  0  0  0  0  0
   43.3870   24.9490   33.6190 O   0  0  0  0  0  0  0  0  0  0  0  0
   44.2370   25.1750   33.1780 H   0  0  0  0  0  0  0  0  0  0  0  0
   42.1190   24.3410   35.8300 O   0  0  0  0  0  0  0  0  0  0  0  0
   40.3360   22.8390   35.8750 C   0  0  2  0  0  3  0  0  0  0  0  0
   41.5420   23.3280   35.0990 C   0  0  2  0  0  3  0  0  0  0  0  0
   42.4560   22.2520   35.1390 O   0  0  0  0  0  0  0  0  0  0  0  0
   42.4100   21.9450   36.5150 C   0  0  0  0  0  2  0  0  0  0  0  0
   40.9240   21.6800   36.6710 C   0  0  1  0  0  3  0  0  0  0  0  0
   39.2950   22.4480   35.0550 O   0  0  0  0  0  0  0  0  0  0  0  0
   38.4640   22.5510   35.5930 H   0  0  0  0  0  0  0  0  0  0  0  0
   40.5250   21.7160   38.0050 O   0  0  0  0  0  0  0  0  0  0  0  0
   39.5710   21.4210   38.0000 H   0  0  0  0  0  0  0  0  0  0  0  0
  1  2  1  0  0  0  0
  2  3  2  0  0  0  0
  2  7  1  0  0  0  0
  3  4  1  0  0  0  0
  4  8  1  0  0  0  0
  4  5  2  0  0  0  0
  5  9  1  0  0  0  0
  6  5  1  0  0  0  0
  6 10  1  0  0  0  0
  7  6  2  0  0  0  0
 11 17  1  0  0  0  0
 11 12  1  0  0  0  0
 12  3  1  0  0  0  0
 13 12  2  0  0  0  0
 13 18  1  0  0  0  0
 14 13  1  0  0  0  0
 15 16  1  0  0  0  0
 15 14  2  0  0  0  0
 16 11  2  0  0  0  0
 19 15  1  0  0  0  0
 20  7  1  0  0  0  0
 20 22  1  0  0  0  0
 21 20  1  0  0  0  0
 22 23  1  0  0  0  0
 22 27  1  0  0  0  0
 23 24  1  0  0  0  0
 25 22  1  0  0  0  0
 26 25  1  0  0  0  0
 28 33  1  6  0  0  0
 28 32  1  0  0  0  0
 29 30  1  0  0  0  0
 29 27  1  1  0  0  0
 29 28  1  0  0  0  0
 30 31  1  0  0  0  0
 31 32  1  0  0  0  0
 32 35  1  1  0  0  0
 33 34  1  0  0  0  0
 36 35  1  0  0  0  0
M  END
>  <minimizedAffinity>
-5.4694128

$$$$

 OpenBabel03262521063D

 36 38  0  0  1  0  0  0  0  0999 V2000
   38.6210   26.7870   34.9720 Br  0  0  0  0  0  0  0  0  0  0  0  0
   38.2160   25.3010   33.8900 C   0  0  0  0  0  0  0  0  0  0  0  0
   38.1870   24.1020   34.5240 C   0  0  0  0  0  0  0  0  0  0  0  0
   37.8930   22.9380   33.7940 C   0  0  0  0  0  0  0  0  0  0  0  0
   37.6360   23.0350   32.4330 C   0  0  0  0  0  0  0  0  0  0  0  0
   37.6830   24.2680   31.8660 C   0  0  0  0  0  0  0  0  0  0  0  0
   37.9690   25.4200   32.5640 C   0  0  0  0  0  0  0  0  0  0  0  0
   37.8500   21.9530   34.2250 H   0  0  0  0  0  0  0  0  0  0  0  0
   37.4070   22.1470   31.8530 H   0  0  0  0  0  0  0  0  0  0  0  0
   37.4840   24.3480   30.8050 H   0  0  0  0  0  0  0  0  0  0  0  0
   37.5320   24.1040   36.9690 C   0  0  0  0  0  0  0  0  0  0  0  0
   38.4330   23.8210   35.9510 C   0  0  0  0  0  0  0  0  0  0  0  0
   39.6790   23.2190   36.3080 C   0  0  0  0  0  0  0  0  0  0  0  0
   39.8770   22.9720   37.6350 N   0  0  0  0  0  0  0  0  0  0  0  0
   38.9690   23.2670   38.5700 C   0  0  0  0  0  0  0  0  0  0  0  0
   37.7990   23.8290   38.2590 N   0  0  0  0  0  0  0  0  0  0  0  0
   36.5940   24.5640   36.6420 H   0  0  0  0  0  0  0  0  0  0  0  0
   40.4120   22.9800   35.5590 H   0  0  0  0  0  0  0  0  0  0  0  0
   39.1160   23.0750   39.6290 H   0  0  0  0  0  0  0  0  0  0  0  0
   38.0210   26.7170   31.9810 N   0  0  0  0  0  0  0  0  0  0  0  0
   39.0010   27.0820   31.9170 H   0  0  0  0  0  0  0  0  0  0  0  0
   36.8220   27.7610   31.3780 S   0  0  0  0  0  0  0  0  0  0  0  0
   36.0550   27.1360   30.2650 O   0  0  0  0  0  0  0  0  0  0  0  0
   35.3110   26.5010   30.2950 H   0  0  0  0  0  0  0  0  0  0  0  0
   37.4670   29.0190   30.8510 O   0  0  0  0  0  0  0  0  0  0  0  0
   37.6380   29.2760   29.9170 H   0  0  0  0  0  0  0  0  0  0  0  0
   35.7680   28.1470   32.6450 O   0  0  0  0  0  0  0  0  0  0  0  0
   35.2900   29.5700   34.4290 C   0  0  2  0  0  3  0  0  0  0  0  0
   35.8480   29.4670   33.0250 C   0  0  2  0  0  3  0  0  0  0  0  0
   34.9200   30.1600   32.2170 O   0  0  0  0  0  0  0  0  0  0  0  0
   33.7180   29.5930   32.6870 C   0  0  0  0  0  2  0  0  0  0  0  0
   33.8330   29.9280   34.1620 C   0  0  1  0  0  3  0  0  0  0  0  0
   35.9390   30.5200   35.1950 O   0  0  0  0  0  0  0  0  0  0  0  0
   35.8210   30.2400   36.1430 H   0  0  0  0  0  0  0  0  0  0  0  0
   32.9640   29.1650   34.9390 O   0  0  0  0  0  0  0  0  0  0  0  0
   33.0410   29.5420   35.8620 H   0  0  0  0  0  0  0  0  0  0  0  0
  2  3  1  0  0  0  0
  2  1  1  0  0  0  0
  3 12  1  0  0  0  0
  4  8  1  0  0  0  0
  4  3  2  0  0  0  0
  5  4  1  0  0  0  0
  6  5  2  0  0  0  0
  6  7  1  0  0  0  0
  7  2  2  0  0  0  0
  9  5  1  0  0  0  0
 10  6  1  0  0  0  0
 11 16  1  0  0  0  0
 12 13  1  0  0  0  0
 12 11  2  0  0  0  0
 13 14  2  0  0  0  0
 14 15  1  0  0  0  0
 15 19  1  0  0  0  0
 16 15  2  0  0  0  0
 17 11  1  0  0  0  0
 18 13  1  0  0  0  0
 20  7  1  0  0  0  0
 21 20  1  0  0  0  0
 22 20  1  0  0  0  0
 22 27  1  0  0  0  0
 23 24  1  0  0  0  0
 23 22  1  0  0  0  0
 25 22  1  0  0  0  0
 26 25  1  0  0  0  0
 28 33  1  1  0  0  0
 29 27  1  6  0  0  0
 29 28  1  0  0  0  0
 30 31  1  0  0  0  0
 30 29  1  0  0  0  0
 31 32  1  0  0  0  0
 32 28  1  0  0  0  0
 32 35  1  1  0  0  0
 33 34  1  0  0  0  0
 35 36  1  0  0  0  0
M  END
>  <minimizedAffinity>
-5.45166349

$$$$

 OpenBabel03262521063D

 36 38  0  0  1  0  0  0  0  0999 V2000
   38.1110   23.8710   32.9360 Br  0  0  0  0  0  0  0  0  0  0  0  0
   38.0590   25.3770   34.0640 C   0  0  0  0  0  0  0  0  0  0  0  0
   38.7960   25.2880   35.1990 C   0  0  0  0  0  0  0  0  0  0  0  0
   38.8150   26.3670   36.0990 C   0  0  0  0  0  0  0  0  0  0  0  0
   38.0780   27.5080   35.8110 C   0  0  0  0  0  0  0  0  0  0  0  0
   37.3630   27.5250   34.6570 C   0  0  0  0  0  0  0  0  0  0  0  0
   37.3310   26.4790   33.7610 C   0  0  0  0  0  0  0  0  0  0  0  0
   39.3750   26.3730   37.0180 H   0  0  0  0  0  0  0  0  0  0  0  0
   38.0810   28.3500   36.4950 H   0  0  0  0  0  0  0  0  0  0  0  0
   36.7870   28.4120   34.4290 H   0  0  0  0  0  0  0  0  0  0  0  0
   39.1670   23.1180   36.4460 C   0  0  0  0  0  0  0  0  0  0  0  0
   39.6310   24.1610   35.6560 C   0  0  0  0  0  0  0  0  0  0  0  0
   41.0040   24.1430   35.2610 C   0  0  0  0  0  0  0  0  0  0  0  0
   41.7490   23.0890   35.6990 N   0  0  0  0  0  0  0  0  0  0  0  0
   41.2450   22.1110   36.4600 C   0  0  0  0  0  0  0  0  0  0  0  0
   39.9650   22.1090   36.8410 N   0  0  0  0  0  0  0  0  0  0  0  0
   38.1090   23.1800   36.7220 H   0  0  0  0  0  0  0  0  0  0  0  0
   41.4130   24.9270   34.6490 H   0  0  0  0  0  0  0  0  0  0  0  0
   41.8290   21.2680   36.8150 H   0  0  0  0  0  0  0  0  0  0  0  0
   36.5860   26.4860   32.5500 N   0  0  0  0  0  0  0  0  0  0  0  0
   36.2010   25.5390   32.3170 H   0  0  0  0  0  0  0  0  0  0  0  0
   36.2090   27.7120   31.4330 S   0  0  0  0  0  0  0  0  0  0  0  0
   36.1640   27.1920   30.0380 O   0  0  0  0  0  0  0  0  0  0  0  0
   35.4490   26.7160   29.5690 H   0  0  0  0  0  0  0  0  0  0  0  0
   37.2610   28.7920   31.4950 O   0  0  0  0  0  0  0  0  0  0  0  0
   38.0030   28.9610   30.8710 H   0  0  0  0  0  0  0  0  0  0  0  0
   34.7000   28.3600   31.8440 O   0  0  0  0  0  0  0  0  0  0  0  0
   33.3730   29.4700   33.4070 C   0  0  2  0  0  3  0  0  0  0  0  0
   34.7740   29.2830   32.8620 C   0  0  2  0  0  3  0  0  0  0  0  0
   35.0870   30.5150   32.2440 O   0  0  0  0  0  0  0  0  0  0  0  0
   33.9110   30.7150   31.4920 C   0  0  0  0  0  2  0  0  0  0  0  0
   32.8800   30.6680   32.6050 C   0  0  1  0  0  3  0  0  0  0  0  0
   33.3560   29.7000   34.7700 O   0  0  0  0  0  0  0  0  0  0  0  0
   32.4640   29.3970   35.0910 H   0  0  0  0  0  0  0  0  0  0  0  0
   31.5930   30.4640   32.1140 O   0  0  0  0  0  0  0  0  0  0  0  0
   30.9930   30.5630   32.9070 H   0  0  0  0  0  0  0  0  0  0  0  0
  1  2  1  0  0  0  0
  2  3  1  0  0  0  0
  3 12  1  0  0  0  0
  3  4  2  0  0  0  0
  4  8  1  0  0  0  0
  5  4  1  0  0  0  0
  5  9  1  0  0  0  0
  6  5  2  0  0  0  0
  7  2  2  0  0  0  0
  7  6  1  0  0  0  0
 10  6  1  0  0  0  0
 11 17  1  0  0  0  0
 11 16  1  0  0  0  0
 12 11  2  0  0  0  0
 13 12  1  0  0  0  0
 13 14  2  0  0  0  0
 14 15  1  0  0  0  0
 15 19  1  0  0  0  0
 15 16  2  0  0  0  0
 18 13  1  0  0  0  0
 20  7  1  0  0  0  0
 21 20  1  0  0  0  0
 22 25  1  0  0  0  0
 22 27  1  0  0  0  0
 22 20  1  0  0  0  0
 23 22  1  0  0  0  0
 24 23  1  0  0  0  0
 26 25  1  0  0  0  0
 28 33  1  1  0  0  0
 29 27  1  6  0  0  0
 29 28  1  0  0  0  0
 30 29  1  0  0  0  0
 31 30  1  0  0  0  0
 31 32  1  0  0  0  0
 32 35  1  6  0  0  0
 32 28  1  0  0  0  0
 33 34  1  0  0  0  0
 35 36  1  0  0  0  0
M  END
>  <minimizedAffinity>
-5.4317627

$$$$

 OpenBabel03262521063D

 36 38  0  0  1  0  0  0  0  0999 V2000
   38.0200   23.6240   33.3800 Br  0  0  0  0  0  0  0  0  0  0  0  0
   37.9380   25.2890   34.2530 C   0  0  0  0  0  0  0  0  0  0  0  0
   38.5560   25.3530   35.4580 C   0  0  0  0  0  0  0  0  0  0  0  0
   38.5450   26.5580   36.1810 C   0  0  0  0  0  0  0  0  0  0  0  0
   37.8980   27.6660   35.6470 C   0  0  0  0  0  0  0  0  0  0  0  0
   37.3010   27.5280   34.4360 C   0  0  0  0  0  0  0  0  0  0  0  0
   37.3020   26.3560   33.7120 C   0  0  0  0  0  0  0  0  0  0  0  0
   39.0130   26.6880   37.1410 H   0  0  0  0  0  0  0  0  0  0  0  0
   37.8800   28.6040   36.1910 H   0  0  0  0  0  0  0  0  0  0  0  0
   36.7970   28.3880   34.0170 H   0  0  0  0  0  0  0  0  0  0  0  0
   40.5250   23.7970   35.7820 C   0  0  0  0  0  0  0  0  0  0  0  0
   39.2830   24.2820   36.1660 C   0  0  0  0  0  0  0  0  0  0  0  0
   38.6670   23.7090   37.3220 C   0  0  0  0  0  0  0  0  0  0  0  0
   39.3630   22.7210   37.9540 N   0  0  0  0  0  0  0  0  0  0  0  0
   40.5600   22.2960   37.5360 C   0  0  0  0  0  0  0  0  0  0  0  0
   41.1520   22.8170   36.4590 N   0  0  0  0  0  0  0  0  0  0  0  0
   40.9520   24.2690   34.8920 H   0  0  0  0  0  0  0  0  0  0  0  0
   37.7060   24.0490   37.6610 H   0  0  0  0  0  0  0  0  0  0  0  0
   41.1220   21.5100   38.0320 H   0  0  0  0  0  0  0  0  0  0  0  0
   36.6790   26.2000   32.4430 N   0  0  0  0  0  0  0  0  0  0  0  0
   35.6830   25.8850   32.5280 H   0  0  0  0  0  0  0  0  0  0  0  0
   37.2310   26.4230   30.8500 S   0  0  0  0  0  0  0  0  0  0  0  0
   36.3010   27.2770   30.0590 O   0  0  0  0  0  0  0  0  0  0  0  0
   36.2130   28.2510   30.0330 H   0  0  0  0  0  0  0  0  0  0  0  0
   37.3370   25.0850   30.1600 O   0  0  0  0  0  0  0  0  0  0  0  0
   36.7260   24.6860   29.5000 H   0  0  0  0  0  0  0  0  0  0  0  0
   38.7550   27.1560   30.9140 O   0  0  0  0  0  0  0  0  0  0  0  0
   40.6250   26.2350   31.9590 C   0  0  2  0  0  3  0  0  0  0  0  0
   39.7850   26.2680   30.6990 C   0  0  2  0  0  3  0  0  0  0  0  0
   40.6170   26.8680   29.7280 O   0  0  0  0  0  0  0  0  0  0  0  0
   41.0800   27.9810   30.4580 C   0  0  0  0  0  2  0  0  0  0  0  0
   41.6990   27.2700   31.6480 C   0  0  1  0  0  3  0  0  0  0  0  0
   41.1520   24.9840   32.2180 O   0  0  0  0  0  0  0  0  0  0  0  0
   41.3050   24.9450   33.2010 H   0  0  0  0  0  0  0  0  0  0  0  0
   41.9080   28.1340   32.7200 O   0  0  0  0  0  0  0  0  0  0  0  0
   42.4140   27.5960   33.3930 H   0  0  0  0  0  0  0  0  0  0  0  0
  1  2  1  0  0  0  0
  2  3  1  0  0  0  0
  3 12  1  0  0  0  0
  3  4  2  0  0  0  0
  4  8  1  0  0  0  0
  5  4  1  0  0  0  0
  5  9  1  0  0  0  0
  6  5  2  0  0  0  0
  7  2  2  0  0  0  0
  7  6  1  0  0  0  0
 10  6  1  0  0  0  0
 11 12  2  0  0  0  0
 11 16  1  0  0  0  0
 12 13  1  0  0  0  0
 13 18  1  0  0  0  0
 13 14  2  0  0  0  0
 15 14  1  0  0  0  0
 15 19  1  0  0  0  0
 16 15  2  0  0  0  0
 17 11  1  0  0  0  0
 20 21  1  0  0  0  0
 20  7  1  0  0  0  0
 22 27  1  0  0  0  0
 22 20  1  0  0  0  0
 23 22  1  0  0  0  0
 24 23  1  0  0  0  0
 25 22  1  0  0  0  0
 26 25  1  0  0  0  0
 28 33  1  6  0  0  0
 29 27  1  1  0  0  0
 29 28  1  0  0  0  0
 30 31  1  0  0  0  0
 30 29  1  0  0  0  0
 31 32  1  0  0  0  0
 32 28  1  0  0  0  0
 32 35  1  1  0  0  0
 33 34  1  0  0  0  0
 35 36  1  0  0  0  0
M  END
>  <minimizedAffinity>
-5.3800168

$$$$

 OpenBabel03262521063D

 36 38  0  0  1  0  0  0  0  0999 V2000
   35.9790   30.7340   30.8240 Br  0  0  0  0  0  0  0  0  0  0  0  0
   36.3730   29.3820   32.0740 C   0  0  0  0  0  0  0  0  0  0  0  0
   37.3340   28.5000   31.7040 C   0  0  0  0  0  0  0  0  0  0  0  0
   37.6910   27.4580   32.5760 C   0  0  0  0  0  0  0  0  0  0  0  0
   37.0530   27.3490   33.8040 C   0  0  0  0  0  0  0  0  0  0  0  0
   36.1010   28.2680   34.1070 C   0  0  0  0  0  0  0  0  0  0  0  0
   35.7370   29.2970   33.2670 C   0  0  0  0  0  0  0  0  0  0  0  0
   38.4430   26.7200   32.3550 H   0  0  0  0  0  0  0  0  0  0  0  0
   37.3170   26.5510   34.4900 H   0  0  0  0  0  0  0  0  0  0  0  0
   35.6020   28.1870   35.0630 H   0  0  0  0  0  0  0  0  0  0  0  0
   39.4790   28.2800   30.3790 C   0  0  0  0  0  0  0  0  0  0  0  0
   38.1060   28.4690   30.4470 C   0  0  0  0  0  0  0  0  0  0  0  0
   37.3930   28.6450   29.2210 C   0  0  0  0  0  0  0  0  0  0  0  0
   38.1340   28.6110   28.0760 N   0  0  0  0  0  0  0  0  0  0  0  0
   39.4580   28.4240   28.0750 C   0  0  0  0  0  0  0  0  0  0  0  0
   40.1430   28.2580   29.2090 N   0  0  0  0  0  0  0  0  0  0  0  0
   39.9770   28.1500   31.3460 H   0  0  0  0  0  0  0  0  0  0  0  0
   36.3280   28.7950   29.2170 H   0  0  0  0  0  0  0  0  0  0  0  0
   40.0570   28.3960   27.1710 H   0  0  0  0  0  0  0  0  0  0  0  0
   34.7400   30.2650   33.5730 N   0  0  0  0  0  0  0  0  0  0  0  0
   35.1550   31.1980   33.8070 H   0  0  0  0  0  0  0  0  0  0  0  0
   33.0420   30.1960   33.6270 S   0  0  0  0  0  0  0  0  0  0  0  0
   32.4600   29.8620   32.2980 O   0  0  0  0  0  0  0  0  0  0  0  0
   32.3580   28.9930   31.8580 H   0  0  0  0  0  0  0  0  0  0  0  0
   32.4960   31.5380   34.0510 O   0  0  0  0  0  0  0  0  0  0  0  0
   32.0820   32.2350   33.4930 H   0  0  0  0  0  0  0  0  0  0  0  0
   32.5930   29.0160   34.7540 O   0  0  0  0  0  0  0  0  0  0  0  0
   31.8030   28.5980   36.9070 C   0  0  2  0  0  3  0  0  0  0  0  0
   31.6850   29.4770   35.6790 C   0  0  2  0  0  3  0  0  0  0  0  0
   30.4090   29.1840   35.1480 O   0  0  0  0  0  0  0  0  0  0  0  0
   30.4540   27.7750   35.1730 C   0  0  0  0  0  2  0  0  0  0  0  0
   30.7270   27.5500   36.6480 C   0  0  1  0  0  3  0  0  0  0  0  0
   31.5960   29.2930   38.0840 O   0  0  0  0  0  0  0  0  0  0  0  0
   32.0830   28.7900   38.7920 H   0  0  0  0  0  0  0  0  0  0  0  0
   31.1930   26.2620   36.9020 O   0  0  0  0  0  0  0  0  0  0  0  0
   31.2300   26.1890   37.8970 H   0  0  0  0  0  0  0  0  0  0  0  0
  1  2  1  0  0  0  0
  2  7  1  0  0  0  0
  3  2  2  0  0  0  0
  3  4  1  0  0  0  0
  4  5  2  0  0  0  0
  5  6  1  0  0  0  0
  5  9  1  0  0  0  0
  6 10  1  0  0  0  0
  7 20  1  0  0  0  0
  7  6  2  0  0  0  0
  8  4  1  0  0  0  0
 11 12  1  0  0  0  0
 11 17  1  0  0  0  0
 12  3  1  0  0  0  0
 13 12  2  0  0  0  0
 14 13  1  0  0  0  0
 15 14  2  0  0  0  0
 15 16  1  0  0  0  0
 16 11  2  0  0  0  0
 18 13  1  0  0  0  0
 19 15  1  0  0  0  0
 20 22  1  0  0  0  0
 20 21  1  0  0  0  0
 22 25  1  0  0  0  0
 22 27  1  0  0  0  0
 23 22  1  0  0  0  0
 24 23  1  0  0  0  0
 26 25  1  0  0  0  0
 28 33  1  1  0  0  0
 29 27  1  6  0  0  0
 29 28  1  0  0  0  0
 30 31  1  0  0  0  0
 30 29  1  0  0  0  0
 31 32  1  0  0  0  0
 32 35  1  6  0  0  0
 32 28  1  0  0  0  0
 33 34  1  0  0  0  0
 35 36  1  0  0  0  0
M  END
>  <minimizedAffinity>
-5.3793869

$$$$
