
 OpenBabel03272508263D

 38 41  0  0  1  0  0  0  0  0999 V2000
   33.8530   28.9270   47.2490 C   0  0  2  0  0  0  0  0  0  0  0  0
   34.5720   28.1490   48.3390 C   0  0  2  0  0  0  0  0  0  0  0  0
   33.6570   27.9730   49.3320 O   0  0  0  0  0  0  0  0  0  0  0  0
   32.3910   28.0440   48.8420 C   0  0  0  0  0  0  0  0  0  0  0  0
   32.4740   28.2660   47.3480 C   0  0  1  0  0  0  0  0  0  0  0  0
   33.7520   29.9940   47.4810 H   0  0  0  0  0  0  0  0  0  0  0  0
   34.8530   27.1690   47.9430 H   0  0  0  0  0  0  0  0  0  0  0  0
   31.9110   27.0480   48.9890 H   0  0  0  0  0  0  0  0  0  0  0  0
   31.7530   28.8040   49.3540 H   0  0  0  0  0  0  0  0  0  0  0  0
   32.5270   27.3180   46.8000 H   0  0  0  0  0  0  0  0  0  0  0  0
   35.6420   30.3950   49.0420 C   0  0  1  0  0  0  0  0  0  0  0  0
   35.7350   28.9790   48.7810 C   0  0  1  0  0  0  0  0  0  0  0  0
   35.8910   29.4160   50.2000 C   0  0  0  0  0  0  0  0  0  0  0  0
   34.7280   30.9780   49.2570 H   0  0  0  0  0  0  0  0  0  0  0  0
   36.6980   28.6250   48.3130 H   0  0  0  0  0  0  0  0  0  0  0  0
   36.8750   29.4160   50.6860 H   0  0  0  0  0  0  0  0  0  0  0  0
   35.0590   29.1180   50.8490 H   0  0  0  0  0  0  0  0  0  0  0  0
   36.8280   31.3180   48.8240 C   0  0  0  0  0  0  0  0  0  0  0  0
   37.0380   32.3400   49.7520 C   0  0  0  0  0  0  0  0  0  0  0  0
   38.1140   33.1620   49.4970 C   0  0  0  0  0  0  0  0  0  0  0  0
   38.9090   32.9650   48.3970 N   0  0  0  0  0  0  0  0  0  0  0  0
   38.6720   31.9610   47.5170 C   0  0  0  0  0  0  0  0  0  0  0  0
   37.6170   31.1270   47.7350 N   0  0  0  0  0  0  0  0  0  0  0  0
   36.3890   32.4560   50.6000 H   0  0  0  0  0  0  0  0  0  0  0  0
   38.3290   33.9780   50.1880 H   0  0  0  0  0  0  0  0  0  0  0  0
   39.2950   31.8010   46.6470 H   0  0  0  0  0  0  0  0  0  0  0  0
   34.4020   28.7700   45.9930 O   0  0  0  0  0  0  0  0  0  0  0  0
   35.0680   28.0460   46.0330 H   0  0  0  0  0  0  0  0  0  0  0  0
   31.4880   29.0620   46.8350 O   0  0  0  0  0  0  0  0  0  0  0  0
   30.9340   29.6230   44.6180 C   0  0  2  0  0  3  0  0  0  0  0  0
   30.8970   28.5720   45.6880 C   0  0  1  0  0  3  0  0  0  0  0  0
   31.6520   27.4990   45.2420 O   0  0  0  0  0  0  0  0  0  0  0  0
   31.7520   27.5670   43.8810 C   0  0  0  0  0  2  0  0  0  0  0  0
   31.0180   28.7650   43.3730 C   0  0  2  0  0  3  0  0  0  0  0  0
   32.0390   30.4620   44.7110 O   0  0  0  0  0  0  0  0  0  0  0  0
   32.8150   30.0610   45.1400 H   0  0  0  0  0  0  0  0  0  0  0  0
   31.6800   29.4190   42.3390 O   0  0  0  0  0  0  0  0  0  0  0  0
   32.3150   30.0930   42.6790 H   0  0  0  0  0  0  0  0  0  0  0  0
  1  5  1  0  0  0  0
  1  6  1  1  0  0  0
  1  2  1  0  0  0  0
  2  7  1  6  0  0  0
  2 12  1  0  0  0  0
  2  3  1  0  0  0  0
  4  8  1  0  0  0  0
  4  3  1  0  0  0  0
  4  9  1  0  0  0  0
  5 10  1  6  0  0  0
  5  4  1  0  0  0  0
 11 14  1  6  0  0  0
 11 13  1  0  0  0  0
 12 15  1  6  0  0  0
 12 11  1  0  0  0  0
 12 13  1  0  0  0  0
 13 16  1  0  0  0  0
 13 17  1  0  0  0  0
 18 11  1  0  0  0  0
 18 19  1  0  0  0  0
 19 24  1  0  0  0  0
 20 19  2  0  0  0  0
 20 25  1  0  0  0  0
 21 20  1  0  0  0  0
 22 23  1  0  0  0  0
 22 21  2  0  0  0  0
 23 18  2  0  0  0  0
 26 22  1  0  0  0  0
 27 28  1  0  0  0  0
 27  1  1  0  0  0  0
 29  5  1  0  0  0  0
 30 35  1  1  0  0  0
 30 31  1  0  0  0  0
 31 29  1  1  0  0  0
 32 31  1  0  0  0  0
 33 32  1  0  0  0  0
 34 37  1  6  0  0  0
 34 33  1  0  0  0  0
 34 30  1  0  0  0  0
 35 36  1  0  0  0  0
 37 38  1  0  0  0  0
M  END
>  <minimizedAffinity>
-4.76964617

>  <minimizedRMSD>
1.01866257

$$$$
