
 OpenBabel03272509453D

 19 20  0  0  1  0  0  0  0  0999 V2000
   36.9880   30.4520   48.2730 O   0  0  0  0  0  0  0  0  0  0  0  0
   39.3470   33.0830   47.4060 C   0  0  0  0  0  0  0  0  0  0  0  0
   39.9250   32.4830   46.2620 C   0  0  0  0  0  0  0  0  0  0  0  0
   39.4850   31.2230   45.8490 C   0  0  0  0  0  0  0  0  0  0  0  0
   38.4960   30.6300   46.5940 N   0  0  0  0  0  0  0  0  0  0  0  0
   37.9630   31.2260   47.6800 C   0  0  0  0  0  0  0  0  0  0  0  0
   38.3930   32.4490   48.0780 N   0  0  0  0  0  0  0  0  0  0  0  0
   39.6730   34.0570   47.7430 H   0  0  0  0  0  0  0  0  0  0  0  0
   40.7110   33.0170   45.7170 H   0  0  0  0  0  0  0  0  0  0  0  0
   39.8980   30.7450   44.9950 H   0  0  0  0  0  0  0  0  0  0  0  0
   34.9280   30.6050   49.5740 C   0  0  2  0  0  3  0  0  0  0  0  0
   36.3470   31.0370   49.3950 C   0  0  1  0  0  3  0  0  0  0  0  0
   37.0120   30.5440   50.5130 O   0  0  0  0  0  0  0  0  0  0  0  0
   36.5830   29.2180   50.5550 C   0  0  0  0  0  2  0  0  0  0  0  0
   35.0800   29.3680   50.4670 C   0  0  2  0  0  3  0  0  0  0  0  0
   34.2700   30.3200   48.3950 O   0  0  0  0  0  0  0  0  0  0  0  0
   33.3780   30.7910   48.4250 H   0  0  0  0  0  0  0  0  0  0  0  0
   34.5350   28.2540   49.8270 O   0  0  0  0  0  0  0  0  0  0  0  0
   35.2720   27.7240   49.3880 H   0  0  0  0  0  0  0  0  0  0  0  0
  2  8  1  0  0  0  0
  2  7  1  0  0  0  0
  3  2  2  0  0  0  0
  4  3  1  0  0  0  0
  4  5  2  0  0  0  0
  5  6  1  0  0  0  0
  6  7  2  0  0  0  0
  6  1  1  0  0  0  0
  9  3  1  0  0  0  0
 10  4  1  0  0  0  0
 11 16  1  6  0  0  0
 11 15  1  0  0  0  0
 12  1  1  6  0  0  0
 12 11  1  0  0  0  0
 12 13  1  0  0  0  0
 13 14  1  0  0  0  0
 15 18  1  6  0  0  0
 15 14  1  0  0  0  0
 16 17  1  0  0  0  0
 19 18  1  0  0  0  0
M  END
>  <minimizedAffinity>
-4.42668247

>  <minimizedRMSD>
4.01055002

$$$$
