
     RDKit          3D

 38 40  0  0  0  0  0  0  0  0999 V2000
   38.0043   31.4046   47.6330 C   0  0  0  0  0  0  0  0  0  0  0  0
   37.0760   31.3351   48.6751 C   0  0  0  0  0  0  0  0  0  0  0  0
   37.1944   32.3534   49.6176 C   0  0  0  0  0  0  0  0  0  0  0  0
   38.1745   33.3435   49.4939 C   0  0  0  0  0  0  0  0  0  0  0  0
   39.0490   33.3190   48.4163 C   0  0  0  0  0  0  0  0  0  0  0  0
   38.9648   32.3344   47.4687 C   0  0  0  0  0  0  0  0  0  0  0  0
   34.9415   30.3465   47.9937 C   0  0  0  0  0  0  0  0  0  0  0  0
   36.0762   30.3163   48.7907 C   0  0  0  0  0  0  0  0  0  0  0  0
   36.1887   29.2565   49.6982 C   0  0  0  0  0  0  0  0  0  0  0  0
   35.1905   28.3315   49.7431 N   0  0  0  0  0  0  0  0  0  0  0  0
   34.1081   28.4052   48.9476 C   0  0  0  0  0  0  0  0  0  0  0  0
   33.9850   29.4075   48.0779 N   0  0  0  0  0  0  0  0  0  0  0  0
   37.3787   29.1558   50.5884 C   0  0  0  0  0  0  0  0  0  0  0  0
   37.9443   30.4045   46.6396 O   0  0  0  0  0  0  0  0  0  0  0  0
   39.8398   32.3305   46.4131 O   0  0  0  0  0  0  0  0  0  0  0  0
   36.4894   32.3275   50.4379 H   0  0  0  0  0  0  0  0  0  0  0  0
   38.1735   34.0802   50.2800 H   0  0  0  0  0  0  0  0  0  0  0  0
   39.7344   34.1382   48.4648 H   0  0  0  0  0  0  0  0  0  0  0  0
   34.7667   31.1273   47.2623 H   0  0  0  0  0  0  0  0  0  0  0  0
   33.4273   27.5834   49.1279 H   0  0  0  0  0  0  0  0  0  0  0  0
   37.0621   28.9821   51.6402 H   0  0  0  0  0  0  0  0  0  0  0  0
   37.9063   30.1265   50.5576 H   0  0  0  0  0  0  0  0  0  0  0  0
   38.0662   28.3693   50.2262 H   0  0  0  0  0  0  0  0  0  0  0  0
   38.2874   29.4646   46.8531 H   0  0  0  0  0  0  0  0  0  0  0  0
   42.9089   32.1930   45.4405 O   0  0  0  0  0  0  0  0  0  0  0  0
   41.7290   32.7775   45.0294 C   0  0  1  0  0  0  0  0  0  0  0  0
   40.8570   33.2558   46.1764 C   0  0  1  0  0  0  0  0  0  0  0  0
   40.2144   34.4017   45.6406 O   0  0  0  0  0  0  0  0  0  0  0  0
   41.3435   35.0988   45.1849 C   0  0  0  0  0  0  0  0  0  0  0  0
   41.9780   34.0537   44.2700 C   0  0  1  0  0  0  0  0  0  0  0  0
   43.3373   34.3015   44.0847 O   0  0  0  0  0  0  0  0  0  0  0  0
   42.9216   32.0363   46.4327 H   0  0  0  0  0  0  0  0  0  0  0  0
   41.1867   32.0375   44.3836 H   0  0  0  0  0  0  0  0  0  0  0  0
   41.4744   33.5288   47.0385 H   0  0  0  0  0  0  0  0  0  0  0  0
   42.0098   35.3904   46.0170 H   0  0  0  0  0  0  0  0  0  0  0  0
   40.9722   35.9638   44.5958 H   0  0  0  0  0  0  0  0  0  0  0  0
   41.4072   34.0479   43.3211 H   0  0  0  0  0  0  0  0  0  0  0  0
   43.4531   35.2756   44.2224 H   0  0  0  0  0  0  0  0  0  0  0  0
  1  2  2  0
  2  8  1  0
  2  3  1  0
  4  3  2  0
  5  4  1  0
  6  1  1  0
  6  5  2  0
  7 12  2  0
  7  8  1  0
  8  9  2  0
  9 10  1  0
  9 13  1  0
 11 10  2  0
 12 11  1  0
 14  1  1  0
 15  6  1  0
  3 16  1  0
  4 17  1  0
  5 18  1  0
  7 19  1  0
 11 20  1  0
 13 21  1  0
 13 22  1  0
 13 23  1  0
 14 24  1  0
 25 26  1  0
 26 27  1  0
 27 28  1  0
 28 29  1  0
 29 30  1  0
 30 31  1  0
 30 26  1  0
 25 32  1  0
 26 33  1  6
 27 34  1  1
 29 35  1  0
 29 36  1  0
 30 37  1  6
 31 38  1  0
 15 27  1  0
M  ISO  8  16  14  17  14  18  14  19  14  20  14  21   8  22   8  23   8
M  ISO  1  24   3
M  END
>  <DihAtoms>  (1) 
5,14,26,25

>  <DihDeg>  (1) 
126.26941509438791

$$$$
