
 OpenBabel03272504183D

 26 27  0  0  1  0  0  0  0  0999 V2000
   40.1270   26.0960   34.7560 O   0  0  0  0  0  0  0  0  0  0  0  0
   38.7400   25.6900   34.3560 P   0  0  1  0  0  0  0  0  0  0  0  0
   37.5770   26.8300   34.8290 O   0  0  0  0  0  0  0  0  0  0  0  0
   38.0210   27.7310   34.8390 H   0  0  0  0  0  0  0  0  0  0  0  0
   38.5740   25.5270   32.6460 O   0  0  0  0  0  0  0  0  0  0  0  0
   37.3370   25.3120   32.0520 C   0  0  0  0  0  0  0  0  0  0  0  0
   36.7350   24.0780   31.8180 C   0  0  0  0  0  0  0  0  0  0  0  0
   35.4950   24.0410   31.2140 C   0  0  0  0  0  0  0  0  0  0  0  0
   34.8900   25.2120   30.8610 N   0  0  0  0  0  0  0  0  0  0  0  0
   35.5080   26.4010   31.1040 C   0  0  0  0  0  0  0  0  0  0  0  0
   36.7320   26.4550   31.6990 N   0  0  0  0  0  0  0  0  0  0  0  0
   35.0690   23.0600   31.0530 H   0  0  0  0  0  0  0  0  0  0  0  0
   35.0020   27.3080   30.8130 H   0  0  0  0  0  0  0  0  0  0  0  0
   37.4990   22.9650   32.2450 N   0  0  0  0  0  0  0  0  0  0  0  0
   37.4250   22.4360   33.1650 H   0  0  0  0  0  0  0  0  0  0  0  0
   38.2030   22.6660   31.5400 H   0  0  0  0  0  0  0  0  0  0  0  0
   38.4390   24.1900   35.0890 O   0  0  0  0  0  0  0  0  0  0  0  0
   39.0470   22.9910   37.1090 C   0  0  1  0  0  3  0  0  0  0  0  0
   38.9240   24.2890   36.3920 C   0  0  2  0  0  3  0  0  0  0  0  0
   38.0030   25.0740   37.0780 O   0  0  0  0  0  0  0  0  0  0  0  0
   37.9880   24.6160   38.3890 C   0  0  0  0  0  2  0  0  0  0  0  0
   37.9650   23.1000   38.1600 C   0  0  2  0  0  3  0  0  0  0  0  0
   38.8760   21.8740   36.2980 O   0  0  0  0  0  0  0  0  0  0  0  0
   38.9530   21.0890   36.9250 H   0  0  0  0  0  0  0  0  0  0  0  0
   38.3420   22.4150   39.3300 O   0  0  0  0  0  0  0  0  0  0  0  0
   37.5530   22.3700   39.9250 H   0  0  0  0  0  0  0  0  0  0  0  0
  2  1  2  1  0  0  0
  2  3  1  0  0  0  0
  2 17  1  0  0  0  0
  3  4  1  0  0  0  0
  5  2  1  0  0  0  0
  6  5  1  0  0  0  0
  7  6  1  0  0  0  0
  7 14  1  0  0  0  0
  8  7  2  0  0  0  0
  9 10  2  0  0  0  0
  9  8  1  0  0  0  0
 10 11  1  0  0  0  0
 11  6  2  0  0  0  0
 12  8  1  0  0  0  0
 13 10  1  0  0  0  0
 14 15  1  0  0  0  0
 16 14  1  0  0  0  0
 18 23  1  6  0  0  0
 18 22  1  0  0  0  0
 19 17  1  6  0  0  0
 19 20  1  0  0  0  0
 19 18  1  0  0  0  0
 20 21  1  0  0  0  0
 22 21  1  0  0  0  0
 22 25  1  1  0  0  0
 23 24  1  0  0  0  0
 25 26  1  0  0  0  0
M  END
>  <minimizedAffinity>
-4.91253757

$$$$

 OpenBabel03272504183D

 26 27  0  0  1  0  0  0  0  0999 V2000
   39.5580   23.8550   32.6470 O   0  0  0  0  0  0  0  0  0  0  0  0
   38.6440   24.8030   33.3650 P   0  0  1  0  0  0  0  0  0  0  0  0
   39.4770   26.1340   34.0050 O   0  0  0  0  0  0  0  0  0  0  0  0
   40.2730   26.3060   33.4180 H   0  0  0  0  0  0  0  0  0  0  0  0
   37.4350   25.4590   32.3240 O   0  0  0  0  0  0  0  0  0  0  0  0
   36.8300   26.6800   32.5910 C   0  0  0  0  0  0  0  0  0  0  0  0
   36.2020   27.5130   31.6660 C   0  0  0  0  0  0  0  0  0  0  0  0
   35.6480   28.6990   32.1010 C   0  0  0  0  0  0  0  0  0  0  0  0
   35.7290   29.0290   33.4220 N   0  0  0  0  0  0  0  0  0  0  0  0
   36.3500   28.1910   34.2990 C   0  0  0  0  0  0  0  0  0  0  0  0
   36.9020   27.0160   33.8860 N   0  0  0  0  0  0  0  0  0  0  0  0
   35.1730   29.3110   31.3460 H   0  0  0  0  0  0  0  0  0  0  0  0
   36.3950   28.4810   35.3370 H   0  0  0  0  0  0  0  0  0  0  0  0
   36.2090   27.0210   30.3380 N   0  0  0  0  0  0  0  0  0  0  0  0
   35.4450   26.4720   29.8410 H   0  0  0  0  0  0  0  0  0  0  0  0
   37.0870   27.2500   29.8300 H   0  0  0  0  0  0  0  0  0  0  0  0
   37.8930   23.9170   34.6010 O   0  0  0  0  0  0  0  0  0  0  0  0
   38.8630   22.9700   36.6140 C   0  0  1  0  0  3  0  0  0  0  0  0
   38.6260   24.1660   35.7600 C   0  0  2  0  0  3  0  0  0  0  0  0
   37.8740   25.0760   36.4930 O   0  0  0  0  0  0  0  0  0  0  0  0
   38.1090   24.7990   37.8340 C   0  0  0  0  0  2  0  0  0  0  0  0
   38.0110   23.2690   37.8270 C   0  0  2  0  0  3  0  0  0  0  0  0
   38.5140   21.7650   36.0150 O   0  0  0  0  0  0  0  0  0  0  0  0
   38.6980   21.0680   36.7200 H   0  0  0  0  0  0  0  0  0  0  0  0
   38.5970   22.7290   38.9870 O   0  0  0  0  0  0  0  0  0  0  0  0
   37.9410   22.8000   39.7230 H   0  0  0  0  0  0  0  0  0  0  0  0
  2  1  2  6  0  0  0
  2  3  1  0  0  0  0
  2 17  1  0  0  0  0
  4  3  1  0  0  0  0
  5  6  1  0  0  0  0
  5  2  1  0  0  0  0
  6 11  1  0  0  0  0
  7  8  1  0  0  0  0
  7  6  2  0  0  0  0
  8  9  2  0  0  0  0
  9 10  1  0  0  0  0
 10 13  1  0  0  0  0
 11 10  2  0  0  0  0
 12  8  1  0  0  0  0
 14  7  1  0  0  0  0
 15 14  1  0  0  0  0
 16 14  1  0  0  0  0
 18 23  1  6  0  0  0
 18 22  1  0  0  0  0
 19 17  1  6  0  0  0
 19 20  1  0  0  0  0
 19 18  1  0  0  0  0
 20 21  1  0  0  0  0
 22 21  1  0  0  0  0
 22 25  1  1  0  0  0
 23 24  1  0  0  0  0
 25 26  1  0  0  0  0
M  END
>  <minimizedAffinity>
-4.90345526

$$$$

 OpenBabel03272504183D

 26 27  0  0  1  0  0  0  0  0999 V2000
   38.2890   26.9760   36.5480 O   0  0  0  0  0  0  0  0  0  0  0  0
   38.4480   26.2770   35.2310 P   0  0  1  0  0  0  0  0  0  0  0  0
   39.9310   26.6360   34.4910 O   0  0  0  0  0  0  0  0  0  0  0  0
   40.5970   26.8260   35.2190 H   0  0  0  0  0  0  0  0  0  0  0  0
   38.4040   24.5590   35.3930 O   0  0  0  0  0  0  0  0  0  0  0  0
   39.4420   23.8590   35.9930 C   0  0  0  0  0  0  0  0  0  0  0  0
   39.3450   23.0280   37.1070 C   0  0  0  0  0  0  0  0  0  0  0  0
   40.4810   22.4030   37.5780 C   0  0  0  0  0  0  0  0  0  0  0  0
   41.6710   22.6130   36.9440 N   0  0  0  0  0  0  0  0  0  0  0  0
   41.7300   23.4330   35.8570 C   0  0  0  0  0  0  0  0  0  0  0  0
   40.6180   24.0570   35.3790 N   0  0  0  0  0  0  0  0  0  0  0  0
   40.3550   21.7690   38.4450 H   0  0  0  0  0  0  0  0  0  0  0  0
   42.6850   23.5770   35.3780 H   0  0  0  0  0  0  0  0  0  0  0  0
   38.0390   22.9210   37.6430 N   0  0  0  0  0  0  0  0  0  0  0  0
   37.3130   22.1670   37.4500 H   0  0  0  0  0  0  0  0  0  0  0  0
   37.8090   23.6950   38.2990 H   0  0  0  0  0  0  0  0  0  0  0  0
   37.1560   26.7770   34.2530 O   0  0  0  0  0  0  0  0  0  0  0  0
   36.8080   27.9640   32.1650 C   0  0  1  0  0  3  0  0  0  0  0  0
   37.7160   27.1720   33.0390 C   0  0  2  0  0  3  0  0  0  0  0  0
   38.0380   25.9950   32.3720 O   0  0  0  0  0  0  0  0  0  0  0  0
   37.8770   26.2500   31.0150 C   0  0  0  0  0  2  0  0  0  0  0  0
   36.5440   27.0070   31.0250 C   0  0  2  0  0  3  0  0  0  0  0  0
   35.6350   28.3740   32.7870 O   0  0  0  0  0  0  0  0  0  0  0  0
   35.1220   28.8600   32.0680 H   0  0  0  0  0  0  0  0  0  0  0  0
   36.3630   27.7110   29.8210 O   0  0  0  0  0  0  0  0  0  0  0  0
   36.0340   27.0730   29.1400 H   0  0  0  0  0  0  0  0  0  0  0  0
  2  5  1  0  0  0  0
  2  1  2  1  0  0  0
  3  4  1  0  0  0  0
  3  2  1  0  0  0  0
  5  6  1  0  0  0  0
  6  7  1  0  0  0  0
  7  8  2  0  0  0  0
  7 14  1  0  0  0  0
  8 12  1  0  0  0  0
  9  8  1  0  0  0  0
 10  9  2  0  0  0  0
 11 10  1  0  0  0  0
 11  6  2  0  0  0  0
 13 10  1  0  0  0  0
 14 16  1  0  0  0  0
 15 14  1  0  0  0  0
 17  2  1  0  0  0  0
 18 23  1  1  0  0  0
 18 19  1  0  0  0  0
 19 17  1  1  0  0  0
 20 19  1  0  0  0  0
 21 22  1  0  0  0  0
 21 20  1  0  0  0  0
 22 25  1  6  0  0  0
 22 18  1  0  0  0  0
 24 23  1  0  0  0  0
 26 25  1  0  0  0  0
M  END
>  <minimizedAffinity>
-4.76375103

$$$$

 OpenBabel03272504183D

 26 27  0  0  1  0  0  0  0  0999 V2000
   40.5250   27.2680   34.1380 O   0  0  0  0  0  0  0  0  0  0  0  0
   39.2970   26.7450   34.8210 P   0  0  1  0  0  0  0  0  0  0  0  0
   38.7550   27.7830   36.0480 O   0  0  0  0  0  0  0  0  0  0  0  0
   39.0170   28.7180   35.7930 H   0  0  0  0  0  0  0  0  0  0  0  0
   37.9690   26.5670   33.7330 O   0  0  0  0  0  0  0  0  0  0  0  0
   37.1760   27.6470   33.3700 C   0  0  0  0  0  0  0  0  0  0  0  0
   37.1420   28.2660   32.1210 C   0  0  0  0  0  0  0  0  0  0  0  0
   36.2910   29.3350   31.9270 C   0  0  0  0  0  0  0  0  0  0  0  0
   35.5070   29.7600   32.9590 N   0  0  0  0  0  0  0  0  0  0  0  0
   35.5670   29.1330   34.1670 C   0  0  0  0  0  0  0  0  0  0  0  0
   36.4010   28.0760   34.3760 N   0  0  0  0  0  0  0  0  0  0  0  0
   36.3010   29.7810   30.9410 H   0  0  0  0  0  0  0  0  0  0  0  0
   34.9330   29.4940   34.9610 H   0  0  0  0  0  0  0  0  0  0  0  0
   38.0180   27.7000   31.1650 N   0  0  0  0  0  0  0  0  0  0  0  0
   37.7940   26.9700   30.4240 H   0  0  0  0  0  0  0  0  0  0  0  0
   38.9860   28.0750   31.2360 H   0  0  0  0  0  0  0  0  0  0  0  0
   39.7010   25.2260   35.4590 O   0  0  0  0  0  0  0  0  0  0  0  0
   37.7470   24.2080   36.4770 C   0  0  1  0  0  3  0  0  0  0  0  0
   38.5860   24.4130   35.2640 C   0  0  2  0  0  3  0  0  0  0  0  0
   39.0860   23.1750   34.8740 O   0  0  0  0  0  0  0  0  0  0  0  0
   38.2120   22.2170   35.3720 C   0  0  0  0  0  2  0  0  0  0  0  0
   37.9890   22.7490   36.7920 C   0  0  2  0  0  3  0  0  0  0  0  0
   38.0790   25.0360   37.5440 O   0  0  0  0  0  0  0  0  0  0  0  0
   37.4560   24.7560   38.2860 H   0  0  0  0  0  0  0  0  0  0  0  0
   36.8410   22.1710   37.3650 O   0  0  0  0  0  0  0  0  0  0  0  0
   37.0860   21.2750   37.7030 H   0  0  0  0  0  0  0  0  0  0  0  0
  2  1  2  6  0  0  0
  2 17  1  0  0  0  0
  2  3  1  0  0  0  0
  4  3  1  0  0  0  0
  5  2  1  0  0  0  0
  6  5  1  0  0  0  0
  6 11  1  0  0  0  0
  7  6  2  0  0  0  0
  8  7  1  0  0  0  0
  8  9  2  0  0  0  0
  9 10  1  0  0  0  0
 10 11  2  0  0  0  0
 10 13  1  0  0  0  0
 12  8  1  0  0  0  0
 14 16  1  0  0  0  0
 14  7  1  0  0  0  0
 15 14  1  0  0  0  0
 18 22  1  0  0  0  0
 18 23  1  1  0  0  0
 19 17  1  1  0  0  0
 19 18  1  0  0  0  0
 20 19  1  0  0  0  0
 20 21  1  0  0  0  0
 21 22  1  0  0  0  0
 22 25  1  6  0  0  0
 23 24  1  0  0  0  0
 25 26  1  0  0  0  0
M  END
>  <minimizedAffinity>
-4.73012972

$$$$

 OpenBabel03272504183D

 26 27  0  0  1  0  0  0  0  0999 V2000
   37.0280   24.0850   32.6660 O   0  0  0  0  0  0  0  0  0  0  0  0
   38.0880   23.2800   33.3570 P   0  0  1  0  0  0  0  0  0  0  0  0
   39.4310   23.0000   32.3610 O   0  0  0  0  0  0  0  0  0  0  0  0
   39.5030   23.7730   31.7240 H   0  0  0  0  0  0  0  0  0  0  0  0
   38.6990   24.0740   34.7630 O   0  0  0  0  0  0  0  0  0  0  0  0
   39.6950   23.5040   35.5440 C   0  0  0  0  0  0  0  0  0  0  0  0
   39.5070   22.6770   36.6500 C   0  0  0  0  0  0  0  0  0  0  0  0
   40.6130   22.1920   37.3200 C   0  0  0  0  0  0  0  0  0  0  0  0
   41.8600   22.5340   36.8840 N   0  0  0  0  0  0  0  0  0  0  0  0
   42.0060   23.3450   35.7990 C   0  0  0  0  0  0  0  0  0  0  0  0
   40.9260   23.8320   35.1270 N   0  0  0  0  0  0  0  0  0  0  0  0
   40.4160   21.5550   38.1710 H   0  0  0  0  0  0  0  0  0  0  0  0
   43.0060   23.5950   35.4800 H   0  0  0  0  0  0  0  0  0  0  0  0
   38.1510   22.4240   36.9670 N   0  0  0  0  0  0  0  0  0  0  0  0
   37.5580   21.5890   36.6780 H   0  0  0  0  0  0  0  0  0  0  0  0
   37.7300   23.1720   37.5540 H   0  0  0  0  0  0  0  0  0  0  0  0
   37.3680   21.8150   33.8160 O   0  0  0  0  0  0  0  0  0  0  0  0
   35.3860   20.5360   33.2420 C   0  0  1  0  0  3  0  0  0  0  0  0
   36.4270   21.5180   32.8310 C   0  0  2  0  0  3  0  0  0  0  0  0
   37.1460   20.9660   31.7760 O   0  0  0  0  0  0  0  0  0  0  0  0
   36.3130   20.0340   31.1700 C   0  0  0  0  0  2  0  0  0  0  0  0
   35.7360   19.3280   32.4020 C   0  0  2  0  0  3  0  0  0  0  0  0
   35.3840   20.2440   34.6010 O   0  0  0  0  0  0  0  0  0  0  0  0
   34.6600   19.5520   34.7120 H   0  0  0  0  0  0  0  0  0  0  0  0
   34.5750   18.6090   32.0640 O   0  0  0  0  0  0  0  0  0  0  0  0
   34.8540   17.7500   31.6610 H   0  0  0  0  0  0  0  0  0  0  0  0
  2  1  2  6  0  0  0
  2 17  1  0  0  0  0
  2  5  1  0  0  0  0
  3  2  1  0  0  0  0
  4  3  1  0  0  0  0
  5  6  1  0  0  0  0
  6  7  1  0  0  0  0
  7 14  1  0  0  0  0
  7  8  2  0  0  0  0
  8 12  1  0  0  0  0
  9  8  1  0  0  0  0
 10  9  2  0  0  0  0
 11  6  2  0  0  0  0
 11 10  1  0  0  0  0
 13 10  1  0  0  0  0
 14 16  1  0  0  0  0
 15 14  1  0  0  0  0
 18 23  1  1  0  0  0
 19 18  1  0  0  0  0
 19 17  1  1  0  0  0
 20 19  1  0  0  0  0
 21 20  1  0  0  0  0
 21 22  1  0  0  0  0
 22 25  1  6  0  0  0
 22 18  1  0  0  0  0
 23 24  1  0  0  0  0
 26 25  1  0  0  0  0
M  END
>  <minimizedAffinity>
-4.72802544

$$$$

 OpenBabel03272504183D

 26 27  0  0  1  0  0  0  0  0999 V2000
   38.9030   22.1790   32.3590 O   0  0  0  0  0  0  0  0  0  0  0  0
   37.8170   23.1410   32.7350 P   0  0  1  0  0  0  0  0  0  0  0  0
   37.7890   24.5030   31.7260 O   0  0  0  0  0  0  0  0  0  0  0  0
   38.1350   24.2220   30.8260 H   0  0  0  0  0  0  0  0  0  0  0  0
   36.2470   22.4340   32.6170 O   0  0  0  0  0  0  0  0  0  0  0  0
   36.0760   21.0810   32.3560 C   0  0  0  0  0  0  0  0  0  0  0  0
   35.7140   20.1000   33.2760 C   0  0  0  0  0  0  0  0  0  0  0  0
   35.5870   18.7940   32.8480 C   0  0  0  0  0  0  0  0  0  0  0  0
   35.8190   18.4960   31.5370 N   0  0  0  0  0  0  0  0  0  0  0  0
   36.1720   19.4810   30.6640 C   0  0  0  0  0  0  0  0  0  0  0  0
   36.3020   20.7750   31.0700 N   0  0  0  0  0  0  0  0  0  0  0  0
   35.3050   18.0690   33.5990 H   0  0  0  0  0  0  0  0  0  0  0  0
   36.3480   19.2110   29.6350 H   0  0  0  0  0  0  0  0  0  0  0  0
   35.5120   20.5790   34.5930 N   0  0  0  0  0  0  0  0  0  0  0  0
   34.5940   20.8590   35.0530 H   0  0  0  0  0  0  0  0  0  0  0  0
   36.3970   20.6490   35.1350 H   0  0  0  0  0  0  0  0  0  0  0  0
   38.1020   23.5950   34.3440 O   0  0  0  0  0  0  0  0  0  0  0  0
   39.0000   22.0150   35.9520 C   0  0  1  0  0  3  0  0  0  0  0  0
   39.2230   22.8770   34.7590 C   0  0  2  0  0  3  0  0  0  0  0  0
   40.1810   23.8290   35.0880 O   0  0  0  0  0  0  0  0  0  0  0  0
   40.9330   23.2950   36.1270 C   0  0  0  0  0  2  0  0  0  0  0  0
   39.8220   22.7150   37.0110 C   0  0  2  0  0  3  0  0  0  0  0  0
   37.6660   21.8900   36.3240 O   0  0  0  0  0  0  0  0  0  0  0  0
   37.6850   21.3160   37.1520 H   0  0  0  0  0  0  0  0  0  0  0  0
   40.3500   21.7830   37.9240 O   0  0  0  0  0  0  0  0  0  0  0  0
   40.7380   22.2840   38.6830 H   0  0  0  0  0  0  0  0  0  0  0  0
  2  1  2  6  0  0  0
  2 17  1  0  0  0  0
  3  2  1  0  0  0  0
  4  3  1  0  0  0  0
  5  2  1  0  0  0  0
  6  5  1  0  0  0  0
  6  7  1  0  0  0  0
  7 14  1  0  0  0  0
  8  7  2  0  0  0  0
  8 12  1  0  0  0  0
  9  8  1  0  0  0  0
 10 11  1  0  0  0  0
 10  9  2  0  0  0  0
 11  6  2  0  0  0  0
 13 10  1  0  0  0  0
 14 15  1  0  0  0  0
 14 16  1  0  0  0  0
 18 23  1  1  0  0  0
 18 22  1  0  0  0  0
 19 17  1  1  0  0  0
 19 20  1  0  0  0  0
 19 18  1  0  0  0  0
 20 21  1  0  0  0  0
 21 22  1  0  0  0  0
 22 25  1  1  0  0  0
 23 24  1  0  0  0  0
 25 26  1  0  0  0  0
M  END
>  <minimizedAffinity>
-4.71806431

$$$$

 OpenBabel03272504183D

 26 27  0  0  1  0  0  0  0  0999 V2000
   37.0250   24.3610   32.8330 O   0  0  0  0  0  0  0  0  0  0  0  0
   38.0970   23.3300   33.0250 P   0  0  1  0  0  0  0  0  0  0  0  0
   38.9150   22.9810   31.5810 O   0  0  0  0  0  0  0  0  0  0  0  0
   38.8930   23.8080   31.0110 H   0  0  0  0  0  0  0  0  0  0  0  0
   39.3080   23.8450   34.1410 O   0  0  0  0  0  0  0  0  0  0  0  0
   39.1790   23.6270   35.5070 C   0  0  0  0  0  0  0  0  0  0  0  0
   40.0050   22.8330   36.2990 C   0  0  0  0  0  0  0  0  0  0  0  0
   39.7350   22.7230   37.6490 C   0  0  0  0  0  0  0  0  0  0  0  0
   38.6660   23.3910   38.1720 N   0  0  0  0  0  0  0  0  0  0  0  0
   37.8790   24.1570   37.3670 C   0  0  0  0  0  0  0  0  0  0  0  0
   38.1320   24.2770   36.0340 N   0  0  0  0  0  0  0  0  0  0  0  0
   40.4050   22.0960   38.2210 H   0  0  0  0  0  0  0  0  0  0  0  0
   37.0430   24.6730   37.8130 H   0  0  0  0  0  0  0  0  0  0  0  0
   41.0660   22.2110   35.5980 N   0  0  0  0  0  0  0  0  0  0  0  0
   42.0700   22.5490   35.4970 H   0  0  0  0  0  0  0  0  0  0  0  0
   40.7790   21.3200   35.1450 H   0  0  0  0  0  0  0  0  0  0  0  0
   37.3370   21.9400   33.6310 O   0  0  0  0  0  0  0  0  0  0  0  0
   35.3540   20.6050   33.2100 C   0  0  1  0  0  3  0  0  0  0  0  0
   36.3270   21.6210   32.7240 C   0  0  2  0  0  3  0  0  0  0  0  0
   36.9740   21.0990   31.6090 O   0  0  0  0  0  0  0  0  0  0  0  0
   36.1220   20.1450   31.0660 C   0  0  0  0  0  2  0  0  0  0  0  0
   35.6700   19.4140   32.3340 C   0  0  2  0  0  3  0  0  0  0  0  0
   35.4720   20.3050   34.5630 O   0  0  0  0  0  0  0  0  0  0  0  0
   34.7810   19.5900   34.7260 H   0  0  0  0  0  0  0  0  0  0  0  0
   34.5070   18.6610   32.0860 O   0  0  0  0  0  0  0  0  0  0  0  0
   34.7770   17.8140   31.6540 H   0  0  0  0  0  0  0  0  0  0  0  0
  2  1  2  6  0  0  0
  2 17  1  0  0  0  0
  2  5  1  0  0  0  0
  3  2  1  0  0  0  0
  4  3  1  0  0  0  0
  5  6  1  0  0  0  0
  6 11  2  0  0  0  0
  6  7  1  0  0  0  0
  7  8  2  0  0  0  0
  8  9  1  0  0  0  0
  8 12  1  0  0  0  0
 10 13  1  0  0  0  0
 10  9  2  0  0  0  0
 11 10  1  0  0  0  0
 14  7  1  0  0  0  0
 15 14  1  0  0  0  0
 16 14  1  0  0  0  0
 18 23  1  1  0  0  0
 19 18  1  0  0  0  0
 19 17  1  1  0  0  0
 20 19  1  0  0  0  0
 21 20  1  0  0  0  0
 21 22  1  0  0  0  0
 22 25  1  6  0  0  0
 22 18  1  0  0  0  0
 23 24  1  0  0  0  0
 26 25  1  0  0  0  0
M  END
>  <minimizedAffinity>
-4.695261

$$$$

 OpenBabel03272504183D

 26 27  0  0  1  0  0  0  0  0999 V2000
   37.7780   24.2450   35.5720 O   0  0  0  0  0  0  0  0  0  0  0  0
   38.0210   22.8580   36.0870 P   0  0  1  0  0  0  0  0  0  0  0  0
   36.7830   22.3320   37.1200 O   0  0  0  0  0  0  0  0  0  0  0  0
   35.9340   22.7880   36.8340 H   0  0  0  0  0  0  0  0  0  0  0  0
   38.1030   21.6930   34.8170 O   0  0  0  0  0  0  0  0  0  0  0  0
   37.2050   21.7070   33.7580 C   0  0  0  0  0  0  0  0  0  0  0  0
   35.9460   21.1110   33.7330 C   0  0  0  0  0  0  0  0  0  0  0  0
   35.1760   21.2210   32.5930 C   0  0  0  0  0  0  0  0  0  0  0  0
   35.6650   21.9080   31.5200 N   0  0  0  0  0  0  0  0  0  0  0  0
   36.9010   22.4780   31.5800 C   0  0  0  0  0  0  0  0  0  0  0  0
   37.6740   22.3790   32.6960 N   0  0  0  0  0  0  0  0  0  0  0  0
   34.2060   20.7410   32.6220 H   0  0  0  0  0  0  0  0  0  0  0  0
   37.2570   23.0140   30.7140 H   0  0  0  0  0  0  0  0  0  0  0  0
   35.5940   20.4380   34.9270 N   0  0  0  0  0  0  0  0  0  0  0  0
   35.0200   20.8100   35.7420 H   0  0  0  0  0  0  0  0  0  0  0  0
   35.9650   19.4670   34.9650 H   0  0  0  0  0  0  0  0  0  0  0  0
   39.5060   22.8940   36.9050 O   0  0  0  0  0  0  0  0  0  0  0  0
   41.4650   21.4850   36.6500 C   0  0  1  0  0  3  0  0  0  0  0  0
   40.4510   22.3750   36.0220 C   0  0  2  0  0  3  0  0  0  0  0  0
   41.1140   23.4750   35.4900 O   0  0  0  0  0  0  0  0  0  0  0  0
   42.4220   23.0730   35.2490 C   0  0  0  0  0  2  0  0  0  0  0  0
   42.7270   22.3110   36.5440 C   0  0  2  0  0  3  0  0  0  0  0  0
   41.1790   21.1340   37.9640 O   0  0  0  0  0  0  0  0  0  0  0  0
   41.9620   20.5690   38.2540 H   0  0  0  0  0  0  0  0  0  0  0  0
   43.8500   21.4790   36.3780 O   0  0  0  0  0  0  0  0  0  0  0  0
   44.6610   22.0370   36.4760 H   0  0  0  0  0  0  0  0  0  0  0  0
  2  1  2  6  0  0  0
  2 17  1  0  0  0  0
  2  3  1  0  0  0  0
  4  3  1  0  0  0  0
  5  2  1  0  0  0  0
  6  5  1  0  0  0  0
  7  6  1  0  0  0  0
  7 14  1  0  0  0  0
  8 12  1  0  0  0  0
  8  7  2  0  0  0  0
  9 10  2  0  0  0  0
  9  8  1  0  0  0  0
 10 11  1  0  0  0  0
 11  6  2  0  0  0  0
 13 10  1  0  0  0  0
 14 16  1  0  0  0  0
 14 15  1  0  0  0  0
 18 23  1  1  0  0  0
 19 18  1  0  0  0  0
 19 17  1  1  0  0  0
 20 19  1  0  0  0  0
 21 20  1  0  0  0  0
 21 22  1  0  0  0  0
 22 25  1  6  0  0  0
 22 18  1  0  0  0  0
 23 24  1  0  0  0  0
 25 26  1  0  0  0  0
M  END
>  <minimizedAffinity>
-4.66408873

$$$$

 OpenBabel03272504183D

 26 27  0  0  1  0  0  0  0  0999 V2000
   39.3810   26.9630   33.3820 O   0  0  0  0  0  0  0  0  0  0  0  0
   38.1150   26.5710   34.0840 P   0  0  1  0  0  0  0  0  0  0  0  0
   37.8140   27.5340   35.4470 O   0  0  0  0  0  0  0  0  0  0  0  0
   38.2180   28.4370   35.2770 H   0  0  0  0  0  0  0  0  0  0  0  0
   36.7270   26.7380   33.0720 O   0  0  0  0  0  0  0  0  0  0  0  0
   36.3850   27.9570   32.5010 C   0  0  0  0  0  0  0  0  0  0  0  0
   36.3990   28.2670   31.1430 C   0  0  0  0  0  0  0  0  0  0  0  0
   36.0270   29.5350   30.7420 C   0  0  0  0  0  0  0  0  0  0  0  0
   35.6580   30.4510   31.6830 N   0  0  0  0  0  0  0  0  0  0  0  0
   35.6580   30.1130   33.0020 C   0  0  0  0  0  0  0  0  0  0  0  0
   36.0210   28.8670   33.4150 N   0  0  0  0  0  0  0  0  0  0  0  0
   36.0540   29.7270   29.6780 H   0  0  0  0  0  0  0  0  0  0  0  0
   35.3600   30.8610   33.7200 H   0  0  0  0  0  0  0  0  0  0  0  0
   36.8070   27.2020   30.3040 N   0  0  0  0  0  0  0  0  0  0  0  0
   36.1920   26.5070   29.7850 H   0  0  0  0  0  0  0  0  0  0  0  0
   37.8410   27.1340   30.2170 H   0  0  0  0  0  0  0  0  0  0  0  0
   38.2870   24.9440   34.5280 O   0  0  0  0  0  0  0  0  0  0  0  0
   39.6790   23.7970   36.1520 C   0  0  1  0  0  3  0  0  0  0  0  0
   38.7890   24.9450   35.8290 C   0  0  2  0  0  3  0  0  0  0  0  0
   37.6780   24.8770   36.6620 O   0  0  0  0  0  0  0  0  0  0  0  0
   38.0680   24.1600   37.7870 C   0  0  0  0  0  2  0  0  0  0  0  0
   38.8430   23.0090   37.1350 C   0  0  2  0  0  3  0  0  0  0  0  0
   40.0470   23.0340   35.0500 O   0  0  0  0  0  0  0  0  0  0  0  0
   40.6100   22.2900   35.4320 H   0  0  0  0  0  0  0  0  0  0  0  0
   39.6640   22.3670   38.0800 O   0  0  0  0  0  0  0  0  0  0  0  0
   39.1020   21.7390   38.5970 H   0  0  0  0  0  0  0  0  0  0  0  0
  2  1  2  6  0  0  0
  2 17  1  0  0  0  0
  2  3  1  0  0  0  0
  4  3  1  0  0  0  0
  5  2  1  0  0  0  0
  6  5  1  0  0  0  0
  6 11  1  0  0  0  0
  7  6  2  0  0  0  0
  8  7  1  0  0  0  0
  8  9  2  0  0  0  0
  9 10  1  0  0  0  0
 10 11  2  0  0  0  0
 10 13  1  0  0  0  0
 12  8  1  0  0  0  0
 14  7  1  0  0  0  0
 15 14  1  0  0  0  0
 16 14  1  0  0  0  0
 18 23  1  6  0  0  0
 18 22  1  0  0  0  0
 19 17  1  6  0  0  0
 19 18  1  0  0  0  0
 19 20  1  0  0  0  0
 20 21  1  0  0  0  0
 22 21  1  0  0  0  0
 22 25  1  1  0  0  0
 23 24  1  0  0  0  0
 25 26  1  0  0  0  0
M  END
>  <minimizedAffinity>
-4.62818289

$$$$
