
     RDKit          3D

 37 39  0  0  0  0  0  0  0  0999 V2000
   34.8037   29.5372   47.5131 S   0  0  0  0  0  0  0  0  0  0  0  0
   37.3636   29.4744   50.5395 C   0  0  0  0  0  0  0  0  0  0  0  0
   37.9750   30.7352   50.5191 C   0  0  0  0  0  0  0  0  0  0  0  0
   37.5763   31.6319   49.5310 C   0  0  0  0  0  0  0  0  0  0  0  0
   36.6260   31.2629   48.6361 N   0  0  0  0  0  0  0  0  0  0  0  0
   36.0568   30.0271   48.6913 C   0  0  0  0  0  0  0  0  0  0  0  0
   36.4202   29.1409   49.6320 N   0  0  0  0  0  0  0  0  0  0  0  0
   32.3954   28.3550   47.4724 C   0  0  2  0  0  0  0  0  0  0  0  0
   33.6331   28.4020   48.3412 C   0  0  1  0  0  0  0  0  0  0  0  0
   34.1913   27.1522   48.3492 O   0  0  0  0  0  0  0  0  0  0  0  0
   33.5520   26.3705   47.4130 C   0  0  0  0  0  0  0  0  0  0  0  0
   32.8480   27.3234   46.4645 C   0  0  1  0  0  0  0  0  0  0  0  0
   32.1303   29.5919   46.9025 O   0  0  0  0  0  0  0  0  0  0  0  0
   31.7843   26.7075   45.8222 O   0  0  0  0  0  0  0  0  0  0  0  0
   37.6832   28.7940   51.3091 H   0  0  0  0  0  0  0  0  0  0  0  0
   38.7341   31.0507   51.2218 H   0  0  0  0  0  0  0  0  0  0  0  0
   37.9647   32.6218   49.4079 H   0  0  0  0  0  0  0  0  0  0  0  0
   31.5290   27.9338   48.0111 H   0  0  0  0  0  0  0  0  0  0  0  0
   33.4083   28.7093   49.3712 H   0  0  0  0  0  0  0  0  0  0  0  0
   34.3348   25.7638   46.9124 H   0  0  0  0  0  0  0  0  0  0  0  0
   32.7983   25.7427   47.9261 H   0  0  0  0  0  0  0  0  0  0  0  0
   33.5190   27.7418   45.7031 H   0  0  0  0  0  0  0  0  0  0  0  0
   31.3622   29.9738   47.4117 H   0  0  0  0  0  0  0  0  0  0  0  0
   31.5343   29.1154   43.8990 O   0  0  0  0  0  0  0  0  0  0  0  0
   30.9252   27.8631   43.8921 C   0  0  2  0  0  0  0  0  0  0  0  0
   31.8703   26.7942   44.4413 C   0  0  2  0  0  0  0  0  0  0  0  0
   31.5206   25.6106   43.8484 O   0  0  0  0  0  0  0  0  0  0  0  0
   30.6723   25.8523   42.7828 C   0  0  0  0  0  0  0  0  0  0  0  0
   30.8102   27.3393   42.4596 C   0  0  1  0  0  0  0  0  0  0  0  0
   29.7365   27.8561   41.7864 O   0  0  0  0  0  0  0  0  0  0  0  0
   32.4356   28.9585   43.4799 H   0  0  0  0  0  0  0  0  0  0  0  0
   29.9755   27.8283   44.4276 H   0  0  0  0  0  0  0  0  0  0  0  0
   32.8725   27.0925   44.1059 H   0  0  0  0  0  0  0  0  0  0  0  0
   29.6295   25.7431   43.1684 H   0  0  0  0  0  0  0  0  0  0  0  0
   30.8207   25.2258   41.9048 H   0  0  0  0  0  0  0  0  0  0  0  0
   31.7987   27.5293   41.9946 H   0  0  0  0  0  0  0  0  0  0  0  0
   30.0738   28.0900   40.8642 H   0  0  0  0  0  0  0  0  0  0  0  0
  1  6  1  0
  3  2  2  0
  4  3  1  0
  5  6  1  0
  5  4  2  0
  6  7  2  0
  7  2  1  0
  8 13  1  0
  8  9  1  0
  9  1  1  0
  9 10  1  0
 11 10  1  0
 12 14  1  0
 12 11  1  0
 12  8  1  0
  2 15  1  0
  3 16  1  0
  4 17  1  0
  8 18  1  1
  9 19  1  1
 11 20  1  0
 11 21  1  0
 12 22  1  6
 13 23  1  0
 24 25  1  0
 25 26  1  0
 26 27  1  0
 27 28  1  0
 28 29  1  0
 29 30  1  0
 29 25  1  0
 24 31  1  0
 25 32  1  1
 26 33  1  1
 28 34  1  0
 28 35  1  0
 29 36  1  6
 30 37  1  0
 14 26  1  0
M  ISO  8  15  14  16  14  17  14  18  13  19  13  20  13  21  13  22  13
M  ISO  1  23   3
M  END
>  <DihAtoms>  (1) 
11,13,25,24

>  <DihDeg>  (1) 
-117.75814206689539

$$$$
