
 OpenBabel03272502583D

 34 36  0  0  1  0  0  0  0  0999 V2000
   37.0410   30.3620   48.4330 N   0  0  0  0  0  0  0  0  0  0  0  0
   37.9200   30.1130   49.5560 C   0  0  0  0  0  0  0  0  0  0  0  0
   38.4680   31.2740   50.2640 C   0  0  0  0  0  0  0  0  0  0  0  0
   38.6050   32.5520   49.5290 C   0  0  0  0  0  0  0  0  0  0  0  0
   37.7150   32.6660   48.3290 C   0  0  0  0  0  0  0  0  0  0  0  0
   37.6730   31.3330   47.5720 C   0  0  1  0  0  0  0  0  0  0  0  0
   38.7490   29.4830   49.1570 H   0  0  0  0  0  0  0  0  0  0  0  0
   37.3770   29.4520   50.2640 H   0  0  0  0  0  0  0  0  0  0  0  0
   39.4780   31.0070   50.6540 H   0  0  0  0  0  0  0  0  0  0  0  0
   37.8510   31.4640   51.1770 H   0  0  0  0  0  0  0  0  0  0  0  0
   39.6540   32.7340   49.1590 H   0  0  0  0  0  0  0  0  0  0  0  0
   38.3800   33.4220   50.1920 H   0  0  0  0  0  0  0  0  0  0  0  0
   36.6780   32.9460   48.5820 H   0  0  0  0  0  0  0  0  0  0  0  0
   38.0910   33.4740   47.6700 H   0  0  0  0  0  0  0  0  0  0  0  0
   37.1400   31.5080   46.6200 H   0  0  0  0  0  0  0  0  0  0  0  0
   35.7720   29.7410   48.2360 C   0  0  0  0  0  0  0  0  0  0  0  0
   34.9000   30.0790   47.1890 C   0  0  0  0  0  0  0  0  0  0  0  0
   33.6930   29.3840   47.1240 C   0  0  0  0  0  0  0  0  0  0  0  0
   33.4290   28.4390   48.0540 N   0  0  0  0  0  0  0  0  0  0  0  0
   34.2950   28.1480   49.0390 C   0  0  0  0  0  0  0  0  0  0  0  0
   35.4590   28.8040   49.1180 N   0  0  0  0  0  0  0  0  0  0  0  0
   35.1990   30.8360   46.5100 H   0  0  0  0  0  0  0  0  0  0  0  0
   33.0000   29.6180   46.3340 H   0  0  0  0  0  0  0  0  0  0  0  0
   34.0600   27.3810   49.7780 H   0  0  0  0  0  0  0  0  0  0  0  0
   39.0180   31.0230   47.3510 O   0  0  0  0  0  0  0  0  0  0  0  0
   40.5160   31.4240   45.5110 C   0  0  2  0  0  0  0  0  0  0  0  0
   39.1870   30.8250   45.9920 C   0  0  2  0  0  0  0  0  0  0  0  0
   38.2870   31.5690   45.2300 O   0  0  0  0  0  0  0  0  0  0  0  0
   38.7680   31.3920   43.9430 C   0  0  0  0  0  0  0  0  0  0  0  0
   40.2720   31.3210   44.0050 C   0  0  2  0  0  0  0  0  0  0  0  0
   41.6060   30.6880   45.9250 O   0  0  0  0  0  0  0  0  0  0  0  0
   41.4360   30.4150   46.8540 H   0  0  0  0  0  0  0  0  0  0  0  0
   40.6980   30.0520   43.6200 O   0  0  0  0  0  0  0  0  0  0  0  0
   40.0720   29.6370   42.9860 H   0  0  0  0  0  0  0  0  0  0  0  0
  1  2  1  0  0  0  0
  2  8  1  0  0  0  0
  2  3  1  0  0  0  0
  3  9  1  0  0  0  0
  3 10  1  0  0  0  0
  4 12  1  0  0  0  0
  4  3  1  0  0  0  0
  5 13  1  0  0  0  0
  5  4  1  0  0  0  0
  6 15  1  6  0  0  0
  6  5  1  0  0  0  0
  6  1  1  0  0  0  0
  7  2  1  0  0  0  0
 11  4  1  0  0  0  0
 14  5  1  0  0  0  0
 16  1  1  0  0  0  0
 16 21  1  0  0  0  0
 17 16  2  0  0  0  0
 18 17  1  0  0  0  0
 18 19  2  0  0  0  0
 19 20  1  0  0  0  0
 20 21  2  0  0  0  0
 20 24  1  0  0  0  0
 22 17  1  0  0  0  0
 23 18  1  0  0  0  0
 25  6  1  0  0  0  0
 26 31  1  6  0  0  0
 26 27  1  0  0  0  0
 27 25  1  1  0  0  0
 28 27  1  0  0  0  0
 29 30  1  0  0  0  0
 29 28  1  0  0  0  0
 30 33  1  1  0  0  0
 30 26  1  0  0  0  0
 31 32  1  0  0  0  0
 34 33  1  0  0  0  0
M  END
>  <minimizedAffinity>
-6.19810677

>  <minimizedRMSD>
1.73643899

$$$$
