
     RDKit          3D

 37 39  0  0  0  0  0  0  0  0999 V2000
   34.8037   29.5372   47.5131 S   0  0  0  0  0  0  0  0  0  0  0  0
   37.3636   29.4744   50.5395 C   0  0  0  0  0  0  0  0  0  0  0  0
   37.9750   30.7352   50.5191 C   0  0  0  0  0  0  0  0  0  0  0  0
   37.5763   31.6319   49.5310 C   0  0  0  0  0  0  0  0  0  0  0  0
   36.6260   31.2629   48.6361 N   0  0  0  0  0  0  0  0  0  0  0  0
   36.0568   30.0271   48.6913 C   0  0  0  0  0  0  0  0  0  0  0  0
   36.4202   29.1409   49.6320 N   0  0  0  0  0  0  0  0  0  0  0  0
   32.3954   28.3550   47.4724 C   0  0  2  0  0  0  0  0  0  0  0  0
   33.6331   28.4020   48.3412 C   0  0  1  0  0  0  0  0  0  0  0  0
   34.1913   27.1522   48.3492 O   0  0  0  0  0  0  0  0  0  0  0  0
   33.5520   26.3705   47.4130 C   0  0  0  0  0  0  0  0  0  0  0  0
   32.8480   27.3234   46.4645 C   0  0  1  0  0  0  0  0  0  0  0  0
   32.1303   29.5919   46.9025 O   0  0  0  0  0  0  0  0  0  0  0  0
   31.7843   26.7075   45.8222 O   0  0  0  0  0  0  0  0  0  0  0  0
   37.6832   28.7940   51.3091 H   0  0  0  0  0  0  0  0  0  0  0  0
   38.7341   31.0507   51.2218 H   0  0  0  0  0  0  0  0  0  0  0  0
   37.9647   32.6218   49.4079 H   0  0  0  0  0  0  0  0  0  0  0  0
   31.5290   27.9338   48.0111 H   0  0  0  0  0  0  0  0  0  0  0  0
   33.4083   28.7093   49.3712 H   0  0  0  0  0  0  0  0  0  0  0  0
   34.3348   25.7638   46.9124 H   0  0  0  0  0  0  0  0  0  0  0  0
   32.7983   25.7427   47.9261 H   0  0  0  0  0  0  0  0  0  0  0  0
   33.5190   27.7418   45.7031 H   0  0  0  0  0  0  0  0  0  0  0  0
   31.3622   29.9738   47.4117 H   0  0  0  0  0  0  0  0  0  0  0  0
   32.7240   28.9942   43.9655 O   0  0  0  0  0  0  0  0  0  0  0  0
   31.5717   28.2123   43.9543 C   0  0  2  0  0  0  0  0  0  0  0  0
   31.8703   26.7942   44.4413 C   0  0  2  0  0  0  0  0  0  0  0  0
   30.9635   25.9659   43.8360 O   0  0  0  0  0  0  0  0  0  0  0  0
   30.3244   26.6393   42.8106 C   0  0  0  0  0  0  0  0  0  0  0  0
   31.1779   27.8720   42.5160 C   0  0  1  0  0  0  0  0  0  0  0  0
   30.4897   28.8805   41.8977 O   0  0  0  0  0  0  0  0  0  0  0  0
   33.4172   28.4263   43.5076 H   0  0  0  0  0  0  0  0  0  0  0  0
   30.7437   28.6336   44.5260 H   0  0  0  0  0  0  0  0  0  0  0  0
   32.8798   26.5672   44.0734 H   0  0  0  0  0  0  0  0  0  0  0  0
   29.3752   27.0483   43.2345 H   0  0  0  0  0  0  0  0  0  0  0  0
   30.1205   26.0572   41.9134 H   0  0  0  0  0  0  0  0  0  0  0  0
   32.1185   27.5631   42.0167 H   0  0  0  0  0  0  0  0  0  0  0  0
   30.8774   28.9517   40.9684 H   0  0  0  0  0  0  0  0  0  0  0  0
  1  6  1  0
  3  2  2  0
  4  3  1  0
  5  6  1  0
  5  4  2  0
  6  7  2  0
  7  2  1  0
  8 13  1  0
  8  9  1  0
  9  1  1  0
  9 10  1  0
 11 10  1  0
 12 14  1  0
 12 11  1  0
 12  8  1  0
  2 15  1  0
  3 16  1  0
  4 17  1  0
  8 18  1  1
  9 19  1  1
 11 20  1  0
 11 21  1  0
 12 22  1  6
 13 23  1  0
 24 25  1  0
 25 26  1  0
 26 27  1  0
 27 28  1  0
 28 29  1  0
 29 30  1  0
 29 25  1  0
 24 31  1  0
 25 32  1  1
 26 33  1  6
 28 34  1  0
 28 35  1  0
 29 36  1  6
 30 37  1  0
 14 26  1  0
M  ISO  8  15  14  16  14  17  14  18  13  19  13  20  13  21  13  22  13
M  ISO  1  23   3
M  END
>  <DihAtoms>  (1) 
11,13,25,24

>  <DihDeg>  (1) 
-117.75814206689539

$$$$
