
 OpenBabel03272506423D

 32 34  0  0  1  0  0  0  0  0999 V2000
   32.3860   28.2950   47.5990 C   0  0  2  0  0  0  0  0  0  0  0  0
   33.6710   28.3200   48.3990 C   0  0  1  0  0  0  0  0  0  0  0  0
   34.2390   27.0770   48.3230 O   0  0  0  0  0  0  0  0  0  0  0  0
   33.5560   26.3280   47.3920 C   0  0  0  0  0  0  0  0  0  0  0  0
   32.7910   27.3110   46.5260 C   0  0  1  0  0  0  0  0  0  0  0  0
   31.5560   27.8420   48.1680 H   0  0  0  0  0  0  0  0  0  0  0  0
   33.5010   28.5810   49.4520 H   0  0  0  0  0  0  0  0  0  0  0  0
   34.3150   25.7520   46.8220 H   0  0  0  0  0  0  0  0  0  0  0  0
   32.8370   25.6710   47.9190 H   0  0  0  0  0  0  0  0  0  0  0  0
   33.4140   27.7700   45.7460 H   0  0  0  0  0  0  0  0  0  0  0  0
   32.0780   29.5520   47.0990 O   0  0  0  0  0  0  0  0  0  0  0  0
   31.3370   29.9040   47.6660 H   0  0  0  0  0  0  0  0  0  0  0  0
   34.7830   29.5020   47.5560 S   0  0  0  0  0  0  0  0  0  0  0  0
   37.3940   29.4860   50.5380 C   0  0  0  0  0  0  0  0  0  0  0  0
   38.0050   30.7460   50.4880 C   0  0  0  0  0  0  0  0  0  0  0  0
   37.5890   31.6270   49.4930 C   0  0  0  0  0  0  0  0  0  0  0  0
   36.6240   31.2450   48.6200 N   0  0  0  0  0  0  0  0  0  0  0  0
   36.0560   30.0100   48.7040 C   0  0  0  0  0  0  0  0  0  0  0  0
   36.4350   29.1390   49.6530 N   0  0  0  0  0  0  0  0  0  0  0  0
   37.7260   28.8180   51.3130 H   0  0  0  0  0  0  0  0  0  0  0  0
   38.7760   31.0730   51.1730 H   0  0  0  0  0  0  0  0  0  0  0  0
   37.9760   32.6150   49.3470 H   0  0  0  0  0  0  0  0  0  0  0  0
   31.6980   26.7110   45.9180 O   0  0  0  0  0  0  0  0  0  0  0  0
   30.1070   27.8620   44.5240 C   0  0  2  0  0  3  0  0  0  0  0  0
   31.4730   27.1830   44.6340 C   0  0  2  0  0  3  0  0  0  0  0  0
   31.4870   26.1630   43.7220 O   0  0  0  0  0  0  0  0  0  0  0  0
   30.4180   26.2960   42.8530 C   0  0  0  0  0  2  0  0  0  0  0  0
   29.9200   27.7320   43.0110 C   0  0  1  0  0  3  0  0  0  0  0  0
   30.1890   29.2040   44.8840 O   0  0  0  0  0  0  0  0  0  0  0  0
   30.9820   29.5540   44.3740 H   0  0  0  0  0  0  0  0  0  0  0  0
   28.6220   27.9090   42.6160 O   0  0  0  0  0  0  0  0  0  0  0  0
   28.6580   28.4940   41.7950 H   0  0  0  0  0  0  0  0  0  0  0  0
  1  6  1  1  0  0  0
  1  2  1  0  0  0  0
  2  7  1  1  0  0  0
  3  2  1  0  0  0  0
  4  9  1  0  0  0  0
  4  3  1  0  0  0  0
  5 10  1  6  0  0  0
  5  4  1  0  0  0  0
  5  1  1  0  0  0  0
  8  4  1  0  0  0  0
 11  1  1  0  0  0  0
 11 12  1  0  0  0  0
 13  2  1  0  0  0  0
 13 18  1  0  0  0  0
 14 20  1  0  0  0  0
 15 14  1  0  0  0  0
 15 21  1  0  0  0  0
 16 15  2  0  0  0  0
 17 18  2  0  0  0  0
 17 16  1  0  0  0  0
 18 19  1  0  0  0  0
 19 14  2  0  0  0  0
 22 16  1  0  0  0  0
 23  5  1  0  0  0  0
 24 25  1  0  0  0  0
 24 29  1  6  0  0  0
 25 23  1  1  0  0  0
 26 25  1  0  0  0  0
 27 28  1  0  0  0  0
 27 26  1  0  0  0  0
 28 31  1  1  0  0  0
 28 24  1  0  0  0  0
 30 29  1  0  0  0  0
 32 31  1  0  0  0  0
M  END
>  <minimizedAffinity>
-3.8350513

>  <minimizedRMSD>
0.737808824

$$$$
