
 OpenBabel03272500063D

 29 31  0  0  1  0  0  0  0  0999 V2000
   37.1980   26.0130   33.7780 C   0  0  0  0  0  0  0  0  0  0  0  0
   37.2470   27.3610   34.2140 C   0  0  0  0  0  0  0  0  0  0  0  0
   38.0890   27.6840   35.2660 C   0  0  0  0  0  0  0  0  0  0  0  0
   38.8320   26.6940   35.8320 N   0  0  0  0  0  0  0  0  0  0  0  0
   38.7700   25.4250   35.4040 C   0  0  0  0  0  0  0  0  0  0  0  0
   37.9560   25.0760   34.3780 N   0  0  0  0  0  0  0  0  0  0  0  0
   36.5560   25.6980   32.9590 H   0  0  0  0  0  0  0  0  0  0  0  0
   38.1260   28.6930   35.5900 H   0  0  0  0  0  0  0  0  0  0  0  0
   36.4150   28.3090   33.5350 N   0  0  0  0  0  0  0  0  0  0  0  0
   35.3550   28.8670   34.1240 C   0  0  0  0  0  0  0  0  0  0  0  0
   34.5700   29.7860   33.4280 C   0  0  0  0  0  0  0  0  0  0  0  0
   34.9920   30.0310   32.1470 C   0  0  0  0  0  0  0  0  0  0  0  0
   34.2920   30.8660   31.4930 O   0  0  0  0  0  0  0  0  0  0  0  0
   36.0530   29.4870   31.5230 N   0  0  0  0  0  0  0  0  0  0  0  0
   36.7740   28.6000   32.2620 C   0  0  0  0  0  0  0  0  0  0  0  0
   37.7720   28.0830   31.6880 O   0  0  0  0  0  0  0  0  0  0  0  0
   35.1100   28.6070   35.1330 H   0  0  0  0  0  0  0  0  0  0  0  0
   33.7070   30.2650   33.8540 H   0  0  0  0  0  0  0  0  0  0  0  0
   36.3030   29.7300   30.5440 H   0  0  0  0  0  0  0  0  0  0  0  0
   39.5300   24.4020   35.9810 O   0  0  0  0  0  0  0  0  0  0  0  0
   39.5450   21.9690   35.9970 C   0  0  1  0  0  3  0  0  0  0  0  0
   39.8860   23.2450   35.2550 C   0  0  2  0  0  3  0  0  0  0  0  0
   41.2970   23.1810   35.3270 O   0  0  0  0  0  0  0  0  0  0  0  0
   41.4630   23.1270   36.7230 C   0  0  0  0  0  2  0  0  0  0  0  0
   40.4640   22.1030   37.2170 C   0  0  1  0  0  3  0  0  0  0  0  0
   38.2180   21.8570   36.3360 O   0  0  0  0  0  0  0  0  0  0  0  0
   37.7950   22.7060   36.5460 H   0  0  0  0  0  0  0  0  0  0  0  0
   39.7310   22.5700   38.2840 O   0  0  0  0  0  0  0  0  0  0  0  0
   40.0170   23.4740   38.6020 H   0  0  0  0  0  0  0  0  0  0  0  0
  1  2  2  0  0  0  0
  1  6  1  0  0  0  0
  2  3  1  0  0  0  0
  3  8  1  0  0  0  0
  3  4  2  0  0  0  0
  5  4  1  0  0  0  0
  5 20  1  0  0  0  0
  6  5  2  0  0  0  0
  7  1  1  0  0  0  0
  9 10  1  0  0  0  0
  9  2  1  0  0  0  0
 10 17  1  0  0  0  0
 11 18  1  0  0  0  0
 11 10  2  0  0  0  0
 12 11  1  0  0  0  0
 13 12  2  0  0  0  0
 14 12  1  0  0  0  0
 14 15  1  0  0  0  0
 15  9  1  0  0  0  0
 16 15  2  0  0  0  0
 19 14  1  0  0  0  0
 21 26  1  1  0  0  0
 21 25  1  0  0  0  0
 22 23  1  0  0  0  0
 22 20  1  1  0  0  0
 22 21  1  0  0  0  0
 23 24  1  0  0  0  0
 24 25  1  0  0  0  0
 25 28  1  1  0  0  0
 26 27  1  0  0  0  0
 28 29  1  0  0  0  0
M  END
>  <minimizedAffinity>
-5.35844564

$$$$

 OpenBabel03272500063D

 29 31  0  0  1  0  0  0  0  0999 V2000
   38.2950   26.7400   35.7490 C   0  0  0  0  0  0  0  0  0  0  0  0
   38.3770   25.4690   35.1260 C   0  0  0  0  0  0  0  0  0  0  0  0
   37.7110   25.2790   33.9250 C   0  0  0  0  0  0  0  0  0  0  0  0
   37.0110   26.3210   33.3980 N   0  0  0  0  0  0  0  0  0  0  0  0
   36.9470   27.5150   34.0040 C   0  0  0  0  0  0  0  0  0  0  0  0
   37.5860   27.7330   35.1800 N   0  0  0  0  0  0  0  0  0  0  0  0
   38.7940   26.9490   36.6920 H   0  0  0  0  0  0  0  0  0  0  0  0
   37.7730   24.3280   33.4590 H   0  0  0  0  0  0  0  0  0  0  0  0
   39.1450   24.4550   35.7830 N   0  0  0  0  0  0  0  0  0  0  0  0
   40.4140   24.2060   35.4510 C   0  0  0  0  0  0  0  0  0  0  0  0
   41.1290   23.2100   36.1160 C   0  0  0  0  0  0  0  0  0  0  0  0
   40.4150   22.5580   37.0890 C   0  0  0  0  0  0  0  0  0  0  0  0
   41.0460   21.6460   37.7080 O   0  0  0  0  0  0  0  0  0  0  0  0
   39.1380   22.7830   37.4470 N   0  0  0  0  0  0  0  0  0  0  0  0
   38.5020   23.7690   36.7570 C   0  0  0  0  0  0  0  0  0  0  0  0
   37.3040   23.9900   37.0850 O   0  0  0  0  0  0  0  0  0  0  0  0
   40.8810   24.7740   34.6740 H   0  0  0  0  0  0  0  0  0  0  0  0
   42.1520   22.9680   35.8900 H   0  0  0  0  0  0  0  0  0  0  0  0
   38.6710   22.2400   38.2000 H   0  0  0  0  0  0  0  0  0  0  0  0
   36.2310   28.5900   33.4690 O   0  0  0  0  0  0  0  0  0  0  0  0
   35.7140   29.6440   31.3370 C   0  0  1  0  0  3  0  0  0  0  0  0
   35.4990   28.4680   32.2680 C   0  0  2  0  0  3  0  0  0  0  0  0
   34.1520   28.7050   32.6280 O   0  0  0  0  0  0  0  0  0  0  0  0
   34.2720   30.0000   33.1650 C   0  0  0  0  0  2  0  0  0  0  0  0
   35.1170   30.7780   32.1800 C   0  0  1  0  0  3  0  0  0  0  0  0
   37.0300   29.8600   31.0040 O   0  0  0  0  0  0  0  0  0  0  0  0
   37.6540   29.6430   31.7170 H   0  0  0  0  0  0  0  0  0  0  0  0
   36.1360   31.4620   32.8020 O   0  0  0  0  0  0  0  0  0  0  0  0
   36.1170   31.3910   33.7990 H   0  0  0  0  0  0  0  0  0  0  0  0
  1  7  1  0  0  0  0
  2  1  2  0  0  0  0
  2  9  1  0  0  0  0
  3  2  1  0  0  0  0
  4  3  2  0  0  0  0
  4  5  1  0  0  0  0
  5  6  2  0  0  0  0
  6  1  1  0  0  0  0
  8  3  1  0  0  0  0
  9 15  1  0  0  0  0
 10  9  1  0  0  0  0
 10 11  2  0  0  0  0
 11 12  1  0  0  0  0
 12 14  1  0  0  0  0
 12 13  2  0  0  0  0
 14 19  1  0  0  0  0
 15 16  2  0  0  0  0
 15 14  1  0  0  0  0
 17 10  1  0  0  0  0
 18 11  1  0  0  0  0
 20  5  1  0  0  0  0
 21 26  1  1  0  0  0
 21 25  1  0  0  0  0
 21 22  1  0  0  0  0
 22 23  1  0  0  0  0
 22 20  1  1  0  0  0
 23 24  1  0  0  0  0
 25 28  1  1  0  0  0
 25 24  1  0  0  0  0
 26 27  1  0  0  0  0
 28 29  1  0  0  0  0
M  END
>  <minimizedAffinity>
-5.34172535

$$$$

 OpenBabel03272500063D

 29 31  0  0  1  0  0  0  0  0999 V2000
   38.5670   24.7510   33.8870 C   0  0  0  0  0  0  0  0  0  0  0  0
   39.1850   25.0850   35.1190 C   0  0  0  0  0  0  0  0  0  0  0  0
   39.0870   26.3900   35.5730 C   0  0  0  0  0  0  0  0  0  0  0  0
   38.4020   27.2920   34.8180 N   0  0  0  0  0  0  0  0  0  0  0  0
   37.8260   26.9550   33.6550 C   0  0  0  0  0  0  0  0  0  0  0  0
   37.9040   25.6870   33.1830 N   0  0  0  0  0  0  0  0  0  0  0  0
   38.6100   23.7440   33.4780 H   0  0  0  0  0  0  0  0  0  0  0  0
   39.5490   26.6390   36.4950 H   0  0  0  0  0  0  0  0  0  0  0  0
   39.8770   24.0440   35.8190 N   0  0  0  0  0  0  0  0  0  0  0  0
   41.1580   23.7610   35.5740 C   0  0  0  0  0  0  0  0  0  0  0  0
   41.7950   22.7390   36.2770 C   0  0  0  0  0  0  0  0  0  0  0  0
   40.9970   22.1010   37.1920 C   0  0  0  0  0  0  0  0  0  0  0  0
   41.5570   21.1650   37.8450 O   0  0  0  0  0  0  0  0  0  0  0  0
   39.7040   22.3600   37.4620 N   0  0  0  0  0  0  0  0  0  0  0  0
   39.1470   23.3690   36.7390 C   0  0  0  0  0  0  0  0  0  0  0  0
   37.9360   23.6230   36.9830 O   0  0  0  0  0  0  0  0  0  0  0  0
   41.6940   24.3210   34.8380 H   0  0  0  0  0  0  0  0  0  0  0  0
   42.8250   22.4690   36.1220 H   0  0  0  0  0  0  0  0  0  0  0  0
   39.1700   21.8240   38.1740 H   0  0  0  0  0  0  0  0  0  0  0  0
   37.1210   27.8760   32.8740 O   0  0  0  0  0  0  0  0  0  0  0  0
   36.3210   27.4700   30.6120 C   0  0  1  0  0  3  0  0  0  0  0  0
   36.0100   27.4880   32.0950 C   0  0  2  0  0  3  0  0  0  0  0  0
   35.1280   28.5930   32.1290 O   0  0  0  0  0  0  0  0  0  0  0  0
   35.9650   29.5850   31.5860 C   0  0  0  0  0  2  0  0  0  0  0  0
   36.6140   28.9560   30.3720 C   0  0  1  0  0  3  0  0  0  0  0  0
   37.3740   26.6550   30.2710 O   0  0  0  0  0  0  0  0  0  0  0  0
   38.0710   26.6150   30.9470 H   0  0  0  0  0  0  0  0  0  0  0  0
   37.9760   29.1510   30.3550 O   0  0  0  0  0  0  0  0  0  0  0  0
   38.3080   29.7260   31.1030 H   0  0  0  0  0  0  0  0  0  0  0  0
  1  2  1  0  0  0  0
  2  3  2  0  0  0  0
  2  9  1  0  0  0  0
  3  8  1  0  0  0  0
  4  3  1  0  0  0  0
  5  4  2  0  0  0  0
  6  5  1  0  0  0  0
  6  1  2  0  0  0  0
  7  1  1  0  0  0  0
  9 15  1  0  0  0  0
 10  9  1  0  0  0  0
 10 11  2  0  0  0  0
 11 12  1  0  0  0  0
 12 14  1  0  0  0  0
 12 13  2  0  0  0  0
 14 19  1  0  0  0  0
 15 16  2  0  0  0  0
 15 14  1  0  0  0  0
 17 10  1  0  0  0  0
 18 11  1  0  0  0  0
 20  5  1  0  0  0  0
 21 26  1  1  0  0  0
 21 22  1  0  0  0  0
 22 23  1  0  0  0  0
 22 20  1  1  0  0  0
 24 23  1  0  0  0  0
 25 28  1  1  0  0  0
 25 21  1  0  0  0  0
 25 24  1  0  0  0  0
 26 27  1  0  0  0  0
 28 29  1  0  0  0  0
M  END
>  <minimizedAffinity>
-5.31814718

$$$$

 OpenBabel03272500063D

 29 31  0  0  1  0  0  0  0  0999 V2000
   37.6680   25.5390   34.1050 C   0  0  0  0  0  0  0  0  0  0  0  0
   38.3670   25.7170   35.3260 C   0  0  0  0  0  0  0  0  0  0  0  0
   38.2890   26.9490   35.9560 C   0  0  0  0  0  0  0  0  0  0  0  0
   37.5440   27.9300   35.3770 N   0  0  0  0  0  0  0  0  0  0  0  0
   36.8910   27.7400   34.2220 C   0  0  0  0  0  0  0  0  0  0  0  0
   36.9480   26.5470   33.5790 N   0  0  0  0  0  0  0  0  0  0  0  0
   37.6920   24.5960   33.5630 H   0  0  0  0  0  0  0  0  0  0  0  0
   38.8110   27.0810   36.8700 H   0  0  0  0  0  0  0  0  0  0  0  0
   39.1160   24.6060   35.8310 N   0  0  0  0  0  0  0  0  0  0  0  0
   40.3500   24.3340   35.4030 C   0  0  0  0  0  0  0  0  0  0  0  0
   41.0460   23.2420   35.9200 C   0  0  0  0  0  0  0  0  0  0  0  0
   40.3530   22.5270   36.8620 C   0  0  0  0  0  0  0  0  0  0  0  0
   40.9670   21.5260   37.3470 O   0  0  0  0  0  0  0  0  0  0  0  0
   39.1090   22.7730   37.3150 N   0  0  0  0  0  0  0  0  0  0  0  0
   38.4910   23.8530   36.7670 C   0  0  0  0  0  0  0  0  0  0  0  0
   37.3240   24.0950   37.1840 O   0  0  0  0  0  0  0  0  0  0  0  0
   40.8040   24.9580   34.6610 H   0  0  0  0  0  0  0  0  0  0  0  0
   42.0420   22.9780   35.6120 H   0  0  0  0  0  0  0  0  0  0  0  0
   38.6560   22.1760   38.0350 H   0  0  0  0  0  0  0  0  0  0  0  0
   36.1240   28.7430   33.6200 O   0  0  0  0  0  0  0  0  0  0  0  0
   33.9310   29.7740   33.3950 C   0  0  1  0  0  3  0  0  0  0  0  0
   35.0760   29.3880   34.3110 C   0  0  2  0  0  3  0  0  0  0  0  0
   35.5700   30.6770   34.6160 O   0  0  0  0  0  0  0  0  0  0  0  0
   35.8490   31.1400   33.3170 C   0  0  0  0  0  2  0  0  0  0  0  0
   34.6360   30.7870   32.4840 C   0  0  1  0  0  3  0  0  0  0  0  0
   33.3880   28.7190   32.7030 O   0  0  0  0  0  0  0  0  0  0  0  0
   34.0350   28.0340   32.4630 H   0  0  0  0  0  0  0  0  0  0  0  0
   34.9810   30.1690   31.3050 O   0  0  0  0  0  0  0  0  0  0  0  0
   35.9680   30.1110   31.1560 H   0  0  0  0  0  0  0  0  0  0  0  0
  1  2  1  0  0  0  0
  2  9  1  0  0  0  0
  2  3  2  0  0  0  0
  3  8  1  0  0  0  0
  4  3  1  0  0  0  0
  5  4  2  0  0  0  0
  6  1  2  0  0  0  0
  6  5  1  0  0  0  0
  7  1  1  0  0  0  0
  9 15  1  0  0  0  0
 10  9  1  0  0  0  0
 10 11  2  0  0  0  0
 11 12  1  0  0  0  0
 12 14  1  0  0  0  0
 12 13  2  0  0  0  0
 14 19  1  0  0  0  0
 15 16  2  0  0  0  0
 15 14  1  0  0  0  0
 17 10  1  0  0  0  0
 18 11  1  0  0  0  0
 20  5  1  0  0  0  0
 21 26  1  6  0  0  0
 21 22  1  0  0  0  0
 22 20  1  6  0  0  0
 22 23  1  0  0  0  0
 24 23  1  0  0  0  0
 25 28  1  6  0  0  0
 25 24  1  0  0  0  0
 25 21  1  0  0  0  0
 27 26  1  0  0  0  0
 29 28  1  0  0  0  0
M  END
>  <minimizedAffinity>
-5.23146582

$$$$

 OpenBabel03272500063D

 29 31  0  0  1  0  0  0  0  0999 V2000
   37.9800   25.4780   33.6750 C   0  0  0  0  0  0  0  0  0  0  0  0
   38.4080   26.8220   33.5290 C   0  0  0  0  0  0  0  0  0  0  0  0
   39.6020   27.2020   34.1220 C   0  0  0  0  0  0  0  0  0  0  0  0
   40.3090   26.2690   34.8150 N   0  0  0  0  0  0  0  0  0  0  0  0
   39.8870   25.0040   34.9410 C   0  0  0  0  0  0  0  0  0  0  0  0
   38.7240   24.6000   34.3750 N   0  0  0  0  0  0  0  0  0  0  0  0
   37.0530   25.1200   33.2350 H   0  0  0  0  0  0  0  0  0  0  0  0
   39.9210   28.2080   34.0110 H   0  0  0  0  0  0  0  0  0  0  0  0
   37.5710   27.7060   32.7740 N   0  0  0  0  0  0  0  0  0  0  0  0
   37.7850   27.9440   31.4790 C   0  0  0  0  0  0  0  0  0  0  0  0
   36.9480   28.8130   30.7790 C   0  0  0  0  0  0  0  0  0  0  0  0
   35.9420   29.3570   31.5360 C   0  0  0  0  0  0  0  0  0  0  0  0
   35.1660   30.1520   30.9190 O   0  0  0  0  0  0  0  0  0  0  0  0
   35.7000   29.1400   32.8410 N   0  0  0  0  0  0  0  0  0  0  0  0
   36.5560   28.2820   33.4600 C   0  0  0  0  0  0  0  0  0  0  0  0
   36.3380   28.0690   34.6840 O   0  0  0  0  0  0  0  0  0  0  0  0
   38.6010   27.4660   30.9780 H   0  0  0  0  0  0  0  0  0  0  0  0
   37.0730   29.0400   29.7350 H   0  0  0  0  0  0  0  0  0  0  0  0
   34.9110   29.5970   33.3400 H   0  0  0  0  0  0  0  0  0  0  0  0
   40.6090   24.0400   35.6520 O   0  0  0  0  0  0  0  0  0  0  0  0
   39.9970   21.7350   36.1400 C   0  0  1  0  0  3  0  0  0  0  0  0
   40.6970   22.7030   35.2070 C   0  0  2  0  0  3  0  0  0  0  0  0
   42.0380   22.3200   35.4450 O   0  0  0  0  0  0  0  0  0  0  0  0
   42.1030   22.5290   36.8350 C   0  0  0  0  0  2  0  0  0  0  0  0
   40.8470   21.9050   37.4040 C   0  0  1  0  0  3  0  0  0  0  0  0
   38.6680   22.0200   36.3450 O   0  0  0  0  0  0  0  0  0  0  0  0
   38.4670   22.9700   36.3400 H   0  0  0  0  0  0  0  0  0  0  0  0
   40.1990   22.7510   38.2740 O   0  0  0  0  0  0  0  0  0  0  0  0
   40.6880   23.6070   38.4410 H   0  0  0  0  0  0  0  0  0  0  0  0
  1  6  1  0  0  0  0
  2  1  2  0  0  0  0
  2  3  1  0  0  0  0
  3  4  2  0  0  0  0
  4  5  1  0  0  0  0
  5 20  1  0  0  0  0
  6  5  2  0  0  0  0
  7  1  1  0  0  0  0
  8  3  1  0  0  0  0
  9 15  1  0  0  0  0
  9  2  1  0  0  0  0
 10  9  1  0  0  0  0
 11 10  2  0  0  0  0
 11 12  1  0  0  0  0
 12 14  1  0  0  0  0
 13 12  2  0  0  0  0
 14 19  1  0  0  0  0
 14 15  1  0  0  0  0
 15 16  2  0  0  0  0
 17 10  1  0  0  0  0
 18 11  1  0  0  0  0
 21 26  1  1  0  0  0
 21 25  1  0  0  0  0
 22 23  1  0  0  0  0
 22 20  1  1  0  0  0
 22 21  1  0  0  0  0
 23 24  1  0  0  0  0
 24 25  1  0  0  0  0
 25 28  1  1  0  0  0
 27 26  1  0  0  0  0
 28 29  1  0  0  0  0
M  END
>  <minimizedAffinity>
-4.99324846

$$$$

 OpenBabel03272500063D

 29 31  0  0  1  0  0  0  0  0999 V2000
   37.4820   25.6200   33.3780 C   0  0  0  0  0  0  0  0  0  0  0  0
   38.5490   25.0130   34.0880 C   0  0  0  0  0  0  0  0  0  0  0  0
   39.8060   24.9990   33.5040 C   0  0  0  0  0  0  0  0  0  0  0  0
   39.9590   25.5700   32.2770 N   0  0  0  0  0  0  0  0  0  0  0  0
   38.9370   26.1380   31.6240 C   0  0  0  0  0  0  0  0  0  0  0  0
   37.6950   26.1680   32.1670 N   0  0  0  0  0  0  0  0  0  0  0  0
   36.4740   25.6620   33.7840 H   0  0  0  0  0  0  0  0  0  0  0  0
   40.6040   24.5450   34.0360 H   0  0  0  0  0  0  0  0  0  0  0  0
   38.2570   24.4470   35.3710 N   0  0  0  0  0  0  0  0  0  0  0  0
   38.2100   25.1940   36.4760 C   0  0  0  0  0  0  0  0  0  0  0  0
   37.9220   24.6050   37.7070 C   0  0  0  0  0  0  0  0  0  0  0  0
   37.7060   23.2520   37.6470 C   0  0  0  0  0  0  0  0  0  0  0  0
   37.4420   22.6930   38.7580 O   0  0  0  0  0  0  0  0  0  0  0  0
   37.7470   22.4710   36.5520 N   0  0  0  0  0  0  0  0  0  0  0  0
   38.0330   23.1120   35.3870 C   0  0  0  0  0  0  0  0  0  0  0  0
   38.0730   22.3910   34.3530 O   0  0  0  0  0  0  0  0  0  0  0  0
   38.3940   26.2460   36.4150 H   0  0  0  0  0  0  0  0  0  0  0  0
   37.8710   25.1580   38.6280 H   0  0  0  0  0  0  0  0  0  0  0  0
   37.5710   21.4480   36.5970 H   0  0  0  0  0  0  0  0  0  0  0  0
   39.0870   26.7270   30.3640 O   0  0  0  0  0  0  0  0  0  0  0  0
   38.6450   28.5620   28.8280 C   0  0  1  0  0  3  0  0  0  0  0  0
   39.1200   28.1280   30.2010 C   0  0  2  0  0  3  0  0  0  0  0  0
   40.4900   28.4570   30.0820 O   0  0  0  0  0  0  0  0  0  0  0  0
   40.8260   27.6810   28.9570 C   0  0  0  0  0  2  0  0  0  0  0  0
   39.7260   27.9240   27.9470 C   0  0  1  0  0  3  0  0  0  0  0  0
   37.3770   28.1340   28.5140 O   0  0  0  0  0  0  0  0  0  0  0  0
   37.1540   27.2660   28.8880 H   0  0  0  0  0  0  0  0  0  0  0  0
   39.2420   26.7490   27.4180 O   0  0  0  0  0  0  0  0  0  0  0  0
   39.7330   25.9360   27.7320 H   0  0  0  0  0  0  0  0  0  0  0  0
  1  7  1  0  0  0  0
  1  2  1  0  0  0  0
  2  9  1  0  0  0  0
  3  8  1  0  0  0  0
  3  2  2  0  0  0  0
  4  3  1  0  0  0  0
  5  6  1  0  0  0  0
  5  4  2  0  0  0  0
  6  1  2  0  0  0  0
  9 15  1  0  0  0  0
  9 10  1  0  0  0  0
 10 11  2  0  0  0  0
 11 18  1  0  0  0  0
 12 11  1  0  0  0  0
 12 13  2  0  0  0  0
 14 19  1  0  0  0  0
 14 12  1  0  0  0  0
 15 14  1  0  0  0  0
 16 15  2  0  0  0  0
 17 10  1  0  0  0  0
 20  5  1  0  0  0  0
 21 26  1  6  0  0  0
 21 22  1  0  0  0  0
 22 20  1  6  0  0  0
 23 22  1  0  0  0  0
 24 23  1  0  0  0  0
 25 28  1  1  0  0  0
 25 21  1  0  0  0  0
 25 24  1  0  0  0  0
 26 27  1  0  0  0  0
 28 29  1  0  0  0  0
M  END
>  <minimizedAffinity>
-4.94211626

$$$$

 OpenBabel03272500063D

 29 31  0  0  1  0  0  0  0  0999 V2000
   36.3670   28.3160   34.4800 C   0  0  0  0  0  0  0  0  0  0  0  0
   35.8070   29.5280   34.0050 C   0  0  0  0  0  0  0  0  0  0  0  0
   35.9310   29.8280   32.6570 C   0  0  0  0  0  0  0  0  0  0  0  0
   36.5830   28.9450   31.8520 N   0  0  0  0  0  0  0  0  0  0  0  0
   37.1060   27.8040   32.3230 C   0  0  0  0  0  0  0  0  0  0  0  0
   37.0020   27.4820   33.6360 N   0  0  0  0  0  0  0  0  0  0  0  0
   36.3030   28.0260   35.5270 H   0  0  0  0  0  0  0  0  0  0  0  0
   35.5110   30.7350   32.3020 H   0  0  0  0  0  0  0  0  0  0  0  0
   35.1450   30.3720   34.9540 N   0  0  0  0  0  0  0  0  0  0  0  0
   35.8150   31.2510   35.7030 C   0  0  0  0  0  0  0  0  0  0  0  0
   35.1340   32.0540   36.6170 C   0  0  0  0  0  0  0  0  0  0  0  0
   33.7790   31.8450   36.6510 C   0  0  0  0  0  0  0  0  0  0  0  0
   33.1370   32.5660   37.4770 O   0  0  0  0  0  0  0  0  0  0  0  0
   33.0740   30.9680   35.9120 N   0  0  0  0  0  0  0  0  0  0  0  0
   33.8030   30.2180   35.0420 C   0  0  0  0  0  0  0  0  0  0  0  0
   33.1530   29.3930   34.3420 O   0  0  0  0  0  0  0  0  0  0  0  0
   36.8760   31.3370   35.6000 H   0  0  0  0  0  0  0  0  0  0  0  0
   35.6220   32.7780   37.2440 H   0  0  0  0  0  0  0  0  0  0  0  0
   32.0430   30.8730   36.0020 H   0  0  0  0  0  0  0  0  0  0  0  0
   37.7770   26.8920   31.5020 O   0  0  0  0  0  0  0  0  0  0  0  0
   39.5290   26.3370   29.9070 C   0  0  1  0  0  3  0  0  0  0  0  0
   39.1460   27.0430   31.1930 C   0  0  2  0  0  3  0  0  0  0  0  0
   39.8280   26.2190   32.1170 O   0  0  0  0  0  0  0  0  0  0  0  0
   39.2440   24.9770   31.8080 C   0  0  0  0  0  2  0  0  0  0  0  0
   39.2560   24.8800   30.2980 C   0  0  1  0  0  3  0  0  0  0  0  0
   38.8070   26.7430   28.8100 O   0  0  0  0  0  0  0  0  0  0  0  0
   37.8870   26.9820   29.0150 H   0  0  0  0  0  0  0  0  0  0  0  0
   38.0330   24.5000   29.7950 O   0  0  0  0  0  0  0  0  0  0  0  0
   37.3580   24.2860   30.5010 H   0  0  0  0  0  0  0  0  0  0  0  0
  1  7  1  0  0  0  0
  2  1  1  0  0  0  0
  2  9  1  0  0  0  0
  3  2  2  0  0  0  0
  4  5  2  0  0  0  0
  4  3  1  0  0  0  0
  5  6  1  0  0  0  0
  6  1  2  0  0  0  0
  8  3  1  0  0  0  0
  9 15  1  0  0  0  0
  9 10  1  0  0  0  0
 10 11  2  0  0  0  0
 11 12  1  0  0  0  0
 11 18  1  0  0  0  0
 12 13  2  0  0  0  0
 14 19  1  0  0  0  0
 14 12  1  0  0  0  0
 15 14  1  0  0  0  0
 16 15  2  0  0  0  0
 17 10  1  0  0  0  0
 20  5  1  0  0  0  0
 21 26  1  6  0  0  0
 21 25  1  0  0  0  0
 21 22  1  0  0  0  0
 22 20  1  1  0  0  0
 22 23  1  0  0  0  0
 24 23  1  0  0  0  0
 25 28  1  6  0  0  0
 25 24  1  0  0  0  0
 26 27  1  0  0  0  0
 28 29  1  0  0  0  0
M  END
>  <minimizedAffinity>
-4.86440182

$$$$

 OpenBabel03272500063D

 29 31  0  0  1  0  0  0  0  0999 V2000
   36.5190   28.5270   31.9950 C   0  0  0  0  0  0  0  0  0  0  0  0
   37.0500   27.3520   32.5860 C   0  0  0  0  0  0  0  0  0  0  0  0
   36.9820   27.2190   33.9640 C   0  0  0  0  0  0  0  0  0  0  0  0
   36.4080   28.2190   34.6870 N   0  0  0  0  0  0  0  0  0  0  0  0
   35.9120   29.3220   34.1080 C   0  0  0  0  0  0  0  0  0  0  0  0
   35.9630   29.4830   32.7630 N   0  0  0  0  0  0  0  0  0  0  0  0
   36.5430   28.6890   30.9200 H   0  0  0  0  0  0  0  0  0  0  0  0
   37.3790   26.3400   34.4050 H   0  0  0  0  0  0  0  0  0  0  0  0
   37.6280   26.3730   31.7150 N   0  0  0  0  0  0  0  0  0  0  0  0
   38.9230   26.3940   31.3920 C   0  0  0  0  0  0  0  0  0  0  0  0
   39.4470   25.4220   30.5400 C   0  0  0  0  0  0  0  0  0  0  0  0
   38.5290   24.5020   30.1020 C   0  0  0  0  0  0  0  0  0  0  0  0
   38.9840   23.6070   29.3240 O   0  0  0  0  0  0  0  0  0  0  0  0
   37.2190   24.4530   30.4070 N   0  0  0  0  0  0  0  0  0  0  0  0
   36.7770   25.4320   31.2430 C   0  0  0  0  0  0  0  0  0  0  0  0
   35.5500   25.3960   31.5380 O   0  0  0  0  0  0  0  0  0  0  0  0
   39.5570   27.1580   31.7900 H   0  0  0  0  0  0  0  0  0  0  0  0
   40.4810   25.3900   30.2470 H   0  0  0  0  0  0  0  0  0  0  0  0
   36.5910   23.7170   30.0290 H   0  0  0  0  0  0  0  0  0  0  0  0
   35.3210   30.3540   34.8430 O   0  0  0  0  0  0  0  0  0  0  0  0
   35.3340   32.7680   35.1480 C   0  0  1  0  0  3  0  0  0  0  0  0
   34.9970   31.5930   34.2520 C   0  0  2  0  0  3  0  0  0  0  0  0
   33.5850   31.6690   34.2980 O   0  0  0  0  0  0  0  0  0  0  0  0
   33.3850   31.5600   35.6870 C   0  0  0  0  0  2  0  0  0  0  0  0
   34.3840   32.5030   36.3220 C   0  0  1  0  0  3  0  0  0  0  0  0
   36.6540   32.8190   35.5290 O   0  0  0  0  0  0  0  0  0  0  0  0
   37.0610   31.9450   35.6460 H   0  0  0  0  0  0  0  0  0  0  0  0
   35.0840   31.9020   37.3430 O   0  0  0  0  0  0  0  0  0  0  0  0
   34.7800   30.9710   37.5440 H   0  0  0  0  0  0  0  0  0  0  0  0
  1  2  2  0  0  0  0
  1  6  1  0  0  0  0
  2  3  1  0  0  0  0
  3  8  1  0  0  0  0
  3  4  2  0  0  0  0
  5  4  1  0  0  0  0
  5 20  1  0  0  0  0
  6  5  2  0  0  0  0
  7  1  1  0  0  0  0
  9  2  1  0  0  0  0
 10  9  1  0  0  0  0
 10 17  1  0  0  0  0
 11 10  2  0  0  0  0
 12 14  1  0  0  0  0
 12 11  1  0  0  0  0
 13 12  2  0  0  0  0
 14 15  1  0  0  0  0
 15 16  2  0  0  0  0
 15  9  1  0  0  0  0
 18 11  1  0  0  0  0
 19 14  1  0  0  0  0
 21 26  1  1  0  0  0
 21 25  1  0  0  0  0
 22 23  1  0  0  0  0
 22 20  1  1  0  0  0
 22 21  1  0  0  0  0
 23 24  1  0  0  0  0
 24 25  1  0  0  0  0
 25 28  1  1  0  0  0
 26 27  1  0  0  0  0
 28 29  1  0  0  0  0
M  END
>  <minimizedAffinity>
-4.81590366

$$$$

 OpenBabel03272500063D

 29 31  0  0  1  0  0  0  0  0999 V2000
   35.1410   28.2690   31.8420 C   0  0  0  0  0  0  0  0  0  0  0  0
   34.7080   29.3190   32.6920 C   0  0  0  0  0  0  0  0  0  0  0  0
   35.3020   29.4470   33.9370 C   0  0  0  0  0  0  0  0  0  0  0  0
   36.2740   28.5610   34.2880 N   0  0  0  0  0  0  0  0  0  0  0  0
   36.6680   27.5760   33.4700 C   0  0  0  0  0  0  0  0  0  0  0  0
   36.1070   27.4230   32.2450 N   0  0  0  0  0  0  0  0  0  0  0  0
   34.7120   28.1170   30.8540 H   0  0  0  0  0  0  0  0  0  0  0  0
   34.9770   30.2330   34.5710 H   0  0  0  0  0  0  0  0  0  0  0  0
   33.6750   30.1840   32.2040 N   0  0  0  0  0  0  0  0  0  0  0  0
   33.9460   31.2390   31.4330 C   0  0  0  0  0  0  0  0  0  0  0  0
   32.9120   32.0580   30.9790 C   0  0  0  0  0  0  0  0  0  0  0  0
   31.6640   31.6710   31.3950 C   0  0  0  0  0  0  0  0  0  0  0  0
   30.7050   32.4030   30.9940 O   0  0  0  0  0  0  0  0  0  0  0  0
   31.3570   30.6160   32.1720 N   0  0  0  0  0  0  0  0  0  0  0  0
   32.4150   29.8620   32.5780 C   0  0  0  0  0  0  0  0  0  0  0  0
   32.1400   28.8690   33.3060 O   0  0  0  0  0  0  0  0  0  0  0  0
   34.9580   31.4540   31.1630 H   0  0  0  0  0  0  0  0  0  0  0  0
   33.0720   32.9190   30.3550 H   0  0  0  0  0  0  0  0  0  0  0  0
   30.3780   30.3950   32.4420 H   0  0  0  0  0  0  0  0  0  0  0  0
   37.6670   26.6630   33.8230 O   0  0  0  0  0  0  0  0  0  0  0  0
   38.7280   26.3980   35.9970 C   0  0  1  0  0  3  0  0  0  0  0  0
   37.6300   25.9620   35.0480 C   0  0  2  0  0  3  0  0  0  0  0  0
   38.0930   24.6610   34.7450 O   0  0  0  0  0  0  0  0  0  0  0  0
   39.3660   24.9720   34.2340 C   0  0  0  0  0  2  0  0  0  0  0  0
   39.9670   25.9660   35.2040 C   0  0  1  0  0  3  0  0  0  0  0  0
   38.7170   27.7420   36.2850 O   0  0  0  0  0  0  0  0  0  0  0  0
   38.4220   28.2980   35.5440 H   0  0  0  0  0  0  0  0  0  0  0  0
   40.4950   27.0620   34.5600 O   0  0  0  0  0  0  0  0  0  0  0  0
   40.4580   26.9970   33.5630 H   0  0  0  0  0  0  0  0  0  0  0  0
  1  6  2  0  0  0  0
  1  2  1  0  0  0  0
  2  3  2  0  0  0  0
  3  4  1  0  0  0  0
  3  8  1  0  0  0  0
  5 20  1  0  0  0  0
  5  4  2  0  0  0  0
  6  5  1  0  0  0  0
  7  1  1  0  0  0  0
  9 15  1  0  0  0  0
  9  2  1  0  0  0  0
 10  9  1  0  0  0  0
 11 12  1  0  0  0  0
 11 10  2  0  0  0  0
 12 14  1  0  0  0  0
 13 12  2  0  0  0  0
 14 19  1  0  0  0  0
 14 15  1  0  0  0  0
 15 16  2  0  0  0  0
 17 10  1  0  0  0  0
 18 11  1  0  0  0  0
 21 26  1  6  0  0  0
 22 20  1  6  0  0  0
 22 21  1  0  0  0  0
 23 22  1  0  0  0  0
 24 23  1  0  0  0  0
 24 25  1  0  0  0  0
 25 28  1  6  0  0  0
 25 21  1  0  0  0  0
 27 26  1  0  0  0  0
 29 28  1  0  0  0  0
M  END
>  <minimizedAffinity>
-4.78530693

$$$$
