
 OpenBabel03272506423D

 32 34  0  0  1  0  0  0  0  0999 V2000
   32.4220   28.3560   47.5040 C   0  0  2  0  0  0  0  0  0  0  0  0
   33.6540   28.4320   48.3800 C   0  0  1  0  0  0  0  0  0  0  0  0
   34.2250   27.1880   48.4150 O   0  0  0  0  0  0  0  0  0  0  0  0
   33.6000   26.3820   47.4890 C   0  0  0  0  0  0  0  0  0  0  0  0
   32.8920   27.3100   46.5190 C   0  0  1  0  0  0  0  0  0  0  0  0
   31.5570   27.9350   48.0450 H   0  0  0  0  0  0  0  0  0  0  0  0
   33.4190   28.7550   49.4030 H   0  0  0  0  0  0  0  0  0  0  0  0
   34.3930   25.7760   47.0040 H   0  0  0  0  0  0  0  0  0  0  0  0
   32.8490   25.7570   48.0090 H   0  0  0  0  0  0  0  0  0  0  0  0
   33.5640   27.7220   45.7540 H   0  0  0  0  0  0  0  0  0  0  0  0
   32.1480   29.5790   46.9110 O   0  0  0  0  0  0  0  0  0  0  0  0
   31.3720   29.9620   47.4080 H   0  0  0  0  0  0  0  0  0  0  0  0
   34.8180   29.5640   47.5390 S   0  0  0  0  0  0  0  0  0  0  0  0
   37.4100   29.4950   50.5370 C   0  0  0  0  0  0  0  0  0  0  0  0
   38.0260   30.7530   50.5080 C   0  0  0  0  0  0  0  0  0  0  0  0
   37.6200   31.6510   49.5230 C   0  0  0  0  0  0  0  0  0  0  0  0
   36.6590   31.2840   48.6390 N   0  0  0  0  0  0  0  0  0  0  0  0
   36.0860   30.0500   48.7020 C   0  0  0  0  0  0  0  0  0  0  0  0
   36.4550   29.1640   49.6400 N   0  0  0  0  0  0  0  0  0  0  0  0
   37.7350   28.8150   51.3040 H   0  0  0  0  0  0  0  0  0  0  0  0
   38.7940   31.0670   51.2020 H   0  0  0  0  0  0  0  0  0  0  0  0
   38.0120   32.6390   49.3940 H   0  0  0  0  0  0  0  0  0  0  0  0
   31.8390   26.6710   45.8810 O   0  0  0  0  0  0  0  0  0  0  0  0
   30.5270   26.5580   43.8660 C   0  0  2  0  0  3  0  0  0  0  0  0
   31.8970   26.7910   44.5010 C   0  0  2  0  0  3  0  0  0  0  0  0
   32.7500   25.8670   43.9600 O   0  0  0  0  0  0  0  0  0  0  0  0
   32.1620   25.2770   42.8550 C   0  0  0  0  0  2  0  0  0  0  0  0
   30.9980   26.1850   42.4590 C   0  0  1  0  0  3  0  0  0  0  0  0
   29.7900   27.7400   43.8270 O   0  0  0  0  0  0  0  0  0  0  0  0
   30.4260   28.4210   43.4480 H   0  0  0  0  0  0  0  0  0  0  0  0
   30.0330   25.5490   41.7250 O   0  0  0  0  0  0  0  0  0  0  0  0
   30.0710   25.9600   40.8030 H   0  0  0  0  0  0  0  0  0  0  0  0
  1  6  1  1  0  0  0
  1  2  1  0  0  0  0
  2  3  1  0  0  0  0
  2  7  1  1  0  0  0
  4  9  1  0  0  0  0
  4  3  1  0  0  0  0
  5 10  1  6  0  0  0
  5  4  1  0  0  0  0
  5  1  1  0  0  0  0
  8  4  1  0  0  0  0
 11 12  1  0  0  0  0
 11  1  1  0  0  0  0
 13  2  1  0  0  0  0
 13 18  1  0  0  0  0
 14 20  1  0  0  0  0
 15 14  1  0  0  0  0
 15 21  1  0  0  0  0
 16 15  2  0  0  0  0
 17 18  2  0  0  0  0
 17 16  1  0  0  0  0
 18 19  1  0  0  0  0
 19 14  2  0  0  0  0
 22 16  1  0  0  0  0
 23  5  1  0  0  0  0
 24 29  1  6  0  0  0
 24 25  1  0  0  0  0
 25 23  1  1  0  0  0
 26 25  1  0  0  0  0
 27 26  1  0  0  0  0
 28 31  1  1  0  0  0
 28 27  1  0  0  0  0
 28 24  1  0  0  0  0
 30 29  1  0  0  0  0
 32 31  1  0  0  0  0
M  END
>  <minimizedAffinity>
-3.75275993

>  <minimizedRMSD>
0.0791589469

$$$$
