
     RDKit          3D

 37 39  0  0  0  0  0  0  0  0999 V2000
   34.8037   29.5372   47.5131 S   0  0  0  0  0  0  0  0  0  0  0  0
   37.3636   29.4744   50.5395 C   0  0  0  0  0  0  0  0  0  0  0  0
   37.9750   30.7352   50.5191 C   0  0  0  0  0  0  0  0  0  0  0  0
   37.5763   31.6319   49.5310 C   0  0  0  0  0  0  0  0  0  0  0  0
   36.6260   31.2629   48.6361 N   0  0  0  0  0  0  0  0  0  0  0  0
   36.0568   30.0271   48.6913 C   0  0  0  0  0  0  0  0  0  0  0  0
   36.4202   29.1409   49.6320 N   0  0  0  0  0  0  0  0  0  0  0  0
   32.3954   28.3550   47.4724 C   0  0  2  0  0  0  0  0  0  0  0  0
   33.6331   28.4020   48.3412 C   0  0  1  0  0  0  0  0  0  0  0  0
   34.1913   27.1522   48.3492 O   0  0  0  0  0  0  0  0  0  0  0  0
   33.5520   26.3705   47.4130 C   0  0  0  0  0  0  0  0  0  0  0  0
   32.8480   27.3234   46.4645 C   0  0  1  0  0  0  0  0  0  0  0  0
   32.1303   29.5919   46.9025 O   0  0  0  0  0  0  0  0  0  0  0  0
   31.7843   26.7075   45.8222 O   0  0  0  0  0  0  0  0  0  0  0  0
   37.6832   28.7940   51.3091 H   0  0  0  0  0  0  0  0  0  0  0  0
   38.7341   31.0507   51.2218 H   0  0  0  0  0  0  0  0  0  0  0  0
   37.9647   32.6218   49.4079 H   0  0  0  0  0  0  0  0  0  0  0  0
   31.5290   27.9338   48.0111 H   0  0  0  0  0  0  0  0  0  0  0  0
   33.4083   28.7093   49.3712 H   0  0  0  0  0  0  0  0  0  0  0  0
   34.3348   25.7638   46.9124 H   0  0  0  0  0  0  0  0  0  0  0  0
   32.7983   25.7427   47.9261 H   0  0  0  0  0  0  0  0  0  0  0  0
   33.5190   27.7418   45.7031 H   0  0  0  0  0  0  0  0  0  0  0  0
   31.3622   29.9738   47.4117 H   0  0  0  0  0  0  0  0  0  0  0  0
   33.7892   25.4843   43.8114 O   0  0  0  0  0  0  0  0  0  0  0  0
   33.3260   26.7874   43.9741 C   0  0  2  0  0  0  0  0  0  0  0  0
   31.8703   26.7942   44.4413 C   0  0  2  0  0  0  0  0  0  0  0  0
   31.3101   27.9563   43.9825 O   0  0  0  0  0  0  0  0  0  0  0  0
   32.1415   28.5390   43.0430 C   0  0  0  0  0  0  0  0  0  0  0  0
   33.1219   27.4498   42.6105 C   0  0  1  0  0  0  0  0  0  0  0  0
   34.2827   27.9380   42.0747 O   0  0  0  0  0  0  0  0  0  0  0  0
   33.0720   25.0282   43.2728 H   0  0  0  0  0  0  0  0  0  0  0  0
   33.9338   27.3940   44.6468 H   0  0  0  0  0  0  0  0  0  0  0  0
   31.4008   25.9364   43.9417 H   0  0  0  0  0  0  0  0  0  0  0  0
   32.7707   29.2851   43.5864 H   0  0  0  0  0  0  0  0  0  0  0  0
   31.6459   29.0061   42.1935 H   0  0  0  0  0  0  0  0  0  0  0  0
   32.5930   26.6968   41.9918 H   0  0  0  0  0  0  0  0  0  0  0  0
   34.2693   27.6774   41.0996 H   0  0  0  0  0  0  0  0  0  0  0  0
  1  6  1  0
  3  2  2  0
  4  3  1  0
  5  6  1  0
  5  4  2  0
  6  7  2  0
  7  2  1  0
  8 13  1  0
  8  9  1  0
  9  1  1  0
  9 10  1  0
 11 10  1  0
 12 14  1  0
 12 11  1  0
 12  8  1  0
  2 15  1  0
  3 16  1  0
  4 17  1  0
  8 18  1  1
  9 19  1  1
 11 20  1  0
 11 21  1  0
 12 22  1  6
 13 23  1  0
 24 25  1  0
 25 26  1  0
 26 27  1  0
 27 28  1  0
 28 29  1  0
 29 30  1  0
 29 25  1  0
 24 31  1  0
 25 32  1  1
 26 33  1  6
 28 34  1  0
 28 35  1  0
 29 36  1  6
 30 37  1  0
 14 26  1  0
M  ISO  8  15  14  16  14  17  14  18  13  19  13  20  13  21  13  22  13
M  ISO  1  23   3
M  END
>  <DihAtoms>  (1) 
11,13,25,24

>  <DihDeg>  (1) 
-117.75814206689539

$$$$
