
 OpenBabel03272508223D

 42 45  0  0  1  0  0  0  0  0999 V2000
   36.2450   27.7670   32.7900 C   0  0  0  0  0  0  0  0  0  0  0  0
   35.3230   27.1470   32.7490 H   0  0  0  0  0  0  0  0  0  0  0  0
   36.8070   27.4560   31.8590 H   0  0  0  0  0  0  0  0  0  0  0  0
   37.0360   25.1140   32.9620 F   0  0  0  0  0  0  0  0  0  0  0  0
   37.3690   26.0140   33.8980 C   0  0  0  0  0  0  0  0  0  0  0  0
   37.0260   27.3680   33.9160 C   0  0  0  0  0  0  0  0  0  0  0  0
   37.4520   28.0980   34.9760 C   0  0  0  0  0  0  0  0  0  0  0  0
   38.1870   27.5890   35.9960 C   0  0  0  0  0  0  0  0  0  0  0  0
   38.5350   26.2220   35.9790 C   0  0  0  0  0  0  0  0  0  0  0  0
   38.0970   25.4340   34.8880 C   0  0  0  0  0  0  0  0  0  0  0  0
   37.2030   29.0980   35.1600 H   0  0  0  0  0  0  0  0  0  0  0  0
   38.5520   28.1500   36.8610 H   0  0  0  0  0  0  0  0  0  0  0  0
   39.1350   25.8280   36.8190 H   0  0  0  0  0  0  0  0  0  0  0  0
   38.4990   24.1310   35.0390 O   0  0  0  0  0  0  0  0  0  0  0  0
   39.6100   23.2170   36.9770 C   0  0  2  0  0  3  0  0  0  0  0  0
   39.6790   23.6500   35.5030 C   0  0  1  0  0  3  0  0  0  0  0  0
   39.9210   22.3400   34.9490 O   0  0  0  0  0  0  0  0  0  0  0  0
   41.1000   22.0060   35.6080 C   0  0  0  0  0  2  0  0  0  0  0  0
   40.8940   22.3980   37.0540 C   0  0  2  0  0  3  0  0  0  0  0  0
   38.5330   22.4020   37.2270 O   0  0  0  0  0  0  0  0  0  0  0  0
   38.2570   22.5180   38.1650 H   0  0  0  0  0  0  0  0  0  0  0  0
   40.7920   21.3080   37.8840 O   0  0  0  0  0  0  0  0  0  0  0  0
   39.9510   20.8370   37.7690 H   0  0  0  0  0  0  0  0  0  0  0  0
   35.9680   29.2150   32.6340 C   0  0  0  0  0  0  0  0  0  0  0  0
   36.7600   29.7540   33.2450 H   0  0  0  0  0  0  0  0  0  0  0  0
   36.1740   29.5680   31.6040 H   0  0  0  0  0  0  0  0  0  0  0  0
   34.5570   30.7430   33.9380 C   0  0  0  0  0  0  0  0  0  0  0  0
   34.6930   29.6910   33.0750 C   0  0  0  0  0  0  0  0  0  0  0  0
   33.5140   29.1150   32.7340 C   0  0  0  0  0  0  0  0  0  0  0  0
   32.3260   29.5290   33.1980 N   0  0  0  0  0  0  0  0  0  0  0  0
   32.1990   30.5420   34.0320 C   0  0  0  0  0  0  0  0  0  0  0  0
   33.3140   31.1650   34.4160 N   0  0  0  0  0  0  0  0  0  0  0  0
   33.4650   28.2590   32.0470 H   0  0  0  0  0  0  0  0  0  0  0  0
   31.2140   30.8200   34.3630 H   0  0  0  0  0  0  0  0  0  0  0  0
   35.7520   31.6200   34.3030 C   0  0  0  0  0  0  0  0  0  0  0  0
   35.6860   32.6620   35.2150 C   0  0  0  0  0  0  0  0  0  0  0  0
   36.0490   31.3260   35.8390 C   0  0  0  0  0  0  0  0  0  0  0  0
   36.6510   31.4980   33.7530 H   0  0  0  0  0  0  0  0  0  0  0  0
   34.6710   33.0810   35.4890 H   0  0  0  0  0  0  0  0  0  0  0  0
   36.4490   33.4300   35.3280 H   0  0  0  0  0  0  0  0  0  0  0  0
   35.2730   30.8750   36.4340 H   0  0  0  0  0  0  0  0  0  0  0  0
   37.0870   31.0990   36.0650 H   0  0  0  0  0  0  0  0  0  0  0  0
  1  6  1  0  0  0  0
  2  1  1  0  0  0  0
  3  1  1  0  0  0  0
  4  5  1  0  0  0  0
  5  6  2  0  0  0  0
  5 10  1  0  0  0  0
  6  7  1  0  0  0  0
  7 11  1  0  0  0  0
  7  8  2  0  0  0  0
  8 12  1  0  0  0  0
  9  8  1  0  0  0  0
  9 13  1  0  0  0  0
 10 14  1  0  0  0  0
 10  9  2  0  0  0  0
 15 19  1  0  0  0  0
 15 20  1  6  0  0  0
 16 14  1  6  0  0  0
 16 15  1  0  0  0  0
 17 16  1  0  0  0  0
 17 18  1  0  0  0  0
 18 19  1  0  0  0  0
 19 22  1  1  0  0  0
 20 21  1  0  0  0  0
 23 22  1  0  0  0  0
 24  1  1  0  0  0  0
 24 28  1  0  0  0  0
 24 25  1  0  0  0  0
 26 24  1  0  0  0  0
 27 35  1  0  0  0  0
 27 32  1  0  0  0  0
 28 27  2  0  0  0  0
 29 28  1  0  0  0  0
 29 30  2  0  0  0  0
 30 31  1  0  0  0  0
 31 34  1  0  0  0  0
 31 32  2  0  0  0  0
 33 29  1  0  0  0  0
 35 36  1  0  0  0  0
 35 37  1  0  0  0  0
 36 40  1  0  0  0  0
 36 39  1  0  0  0  0
 36 37  1  0  0  0  0
 37 42  1  0  0  0  0
 37 41  1  0  0  0  0
 38 35  1  0  0  0  0
M  END
>  <minimizedAffinity>
-6.07319164

$$$$

 OpenBabel03272508223D

 42 45  0  0  1  0  0  0  0  0999 V2000
   35.9300   29.3870   33.3780 C   0  0  0  0  0  0  0  0  0  0  0  0
   35.9940   29.9870   32.4460 H   0  0  0  0  0  0  0  0  0  0  0  0
   36.7460   29.8270   34.0260 H   0  0  0  0  0  0  0  0  0  0  0  0
   37.4670   28.0180   35.2370 F   0  0  0  0  0  0  0  0  0  0  0  0
   37.0610   27.4450   34.0940 C   0  0  0  0  0  0  0  0  0  0  0  0
   36.2910   28.0360   33.0900 C   0  0  0  0  0  0  0  0  0  0  0  0
   36.0110   27.2790   32.0010 C   0  0  0  0  0  0  0  0  0  0  0  0
   36.4280   25.9970   31.8460 C   0  0  0  0  0  0  0  0  0  0  0  0
   37.2060   25.3990   32.8600 C   0  0  0  0  0  0  0  0  0  0  0  0
   37.5200   26.1690   34.0040 C   0  0  0  0  0  0  0  0  0  0  0  0
   35.5150   27.6150   31.1420 H   0  0  0  0  0  0  0  0  0  0  0  0
   36.2150   25.3580   30.9850 H   0  0  0  0  0  0  0  0  0  0  0  0
   37.5350   24.3540   32.7130 H   0  0  0  0  0  0  0  0  0  0  0  0
   38.2970   25.4480   34.8750 O   0  0  0  0  0  0  0  0  0  0  0  0
   38.7970   23.4540   36.1400 C   0  0  2  0  0  3  0  0  0  0  0  0
   37.9170   24.7000   35.9410 C   0  0  1  0  0  3  0  0  0  0  0  0
   38.2860   25.3710   37.1630 O   0  0  0  0  0  0  0  0  0  0  0  0
   37.8980   24.4160   38.0980 C   0  0  0  0  0  2  0  0  0  0  0  0
   38.3870   23.0880   37.5630 C   0  0  2  0  0  3  0  0  0  0  0  0
   40.1370   23.7580   36.1160 O   0  0  0  0  0  0  0  0  0  0  0  0
   40.6340   22.9720   35.7920 H   0  0  0  0  0  0  0  0  0  0  0  0
   39.4180   22.5700   38.3070 O   0  0  0  0  0  0  0  0  0  0  0  0
   40.2460   23.0590   38.1780 H   0  0  0  0  0  0  0  0  0  0  0  0
   34.6630   29.6080   34.1160 C   0  0  0  0  0  0  0  0  0  0  0  0
   33.8970   29.9240   33.3380 H   0  0  0  0  0  0  0  0  0  0  0  0
   34.2370   28.6610   34.5040 H   0  0  0  0  0  0  0  0  0  0  0  0
   33.5810   30.8480   35.9390 C   0  0  0  0  0  0  0  0  0  0  0  0
   34.6650   30.6070   35.1400 C   0  0  0  0  0  0  0  0  0  0  0  0
   35.7070   31.4430   35.3760 C   0  0  0  0  0  0  0  0  0  0  0  0
   35.6810   32.4160   36.2980 N   0  0  0  0  0  0  0  0  0  0  0  0
   34.6330   32.6460   37.0630 C   0  0  0  0  0  0  0  0  0  0  0  0
   33.5650   31.8650   36.8950 N   0  0  0  0  0  0  0  0  0  0  0  0
   36.6480   31.3690   34.8130 H   0  0  0  0  0  0  0  0  0  0  0  0
   34.6830   33.4450   37.7830 H   0  0  0  0  0  0  0  0  0  0  0  0
   32.3800   29.9070   35.9360 C   0  0  0  0  0  0  0  0  0  0  0  0
   31.1750   30.2030   36.5560 C   0  0  0  0  0  0  0  0  0  0  0  0
   31.2450   30.6580   35.1090 C   0  0  0  0  0  0  0  0  0  0  0  0
   32.5050   28.9330   35.5350 H   0  0  0  0  0  0  0  0  0  0  0  0
   31.1530   31.0220   37.3370 H   0  0  0  0  0  0  0  0  0  0  0  0
   30.3910   29.4740   36.7570 H   0  0  0  0  0  0  0  0  0  0  0  0
   31.3330   31.7220   34.9710 H   0  0  0  0  0  0  0  0  0  0  0  0
   30.7800   30.0600   34.3310 H   0  0  0  0  0  0  0  0  0  0  0  0
  1  3  1  0  0  0  0
  1 24  1  0  0  0  0
  2  1  1  0  0  0  0
  5  4  1  0  0  0  0
  6  1  1  0  0  0  0
  6  5  2  0  0  0  0
  7  6  1  0  0  0  0
  8  7  2  0  0  0  0
  8  9  1  0  0  0  0
  9 10  2  0  0  0  0
 10  5  1  0  0  0  0
 10 14  1  0  0  0  0
 11  7  1  0  0  0  0
 12  8  1  0  0  0  0
 13  9  1  0  0  0  0
 15 20  1  1  0  0  0
 15 19  1  0  0  0  0
 16 14  1  6  0  0  0
 16 15  1  0  0  0  0
 16 17  1  0  0  0  0
 17 18  1  0  0  0  0
 19 18  1  0  0  0  0
 19 22  1  1  0  0  0
 21 20  1  0  0  0  0
 23 22  1  0  0  0  0
 24 26  1  0  0  0  0
 24 28  1  0  0  0  0
 25 24  1  0  0  0  0
 27 32  1  0  0  0  0
 28 29  1  0  0  0  0
 28 27  2  0  0  0  0
 29 30  2  0  0  0  0
 30 31  1  0  0  0  0
 31 34  1  0  0  0  0
 32 31  2  0  0  0  0
 33 29  1  0  0  0  0
 35 27  1  0  0  0  0
 35 36  1  0  0  0  0
 36 40  1  0  0  0  0
 36 39  1  0  0  0  0
 37 35  1  0  0  0  0
 37 36  1  0  0  0  0
 38 35  1  0  0  0  0
 41 37  1  0  0  0  0
 42 37  1  0  0  0  0
M  END
>  <minimizedAffinity>
-6.01075363

$$$$

 OpenBabel03272508223D

 42 45  0  0  1  0  0  0  0  0999 V2000
   36.6860   28.2980   34.6610 C   0  0  0  0  0  0  0  0  0  0  0  0
   37.5530   28.9670   34.8480 H   0  0  0  0  0  0  0  0  0  0  0  0
   36.4430   27.8950   35.6900 H   0  0  0  0  0  0  0  0  0  0  0  0
   37.4800   25.9710   35.9430 F   0  0  0  0  0  0  0  0  0  0  0  0
   37.4840   26.0790   34.6070 C   0  0  0  0  0  0  0  0  0  0  0  0
   37.1090   27.1970   33.8570 C   0  0  0  0  0  0  0  0  0  0  0  0
   37.2110   27.0980   32.5090 C   0  0  0  0  0  0  0  0  0  0  0  0
   37.6430   25.9850   31.8650 C   0  0  0  0  0  0  0  0  0  0  0  0
   38.0210   24.8540   32.6210 C   0  0  0  0  0  0  0  0  0  0  0  0
   37.9320   24.9330   34.0310 C   0  0  0  0  0  0  0  0  0  0  0  0
   37.0430   27.8780   31.8310 H   0  0  0  0  0  0  0  0  0  0  0  0
   37.7310   25.8700   30.7820 H   0  0  0  0  0  0  0  0  0  0  0  0
   38.3690   23.9580   32.0760 H   0  0  0  0  0  0  0  0  0  0  0  0
   38.3570   23.7640   34.6090 O   0  0  0  0  0  0  0  0  0  0  0  0
   39.3450   23.2020   36.7370 C   0  0  2  0  0  3  0  0  0  0  0  0
   39.5280   23.4980   35.2390 C   0  0  1  0  0  3  0  0  0  0  0  0
   39.9990   22.1890   34.8590 O   0  0  0  0  0  0  0  0  0  0  0  0
   41.1280   22.0870   35.6670 C   0  0  0  0  0  2  0  0  0  0  0  0
   40.7070   22.5810   37.0330 C   0  0  2  0  0  3  0  0  0  0  0  0
   38.3610   22.2700   36.9640 O   0  0  0  0  0  0  0  0  0  0  0  0
   37.9660   22.4350   37.8510 H   0  0  0  0  0  0  0  0  0  0  0  0
   40.6510   21.5710   37.9630 O   0  0  0  0  0  0  0  0  0  0  0  0
   39.8970   20.9780   37.8160 H   0  0  0  0  0  0  0  0  0  0  0  0
   35.4790   29.0370   34.2180 C   0  0  0  0  0  0  0  0  0  0  0  0
   35.0030   28.4020   33.4050 H   0  0  0  0  0  0  0  0  0  0  0  0
   34.6940   29.0570   35.0010 H   0  0  0  0  0  0  0  0  0  0  0  0
   35.5830   31.4800   34.4370 C   0  0  0  0  0  0  0  0  0  0  0  0
   35.6730   30.3470   33.6770 C   0  0  0  0  0  0  0  0  0  0  0  0
   35.8990   30.5940   32.3630 C   0  0  0  0  0  0  0  0  0  0  0  0
   36.0220   31.8270   31.8510 N   0  0  0  0  0  0  0  0  0  0  0  0
   35.9320   32.9170   32.5870 C   0  0  0  0  0  0  0  0  0  0  0  0
   35.7110   32.7600   33.8930 N   0  0  0  0  0  0  0  0  0  0  0  0
   35.9970   29.7810   31.6290 H   0  0  0  0  0  0  0  0  0  0  0  0
   36.0400   33.8750   32.1090 H   0  0  0  0  0  0  0  0  0  0  0  0
   35.4980   31.4000   35.9580 C   0  0  0  0  0  0  0  0  0  0  0  0
   35.0810   32.4540   36.7580 C   0  0  0  0  0  0  0  0  0  0  0  0
   33.9520   31.5410   36.3120 C   0  0  0  0  0  0  0  0  0  0  0  0
   35.8790   30.5340   36.4390 H   0  0  0  0  0  0  0  0  0  0  0  0
   35.0800   33.4990   36.3230 H   0  0  0  0  0  0  0  0  0  0  0  0
   35.2180   32.4990   37.8370 H   0  0  0  0  0  0  0  0  0  0  0  0
   33.2940   31.9610   35.5700 H   0  0  0  0  0  0  0  0  0  0  0  0
   33.5700   30.7830   36.9890 H   0  0  0  0  0  0  0  0  0  0  0  0
  1  2  1  0  0  0  0
  1  3  1  0  0  0  0
  5  4  1  0  0  0  0
  6  5  2  0  0  0  0
  6  1  1  0  0  0  0
  7  6  1  0  0  0  0
  8  7  2  0  0  0  0
  8  9  1  0  0  0  0
  9 10  2  0  0  0  0
 10  5  1  0  0  0  0
 10 14  1  0  0  0  0
 11  7  1  0  0  0  0
 12  8  1  0  0  0  0
 13  9  1  0  0  0  0
 15 20  1  6  0  0  0
 15 19  1  0  0  0  0
 16 14  1  6  0  0  0
 16 15  1  0  0  0  0
 17 16  1  0  0  0  0
 17 18  1  0  0  0  0
 18 19  1  0  0  0  0
 19 22  1  1  0  0  0
 20 21  1  0  0  0  0
 23 22  1  0  0  0  0
 24  1  1  0  0  0  0
 24 26  1  0  0  0  0
 25 24  1  0  0  0  0
 27 35  1  0  0  0  0
 28 24  1  0  0  0  0
 28 27  2  0  0  0  0
 29 28  1  0  0  0  0
 30 29  2  0  0  0  0
 30 31  1  0  0  0  0
 31 32  2  0  0  0  0
 32 27  1  0  0  0  0
 33 29  1  0  0  0  0
 34 31  1  0  0  0  0
 35 37  1  0  0  0  0
 35 38  1  0  0  0  0
 35 36  1  0  0  0  0
 36 40  1  0  0  0  0
 37 36  1  0  0  0  0
 37 42  1  0  0  0  0
 39 36  1  0  0  0  0
 41 37  1  0  0  0  0
M  END
>  <minimizedAffinity>
-6.00009108

$$$$

 OpenBabel03272508223D

 42 45  0  0  1  0  0  0  0  0999 V2000
   36.6130   28.2490   34.8290 C   0  0  0  0  0  0  0  0  0  0  0  0
   37.3130   28.6180   35.6090 H   0  0  0  0  0  0  0  0  0  0  0  0
   35.8390   27.6790   35.4240 H   0  0  0  0  0  0  0  0  0  0  0  0
   37.5050   25.8890   35.9800 F   0  0  0  0  0  0  0  0  0  0  0  0
   37.6950   26.1590   34.6810 C   0  0  0  0  0  0  0  0  0  0  0  0
   37.2940   27.3090   33.9970 C   0  0  0  0  0  0  0  0  0  0  0  0
   37.6090   27.3860   32.6810 C   0  0  0  0  0  0  0  0  0  0  0  0
   38.2740   26.4160   32.0070 C   0  0  0  0  0  0  0  0  0  0  0  0
   38.6800   25.2530   32.6950 C   0  0  0  0  0  0  0  0  0  0  0  0
   38.3720   25.1490   34.0720 C   0  0  0  0  0  0  0  0  0  0  0  0
   37.4420   28.2180   32.0680 H   0  0  0  0  0  0  0  0  0  0  0  0
   38.5380   26.4440   30.9460 H   0  0  0  0  0  0  0  0  0  0  0  0
   39.2200   24.4750   32.1260 H   0  0  0  0  0  0  0  0  0  0  0  0
   38.8550   23.9740   34.5890 O   0  0  0  0  0  0  0  0  0  0  0  0
   39.3950   23.0370   36.7470 C   0  0  2  0  0  3  0  0  0  0  0  0
   39.8570   23.7830   35.4840 C   0  0  1  0  0  3  0  0  0  0  0  0
   40.7540   22.7630   34.9980 O   0  0  0  0  0  0  0  0  0  0  0  0
   41.6260   22.6650   36.0770 C   0  0  0  0  0  2  0  0  0  0  0  0
   40.7560   22.6480   37.3150 C   0  0  2  0  0  3  0  0  0  0  0  0
   38.6850   21.9000   36.4460 O   0  0  0  0  0  0  0  0  0  0  0  0
   38.0510   21.7190   37.1780 H   0  0  0  0  0  0  0  0  0  0  0  0
   40.7530   21.4250   37.9390 O   0  0  0  0  0  0  0  0  0  0  0  0
   40.2560   20.7590   37.4380 H   0  0  0  0  0  0  0  0  0  0  0  0
   35.8810   29.3470   34.1530 C   0  0  0  0  0  0  0  0  0  0  0  0
   36.6430   29.8800   33.5020 H   0  0  0  0  0  0  0  0  0  0  0  0
   35.1530   28.9640   33.4100 H   0  0  0  0  0  0  0  0  0  0  0  0
   33.9110   30.5070   35.0490 C   0  0  0  0  0  0  0  0  0  0  0  0
   35.2660   30.3360   34.9850 C   0  0  0  0  0  0  0  0  0  0  0  0
   35.9600   31.2280   35.7330 C   0  0  0  0  0  0  0  0  0  0  0  0
   35.3810   32.1910   36.4650 N   0  0  0  0  0  0  0  0  0  0  0  0
   34.0740   32.3540   36.5210 C   0  0  0  0  0  0  0  0  0  0  0  0
   33.3180   31.5140   35.8130 N   0  0  0  0  0  0  0  0  0  0  0  0
   37.0580   31.2130   35.7820 H   0  0  0  0  0  0  0  0  0  0  0  0
   33.6770   33.1490   37.1300 H   0  0  0  0  0  0  0  0  0  0  0  0
   32.9610   29.4990   34.4100 C   0  0  0  0  0  0  0  0  0  0  0  0
   31.6070   29.7350   34.2220 C   0  0  0  0  0  0  0  0  0  0  0  0
   32.4710   30.1680   33.0510 C   0  0  0  0  0  0  0  0  0  0  0  0
   33.3280   28.5260   34.1970 H   0  0  0  0  0  0  0  0  0  0  0  0
   31.1140   30.5650   34.8130 H   0  0  0  0  0  0  0  0  0  0  0  0
   30.8760   28.9660   33.9780 H   0  0  0  0  0  0  0  0  0  0  0  0
   32.5810   31.2330   32.9370 H   0  0  0  0  0  0  0  0  0  0  0  0
   32.5540   29.5310   32.1750 H   0  0  0  0  0  0  0  0  0  0  0  0
  1  3  1  0  0  0  0
  1  2  1  0  0  0  0
  5  4  1  0  0  0  0
  6  5  2  0  0  0  0
  6  1  1  0  0  0  0
  7  6  1  0  0  0  0
  8  7  2  0  0  0  0
  8  9  1  0  0  0  0
  9 10  2  0  0  0  0
 10 14  1  0  0  0  0
 10  5  1  0  0  0  0
 11  7  1  0  0  0  0
 12  8  1  0  0  0  0
 13  9  1  0  0  0  0
 15 20  1  6  0  0  0
 15 19  1  0  0  0  0
 16 14  1  6  0  0  0
 16 15  1  0  0  0  0
 17 16  1  0  0  0  0
 17 18  1  0  0  0  0
 18 19  1  0  0  0  0
 19 22  1  6  0  0  0
 20 21  1  0  0  0  0
 23 22  1  0  0  0  0
 24  1  1  0  0  0  0
 24 28  1  0  0  0  0
 25 24  1  0  0  0  0
 26 24  1  0  0  0  0
 27 32  1  0  0  0  0
 28 27  2  0  0  0  0
 28 29  1  0  0  0  0
 29 33  1  0  0  0  0
 29 30  2  0  0  0  0
 30 31  1  0  0  0  0
 31 34  1  0  0  0  0
 32 31  2  0  0  0  0
 35 27  1  0  0  0  0
 36 35  1  0  0  0  0
 36 39  1  0  0  0  0
 37 36  1  0  0  0  0
 37 35  1  0  0  0  0
 38 35  1  0  0  0  0
 40 36  1  0  0  0  0
 41 37  1  0  0  0  0
 42 37  1  0  0  0  0
M  END
>  <minimizedAffinity>
-5.97809601

$$$$

 OpenBabel03272508223D

 42 45  0  0  1  0  0  0  0  0999 V2000
   36.8060   27.2920   34.5670 C   0  0  0  0  0  0  0  0  0  0  0  0
   36.9640   26.5380   33.7660 H   0  0  0  0  0  0  0  0  0  0  0  0
   35.9320   26.8710   35.1500 H   0  0  0  0  0  0  0  0  0  0  0  0
   37.0730   27.5870   31.8230 F   0  0  0  0  0  0  0  0  0  0  0  0
   36.5560   28.5560   32.5910 C   0  0  0  0  0  0  0  0  0  0  0  0
   36.3770   28.5190   33.9760 C   0  0  0  0  0  0  0  0  0  0  0  0
   35.8520   29.6240   34.5610 C   0  0  0  0  0  0  0  0  0  0  0  0
   35.4920   30.7390   33.8780 C   0  0  0  0  0  0  0  0  0  0  0  0
   35.6720   30.7790   32.4790 C   0  0  0  0  0  0  0  0  0  0  0  0
   36.2250   29.6420   31.8440 C   0  0  0  0  0  0  0  0  0  0  0  0
   35.7380   29.7660   35.5920 H   0  0  0  0  0  0  0  0  0  0  0  0
   35.0620   31.6430   34.3170 H   0  0  0  0  0  0  0  0  0  0  0  0
   35.3720   31.6970   31.9420 H   0  0  0  0  0  0  0  0  0  0  0  0
   36.3530   29.8550   30.4950 O   0  0  0  0  0  0  0  0  0  0  0  0
   38.1750   28.9920   29.1680 C   0  0  2  0  0  3  0  0  0  0  0  0
   37.4550   30.2030   29.7850 C   0  0  1  0  0  3  0  0  0  0  0  0
   37.0580   30.8210   28.5430 O   0  0  0  0  0  0  0  0  0  0  0  0
   38.3040   31.0090   27.9510 C   0  0  0  0  0  2  0  0  0  0  0  0
   39.0650   29.7190   28.1650 C   0  0  2  0  0  3  0  0  0  0  0  0
   37.3100   28.1650   28.4930 O   0  0  0  0  0  0  0  0  0  0  0  0
   37.6660   27.2460   28.5180 H   0  0  0  0  0  0  0  0  0  0  0  0
   39.2510   29.0190   26.9980 O   0  0  0  0  0  0  0  0  0  0  0  0
   38.4290   28.6170   26.6770 H   0  0  0  0  0  0  0  0  0  0  0  0
   37.9380   27.3580   35.5220 C   0  0  0  0  0  0  0  0  0  0  0  0
   38.3330   28.4220   35.4690 H   0  0  0  0  0  0  0  0  0  0  0  0
   37.5980   27.2780   36.5740 H   0  0  0  0  0  0  0  0  0  0  0  0
   39.0700   25.1900   35.7390 C   0  0  0  0  0  0  0  0  0  0  0  0
   39.0450   26.4810   35.2900 C   0  0  0  0  0  0  0  0  0  0  0  0
   40.1870   26.8590   34.6650 C   0  0  0  0  0  0  0  0  0  0  0  0
   41.2440   26.0510   34.5020 N   0  0  0  0  0  0  0  0  0  0  0  0
   41.2660   24.8070   34.9390 C   0  0  0  0  0  0  0  0  0  0  0  0
   40.1770   24.3570   35.5650 N   0  0  0  0  0  0  0  0  0  0  0  0
   40.3130   27.8690   34.2490 H   0  0  0  0  0  0  0  0  0  0  0  0
   42.1490   24.2150   34.7740 H   0  0  0  0  0  0  0  0  0  0  0  0
   37.8190   24.5350   36.3170 C   0  0  0  0  0  0  0  0  0  0  0  0
   37.8300   23.3180   36.9840 C   0  0  0  0  0  0  0  0  0  0  0  0
   38.0310   24.5170   37.8950 C   0  0  0  0  0  0  0  0  0  0  0  0
   36.8770   24.9750   36.1050 H   0  0  0  0  0  0  0  0  0  0  0  0
   38.7230   22.6360   36.8520 H   0  0  0  0  0  0  0  0  0  0  0  0
   36.9410   22.7310   37.2070 H   0  0  0  0  0  0  0  0  0  0  0  0
   39.0300   24.6340   38.2780 H   0  0  0  0  0  0  0  0  0  0  0  0
   37.1950   24.9050   38.4690 H   0  0  0  0  0  0  0  0  0  0  0  0
  1  3  1  0  0  0  0
  1 24  1  0  0  0  0
  2  1  1  0  0  0  0
  4  5  1  0  0  0  0
  5  6  1  0  0  0  0
  6  7  2  0  0  0  0
  6  1  1  0  0  0  0
  7 11  1  0  0  0  0
  8 12  1  0  0  0  0
  8  7  1  0  0  0  0
  9  8  2  0  0  0  0
 10  9  1  0  0  0  0
 10  5  2  0  0  0  0
 13  9  1  0  0  0  0
 14 10  1  0  0  0  0
 15 20  1  6  0  0  0
 15 16  1  0  0  0  0
 16 14  1  1  0  0  0
 17 16  1  0  0  0  0
 18 19  1  0  0  0  0
 18 17  1  0  0  0  0
 19 22  1  6  0  0  0
 19 15  1  0  0  0  0
 20 21  1  0  0  0  0
 23 22  1  0  0  0  0
 24 26  1  0  0  0  0
 25 24  1  0  0  0  0
 27 35  1  0  0  0  0
 28 24  1  0  0  0  0
 28 27  2  0  0  0  0
 29 28  1  0  0  0  0
 30 29  2  0  0  0  0
 30 31  1  0  0  0  0
 31 32  2  0  0  0  0
 32 27  1  0  0  0  0
 33 29  1  0  0  0  0
 34 31  1  0  0  0  0
 35 36  1  0  0  0  0
 35 37  1  0  0  0  0
 36 40  1  0  0  0  0
 36 37  1  0  0  0  0
 37 41  1  0  0  0  0
 37 42  1  0  0  0  0
 38 35  1  0  0  0  0
 39 36  1  0  0  0  0
M  END
>  <minimizedAffinity>
-5.85339117

$$$$

 OpenBabel03272508223D

 42 45  0  0  1  0  0  0  0  0999 V2000
   39.0120   25.6100   30.7880 C   0  0  0  0  0  0  0  0  0  0  0  0
   38.6290   25.7020   29.7490 H   0  0  0  0  0  0  0  0  0  0  0  0
   40.0720   25.2430   30.6420 H   0  0  0  0  0  0  0  0  0  0  0  0
   40.2160   24.3770   32.9610 F   0  0  0  0  0  0  0  0  0  0  0  0
   38.9900   24.0330   32.5420 C   0  0  0  0  0  0  0  0  0  0  0  0
   38.2900   24.5810   31.4640 C   0  0  0  0  0  0  0  0  0  0  0  0
   37.0640   24.0670   31.2000 C   0  0  0  0  0  0  0  0  0  0  0  0
   36.4910   23.0720   31.9220 C   0  0  0  0  0  0  0  0  0  0  0  0
   37.1970   22.5180   33.0120 C   0  0  0  0  0  0  0  0  0  0  0  0
   38.4820   23.0300   33.3050 C   0  0  0  0  0  0  0  0  0  0  0  0
   36.4650   24.3240   30.3800 H   0  0  0  0  0  0  0  0  0  0  0  0
   35.5040   22.6400   31.7400 H   0  0  0  0  0  0  0  0  0  0  0  0
   36.7120   21.7090   33.5860 H   0  0  0  0  0  0  0  0  0  0  0  0
   39.0350   22.3690   34.3730 O   0  0  0  0  0  0  0  0  0  0  0  0
   38.2690   23.0090   36.5700 C   0  0  2  0  0  3  0  0  0  0  0  0
   39.4310   22.8630   35.5720 C   0  0  1  0  0  3  0  0  0  0  0  0
   40.1580   21.8520   36.2990 O   0  0  0  0  0  0  0  0  0  0  0  0
   40.3820   22.5210   37.4980 C   0  0  0  0  0  2  0  0  0  0  0  0
   39.0700   23.1840   37.8560 C   0  0  2  0  0  3  0  0  0  0  0  0
   37.5130   21.8660   36.6550 O   0  0  0  0  0  0  0  0  0  0  0  0
   36.5920   22.1120   36.9020 H   0  0  0  0  0  0  0  0  0  0  0  0
   38.4720   22.6070   38.9490 O   0  0  0  0  0  0  0  0  0  0  0  0
   38.1080   21.7300   38.7490 H   0  0  0  0  0  0  0  0  0  0  0  0
   39.1270   26.9200   31.4730 C   0  0  0  0  0  0  0  0  0  0  0  0
   39.6930   26.7220   32.4380 H   0  0  0  0  0  0  0  0  0  0  0  0
   39.8030   27.6130   30.9330 H   0  0  0  0  0  0  0  0  0  0  0  0
   37.4460   27.6500   33.1070 C   0  0  0  0  0  0  0  0  0  0  0  0
   37.9110   27.5880   31.8230 C   0  0  0  0  0  0  0  0  0  0  0  0
   37.0800   28.1630   30.9180 C   0  0  0  0  0  0  0  0  0  0  0  0
   35.9120   28.7350   31.2450 N   0  0  0  0  0  0  0  0  0  0  0  0
   35.4660   28.7900   32.4840 C   0  0  0  0  0  0  0  0  0  0  0  0
   36.2270   28.2470   33.4350 N   0  0  0  0  0  0  0  0  0  0  0  0
   37.3210   28.1920   29.8460 H   0  0  0  0  0  0  0  0  0  0  0  0
   34.5190   29.2650   32.6730 H   0  0  0  0  0  0  0  0  0  0  0  0
   38.3160   27.2070   34.2790 C   0  0  0  0  0  0  0  0  0  0  0  0
   38.0270   27.5040   35.6030 C   0  0  0  0  0  0  0  0  0  0  0  0
   37.4220   26.1960   35.1240 C   0  0  0  0  0  0  0  0  0  0  0  0
   39.2470   26.7420   34.0680 H   0  0  0  0  0  0  0  0  0  0  0  0
   37.2970   28.3400   35.8240 H   0  0  0  0  0  0  0  0  0  0  0  0
   38.7310   27.3950   36.4260 H   0  0  0  0  0  0  0  0  0  0  0  0
   36.3550   26.2140   34.9800 H   0  0  0  0  0  0  0  0  0  0  0  0
   37.9060   25.2550   35.3660 H   0  0  0  0  0  0  0  0  0  0  0  0
  1  6  1  0  0  0  0
  1 24  1  0  0  0  0
  2  1  1  0  0  0  0
  3  1  1  0  0  0  0
  5  4  1  0  0  0  0
  5 10  1  0  0  0  0
  6  5  2  0  0  0  0
  7  6  1  0  0  0  0
  7  8  2  0  0  0  0
  8  9  1  0  0  0  0
  9 10  2  0  0  0  0
  9 13  1  0  0  0  0
 10 14  1  0  0  0  0
 11  7  1  0  0  0  0
 12  8  1  0  0  0  0
 15 20  1  1  0  0  0
 15 19  1  0  0  0  0
 16 14  1  6  0  0  0
 16 17  1  0  0  0  0
 16 15  1  0  0  0  0
 17 18  1  0  0  0  0
 18 19  1  0  0  0  0
 19 22  1  1  0  0  0
 20 21  1  0  0  0  0
 23 22  1  0  0  0  0
 24 28  1  0  0  0  0
 24 25  1  0  0  0  0
 26 24  1  0  0  0  0
 27 32  1  0  0  0  0
 27 35  1  0  0  0  0
 28 27  2  0  0  0  0
 29 30  2  0  0  0  0
 29 28  1  0  0  0  0
 30 31  1  0  0  0  0
 31 34  1  0  0  0  0
 31 32  2  0  0  0  0
 33 29  1  0  0  0  0
 35 37  1  0  0  0  0
 35 36  1  0  0  0  0
 36 39  1  0  0  0  0
 36 40  1  0  0  0  0
 37 42  1  0  0  0  0
 37 36  1  0  0  0  0
 38 35  1  0  0  0  0
 41 37  1  0  0  0  0
M  END
>  <minimizedAffinity>
-5.8500843

$$$$

 OpenBabel03272508223D

 42 45  0  0  1  0  0  0  0  0999 V2000
   35.8410   29.3220   33.7050 C   0  0  0  0  0  0  0  0  0  0  0  0
   35.8290   30.0050   32.8290 H   0  0  0  0  0  0  0  0  0  0  0  0
   36.6510   29.7590   34.3630 H   0  0  0  0  0  0  0  0  0  0  0  0
   37.3430   27.8080   35.4780 F   0  0  0  0  0  0  0  0  0  0  0  0
   37.0250   27.3570   34.2570 C   0  0  0  0  0  0  0  0  0  0  0  0
   36.2800   28.0300   33.2850 C   0  0  0  0  0  0  0  0  0  0  0  0
   36.0930   27.3950   32.1020 C   0  0  0  0  0  0  0  0  0  0  0  0
   36.5770   26.1580   31.8250 C   0  0  0  0  0  0  0  0  0  0  0  0
   37.3290   25.4770   32.8050 C   0  0  0  0  0  0  0  0  0  0  0  0
   37.5470   26.1210   34.0470 C   0  0  0  0  0  0  0  0  0  0  0  0
   35.6260   27.8090   31.2610 H   0  0  0  0  0  0  0  0  0  0  0  0
   36.4400   25.6160   30.8850 H   0  0  0  0  0  0  0  0  0  0  0  0
   37.7150   24.4720   32.5590 H   0  0  0  0  0  0  0  0  0  0  0  0
   38.3120   25.3350   34.8720 O   0  0  0  0  0  0  0  0  0  0  0  0
   38.8130   23.3780   36.1910 C   0  0  2  0  0  3  0  0  0  0  0  0
   37.9350   24.6190   35.9600 C   0  0  1  0  0  3  0  0  0  0  0  0
   38.3100   25.3240   37.1600 O   0  0  0  0  0  0  0  0  0  0  0  0
   37.9240   24.3980   38.1240 C   0  0  0  0  0  2  0  0  0  0  0  0
   38.4080   23.0540   37.6260 C   0  0  2  0  0  3  0  0  0  0  0  0
   40.1530   23.6780   36.1530 O   0  0  0  0  0  0  0  0  0  0  0  0
   40.6480   22.8820   35.8500 H   0  0  0  0  0  0  0  0  0  0  0  0
   39.4410   22.5550   38.3810 O   0  0  0  0  0  0  0  0  0  0  0  0
   40.2690   23.0390   38.2340 H   0  0  0  0  0  0  0  0  0  0  0  0
   34.5910   29.3880   34.5000 C   0  0  0  0  0  0  0  0  0  0  0  0
   34.1770   28.3310   34.5240 H   0  0  0  0  0  0  0  0  0  0  0  0
   34.7900   29.5950   35.5710 H   0  0  0  0  0  0  0  0  0  0  0  0
   32.9650   31.2050   34.7910 C   0  0  0  0  0  0  0  0  0  0  0  0
   33.5500   30.2420   34.0160 C   0  0  0  0  0  0  0  0  0  0  0  0
   33.0050   30.1390   32.7780 C   0  0  0  0  0  0  0  0  0  0  0  0
   31.9900   30.9030   32.3500 N   0  0  0  0  0  0  0  0  0  0  0  0
   31.4270   31.8280   33.1020 C   0  0  0  0  0  0  0  0  0  0  0  0
   31.9070   31.9940   34.3350 N   0  0  0  0  0  0  0  0  0  0  0  0
   33.3730   29.4100   32.0420 H   0  0  0  0  0  0  0  0  0  0  0  0
   30.6150   32.4040   32.6930 H   0  0  0  0  0  0  0  0  0  0  0  0
   33.5490   31.5810   36.1500 C   0  0  0  0  0  0  0  0  0  0  0  0
   32.8970   32.3960   37.0640 C   0  0  0  0  0  0  0  0  0  0  0  0
   32.5860   30.9190   37.2310 C   0  0  0  0  0  0  0  0  0  0  0  0
   34.5480   31.2950   36.3640 H   0  0  0  0  0  0  0  0  0  0  0  0
   32.0470   33.0480   36.7000 H   0  0  0  0  0  0  0  0  0  0  0  0
   33.3730   32.8530   37.9300 H   0  0  0  0  0  0  0  0  0  0  0  0
   31.5960   30.6250   36.9230 H   0  0  0  0  0  0  0  0  0  0  0  0
   33.0930   30.3430   37.9990 H   0  0  0  0  0  0  0  0  0  0  0  0
  1  3  1  0  0  0  0
  1 24  1  0  0  0  0
  2  1  1  0  0  0  0
  5  4  1  0  0  0  0
  6  1  1  0  0  0  0
  6  5  2  0  0  0  0
  7  6  1  0  0  0  0
  8  7  2  0  0  0  0
  8  9  1  0  0  0  0
  9 10  2  0  0  0  0
 10  5  1  0  0  0  0
 10 14  1  0  0  0  0
 11  7  1  0  0  0  0
 12  8  1  0  0  0  0
 13  9  1  0  0  0  0
 15 20  1  1  0  0  0
 15 19  1  0  0  0  0
 16 14  1  6  0  0  0
 16 15  1  0  0  0  0
 16 17  1  0  0  0  0
 17 18  1  0  0  0  0
 19 18  1  0  0  0  0
 19 22  1  1  0  0  0
 21 20  1  0  0  0  0
 23 22  1  0  0  0  0
 24 25  1  0  0  0  0
 24 26  1  0  0  0  0
 27 35  1  0  0  0  0
 28 24  1  0  0  0  0
 28 27  2  0  0  0  0
 29 28  1  0  0  0  0
 30 29  2  0  0  0  0
 30 31  1  0  0  0  0
 31 32  2  0  0  0  0
 32 27  1  0  0  0  0
 33 29  1  0  0  0  0
 34 31  1  0  0  0  0
 35 38  1  0  0  0  0
 35 36  1  0  0  0  0
 35 37  1  0  0  0  0
 36 37  1  0  0  0  0
 36 40  1  0  0  0  0
 37 42  1  0  0  0  0
 39 36  1  0  0  0  0
 41 37  1  0  0  0  0
M  END
>  <minimizedAffinity>
-5.80490112

$$$$

 OpenBabel03272508223D

 42 45  0  0  1  0  0  0  0  0999 V2000
   36.3400   27.6850   32.5740 C   0  0  0  0  0  0  0  0  0  0  0  0
   35.9590   26.7650   32.0810 H   0  0  0  0  0  0  0  0  0  0  0  0
   37.1020   28.0770   31.8360 H   0  0  0  0  0  0  0  0  0  0  0  0
   37.2520   25.0770   32.8120 F   0  0  0  0  0  0  0  0  0  0  0  0
   37.4540   25.9880   33.7750 C   0  0  0  0  0  0  0  0  0  0  0  0
   37.0400   27.3220   33.7640 C   0  0  0  0  0  0  0  0  0  0  0  0
   37.3320   28.0680   34.8580 C   0  0  0  0  0  0  0  0  0  0  0  0
   38.0020   27.5930   35.9370 C   0  0  0  0  0  0  0  0  0  0  0  0
   38.4210   26.2450   35.9500 C   0  0  0  0  0  0  0  0  0  0  0  0
   38.1220   25.4420   34.8250 C   0  0  0  0  0  0  0  0  0  0  0  0
   37.0150   29.0520   35.0200 H   0  0  0  0  0  0  0  0  0  0  0  0
   38.2580   28.1680   36.8310 H   0  0  0  0  0  0  0  0  0  0  0  0
   38.9660   25.8790   36.8390 H   0  0  0  0  0  0  0  0  0  0  0  0
   38.5780   24.1610   35.0090 O   0  0  0  0  0  0  0  0  0  0  0  0
   39.5400   23.2050   37.0050 C   0  0  2  0  0  3  0  0  0  0  0  0
   39.7360   23.7400   35.5760 C   0  0  1  0  0  3  0  0  0  0  0  0
   40.1450   22.4930   34.9780 O   0  0  0  0  0  0  0  0  0  0  0  0
   41.2680   22.2040   35.7470 C   0  0  0  0  0  2  0  0  0  0  0  0
   40.8710   22.4810   37.1810 C   0  0  2  0  0  3  0  0  0  0  0  0
   38.5140   22.2950   37.0800 O   0  0  0  0  0  0  0  0  0  0  0  0
   38.1280   22.3270   37.9860 H   0  0  0  0  0  0  0  0  0  0  0  0
   40.7690   21.3330   37.9280 O   0  0  0  0  0  0  0  0  0  0  0  0
   39.9880   20.8090   37.6900 H   0  0  0  0  0  0  0  0  0  0  0  0
   35.3060   28.7410   32.6900 C   0  0  0  0  0  0  0  0  0  0  0  0
   34.5470   28.5300   31.8710 H   0  0  0  0  0  0  0  0  0  0  0  0
   34.7030   28.6320   33.6130 H   0  0  0  0  0  0  0  0  0  0  0  0
   36.3890   30.5420   31.4200 C   0  0  0  0  0  0  0  0  0  0  0  0
   35.7330   30.0980   32.5340 C   0  0  0  0  0  0  0  0  0  0  0  0
   35.5850   31.0490   33.4900 C   0  0  0  0  0  0  0  0  0  0  0  0
   36.0390   32.3040   33.3630 N   0  0  0  0  0  0  0  0  0  0  0  0
   36.6740   32.7270   32.2880 C   0  0  0  0  0  0  0  0  0  0  0  0
   36.8600   31.8510   31.2990 N   0  0  0  0  0  0  0  0  0  0  0  0
   35.0750   30.8400   34.4410 H   0  0  0  0  0  0  0  0  0  0  0  0
   37.0120   33.7480   32.2550 H   0  0  0  0  0  0  0  0  0  0  0  0
   36.5030   29.6670   30.1750 C   0  0  0  0  0  0  0  0  0  0  0  0
   37.2650   30.0090   29.0670 C   0  0  0  0  0  0  0  0  0  0  0  0
   38.0260   29.2070   30.1080 C   0  0  0  0  0  0  0  0  0  0  0  0
   35.8850   28.8080   30.1060 H   0  0  0  0  0  0  0  0  0  0  0  0
   37.5810   31.0880   28.9370 H   0  0  0  0  0  0  0  0  0  0  0  0
   37.1900   29.5220   28.0960 H   0  0  0  0  0  0  0  0  0  0  0  0
   38.7550   29.7670   30.6700 H   0  0  0  0  0  0  0  0  0  0  0  0
   38.1720   28.1400   29.9690 H   0  0  0  0  0  0  0  0  0  0  0  0
  1 24  1  0  0  0  0
  1  6  1  0  0  0  0
  2  1  1  0  0  0  0
  3  1  1  0  0  0  0
  4  5  1  0  0  0  0
  5 10  1  0  0  0  0
  6  5  2  0  0  0  0
  6  7  1  0  0  0  0
  7 11  1  0  0  0  0
  7  8  2  0  0  0  0
  8  9  1  0  0  0  0
  8 12  1  0  0  0  0
  9 13  1  0  0  0  0
 10 14  1  0  0  0  0
 10  9  2  0  0  0  0
 15 20  1  6  0  0  0
 15 19  1  0  0  0  0
 16 14  1  6  0  0  0
 16 15  1  0  0  0  0
 17 16  1  0  0  0  0
 17 18  1  0  0  0  0
 18 19  1  0  0  0  0
 19 22  1  1  0  0  0
 20 21  1  0  0  0  0
 23 22  1  0  0  0  0
 24 26  1  0  0  0  0
 25 24  1  0  0  0  0
 27 28  1  0  0  0  0
 28 24  1  0  0  0  0
 28 29  2  0  0  0  0
 29 33  1  0  0  0  0
 30 29  1  0  0  0  0
 31 30  2  0  0  0  0
 32 27  2  0  0  0  0
 32 31  1  0  0  0  0
 34 31  1  0  0  0  0
 35 27  1  0  0  0  0
 36 37  1  0  0  0  0
 36 35  1  0  0  0  0
 37 35  1  0  0  0  0
 37 41  1  0  0  0  0
 38 35  1  0  0  0  0
 39 36  1  0  0  0  0
 40 36  1  0  0  0  0
 42 37  1  0  0  0  0
M  END
>  <minimizedAffinity>
-5.72755575

$$$$

 OpenBabel03272508223D

 42 45  0  0  1  0  0  0  0  0999 V2000
   38.4370   23.8440   34.9690 C   0  0  0  0  0  0  0  0  0  0  0  0
   37.5120   23.3060   34.6700 H   0  0  0  0  0  0  0  0  0  0  0  0
   38.6390   23.4530   36.0110 H   0  0  0  0  0  0  0  0  0  0  0  0
   37.0520   25.0660   32.9010 F   0  0  0  0  0  0  0  0  0  0  0  0
   37.4500   25.7460   33.9850 C   0  0  0  0  0  0  0  0  0  0  0  0
   38.1520   25.2380   35.0810 C   0  0  0  0  0  0  0  0  0  0  0  0
   38.4750   26.1110   36.0660 C   0  0  0  0  0  0  0  0  0  0  0  0
   38.1480   27.4280   36.0440 C   0  0  0  0  0  0  0  0  0  0  0  0
   37.4380   27.9430   34.9380 C   0  0  0  0  0  0  0  0  0  0  0  0
   37.0950   27.0550   33.8910 C   0  0  0  0  0  0  0  0  0  0  0  0
   39.0650   25.8880   36.9010 H   0  0  0  0  0  0  0  0  0  0  0  0
   38.3870   28.1560   36.8230 H   0  0  0  0  0  0  0  0  0  0  0  0
   37.1820   29.0180   34.9410 H   0  0  0  0  0  0  0  0  0  0  0  0
   36.4330   27.7190   32.8910 O   0  0  0  0  0  0  0  0  0  0  0  0
   37.5370   27.6810   30.7450 C   0  0  2  0  0  3  0  0  0  0  0  0
   36.9380   28.4980   31.9020 C   0  0  1  0  0  3  0  0  0  0  0  0
   35.8580   29.0940   31.1530 O   0  0  0  0  0  0  0  0  0  0  0  0
   36.5790   29.7570   30.1640 C   0  0  0  0  0  2  0  0  0  0  0  0
   37.6320   28.7790   29.6910 C   0  0  2  0  0  3  0  0  0  0  0  0
   36.6810   26.7010   30.3060 O   0  0  0  0  0  0  0  0  0  0  0  0
   37.2120   25.9580   29.9370 H   0  0  0  0  0  0  0  0  0  0  0  0
   37.3940   28.3280   28.4160 O   0  0  0  0  0  0  0  0  0  0  0  0
   36.6420   27.7160   28.3770 H   0  0  0  0  0  0  0  0  0  0  0  0
   39.6130   23.4550   34.1540 C   0  0  0  0  0  0  0  0  0  0  0  0
   39.6350   22.3190   34.1550 H   0  0  0  0  0  0  0  0  0  0  0  0
   39.4720   23.6940   33.0810 H   0  0  0  0  0  0  0  0  0  0  0  0
   41.5590   23.3320   35.6470 C   0  0  0  0  0  0  0  0  0  0  0  0
   40.8970   23.9060   34.5970 C   0  0  0  0  0  0  0  0  0  0  0  0
   41.5470   24.9710   34.0650 C   0  0  0  0  0  0  0  0  0  0  0  0
   42.7220   25.4250   34.5220 N   0  0  0  0  0  0  0  0  0  0  0  0
   43.3550   24.8710   35.5370 C   0  0  0  0  0  0  0  0  0  0  0  0
   42.7820   23.8150   36.1160 N   0  0  0  0  0  0  0  0  0  0  0  0
   41.1380   25.5330   33.2130 H   0  0  0  0  0  0  0  0  0  0  0  0
   44.2960   25.2880   35.8510 H   0  0  0  0  0  0  0  0  0  0  0  0
   41.0680   22.0260   36.2650 C   0  0  0  0  0  0  0  0  0  0  0  0
   41.6150   21.4690   37.4120 C   0  0  0  0  0  0  0  0  0  0  0  0
   40.4620   22.4210   37.6840 C   0  0  0  0  0  0  0  0  0  0  0  0
   40.3470   21.4580   35.7330 H   0  0  0  0  0  0  0  0  0  0  0  0
   42.6380   21.8150   37.7480 H   0  0  0  0  0  0  0  0  0  0  0  0
   41.4380   20.4480   37.7440 H   0  0  0  0  0  0  0  0  0  0  0  0
   40.7450   23.3660   38.1160 H   0  0  0  0  0  0  0  0  0  0  0  0
   39.4700   22.0260   37.8790 H   0  0  0  0  0  0  0  0  0  0  0  0
  1  6  1  0  0  0  0
  1  3  1  0  0  0  0
  2  1  1  0  0  0  0
  4  5  1  0  0  0  0
  5  6  1  0  0  0  0
  6  7  2  0  0  0  0
  7 11  1  0  0  0  0
  8  7  1  0  0  0  0
  8 12  1  0  0  0  0
  9 13  1  0  0  0  0
  9  8  2  0  0  0  0
 10  5  2  0  0  0  0
 10  9  1  0  0  0  0
 14 10  1  0  0  0  0
 15 20  1  6  0  0  0
 15 16  1  0  0  0  0
 16 14  1  1  0  0  0
 17 16  1  0  0  0  0
 18 17  1  0  0  0  0
 19 22  1  6  0  0  0
 19 18  1  0  0  0  0
 19 15  1  0  0  0  0
 21 20  1  0  0  0  0
 23 22  1  0  0  0  0
 24 25  1  0  0  0  0
 24 28  1  0  0  0  0
 24  1  1  0  0  0  0
 26 24  1  0  0  0  0
 27 32  1  0  0  0  0
 27 35  1  0  0  0  0
 28 27  2  0  0  0  0
 29 30  2  0  0  0  0
 29 28  1  0  0  0  0
 30 31  1  0  0  0  0
 31 34  1  0  0  0  0
 31 32  2  0  0  0  0
 33 29  1  0  0  0  0
 35 36  1  0  0  0  0
 35 37  1  0  0  0  0
 36 37  1  0  0  0  0
 36 40  1  0  0  0  0
 36 39  1  0  0  0  0
 37 42  1  0  0  0  0
 37 41  1  0  0  0  0
 38 35  1  0  0  0  0
M  END
>  <minimizedAffinity>
-5.71527815

$$$$
