REMARK  Name = 
REMARK  8 active torsions:
REMARK  status: ('A' for Active; 'I' for Inactive)
REMARK    1  A    between atoms: C_1  and  C_3
REMARK    2  A    between atoms: C_1  and  C_11
REMARK    3  A    between atoms: C_2  and  C_8
REMARK    4  A    between atoms: C_11  and  C_14
REMARK    5  A    between atoms: C_18  and  O_19
REMARK    6  A    between atoms: O_19  and  C_36
REMARK    7  A    between atoms: O_34  and  C_35
REMARK    8  A    between atoms: C_39  and  O_40
REMARK                            x       y       z     vdW  Elec       q    Type
REMARK                         _______ _______ _______ _____ _____    ______ ____
ROOT
ATOM      1  C   UNL     1      38.064  30.907  46.753  0.00  0.00    +0.000 C 
ATOM      2  H   UNL     1      39.001  30.513  46.304  0.00  0.00    +0.000 HD
ATOM      3  H   UNL     1      37.593  31.486  45.903  0.00  0.00    +0.000 HD
ENDROOT
BRANCH   1   6
ATOM      4  F   UNL     1      39.577  33.126  46.062  0.00  0.00    +0.000 F 
ATOM      5  C   UNL     1      39.156  32.920  47.318  0.00  0.00    +0.000 A 
ATOM      6  C   UNL     1      38.395  31.843  47.779  0.00  0.00    +0.000 A 
ATOM      7  C   UNL     1      38.096  31.820  49.101  0.00  0.00    +0.000 A 
ATOM      8  C   UNL     1      38.485  32.778  49.979  0.00  0.00    +0.000 A 
ATOM      9  C   UNL     1      39.253  33.867  49.515  0.00  0.00    +0.000 A 
ATOM     10  C   UNL     1      39.587  33.912  48.141  0.00  0.00    +0.000 A 
ATOM     11  H   UNL     1      37.605  31.039  49.596  0.00  0.00    +0.000 HD
ATOM     12  H   UNL     1      38.256  32.793  51.048  0.00  0.00    +0.000 HD
ATOM     13  H   UNL     1      39.559  34.636  50.247  0.00  0.00    +0.000 HD
BRANCH  10  14
ATOM     14  O   UNL     1      40.351  35.017  47.864  0.00  0.00    +0.000 OA
BRANCH  14  16
ATOM     15  C   UNL     1      40.367  34.581  45.490  0.00  0.00    +0.000 C 
ATOM     16  C   UNL     1      40.866  35.424  46.677  0.00  0.00    +0.000 C 
ATOM     17  O   UNL     1      40.250  36.666  46.280  0.00  0.00    +0.000 OA
ATOM     18  C   UNL     1      40.839  36.847  45.032  0.00  0.00    +0.000 C 
ATOM     19  C   UNL     1      40.781  35.501  44.345  0.00  0.00    +0.000 C 
BRANCH  15  20
ATOM     20  O   UNL     1      39.002  34.443  45.492  0.00  0.00    +0.000 OA
ATOM     21  H   UNL     1      38.769  33.591  45.054  0.00  0.00    +0.000 HD
ENDBRANCH  15  20
BRANCH  19  22
ATOM     22  O   UNL     1      39.899  35.484  43.293  0.00  0.00    +0.000 OA
ATOM     23  H   UNL     1      38.975  35.504  43.587  0.00  0.00    +0.000 HD
ENDBRANCH  19  22
ENDBRANCH  14  16
ENDBRANCH  10  14
ENDBRANCH   1   6
BRANCH   1  24
ATOM     24  C   UNL     1      37.100  29.835  47.098  0.00  0.00    +0.000 C 
ATOM     25  H   UNL     1      37.475  28.896  46.580  0.00  0.00    +0.000 HD
ATOM     26  H   UNL     1      37.153  29.558  48.170  0.00  0.00    +0.000 HD
BRANCH  24  28
ATOM     27  C   UNL     1      34.701  30.005  47.593  0.00  0.00    +0.000 A 
ATOM     28  C   UNL     1      35.738  30.024  46.702  0.00  0.00    +0.000 A 
ATOM     29  C   UNL     1      35.342  30.177  45.414  0.00  0.00    +0.000 A 
ATOM     30  N   UNL     1      34.059  30.295  45.043  0.00  0.00    +0.000 NA
ATOM     31  C   UNL     1      33.062  30.273  45.905  0.00  0.00    +0.000 A 
ATOM     32  N   UNL     1      33.368  30.127  47.195  0.00  0.00    +0.000 NA
ATOM     33  H   UNL     1      36.064  30.213  44.586  0.00  0.00    +0.000 HD
ATOM     34  H   UNL     1      32.056  30.373  45.536  0.00  0.00    +0.000 HD
BRANCH  27  35
ATOM     35  C   UNL     1      34.958  30.009  49.097  0.00  0.00    +0.000 C 
ATOM     36  C   UNL     1      34.006  29.642  50.037  0.00  0.00    +0.000 C 
ATOM     37  C   UNL     1      34.866  28.487  49.555  0.00  0.00    +0.000 C 
ATOM     38  H   UNL     1      35.872  30.416  49.450  0.00  0.00    +0.000 HD
ATOM     39  H   UNL     1      32.918  29.618  49.727  0.00  0.00    +0.000 HD
ATOM     40  H   UNL     1      34.086  29.843  51.104  0.00  0.00    +0.000 HD
ATOM     41  H   UNL     1      34.366  27.787  48.907  0.00  0.00    +0.000 HD
ATOM     42  H   UNL     1      35.700  28.144  50.160  0.00  0.00    +0.000 HD
ENDBRANCH  27  35
ENDBRANCH  24  28
ENDBRANCH   1  24
TORSDOF 8
