
 OpenBabel03272504193D

 27 28  0  0  1  0  0  0  0  0999 V2000
   37.9550   30.0180   48.0890 O   0  0  0  0  0  0  0  0  0  0  0  0
   37.7870   30.9360   49.2670 P   0  0  2  0  0  0  0  0  0  0  0  0
   38.4440   30.1350   50.6190 O   0  0  0  0  0  0  0  0  0  0  0  0
   39.1550   30.6630   51.0150 H   0  0  0  0  0  0  0  0  0  0  0  0
   36.1580   31.2680   49.5370 O   0  0  0  0  0  0  0  0  0  0  0  0
   35.5830   30.1050   50.0240 C   0  0  0  0  0  0  0  0  0  0  0  0
   35.0050   30.4240   50.9350 H   0  0  0  0  0  0  0  0  0  0  0  0
   36.3060   29.3300   50.2880 H   0  0  0  0  0  0  0  0  0  0  0  0
   34.5810   29.5320   49.0860 C   0  0  0  0  0  0  0  0  0  0  0  0
   34.4040   30.1760   47.8580 C   0  0  0  0  0  0  0  0  0  0  0  0
   33.4610   29.6440   46.9650 C   0  0  0  0  0  0  0  0  0  0  0  0
   32.7750   28.5370   47.3440 N   0  0  0  0  0  0  0  0  0  0  0  0
   32.9650   27.9360   48.5350 C   0  0  0  0  0  0  0  0  0  0  0  0
   33.8650   28.4400   49.3920 N   0  0  0  0  0  0  0  0  0  0  0  0
   34.9400   31.0520   47.5460 H   0  0  0  0  0  0  0  0  0  0  0  0
   33.2890   30.1180   45.9900 H   0  0  0  0  0  0  0  0  0  0  0  0
   32.3850   27.0510   48.7820 H   0  0  0  0  0  0  0  0  0  0  0  0
   38.6540   32.3660   48.9780 O   0  0  0  0  0  0  0  0  0  0  0  0
   39.9090   33.2050   47.2010 C   0  0  1  0  0  0  0  0  0  0  0  0
   38.5270   32.8090   47.6860 C   0  0  1  0  0  0  0  0  0  0  0  0
   38.1580   31.8030   46.8060 O   0  0  0  0  0  0  0  0  0  0  0  0
   38.5960   32.1720   45.5460 C   0  0  0  0  0  0  0  0  0  0  0  0
   39.8410   32.9980   45.7240 C   0  0  1  0  0  0  0  0  0  0  0  0
   40.2710   34.4890   47.5890 O   0  0  0  0  0  0  0  0  0  0  0  0
   41.2800   34.4940   47.5610 H   0  0  0  0  0  0  0  0  0  0  0  0
   39.8080   34.1990   45.0160 O   0  0  0  0  0  0  0  0  0  0  0  0
   39.2420   34.1560   44.1960 H   0  0  0  0  0  0  0  0  0  0  0  0
  2  1  2  6  0  0  0
  2  5  1  0  0  0  0
  2  3  1  0  0  0  0
  3  4  1  0  0  0  0
  5  6  1  0  0  0  0
  6  8  1  0  0  0  0
  6  7  1  0  0  0  0
  9 14  1  0  0  0  0
  9  6  1  0  0  0  0
 10  9  2  0  0  0  0
 11 12  2  0  0  0  0
 11 10  1  0  0  0  0
 12 13  1  0  0  0  0
 13 17  1  0  0  0  0
 13 14  2  0  0  0  0
 15 10  1  0  0  0  0
 16 11  1  0  0  0  0
 18  2  1  0  0  0  0
 19 24  1  6  0  0  0
 19 20  1  0  0  0  0
 20 18  1  1  0  0  0
 21 20  1  0  0  0  0
 22 23  1  0  0  0  0
 22 21  1  0  0  0  0
 23 26  1  6  0  0  0
 23 19  1  0  0  0  0
 25 24  1  0  0  0  0
 27 26  1  0  0  0  0
M  END
>  <minimizedAffinity>
-5.06462383

>  <minimizedRMSD>
2.12174082

$$$$
