
 OpenBabel03272506423D

 32 34  0  0  1  0  0  0  0  0999 V2000
   32.4010   28.3670   47.5340 C   0  0  2  0  0  0  0  0  0  0  0  0
   33.6520   28.4040   48.3840 C   0  0  1  0  0  0  0  0  0  0  0  0
   34.1990   27.1490   48.3850 O   0  0  0  0  0  0  0  0  0  0  0  0
   33.5380   26.3720   47.4600 C   0  0  0  0  0  0  0  0  0  0  0  0
   32.8280   27.3300   46.5220 C   0  0  1  0  0  0  0  0  0  0  0  0
   31.5390   27.9550   48.0880 H   0  0  0  0  0  0  0  0  0  0  0  0
   33.4470   28.7140   49.4170 H   0  0  0  0  0  0  0  0  0  0  0  0
   34.3080   25.7580   46.9470 H   0  0  0  0  0  0  0  0  0  0  0  0
   32.7870   25.7520   47.9860 H   0  0  0  0  0  0  0  0  0  0  0  0
   33.4910   27.7420   45.7490 H   0  0  0  0  0  0  0  0  0  0  0  0
   32.1380   29.6060   46.9680 O   0  0  0  0  0  0  0  0  0  0  0  0
   31.3820   29.9950   47.4880 H   0  0  0  0  0  0  0  0  0  0  0  0
   34.8210   29.5270   47.5360 S   0  0  0  0  0  0  0  0  0  0  0  0
   37.4030   29.4890   50.5430 C   0  0  0  0  0  0  0  0  0  0  0  0
   38.0150   30.7490   50.5070 C   0  0  0  0  0  0  0  0  0  0  0  0
   37.6090   31.6380   49.5150 C   0  0  0  0  0  0  0  0  0  0  0  0
   36.6520   31.2620   48.6300 N   0  0  0  0  0  0  0  0  0  0  0  0
   36.0830   30.0270   48.7000 C   0  0  0  0  0  0  0  0  0  0  0  0
   36.4520   29.1490   49.6460 N   0  0  0  0  0  0  0  0  0  0  0  0
   37.7270   28.8160   51.3170 H   0  0  0  0  0  0  0  0  0  0  0  0
   38.7790   31.0710   51.2020 H   0  0  0  0  0  0  0  0  0  0  0  0
   37.9970   32.6270   49.3800 H   0  0  0  0  0  0  0  0  0  0  0  0
   31.7490   26.7230   45.8970 O   0  0  0  0  0  0  0  0  0  0  0  0
   30.6840   26.1010   43.8290 C   0  0  2  0  0  3  0  0  0  0  0  0
   31.6810   27.0130   44.5430 C   0  0  2  0  0  3  0  0  0  0  0  0
   32.8950   26.8290   43.9360 O   0  0  0  0  0  0  0  0  0  0  0  0
   32.7270   26.1410   42.7490 C   0  0  0  0  0  2  0  0  0  0  0  0
   31.2390   26.2380   42.4090 C   0  0  1  0  0  3  0  0  0  0  0  0
   29.3960   26.6270   43.8930 O   0  0  0  0  0  0  0  0  0  0  0  0
   29.5040   27.5890   43.6200 H   0  0  0  0  0  0  0  0  0  0  0  0
   30.8030   25.2510   41.5680 O   0  0  0  0  0  0  0  0  0  0  0  0
   30.5640   25.7100   40.7020 H   0  0  0  0  0  0  0  0  0  0  0  0
  1  6  1  1  0  0  0
  1  2  1  0  0  0  0
  2  3  1  0  0  0  0
  2  7  1  1  0  0  0
  4  9  1  0  0  0  0
  4  3  1  0  0  0  0
  5 10  1  6  0  0  0
  5  4  1  0  0  0  0
  5  1  1  0  0  0  0
  8  4  1  0  0  0  0
 11 12  1  0  0  0  0
 11  1  1  0  0  0  0
 13  2  1  0  0  0  0
 13 18  1  0  0  0  0
 14 20  1  0  0  0  0
 15 14  1  0  0  0  0
 15 21  1  0  0  0  0
 16 15  2  0  0  0  0
 17 18  2  0  0  0  0
 17 16  1  0  0  0  0
 18 19  1  0  0  0  0
 19 14  2  0  0  0  0
 22 16  1  0  0  0  0
 23  5  1  0  0  0  0
 24 29  1  6  0  0  0
 24 25  1  0  0  0  0
 25 23  1  1  0  0  0
 26 25  1  0  0  0  0
 27 26  1  0  0  0  0
 28 31  1  6  0  0  0
 28 27  1  0  0  0  0
 28 24  1  0  0  0  0
 30 29  1  0  0  0  0
 32 31  1  0  0  0  0
M  END
>  <minimizedAffinity>
-3.72946334

>  <minimizedRMSD>
0.295076609

$$$$
