
 OpenBabel03272507323D

 36 39  0  0  1  0  0  0  0  0999 V2000
   35.8590   29.1490   49.8060 C   0  0  0  0  0  0  0  0  0  0  0  0
   34.8080   29.6220   50.5610 C   0  0  0  0  0  0  0  0  0  0  0  0
   33.6330   29.0520   50.0490 C   0  0  0  0  0  0  0  0  0  0  0  0
   34.0500   28.2580   49.0040 C   0  0  0  0  0  0  0  0  0  0  0  0
   35.3580   28.3460   48.8980 O   0  0  0  0  0  0  0  0  0  0  0  0
   34.7350   30.3020   51.4110 H   0  0  0  0  0  0  0  0  0  0  0  0
   32.5930   29.1680   50.3620 H   0  0  0  0  0  0  0  0  0  0  0  0
   37.2350   29.5400   50.0640 C   0  0  0  0  0  0  0  0  0  0  0  0
   37.8650   28.9770   50.9700 O   0  0  0  0  0  0  0  0  0  0  0  0
   37.7860   30.5730   49.2330 C   0  0  0  0  0  0  0  0  0  0  0  0
   38.1200   31.7660   49.8510 C   0  0  0  0  0  0  0  0  0  0  0  0
   38.6580   32.7960   49.0720 C   0  0  0  0  0  0  0  0  0  0  0  0
   38.8270   32.5650   47.7290 N   0  0  0  0  0  0  0  0  0  0  0  0
   38.4940   31.4020   47.1660 C   0  0  0  0  0  0  0  0  0  0  0  0
   37.9760   30.4080   47.9060 N   0  0  0  0  0  0  0  0  0  0  0  0
   38.0080   31.9990   50.8990 H   0  0  0  0  0  0  0  0  0  0  0  0
   38.9280   33.7320   49.5140 H   0  0  0  0  0  0  0  0  0  0  0  0
   38.6660   31.3180   46.0960 H   0  0  0  0  0  0  0  0  0  0  0  0
   33.1850   27.4450   48.1500 C   0  0  0  0  0  0  0  0  0  0  0  0
   31.9340   27.4250   48.4020 O   0  0  0  0  0  0  0  0  0  0  0  0
   33.7610   26.6530   47.0150 C   0  0  1  0  0  0  0  0  0  0  0  0
   33.7620   25.1150   47.3830 C   0  0  0  0  0  0  0  0  0  0  0  0
   32.9440   25.6820   46.2830 C   0  0  2  0  0  0  0  0  0  0  0  0
   34.8230   26.9340   46.7820 H   0  0  0  0  0  0  0  0  0  0  0  0
   33.2120   24.8150   48.2710 H   0  0  0  0  0  0  0  0  0  0  0  0
   34.6470   24.5420   47.1210 H   0  0  0  0  0  0  0  0  0  0  0  0
   31.8480   25.7680   46.4260 H   0  0  0  0  0  0  0  0  0  0  0  0
   33.5330   23.9350   44.6190 C   0  0  2  0  0  3  0  0  0  0  0  0
   33.3120   25.4380   44.8430 C   0  0  2  0  0  3  0  0  0  0  0  0
   34.5580   25.9220   44.5060 O   0  0  0  0  0  0  0  0  0  0  0  0
   34.8970   25.3100   43.3210 C   0  0  0  0  0  2  0  0  0  0  0  0
   34.1010   24.0290   43.1960 C   0  0  1  0  0  3  0  0  0  0  0  0
   32.3760   23.2050   44.6790 O   0  0  0  0  0  0  0  0  0  0  0  0
   32.2610   22.9240   45.6310 H   0  0  0  0  0  0  0  0  0  0  0  0
   34.8470   22.9320   42.8420 O   0  0  0  0  0  0  0  0  0  0  0  0
   34.3510   22.3210   42.2100 H   0  0  0  0  0  0  0  0  0  0  0  0
  1  8  1  0  0  0  0
  1  2  2  0  0  0  0
  2  6  1  0  0  0  0
  3  7  1  0  0  0  0
  3  2  1  0  0  0  0
  4  3  2  0  0  0  0
  5  4  1  0  0  0  0
  5  1  1  0  0  0  0
  8  9  2  0  0  0  0
 10 11  1  0  0  0  0
 10  8  1  0  0  0  0
 11 16  1  0  0  0  0
 12 17  1  0  0  0  0
 12 11  2  0  0  0  0
 13 12  1  0  0  0  0
 14 13  2  0  0  0  0
 14 15  1  0  0  0  0
 15 10  2  0  0  0  0
 18 14  1  0  0  0  0
 19 20  2  0  0  0  0
 19  4  1  0  0  0  0
 21 24  1  6  0  0  0
 21 22  1  0  0  0  0
 21 19  1  0  0  0  0
 22 25  1  0  0  0  0
 23 27  1  1  0  0  0
 23 21  1  0  0  0  0
 23 22  1  0  0  0  0
 26 22  1  0  0  0  0
 28 33  1  6  0  0  0
 28 29  1  0  0  0  0
 29 30  1  1  0  0  0
 29 23  1  0  0  0  0
 31 30  1  0  0  0  0
 32 35  1  1  0  0  0
 32 31  1  0  0  0  0
 32 28  1  0  0  0  0
 33 34  1  0  0  0  0
 36 35  1  0  0  0  0
M  END
>  <minimizedAffinity>
-4.93937111

>  <minimizedRMSD>
0.310528547

$$$$
