
 OpenBabel03272507333D

 36 39  0  0  1  0  0  0  0  0999 V2000
   35.9190   29.2260   49.8480 C   0  0  0  0  0  0  0  0  0  0  0  0
   34.9470   29.6670   50.7200 C   0  0  0  0  0  0  0  0  0  0  0  0
   33.7180   29.1660   50.2660 C   0  0  0  0  0  0  0  0  0  0  0  0
   34.0260   28.4440   49.1350 C   0  0  0  0  0  0  0  0  0  0  0  0
   35.3230   28.5070   48.9280 O   0  0  0  0  0  0  0  0  0  0  0  0
   34.9630   30.2810   51.6210 H   0  0  0  0  0  0  0  0  0  0  0  0
   32.7100   29.2840   50.6700 H   0  0  0  0  0  0  0  0  0  0  0  0
   37.3230   29.5620   50.0200 C   0  0  0  0  0  0  0  0  0  0  0  0
   37.9930   28.9510   50.8650 O   0  0  0  0  0  0  0  0  0  0  0  0
   37.8520   30.6020   49.1830 C   0  0  0  0  0  0  0  0  0  0  0  0
   38.1860   31.7960   49.7980 C   0  0  0  0  0  0  0  0  0  0  0  0
   38.7030   32.8320   49.0130 C   0  0  0  0  0  0  0  0  0  0  0  0
   38.8520   32.6050   47.6670 N   0  0  0  0  0  0  0  0  0  0  0  0
   38.5200   31.4400   47.1070 C   0  0  0  0  0  0  0  0  0  0  0  0
   38.0230   30.4400   47.8530 N   0  0  0  0  0  0  0  0  0  0  0  0
   38.0890   32.0260   50.8490 H   0  0  0  0  0  0  0  0  0  0  0  0
   38.9720   33.7700   49.4530 H   0  0  0  0  0  0  0  0  0  0  0  0
   38.6760   31.3600   46.0340 H   0  0  0  0  0  0  0  0  0  0  0  0
   33.0700   27.7190   48.2960 C   0  0  0  0  0  0  0  0  0  0  0  0
   31.8830   27.5580   48.7350 O   0  0  0  0  0  0  0  0  0  0  0  0
   33.4850   27.1770   46.9620 C   0  0  1  0  0  0  0  0  0  0  0  0
   33.7710   25.6260   47.0810 C   0  0  0  0  0  0  0  0  0  0  0  0
   32.6650   26.1830   46.2650 C   0  0  2  0  0  0  0  0  0  0  0  0
   34.4240   27.6530   46.5700 H   0  0  0  0  0  0  0  0  0  0  0  0
   33.4730   25.1340   48.0030 H   0  0  0  0  0  0  0  0  0  0  0  0
   34.6470   25.2410   46.5650 H   0  0  0  0  0  0  0  0  0  0  0  0
   31.6250   26.0710   46.6330 H   0  0  0  0  0  0  0  0  0  0  0  0
   33.1500   27.5740   44.2660 C   0  0  2  0  0  3  0  0  0  0  0  0
   32.7390   26.1800   44.7610 C   0  0  2  0  0  3  0  0  0  0  0  0
   31.5100   26.0570   44.1510 O   0  0  0  0  0  0  0  0  0  0  0  0
   31.6930   26.4430   42.8420 C   0  0  0  0  0  2  0  0  0  0  0  0
   32.9160   27.3300   42.7690 C   0  0  1  0  0  3  0  0  0  0  0  0
   34.4540   27.8850   44.5520 O   0  0  0  0  0  0  0  0  0  0  0  0
   34.4550   28.3350   45.4450 H   0  0  0  0  0  0  0  0  0  0  0  0
   32.7320   28.4900   42.0580 O   0  0  0  0  0  0  0  0  0  0  0  0
   33.5460   28.7390   41.5150 H   0  0  0  0  0  0  0  0  0  0  0  0
  1  8  1  0  0  0  0
  1  2  2  0  0  0  0
  2  6  1  0  0  0  0
  3  7  1  0  0  0  0
  3  2  1  0  0  0  0
  4  3  2  0  0  0  0
  5  4  1  0  0  0  0
  5  1  1  0  0  0  0
  8  9  2  0  0  0  0
 10 11  1  0  0  0  0
 10  8  1  0  0  0  0
 11 16  1  0  0  0  0
 12 17  1  0  0  0  0
 12 11  2  0  0  0  0
 13 12  1  0  0  0  0
 14 13  2  0  0  0  0
 14 15  1  0  0  0  0
 15 10  2  0  0  0  0
 18 14  1  0  0  0  0
 19 20  2  0  0  0  0
 19  4  1  0  0  0  0
 21 24  1  6  0  0  0
 21 22  1  0  0  0  0
 21 19  1  0  0  0  0
 22 25  1  0  0  0  0
 23 27  1  1  0  0  0
 23 21  1  0  0  0  0
 23 22  1  0  0  0  0
 26 22  1  0  0  0  0
 28 33  1  6  0  0  0
 28 29  1  0  0  0  0
 29 30  1  6  0  0  0
 29 23  1  0  0  0  0
 31 30  1  0  0  0  0
 32 35  1  6  0  0  0
 32 31  1  0  0  0  0
 32 28  1  0  0  0  0
 33 34  1  0  0  0  0
 36 35  1  0  0  0  0
M  END
>  <minimizedAffinity>
-4.91099548

>  <minimizedRMSD>
0.675288796

$$$$
