
     RDKit          3D

 41 44  0  0  0  0  0  0  0  0999 V2000
   35.8221   29.1392   49.8018 C   0  0  0  0  0  0  0  0  0  0  0  0
   34.8021   29.6632   50.5657 C   0  0  0  0  0  0  0  0  0  0  0  0
   33.5991   29.1237   50.0861 C   0  0  0  0  0  0  0  0  0  0  0  0
   33.9701   28.2963   49.0498 C   0  0  0  0  0  0  0  0  0  0  0  0
   35.2784   28.3373   48.9194 O   0  0  0  0  0  0  0  0  0  0  0  0
   37.2150   29.4870   50.0279 C   0  0  0  0  0  0  0  0  0  0  0  0
   37.8576   28.8805   50.8973 O   0  0  0  0  0  0  0  0  0  0  0  0
   37.7673   30.5323   49.2122 C   0  0  0  0  0  0  0  0  0  0  0  0
   38.1118   31.7125   49.8487 C   0  0  0  0  0  0  0  0  0  0  0  0
   38.6509   32.7525   49.0850 C   0  0  0  0  0  0  0  0  0  0  0  0
   38.8097   32.5440   47.7366 N   0  0  0  0  0  0  0  0  0  0  0  0
   38.4666   31.3928   47.1556 C   0  0  0  0  0  0  0  0  0  0  0  0
   37.9483   30.3888   47.8810 N   0  0  0  0  0  0  0  0  0  0  0  0
   33.0623   27.4970   48.2272 C   0  0  0  0  0  0  0  0  0  0  0  0
   31.8436   27.3982   48.5940 O   0  0  0  0  0  0  0  0  0  0  0  0
   33.5594   26.8086   46.9907 C   0  0  1  0  0  0  0  0  0  0  0  0
   33.7929   25.2740   47.2911 C   0  0  0  0  0  0  0  0  0  0  0  0
   32.7657   25.7642   46.3400 C   0  0  2  0  0  0  0  0  0  0  0  0
   34.7673   30.3615   51.4033 H   0  0  0  0  0  0  0  0  0  0  0  0
   32.5686   29.2816   50.4143 H   0  0  0  0  0  0  0  0  0  0  0  0
   38.0080   31.9275   50.9019 H   0  0  0  0  0  0  0  0  0  0  0  0
   38.9290   33.6789   49.5417 H   0  0  0  0  0  0  0  0  0  0  0  0
   38.6318   31.3272   46.0833 H   0  0  0  0  0  0  0  0  0  0  0  0
   34.5367   27.2225   46.6247 H   0  0  0  0  0  0  0  0  0  0  0  0
   33.4137   24.8881   48.2343 H   0  0  0  0  0  0  0  0  0  0  0  0
   34.6927   24.8198   46.8856 H   0  0  0  0  0  0  0  0  0  0  0  0
   31.6990   25.7117   46.6372 H   0  0  0  0  0  0  0  0  0  0  0  0
   34.9878   26.9089   44.6710 O   0  0  0  0  0  0  0  0  0  0  0  0
   33.6738   26.8338   44.2904 C   0  0  2  0  0  0  0  0  0  0  0  0
   32.9513   25.6021   44.8544 C   0  0  2  0  0  0  0  0  0  0  0  0
   31.7716   25.6638   44.1441 O   0  0  0  0  0  0  0  0  0  0  0  0
   32.1272   25.8778   42.8322 C   0  0  0  0  0  0  0  0  0  0  0  0
   33.5081   26.4974   42.8024 C   0  0  1  0  0  0  0  0  0  0  0  0
   33.6170   27.5964   41.9876 O   0  0  0  0  0  0  0  0  0  0  0  0
   35.0126   27.4335   45.5218 H   0  0  0  0  0  0  0  0  0  0  0  0
   33.0541   27.7093   44.5374 H   0  0  0  0  0  0  0  0  0  0  0  0
   33.5718   24.7230   44.5832 H   0  0  0  0  0  0  0  0  0  0  0  0
   31.4402   26.5672   42.3015 H   0  0  0  0  0  0  0  0  0  0  0  0
   32.1134   24.9304   42.2539 H   0  0  0  0  0  0  0  0  0  0  0  0
   34.2630   25.6983   42.6166 H   0  0  0  0  0  0  0  0  0  0  0  0
   34.5034   27.6278   41.5057 H   0  0  0  0  0  0  0  0  0  0  0  0
  1  6  1  0
  1  2  2  0
  3  2  1  0
  4  3  2  0
  5  4  1  0
  5  1  1  0
  6  7  2  0
  8  9  2  0
  8  6  1  0
 10  9  1  0
 11 10  2  0
 12 11  1  0
 12 13  2  0
 13  8  1  0
 14 15  2  0
 14  4  1  0
 16 17  1  0
 16 14  1  0
 18 16  1  0
 18 17  1  0
  2 19  1  0
  3 20  1  0
  9 21  1  0
 10 22  1  0
 12 23  1  0
 16 24  1  6
 17 25  1  0
 17 26  1  0
 18 27  1  1
 28 29  1  0
 29 30  1  0
 30 31  1  0
 31 32  1  0
 32 33  1  0
 33 34  1  0
 33 29  1  0
 28 35  1  0
 29 36  1  6
 30 37  1  1
 32 38  1  0
 32 39  1  0
 33 40  1  6
 34 41  1  0
 18 30  1  0
M  ISO  8  19  14  20  14  21  14  22  14  23  14  24  13  25  13  26  13
M  ISO  1  27  13
M  END
>  <DihAtoms>  (1) 
15,17,29,28

>  <DihDeg>  (1) 
179.99985748779753

$$$$
