
 OpenBabel03272507333D

 36 39  0  0  1  0  0  0  0  0999 V2000
   35.8360   29.1260   49.7970 C   0  0  0  0  0  0  0  0  0  0  0  0
   34.7690   29.6100   50.5210 C   0  0  0  0  0  0  0  0  0  0  0  0
   33.6070   29.0200   50.0000 C   0  0  0  0  0  0  0  0  0  0  0  0
   34.0490   28.2040   48.9830 C   0  0  0  0  0  0  0  0  0  0  0  0
   35.3580   28.2990   48.8990 O   0  0  0  0  0  0  0  0  0  0  0  0
   34.6750   30.3090   51.3520 H   0  0  0  0  0  0  0  0  0  0  0  0
   32.5600   29.1370   50.2900 H   0  0  0  0  0  0  0  0  0  0  0  0
   37.2050   29.5320   50.0710 C   0  0  0  0  0  0  0  0  0  0  0  0
   37.8250   28.9880   50.9960 O   0  0  0  0  0  0  0  0  0  0  0  0
   37.7610   30.5590   49.2340 C   0  0  0  0  0  0  0  0  0  0  0  0
   38.1000   31.7540   49.8460 C   0  0  0  0  0  0  0  0  0  0  0  0
   38.6430   32.7760   49.0620 C   0  0  0  0  0  0  0  0  0  0  0  0
   38.8110   32.5380   47.7200 N   0  0  0  0  0  0  0  0  0  0  0  0
   38.4730   31.3730   47.1640 C   0  0  0  0  0  0  0  0  0  0  0  0
   37.9500   30.3850   47.9080 N   0  0  0  0  0  0  0  0  0  0  0  0
   37.9890   31.9930   50.8930 H   0  0  0  0  0  0  0  0  0  0  0  0
   38.9170   33.7140   49.4990 H   0  0  0  0  0  0  0  0  0  0  0  0
   38.6450   31.2820   46.0930 H   0  0  0  0  0  0  0  0  0  0  0  0
   33.2050   27.3660   48.1320 C   0  0  0  0  0  0  0  0  0  0  0  0
   31.9520   27.3300   48.3710 O   0  0  0  0  0  0  0  0  0  0  0  0
   33.8050   26.5660   47.0140 C   0  0  1  0  0  0  0  0  0  0  0  0
   33.8010   25.0300   47.3940 C   0  0  0  0  0  0  0  0  0  0  0  0
   33.0050   25.5880   46.2740 C   0  0  2  0  0  0  0  0  0  0  0  0
   34.8720   26.8460   46.8010 H   0  0  0  0  0  0  0  0  0  0  0  0
   33.2340   24.7370   48.2740 H   0  0  0  0  0  0  0  0  0  0  0  0
   34.6920   24.4570   47.1550 H   0  0  0  0  0  0  0  0  0  0  0  0
   31.9060   25.6730   46.3940 H   0  0  0  0  0  0  0  0  0  0  0  0
   33.8200   23.8640   44.6830 C   0  0  2  0  0  3  0  0  0  0  0  0
   33.4020   25.3330   44.8440 C   0  0  2  0  0  3  0  0  0  0  0  0
   34.5730   25.9620   44.4790 O   0  0  0  0  0  0  0  0  0  0  0  0
   34.9890   25.3500   43.3190 C   0  0  0  0  0  2  0  0  0  0  0  0
   34.3700   23.9700   43.2540 C   0  0  1  0  0  3  0  0  0  0  0  0
   32.7690   22.9910   44.7800 O   0  0  0  0  0  0  0  0  0  0  0  0
   32.6920   22.7370   45.7440 H   0  0  0  0  0  0  0  0  0  0  0  0
   35.2540   22.9680   42.9420 O   0  0  0  0  0  0  0  0  0  0  0  0
   34.8430   22.2700   42.3400 H   0  0  0  0  0  0  0  0  0  0  0  0
  1  8  1  0  0  0  0
  1  2  2  0  0  0  0
  2  6  1  0  0  0  0
  3  7  1  0  0  0  0
  3  2  1  0  0  0  0
  4  3  2  0  0  0  0
  5  4  1  0  0  0  0
  5  1  1  0  0  0  0
  8  9  2  0  0  0  0
 10 11  1  0  0  0  0
 10  8  1  0  0  0  0
 11 16  1  0  0  0  0
 12 17  1  0  0  0  0
 12 11  2  0  0  0  0
 13 12  1  0  0  0  0
 14 13  2  0  0  0  0
 14 15  1  0  0  0  0
 15 10  2  0  0  0  0
 18 14  1  0  0  0  0
 19 20  2  0  0  0  0
 19  4  1  0  0  0  0
 21 24  1  6  0  0  0
 21 22  1  0  0  0  0
 21 19  1  0  0  0  0
 22 25  1  0  0  0  0
 23 27  1  1  0  0  0
 23 21  1  0  0  0  0
 23 22  1  0  0  0  0
 26 22  1  0  0  0  0
 28 33  1  6  0  0  0
 28 29  1  0  0  0  0
 29 30  1  1  0  0  0
 29 23  1  0  0  0  0
 31 30  1  0  0  0  0
 32 35  1  1  0  0  0
 32 31  1  0  0  0  0
 32 28  1  0  0  0  0
 33 34  1  0  0  0  0
 36 35  1  0  0  0  0
M  END
>  <minimizedAffinity>
-4.95097685

>  <minimizedRMSD>
1.38030756

$$$$
