
 OpenBabel03272507333D

 36 39  0  0  1  0  0  0  0  0999 V2000
   35.8590   29.1490   49.8060 C   0  0  0  0  0  0  0  0  0  0  0  0
   34.8090   29.6230   50.5610 C   0  0  0  0  0  0  0  0  0  0  0  0
   33.6340   29.0530   50.0490 C   0  0  0  0  0  0  0  0  0  0  0  0
   34.0510   28.2590   49.0050 C   0  0  0  0  0  0  0  0  0  0  0  0
   35.3590   28.3470   48.8980 O   0  0  0  0  0  0  0  0  0  0  0  0
   34.7350   30.3030   51.4110 H   0  0  0  0  0  0  0  0  0  0  0  0
   32.5930   29.1690   50.3620 H   0  0  0  0  0  0  0  0  0  0  0  0
   37.2350   29.5400   50.0630 C   0  0  0  0  0  0  0  0  0  0  0  0
   37.8660   28.9780   50.9700 O   0  0  0  0  0  0  0  0  0  0  0  0
   37.7870   30.5730   49.2320 C   0  0  0  0  0  0  0  0  0  0  0  0
   38.1220   31.7660   49.8500 C   0  0  0  0  0  0  0  0  0  0  0  0
   38.6600   32.7950   49.0710 C   0  0  0  0  0  0  0  0  0  0  0  0
   38.8270   32.5650   47.7280 N   0  0  0  0  0  0  0  0  0  0  0  0
   38.4930   31.4020   47.1650 C   0  0  0  0  0  0  0  0  0  0  0  0
   37.9760   30.4080   47.9050 N   0  0  0  0  0  0  0  0  0  0  0  0
   38.0110   31.9990   50.8990 H   0  0  0  0  0  0  0  0  0  0  0  0
   38.9310   33.7320   49.5140 H   0  0  0  0  0  0  0  0  0  0  0  0
   38.6650   31.3180   46.0950 H   0  0  0  0  0  0  0  0  0  0  0  0
   33.1850   27.4450   48.1500 C   0  0  0  0  0  0  0  0  0  0  0  0
   31.9350   27.4250   48.4030 O   0  0  0  0  0  0  0  0  0  0  0  0
   33.7610   26.6530   47.0150 C   0  0  1  0  0  0  0  0  0  0  0  0
   33.7620   25.1150   47.3830 C   0  0  0  0  0  0  0  0  0  0  0  0
   32.9440   25.6830   46.2830 C   0  0  2  0  0  0  0  0  0  0  0  0
   34.8230   26.9340   46.7820 H   0  0  0  0  0  0  0  0  0  0  0  0
   33.2110   24.8160   48.2710 H   0  0  0  0  0  0  0  0  0  0  0  0
   34.6470   24.5420   47.1210 H   0  0  0  0  0  0  0  0  0  0  0  0
   31.8480   25.7690   46.4260 H   0  0  0  0  0  0  0  0  0  0  0  0
   33.5340   23.9360   44.6190 C   0  0  2  0  0  3  0  0  0  0  0  0
   33.3120   25.4390   44.8430 C   0  0  2  0  0  3  0  0  0  0  0  0
   34.5570   25.9230   44.5060 O   0  0  0  0  0  0  0  0  0  0  0  0
   34.8970   25.3110   43.3210 C   0  0  0  0  0  2  0  0  0  0  0  0
   34.1010   24.0300   43.1960 C   0  0  1  0  0  3  0  0  0  0  0  0
   32.3760   23.2060   44.6780 O   0  0  0  0  0  0  0  0  0  0  0  0
   32.2620   22.9240   45.6310 H   0  0  0  0  0  0  0  0  0  0  0  0
   34.8470   22.9340   42.8430 O   0  0  0  0  0  0  0  0  0  0  0  0
   34.3510   22.3210   42.2110 H   0  0  0  0  0  0  0  0  0  0  0  0
  1  8  1  0  0  0  0
  1  2  2  0  0  0  0
  2  6  1  0  0  0  0
  3  7  1  0  0  0  0
  3  2  1  0  0  0  0
  4  3  2  0  0  0  0
  5  4  1  0  0  0  0
  5  1  1  0  0  0  0
  8  9  2  0  0  0  0
 10 11  1  0  0  0  0
 10  8  1  0  0  0  0
 11 16  1  0  0  0  0
 12 17  1  0  0  0  0
 12 11  2  0  0  0  0
 13 12  1  0  0  0  0
 14 13  2  0  0  0  0
 14 15  1  0  0  0  0
 15 10  2  0  0  0  0
 18 14  1  0  0  0  0
 19 20  2  0  0  0  0
 19  4  1  0  0  0  0
 21 24  1  6  0  0  0
 21 22  1  0  0  0  0
 21 19  1  0  0  0  0
 22 25  1  0  0  0  0
 23 27  1  1  0  0  0
 23 21  1  0  0  0  0
 23 22  1  0  0  0  0
 26 22  1  0  0  0  0
 28 33  1  6  0  0  0
 28 29  1  0  0  0  0
 29 30  1  1  0  0  0
 29 23  1  0  0  0  0
 31 30  1  0  0  0  0
 32 35  1  1  0  0  0
 32 31  1  0  0  0  0
 32 28  1  0  0  0  0
 33 34  1  0  0  0  0
 36 35  1  0  0  0  0
M  END
>  <minimizedAffinity>
-4.93937206

>  <minimizedRMSD>
0.842051685

$$$$
