
     RDKit          3D

 26 27  0  0  0  0  0  0  0  0999 V2000
   37.2661   30.1844   51.4187 C   0  0  0  0  0  0  0  0  0  0  0  0
   38.0969   30.7586   50.4514 C   0  0  0  0  0  0  0  0  0  0  0  0
   37.8072   30.4938   49.1010 C   0  0  0  0  0  0  0  0  0  0  0  0
   36.7427   29.7008   48.8393 N   0  0  0  0  0  0  0  0  0  0  0  0
   35.9655   29.1652   49.7842 C   0  0  0  0  0  0  0  0  0  0  0  0
   36.2203   29.4021   51.0796 N   0  0  0  0  0  0  0  0  0  0  0  0
   34.8281   28.3169   49.4810 C   0  0  0  0  0  0  0  0  0  0  0  0
   33.6232   28.7112   49.5638 O   0  0  0  0  0  0  0  0  0  0  0  0
   37.4212   30.3392   52.4835 H   0  0  0  0  0  0  0  0  0  0  0  0
   38.9172   31.3746   50.7792 H   0  0  0  0  0  0  0  0  0  0  0  0
   38.4434   30.9329   48.3445 H   0  0  0  0  0  0  0  0  0  0  0  0
   34.9550   26.9614   49.0618 N   0  0  0  0  0  0  0  0  0  0  0  0
   35.3857   26.7143   47.6987 C   0  0  2  0  0  0  0  0  0  0  0  0
   36.4439   26.3638   47.6805 H   0  0  0  0  0  0  0  0  0  0  0  0
   34.5480   25.5503   47.1860 C   0  0  1  0  0  0  0  0  0  0  0  0
   34.2254   25.8297   46.1554 H   0  0  0  0  0  0  0  0  0  0  0  0
   33.3388   25.4310   47.9549 N   0  0  0  0  0  0  0  0  0  0  0  0
   32.5634   24.9656   47.4896 H   0  0  0  0  0  0  0  0  0  0  0  0
   33.5638   25.0310   49.3208 C   0  0  0  0  0  0  0  0  0  0  0  0
   34.6785   25.8210   49.9195 C   0  0  0  0  0  0  0  0  0  0  0  0
   35.2450   27.6207   47.0761 H   0  0  0  0  0  0  0  0  0  0  0  0
   35.1333   24.6198   47.0892 H   0  0  0  0  0  0  0  0  0  0  0  0
   32.6432   25.2331   49.9075 H   0  0  0  0  0  0  0  0  0  0  0  0
   33.7520   23.9389   49.4153 H   0  0  0  0  0  0  0  0  0  0  0  0
   35.6168   25.2079   49.8910 H   0  0  0  0  0  0  0  0  0  0  0  0
   34.4431   26.1249   50.9461 H   0  0  0  0  0  0  0  0  0  0  0  0
  2  1  2  0
  3  2  1  0
  4  3  2  0
  4  5  1  0
  5  6  2  0
  6  1  1  0
  7  8  2  0
  7  5  1  0
  1  9  1  0
  2 10  1  0
  3 11  1  0
 12 13  1  0
 13 14  1  1
 13 15  1  0
 15 16  1  6
 15 17  1  0
 17 18  1  0
 17 19  1  0
 19 20  1  0
 20 12  1  0
 13 21  1  0
 15 22  1  0
 19 23  1  0
 19 24  1  0
 20 25  1  0
 20 26  1  0
  7 12  1  0
M  ISO  6   9  14  10  14  11  14  14   8  16   8  18   5
M  END
>  <DihAtoms>  (1) 
7,6,11,12

>  <DihDeg>  (1) 
0.00030514289840125915

$$$$
