
 OpenBabel03272501313D

 20 21  0  0  0  0  0  0  0  0999 V2000
   39.4000   24.8440   35.2160 C   0  0  0  0  0  0  0  0  0  0  0  0
   40.6130   24.7400   34.8610 O   0  0  0  0  0  0  0  0  0  0  0  0
   39.0570   23.7300   36.0310 N   0  0  0  0  0  0  0  0  0  0  0  0
   40.0250   22.7300   36.3240 C   0  0  0  0  0  3  0  0  0  0  0  0
   39.6650   21.7560   35.8850 H   0  0  0  0  0  0  0  0  0  0  0  0
   40.2610   22.4940   37.7860 C   0  0  0  0  0  3  0  0  0  0  0  0
   40.4020   21.4000   37.9860 H   0  0  0  0  0  0  0  0  0  0  0  0
   39.2840   23.0310   38.6630 N   0  0  0  0  0  0  0  0  0  0  0  0
   39.3350   22.5030   39.5540 H   0  0  0  0  0  0  0  0  0  0  0  0
   37.9480   23.0860   38.1490 C   0  0  0  0  0  3  0  0  0  0  0  0
   37.8390   23.3450   36.6930 C   0  0  0  0  0  3  0  0  0  0  0  0
   37.5220   28.0200   35.3010 C   0  0  0  0  0  0  0  0  0  0  0  0
   38.4060   27.0070   35.7080 C   0  0  0  0  0  0  0  0  0  0  0  0
   38.5050   25.9200   34.8510 C   0  0  0  0  0  0  0  0  0  0  0  0
   37.7750   25.8920   33.7140 N   0  0  0  0  0  0  0  0  0  0  0  0
   36.9430   26.8770   33.3630 C   0  0  0  0  0  0  0  0  0  0  0  0
   36.8190   27.9400   34.1580 N   0  0  0  0  0  0  0  0  0  0  0  0
   37.3580   28.9150   35.8830 H   0  0  0  0  0  0  0  0  0  0  0  0
   38.9390   27.1210   36.6270 H   0  0  0  0  0  0  0  0  0  0  0  0
   36.4520   26.6710   32.4230 H   0  0  0  0  0  0  0  0  0  0  0  0
  1  3  1  0  0  0  0
  2  1  2  0  0  0  0
  3  4  1  0  0  0  0
  3 11  1  0  0  0  0
  4  6  1  0  0  0  0
  5  4  1  0  0  0  0
  6  7  1  0  0  0  0
  6  8  1  0  0  0  0
  8  9  1  0  0  0  0
 10  8  1  0  0  0  0
 11 10  2  0  0  0  0
 12 13  1  0  0  0  0
 12 18  1  0  0  0  0
 13 19  1  0  0  0  0
 14  1  1  0  0  0  0
 14 13  2  0  0  0  0
 15 14  1  0  0  0  0
 16 15  2  0  0  0  0
 16 17  1  0  0  0  0
 17 12  2  0  0  0  0
 20 16  1  0  0  0  0
M  END
>  <minimizedAffinity>
-4.36878729

$$$$

 OpenBabel03272501313D

 20 21  0  0  0  0  0  0  0  0999 V2000
   37.7690   22.5080   34.6710 C   0  0  0  0  0  0  0  0  0  0  0  0
   37.1270   21.4800   34.3010 O   0  0  0  0  0  0  0  0  0  0  0  0
   37.9440   23.3730   33.5560 N   0  0  0  0  0  0  0  0  0  0  0  0
   37.4240   23.0160   32.2810 C   0  0  0  0  0  3  0  0  0  0  0  0
   38.2900   22.9050   31.5680 H   0  0  0  0  0  0  0  0  0  0  0  0
   36.4850   24.0200   31.6820 C   0  0  0  0  0  3  0  0  0  0  0  0
   36.6570   24.1020   30.5770 H   0  0  0  0  0  0  0  0  0  0  0  0
   36.4970   25.3070   32.2780 N   0  0  0  0  0  0  0  0  0  0  0  0
   36.1300   25.9820   31.5800 H   0  0  0  0  0  0  0  0  0  0  0  0
   37.7520   25.7300   32.8230 C   0  0  0  0  0  3  0  0  0  0  0  0
   38.5860   24.6520   33.4060 C   0  0  0  0  0  3  0  0  0  0  0  0
   39.9750   22.6930   37.6240 C   0  0  0  0  0  0  0  0  0  0  0  0
   39.5640   22.4220   36.3090 C   0  0  0  0  0  0  0  0  0  0  0  0
   38.2520   22.7630   36.0100 C   0  0  0  0  0  0  0  0  0  0  0  0
   37.4680   23.3160   36.9620 N   0  0  0  0  0  0  0  0  0  0  0  0
   37.8980   23.5580   38.2040 C   0  0  0  0  0  0  0  0  0  0  0  0
   39.1520   23.2460   38.5320 N   0  0  0  0  0  0  0  0  0  0  0  0
   40.9730   22.4730   37.9770 H   0  0  0  0  0  0  0  0  0  0  0  0
   40.2590   21.9810   35.6270 H   0  0  0  0  0  0  0  0  0  0  0  0
   37.1270   24.0020   38.8160 H   0  0  0  0  0  0  0  0  0  0  0  0
  1 14  1  0  0  0  0
  2  1  2  0  0  0  0
  3  1  1  0  0  0  0
  4  3  1  0  0  0  0
  5  4  1  0  0  0  0
  6  8  1  0  0  0  0
  6  4  1  0  0  0  0
  7  6  1  0  0  0  0
  8 10  1  0  0  0  0
  9  8  1  0  0  0  0
 10 11  2  0  0  0  0
 11  3  1  0  0  0  0
 12 18  1  0  0  0  0
 12 17  1  0  0  0  0
 13 12  2  0  0  0  0
 14 13  1  0  0  0  0
 14 15  2  0  0  0  0
 15 16  1  0  0  0  0
 16 17  2  0  0  0  0
 16 20  1  0  0  0  0
 19 13  1  0  0  0  0
M  END
>  <minimizedAffinity>
-4.00906897

$$$$

 OpenBabel03272501313D

 20 21  0  0  0  0  0  0  0  0999 V2000
   34.0190   29.8740   34.3680 C   0  0  0  0  0  0  0  0  0  0  0  0
   33.0050   29.2200   34.7580 O   0  0  0  0  0  0  0  0  0  0  0  0
   34.0300   31.1420   35.0100 N   0  0  0  0  0  0  0  0  0  0  0  0
   33.0010   31.4910   35.9280 C   0  0  0  0  0  3  0  0  0  0  0  0
   32.4440   32.3780   35.5090 H   0  0  0  0  0  0  0  0  0  0  0  0
   33.4830   31.8770   37.2950 C   0  0  0  0  0  3  0  0  0  0  0  0
   32.8750   32.7300   37.6940 H   0  0  0  0  0  0  0  0  0  0  0  0
   34.8670   32.1670   37.4010 N   0  0  0  0  0  0  0  0  0  0  0  0
   35.0010   32.7650   38.2390 H   0  0  0  0  0  0  0  0  0  0  0  0
   35.4760   32.7340   36.2360 C   0  0  0  0  0  3  0  0  0  0  0  0
   34.9310   32.2620   34.9410 C   0  0  0  0  0  3  0  0  0  0  0  0
   36.9160   28.1140   32.9060 C   0  0  0  0  0  0  0  0  0  0  0  0
   35.9840   28.5310   33.8720 C   0  0  0  0  0  0  0  0  0  0  0  0
   35.0070   29.4080   33.4200 C   0  0  0  0  0  0  0  0  0  0  0  0
   35.0030   29.8010   32.1270 N   0  0  0  0  0  0  0  0  0  0  0  0
   35.9090   29.3800   31.2390 C   0  0  0  0  0  0  0  0  0  0  0  0
   36.8640   28.5370   31.6310 N   0  0  0  0  0  0  0  0  0  0  0  0
   37.7220   27.4320   33.1360 H   0  0  0  0  0  0  0  0  0  0  0  0
   36.0720   28.1640   34.8720 H   0  0  0  0  0  0  0  0  0  0  0  0
   35.7370   29.8040   30.2600 H   0  0  0  0  0  0  0  0  0  0  0  0
  1  2  2  0  0  0  0
  1  3  1  0  0  0  0
  3  4  1  0  0  0  0
  4  6  1  0  0  0  0
  5  4  1  0  0  0  0
  6  8  1  0  0  0  0
  6  7  1  0  0  0  0
  8  9  1  0  0  0  0
 10  8  1  0  0  0  0
 11  3  1  0  0  0  0
 11 10  2  0  0  0  0
 12 18  1  0  0  0  0
 12 13  1  0  0  0  0
 13 19  1  0  0  0  0
 14 13  2  0  0  0  0
 14  1  1  0  0  0  0
 15 14  1  0  0  0  0
 16 17  1  0  0  0  0
 16 15  2  0  0  0  0
 17 12  2  0  0  0  0
 20 16  1  0  0  0  0
M  END
>  <minimizedAffinity>
-3.84880733

$$$$

 OpenBabel03272501313D

 20 21  0  0  0  0  0  0  0  0999 V2000
   38.8610   24.8090   34.7380 C   0  0  0  0  0  0  0  0  0  0  0  0
   39.0100   24.1860   33.6440 O   0  0  0  0  0  0  0  0  0  0  0  0
   38.6520   26.1890   34.4630 N   0  0  0  0  0  0  0  0  0  0  0  0
   38.6360   26.6590   33.1210 C   0  0  0  0  0  3  0  0  0  0  0  0
   39.4940   27.3790   32.9920 H   0  0  0  0  0  0  0  0  0  0  0  0
   37.3860   27.3880   32.7260 C   0  0  0  0  0  3  0  0  0  0  0  0
   37.6360   28.2600   32.0680 H   0  0  0  0  0  0  0  0  0  0  0  0
   36.5500   27.8010   33.7940 N   0  0  0  0  0  0  0  0  0  0  0  0
   35.9630   28.5850   33.4510 H   0  0  0  0  0  0  0  0  0  0  0  0
   37.2190   28.1290   35.0170 C   0  0  0  0  0  3  0  0  0  0  0  0
   38.4310   27.3290   35.3120 C   0  0  0  0  0  3  0  0  0  0  0  0
   39.9370   22.8240   37.6580 C   0  0  0  0  0  0  0  0  0  0  0  0
   39.9550   23.3700   36.3630 C   0  0  0  0  0  0  0  0  0  0  0  0
   38.8970   24.2160   36.0570 C   0  0  0  0  0  0  0  0  0  0  0  0
   37.9430   24.4600   36.9810 N   0  0  0  0  0  0  0  0  0  0  0  0
   37.9620   23.9200   38.2030 C   0  0  0  0  0  0  0  0  0  0  0  0
   38.9600   23.1030   38.5390 N   0  0  0  0  0  0  0  0  0  0  0  0
   40.7050   22.1530   38.0150 H   0  0  0  0  0  0  0  0  0  0  0  0
   40.7560   23.1150   35.7030 H   0  0  0  0  0  0  0  0  0  0  0  0
   37.1150   24.2360   38.7940 H   0  0  0  0  0  0  0  0  0  0  0  0
  1 14  1  0  0  0  0
  2  1  2  0  0  0  0
  3  1  1  0  0  0  0
  3 11  1  0  0  0  0
  4  3  1  0  0  0  0
  5  4  1  0  0  0  0
  6  4  1  0  0  0  0
  6  8  1  0  0  0  0
  7  6  1  0  0  0  0
  8 10  1  0  0  0  0
  9  8  1  0  0  0  0
 10 11  2  0  0  0  0
 12 18  1  0  0  0  0
 12 17  1  0  0  0  0
 13 12  2  0  0  0  0
 14 13  1  0  0  0  0
 14 15  2  0  0  0  0
 15 16  1  0  0  0  0
 16 17  2  0  0  0  0
 16 20  1  0  0  0  0
 19 13  1  0  0  0  0
M  END
>  <minimizedAffinity>
-3.84082818

$$$$

 OpenBabel03272501313D

 20 21  0  0  0  0  0  0  0  0999 V2000
   37.9720   26.2900   35.2420 C   0  0  0  0  0  0  0  0  0  0  0  0
   37.9210   27.4460   35.7580 O   0  0  0  0  0  0  0  0  0  0  0  0
   37.3760   26.3290   33.9510 N   0  0  0  0  0  0  0  0  0  0  0  0
   36.8460   27.5470   33.4420 C   0  0  0  0  0  3  0  0  0  0  0  0
   35.7370   27.4100   33.2920 H   0  0  0  0  0  0  0  0  0  0  0  0
   37.4200   27.9800   32.1260 C   0  0  0  0  0  3  0  0  0  0  0  0
   36.6180   28.4190   31.4780 H   0  0  0  0  0  0  0  0  0  0  0  0
   38.1420   26.9900   31.4120 N   0  0  0  0  0  0  0  0  0  0  0  0
   38.1490   27.2640   30.4120 H   0  0  0  0  0  0  0  0  0  0  0  0
   37.6960   25.6410   31.5950 C   0  0  0  0  0  3  0  0  0  0  0  0
   37.1670   25.3240   32.9430 C   0  0  0  0  0  3  0  0  0  0  0  0
   38.4780   23.4210   37.5080 C   0  0  0  0  0  0  0  0  0  0  0  0
   37.8770   24.5600   36.9470 C   0  0  0  0  0  0  0  0  0  0  0  0
   38.5430   25.1150   35.8630 C   0  0  0  0  0  0  0  0  0  0  0  0
   39.6910   24.5550   35.4210 N   0  0  0  0  0  0  0  0  0  0  0  0
   40.2310   23.4700   35.9840 C   0  0  0  0  0  0  0  0  0  0  0  0
   39.6230   22.9050   37.0270 N   0  0  0  0  0  0  0  0  0  0  0  0
   38.0550   22.8990   38.3550 H   0  0  0  0  0  0  0  0  0  0  0  0
   36.9670   24.9280   37.3690 H   0  0  0  0  0  0  0  0  0  0  0  0
   41.1450   23.1750   35.4890 H   0  0  0  0  0  0  0  0  0  0  0  0
  1  2  2  0  0  0  0
  1 14  1  0  0  0  0
  3  1  1  0  0  0  0
  4  3  1  0  0  0  0
  5  4  1  0  0  0  0
  6  4  1  0  0  0  0
  7  6  1  0  0  0  0
  8 10  1  0  0  0  0
  8  6  1  0  0  0  0
  9  8  1  0  0  0  0
 10 11  2  0  0  0  0
 11  3  1  0  0  0  0
 12 18  1  0  0  0  0
 13 19  1  0  0  0  0
 13 12  2  0  0  0  0
 14 13  1  0  0  0  0
 15 14  2  0  0  0  0
 15 16  1  0  0  0  0
 16 17  2  0  0  0  0
 17 12  1  0  0  0  0
 20 16  1  0  0  0  0
M  END
>  <minimizedAffinity>
-3.78756547

$$$$

 OpenBabel03272501313D

 20 21  0  0  0  0  0  0  0  0999 V2000
   37.7810   25.6490   34.5960 C   0  0  0  0  0  0  0  0  0  0  0  0
   37.0180   26.3900   35.2850 O   0  0  0  0  0  0  0  0  0  0  0  0
   38.3710   24.6710   35.4440 N   0  0  0  0  0  0  0  0  0  0  0  0
   38.0610   24.6440   36.8320 C   0  0  0  0  0  3  0  0  0  0  0  0
   39.0100   24.8450   37.4060 H   0  0  0  0  0  0  0  0  0  0  0  0
   37.5130   23.3390   37.3280 C   0  0  0  0  0  3  0  0  0  0  0  0
   37.9240   23.1060   38.3440 H   0  0  0  0  0  0  0  0  0  0  0  0
   37.6850   22.2290   36.4610 N   0  0  0  0  0  0  0  0  0  0  0  0
   37.6310   21.3680   37.0360 H   0  0  0  0  0  0  0  0  0  0  0  0
   38.8620   22.2540   35.6440 C   0  0  0  0  0  3  0  0  0  0  0  0
   39.2970   23.5980   35.1970 C   0  0  0  0  0  3  0  0  0  0  0  0
   38.9980   26.9040   31.3450 C   0  0  0  0  0  0  0  0  0  0  0  0
   38.8020   26.8340   32.7350 C   0  0  0  0  0  0  0  0  0  0  0  0
   38.0180   25.7760   33.1750 C   0  0  0  0  0  0  0  0  0  0  0  0
   37.5040   24.9030   32.2810 N   0  0  0  0  0  0  0  0  0  0  0  0
   37.7140   25.0060   30.9650 C   0  0  0  0  0  0  0  0  0  0  0  0
   38.4610   26.0070   30.5000 N   0  0  0  0  0  0  0  0  0  0  0  0
   39.5880   27.6820   30.8820 H   0  0  0  0  0  0  0  0  0  0  0  0
   39.2510   27.5740   33.3610 H   0  0  0  0  0  0  0  0  0  0  0  0
   37.2210   24.2160   30.4180 H   0  0  0  0  0  0  0  0  0  0  0  0
  1  2  2  0  0  0  0
  1  3  1  0  0  0  0
  3  4  1  0  0  0  0
  4  6  1  0  0  0  0
  4  5  1  0  0  0  0
  6  7  1  0  0  0  0
  8  9  1  0  0  0  0
  8  6  1  0  0  0  0
 10  8  1  0  0  0  0
 11  3  1  0  0  0  0
 11 10  2  0  0  0  0
 12 13  1  0  0  0  0
 13 14  2  0  0  0  0
 13 19  1  0  0  0  0
 14  1  1  0  0  0  0
 15 14  1  0  0  0  0
 16 15  2  0  0  0  0
 17 16  1  0  0  0  0
 17 12  2  0  0  0  0
 18 12  1  0  0  0  0
 20 16  1  0  0  0  0
M  END
>  <minimizedAffinity>
-3.7525351

$$$$

 OpenBabel03272501313D

 20 21  0  0  0  0  0  0  0  0999 V2000
   38.8340   25.9080   35.6040 C   0  0  0  0  0  0  0  0  0  0  0  0
   37.9090   26.5450   36.1920 O   0  0  0  0  0  0  0  0  0  0  0  0
   38.9790   24.6310   36.2110 N   0  0  0  0  0  0  0  0  0  0  0  0
   38.1470   24.2560   37.3020 C   0  0  0  0  0  3  0  0  0  0  0  0
   38.8030   24.0940   38.2040 H   0  0  0  0  0  0  0  0  0  0  0  0
   37.3670   22.9920   37.0910 C   0  0  0  0  0  3  0  0  0  0  0  0
   37.3290   22.3960   38.0400 H   0  0  0  0  0  0  0  0  0  0  0  0
   37.7970   22.1750   36.0140 N   0  0  0  0  0  0  0  0  0  0  0  0
   37.4660   21.2090   36.1990 H   0  0  0  0  0  0  0  0  0  0  0  0
   39.1990   22.2140   35.7240 C   0  0  0  0  0  3  0  0  0  0  0  0
   39.8580   23.5220   35.9510 C   0  0  0  0  0  3  0  0  0  0  0  0
   39.8120   27.0010   32.2160 C   0  0  0  0  0  0  0  0  0  0  0  0
   38.9990   26.5190   33.2560 C   0  0  0  0  0  0  0  0  0  0  0  0
   39.6200   26.4000   34.4930 C   0  0  0  0  0  0  0  0  0  0  0  0
   40.9200   26.7390   34.6280 N   0  0  0  0  0  0  0  0  0  0  0  0
   41.6600   27.1940   33.6120 C   0  0  0  0  0  0  0  0  0  0  0  0
   41.1030   27.3240   32.4070 N   0  0  0  0  0  0  0  0  0  0  0  0
   39.4450   27.1380   31.2100 H   0  0  0  0  0  0  0  0  0  0  0  0
   37.9790   26.2770   33.0490 H   0  0  0  0  0  0  0  0  0  0  0  0
   42.6720   27.4100   33.9190 H   0  0  0  0  0  0  0  0  0  0  0  0
  1  2  2  0  0  0  0
  1  3  1  0  0  0  0
  3  4  1  0  0  0  0
  4  5  1  0  0  0  0
  6  4  1  0  0  0  0
  6  7  1  0  0  0  0
  8  9  1  0  0  0  0
  8  6  1  0  0  0  0
 10 11  2  0  0  0  0
 10  8  1  0  0  0  0
 11  3  1  0  0  0  0
 12 17  2  0  0  0  0
 12 13  1  0  0  0  0
 13 14  2  0  0  0  0
 14 15  1  0  0  0  0
 14  1  1  0  0  0  0
 16 20  1  0  0  0  0
 16 15  2  0  0  0  0
 17 16  1  0  0  0  0
 18 12  1  0  0  0  0
 19 13  1  0  0  0  0
M  END
>  <minimizedAffinity>
-3.72923255

$$$$

 OpenBabel03272501313D

 20 21  0  0  0  0  0  0  0  0999 V2000
   36.6760   28.3750   32.9280 C   0  0  0  0  0  0  0  0  0  0  0  0
   37.3050   28.5740   31.8460 O   0  0  0  0  0  0  0  0  0  0  0  0
   37.3610   27.3880   33.6890 N   0  0  0  0  0  0  0  0  0  0  0  0
   38.5570   26.8000   33.1930 C   0  0  0  0  0  3  0  0  0  0  0  0
   38.3700   25.6970   33.0470 H   0  0  0  0  0  0  0  0  0  0  0  0
   39.7440   26.9310   34.0990 C   0  0  0  0  0  3  0  0  0  0  0  0
   40.3520   25.9890   34.0810 H   0  0  0  0  0  0  0  0  0  0  0  0
   39.4600   27.3080   35.4360 N   0  0  0  0  0  0  0  0  0  0  0  0
   40.2560   27.0000   36.0270 H   0  0  0  0  0  0  0  0  0  0  0  0
   38.2030   26.8600   35.9560 C   0  0  0  0  0  3  0  0  0  0  0  0
   37.0980   26.7900   34.9710 C   0  0  0  0  0  3  0  0  0  0  0  0
   34.2870   30.4960   34.7770 C   0  0  0  0  0  0  0  0  0  0  0  0
   35.5010   29.8760   34.4370 C   0  0  0  0  0  0  0  0  0  0  0  0
   35.4560   29.0420   33.3280 C   0  0  0  0  0  0  0  0  0  0  0  0
   34.2940   28.8750   32.6590 N   0  0  0  0  0  0  0  0  0  0  0  0
   33.1590   29.4840   33.0160 C   0  0  0  0  0  0  0  0  0  0  0  0
   33.1580   30.2930   34.0750 N   0  0  0  0  0  0  0  0  0  0  0  0
   34.1940   31.1660   35.6190 H   0  0  0  0  0  0  0  0  0  0  0  0
   36.3680   30.0710   35.0300 H   0  0  0  0  0  0  0  0  0  0  0  0
   32.3420   29.2240   32.3580 H   0  0  0  0  0  0  0  0  0  0  0  0
  1 14  1  0  0  0  0
  1  3  1  0  0  0  0
  2  1  2  0  0  0  0
  3 11  1  0  0  0  0
  4  3  1  0  0  0  0
  4  6  1  0  0  0  0
  5  4  1  0  0  0  0
  6  8  1  0  0  0  0
  7  6  1  0  0  0  0
  8 10  1  0  0  0  0
  8  9  1  0  0  0  0
 11 10  2  0  0  0  0
 12 18  1  0  0  0  0
 13 12  1  0  0  0  0
 13 19  1  0  0  0  0
 14 13  2  0  0  0  0
 15 16  2  0  0  0  0
 15 14  1  0  0  0  0
 16 17  1  0  0  0  0
 17 12  2  0  0  0  0
 20 16  1  0  0  0  0
M  END
>  <minimizedAffinity>
-3.72561574

$$$$

 OpenBabel03272501313D

 20 21  0  0  0  0  0  0  0  0999 V2000
   36.0860   23.3550   31.7560 C   0  0  0  0  0  0  0  0  0  0  0  0
   35.2310   24.2150   31.3880 O   0  0  0  0  0  0  0  0  0  0  0  0
   37.2000   24.0230   32.3350 N   0  0  0  0  0  0  0  0  0  0  0  0
   37.2190   25.4430   32.4240 C   0  0  0  0  0  3  0  0  0  0  0  0
   38.0780   25.8210   31.8010 H   0  0  0  0  0  0  0  0  0  0  0  0
   37.4080   25.9820   33.8110 C   0  0  0  0  0  3  0  0  0  0  0  0
   38.0730   26.8830   33.7900 H   0  0  0  0  0  0  0  0  0  0  0  0
   37.8690   25.0510   34.7770 N   0  0  0  0  0  0  0  0  0  0  0  0
   38.3130   25.5880   35.5460 H   0  0  0  0  0  0  0  0  0  0  0  0
   38.7270   24.0160   34.2830 C   0  0  0  0  0  3  0  0  0  0  0  0
   38.4310   23.5490   32.9080 C   0  0  0  0  0  3  0  0  0  0  0  0
   34.9200   19.8810   32.1990 C   0  0  0  0  0  0  0  0  0  0  0  0
   35.0020   21.2710   32.3840 C   0  0  0  0  0  0  0  0  0  0  0  0
   35.9550   21.9220   31.6110 C   0  0  0  0  0  0  0  0  0  0  0  0
   36.7240   21.2130   30.7550 N   0  0  0  0  0  0  0  0  0  0  0  0
   36.6140   19.8890   30.6100 C   0  0  0  0  0  0  0  0  0  0  0  0
   35.7120   19.2260   31.3330 N   0  0  0  0  0  0  0  0  0  0  0  0
   34.2190   19.2650   32.7430 H   0  0  0  0  0  0  0  0  0  0  0  0
   34.3490   21.7420   33.0870 H   0  0  0  0  0  0  0  0  0  0  0  0
   37.3140   19.5070   29.8800 H   0  0  0  0  0  0  0  0  0  0  0  0
  1  3  1  0  0  0  0
  2  1  2  0  0  0  0
  3  4  1  0  0  0  0
  3 11  1  0  0  0  0
  4  6  1  0  0  0  0
  5  4  1  0  0  0  0
  6  8  1  0  0  0  0
  7  6  1  0  0  0  0
  8  9  1  0  0  0  0
 10  8  1  0  0  0  0
 11 10  2  0  0  0  0
 12 13  1  0  0  0  0
 12 18  1  0  0  0  0
 13 19  1  0  0  0  0
 14  1  1  0  0  0  0
 14 13  2  0  0  0  0
 15 14  1  0  0  0  0
 16 15  2  0  0  0  0
 16 17  1  0  0  0  0
 17 12  2  0  0  0  0
 20 16  1  0  0  0  0
M  END
>  <minimizedAffinity>
-3.69046807

$$$$
