
 OpenBabel03272507273D

 39 41  0  0  1  0  0  0  0  0999 V2000
   36.7150   29.8670   49.5000 C   0  0  0  0  0  0  0  0  0  0  0  0
   37.6990   30.5660   48.7920 C   0  0  0  0  0  0  0  0  0  0  0  0
   37.4370   30.8700   47.4410 C   0  0  0  0  0  0  0  0  0  0  0  0
   36.2750   30.4760   46.9190 N   0  0  0  0  0  0  0  0  0  0  0  0
   35.3510   29.8030   47.6350 C   0  0  0  0  0  0  0  0  0  0  0  0
   35.5740   29.5030   48.9150 N   0  0  0  0  0  0  0  0  0  0  0  0
   38.3940   31.5690   46.6840 N   0  0  0  0  0  0  0  0  0  0  0  0
   39.3680   32.5300   47.2100 C   0  0  0  0  0  0  0  0  0  0  0  0
   40.0190   33.1790   46.0350 C   0  0  0  0  0  0  0  0  0  0  0  0
   39.0590   32.9000   44.9330 C   0  0  0  0  0  0  0  0  0  0  0  0
   38.6260   31.5000   45.2710 C   0  0  2  0  0  0  0  0  0  0  0  0
   36.8910   29.6240   50.5300 H   0  0  0  0  0  0  0  0  0  0  0  0
   38.6430   30.8740   49.2560 H   0  0  0  0  0  0  0  0  0  0  0  0
   34.4540   29.5460   47.0820 H   0  0  0  0  0  0  0  0  0  0  0  0
   38.7730   33.2250   47.8280 H   0  0  0  0  0  0  0  0  0  0  0  0
   40.1300   31.9770   47.8110 H   0  0  0  0  0  0  0  0  0  0  0  0
   40.0220   34.2930   46.2140 H   0  0  0  0  0  0  0  0  0  0  0  0
   41.0600   32.9150   45.8610 H   0  0  0  0  0  0  0  0  0  0  0  0
   39.5980   32.8220   43.9510 H   0  0  0  0  0  0  0  0  0  0  0  0
   38.2660   33.6440   44.9230 H   0  0  0  0  0  0  0  0  0  0  0  0
   37.5140   31.0060   44.4060 C   0  0  0  0  0  0  0  0  0  0  0  0
   36.3510   31.5990   44.8790 F   0  0  0  0  0  0  0  0  0  0  0  0
   37.3150   29.6600   44.4020 F   0  0  0  0  0  0  0  0  0  0  0  0
   37.7310   31.5470   43.1460 F   0  0  0  0  0  0  0  0  0  0  0  0
   39.7900   30.5870   45.0970 C   0  0  0  0  0  0  0  0  0  0  0  0
   39.4440   29.5970   45.4650 H   0  0  0  0  0  0  0  0  0  0  0  0
   40.5560   30.9190   45.8610 H   0  0  0  0  0  0  0  0  0  0  0  0
   40.2850   30.8560   43.9880 O   0  0  0  0  0  0  0  0  0  0  0  0
   40.4970   30.2170   42.8120 C   0  0  0  0  0  0  0  0  0  0  0  0
   40.6080   31.0770   41.9050 O   0  0  0  0  0  0  0  0  0  0  0  0
   40.6650   29.0440   42.0520 N   0  0  0  0  0  0  0  0  0  0  0  0
   39.6280   28.1390   42.5020 C   0  0  0  0  0  0  0  0  0  0  0  0
   38.6060   28.5680   42.4360 H   0  0  0  0  0  0  0  0  0  0  0  0
   39.7570   26.8540   41.7550 C   0  0  0  0  0  0  0  0  0  0  0  0
   38.8900   26.1870   41.9520 H   0  0  0  0  0  0  0  0  0  0  0  0
   39.7360   27.1410   40.3380 N   0  0  0  0  0  0  0  0  0  0  0  0
   38.8470   27.5710   40.0720 H   0  0  0  0  0  0  0  0  0  0  0  0
   40.8990   27.8730   39.9070 C   0  0  0  0  0  0  0  0  0  0  0  0
   41.5780   28.6190   41.0170 C   0  0  0  0  0  0  0  0  0  0  0  0
  1 12  1  0  0  0  0
  2 13  1  0  0  0  0
  2  1  2  0  0  0  0
  3  2  1  0  0  0  0
  4  3  2  0  0  0  0
  4  5  1  0  0  0  0
  5  6  2  0  0  0  0
  6  1  1  0  0  0  0
  7  8  1  0  0  0  0
  7  3  1  0  0  0  0
  8 16  1  0  0  0  0
  8 15  1  0  0  0  0
  9 17  1  0  0  0  0
  9  8  1  0  0  0  0
 10 11  1  0  0  0  0
 10  9  1  0  0  0  0
 11 21  1  6  0  0  0
 11  7  1  0  0  0  0
 14  5  1  0  0  0  0
 18  9  1  0  0  0  0
 19 10  1  0  0  0  0
 20 10  1  0  0  0  0
 21 22  1  0  0  0  0
 23 21  1  0  0  0  0
 24 21  1  0  0  0  0
 25 11  1  0  0  0  0
 25 26  1  0  0  0  0
 25 27  1  0  0  0  0
 28 25  1  0  0  0  0
 29 28  1  0  0  0  0
 30 29  2  0  0  0  0
 31 32  1  0  0  0  0
 31 29  1  0  0  0  0
 33 32  1  0  0  0  0
 34 35  1  0  0  0  0
 34 32  1  0  0  0  0
 36 34  1  0  0  0  0
 37 36  1  0  0  0  0
 38 36  1  0  0  0  0
 38 39  1  0  0  0  0
 39 31  1  0  0  0  0
M  END
>  <minimizedAffinity>
-5.41032267

>  <minimizedRMSD>
0.938336194

$$$$
