
 OpenBabel03272507273D

 39 41  0  0  1  0  0  0  0  0999 V2000
   35.8460   22.5180   31.2260 C   0  0  0  0  0  0  0  0  0  0  0  0
   35.7100   23.8790   31.5240 C   0  0  0  0  0  0  0  0  0  0  0  0
   36.8750   24.6720   31.4930 C   0  0  0  0  0  0  0  0  0  0  0  0
   38.0320   24.0840   31.1850 N   0  0  0  0  0  0  0  0  0  0  0  0
   38.1220   22.7670   30.9040 C   0  0  0  0  0  0  0  0  0  0  0  0
   37.0350   21.9950   30.9260 N   0  0  0  0  0  0  0  0  0  0  0  0
   36.7930   26.0450   31.7860 N   0  0  0  0  0  0  0  0  0  0  0  0
   35.6260   26.9020   31.5610 C   0  0  0  0  0  0  0  0  0  0  0  0
   36.0630   28.3070   31.8080 C   0  0  0  0  0  0  0  0  0  0  0  0
   37.5430   28.2150   31.6970 C   0  0  0  0  0  0  0  0  0  0  0  0
   37.8030   26.8880   32.3560 C   0  0  2  0  0  0  0  0  0  0  0  0
   34.9740   21.8950   31.2430 H   0  0  0  0  0  0  0  0  0  0  0  0
   34.7420   24.3280   31.7720 H   0  0  0  0  0  0  0  0  0  0  0  0
   39.1250   22.4250   30.6710 H   0  0  0  0  0  0  0  0  0  0  0  0
   35.3300   26.7060   30.5160 H   0  0  0  0  0  0  0  0  0  0  0  0
   34.8260   26.6180   32.2870 H   0  0  0  0  0  0  0  0  0  0  0  0
   35.6910   28.9400   30.9500 H   0  0  0  0  0  0  0  0  0  0  0  0
   35.6620   28.7800   32.7030 H   0  0  0  0  0  0  0  0  0  0  0  0
   38.0350   28.9820   32.3520 H   0  0  0  0  0  0  0  0  0  0  0  0
   37.8500   28.2870   30.6560 H   0  0  0  0  0  0  0  0  0  0  0  0
   39.2250   26.4480   32.2420 C   0  0  0  0  0  0  0  0  0  0  0  0
   39.5420   26.4780   30.8910 F   0  0  0  0  0  0  0  0  0  0  0  0
   39.4980   25.1950   32.6990 F   0  0  0  0  0  0  0  0  0  0  0  0
   39.9900   27.4430   32.8350 F   0  0  0  0  0  0  0  0  0  0  0  0
   37.4660   27.0020   33.8030 C   0  0  0  0  0  0  0  0  0  0  0  0
   36.5140   27.5730   33.8370 H   0  0  0  0  0  0  0  0  0  0  0  0
   38.2340   27.7100   34.2400 H   0  0  0  0  0  0  0  0  0  0  0  0
   37.7080   25.8910   34.3080 O   0  0  0  0  0  0  0  0  0  0  0  0
   37.9750   25.3970   35.5410 C   0  0  0  0  0  0  0  0  0  0  0  0
   38.1600   26.3580   36.3260 O   0  0  0  0  0  0  0  0  0  0  0  0
   38.1580   24.3220   36.4310 N   0  0  0  0  0  0  0  0  0  0  0  0
   39.0030   23.3770   35.7290 C   0  0  0  0  0  3  0  0  0  0  0  0
   39.9540   23.8190   35.3650 H   0  0  0  0  0  0  0  0  0  0  0  0
   39.2240   22.1900   36.6050 C   0  0  0  0  0  3  0  0  0  0  0  0
   39.9910   21.5120   36.1750 H   0  0  0  0  0  0  0  0  0  0  0  0
   39.7480   22.6450   37.8740 N   0  0  0  0  0  0  0  0  0  0  0  0
   40.6500   23.1100   37.7440 H   0  0  0  0  0  0  0  0  0  0  0  0
   38.7890   23.4140   38.6230 C   0  0  0  0  0  2  0  0  0  0  0  0
   37.7120   24.0160   37.7700 C   0  0  0  0  0  2  0  0  0  0  0  0
  1 12  1  0  0  0  0
  1  2  1  0  0  0  0
  2 13  1  0  0  0  0
  3  2  2  0  0  0  0
  3  7  1  0  0  0  0
  4  3  1  0  0  0  0
  5  6  1  0  0  0  0
  5  4  2  0  0  0  0
  6  1  2  0  0  0  0
  7 11  1  0  0  0  0
  8  7  1  0  0  0  0
  8  9  1  0  0  0  0
  8 16  1  0  0  0  0
  9 18  1  0  0  0  0
 10  9  1  0  0  0  0
 10 19  1  0  0  0  0
 10 11  1  0  0  0  0
 11 21  1  6  0  0  0
 11 25  1  0  0  0  0
 14  5  1  0  0  0  0
 15  8  1  0  0  0  0
 17  9  1  0  0  0  0
 20 10  1  0  0  0  0
 21 23  1  0  0  0  0
 21 24  1  0  0  0  0
 22 21  1  0  0  0  0
 25 26  1  0  0  0  0
 25 27  1  0  0  0  0
 25 28  1  0  0  0  0
 28 29  1  0  0  0  0
 29 30  2  0  0  0  0
 29 31  1  0  0  0  0
 31 39  1  0  0  0  0
 32 31  1  0  0  0  0
 32 34  1  0  0  0  0
 33 32  1  0  0  0  0
 34 36  1  0  0  0  0
 35 34  1  0  0  0  0
 36 38  1  0  0  0  0
 37 36  1  0  0  0  0
 39 38  1  0  0  0  0
M  END
>  <minimizedAffinity>
-5.72525787

$$$$

 OpenBabel03272507273D

 39 41  0  0  1  0  0  0  0  0999 V2000
   34.6710   29.7130   32.6970 C   0  0  0  0  0  0  0  0  0  0  0  0
   35.4950   28.9940   33.5710 C   0  0  0  0  0  0  0  0  0  0  0  0
   36.7040   28.4850   33.0560 C   0  0  0  0  0  0  0  0  0  0  0  0
   36.9910   28.7160   31.7740 N   0  0  0  0  0  0  0  0  0  0  0  0
   36.1700   29.4140   30.9630 C   0  0  0  0  0  0  0  0  0  0  0  0
   35.0200   29.9070   31.4250 N   0  0  0  0  0  0  0  0  0  0  0  0
   37.5660   27.7540   33.8920 N   0  0  0  0  0  0  0  0  0  0  0  0
   37.6960   27.9160   35.3420 C   0  0  0  0  0  0  0  0  0  0  0  0
   38.8700   27.1010   35.7690 C   0  0  0  0  0  0  0  0  0  0  0  0
   39.6150   26.9060   34.4960 C   0  0  0  0  0  0  0  0  0  0  0  0
   38.4840   26.7150   33.5230 C   0  0  2  0  0  0  0  0  0  0  0  0
   33.7460   30.1100   33.0670 H   0  0  0  0  0  0  0  0  0  0  0  0
   35.2250   28.8250   34.6200 H   0  0  0  0  0  0  0  0  0  0  0  0
   36.5300   29.5240   29.9450 H   0  0  0  0  0  0  0  0  0  0  0  0
   37.8300   29.0010   35.4940 H   0  0  0  0  0  0  0  0  0  0  0  0
   36.7670   27.5330   35.8310 H   0  0  0  0  0  0  0  0  0  0  0  0
   39.5070   27.7410   36.4460 H   0  0  0  0  0  0  0  0  0  0  0  0
   38.6450   26.2090   36.3510 H   0  0  0  0  0  0  0  0  0  0  0  0
   40.1710   25.9320   34.5100 H   0  0  0  0  0  0  0  0  0  0  0  0
   40.2600   27.7590   34.3010 H   0  0  0  0  0  0  0  0  0  0  0  0
   38.9380   26.6590   32.1020 C   0  0  0  0  0  0  0  0  0  0  0  0
   40.0260   25.7980   32.0680 F   0  0  0  0  0  0  0  0  0  0  0  0
   39.3340   27.8410   31.5560 F   0  0  0  0  0  0  0  0  0  0  0  0
   37.9270   26.0210   31.3950 F   0  0  0  0  0  0  0  0  0  0  0  0
   37.7930   25.4340   33.8420 C   0  0  0  0  0  0  0  0  0  0  0  0
   36.7860   25.5220   33.3810 H   0  0  0  0  0  0  0  0  0  0  0  0
   37.5970   25.4620   34.9560 H   0  0  0  0  0  0  0  0  0  0  0  0
   38.6320   24.5310   33.6720 O   0  0  0  0  0  0  0  0  0  0  0  0
   39.4340   23.7610   34.4460 C   0  0  0  0  0  0  0  0  0  0  0  0
   39.9790   22.8960   33.7180 O   0  0  0  0  0  0  0  0  0  0  0  0
   39.9950   23.4160   35.6900 N   0  0  0  0  0  0  0  0  0  0  0  0
   38.8930   23.4360   36.6300 C   0  0  0  0  0  3  0  0  0  0  0  0
   38.0440   22.7880   36.3310 H   0  0  0  0  0  0  0  0  0  0  0  0
   39.4160   23.1020   37.9870 C   0  0  0  0  0  3  0  0  0  0  0  0
   38.5870   22.9520   38.7100 H   0  0  0  0  0  0  0  0  0  0  0  0
   40.1250   21.8440   37.9110 N   0  0  0  0  0  0  0  0  0  0  0  0
   39.4910   21.0930   37.6260 H   0  0  0  0  0  0  0  0  0  0  0  0
   41.3270   21.9340   37.1240 C   0  0  0  0  0  2  0  0  0  0  0  0
   41.3200   23.0790   36.1560 C   0  0  0  0  0  2  0  0  0  0  0  0
  1 12  1  0  0  0  0
  1  2  1  0  0  0  0
  2 13  1  0  0  0  0
  3  2  2  0  0  0  0
  3  7  1  0  0  0  0
  4  3  1  0  0  0  0
  5  6  1  0  0  0  0
  5  4  2  0  0  0  0
  6  1  2  0  0  0  0
  7  8  1  0  0  0  0
  8 15  1  0  0  0  0
  8  9  1  0  0  0  0
  8 16  1  0  0  0  0
  9 18  1  0  0  0  0
  9 17  1  0  0  0  0
 10 19  1  0  0  0  0
 10  9  1  0  0  0  0
 11 21  1  6  0  0  0
 11 25  1  0  0  0  0
 11  7  1  0  0  0  0
 11 10  1  0  0  0  0
 14  5  1  0  0  0  0
 20 10  1  0  0  0  0
 22 21  1  0  0  0  0
 23 21  1  0  0  0  0
 24 21  1  0  0  0  0
 25 27  1  0  0  0  0
 26 25  1  0  0  0  0
 28 25  1  0  0  0  0
 28 29  1  0  0  0  0
 29 31  1  0  0  0  0
 30 29  2  0  0  0  0
 31 39  1  0  0  0  0
 31 32  1  0  0  0  0
 32 34  1  0  0  0  0
 33 32  1  0  0  0  0
 34 35  1  0  0  0  0
 36 34  1  0  0  0  0
 37 36  1  0  0  0  0
 38 36  1  0  0  0  0
 39 38  1  0  0  0  0
M  END
>  <minimizedAffinity>
-5.64998388

$$$$

 OpenBabel03272507273D

 39 41  0  0  1  0  0  0  0  0999 V2000
   37.4230   27.1400   34.2500 C   0  0  0  0  0  0  0  0  0  0  0  0
   37.4400   26.1630   35.2530 C   0  0  0  0  0  0  0  0  0  0  0  0
   38.5990   25.3700   35.3700 C   0  0  0  0  0  0  0  0  0  0  0  0
   39.6060   25.5940   34.5250 N   0  0  0  0  0  0  0  0  0  0  0  0
   39.5510   26.5450   33.5700 C   0  0  0  0  0  0  0  0  0  0  0  0
   38.4660   27.3100   33.4380 N   0  0  0  0  0  0  0  0  0  0  0  0
   38.6650   24.3730   36.3600 N   0  0  0  0  0  0  0  0  0  0  0  0
   37.9710   24.3980   37.6500 C   0  0  0  0  0  0  0  0  0  0  0  0
   38.5040   23.2600   38.4540 C   0  0  0  0  0  0  0  0  0  0  0  0
   39.7870   22.9470   37.7700 C   0  0  0  0  0  0  0  0  0  0  0  0
   39.4050   23.1450   36.3290 C   0  0  2  0  0  0  0  0  0  0  0  0
   36.5520   27.7560   34.1420 H   0  0  0  0  0  0  0  0  0  0  0  0
   36.5930   26.0090   35.9300 H   0  0  0  0  0  0  0  0  0  0  0  0
   40.4420   26.6150   32.9540 H   0  0  0  0  0  0  0  0  0  0  0  0
   38.2030   25.3900   38.0760 H   0  0  0  0  0  0  0  0  0  0  0  0
   36.8770   24.2610   37.4720 H   0  0  0  0  0  0  0  0  0  0  0  0
   38.7500   23.6500   39.4850 H   0  0  0  0  0  0  0  0  0  0  0  0
   37.8170   22.4320   38.6200 H   0  0  0  0  0  0  0  0  0  0  0  0
   40.0320   21.8570   37.8720 H   0  0  0  0  0  0  0  0  0  0  0  0
   40.5790   23.5960   38.1360 H   0  0  0  0  0  0  0  0  0  0  0  0
   40.5680   23.0550   35.3980 C   0  0  0  0  0  0  0  0  0  0  0  0
   41.4910   24.0000   35.8240 F   0  0  0  0  0  0  0  0  0  0  0  0
   40.3020   23.3060   34.0860 F   0  0  0  0  0  0  0  0  0  0  0  0
   41.1560   21.8190   35.6270 F   0  0  0  0  0  0  0  0  0  0  0  0
   38.4230   22.0920   35.9480 C   0  0  0  0  0  0  0  0  0  0  0  0
   37.9800   21.7440   36.9060 H   0  0  0  0  0  0  0  0  0  0  0  0
   39.0410   21.2140   35.5890 H   0  0  0  0  0  0  0  0  0  0  0  0
   37.8260   22.5140   34.9420 O   0  0  0  0  0  0  0  0  0  0  0  0
   37.3990   22.0160   33.7560 C   0  0  0  0  0  0  0  0  0  0  0  0
   37.4440   22.9320   32.9000 O   0  0  0  0  0  0  0  0  0  0  0  0
   36.9140   20.9640   32.9580 N   0  0  0  0  0  0  0  0  0  0  0  0
   35.8770   20.3270   33.7430 C   0  0  0  0  0  3  0  0  0  0  0  0
   35.0850   21.0280   34.0820 H   0  0  0  0  0  0  0  0  0  0  0  0
   35.3270   19.1770   32.9680 C   0  0  0  0  0  3  0  0  0  0  0  0
   34.4250   18.7570   33.4600 H   0  0  0  0  0  0  0  0  0  0  0  0
   34.8980   19.6580   31.6730 N   0  0  0  0  0  0  0  0  0  0  0  0
   34.1520   20.3510   31.7770 H   0  0  0  0  0  0  0  0  0  0  0  0
   35.9980   20.0920   30.8530 C   0  0  0  0  0  2  0  0  0  0  0  0
   37.2220   20.4540   31.6410 C   0  0  0  0  0  2  0  0  0  0  0  0
  1  2  1  0  0  0  0
  2  3  2  0  0  0  0
  2 13  1  0  0  0  0
  3  7  1  0  0  0  0
  4  3  1  0  0  0  0
  5  4  2  0  0  0  0
  6  5  1  0  0  0  0
  6  1  2  0  0  0  0
  7  8  1  0  0  0  0
  8 15  1  0  0  0  0
  8  9  1  0  0  0  0
  9 18  1  0  0  0  0
  9 17  1  0  0  0  0
 10 19  1  0  0  0  0
 10 20  1  0  0  0  0
 10  9  1  0  0  0  0
 11 21  1  6  0  0  0
 11  7  1  0  0  0  0
 11 10  1  0  0  0  0
 12  1  1  0  0  0  0
 14  5  1  0  0  0  0
 16  8  1  0  0  0  0
 21 24  1  0  0  0  0
 21 22  1  0  0  0  0
 23 21  1  0  0  0  0
 25 11  1  0  0  0  0
 25 26  1  0  0  0  0
 27 25  1  0  0  0  0
 28 25  1  0  0  0  0
 29 28  1  0  0  0  0
 30 29  2  0  0  0  0
 31 32  1  0  0  0  0
 31 29  1  0  0  0  0
 32 33  1  0  0  0  0
 34 35  1  0  0  0  0
 34 32  1  0  0  0  0
 36 37  1  0  0  0  0
 36 34  1  0  0  0  0
 38 39  1  0  0  0  0
 38 36  1  0  0  0  0
 39 31  1  0  0  0  0
M  END
>  <minimizedAffinity>
-5.55986404

$$$$

 OpenBabel03272507273D

 39 41  0  0  1  0  0  0  0  0999 V2000
   36.5380   20.8290   33.4410 C   0  0  0  0  0  0  0  0  0  0  0  0
   37.6990   21.5030   33.8350 C   0  0  0  0  0  0  0  0  0  0  0  0
   37.7830   21.9260   35.1760 C   0  0  0  0  0  0  0  0  0  0  0  0
   36.7590   21.6620   35.9880 N   0  0  0  0  0  0  0  0  0  0  0  0
   35.6550   21.0090   35.5690 C   0  0  0  0  0  0  0  0  0  0  0  0
   35.5490   20.5980   34.3050 N   0  0  0  0  0  0  0  0  0  0  0  0
   38.9290   22.6090   35.6220 N   0  0  0  0  0  0  0  0  0  0  0  0
   40.2830   22.4560   35.0830 C   0  0  0  0  0  0  0  0  0  0  0  0
   41.2010   23.1990   35.9950 C   0  0  0  0  0  0  0  0  0  0  0  0
   40.3950   23.3290   37.2380 C   0  0  0  0  0  0  0  0  0  0  0  0
   39.0250   23.5810   36.6720 C   0  0  2  0  0  0  0  0  0  0  0  0
   36.4500   20.4970   32.4240 H   0  0  0  0  0  0  0  0  0  0  0  0
   38.5220   21.7020   33.1390 H   0  0  0  0  0  0  0  0  0  0  0  0
   34.9010   20.8640   36.3370 H   0  0  0  0  0  0  0  0  0  0  0  0
   40.4590   21.3670   35.0670 H   0  0  0  0  0  0  0  0  0  0  0  0
   40.3160   22.9040   34.0610 H   0  0  0  0  0  0  0  0  0  0  0  0
   42.0790   22.5260   36.2240 H   0  0  0  0  0  0  0  0  0  0  0  0
   41.6390   24.1100   35.5920 H   0  0  0  0  0  0  0  0  0  0  0  0
   40.6720   24.2660   37.7910 H   0  0  0  0  0  0  0  0  0  0  0  0
   40.4900   22.4340   37.8470 H   0  0  0  0  0  0  0  0  0  0  0  0
   37.9540   23.5920   37.7130 C   0  0  0  0  0  0  0  0  0  0  0  0
   38.3240   24.5450   38.6520 F   0  0  0  0  0  0  0  0  0  0  0  0
   37.7570   22.4190   38.3750 F   0  0  0  0  0  0  0  0  0  0  0  0
   36.8150   24.0890   37.0950 F   0  0  0  0  0  0  0  0  0  0  0  0
   39.0270   24.9090   35.9950 C   0  0  0  0  0  0  0  0  0  0  0  0
   40.0990   25.1730   35.8730 H   0  0  0  0  0  0  0  0  0  0  0  0
   38.6420   25.6440   36.7650 H   0  0  0  0  0  0  0  0  0  0  0  0
   38.1500   24.8560   35.1140 O   0  0  0  0  0  0  0  0  0  0  0  0
   37.6300   25.6850   34.1770 C   0  0  0  0  0  0  0  0  0  0  0  0
   37.1120   26.6690   34.7580 O   0  0  0  0  0  0  0  0  0  0  0  0
   37.3620   26.0270   32.8390 N   0  0  0  0  0  0  0  0  0  0  0  0
   36.8740   24.8130   32.2180 C   0  0  0  0  0  3  0  0  0  0  0  0
   36.0050   24.3650   32.7440 H   0  0  0  0  0  0  0  0  0  0  0  0
   36.5880   25.0920   30.7810 C   0  0  0  0  0  3  0  0  0  0  0  0
   36.0650   24.2360   30.3030 H   0  0  0  0  0  0  0  0  0  0  0  0
   35.6850   26.2180   30.7000 N   0  0  0  0  0  0  0  0  0  0  0  0
   34.7970   26.0000   31.1590 H   0  0  0  0  0  0  0  0  0  0  0  0
   36.2930   27.4460   31.1430 C   0  0  0  0  0  2  0  0  0  0  0  0
   37.4670   27.2340   32.0510 C   0  0  0  0  0  2  0  0  0  0  0  0
  1  2  2  0  0  0  0
  1  6  1  0  0  0  0
  2  3  1  0  0  0  0
  3  7  1  0  0  0  0
  3  4  2  0  0  0  0
  5  4  1  0  0  0  0
  5 14  1  0  0  0  0
  6  5  2  0  0  0  0
  7 11  1  0  0  0  0
  8  7  1  0  0  0  0
  8  9  1  0  0  0  0
  9 17  1  0  0  0  0
  9 10  1  0  0  0  0
 10 19  1  0  0  0  0
 10 20  1  0  0  0  0
 11 25  1  6  0  0  0
 11 10  1  0  0  0  0
 11 21  1  0  0  0  0
 12  1  1  0  0  0  0
 13  2  1  0  0  0  0
 15  8  1  0  0  0  0
 16  8  1  0  0  0  0
 18  9  1  0  0  0  0
 21 23  1  0  0  0  0
 21 22  1  0  0  0  0
 24 21  1  0  0  0  0
 25 27  1  0  0  0  0
 26 25  1  0  0  0  0
 28 25  1  0  0  0  0
 29 30  2  0  0  0  0
 29 28  1  0  0  0  0
 31 29  1  0  0  0  0
 32 33  1  0  0  0  0
 32 31  1  0  0  0  0
 34 32  1  0  0  0  0
 35 34  1  0  0  0  0
 36 34  1  0  0  0  0
 36 38  1  0  0  0  0
 36 37  1  0  0  0  0
 38 39  1  0  0  0  0
 39 31  1  0  0  0  0
M  END
>  <minimizedAffinity>
-5.51074505

$$$$

 OpenBabel03272507273D

 39 41  0  0  1  0  0  0  0  0999 V2000
   34.9680   20.2780   31.9220 C   0  0  0  0  0  0  0  0  0  0  0  0
   35.0330   21.6740   32.0040 C   0  0  0  0  0  0  0  0  0  0  0  0
   36.1480   22.3090   31.4230 C   0  0  0  0  0  0  0  0  0  0  0  0
   37.0710   21.5500   30.8320 N   0  0  0  0  0  0  0  0  0  0  0  0
   36.9730   20.2060   30.7740 C   0  0  0  0  0  0  0  0  0  0  0  0
   35.9280   19.5790   31.3160 N   0  0  0  0  0  0  0  0  0  0  0  0
   36.2610   23.7100   31.4790 N   0  0  0  0  0  0  0  0  0  0  0  0
   35.1470   24.6590   31.5370 C   0  0  0  0  0  0  0  0  0  0  0  0
   35.7260   26.0230   31.3610 C   0  0  0  0  0  0  0  0  0  0  0  0
   37.0510   25.7400   30.7490 C   0  0  0  0  0  0  0  0  0  0  0  0
   37.4580   24.4990   31.4950 C   0  0  2  0  0  0  0  0  0  0  0  0
   34.1290   19.7720   32.3570 H   0  0  0  0  0  0  0  0  0  0  0  0
   34.2530   22.2650   32.4970 H   0  0  0  0  0  0  0  0  0  0  0  0
   37.7970   19.7170   30.2640 H   0  0  0  0  0  0  0  0  0  0  0  0
   34.4740   24.3540   30.7170 H   0  0  0  0  0  0  0  0  0  0  0  0
   34.6570   24.5780   32.5370 H   0  0  0  0  0  0  0  0  0  0  0  0
   35.1010   26.5670   30.5940 H   0  0  0  0  0  0  0  0  0  0  0  0
   35.7140   26.6620   32.2420 H   0  0  0  0  0  0  0  0  0  0  0  0
   37.7960   26.5280   31.0410 H   0  0  0  0  0  0  0  0  0  0  0  0
   36.9550   25.6270   29.6720 H   0  0  0  0  0  0  0  0  0  0  0  0
   38.7090   23.8810   30.9630 C   0  0  0  0  0  0  0  0  0  0  0  0
   38.5240   23.7270   29.5960 F   0  0  0  0  0  0  0  0  0  0  0  0
   39.0320   22.6600   31.4720 F   0  0  0  0  0  0  0  0  0  0  0  0
   39.7070   24.8340   31.1070 F   0  0  0  0  0  0  0  0  0  0  0  0
   37.6880   24.8570   32.9230 C   0  0  0  0  0  0  0  0  0  0  0  0
   36.9670   25.6730   33.1400 H   0  0  0  0  0  0  0  0  0  0  0  0
   38.7010   25.3610   32.9520 H   0  0  0  0  0  0  0  0  0  0  0  0
   37.8310   23.7830   33.5360 O   0  0  0  0  0  0  0  0  0  0  0  0
   38.5020   23.3430   34.6270 C   0  0  0  0  0  0  0  0  0  0  0  0
   39.0210   22.2330   34.3560 O   0  0  0  0  0  0  0  0  0  0  0  0
   38.9360   23.4920   35.9570 N   0  0  0  0  0  0  0  0  0  0  0  0
   37.7740   23.9420   36.6960 C   0  0  0  0  0  3  0  0  0  0  0  0
   36.8940   23.2730   36.5880 H   0  0  0  0  0  0  0  0  0  0  0  0
   38.1630   24.1480   38.1220 C   0  0  0  0  0  3  0  0  0  0  0  0
   37.2720   24.3400   38.7560 H   0  0  0  0  0  0  0  0  0  0  0  0
   38.7600   22.9270   38.6170 N   0  0  0  0  0  0  0  0  0  0  0  0
   38.0860   22.1590   38.5840 H   0  0  0  0  0  0  0  0  0  0  0  0
   40.0210   22.6340   37.9860 C   0  0  0  0  0  2  0  0  0  0  0  0
   40.1880   23.2990   36.6530 C   0  0  0  0  0  2  0  0  0  0  0  0
  1  2  1  0  0  0  0
  1 12  1  0  0  0  0
  2 13  1  0  0  0  0
  3  7  1  0  0  0  0
  3  2  2  0  0  0  0
  4  3  1  0  0  0  0
  5  4  2  0  0  0  0
  5  6  1  0  0  0  0
  6  1  2  0  0  0  0
  7 11  1  0  0  0  0
  7  8  1  0  0  0  0
  8 16  1  0  0  0  0
  9  8  1  0  0  0  0
  9 18  1  0  0  0  0
 10 19  1  0  0  0  0
 10  9  1  0  0  0  0
 10 11  1  0  0  0  0
 11 21  1  6  0  0  0
 11 25  1  0  0  0  0
 14  5  1  0  0  0  0
 15  8  1  0  0  0  0
 17  9  1  0  0  0  0
 20 10  1  0  0  0  0
 21 24  1  0  0  0  0
 21 23  1  0  0  0  0
 22 21  1  0  0  0  0
 25 27  1  0  0  0  0
 25 26  1  0  0  0  0
 25 28  1  0  0  0  0
 28 29  1  0  0  0  0
 29 31  1  0  0  0  0
 30 29  2  0  0  0  0
 31 39  1  0  0  0  0
 31 32  1  0  0  0  0
 32 34  1  0  0  0  0
 33 32  1  0  0  0  0
 34 36  1  0  0  0  0
 34 35  1  0  0  0  0
 37 36  1  0  0  0  0
 38 36  1  0  0  0  0
 39 38  1  0  0  0  0
M  END
>  <minimizedAffinity>
-5.46291018

$$$$

 OpenBabel03272507273D

 39 41  0  0  1  0  0  0  0  0999 V2000
   41.4680   21.7950   36.3530 C   0  0  0  0  0  0  0  0  0  0  0  0
   41.2070   22.7540   35.3680 C   0  0  0  0  0  0  0  0  0  0  0  0
   40.2560   23.7500   35.6640 C   0  0  0  0  0  0  0  0  0  0  0  0
   39.6630   23.7220   36.8580 N   0  0  0  0  0  0  0  0  0  0  0  0
   39.9410   22.7790   37.7820 C   0  0  0  0  0  0  0  0  0  0  0  0
   40.8380   21.8250   37.5270 N   0  0  0  0  0  0  0  0  0  0  0  0
   39.9560   24.7370   34.7070 N   0  0  0  0  0  0  0  0  0  0  0  0
   40.8710   25.2400   33.6800 C   0  0  0  0  0  0  0  0  0  0  0  0
   40.2080   26.4170   33.0450 C   0  0  0  0  0  0  0  0  0  0  0  0
   39.1830   26.7990   34.0530 C   0  0  0  0  0  0  0  0  0  0  0  0
   38.7240   25.4470   34.5280 C   0  0  2  0  0  0  0  0  0  0  0  0
   42.1890   21.0270   36.1500 H   0  0  0  0  0  0  0  0  0  0  0  0
   41.7160   22.7460   34.3970 H   0  0  0  0  0  0  0  0  0  0  0  0
   39.3830   22.8790   38.7070 H   0  0  0  0  0  0  0  0  0  0  0  0
   41.7970   25.4920   34.2250 H   0  0  0  0  0  0  0  0  0  0  0  0
   41.0340   24.4390   32.9190 H   0  0  0  0  0  0  0  0  0  0  0  0
   40.9660   27.2530   32.9920 H   0  0  0  0  0  0  0  0  0  0  0  0
   39.8670   26.2770   32.0210 H   0  0  0  0  0  0  0  0  0  0  0  0
   38.2920   27.2630   33.5510 H   0  0  0  0  0  0  0  0  0  0  0  0
   39.6200   27.4380   34.8160 H   0  0  0  0  0  0  0  0  0  0  0  0
   37.7870   25.5220   35.6870 C   0  0  0  0  0  0  0  0  0  0  0  0
   38.4420   26.2370   36.6810 F   0  0  0  0  0  0  0  0  0  0  0  0
   37.4060   24.3300   36.2230 F   0  0  0  0  0  0  0  0  0  0  0  0
   36.7270   26.3210   35.2810 F   0  0  0  0  0  0  0  0  0  0  0  0
   38.0210   24.7630   33.4070 C   0  0  0  0  0  0  0  0  0  0  0  0
   38.2280   25.3840   32.5090 H   0  0  0  0  0  0  0  0  0  0  0  0
   36.9170   24.9100   33.6030 H   0  0  0  0  0  0  0  0  0  0  0  0
   38.2280   23.5450   33.5540 O   0  0  0  0  0  0  0  0  0  0  0  0
   37.5020   22.4010   33.5170 C   0  0  0  0  0  0  0  0  0  0  0  0
   37.6980   21.7700   34.5840 O   0  0  0  0  0  0  0  0  0  0  0  0
   36.6080   21.5220   32.8790 N   0  0  0  0  0  0  0  0  0  0  0  0
   37.0750   21.4190   31.5120 C   0  0  0  0  0  3  0  0  0  0  0  0
   38.1370   21.1090   31.4280 H   0  0  0  0  0  0  0  0  0  0  0  0
   36.1560   20.5170   30.7590 C   0  0  0  0  0  3  0  0  0  0  0  0
   36.5600   20.2830   29.7510 H   0  0  0  0  0  0  0  0  0  0  0  0
   36.0670   19.2570   31.4640 N   0  0  0  0  0  0  0  0  0  0  0  0
   36.9830   18.8050   31.5080 H   0  0  0  0  0  0  0  0  0  0  0  0
   35.4080   19.3840   32.7380 C   0  0  0  0  0  2  0  0  0  0  0  0
   35.4370   20.7800   33.2870 C   0  0  0  0  0  2  0  0  0  0  0  0
  1  6  1  0  0  0  0
  2  3  1  0  0  0  0
  2  1  2  0  0  0  0
  3  4  2  0  0  0  0
  4  5  1  0  0  0  0
  5 14  1  0  0  0  0
  6  5  2  0  0  0  0
  7  3  1  0  0  0  0
  8 15  1  0  0  0  0
  8  7  1  0  0  0  0
  9  8  1  0  0  0  0
  9 10  1  0  0  0  0
 10 11  1  0  0  0  0
 10 20  1  0  0  0  0
 11 25  1  6  0  0  0
 11  7  1  0  0  0  0
 11 21  1  0  0  0  0
 12  1  1  0  0  0  0
 13  2  1  0  0  0  0
 16  8  1  0  0  0  0
 17  9  1  0  0  0  0
 18  9  1  0  0  0  0
 19 10  1  0  0  0  0
 21 23  1  0  0  0  0
 21 22  1  0  0  0  0
 24 21  1  0  0  0  0
 25 28  1  0  0  0  0
 25 27  1  0  0  0  0
 26 25  1  0  0  0  0
 29 28  1  0  0  0  0
 29 30  2  0  0  0  0
 31 39  1  0  0  0  0
 31 29  1  0  0  0  0
 32 31  1  0  0  0  0
 33 32  1  0  0  0  0
 34 36  1  0  0  0  0
 34 32  1  0  0  0  0
 35 34  1  0  0  0  0
 36 37  1  0  0  0  0
 36 38  1  0  0  0  0
 38 39  1  0  0  0  0
M  END
>  <minimizedAffinity>
-5.35697031

$$$$

 OpenBabel03272507273D

 39 41  0  0  1  0  0  0  0  0999 V2000
   37.5750   25.9540   31.1770 C   0  0  0  0  0  0  0  0  0  0  0  0
   38.0590   24.6460   31.0560 C   0  0  0  0  0  0  0  0  0  0  0  0
   37.1120   23.6040   30.9930 C   0  0  0  0  0  0  0  0  0  0  0  0
   35.8180   23.9220   31.0530 N   0  0  0  0  0  0  0  0  0  0  0  0
   35.3910   25.1970   31.1700 C   0  0  0  0  0  0  0  0  0  0  0  0
   36.2670   26.2010   31.2320 N   0  0  0  0  0  0  0  0  0  0  0  0
   37.5460   22.2720   30.8730 N   0  0  0  0  0  0  0  0  0  0  0  0
   38.7870   21.8290   30.2320 C   0  0  0  0  0  0  0  0  0  0  0  0
   38.7250   20.3410   30.1430 C   0  0  0  0  0  0  0  0  0  0  0  0
   37.2720   20.0630   30.3020 C   0  0  0  0  0  0  0  0  0  0  0  0
   36.8920   21.0840   31.3400 C   0  0  2  0  0  0  0  0  0  0  0  0
   38.2770   26.7630   31.2270 H   0  0  0  0  0  0  0  0  0  0  0  0
   39.1310   24.4230   31.0090 H   0  0  0  0  0  0  0  0  0  0  0  0
   34.3120   25.3070   31.2080 H   0  0  0  0  0  0  0  0  0  0  0  0
   38.7920   22.3320   29.2500 H   0  0  0  0  0  0  0  0  0  0  0  0
   39.6510   22.1370   30.8690 H   0  0  0  0  0  0  0  0  0  0  0  0
   39.0180   20.0450   29.0940 H   0  0  0  0  0  0  0  0  0  0  0  0
   39.4060   19.7960   30.7940 H   0  0  0  0  0  0  0  0  0  0  0  0
   37.1130   19.0640   30.7880 H   0  0  0  0  0  0  0  0  0  0  0  0
   36.7620   20.1560   29.3470 H   0  0  0  0  0  0  0  0  0  0  0  0
   35.4210   21.1490   31.5850 C   0  0  0  0  0  0  0  0  0  0  0  0
   34.8470   21.6470   30.4230 F   0  0  0  0  0  0  0  0  0  0  0  0
   35.0230   21.9480   32.6130 F   0  0  0  0  0  0  0  0  0  0  0  0
   34.9860   19.8360   31.6910 F   0  0  0  0  0  0  0  0  0  0  0  0
   37.5620   20.7310   32.6230 C   0  0  0  0  0  0  0  0  0  0  0  0
   38.3040   19.9470   32.3590 H   0  0  0  0  0  0  0  0  0  0  0  0
   36.7810   20.1850   33.2340 H   0  0  0  0  0  0  0  0  0  0  0  0
   37.7660   21.8030   33.2200 O   0  0  0  0  0  0  0  0  0  0  0  0
   37.7820   22.2390   34.5020 C   0  0  0  0  0  0  0  0  0  0  0  0
   37.0220   21.5090   35.1820 O   0  0  0  0  0  0  0  0  0  0  0  0
   38.2280   23.1210   35.5050 N   0  0  0  0  0  0  0  0  0  0  0  0
   38.1480   24.4440   34.9220 C   0  0  0  0  0  3  0  0  0  0  0  0
   37.1410   24.6940   34.5270 H   0  0  0  0  0  0  0  0  0  0  0  0
   38.6320   25.4390   35.9230 C   0  0  0  0  0  3  0  0  0  0  0  0
   38.4420   26.4780   35.5800 H   0  0  0  0  0  0  0  0  0  0  0  0
   37.8760   25.2680   37.1440 N   0  0  0  0  0  0  0  0  0  0  0  0
   36.8820   25.4480   36.9790 H   0  0  0  0  0  0  0  0  0  0  0  0
   38.1490   24.0120   37.7920 C   0  0  0  0  0  2  0  0  0  0  0  0
   38.6990   22.9710   36.8620 C   0  0  0  0  0  2  0  0  0  0  0  0
  1 12  1  0  0  0  0
  1  6  1  0  0  0  0
  2  1  2  0  0  0  0
  3  4  2  0  0  0  0
  3  2  1  0  0  0  0
  4  5  1  0  0  0  0
  5 14  1  0  0  0  0
  5  6  2  0  0  0  0
  7  3  1  0  0  0  0
  7 11  1  0  0  0  0
  8 16  1  0  0  0  0
  8  7  1  0  0  0  0
  9  8  1  0  0  0  0
  9 10  1  0  0  0  0
  9 18  1  0  0  0  0
 10 19  1  0  0  0  0
 10 11  1  0  0  0  0
 11 21  1  1  0  0  0
 11 25  1  0  0  0  0
 13  2  1  0  0  0  0
 15  8  1  0  0  0  0
 17  9  1  0  0  0  0
 20 10  1  0  0  0  0
 21 24  1  0  0  0  0
 21 23  1  0  0  0  0
 22 21  1  0  0  0  0
 25 28  1  0  0  0  0
 25 27  1  0  0  0  0
 26 25  1  0  0  0  0
 28 29  1  0  0  0  0
 29 30  2  0  0  0  0
 29 31  1  0  0  0  0
 31 39  1  0  0  0  0
 32 31  1  0  0  0  0
 32 34  1  0  0  0  0
 33 32  1  0  0  0  0
 34 36  1  0  0  0  0
 35 34  1  0  0  0  0
 36 38  1  0  0  0  0
 37 36  1  0  0  0  0
 39 38  1  0  0  0  0
M  END
>  <minimizedAffinity>
-5.31118584

$$$$

 OpenBabel03272507273D

 39 41  0  0  1  0  0  0  0  0999 V2000
   40.7480   24.8790   27.9010 C   0  0  0  0  0  0  0  0  0  0  0  0
   39.8370   24.4950   28.8920 C   0  0  0  0  0  0  0  0  0  0  0  0
   39.2420   25.5160   29.6600 C   0  0  0  0  0  0  0  0  0  0  0  0
   39.5790   26.7800   29.4010 N   0  0  0  0  0  0  0  0  0  0  0  0
   40.4620   27.1090   28.4370 C   0  0  0  0  0  0  0  0  0  0  0  0
   41.0400   26.1630   27.6950 N   0  0  0  0  0  0  0  0  0  0  0  0
   38.3210   25.1830   30.6700 N   0  0  0  0  0  0  0  0  0  0  0  0
   37.4480   24.0060   30.6800 C   0  0  0  0  0  0  0  0  0  0  0  0
   36.4980   24.1780   31.8180 C   0  0  0  0  0  0  0  0  0  0  0  0
   36.5730   25.6380   32.0900 C   0  0  0  0  0  0  0  0  0  0  0  0
   38.0390   25.8990   31.8800 C   0  0  2  0  0  0  0  0  0  0  0  0
   41.2140   24.1200   27.3040 H   0  0  0  0  0  0  0  0  0  0  0  0
   39.5840   23.4450   29.0760 H   0  0  0  0  0  0  0  0  0  0  0  0
   40.6420   28.1750   28.3370 H   0  0  0  0  0  0  0  0  0  0  0  0
   36.9600   24.0080   29.6900 H   0  0  0  0  0  0  0  0  0  0  0  0
   38.0740   23.0950   30.8400 H   0  0  0  0  0  0  0  0  0  0  0  0
   35.4590   23.9520   31.4370 H   0  0  0  0  0  0  0  0  0  0  0  0
   36.6420   23.5090   32.6640 H   0  0  0  0  0  0  0  0  0  0  0  0
   36.3800   25.8460   33.1760 H   0  0  0  0  0  0  0  0  0  0  0  0
   35.9030   26.1820   31.4290 H   0  0  0  0  0  0  0  0  0  0  0  0
   38.3890   27.3490   31.9290 C   0  0  0  0  0  0  0  0  0  0  0  0
   37.7710   27.8680   33.0590 F   0  0  0  0  0  0  0  0  0  0  0  0
   37.9860   28.0950   30.8640 F   0  0  0  0  0  0  0  0  0  0  0  0
   39.7530   27.4130   32.1790 F   0  0  0  0  0  0  0  0  0  0  0  0
   38.8050   25.2000   32.9500 C   0  0  0  0  0  0  0  0  0  0  0  0
   39.8720   25.2910   32.6540 H   0  0  0  0  0  0  0  0  0  0  0  0
   38.5710   24.1000   32.8240 H   0  0  0  0  0  0  0  0  0  0  0  0
   38.2830   25.5320   34.0300 O   0  0  0  0  0  0  0  0  0  0  0  0
   38.2560   25.0730   35.3040 C   0  0  0  0  0  0  0  0  0  0  0  0
   37.9300   26.0180   36.0620 O   0  0  0  0  0  0  0  0  0  0  0  0
   38.4100   24.0460   36.2540 N   0  0  0  0  0  0  0  0  0  0  0  0
   39.6460   23.3760   35.9040 C   0  0  0  0  0  3  0  0  0  0  0  0
   40.5180   24.0600   35.8450 H   0  0  0  0  0  0  0  0  0  0  0  0
   39.8660   22.2500   36.8580 C   0  0  0  0  0  3  0  0  0  0  0  0
   40.8760   21.8070   36.7280 H   0  0  0  0  0  0  0  0  0  0  0  0
   39.8210   22.7730   38.2060 N   0  0  0  0  0  0  0  0  0  0  0  0
   40.5680   23.4570   38.3500 H   0  0  0  0  0  0  0  0  0  0  0  0
   38.5100   23.2430   38.5720 C   0  0  0  0  0  2  0  0  0  0  0  0
   37.6490   23.5840   37.3920 C   0  0  0  0  0  2  0  0  0  0  0  0
  1  2  1  0  0  0  0
  2 13  1  0  0  0  0
  2  3  2  0  0  0  0
  3  7  1  0  0  0  0
  4  3  1  0  0  0  0
  5  4  2  0  0  0  0
  6  1  2  0  0  0  0
  6  5  1  0  0  0  0
  7  8  1  0  0  0  0
  7 11  1  0  0  0  0
  8 16  1  0  0  0  0
  8  9  1  0  0  0  0
  9 10  1  0  0  0  0
  9 18  1  0  0  0  0
 10 19  1  0  0  0  0
 11 21  1  6  0  0  0
 11 10  1  0  0  0  0
 11 25  1  0  0  0  0
 12  1  1  0  0  0  0
 14  5  1  0  0  0  0
 15  8  1  0  0  0  0
 17  9  1  0  0  0  0
 20 10  1  0  0  0  0
 21 24  1  0  0  0  0
 21 22  1  0  0  0  0
 23 21  1  0  0  0  0
 25 28  1  0  0  0  0
 26 25  1  0  0  0  0
 27 25  1  0  0  0  0
 28 29  1  0  0  0  0
 29 30  2  0  0  0  0
 29 31  1  0  0  0  0
 31 39  1  0  0  0  0
 32 31  1  0  0  0  0
 32 34  1  0  0  0  0
 33 32  1  0  0  0  0
 34 36  1  0  0  0  0
 35 34  1  0  0  0  0
 36 37  1  0  0  0  0
 36 38  1  0  0  0  0
 39 38  1  0  0  0  0
M  END
>  <minimizedAffinity>
-5.27301598

$$$$

 OpenBabel03272507273D

 39 41  0  0  1  0  0  0  0  0999 V2000
   39.1790   27.1520   35.5590 C   0  0  0  0  0  0  0  0  0  0  0  0
   39.6910   26.5080   34.4260 C   0  0  0  0  0  0  0  0  0  0  0  0
   38.7860   26.1890   33.3940 C   0  0  0  0  0  0  0  0  0  0  0  0
   37.5030   26.5160   33.5550 N   0  0  0  0  0  0  0  0  0  0  0  0
   37.0480   27.1370   34.6630 C   0  0  0  0  0  0  0  0  0  0  0  0
   37.8830   27.4500   35.6540 N   0  0  0  0  0  0  0  0  0  0  0  0
   39.2490   25.5400   32.2350 N   0  0  0  0  0  0  0  0  0  0  0  0
   40.5970   25.6500   31.6720 C   0  0  0  0  0  0  0  0  0  0  0  0
   40.5690   24.9780   30.3400 C   0  0  0  0  0  0  0  0  0  0  0  0
   39.1170   24.9440   30.0200 C   0  0  0  0  0  0  0  0  0  0  0  0
   38.5270   24.6510   31.3720 C   0  0  2  0  0  0  0  0  0  0  0  0
   39.8480   27.4050   36.3580 H   0  0  0  0  0  0  0  0  0  0  0  0
   40.7530   26.2560   34.3290 H   0  0  0  0  0  0  0  0  0  0  0  0
   35.9820   27.3410   34.6570 H   0  0  0  0  0  0  0  0  0  0  0  0
   40.7940   26.7340   31.6180 H   0  0  0  0  0  0  0  0  0  0  0  0
   41.3140   25.1240   32.3490 H   0  0  0  0  0  0  0  0  0  0  0  0
   41.0700   25.6640   29.5970 H   0  0  0  0  0  0  0  0  0  0  0  0
   41.1130   24.0370   30.2690 H   0  0  0  0  0  0  0  0  0  0  0  0
   38.8750   24.0520   29.3830 H   0  0  0  0  0  0  0  0  0  0  0  0
   38.8070   25.8830   29.5690 H   0  0  0  0  0  0  0  0  0  0  0  0
   37.0360   24.7220   31.3880 C   0  0  0  0  0  0  0  0  0  0  0  0
   36.6950   25.9870   30.9290 F   0  0  0  0  0  0  0  0  0  0  0  0
   36.4450   24.5540   32.6030 F   0  0  0  0  0  0  0  0  0  0  0  0
   36.5940   23.8330   30.4180 F   0  0  0  0  0  0  0  0  0  0  0  0
   38.9310   23.2760   31.7790 C   0  0  0  0  0  0  0  0  0  0  0  0
   39.9320   23.1180   31.3240 H   0  0  0  0  0  0  0  0  0  0  0  0
   38.2490   22.5760   31.2080 H   0  0  0  0  0  0  0  0  0  0  0  0
   38.6100   23.1550   32.9750 O   0  0  0  0  0  0  0  0  0  0  0  0
   39.2180   22.8190   34.1390 C   0  0  0  0  0  0  0  0  0  0  0  0
   39.8390   21.7430   33.9690 O   0  0  0  0  0  0  0  0  0  0  0  0
   39.5260   23.0640   35.4900 N   0  0  0  0  0  0  0  0  0  0  0  0
   38.2750   23.4540   36.1080 C   0  0  0  0  0  3  0  0  0  0  0  0
   37.4600   22.7140   35.9660 H   0  0  0  0  0  0  0  0  0  0  0  0
   38.5260   23.7560   37.5480 C   0  0  0  0  0  3  0  0  0  0  0  0
   37.5730   23.9070   38.0980 H   0  0  0  0  0  0  0  0  0  0  0  0
   39.1690   22.6100   38.1530 N   0  0  0  0  0  0  0  0  0  0  0  0
   38.5590   21.7910   38.1070 H   0  0  0  0  0  0  0  0  0  0  0  0
   40.4970   22.3890   37.6420 C   0  0  0  0  0  2  0  0  0  0  0  0
   40.7250   23.0030   36.2930 C   0  0  0  0  0  2  0  0  0  0  0  0
  1  6  1  0  0  0  0
  1 12  1  0  0  0  0
  2  1  2  0  0  0  0
  3  4  2  0  0  0  0
  3  2  1  0  0  0  0
  4  5  1  0  0  0  0
  5  6  2  0  0  0  0
  7  3  1  0  0  0  0
  8  7  1  0  0  0  0
  8 16  1  0  0  0  0
  9  8  1  0  0  0  0
 10  9  1  0  0  0  0
 10 11  1  0  0  0  0
 11 21  1  1  0  0  0
 11 25  1  0  0  0  0
 11  7  1  0  0  0  0
 13  2  1  0  0  0  0
 14  5  1  0  0  0  0
 15  8  1  0  0  0  0
 17  9  1  0  0  0  0
 18  9  1  0  0  0  0
 19 10  1  0  0  0  0
 20 10  1  0  0  0  0
 21 23  1  0  0  0  0
 22 21  1  0  0  0  0
 24 21  1  0  0  0  0
 25 28  1  0  0  0  0
 26 25  1  0  0  0  0
 27 25  1  0  0  0  0
 28 29  1  0  0  0  0
 29 31  1  0  0  0  0
 30 29  2  0  0  0  0
 31 32  1  0  0  0  0
 31 39  1  0  0  0  0
 32 34  1  0  0  0  0
 33 32  1  0  0  0  0
 34 35  1  0  0  0  0
 34 36  1  0  0  0  0
 37 36  1  0  0  0  0
 38 36  1  0  0  0  0
 39 38  1  0  0  0  0
M  END
>  <minimizedAffinity>
-5.26761961

$$$$
