
 OpenBabel03272508583D

 40 43  0  0  1  0  0  0  0  0999 V2000
   38.3760   31.8540   44.4720 C   0  0  0  0  0  0  0  0  0  0  0  0
   37.3100   32.4740   44.3850 O   0  0  0  0  0  0  0  0  0  0  0  0
   38.9340   31.5110   45.7720 N   0  0  0  0  0  0  0  0  0  0  0  0
   39.8990   31.1800   45.9200 H   0  0  0  0  0  0  0  0  0  0  0  0
   39.1450   31.4270   43.2840 C   0  0  0  0  0  0  0  0  0  0  0  0
   40.2510   30.6400   43.4420 C   0  0  0  0  0  0  0  0  0  0  0  0
   40.9460   30.2620   42.3120 C   0  0  0  0  0  0  0  0  0  0  0  0
   40.4790   30.7050   41.0870 C   0  0  0  0  0  0  0  0  0  0  0  0
   39.3560   31.5060   40.9140 C   0  0  0  0  0  0  0  0  0  0  0  0
   38.7290   31.8350   42.0540 N   0  0  0  0  0  0  0  0  0  0  0  0
   40.5990   30.3050   44.4040 H   0  0  0  0  0  0  0  0  0  0  0  0
   41.8220   29.6420   42.4030 H   0  0  0  0  0  0  0  0  0  0  0  0
   41.0690   30.3740   40.2450 H   0  0  0  0  0  0  0  0  0  0  0  0
   38.9220   31.9300   39.5970 C   0  0  0  0  0  0  0  0  0  0  0  0
   39.4300   32.9600   39.1000 O   0  0  0  0  0  0  0  0  0  0  0  0
   37.9540   31.2890   38.7840 N   0  0  0  0  0  0  0  0  0  0  0  0
   36.9570   32.1130   38.1320 C   0  0  0  0  0  3  0  0  0  0  0  0
   37.2120   33.1690   38.2060 H   0  0  0  0  0  0  0  0  0  0  0  0
   35.6410   31.8520   38.8330 C   0  0  0  0  0  3  0  0  0  0  0  0
   34.8060   32.0710   38.1240 H   0  0  0  0  0  0  0  0  0  0  0  0
   35.5580   30.4660   39.2440 N   0  0  0  0  0  0  0  0  0  0  0  0
   34.5760   30.1280   39.2260 H   0  0  0  0  0  0  0  0  0  0  0  0
   36.3190   29.6400   38.2970 C   0  0  0  0  0  2  0  0  0  0  0  0
   37.8210   29.8710   38.5080 C   0  0  0  0  0  2  0  0  0  0  0  0
   38.4400   31.0380   48.1630 C   0  0  2  0  0  0  0  0  0  0  0  0
   38.6940   32.4980   48.0560 C   0  0  0  0  0  0  0  0  0  0  0  0
   38.0780   31.6460   46.9260 C   0  0  1  0  0  0  0  0  0  0  0  0
   39.3510   30.4120   48.2570 H   0  0  0  0  0  0  0  0  0  0  0  0
   38.0440   33.1750   48.6250 H   0  0  0  0  0  0  0  0  0  0  0  0
   39.7260   32.8280   47.9350 H   0  0  0  0  0  0  0  0  0  0  0  0
   37.0150   31.9150   46.7430 H   0  0  0  0  0  0  0  0  0  0  0  0
   35.0640   30.2420   49.5110 C   0  0  0  0  0  0  0  0  0  0  0  0
   35.3980   29.5610   50.7290 C   0  0  0  0  0  0  0  0  0  0  0  0
   36.8010   29.3970   51.0680 C   0  0  0  0  0  0  0  0  0  0  0  0
   37.7540   29.8950   50.2170 N   0  0  0  0  0  0  0  0  0  0  0  0
   37.3510   30.5320   49.0780 C   0  0  0  0  0  0  0  0  0  0  0  0
   36.0270   30.7210   48.6970 N   0  0  0  0  0  0  0  0  0  0  0  0
   34.0190   30.3310   49.3150 H   0  0  0  0  0  0  0  0  0  0  0  0
   34.6490   29.1730   51.3880 H   0  0  0  0  0  0  0  0  0  0  0  0
   37.0350   28.8930   51.9710 H   0  0  0  0  0  0  0  0  0  0  0  0
  1  3  1  0  0  0  0
  2  1  2  0  0  0  0
  3  4  1  0  0  0  0
  3 27  1  0  0  0  0
  5  6  1  0  0  0  0
  5  1  1  0  0  0  0
  6 11  1  0  0  0  0
  7 12  1  0  0  0  0
  7  6  2  0  0  0  0
  8  7  1  0  0  0  0
  9  8  2  0  0  0  0
  9 10  1  0  0  0  0
 10  5  2  0  0  0  0
 13  8  1  0  0  0  0
 14  9  1  0  0  0  0
 15 14  2  0  0  0  0
 16 14  1  0  0  0  0
 17 18  1  0  0  0  0
 17 16  1  0  0  0  0
 17 19  1  0  0  0  0
 19 21  1  0  0  0  0
 20 19  1  0  0  0  0
 22 21  1  0  0  0  0
 23 24  1  0  0  0  0
 23 21  1  0  0  0  0
 24 16  1  0  0  0  0
 25 28  1  6  0  0  0
 25 36  1  0  0  0  0
 26 25  1  0  0  0  0
 26 29  1  0  0  0  0
 27 31  1  6  0  0  0
 27 26  1  0  0  0  0
 27 25  1  0  0  0  0
 30 26  1  0  0  0  0
 32 33  1  0  0  0  0
 33 34  2  0  0  0  0
 33 39  1  0  0  0  0
 34 40  1  0  0  0  0
 35 34  1  0  0  0  0
 36 35  2  0  0  0  0
 37 36  1  0  0  0  0
 37 32  2  0  0  0  0
 38 32  1  0  0  0  0
M  END
>  <minimizedAffinity>
-4.99992752

>  <minimizedRMSD>
1.31651187

$$$$
