REMARK  Name = 
REMARK  2 active torsions:
REMARK  status: ('A' for Active; 'I' for Inactive)
REMARK    1  A    between atoms: C_1  and  C_8
REMARK    2  A    between atoms: C_6  and  N_15
REMARK                            x       y       z     vdW  Elec       q    Type
REMARK                         _______ _______ _______ _____ _____    ______ ____
ROOT
ATOM      1  C   UNL     1      38.111  31.184  47.890  0.00  0.00    +0.000 A 
ATOM      2  C   UNL     1      38.401  30.376  46.792  0.00  0.00    +0.000 A 
ATOM      3  C   UNL     1      39.188  30.813  45.738  0.00  0.00    +0.000 A 
ATOM      4  C   UNL     1      39.717  32.134  45.779  0.00  0.00    +0.000 A 
ATOM      5  C   UNL     1      39.409  32.895  46.874  0.00  0.00    +0.000 A 
ATOM      6  C   UNL     1      38.642  32.469  47.910  0.00  0.00    +0.000 A 
ATOM      7  H   UNL     1      38.002  29.360  46.745  0.00  0.00    +0.000 HD
ATOM      8  H   UNL     1      39.356  30.092  44.920  0.00  0.00    +0.000 HD
ATOM      9  H   UNL     1      40.295  32.306  44.894  0.00  0.00    +0.000 HD
ATOM     10  H   UNL     1      39.869  33.835  46.653  0.00  0.00    +0.000 HD
ENDROOT
BRANCH   6  13
ATOM     11  C   UNL     1      39.357  34.275  49.230  0.00  0.00    +0.000 C 
ATOM     12  O   UNL     1      40.377  34.288  48.457  0.00  0.00    +0.000 OA
ATOM     13  N   UNL     1      38.361  33.254  49.030  0.00  0.00    +0.000 N 
ATOM     14  H   UNL     1      37.551  33.109  49.615  0.00  0.00    +0.000 HD
ATOM     15  N   UNL     1      39.146  35.232  50.298  0.00  0.00    +0.000 N 
ATOM     16  C   UNL     1      39.808  36.509  50.535  0.00  0.00    +0.000 C 
ATOM     17  H   UNL     1      40.636  36.679  49.786  0.00  0.00    +0.000 HD
ATOM     18  C   UNL     1      40.263  36.708  51.939  0.00  0.00    +0.000 C 
ATOM     19  H   UNL     1      41.385  36.682  51.916  0.00  0.00    +0.000 HD
ATOM     20  N   UNL     1      39.828  35.678  52.834  0.00  0.00    +0.000 NA
ATOM     21  H   UNL     1      40.444  34.849  52.879  0.00  0.00    +0.000 HD
ATOM     22  C   UNL     1      38.434  35.330  52.648  0.00  0.00    +0.000 C 
ATOM     23  C   UNL     1      38.130  34.857  51.263  0.00  0.00    +0.000 C 
ENDBRANCH   6  13
BRANCH   1  25
ATOM     24  C   UNL     1      37.851  29.975  49.971  0.00  0.00    +0.000 A 
ATOM     25  C   UNL     1      37.228  30.602  48.878  0.00  0.00    +0.000 A 
ATOM     26  C   UNL     1      35.825  30.599  48.865  0.00  0.00    +0.000 A 
ATOM     27  N   UNL     1      35.144  30.014  49.864  0.00  0.00    +0.000 NA
ATOM     28  C   UNL     1      35.756  29.421  50.896  0.00  0.00    +0.000 A 
ATOM     29  N   UNL     1      37.102  29.405  50.943  0.00  0.00    +0.000 NA
ATOM     30  H   UNL     1      38.918  29.884  50.142  0.00  0.00    +0.000 HD
ATOM     31  H   UNL     1      35.399  31.091  48.008  0.00  0.00    +0.000 HD
ATOM     32  H   UNL     1      35.125  28.977  51.654  0.00  0.00    +0.000 HD
ENDBRANCH   1  25
TORSDOF 2
