
 OpenBabel03272507433D

 41 44  0  0  0  0  0  0  0  0999 V2000
   40.0910   26.9940   32.3790 C   0  0  0  0  0  0  0  0  0  0  0  0
   40.6780   26.6270   33.5890 C   0  0  0  0  0  0  0  0  0  0  0  0
   42.0150   26.8640   33.8260 C   0  0  0  0  0  0  0  0  0  0  0  0
   42.7320   27.4670   32.8370 N   0  0  0  0  0  0  0  0  0  0  0  0
   42.1380   27.8200   31.6560 C   0  0  0  0  0  0  0  0  0  0  0  0
   40.8580   27.5850   31.4470 N   0  0  0  0  0  0  0  0  0  0  0  0
   42.5370   26.6140   34.7230 H   0  0  0  0  0  0  0  0  0  0  0  0
   42.7590   28.2990   30.9030 H   0  0  0  0  0  0  0  0  0  0  0  0
   40.0550   24.5800   34.7770 C   0  0  0  0  0  0  0  0  0  0  0  0
   40.4940   23.6390   34.0100 O   0  0  0  0  0  0  0  0  0  0  0  0
   40.0240   26.0050   34.6600 N   0  0  0  0  0  0  0  0  0  0  0  0
   39.5100   26.4890   35.3880 H   0  0  0  0  0  0  0  0  0  0  0  0
   39.5220   23.9320   35.9380 N   0  0  0  0  0  0  0  0  0  0  0  0
   40.1210   22.6730   36.3400 C   0  0  0  0  0  3  0  0  0  0  0  0
   41.1260   22.5410   35.8950 H   0  0  0  0  0  0  0  0  0  0  0  0
   40.1820   22.7230   37.8710 C   0  0  0  0  0  3  0  0  0  0  0  0
   40.5440   23.7300   38.1780 H   0  0  0  0  0  0  0  0  0  0  0  0
   38.8230   22.6030   38.3450 N   0  0  0  0  0  0  0  0  0  0  0  0
   38.7040   22.5630   39.3590 H   0  0  0  0  0  0  0  0  0  0  0  0
   37.8800   23.3600   37.5970 C   0  0  0  0  0  2  0  0  0  0  0  0
   38.4430   24.4400   36.7260 C   0  0  0  0  0  2  0  0  0  0  0  0
   38.7720   26.6810   32.3310 O   0  0  0  0  0  0  0  0  0  0  0  0
   36.9710   28.2030   33.0830 C   0  0  0  0  0  0  0  0  0  0  0  0
   37.7500   27.5920   32.1020 C   0  0  0  0  0  0  0  0  0  0  0  0
   37.5410   27.8700   30.7650 C   0  0  0  0  0  0  0  0  0  0  0  0
   36.5410   28.7720   30.3980 C   0  0  0  0  0  0  0  0  0  0  0  0
   35.7720   29.3720   31.3840 C   0  0  0  0  0  0  0  0  0  0  0  0
   36.0110   29.0700   32.7000 C   0  0  0  0  0  0  0  0  0  0  0  0
   38.0910   27.4460   29.9640 H   0  0  0  0  0  0  0  0  0  0  0  0
   36.3610   29.0030   29.3590 H   0  0  0  0  0  0  0  0  0  0  0  0
   34.9910   30.0760   31.1090 H   0  0  0  0  0  0  0  0  0  0  0  0
   35.1760   29.7250   33.7280 C   0  0  0  0  0  0  0  0  0  0  0  0
   35.4150   30.8430   34.4840 C   0  0  0  0  0  0  0  0  0  0  0  0
   34.3120   31.0400   35.3040 C   0  0  0  0  0  0  0  0  0  0  0  0
   33.4430   30.0040   34.9930 C   0  0  0  0  0  0  0  0  0  0  0  0
   33.9810   29.2450   34.0590 O   0  0  0  0  0  0  0  0  0  0  0  0
   36.3220   31.4260   34.4090 H   0  0  0  0  0  0  0  0  0  0  0  0
   34.2820   31.8640   35.9860 H   0  0  0  0  0  0  0  0  0  0  0  0
   32.4870   29.9080   35.4900 H   0  0  0  0  0  0  0  0  0  0  0  0
   37.4910   27.5800   35.5190 N   0  0  0  0  0  0  0  0  0  0  0  0
   37.2520   27.8600   34.4380 C   0  0  0  0  0  0  0  0  0  0  0  0
  1  2  1  0  0  0  0
  2  3  2  0  0  0  0
  2 11  1  0  0  0  0
  3  7  1  0  0  0  0
  4  3  1  0  0  0  0
  5  4  2  0  0  0  0
  6  5  1  0  0  0  0
  6  1  2  0  0  0  0
  8  5  1  0  0  0  0
  9 13  1  0  0  0  0
 10  9  2  0  0  0  0
 11  9  1  0  0  0  0
 11 12  1  0  0  0  0
 13 14  1  0  0  0  0
 13 21  1  0  0  0  0
 14 16  1  0  0  0  0
 15 14  1  0  0  0  0
 16 17  1  0  0  0  0
 16 18  1  0  0  0  0
 18 19  1  0  0  0  0
 20 18  1  0  0  0  0
 21 20  1  0  0  0  0
 22  1  1  0  0  0  0
 23 41  1  0  0  0  0
 24 22  1  0  0  0  0
 24 23  2  0  0  0  0
 25 24  1  0  0  0  0
 26 25  2  0  0  0  0
 26 27  1  0  0  0  0
 27 28  2  0  0  0  0
 28 23  1  0  0  0  0
 28 32  1  0  0  0  0
 29 25  1  0  0  0  0
 30 26  1  0  0  0  0
 31 27  1  0  0  0  0
 32 36  1  0  0  0  0
 32 33  2  0  0  0  0
 33 34  1  0  0  0  0
 34 38  1  0  0  0  0
 35 34  2  0  0  0  0
 35 39  1  0  0  0  0
 36 35  1  0  0  0  0
 37 33  1  0  0  0  0
 41 40  3  0  0  0  0
M  END
>  <minimizedAffinity>
-6.01427889

$$$$

 OpenBabel03272507433D

 41 44  0  0  0  0  0  0  0  0999 V2000
   37.2450   26.3560   33.2340 C   0  0  0  0  0  0  0  0  0  0  0  0
   36.4570   27.4930   33.0600 C   0  0  0  0  0  0  0  0  0  0  0  0
   35.7130   27.6680   31.9120 C   0  0  0  0  0  0  0  0  0  0  0  0
   35.7800   26.6910   30.9650 N   0  0  0  0  0  0  0  0  0  0  0  0
   36.5600   25.5830   31.1540 C   0  0  0  0  0  0  0  0  0  0  0  0
   37.2650   25.4330   32.2580 N   0  0  0  0  0  0  0  0  0  0  0  0
   35.0860   28.5060   31.7040 H   0  0  0  0  0  0  0  0  0  0  0  0
   36.5750   24.8360   30.3650 H   0  0  0  0  0  0  0  0  0  0  0  0
   35.2490   29.4780   33.8300 C   0  0  0  0  0  0  0  0  0  0  0  0
   34.3520   29.6580   32.9200 O   0  0  0  0  0  0  0  0  0  0  0  0
   36.3250   28.5460   33.9750 N   0  0  0  0  0  0  0  0  0  0  0  0
   36.9430   28.7160   34.7600 H   0  0  0  0  0  0  0  0  0  0  0  0
   35.0060   30.4710   34.8330 N   0  0  0  0  0  0  0  0  0  0  0  0
   33.6380   30.9180   35.0190 C   0  0  0  0  0  3  0  0  0  0  0  0
   32.9140   30.1970   34.5940 H   0  0  0  0  0  0  0  0  0  0  0  0
   33.4630   31.0680   36.5340 C   0  0  0  0  0  3  0  0  0  0  0  0
   33.9200   30.1860   37.0330 H   0  0  0  0  0  0  0  0  0  0  0  0
   34.2380   32.2220   36.9280 N   0  0  0  0  0  0  0  0  0  0  0  0
   34.1760   32.4880   37.9130 H   0  0  0  0  0  0  0  0  0  0  0  0
   35.5100   32.3080   36.2980 C   0  0  0  0  0  2  0  0  0  0  0  0
   36.0160   31.0520   35.6610 C   0  0  0  0  0  2  0  0  0  0  0  0
   37.9020   26.3630   34.4220 O   0  0  0  0  0  0  0  0  0  0  0  0
   39.6740   24.7560   35.0560 C   0  0  0  0  0  0  0  0  0  0  0  0
   39.2280   25.9930   34.5950 C   0  0  0  0  0  0  0  0  0  0  0  0
   40.1300   26.9850   34.2630 C   0  0  0  0  0  0  0  0  0  0  0  0
   41.4990   26.7420   34.3920 C   0  0  0  0  0  0  0  0  0  0  0  0
   41.9290   25.5070   34.8520 C   0  0  0  0  0  0  0  0  0  0  0  0
   41.0020   24.5480   35.1710 C   0  0  0  0  0  0  0  0  0  0  0  0
   39.8690   27.9490   33.9070 H   0  0  0  0  0  0  0  0  0  0  0  0
   42.2210   27.5040   34.1380 H   0  0  0  0  0  0  0  0  0  0  0  0
   42.9920   25.3070   34.9560 H   0  0  0  0  0  0  0  0  0  0  0  0
   41.4890   23.2410   35.6590 C   0  0  0  0  0  0  0  0  0  0  0  0
   41.6120   22.7620   36.9360 C   0  0  0  0  0  0  0  0  0  0  0  0
   42.1210   21.4720   36.8550 C   0  0  0  0  0  0  0  0  0  0  0  0
   42.2830   21.2340   35.4980 C   0  0  0  0  0  0  0  0  0  0  0  0
   41.9000   22.2980   34.8170 O   0  0  0  0  0  0  0  0  0  0  0  0
   41.3440   23.3350   37.8130 H   0  0  0  0  0  0  0  0  0  0  0  0
   42.3000   20.9020   37.7420 H   0  0  0  0  0  0  0  0  0  0  0  0
   42.6700   20.2910   35.1370 H   0  0  0  0  0  0  0  0  0  0  0  0
   37.8810   23.0060   35.6180 N   0  0  0  0  0  0  0  0  0  0  0  0
   38.6770   23.7880   35.3760 C   0  0  0  0  0  0  0  0  0  0  0  0
  1 22  1  0  0  0  0
  2  1  1  0  0  0  0
  2 11  1  0  0  0  0
  3  2  2  0  0  0  0
  4  5  2  0  0  0  0
  4  3  1  0  0  0  0
  5  6  1  0  0  0  0
  6  1  2  0  0  0  0
  7  3  1  0  0  0  0
  8  5  1  0  0  0  0
  9 11  1  0  0  0  0
  9 13  1  0  0  0  0
 10  9  2  0  0  0  0
 11 12  1  0  0  0  0
 13 14  1  0  0  0  0
 13 21  1  0  0  0  0
 14 16  1  0  0  0  0
 15 14  1  0  0  0  0
 16 18  1  0  0  0  0
 16 17  1  0  0  0  0
 18 19  1  0  0  0  0
 20 18  1  0  0  0  0
 21 20  1  0  0  0  0
 22 24  1  0  0  0  0
 23 28  1  0  0  0  0
 23 41  1  0  0  0  0
 24 23  2  0  0  0  0
 25 26  2  0  0  0  0
 25 24  1  0  0  0  0
 26 27  1  0  0  0  0
 27 31  1  0  0  0  0
 27 28  2  0  0  0  0
 28 32  1  0  0  0  0
 29 25  1  0  0  0  0
 30 26  1  0  0  0  0
 32 33  2  0  0  0  0
 33 37  1  0  0  0  0
 34 33  1  0  0  0  0
 34 38  1  0  0  0  0
 35 34  2  0  0  0  0
 36 35  1  0  0  0  0
 36 32  1  0  0  0  0
 39 35  1  0  0  0  0
 41 40  3  0  0  0  0
M  END
>  <minimizedAffinity>
-5.90569878

$$$$

 OpenBabel03272507433D

 41 44  0  0  0  0  0  0  0  0999 V2000
   36.6430   28.2390   32.2690 C   0  0  0  0  0  0  0  0  0  0  0  0
   35.5750   29.1360   32.2350 C   0  0  0  0  0  0  0  0  0  0  0  0
   35.4730   30.0760   31.2310 C   0  0  0  0  0  0  0  0  0  0  0  0
   36.4520   30.0910   30.2830 N   0  0  0  0  0  0  0  0  0  0  0  0
   37.4920   29.2040   30.3350 C   0  0  0  0  0  0  0  0  0  0  0  0
   37.5730   28.3120   31.3020 N   0  0  0  0  0  0  0  0  0  0  0  0
   34.6900   30.7930   31.1340 H   0  0  0  0  0  0  0  0  0  0  0  0
   38.2440   29.2620   29.5510 H   0  0  0  0  0  0  0  0  0  0  0  0
   34.7080   29.9010   34.3910 C   0  0  0  0  0  0  0  0  0  0  0  0
   35.7290   30.4610   34.9470 O   0  0  0  0  0  0  0  0  0  0  0  0
   34.5260   29.1940   33.1610 N   0  0  0  0  0  0  0  0  0  0  0  0
   33.6160   28.7660   33.0370 H   0  0  0  0  0  0  0  0  0  0  0  0
   33.6080   30.1000   35.2860 N   0  0  0  0  0  0  0  0  0  0  0  0
   33.6190   31.2940   36.1110 C   0  0  0  0  0  3  0  0  0  0  0  0
   34.3060   32.0610   35.7050 H   0  0  0  0  0  0  0  0  0  0  0  0
   32.1680   31.7890   36.1300 C   0  0  0  0  0  3  0  0  0  0  0  0
   31.7600   31.7300   35.0970 H   0  0  0  0  0  0  0  0  0  0  0  0
   31.4200   30.8480   36.9310 N   0  0  0  0  0  0  0  0  0  0  0  0
   30.4360   31.0750   37.0860 H   0  0  0  0  0  0  0  0  0  0  0  0
   31.7560   29.4880   36.6910 C   0  0  0  0  0  2  0  0  0  0  0  0
   32.5010   29.2060   35.4230 C   0  0  0  0  0  2  0  0  0  0  0  0
   36.5710   27.3940   33.3280 O   0  0  0  0  0  0  0  0  0  0  0  0
   37.9480   25.5860   34.3080 C   0  0  0  0  0  0  0  0  0  0  0  0
   37.0820   26.1040   33.3460 C   0  0  0  0  0  0  0  0  0  0  0  0
   36.6570   25.3210   32.2910 C   0  0  0  0  0  0  0  0  0  0  0  0
   37.0980   24.0000   32.1920 C   0  0  0  0  0  0  0  0  0  0  0  0
   37.9600   23.4980   33.1550 C   0  0  0  0  0  0  0  0  0  0  0  0
   38.3590   24.3070   34.1880 C   0  0  0  0  0  0  0  0  0  0  0  0
   36.0010   25.6420   31.5220 H   0  0  0  0  0  0  0  0  0  0  0  0
   36.7780   23.3710   31.3750 H   0  0  0  0  0  0  0  0  0  0  0  0
   38.3090   22.4710   33.0880 H   0  0  0  0  0  0  0  0  0  0  0  0
   39.2770   23.7450   35.2000 C   0  0  0  0  0  0  0  0  0  0  0  0
   40.6440   23.6560   35.2060 C   0  0  0  0  0  0  0  0  0  0  0  0
   41.0210   23.0420   36.3930 C   0  0  0  0  0  0  0  0  0  0  0  0
   39.8320   22.7850   37.0590 C   0  0  0  0  0  0  0  0  0  0  0  0
   38.8190   23.2120   36.3290 O   0  0  0  0  0  0  0  0  0  0  0  0
   41.2650   24.0190   34.3980 H   0  0  0  0  0  0  0  0  0  0  0  0
   42.0540   22.8680   36.6100 H   0  0  0  0  0  0  0  0  0  0  0  0
   39.8260   22.3030   38.0270 H   0  0  0  0  0  0  0  0  0  0  0  0
   38.6520   27.1490   36.2200 N   0  0  0  0  0  0  0  0  0  0  0  0
   38.3380   26.4610   35.3640 C   0  0  0  0  0  0  0  0  0  0  0  0
  1 22  1  0  0  0  0
  2  1  1  0  0  0  0
  2 11  1  0  0  0  0
  3  2  2  0  0  0  0
  4  5  2  0  0  0  0
  4  3  1  0  0  0  0
  5  6  1  0  0  0  0
  6  1  2  0  0  0  0
  7  3  1  0  0  0  0
  8  5  1  0  0  0  0
  9 10  2  0  0  0  0
  9 13  1  0  0  0  0
 11  9  1  0  0  0  0
 12 11  1  0  0  0  0
 13 21  1  0  0  0  0
 13 14  1  0  0  0  0
 14 16  1  0  0  0  0
 15 14  1  0  0  0  0
 16 18  1  0  0  0  0
 17 16  1  0  0  0  0
 18 19  1  0  0  0  0
 20 18  1  0  0  0  0
 21 20  1  0  0  0  0
 22 24  1  0  0  0  0
 23 41  1  0  0  0  0
 24 23  2  0  0  0  0
 25 24  1  0  0  0  0
 26 25  2  0  0  0  0
 26 27  1  0  0  0  0
 27 28  2  0  0  0  0
 28 23  1  0  0  0  0
 28 32  1  0  0  0  0
 29 25  1  0  0  0  0
 30 26  1  0  0  0  0
 31 27  1  0  0  0  0
 32 33  2  0  0  0  0
 32 36  1  0  0  0  0
 33 34  1  0  0  0  0
 34 38  1  0  0  0  0
 34 35  2  0  0  0  0
 35 39  1  0  0  0  0
 36 35  1  0  0  0  0
 37 33  1  0  0  0  0
 41 40  3  0  0  0  0
M  END
>  <minimizedAffinity>
-5.83456135

$$$$

 OpenBabel03272507433D

 41 44  0  0  0  0  0  0  0  0999 V2000
   37.0550   26.9970   33.5290 C   0  0  0  0  0  0  0  0  0  0  0  0
   36.2530   28.1280   33.3810 C   0  0  0  0  0  0  0  0  0  0  0  0
   35.5430   28.3450   32.2190 C   0  0  0  0  0  0  0  0  0  0  0  0
   35.6580   27.4150   31.2300 N   0  0  0  0  0  0  0  0  0  0  0  0
   36.4510   26.3120   31.3930 C   0  0  0  0  0  0  0  0  0  0  0  0
   37.1220   26.1220   32.5120 N   0  0  0  0  0  0  0  0  0  0  0  0
   34.9090   29.1820   32.0300 H   0  0  0  0  0  0  0  0  0  0  0  0
   36.5040   25.6040   30.5700 H   0  0  0  0  0  0  0  0  0  0  0  0
   34.8910   29.9390   34.3060 C   0  0  0  0  0  0  0  0  0  0  0  0
   33.9130   30.0390   33.4710 O   0  0  0  0  0  0  0  0  0  0  0  0
   36.0730   29.1340   34.3400 N   0  0  0  0  0  0  0  0  0  0  0  0
   36.7260   29.3540   35.0830 H   0  0  0  0  0  0  0  0  0  0  0  0
   34.6150   30.8720   35.3580 N   0  0  0  0  0  0  0  0  0  0  0  0
   33.2230   31.1530   35.6590 C   0  0  0  0  0  3  0  0  0  0  0  0
   32.5550   30.3640   35.2630 H   0  0  0  0  0  0  0  0  0  0  0  0
   33.1490   31.2420   37.1870 C   0  0  0  0  0  3  0  0  0  0  0  0
   33.7400   30.4060   37.6210 H   0  0  0  0  0  0  0  0  0  0  0  0
   33.8170   32.4670   37.5640 N   0  0  0  0  0  0  0  0  0  0  0  0
   33.8000   32.6980   38.5590 H   0  0  0  0  0  0  0  0  0  0  0  0
   35.0180   32.7150   36.8460 C   0  0  0  0  0  2  0  0  0  0  0  0
   35.6130   31.5430   36.1290 C   0  0  0  0  0  2  0  0  0  0  0  0
   37.6720   26.9580   34.7360 O   0  0  0  0  0  0  0  0  0  0  0  0
   39.8090   25.7140   34.8540 C   0  0  0  0  0  0  0  0  0  0  0  0
   38.4690   25.9140   35.1830 C   0  0  0  0  0  0  0  0  0  0  0  0
   37.8140   25.0340   36.0230 C   0  0  0  0  0  0  0  0  0  0  0  0
   38.5050   23.9380   36.5450 C   0  0  0  0  0  0  0  0  0  0  0  0
   39.8360   23.7510   36.2090 C   0  0  0  0  0  0  0  0  0  0  0  0
   40.4510   24.6470   35.3720 C   0  0  0  0  0  0  0  0  0  0  0  0
   36.8000   25.1180   36.3190 H   0  0  0  0  0  0  0  0  0  0  0  0
   38.0120   23.2380   37.2030 H   0  0  0  0  0  0  0  0  0  0  0  0
   40.3830   22.9010   36.6090 H   0  0  0  0  0  0  0  0  0  0  0  0
   41.8710   24.4230   35.0310 C   0  0  0  0  0  0  0  0  0  0  0  0
   43.0120   24.8540   35.6550 C   0  0  0  0  0  0  0  0  0  0  0  0
   44.0960   24.3680   34.9360 C   0  0  0  0  0  0  0  0  0  0  0  0
   43.5380   23.6510   33.8870 C   0  0  0  0  0  0  0  0  0  0  0  0
   42.2230   23.7010   33.9710 O   0  0  0  0  0  0  0  0  0  0  0  0
   43.0040   25.4630   36.5490 H   0  0  0  0  0  0  0  0  0  0  0  0
   45.0950   24.5860   35.2470 H   0  0  0  0  0  0  0  0  0  0  0  0
   44.1610   23.1540   33.1550 H   0  0  0  0  0  0  0  0  0  0  0  0
   40.8980   27.4220   33.2760 N   0  0  0  0  0  0  0  0  0  0  0  0
   40.4090   26.6690   33.9810 C   0  0  0  0  0  0  0  0  0  0  0  0
  1 22  1  0  0  0  0
  2  1  1  0  0  0  0
  2 11  1  0  0  0  0
  3  2  2  0  0  0  0
  4  5  2  0  0  0  0
  4  3  1  0  0  0  0
  5  6  1  0  0  0  0
  6  1  2  0  0  0  0
  7  3  1  0  0  0  0
  8  5  1  0  0  0  0
  9 11  1  0  0  0  0
  9 13  1  0  0  0  0
 10  9  2  0  0  0  0
 11 12  1  0  0  0  0
 13 14  1  0  0  0  0
 13 21  1  0  0  0  0
 14 16  1  0  0  0  0
 15 14  1  0  0  0  0
 16 18  1  0  0  0  0
 16 17  1  0  0  0  0
 18 19  1  0  0  0  0
 20 18  1  0  0  0  0
 21 20  1  0  0  0  0
 22 24  1  0  0  0  0
 23 24  2  0  0  0  0
 23 28  1  0  0  0  0
 24 25  1  0  0  0  0
 25 29  1  0  0  0  0
 25 26  2  0  0  0  0
 26 30  1  0  0  0  0
 27 26  1  0  0  0  0
 27 31  1  0  0  0  0
 28 27  2  0  0  0  0
 32 28  1  0  0  0  0
 32 33  2  0  0  0  0
 33 37  1  0  0  0  0
 34 38  1  0  0  0  0
 34 33  1  0  0  0  0
 35 36  1  0  0  0  0
 35 34  2  0  0  0  0
 36 32  1  0  0  0  0
 39 35  1  0  0  0  0
 40 41  3  0  0  0  0
 41 23  1  0  0  0  0
M  END
>  <minimizedAffinity>
-5.78171873

$$$$

 OpenBabel03272507433D

 41 44  0  0  0  0  0  0  0  0999 V2000
   36.6470   26.1230   31.4520 C   0  0  0  0  0  0  0  0  0  0  0  0
   37.3940   25.0390   31.9120 C   0  0  0  0  0  0  0  0  0  0  0  0
   36.8930   23.7560   31.8460 C   0  0  0  0  0  0  0  0  0  0  0  0
   35.6480   23.5950   31.3160 N   0  0  0  0  0  0  0  0  0  0  0  0
   34.9300   24.6710   30.8710 C   0  0  0  0  0  0  0  0  0  0  0  0
   35.4250   25.8910   30.9430 N   0  0  0  0  0  0  0  0  0  0  0  0
   37.4000   22.8780   32.1750 H   0  0  0  0  0  0  0  0  0  0  0  0
   33.9420   24.4820   30.4580 H   0  0  0  0  0  0  0  0  0  0  0  0
   38.8650   24.8030   33.8530 C   0  0  0  0  0  0  0  0  0  0  0  0
   38.0490   24.5560   34.8230 O   0  0  0  0  0  0  0  0  0  0  0  0
   38.6770   25.1080   32.4690 N   0  0  0  0  0  0  0  0  0  0  0  0
   39.5180   25.3640   31.9630 H   0  0  0  0  0  0  0  0  0  0  0  0
   40.1820   24.7220   34.4100 N   0  0  0  0  0  0  0  0  0  0  0  0
   40.3860   23.8180   35.5260 C   0  0  0  0  0  3  0  0  0  0  0  0
   39.5800   23.0630   35.5900 H   0  0  0  0  0  0  0  0  0  0  0  0
   41.7520   23.1670   35.2770 C   0  0  0  0  0  3  0  0  0  0  0  0
   41.8170   22.8820   34.2030 H   0  0  0  0  0  0  0  0  0  0  0  0
   42.7460   24.1900   35.5010 N   0  0  0  0  0  0  0  0  0  0  0  0
   43.7210   23.8910   35.4270 H   0  0  0  0  0  0  0  0  0  0  0  0
   42.4010   25.4600   34.9640 C   0  0  0  0  0  2  0  0  0  0  0  0
   41.3070   25.4700   33.9420 C   0  0  0  0  0  2  0  0  0  0  0  0
   37.3040   27.3010   31.5990 O   0  0  0  0  0  0  0  0  0  0  0  0
   36.2940   29.0110   33.0760 C   0  0  0  0  0  0  0  0  0  0  0  0
   36.6930   28.5240   31.8320 C   0  0  0  0  0  0  0  0  0  0  0  0
   36.4920   29.2730   30.6890 C   0  0  0  0  0  0  0  0  0  0  0  0
   35.8850   30.5270   30.7850 C   0  0  0  0  0  0  0  0  0  0  0  0
   35.4920   30.9980   32.0280 C   0  0  0  0  0  0  0  0  0  0  0  0
   35.7100   30.2250   33.1390 C   0  0  0  0  0  0  0  0  0  0  0  0
   36.7660   28.9720   29.7100 H   0  0  0  0  0  0  0  0  0  0  0  0
   35.7180   31.1280   29.9030 H   0  0  0  0  0  0  0  0  0  0  0  0
   35.0190   31.9730   32.1140 H   0  0  0  0  0  0  0  0  0  0  0  0
   35.2810   30.7530   34.4510 C   0  0  0  0  0  0  0  0  0  0  0  0
   35.9900   31.4280   35.4100 C   0  0  0  0  0  0  0  0  0  0  0  0
   35.1230   31.7040   36.4590 C   0  0  0  0  0  0  0  0  0  0  0  0
   33.9050   31.1670   36.0700 C   0  0  0  0  0  0  0  0  0  0  0  0
   34.0300   30.6130   34.8790 O   0  0  0  0  0  0  0  0  0  0  0  0
   37.0390   31.6740   35.3090 H   0  0  0  0  0  0  0  0  0  0  0  0
   35.4680   32.2290   37.3250 H   0  0  0  0  0  0  0  0  0  0  0  0
   33.0330   31.2360   36.7060 H   0  0  0  0  0  0  0  0  0  0  0  0
   36.7250   27.5150   35.1180 N   0  0  0  0  0  0  0  0  0  0  0  0
   36.5380   28.1750   34.2050 C   0  0  0  0  0  0  0  0  0  0  0  0
  1 22  1  0  0  0  0
  1  2  1  0  0  0  0
  2 11  1  0  0  0  0
  3  2  2  0  0  0  0
  3  7  1  0  0  0  0
  4  3  1  0  0  0  0
  5  6  1  0  0  0  0
  5  4  2  0  0  0  0
  6  1  2  0  0  0  0
  8  5  1  0  0  0  0
  9 13  1  0  0  0  0
  9 10  2  0  0  0  0
 11  9  1  0  0  0  0
 12 11  1  0  0  0  0
 13 14  1  0  0  0  0
 14 15  1  0  0  0  0
 16 18  1  0  0  0  0
 16 14  1  0  0  0  0
 17 16  1  0  0  0  0
 19 18  1  0  0  0  0
 20 18  1  0  0  0  0
 21 13  1  0  0  0  0
 21 20  1  0  0  0  0
 22 24  1  0  0  0  0
 23 28  1  0  0  0  0
 23 41  1  0  0  0  0
 24 23  2  0  0  0  0
 25 26  2  0  0  0  0
 25 24  1  0  0  0  0
 26 27  1  0  0  0  0
 27 31  1  0  0  0  0
 27 28  2  0  0  0  0
 28 32  1  0  0  0  0
 29 25  1  0  0  0  0
 30 26  1  0  0  0  0
 32 36  1  0  0  0  0
 32 33  2  0  0  0  0
 33 34  1  0  0  0  0
 34 38  1  0  0  0  0
 35 34  2  0  0  0  0
 35 39  1  0  0  0  0
 36 35  1  0  0  0  0
 37 33  1  0  0  0  0
 41 40  3  0  0  0  0
M  END
>  <minimizedAffinity>
-5.711555

$$$$

 OpenBabel03272507433D

 41 44  0  0  0  0  0  0  0  0999 V2000
   36.0160   28.7500   32.3570 C   0  0  0  0  0  0  0  0  0  0  0  0
   37.1870   27.9940   32.3950 C   0  0  0  0  0  0  0  0  0  0  0  0
   38.0590   27.9880   31.3270 C   0  0  0  0  0  0  0  0  0  0  0  0
   37.7300   28.7450   30.2430 N   0  0  0  0  0  0  0  0  0  0  0  0
   36.5760   29.4780   30.2240 C   0  0  0  0  0  0  0  0  0  0  0  0
   35.7540   29.4720   31.2540 N   0  0  0  0  0  0  0  0  0  0  0  0
   38.9730   27.4390   31.2790 H   0  0  0  0  0  0  0  0  0  0  0  0
   36.3660   30.0640   29.3320 H   0  0  0  0  0  0  0  0  0  0  0  0
   37.3870   25.7780   33.4120 C   0  0  0  0  0  0  0  0  0  0  0  0
   36.7470   25.0100   32.5950 O   0  0  0  0  0  0  0  0  0  0  0  0
   37.6070   27.1900   33.4620 N   0  0  0  0  0  0  0  0  0  0  0  0
   38.0700   27.5270   34.2980 H   0  0  0  0  0  0  0  0  0  0  0  0
   37.9360   24.9190   34.4180 N   0  0  0  0  0  0  0  0  0  0  0  0
   38.2770   23.5620   34.0320 C   0  0  0  0  0  3  0  0  0  0  0  0
   38.3790   23.4660   32.9340 H   0  0  0  0  0  0  0  0  0  0  0  0
   39.5960   23.2540   34.7500 C   0  0  0  0  0  3  0  0  0  0  0  0
   40.2680   24.1350   34.6510 H   0  0  0  0  0  0  0  0  0  0  0  0
   39.2810   23.1230   36.1550 N   0  0  0  0  0  0  0  0  0  0  0  0
   40.0580   22.8590   36.7640 H   0  0  0  0  0  0  0  0  0  0  0  0
   38.3630   24.0960   36.6360 C   0  0  0  0  0  2  0  0  0  0  0  0
   38.1710   25.3050   35.7740 C   0  0  0  0  0  2  0  0  0  0  0  0
   35.2880   28.6300   33.4950 O   0  0  0  0  0  0  0  0  0  0  0  0
   33.6660   30.1670   34.5560 C   0  0  0  0  0  0  0  0  0  0  0  0
   34.9530   29.6820   34.3350 C   0  0  0  0  0  0  0  0  0  0  0  0
   36.0370   30.2510   34.9740 C   0  0  0  0  0  0  0  0  0  0  0  0
   35.8370   31.3210   35.8490 C   0  0  0  0  0  0  0  0  0  0  0  0
   34.5510   31.7940   36.0600 C   0  0  0  0  0  0  0  0  0  0  0  0
   33.5010   31.2020   35.4060 C   0  0  0  0  0  0  0  0  0  0  0  0
   37.0440   29.9390   34.8570 H   0  0  0  0  0  0  0  0  0  0  0  0
   36.6710   31.7800   36.3580 H   0  0  0  0  0  0  0  0  0  0  0  0
   34.3840   32.6270   36.7390 H   0  0  0  0  0  0  0  0  0  0  0  0
   32.1420   31.7280   35.6500 C   0  0  0  0  0  0  0  0  0  0  0  0
   31.2390   31.4290   36.6370 C   0  0  0  0  0  0  0  0  0  0  0  0
   30.1050   32.2000   36.4190 C   0  0  0  0  0  0  0  0  0  0  0  0
   30.3900   32.9440   35.2820 C   0  0  0  0  0  0  0  0  0  0  0  0
   31.6000   32.6430   34.8520 O   0  0  0  0  0  0  0  0  0  0  0  0
   31.4340   30.7090   37.4210 H   0  0  0  0  0  0  0  0  0  0  0  0
   29.2640   32.1280   37.0760 H   0  0  0  0  0  0  0  0  0  0  0  0
   29.6710   33.6430   34.8760 H   0  0  0  0  0  0  0  0  0  0  0  0
   31.7520   28.9960   33.3090 N   0  0  0  0  0  0  0  0  0  0  0  0
   32.6030   29.5230   33.8570 C   0  0  0  0  0  0  0  0  0  0  0  0
  1  2  1  0  0  0  0
  1 22  1  0  0  0  0
  2 11  1  0  0  0  0
  3  2  2  0  0  0  0
  4  3  1  0  0  0  0
  5  4  2  0  0  0  0
  5  6  1  0  0  0  0
  6  1  2  0  0  0  0
  7  3  1  0  0  0  0
  8  5  1  0  0  0  0
  9 11  1  0  0  0  0
  9 13  1  0  0  0  0
 10  9  2  0  0  0  0
 11 12  1  0  0  0  0
 13 21  1  0  0  0  0
 14 13  1  0  0  0  0
 14 16  1  0  0  0  0
 15 14  1  0  0  0  0
 16 18  1  0  0  0  0
 17 16  1  0  0  0  0
 18 20  1  0  0  0  0
 18 19  1  0  0  0  0
 21 20  1  0  0  0  0
 22 24  1  0  0  0  0
 23 28  1  0  0  0  0
 24 23  2  0  0  0  0
 24 25  1  0  0  0  0
 25 26  2  0  0  0  0
 26 27  1  0  0  0  0
 26 30  1  0  0  0  0
 27 31  1  0  0  0  0
 28 32  1  0  0  0  0
 28 27  2  0  0  0  0
 29 25  1  0  0  0  0
 32 33  2  0  0  0  0
 33 37  1  0  0  0  0
 34 33  1  0  0  0  0
 34 38  1  0  0  0  0
 35 34  2  0  0  0  0
 36 35  1  0  0  0  0
 36 32  1  0  0  0  0
 39 35  1  0  0  0  0
 40 41  3  0  0  0  0
 41 23  1  0  0  0  0
M  END
>  <minimizedAffinity>
-5.68613482

$$$$

 OpenBabel03272507433D

 41 44  0  0  0  0  0  0  0  0999 V2000
   38.0450   27.4650   31.4530 C   0  0  0  0  0  0  0  0  0  0  0  0
   37.0290   28.1570   30.7960 C   0  0  0  0  0  0  0  0  0  0  0  0
   37.2110   28.6340   29.5150 C   0  0  0  0  0  0  0  0  0  0  0  0
   38.4180   28.4030   28.9250 N   0  0  0  0  0  0  0  0  0  0  0  0
   39.4030   27.7230   29.5860 C   0  0  0  0  0  0  0  0  0  0  0  0
   39.2100   27.2740   30.8110 N   0  0  0  0  0  0  0  0  0  0  0  0
   36.4850   29.1700   28.9460 H   0  0  0  0  0  0  0  0  0  0  0  0
   40.3450   27.5670   29.0650 H   0  0  0  0  0  0  0  0  0  0  0  0
   35.4530   29.7710   31.7430 C   0  0  0  0  0  0  0  0  0  0  0  0
   36.1560   30.8470   31.8630 O   0  0  0  0  0  0  0  0  0  0  0  0
   35.7610   28.4400   31.3200 N   0  0  0  0  0  0  0  0  0  0  0  0
   35.0130   27.7650   31.4330 H   0  0  0  0  0  0  0  0  0  0  0  0
   34.1210   30.1190   32.1430 N   0  0  0  0  0  0  0  0  0  0  0  0
   33.6880   31.4860   31.9230 C   0  0  0  0  0  3  0  0  0  0  0  0
   34.3220   31.9970   31.1730 H   0  0  0  0  0  0  0  0  0  0  0  0
   32.2320   31.3790   31.4530 C   0  0  0  0  0  3  0  0  0  0  0  0
   32.1600   30.5580   30.7060 H   0  0  0  0  0  0  0  0  0  0  0  0
   31.4550   30.9730   32.6010 N   0  0  0  0  0  0  0  0  0  0  0  0
   30.4450   30.9130   32.4590 H   0  0  0  0  0  0  0  0  0  0  0  0
   32.0740   29.9670   33.3920 C   0  0  0  0  0  2  0  0  0  0  0  0
   33.1930   29.2130   32.7440 C   0  0  0  0  0  2  0  0  0  0  0  0
   37.6800   27.0750   32.7000 O   0  0  0  0  0  0  0  0  0  0  0  0
   38.1690   25.4070   34.4620 C   0  0  0  0  0  0  0  0  0  0  0  0
   37.7650   25.7760   33.1800 C   0  0  0  0  0  0  0  0  0  0  0  0
   37.4050   24.8170   32.2540 C   0  0  0  0  0  0  0  0  0  0  0  0
   37.4460   23.4670   32.6100 C   0  0  0  0  0  0  0  0  0  0  0  0
   37.8500   23.1140   33.8890 C   0  0  0  0  0  0  0  0  0  0  0  0
   38.1990   24.0970   34.7790 C   0  0  0  0  0  0  0  0  0  0  0  0
   37.0890   25.0170   31.2620 H   0  0  0  0  0  0  0  0  0  0  0  0
   37.1690   22.7010   31.9020 H   0  0  0  0  0  0  0  0  0  0  0  0
   37.8860   22.0660   34.1760 H   0  0  0  0  0  0  0  0  0  0  0  0
   38.6260   23.6910   36.1340 C   0  0  0  0  0  0  0  0  0  0  0  0
   39.8170   23.1760   36.5720 C   0  0  0  0  0  0  0  0  0  0  0  0
   39.7080   22.9640   37.9400 C   0  0  0  0  0  0  0  0  0  0  0  0
   38.4220   23.3730   38.2650 C   0  0  0  0  0  0  0  0  0  0  0  0
   37.8090   23.7980   37.1780 O   0  0  0  0  0  0  0  0  0  0  0  0
   40.6580   22.9890   35.9180 H   0  0  0  0  0  0  0  0  0  0  0  0
   40.5290   22.5620   38.4950 H   0  0  0  0  0  0  0  0  0  0  0  0
   38.0590   23.3190   39.2830 H   0  0  0  0  0  0  0  0  0  0  0  0
   38.7950   27.3120   36.0660 N   0  0  0  0  0  0  0  0  0  0  0  0
   38.5240   26.4610   35.3550 C   0  0  0  0  0  0  0  0  0  0  0  0
  1 22  1  0  0  0  0
  2 11  1  0  0  0  0
  2  1  2  0  0  0  0
  3  2  1  0  0  0  0
  4  3  2  0  0  0  0
  4  5  1  0  0  0  0
  5  6  2  0  0  0  0
  6  1  1  0  0  0  0
  7  3  1  0  0  0  0
  8  5  1  0  0  0  0
  9 10  2  0  0  0  0
  9 13  1  0  0  0  0
 11 12  1  0  0  0  0
 11  9  1  0  0  0  0
 13 21  1  0  0  0  0
 14 13  1  0  0  0  0
 15 14  1  0  0  0  0
 16 14  1  0  0  0  0
 16 18  1  0  0  0  0
 17 16  1  0  0  0  0
 18 20  1  0  0  0  0
 19 18  1  0  0  0  0
 21 20  1  0  0  0  0
 22 24  1  0  0  0  0
 23 28  1  0  0  0  0
 23 41  1  0  0  0  0
 24 23  2  0  0  0  0
 25 26  2  0  0  0  0
 25 24  1  0  0  0  0
 26 27  1  0  0  0  0
 27 31  1  0  0  0  0
 27 28  2  0  0  0  0
 28 32  1  0  0  0  0
 29 25  1  0  0  0  0
 30 26  1  0  0  0  0
 32 33  2  0  0  0  0
 32 36  1  0  0  0  0
 33 34  1  0  0  0  0
 34 35  2  0  0  0  0
 34 38  1  0  0  0  0
 35 39  1  0  0  0  0
 36 35  1  0  0  0  0
 37 33  1  0  0  0  0
 41 40  3  0  0  0  0
M  END
>  <minimizedAffinity>
-5.65307283

$$$$

 OpenBabel03272507433D

 41 44  0  0  0  0  0  0  0  0999 V2000
   39.2350   26.7550   32.1150 C   0  0  0  0  0  0  0  0  0  0  0  0
   40.0380   26.2780   33.1510 C   0  0  0  0  0  0  0  0  0  0  0  0
   41.4120   26.2740   33.0370 C   0  0  0  0  0  0  0  0  0  0  0  0
   41.9460   26.7520   31.8780 N   0  0  0  0  0  0  0  0  0  0  0  0
   41.1430   27.2150   30.8730 C   0  0  0  0  0  0  0  0  0  0  0  0
   39.8300   27.2110   31.0010 N   0  0  0  0  0  0  0  0  0  0  0  0
   42.0920   25.9270   33.7810 H   0  0  0  0  0  0  0  0  0  0  0  0
   41.6250   27.5850   29.9720 H   0  0  0  0  0  0  0  0  0  0  0  0
   39.5180   24.3550   34.5730 C   0  0  0  0  0  0  0  0  0  0  0  0
   39.7030   23.3430   33.7930 O   0  0  0  0  0  0  0  0  0  0  0  0
   39.5790   25.7700   34.3740 N   0  0  0  0  0  0  0  0  0  0  0  0
   39.2750   26.3320   35.1600 H   0  0  0  0  0  0  0  0  0  0  0  0
   39.1940   23.8140   35.8590 N   0  0  0  0  0  0  0  0  0  0  0  0
   39.7600   22.5240   36.2080 C   0  0  0  0  0  3  0  0  0  0  0  0
   40.6320   22.2780   35.5720 H   0  0  0  0  0  0  0  0  0  0  0  0
   40.1520   22.6380   37.6850 C   0  0  0  0  0  3  0  0  0  0  0  0
   40.6520   23.6190   37.8450 H   0  0  0  0  0  0  0  0  0  0  0  0
   38.9200   22.6670   38.4400 N   0  0  0  0  0  0  0  0  0  0  0  0
   39.0190   22.6850   39.4560 H   0  0  0  0  0  0  0  0  0  0  0  0
   37.9040   23.4740   37.8580 C   0  0  0  0  0  2  0  0  0  0  0  0
   38.3540   24.4560   36.8210 C   0  0  0  0  0  2  0  0  0  0  0  0
   37.9130   26.6790   32.4110 O   0  0  0  0  0  0  0  0  0  0  0  0
   36.5630   28.7270   32.0840 C   0  0  0  0  0  0  0  0  0  0  0  0
   37.1440   27.7360   32.8740 C   0  0  0  0  0  0  0  0  0  0  0  0
   36.9810   27.7480   34.2460 C   0  0  0  0  0  0  0  0  0  0  0  0
   36.2260   28.7610   34.8410 C   0  0  0  0  0  0  0  0  0  0  0  0
   35.6540   29.7400   34.0430 C   0  0  0  0  0  0  0  0  0  0  0  0
   35.8390   29.6930   32.6850 C   0  0  0  0  0  0  0  0  0  0  0  0
   37.3910   27.0330   34.9120 H   0  0  0  0  0  0  0  0  0  0  0  0
   36.0870   28.7890   35.9110 H   0  0  0  0  0  0  0  0  0  0  0  0
   35.0650   30.5330   34.4960 H   0  0  0  0  0  0  0  0  0  0  0  0
   35.2180   30.7500   31.8600 C   0  0  0  0  0  0  0  0  0  0  0  0
   33.9160   30.9160   31.4650 C   0  0  0  0  0  0  0  0  0  0  0  0
   33.8530   32.0720   30.6980 C   0  0  0  0  0  0  0  0  0  0  0  0
   35.1530   32.5560   30.6700 C   0  0  0  0  0  0  0  0  0  0  0  0
   35.9350   31.7540   31.3650 O   0  0  0  0  0  0  0  0  0  0  0  0
   33.1230   30.2320   31.7350 H   0  0  0  0  0  0  0  0  0  0  0  0
   32.9230   32.3970   30.2820 H   0  0  0  0  0  0  0  0  0  0  0  0
   35.4000   33.4630   30.1350 H   0  0  0  0  0  0  0  0  0  0  0  0
   36.9420   28.5820   29.5480 N   0  0  0  0  0  0  0  0  0  0  0  0
   36.7800   28.6410   30.6770 C   0  0  0  0  0  0  0  0  0  0  0  0
  1 22  1  0  0  0  0
  1  2  1  0  0  0  0
  2 11  1  0  0  0  0
  3  2  2  0  0  0  0
  3  7  1  0  0  0  0
  4  3  1  0  0  0  0
  5  6  1  0  0  0  0
  5  4  2  0  0  0  0
  6  1  2  0  0  0  0
  8  5  1  0  0  0  0
  9 13  1  0  0  0  0
 10  9  2  0  0  0  0
 11  9  1  0  0  0  0
 11 12  1  0  0  0  0
 13 14  1  0  0  0  0
 13 21  1  0  0  0  0
 14 16  1  0  0  0  0
 15 14  1  0  0  0  0
 16 17  1  0  0  0  0
 16 18  1  0  0  0  0
 18 19  1  0  0  0  0
 20 18  1  0  0  0  0
 21 20  1  0  0  0  0
 22 24  1  0  0  0  0
 23 28  2  0  0  0  0
 23 24  1  0  0  0  0
 24 25  2  0  0  0  0
 25 26  1  0  0  0  0
 25 29  1  0  0  0  0
 26 30  1  0  0  0  0
 27 31  1  0  0  0  0
 27 26  2  0  0  0  0
 28 27  1  0  0  0  0
 32 28  1  0  0  0  0
 33 37  1  0  0  0  0
 33 32  2  0  0  0  0
 34 33  1  0  0  0  0
 35 34  2  0  0  0  0
 35 36  1  0  0  0  0
 36 32  1  0  0  0  0
 38 34  1  0  0  0  0
 39 35  1  0  0  0  0
 40 41  3  0  0  0  0
 41 23  1  0  0  0  0
M  END
>  <minimizedAffinity>
-5.64507627

$$$$

 OpenBabel03272507433D

 41 44  0  0  0  0  0  0  0  0999 V2000
   39.4060   24.0940   33.8010 C   0  0  0  0  0  0  0  0  0  0  0  0
   39.2250   22.7180   33.9430 C   0  0  0  0  0  0  0  0  0  0  0  0
   40.2640   21.9060   34.3450 C   0  0  0  0  0  0  0  0  0  0  0  0
   41.4650   22.5000   34.5970 N   0  0  0  0  0  0  0  0  0  0  0  0
   41.6230   23.8510   34.4510 C   0  0  0  0  0  0  0  0  0  0  0  0
   40.6170   24.6120   34.0650 N   0  0  0  0  0  0  0  0  0  0  0  0
   40.2060   20.8490   34.4780 H   0  0  0  0  0  0  0  0  0  0  0  0
   42.6030   24.2700   34.6660 H   0  0  0  0  0  0  0  0  0  0  0  0
   37.8780   21.2710   32.5010 C   0  0  0  0  0  0  0  0  0  0  0  0
   38.5960   21.1520   31.4350 O   0  0  0  0  0  0  0  0  0  0  0  0
   38.0330   22.0220   33.7090 N   0  0  0  0  0  0  0  0  0  0  0  0
   37.2390   21.9990   34.3380 H   0  0  0  0  0  0  0  0  0  0  0  0
   36.7320   20.4340   32.3060 N   0  0  0  0  0  0  0  0  0  0  0  0
   36.8950   19.2530   31.4790 C   0  0  0  0  0  3  0  0  0  0  0  0
   37.9610   18.9720   31.3780 H   0  0  0  0  0  0  0  0  0  0  0  0
   36.0850   18.1540   32.1760 C   0  0  0  0  0  3  0  0  0  0  0  0
   36.2890   18.2020   33.2690 H   0  0  0  0  0  0  0  0  0  0  0  0
   34.6910   18.4880   31.9940 N   0  0  0  0  0  0  0  0  0  0  0  0
   34.0170   17.8120   32.3590 H   0  0  0  0  0  0  0  0  0  0  0  0
   34.4000   19.8690   32.1630 C   0  0  0  0  0  2  0  0  0  0  0  0
   35.4410   20.6820   32.8680 C   0  0  0  0  0  2  0  0  0  0  0  0
   38.2740   24.7230   33.3980 O   0  0  0  0  0  0  0  0  0  0  0  0
   36.9920   26.8300   33.1980 C   0  0  0  0  0  0  0  0  0  0  0  0
   37.8420   25.9540   33.8700 C   0  0  0  0  0  0  0  0  0  0  0  0
   38.3350   26.2750   35.1200 C   0  0  0  0  0  0  0  0  0  0  0  0
   37.9760   27.4890   35.7100 C   0  0  0  0  0  0  0  0  0  0  0  0
   37.1310   28.3510   35.0300 C   0  0  0  0  0  0  0  0  0  0  0  0
   36.6620   27.9960   33.7910 C   0  0  0  0  0  0  0  0  0  0  0  0
   38.9840   25.6630   35.6920 H   0  0  0  0  0  0  0  0  0  0  0  0
   38.3510   27.7590   36.6860 H   0  0  0  0  0  0  0  0  0  0  0  0
   36.8450   29.2980   35.4810 H   0  0  0  0  0  0  0  0  0  0  0  0
   35.7630   28.9350   33.0900 C   0  0  0  0  0  0  0  0  0  0  0  0
   36.0410   29.9040   32.1620 C   0  0  0  0  0  0  0  0  0  0  0  0
   34.8420   30.5100   31.8120 C   0  0  0  0  0  0  0  0  0  0  0  0
   33.8770   29.8590   32.5670 C   0  0  0  0  0  0  0  0  0  0  0  0
   34.4520   28.9330   33.3110 O   0  0  0  0  0  0  0  0  0  0  0  0
   37.0400   30.1120   31.8040 H   0  0  0  0  0  0  0  0  0  0  0  0
   34.8230   31.3030   31.0950 H   0  0  0  0  0  0  0  0  0  0  0  0
   32.8320   30.1310   32.4950 H   0  0  0  0  0  0  0  0  0  0  0  0
   36.1460   26.0850   30.8910 N   0  0  0  0  0  0  0  0  0  0  0  0
   36.5280   26.4220   31.9120 C   0  0  0  0  0  0  0  0  0  0  0  0
  1  2  2  0  0  0  0
  1  6  1  0  0  0  0
  2  3  1  0  0  0  0
  3  7  1  0  0  0  0
  3  4  2  0  0  0  0
  5  4  1  0  0  0  0
  5  8  1  0  0  0  0
  6  5  2  0  0  0  0
  9 11  1  0  0  0  0
 10  9  2  0  0  0  0
 11  2  1  0  0  0  0
 11 12  1  0  0  0  0
 13  9  1  0  0  0  0
 13 21  1  0  0  0  0
 14 16  1  0  0  0  0
 14 13  1  0  0  0  0
 15 14  1  0  0  0  0
 16 17  1  0  0  0  0
 18 20  1  0  0  0  0
 18 16  1  0  0  0  0
 18 19  1  0  0  0  0
 20 21  1  0  0  0  0
 22  1  1  0  0  0  0
 22 24  1  0  0  0  0
 23 28  2  0  0  0  0
 23 24  1  0  0  0  0
 24 25  2  0  0  0  0
 25 29  1  0  0  0  0
 25 26  1  0  0  0  0
 26 30  1  0  0  0  0
 27 31  1  0  0  0  0
 27 26  2  0  0  0  0
 28 27  1  0  0  0  0
 32 36  1  0  0  0  0
 32 28  1  0  0  0  0
 33 32  2  0  0  0  0
 34 33  1  0  0  0  0
 34 35  2  0  0  0  0
 35 36  1  0  0  0  0
 37 33  1  0  0  0  0
 38 34  1  0  0  0  0
 39 35  1  0  0  0  0
 40 41  3  0  0  0  0
 41 23  1  0  0  0  0
M  END
>  <minimizedAffinity>
-5.6206665

$$$$
