
 OpenBabel03272508583D

 40 43  0  0  1  0  0  0  0  0999 V2000
   38.3650   31.8830   44.5110 C   0  0  0  0  0  0  0  0  0  0  0  0
   37.2770   32.4590   44.4130 O   0  0  0  0  0  0  0  0  0  0  0  0
   38.9330   31.5800   45.8180 N   0  0  0  0  0  0  0  0  0  0  0  0
   39.9090   31.2880   45.9720 H   0  0  0  0  0  0  0  0  0  0  0  0
   39.1540   31.4700   43.3310 C   0  0  0  0  0  0  0  0  0  0  0  0
   40.1390   30.5330   43.4720 C   0  0  0  0  0  0  0  0  0  0  0  0
   40.8580   30.1730   42.3500 C   0  0  0  0  0  0  0  0  0  0  0  0
   40.5350   30.7850   41.1520 C   0  0  0  0  0  0  0  0  0  0  0  0
   39.5360   31.7390   40.9970 C   0  0  0  0  0  0  0  0  0  0  0  0
   38.8780   32.0410   42.1270 N   0  0  0  0  0  0  0  0  0  0  0  0
   40.3760   30.0670   44.4130 H   0  0  0  0  0  0  0  0  0  0  0  0
   41.6400   29.4370   42.4270 H   0  0  0  0  0  0  0  0  0  0  0  0
   41.1350   30.4580   40.3150 H   0  0  0  0  0  0  0  0  0  0  0  0
   39.2500   32.3370   39.7070 C   0  0  0  0  0  0  0  0  0  0  0  0
   38.5860   33.3970   39.6690 O   0  0  0  0  0  0  0  0  0  0  0  0
   39.6510   31.8370   38.4420 N   0  0  0  0  0  0  0  0  0  0  0  0
   38.6500   31.1960   37.6130 C   0  0  0  0  0  3  0  0  0  0  0  0
   37.6490   31.3620   38.0110 H   0  0  0  0  0  0  0  0  0  0  0  0
   38.9610   29.7150   37.6090 C   0  0  0  0  0  3  0  0  0  0  0  0
   38.5520   29.2650   36.6740 H   0  0  0  0  0  0  0  0  0  0  0  0
   40.3940   29.5040   37.6460 N   0  0  0  0  0  0  0  0  0  0  0  0
   40.6580   28.6380   37.1350 H   0  0  0  0  0  0  0  0  0  0  0  0
   41.0590   30.6250   36.9660 C   0  0  0  0  0  2  0  0  0  0  0  0
   40.9710   31.8800   37.8450 C   0  0  0  0  0  2  0  0  0  0  0  0
   38.4310   31.0860   48.2030 C   0  0  2  0  0  0  0  0  0  0  0  0
   38.6660   32.5510   48.1050 C   0  0  0  0  0  0  0  0  0  0  0  0
   38.0680   31.6970   46.9670 C   0  0  1  0  0  0  0  0  0  0  0  0
   39.3490   30.4720   48.2980 H   0  0  0  0  0  0  0  0  0  0  0  0
   38.0040   33.2160   48.6740 H   0  0  0  0  0  0  0  0  0  0  0  0
   39.6940   32.8940   47.9920 H   0  0  0  0  0  0  0  0  0  0  0  0
   37.0030   31.9530   46.7800 H   0  0  0  0  0  0  0  0  0  0  0  0
   35.0580   30.2340   49.5240 C   0  0  0  0  0  0  0  0  0  0  0  0
   35.3940   29.5540   50.7430 C   0  0  0  0  0  0  0  0  0  0  0  0
   36.7970   29.4120   51.0910 C   0  0  0  0  0  0  0  0  0  0  0  0
   37.7480   29.9270   50.2490 N   0  0  0  0  0  0  0  0  0  0  0  0
   37.3440   30.5600   49.1080 C   0  0  0  0  0  0  0  0  0  0  0  0
   36.0200   30.7300   48.7180 N   0  0  0  0  0  0  0  0  0  0  0  0
   34.0130   30.3080   49.3210 H   0  0  0  0  0  0  0  0  0  0  0  0
   34.6470   29.1530   51.3960 H   0  0  0  0  0  0  0  0  0  0  0  0
   37.0320   28.9080   51.9940 H   0  0  0  0  0  0  0  0  0  0  0  0
  1  3  1  0  0  0  0
  2  1  2  0  0  0  0
  3  4  1  0  0  0  0
  3 27  1  0  0  0  0
  5  6  1  0  0  0  0
  5  1  1  0  0  0  0
  6 11  1  0  0  0  0
  7 12  1  0  0  0  0
  7  6  2  0  0  0  0
  8  7  1  0  0  0  0
  9  8  2  0  0  0  0
  9 10  1  0  0  0  0
 10  5  2  0  0  0  0
 13  8  1  0  0  0  0
 14  9  1  0  0  0  0
 15 14  2  0  0  0  0
 16 14  1  0  0  0  0
 17 18  1  0  0  0  0
 17 16  1  0  0  0  0
 19 17  1  0  0  0  0
 19 21  1  0  0  0  0
 20 19  1  0  0  0  0
 22 21  1  0  0  0  0
 23 21  1  0  0  0  0
 23 24  1  0  0  0  0
 24 16  1  0  0  0  0
 25 28  1  6  0  0  0
 25 36  1  0  0  0  0
 26 25  1  0  0  0  0
 26 29  1  0  0  0  0
 27 31  1  6  0  0  0
 27 26  1  0  0  0  0
 27 25  1  0  0  0  0
 30 26  1  0  0  0  0
 32 33  1  0  0  0  0
 33 34  2  0  0  0  0
 33 39  1  0  0  0  0
 34 40  1  0  0  0  0
 35 34  1  0  0  0  0
 36 35  2  0  0  0  0
 37 36  1  0  0  0  0
 37 32  2  0  0  0  0
 38 32  1  0  0  0  0
M  END
>  <minimizedAffinity>
-5.22902727

>  <minimizedRMSD>
0.424840361

$$$$
