
 OpenBabel03272508583D

 40 43  0  0  1  0  0  0  0  0999 V2000
   38.3900   31.8380   44.5380 C   0  0  0  0  0  0  0  0  0  0  0  0
   37.3200   32.4460   44.4290 O   0  0  0  0  0  0  0  0  0  0  0  0
   38.9330   31.5150   45.8510 N   0  0  0  0  0  0  0  0  0  0  0  0
   39.8990   31.1950   46.0160 H   0  0  0  0  0  0  0  0  0  0  0  0
   39.1810   31.4070   43.3660 C   0  0  0  0  0  0  0  0  0  0  0  0
   40.1590   30.4640   43.5220 C   0  0  0  0  0  0  0  0  0  0  0  0
   40.8800   30.0860   42.4070 C   0  0  0  0  0  0  0  0  0  0  0  0
   40.5670   30.6870   41.2010 C   0  0  0  0  0  0  0  0  0  0  0  0
   39.5740   31.6460   41.0310 C   0  0  0  0  0  0  0  0  0  0  0  0
   38.9140   31.9660   42.1540 N   0  0  0  0  0  0  0  0  0  0  0  0
   40.3890   30.0070   44.4690 H   0  0  0  0  0  0  0  0  0  0  0  0
   41.6570   29.3460   42.4960 H   0  0  0  0  0  0  0  0  0  0  0  0
   41.1680   30.3470   40.3700 H   0  0  0  0  0  0  0  0  0  0  0  0
   39.2980   32.2310   39.7330 C   0  0  0  0  0  0  0  0  0  0  0  0
   38.6820   33.3190   39.6820 O   0  0  0  0  0  0  0  0  0  0  0  0
   39.6590   31.6890   38.4730 N   0  0  0  0  0  0  0  0  0  0  0  0
   41.0660   31.4740   38.2030 C   0  0  0  0  0  3  0  0  0  0  0  0
   41.6620   31.5860   39.1080 H   0  0  0  0  0  0  0  0  0  0  0  0
   41.4830   32.5150   37.1840 C   0  0  0  0  0  3  0  0  0  0  0  0
   42.3620   32.1280   36.6140 H   0  0  0  0  0  0  0  0  0  0  0  0
   40.3990   32.7710   36.2580 N   0  0  0  0  0  0  0  0  0  0  0  0
   40.7610   33.0190   35.3160 H   0  0  0  0  0  0  0  0  0  0  0  0
   39.6000   31.5470   36.1060 C   0  0  0  0  0  2  0  0  0  0  0  0
   38.7840   31.3070   37.3830 C   0  0  0  0  0  2  0  0  0  0  0  0
   38.4140   31.0740   48.2420 C   0  0  2  0  0  0  0  0  0  0  0  0
   38.6410   32.5370   48.1120 C   0  0  0  0  0  0  0  0  0  0  0  0
   38.0570   31.6530   46.9900 C   0  0  1  0  0  0  0  0  0  0  0  0
   39.3350   30.4680   48.3590 H   0  0  0  0  0  0  0  0  0  0  0  0
   37.9700   33.2110   48.6600 H   0  0  0  0  0  0  0  0  0  0  0  0
   39.6680   32.8850   48.0000 H   0  0  0  0  0  0  0  0  0  0  0  0
   36.9930   31.8990   46.7880 H   0  0  0  0  0  0  0  0  0  0  0  0
   35.0370   30.2130   49.5460 C   0  0  0  0  0  0  0  0  0  0  0  0
   35.3660   29.5830   50.7930 C   0  0  0  0  0  0  0  0  0  0  0  0
   36.7660   29.4770   51.1660 C   0  0  0  0  0  0  0  0  0  0  0  0
   37.7210   29.9780   50.3190 N   0  0  0  0  0  0  0  0  0  0  0  0
   37.3230   30.5630   49.1510 C   0  0  0  0  0  0  0  0  0  0  0  0
   36.0020   30.6960   48.7360 N   0  0  0  0  0  0  0  0  0  0  0  0
   33.9940   30.2610   49.3260 H   0  0  0  0  0  0  0  0  0  0  0  0
   34.6160   29.1930   51.4500 H   0  0  0  0  0  0  0  0  0  0  0  0
   36.9970   29.0100   52.0900 H   0  0  0  0  0  0  0  0  0  0  0  0
  1  3  1  0  0  0  0
  2  1  2  0  0  0  0
  3  4  1  0  0  0  0
  3 27  1  0  0  0  0
  5  6  1  0  0  0  0
  5  1  1  0  0  0  0
  6 11  1  0  0  0  0
  7 12  1  0  0  0  0
  7  6  2  0  0  0  0
  8  7  1  0  0  0  0
  9  8  2  0  0  0  0
  9 10  1  0  0  0  0
 10  5  2  0  0  0  0
 13  8  1  0  0  0  0
 14  9  1  0  0  0  0
 15 14  2  0  0  0  0
 16 14  1  0  0  0  0
 17 16  1  0  0  0  0
 17 18  1  0  0  0  0
 19 17  1  0  0  0  0
 20 19  1  0  0  0  0
 21 19  1  0  0  0  0
 22 21  1  0  0  0  0
 23 21  1  0  0  0  0
 23 24  1  0  0  0  0
 24 16  1  0  0  0  0
 25 28  1  6  0  0  0
 25 36  1  0  0  0  0
 26 25  1  0  0  0  0
 26 29  1  0  0  0  0
 27 31  1  6  0  0  0
 27 26  1  0  0  0  0
 27 25  1  0  0  0  0
 30 26  1  0  0  0  0
 32 33  1  0  0  0  0
 33 34  2  0  0  0  0
 33 39  1  0  0  0  0
 34 40  1  0  0  0  0
 35 34  1  0  0  0  0
 36 35  2  0  0  0  0
 37 36  1  0  0  0  0
 37 32  2  0  0  0  0
 38 32  1  0  0  0  0
M  END
>  <minimizedAffinity>
-5.22934198

>  <minimizedRMSD>
0.305161119

$$$$
