
     RDKit          3D

 46 49  0  0  0  0  0  0  0  0999 V2000
   38.4480   31.1153   48.1642 C   0  0  2  0  0  0  0  0  0  0  0  0
   38.6885   32.5796   48.0839 C   0  0  0  0  0  0  0  0  0  0  0  0
   38.0775   31.7445   46.9389 C   0  0  1  0  0  0  0  0  0  0  0  0
   35.0815   30.2612   49.4993 C   0  0  0  0  0  0  0  0  0  0  0  0
   35.4226   29.5623   50.7046 C   0  0  0  0  0  0  0  0  0  0  0  0
   36.8282   29.4071   51.0400 C   0  0  0  0  0  0  0  0  0  0  0  0
   37.7751   29.9304   50.1983 N   0  0  0  0  0  0  0  0  0  0  0  0
   37.3651   30.5817   49.0702 C   0  0  0  0  0  0  0  0  0  0  0  0
   36.0391   30.7644   48.6930 N   0  0  0  0  0  0  0  0  0  0  0  0
   38.3409   31.8965   44.4773 C   0  0  0  0  0  0  0  0  0  0  0  0
   37.2297   32.4275   44.3811 O   0  0  0  0  0  0  0  0  0  0  0  0
   38.9342   31.6394   45.7818 N   0  0  0  0  0  0  0  0  0  0  0  0
   39.1320   31.4922   43.2954 C   0  0  0  0  0  0  0  0  0  0  0  0
   40.1286   30.5675   43.4337 C   0  0  0  0  0  0  0  0  0  0  0  0
   40.8485   30.2153   42.3111 C   0  0  0  0  0  0  0  0  0  0  0  0
   40.5158   30.8217   41.1128 C   0  0  0  0  0  0  0  0  0  0  0  0
   39.5041   31.7632   40.9597 C   0  0  0  0  0  0  0  0  0  0  0  0
   38.8457   32.0583   42.0912 N   0  0  0  0  0  0  0  0  0  0  0  0
   39.2075   32.3556   39.6705 C   0  0  0  0  0  0  0  0  0  0  0  0
   38.8394   33.5513   39.6280 O   0  0  0  0  0  0  0  0  0  0  0  0
   39.3638   30.4956   48.2436 H   0  0  0  0  0  0  0  0  0  0  0  0
   38.0330   33.2403   48.6671 H   0  0  0  0  0  0  0  0  0  0  0  0
   39.7170   32.9209   47.9685 H   0  0  0  0  0  0  0  0  0  0  0  0
   37.0133   32.0074   46.7632 H   0  0  0  0  0  0  0  0  0  0  0  0
   34.0347   30.3433   49.3064 H   0  0  0  0  0  0  0  0  0  0  0  0
   34.6793   29.1554   51.3581 H   0  0  0  0  0  0  0  0  0  0  0  0
   37.0681   28.8885   51.9342 H   0  0  0  0  0  0  0  0  0  0  0  0
   39.9231   31.3881   45.9298 H   0  0  0  0  0  0  0  0  0  0  0  0
   40.3740   30.1054   44.3753 H   0  0  0  0  0  0  0  0  0  0  0  0
   41.6405   29.4892   42.3869 H   0  0  0  0  0  0  0  0  0  0  0  0
   41.1183   30.5017   40.2747 H   0  0  0  0  0  0  0  0  0  0  0  0
   39.2903   31.7108   38.4105 N   0  0  0  0  0  0  0  0  0  0  0  0
   38.1114   31.0299   37.9142 C   0  0  1  0  0  0  0  0  0  0  0  0
   37.2353   31.2783   38.5123 H   0  0  0  0  0  0  0  0  0  0  0  0
   38.3891   29.5449   38.0016 C   0  0  2  0  0  0  0  0  0  0  0  0
   37.7626   29.0165   37.2437 H   0  0  0  0  0  0  0  0  0  0  0  0
   39.7860   29.2792   37.7255 N   0  0  0  0  0  0  0  0  0  0  0  0
   39.9088   28.3545   37.2675 H   0  0  0  0  0  0  0  0  0  0  0  0
   40.2902   30.2947   36.7897 C   0  0  0  0  0  0  0  0  0  0  0  0
   40.4329   31.6365   37.5207 C   0  0  0  0  0  0  0  0  0  0  0  0
   37.9947   31.3138   36.8424 H   0  0  0  0  0  0  0  0  0  0  0  0
   38.1640   29.1531   39.0164 H   0  0  0  0  0  0  0  0  0  0  0  0
   41.2844   29.8985   36.4639 H   0  0  0  0  0  0  0  0  0  0  0  0
   39.6359   30.3803   35.9005 H   0  0  0  0  0  0  0  0  0  0  0  0
   40.3724   32.4690   36.7788 H   0  0  0  0  0  0  0  0  0  0  0  0
   41.4034   31.5662   38.0401 H   0  0  0  0  0  0  0  0  0  0  0  0
  1  8  1  0
  2  1  1  0
  3  2  1  0
  3  1  1  0
  4  5  2  0
  5  6  1  0
  7  6  2  0
  8  7  1  0
  9  8  2  0
  9  4  1  0
 10 12  1  0
 11 10  2  0
 12  3  1  0
 13 14  2  0
 13 10  1  0
 15 14  1  0
 16 15  2  0
 17 16  1  0
 17 18  2  0
 18 13  1  0
 19 17  1  0
 20 19  2  0
  1 21  1  6
  2 22  1  0
  2 23  1  0
  3 24  1  6
  4 25  1  0
  5 26  1  0
  6 27  1  0
 12 28  1  0
 14 29  1  0
 15 30  1  0
 16 31  1  0
 32 33  1  0
 33 34  1  1
 33 35  1  0
 35 36  1  6
 35 37  1  0
 37 38  1  0
 37 39  1  0
 39 40  1  0
 40 32  1  0
 33 41  1  0
 35 42  1  0
 39 43  1  0
 39 44  1  0
 40 45  1  0
 40 46  1  0
 19 32  1  0
M  ISO  8  21  13  22  13  23  13  24  13  25  14  26  14  27  14  29  14
M  ISO  5  30  14  31  14  34   8  36   8  38   5
M  END
>  <DihAtoms>  (1) 
16,18,31,32

>  <DihDeg>  (1) 
-179.98457208960693

$$$$
