
     RDKit          3D

 35 37  0  0  0  0  0  0  0  0999 V2000
   37.1201   30.2709   50.3234 C   0  0  0  0  0  0  0  0  0  0  0  0
   37.5099   30.1377   51.5053 O   0  0  0  0  0  0  0  0  0  0  0  0
   37.7935   31.0835   49.3345 C   0  0  0  0  0  0  0  0  0  0  0  0
   38.1093   32.3879   49.7144 C   0  0  0  0  0  0  0  0  0  0  0  0
   38.7625   33.2015   48.7782 C   0  0  0  0  0  0  0  0  0  0  0  0
   39.0529   32.6733   47.5485 N   0  0  0  0  0  0  0  0  0  0  0  0
   38.7279   31.4005   47.2209 C   0  0  0  0  0  0  0  0  0  0  0  0
   38.1084   30.6278   48.1081 N   0  0  0  0  0  0  0  0  0  0  0  0
   35.9195   29.5740   49.9012 C   0  0  0  0  0  0  0  0  0  0  0  0
   34.6771   29.9016   50.3908 C   0  0  0  0  0  0  0  0  0  0  0  0
   33.7635   29.0342   49.7718 C   0  0  0  0  0  0  0  0  0  0  0  0
   34.5337   28.2321   48.9391 C   0  0  0  0  0  0  0  0  0  0  0  0
   35.7700   28.5863   49.0528 O   0  0  0  0  0  0  0  0  0  0  0  0
   33.9683   27.1739   48.0956 C   0  0  0  0  0  0  0  0  0  0  0  0
   32.7382   26.9069   48.1115 O   0  0  0  0  0  0  0  0  0  0  0  0
   37.9027   32.8470   50.6654 H   0  0  0  0  0  0  0  0  0  0  0  0
   39.0218   34.2181   49.0404 H   0  0  0  0  0  0  0  0  0  0  0  0
   39.0151   31.1117   46.2183 H   0  0  0  0  0  0  0  0  0  0  0  0
   34.3577   30.6509   51.1041 H   0  0  0  0  0  0  0  0  0  0  0  0
   32.6959   28.9653   49.8829 H   0  0  0  0  0  0  0  0  0  0  0  0
   34.7321   26.3768   47.2098 N   0  0  0  0  0  0  0  0  0  0  0  0
   35.6404   27.1882   46.4619 C   0  0  1  0  0  0  0  0  0  0  0  0
   35.1203   27.9445   45.8053 H   0  0  0  0  0  0  0  0  0  0  0  0
   36.3549   26.2545   45.4771 C   0  0  2  0  0  0  0  0  0  0  0  0
   37.1498   26.8509   44.9905 H   0  0  0  0  0  0  0  0  0  0  0  0
   36.9906   25.1860   46.1839 N   0  0  0  0  0  0  0  0  0  0  0  0
   37.8168   25.5853   46.6869 H   0  0  0  0  0  0  0  0  0  0  0  0
   36.1673   24.4764   47.1134 C   0  0  0  0  0  0  0  0  0  0  0  0
   34.7127   24.9474   46.9804 C   0  0  0  0  0  0  0  0  0  0  0  0
   36.3750   27.7333   47.0875 H   0  0  0  0  0  0  0  0  0  0  0  0
   35.6621   25.9302   44.6916 H   0  0  0  0  0  0  0  0  0  0  0  0
   36.4552   24.6216   48.1568 H   0  0  0  0  0  0  0  0  0  0  0  0
   36.1308   23.3774   46.9007 H   0  0  0  0  0  0  0  0  0  0  0  0
   34.0691   24.3899   47.6822 H   0  0  0  0  0  0  0  0  0  0  0  0
   34.3358   24.7044   45.9595 H   0  0  0  0  0  0  0  0  0  0  0  0
  1  2  2  0
  3  4  2  0
  3  1  1  0
  5  4  1  0
  6  5  2  0
  7  6  1  0
  7  8  2  0
  8  3  1  0
  9  1  1  0
  9 10  2  0
 11 10  1  0
 12 13  1  0
 12 11  2  0
 13  9  1  0
 14 15  2  0
 14 12  1  0
  4 16  1  0
  5 17  1  0
  7 18  1  0
 10 19  1  0
 11 20  1  0
 21 22  1  0
 22 23  1  6
 22 24  1  0
 24 25  1  6
 24 26  1  0
 26 27  1  0
 26 28  1  0
 28 29  1  0
 29 21  1  0
 22 30  1  0
 24 31  1  0
 28 32  1  0
 28 33  1  0
 29 34  1  0
 29 35  1  0
 14 21  1  0
M  ISO  8  16  14  17  14  18  14  19  14  20  14  23   8  25   8  27   5
M  END
>  <DihAtoms>  (1) 
14,13,20,21

>  <DihDeg>  (1) 
-0.003627534816742965

$$$$
