
 OpenBabel03272508583D

 40 43  0  0  1  0  0  0  0  0999 V2000
   38.3670   31.8670   44.5310 C   0  0  0  0  0  0  0  0  0  0  0  0
   37.2810   32.4470   44.4270 O   0  0  0  0  0  0  0  0  0  0  0  0
   38.9270   31.5650   45.8410 N   0  0  0  0  0  0  0  0  0  0  0  0
   39.9020   31.2710   46.0010 H   0  0  0  0  0  0  0  0  0  0  0  0
   39.1600   31.4500   43.3550 C   0  0  0  0  0  0  0  0  0  0  0  0
   40.1670   30.5380   43.5090 C   0  0  0  0  0  0  0  0  0  0  0  0
   40.8880   30.1720   42.3920 C   0  0  0  0  0  0  0  0  0  0  0  0
   40.5470   30.7540   41.1830 C   0  0  0  0  0  0  0  0  0  0  0  0
   39.5250   31.6820   41.0150 C   0  0  0  0  0  0  0  0  0  0  0  0
   38.8660   31.9910   42.1420 N   0  0  0  0  0  0  0  0  0  0  0  0
   40.4180   30.0950   44.4580 H   0  0  0  0  0  0  0  0  0  0  0  0
   41.6880   29.4560   42.4790 H   0  0  0  0  0  0  0  0  0  0  0  0
   41.1510   30.4250   40.3500 H   0  0  0  0  0  0  0  0  0  0  0  0
   39.2210   32.2480   39.7150 C   0  0  0  0  0  0  0  0  0  0  0  0
   38.8930   33.4540   39.6460 O   0  0  0  0  0  0  0  0  0  0  0  0
   39.2520   31.5650   38.4730 N   0  0  0  0  0  0  0  0  0  0  0  0
   38.1730   30.6460   38.1720 C   0  0  0  0  0  3  0  0  0  0  0  0
   37.3570   30.7530   38.8870 H   0  0  0  0  0  0  0  0  0  0  0  0
   38.7470   29.2480   38.2550 C   0  0  0  0  0  3  0  0  0  0  0  0
   38.1370   28.5700   37.6110 H   0  0  0  0  0  0  0  0  0  0  0  0
   40.1160   29.2400   37.7840 N   0  0  0  0  0  0  0  0  0  0  0  0
   40.3530   28.3330   37.3350 H   0  0  0  0  0  0  0  0  0  0  0  0
   40.2750   30.2820   36.7590 C   0  0  0  0  0  2  0  0  0  0  0  0
   40.2510   31.6630   37.4280 C   0  0  0  0  0  2  0  0  0  0  0  0
   38.4200   31.0890   48.2290 C   0  0  2  0  0  0  0  0  0  0  0  0
   38.6460   32.5540   48.1190 C   0  0  0  0  0  0  0  0  0  0  0  0
   38.0570   31.6870   46.9860 C   0  0  1  0  0  0  0  0  0  0  0  0
   39.3400   30.4800   48.3320 H   0  0  0  0  0  0  0  0  0  0  0  0
   37.9790   33.2200   48.6800 H   0  0  0  0  0  0  0  0  0  0  0  0
   39.6730   32.9020   48.0070 H   0  0  0  0  0  0  0  0  0  0  0  0
   36.9920   31.9360   46.7930 H   0  0  0  0  0  0  0  0  0  0  0  0
   35.0480   30.2070   49.5330 C   0  0  0  0  0  0  0  0  0  0  0  0
   35.3820   29.5620   50.7710 C   0  0  0  0  0  0  0  0  0  0  0  0
   36.7830   29.4540   51.1380 C   0  0  0  0  0  0  0  0  0  0  0  0
   37.7340   29.9660   50.2940 N   0  0  0  0  0  0  0  0  0  0  0  0
   37.3320   30.5650   49.1340 C   0  0  0  0  0  0  0  0  0  0  0  0
   36.0090   30.7010   48.7260 N   0  0  0  0  0  0  0  0  0  0  0  0
   34.0040   30.2560   49.3170 H   0  0  0  0  0  0  0  0  0  0  0  0
   34.6350   29.1630   51.4250 H   0  0  0  0  0  0  0  0  0  0  0  0
   37.0180   28.9760   52.0550 H   0  0  0  0  0  0  0  0  0  0  0  0
  1  3  1  0  0  0  0
  2  1  2  0  0  0  0
  3  4  1  0  0  0  0
  3 27  1  0  0  0  0
  5  6  1  0  0  0  0
  5  1  1  0  0  0  0
  6 11  1  0  0  0  0
  7 12  1  0  0  0  0
  7  6  2  0  0  0  0
  8  7  1  0  0  0  0
  9  8  2  0  0  0  0
  9 10  1  0  0  0  0
 10  5  2  0  0  0  0
 13  8  1  0  0  0  0
 14  9  1  0  0  0  0
 15 14  2  0  0  0  0
 16 14  1  0  0  0  0
 17 19  1  0  0  0  0
 17 16  1  0  0  0  0
 17 18  1  0  0  0  0
 20 19  1  0  0  0  0
 21 19  1  0  0  0  0
 22 21  1  0  0  0  0
 23 24  1  0  0  0  0
 23 21  1  0  0  0  0
 24 16  1  0  0  0  0
 25 28  1  6  0  0  0
 25 36  1  0  0  0  0
 26 25  1  0  0  0  0
 26 29  1  0  0  0  0
 27 31  1  6  0  0  0
 27 26  1  0  0  0  0
 27 25  1  0  0  0  0
 30 26  1  0  0  0  0
 32 33  1  0  0  0  0
 33 34  2  0  0  0  0
 33 39  1  0  0  0  0
 34 40  1  0  0  0  0
 35 34  1  0  0  0  0
 36 35  2  0  0  0  0
 37 36  1  0  0  0  0
 37 32  2  0  0  0  0
 38 32  1  0  0  0  0
M  END
>  <minimizedAffinity>
-5.19937134

>  <minimizedRMSD>
0.134290993

$$$$
