REMARK  Name = 
REMARK  4 active torsions:
REMARK  status: ('A' for Active; 'I' for Inactive)
REMARK    1  A    between atoms: C_1  and  C_8
REMARK    2  A    between atoms: C_3  and  N_12
REMARK    3  A    between atoms: C_10  and  C_13
REMARK    4  A    between atoms: C_17  and  C_19
REMARK                            x       y       z     vdW  Elec       q    Type
REMARK                         _______ _______ _______ _____ _____    ______ ____
ROOT
ATOM      1  C   UNL     1      38.341  31.896  44.477  0.00  0.00    +0.000 C 
ATOM      2  O   UNL     1      37.230  32.428  44.381  0.00  0.00    +0.000 OA
ATOM      3  N   UNL     1      38.934  31.639  45.782  0.00  0.00    +0.000 N 
ATOM      4  H   UNL     1      39.923  31.388  45.930  0.00  0.00    +0.000 HD
ENDROOT
BRANCH   1   5
ATOM      5  C   UNL     1      39.132  31.492  43.295  0.00  0.00    +0.000 A 
ATOM      6  C   UNL     1      40.129  30.567  43.434  0.00  0.00    +0.000 A 
ATOM      7  C   UNL     1      40.849  30.215  42.311  0.00  0.00    +0.000 A 
ATOM      8  C   UNL     1      40.516  30.822  41.113  0.00  0.00    +0.000 A 
ATOM      9  C   UNL     1      39.504  31.763  40.960  0.00  0.00    +0.000 A 
ATOM     10  N   UNL     1      38.846  32.058  42.091  0.00  0.00    +0.000 NA
ATOM     11  H   UNL     1      40.374  30.105  44.375  0.00  0.00    +0.000 HD
ATOM     12  H   UNL     1      41.641  29.489  42.387  0.00  0.00    +0.000 HD
ATOM     13  H   UNL     1      41.118  30.502  40.275  0.00  0.00    +0.000 HD
BRANCH   9  14
ATOM     14  C   UNL     1      39.208  32.356  39.670  0.00  0.00    +0.000 C 
ATOM     15  O   UNL     1      38.839  33.551  39.628  0.00  0.00    +0.000 OA
ATOM     16  N   UNL     1      39.290  31.711  38.410  0.00  0.00    +0.000 N 
ATOM     17  C   UNL     1      38.251  30.764  38.059  0.00  0.00    +0.000 C 
ATOM     18  H   UNL     1      37.417  30.822  38.758  0.00  0.00    +0.000 HD
ATOM     19  C   UNL     1      38.873  29.385  38.115  0.00  0.00    +0.000 C 
ATOM     20  H   UNL     1      38.301  28.706  37.438  0.00  0.00    +0.000 HD
ATOM     21  N   UNL     1      40.251  29.439  37.675  0.00  0.00    +0.000 NA
ATOM     22  H   UNL     1      40.530  28.554  37.206  0.00  0.00    +0.000 HD
ATOM     23  C   UNL     1      40.395  30.515  36.684  0.00  0.00    +0.000 C 
ATOM     24  C   UNL     1      40.308  31.875  37.391  0.00  0.00    +0.000 C 
ENDBRANCH   9  14
ENDBRANCH   1   5
BRANCH   3  27
ATOM     25  C   UNL     1      38.448  31.115  48.164  0.00  0.00    +0.000 C 
ATOM     26  C   UNL     1      38.688  32.580  48.084  0.00  0.00    +0.000 C 
ATOM     27  C   UNL     1      38.078  31.744  46.939  0.00  0.00    +0.000 C 
ATOM     28  H   UNL     1      39.364  30.496  48.244  0.00  0.00    +0.000 HD
ATOM     29  H   UNL     1      38.033  33.240  48.667  0.00  0.00    +0.000 HD
ATOM     30  H   UNL     1      39.717  32.921  47.968  0.00  0.00    +0.000 HD
ATOM     31  H   UNL     1      37.013  32.007  46.763  0.00  0.00    +0.000 HD
BRANCH  25  36
ATOM     32  C   UNL     1      35.081  30.261  49.499  0.00  0.00    +0.000 A 
ATOM     33  C   UNL     1      35.423  29.562  50.705  0.00  0.00    +0.000 A 
ATOM     34  C   UNL     1      36.828  29.407  51.040  0.00  0.00    +0.000 A 
ATOM     35  N   UNL     1      37.775  29.930  50.198  0.00  0.00    +0.000 NA
ATOM     36  C   UNL     1      37.365  30.582  49.070  0.00  0.00    +0.000 A 
ATOM     37  N   UNL     1      36.039  30.764  48.693  0.00  0.00    +0.000 NA
ATOM     38  H   UNL     1      34.035  30.343  49.306  0.00  0.00    +0.000 HD
ATOM     39  H   UNL     1      34.679  29.155  51.358  0.00  0.00    +0.000 HD
ATOM     40  H   UNL     1      37.068  28.889  51.934  0.00  0.00    +0.000 HD
ENDBRANCH  25  36
ENDBRANCH   3  27
TORSDOF 4
