
 OpenBabel03272507313D

 29 31  0  0  0  0  0  0  0  0999 V2000
   35.6320   29.1870   49.7520 C   0  0  0  0  0  0  0  0  0  0  0  0
   34.8140   29.7200   50.7200 C   0  0  0  0  0  0  0  0  0  0  0  0
   33.5160   29.2660   50.4380 C   0  0  0  0  0  0  0  0  0  0  0  0
   33.6470   28.4790   49.3010 C   0  0  0  0  0  0  0  0  0  0  0  0
   34.8880   28.4680   48.9480 O   0  0  0  0  0  0  0  0  0  0  0  0
   35.0220   30.3640   51.5650 H   0  0  0  0  0  0  0  0  0  0  0  0
   32.5930   29.4570   50.9560 H   0  0  0  0  0  0  0  0  0  0  0  0
   32.5150   27.8010   48.6600 C   0  0  0  0  0  0  0  0  0  0  0  0
   31.3530   27.8620   49.1400 O   0  0  0  0  0  0  0  0  0  0  0  0
   32.6220   27.0370   47.4730 N   0  0  0  0  0  0  0  0  0  0  0  0
   33.9180   26.4420   47.3750 C   0  0  0  0  0  3  0  0  0  0  0  0
   34.7500   27.2030   47.3120 H   0  0  0  0  0  0  0  0  0  0  0  0
   33.9650   25.7140   46.0260 C   0  0  0  0  0  3  0  0  0  0  0  0
   34.9140   25.1440   46.0040 H   0  0  0  0  0  0  0  0  0  0  0  0
   32.8940   24.7690   45.9390 N   0  0  0  0  0  0  0  0  0  0  0  0
   33.1180   23.9750   46.5820 H   0  0  0  0  0  0  0  0  0  0  0  0
   31.5920   25.2740   46.2430 C   0  0  0  0  0  2  0  0  0  0  0  0
   31.6560   26.7970   46.4220 C   0  0  0  0  0  2  0  0  0  0  0  0
   37.0600   29.4450   49.7240 C   0  0  0  0  0  0  0  0  0  0  0  0
   37.8050   28.7890   50.4870 O   0  0  0  0  0  0  0  0  0  0  0  0
   37.5310   30.4580   48.8050 C   0  0  0  0  0  0  0  0  0  0  0  0
   38.2640   31.5060   49.3590 C   0  0  0  0  0  0  0  0  0  0  0  0
   38.7350   32.5040   48.4940 C   0  0  0  0  0  0  0  0  0  0  0  0
   38.4480   32.3940   47.1590 N   0  0  0  0  0  0  0  0  0  0  0  0
   37.7320   31.3590   46.6630 C   0  0  0  0  0  0  0  0  0  0  0  0
   37.2850   30.4110   47.4830 N   0  0  0  0  0  0  0  0  0  0  0  0
   38.5150   31.6350   50.3970 H   0  0  0  0  0  0  0  0  0  0  0  0
   39.3070   33.3300   48.8910 H   0  0  0  0  0  0  0  0  0  0  0  0
   37.5780   31.3960   45.5920 H   0  0  0  0  0  0  0  0  0  0  0  0
  1  2  2  0  0  0  0
  2  6  1  0  0  0  0
  3  2  1  0  0  0  0
  3  7  1  0  0  0  0
  4  3  2  0  0  0  0
  5  4  1  0  0  0  0
  5  1  1  0  0  0  0
  8  9  2  0  0  0  0
  8  4  1  0  0  0  0
 10  8  1  0  0  0  0
 11 10  1  0  0  0  0
 12 11  1  0  0  0  0
 13 11  1  0  0  0  0
 14 13  1  0  0  0  0
 15 13  1  0  0  0  0
 15 17  1  0  0  0  0
 15 16  1  0  0  0  0
 17 18  1  0  0  0  0
 18 10  1  0  0  0  0
 19  1  1  0  0  0  0
 19 20  2  0  0  0  0
 21 22  1  0  0  0  0
 21 19  1  0  0  0  0
 22 27  1  0  0  0  0
 23 28  1  0  0  0  0
 23 22  2  0  0  0  0
 24 23  1  0  0  0  0
 25 24  2  0  0  0  0
 25 26  1  0  0  0  0
 26 21  2  0  0  0  0
 29 25  1  0  0  0  0
M  END
>  <minimizedAffinity>
-4.90691137

>  <minimizedRMSD>
1.80119264

$$$$
