
 OpenBabel03272508583D

 40 43  0  0  1  0  0  0  0  0999 V2000
   38.3380   31.8940   44.5060 C   0  0  0  0  0  0  0  0  0  0  0  0
   37.2300   32.4320   44.4100 O   0  0  0  0  0  0  0  0  0  0  0  0
   38.9260   31.6280   45.8120 N   0  0  0  0  0  0  0  0  0  0  0  0
   39.9130   31.3720   45.9620 H   0  0  0  0  0  0  0  0  0  0  0  0
   39.1300   31.4910   43.3250 C   0  0  0  0  0  0  0  0  0  0  0  0
   40.1230   30.5610   43.4630 C   0  0  0  0  0  0  0  0  0  0  0  0
   40.8450   30.2110   42.3400 C   0  0  0  0  0  0  0  0  0  0  0  0
   40.5180   30.8240   41.1440 C   0  0  0  0  0  0  0  0  0  0  0  0
   39.5100   31.7710   40.9920 C   0  0  0  0  0  0  0  0  0  0  0  0
   38.8500   32.0640   42.1230 N   0  0  0  0  0  0  0  0  0  0  0  0
   40.3630   30.0940   44.4020 H   0  0  0  0  0  0  0  0  0  0  0  0
   41.6330   29.4810   42.4150 H   0  0  0  0  0  0  0  0  0  0  0  0
   41.1210   30.5050   40.3060 H   0  0  0  0  0  0  0  0  0  0  0  0
   39.2210   32.3700   39.7040 C   0  0  0  0  0  0  0  0  0  0  0  0
   38.7840   33.5430   39.6710 O   0  0  0  0  0  0  0  0  0  0  0  0
   39.3790   31.7560   38.4360 N   0  0  0  0  0  0  0  0  0  0  0  0
   40.6030   31.0210   38.1840 C   0  0  0  0  0  3  0  0  0  0  0  0
   41.1700   30.8760   39.1030 H   0  0  0  0  0  0  0  0  0  0  0  0
   41.4150   31.8380   37.2030 C   0  0  0  0  0  3  0  0  0  0  0  0
   42.0930   31.1540   36.6390 H   0  0  0  0  0  0  0  0  0  0  0  0
   40.5390   32.5120   36.2660 N   0  0  0  0  0  0  0  0  0  0  0  0
   40.9950   32.6190   35.3380 H   0  0  0  0  0  0  0  0  0  0  0  0
   39.3350   31.6940   36.0650 C   0  0  0  0  0  2  0  0  0  0  0  0
   38.4550   31.7630   37.3200 C   0  0  0  0  0  2  0  0  0  0  0  0
   38.4350   31.1040   48.1930 C   0  0  2  0  0  0  0  0  0  0  0  0
   38.6730   32.5690   48.1130 C   0  0  0  0  0  0  0  0  0  0  0  0
   38.0670   31.7320   46.9670 C   0  0  1  0  0  0  0  0  0  0  0  0
   39.3520   30.4860   48.2750 H   0  0  0  0  0  0  0  0  0  0  0  0
   38.0160   33.2280   48.6950 H   0  0  0  0  0  0  0  0  0  0  0  0
   39.7020   32.9110   48.0000 H   0  0  0  0  0  0  0  0  0  0  0  0
   37.0020   31.9930   46.7880 H   0  0  0  0  0  0  0  0  0  0  0  0
   35.0660   30.2320   49.5130 C   0  0  0  0  0  0  0  0  0  0  0  0
   35.4060   29.5470   50.7270 C   0  0  0  0  0  0  0  0  0  0  0  0
   36.8100   29.4070   51.0730 C   0  0  0  0  0  0  0  0  0  0  0  0
   37.7580   29.9300   50.2330 N   0  0  0  0  0  0  0  0  0  0  0  0
   37.3500   30.5690   49.0960 C   0  0  0  0  0  0  0  0  0  0  0  0
   36.0250   30.7360   48.7090 N   0  0  0  0  0  0  0  0  0  0  0  0
   34.0210   30.3040   49.3120 H   0  0  0  0  0  0  0  0  0  0  0  0
   34.6620   29.1390   51.3790 H   0  0  0  0  0  0  0  0  0  0  0  0
   37.0490   28.8980   51.9730 H   0  0  0  0  0  0  0  0  0  0  0  0
  1  3  1  0  0  0  0
  2  1  2  0  0  0  0
  3  4  1  0  0  0  0
  3 27  1  0  0  0  0
  5  6  1  0  0  0  0
  5  1  1  0  0  0  0
  6 11  1  0  0  0  0
  7 12  1  0  0  0  0
  7  6  2  0  0  0  0
  8  7  1  0  0  0  0
  9  8  2  0  0  0  0
  9 10  1  0  0  0  0
 10  5  2  0  0  0  0
 13  8  1  0  0  0  0
 14  9  1  0  0  0  0
 15 14  2  0  0  0  0
 16 14  1  0  0  0  0
 17 16  1  0  0  0  0
 17 18  1  0  0  0  0
 19 17  1  0  0  0  0
 20 19  1  0  0  0  0
 21 19  1  0  0  0  0
 22 21  1  0  0  0  0
 23 21  1  0  0  0  0
 23 24  1  0  0  0  0
 24 16  1  0  0  0  0
 25 28  1  6  0  0  0
 25 36  1  0  0  0  0
 26 25  1  0  0  0  0
 26 29  1  0  0  0  0
 27 31  1  6  0  0  0
 27 26  1  0  0  0  0
 27 25  1  0  0  0  0
 30 26  1  0  0  0  0
 32 33  1  0  0  0  0
 33 34  2  0  0  0  0
 33 39  1  0  0  0  0
 34 40  1  0  0  0  0
 35 34  1  0  0  0  0
 36 35  2  0  0  0  0
 37 36  1  0  0  0  0
 37 32  2  0  0  0  0
 38 32  1  0  0  0  0
M  END
>  <minimizedAffinity>
-5.22000504

>  <minimizedRMSD>
0.0933383927

$$$$
