
     RDKit          3D

 35 37  0  0  0  0  0  0  0  0999 V2000
   36.8002   30.7412   49.1852 C   0  0  0  0  0  0  0  0  0  0  0  0
   37.9439   31.1261   48.4804 C   0  0  0  0  0  0  0  0  0  0  0  0
   37.9309   31.1020   47.0980 C   0  0  0  0  0  0  0  0  0  0  0  0
   36.7935   30.7005   46.4818 N   0  0  0  0  0  0  0  0  0  0  0  0
   35.6934   30.3307   47.1929 C   0  0  0  0  0  0  0  0  0  0  0  0
   35.6878   30.3476   48.5178 N   0  0  0  0  0  0  0  0  0  0  0  0
   39.0859   31.4896   46.3070 C   0  0  0  0  0  0  0  0  0  0  0  0
   39.7752   30.6812   45.4472 C   0  0  0  0  0  0  0  0  0  0  0  0
   40.7780   31.4902   44.9367 C   0  0  0  0  0  0  0  0  0  0  0  0
   40.6841   32.7154   45.4696 N   0  0  0  0  0  0  0  0  0  0  0  0
   39.6514   32.7131   46.3052 N   0  0  0  0  0  0  0  0  0  0  0  0
   36.9653   30.8177   50.5578 O   0  0  0  0  0  0  0  0  0  0  0  0
   36.9428   29.7065   51.4137 C   0  0  0  0  0  0  0  0  0  0  0  0
   35.6636   29.2573   51.6554 F   0  0  0  0  0  0  0  0  0  0  0  0
   37.5681   30.0405   52.5922 F   0  0  0  0  0  0  0  0  0  0  0  0
   37.6719   28.6893   50.8221 F   0  0  0  0  0  0  0  0  0  0  0  0
   38.8566   31.4477   48.9363 H   0  0  0  0  0  0  0  0  0  0  0  0
   34.8308   30.0250   46.6367 H   0  0  0  0  0  0  0  0  0  0  0  0
   39.6310   29.6609   45.1836 H   0  0  0  0  0  0  0  0  0  0  0  0
   41.5604   31.2688   44.2204 H   0  0  0  0  0  0  0  0  0  0  0  0
   42.9455   34.3783   43.8624 H   0  0  0  0  0  0  0  0  0  0  0  0
   42.0202   33.8933   43.8622 N   0  0  0  0  0  0  0  0  0  0  0  0
   41.5241   33.8813   45.2239 C   0  0  1  0  0  0  0  0  0  0  0  0
   40.7565   35.1635   45.4565 C   0  0  1  0  0  0  0  0  0  0  0  0
   40.6121   35.4007   46.5130 H   0  0  0  0  0  0  0  0  0  0  0  0
   39.4988   35.0169   44.7548 N   0  0  0  0  0  0  0  0  0  0  0  0
   38.8226   34.4006   45.2312 H   0  0  0  0  0  0  0  0  0  0  0  0
   39.7179   34.6665   43.3840 C   0  0  0  0  0  0  0  0  0  0  0  0
   41.1577   34.6170   42.9649 C   0  0  0  0  0  0  0  0  0  0  0  0
   42.3550   33.8591   45.9590 H   0  0  0  0  0  0  0  0  0  0  0  0
   41.2999   35.9858   44.9558 H   0  0  0  0  0  0  0  0  0  0  0  0
   39.1511   33.7491   43.0591 H   0  0  0  0  0  0  0  0  0  0  0  0
   39.2498   35.4891   42.7671 H   0  0  0  0  0  0  0  0  0  0  0  0
   41.5289   35.6593   42.7573 H   0  0  0  0  0  0  0  0  0  0  0  0
   41.1898   34.0944   41.9771 H   0  0  0  0  0  0  0  0  0  0  0  0
  1 12  1  0
  2  1  2  0
  3  2  1  0
  4  3  2  0
  4  5  1  0
  5  6  2  0
  6  1  1  0
  7 11  2  0
  7  3  1  0
  8  7  1  0
  9  8  2  0
  9 10  1  0
 10 11  1  0
 12 13  1  0
 13 14  1  0
 13 15  1  0
 16 13  1  0
  2 17  1  0
  5 18  1  0
  8 19  1  0
  9 20  1  0
 21 22  1  0
 22 23  1  0
 23 24  1  0
 24 25  1  1
 24 26  1  0
 26 27  1  0
 26 28  1  0
 28 29  1  0
 29 22  1  0
 23 30  1  1
 24 31  1  0
 28 32  1  0
 28 33  1  0
 29 34  1  0
 29 35  1  0
 10 23  1  0
M  ISO  7  17  14  18  14  19  14  20  14  21   5  25   8  27   5
M  END
>  <DihAtoms>  (1) 
8,9,22,21

>  <DihDeg>  (1) 
17.192985159976832

$$$$
