
     RDKit          3D

 35 37  0  0  0  0  0  0  0  0999 V2000
   36.8002   30.7412   49.1852 C   0  0  0  0  0  0  0  0  0  0  0  0
   37.9439   31.1261   48.4804 C   0  0  0  0  0  0  0  0  0  0  0  0
   37.9309   31.1020   47.0980 C   0  0  0  0  0  0  0  0  0  0  0  0
   36.7935   30.7005   46.4818 N   0  0  0  0  0  0  0  0  0  0  0  0
   35.6934   30.3307   47.1929 C   0  0  0  0  0  0  0  0  0  0  0  0
   35.6878   30.3476   48.5178 N   0  0  0  0  0  0  0  0  0  0  0  0
   39.0859   31.4896   46.3070 C   0  0  0  0  0  0  0  0  0  0  0  0
   39.7752   30.6812   45.4472 C   0  0  0  0  0  0  0  0  0  0  0  0
   40.7780   31.4902   44.9367 C   0  0  0  0  0  0  0  0  0  0  0  0
   40.6841   32.7154   45.4696 N   0  0  0  0  0  0  0  0  0  0  0  0
   39.6514   32.7131   46.3052 N   0  0  0  0  0  0  0  0  0  0  0  0
   36.9653   30.8177   50.5578 O   0  0  0  0  0  0  0  0  0  0  0  0
   36.9428   29.7065   51.4137 C   0  0  0  0  0  0  0  0  0  0  0  0
   35.6636   29.2573   51.6554 F   0  0  0  0  0  0  0  0  0  0  0  0
   37.5681   30.0405   52.5922 F   0  0  0  0  0  0  0  0  0  0  0  0
   37.6719   28.6893   50.8221 F   0  0  0  0  0  0  0  0  0  0  0  0
   38.8566   31.4477   48.9363 H   0  0  0  0  0  0  0  0  0  0  0  0
   34.8308   30.0250   46.6367 H   0  0  0  0  0  0  0  0  0  0  0  0
   39.6310   29.6609   45.1836 H   0  0  0  0  0  0  0  0  0  0  0  0
   41.5604   31.2688   44.2204 H   0  0  0  0  0  0  0  0  0  0  0  0
   42.3641   34.7391   43.5870 H   0  0  0  0  0  0  0  0  0  0  0  0
   41.4508   34.2985   43.8379 N   0  0  0  0  0  0  0  0  0  0  0  0
   41.5241   33.8813   45.2239 C   0  0  1  0  0  0  0  0  0  0  0  0
   41.1024   35.0476   46.0894 C   0  0  1  0  0  0  0  0  0  0  0  0
   41.4142   34.9533   47.1320 H   0  0  0  0  0  0  0  0  0  0  0  0
   39.6644   35.1513   45.9587 N   0  0  0  0  0  0  0  0  0  0  0  0
   39.1430   34.4342   46.4859 H   0  0  0  0  0  0  0  0  0  0  0  0
   39.2824   35.2325   44.5813 C   0  0  0  0  0  0  0  0  0  0  0  0
   40.4240   35.2813   43.6089 C   0  0  0  0  0  0  0  0  0  0  0  0
   42.5618   33.6164   45.5142 H   0  0  0  0  0  0  0  0  0  0  0  0
   41.5235   35.9713   45.6516 H   0  0  0  0  0  0  0  0  0  0  0  0
   38.5067   34.4717   44.2850 H   0  0  0  0  0  0  0  0  0  0  0  0
   38.7376   36.2149   44.4601 H   0  0  0  0  0  0  0  0  0  0  0  0
   40.8338   36.3285   43.5565 H   0  0  0  0  0  0  0  0  0  0  0  0
   39.9948   35.0856   42.5954 H   0  0  0  0  0  0  0  0  0  0  0  0
  1 12  1  0
  2  1  2  0
  3  2  1  0
  4  3  2  0
  4  5  1  0
  5  6  2  0
  6  1  1  0
  7 11  2  0
  7  3  1  0
  8  7  1  0
  9  8  2  0
  9 10  1  0
 10 11  1  0
 12 13  1  0
 13 14  1  0
 13 15  1  0
 16 13  1  0
  2 17  1  0
  5 18  1  0
  8 19  1  0
  9 20  1  0
 21 22  1  0
 22 23  1  0
 23 24  1  0
 24 25  1  1
 24 26  1  0
 26 27  1  0
 26 28  1  0
 28 29  1  0
 29 22  1  0
 23 30  1  1
 24 31  1  0
 28 32  1  0
 28 33  1  0
 29 34  1  0
 29 35  1  0
 10 23  1  0
M  ISO  7  17  14  18  14  19  14  20  14  21   5  25   8  27   5
M  END
>  <DihAtoms>  (1) 
8,9,22,21

>  <DihDeg>  (1) 
17.192985159976832

$$$$
