
     RDKit          3D

 35 37  0  0  0  0  0  0  0  0999 V2000
   36.8002   30.7412   49.1852 C   0  0  0  0  0  0  0  0  0  0  0  0
   37.9439   31.1261   48.4804 C   0  0  0  0  0  0  0  0  0  0  0  0
   37.9309   31.1020   47.0980 C   0  0  0  0  0  0  0  0  0  0  0  0
   36.7935   30.7005   46.4818 N   0  0  0  0  0  0  0  0  0  0  0  0
   35.6934   30.3307   47.1929 C   0  0  0  0  0  0  0  0  0  0  0  0
   35.6878   30.3476   48.5178 N   0  0  0  0  0  0  0  0  0  0  0  0
   39.0859   31.4896   46.3070 C   0  0  0  0  0  0  0  0  0  0  0  0
   39.7752   30.6812   45.4472 C   0  0  0  0  0  0  0  0  0  0  0  0
   40.7780   31.4902   44.9367 C   0  0  0  0  0  0  0  0  0  0  0  0
   40.6841   32.7154   45.4696 N   0  0  0  0  0  0  0  0  0  0  0  0
   39.6514   32.7131   46.3052 N   0  0  0  0  0  0  0  0  0  0  0  0
   36.9653   30.8177   50.5578 O   0  0  0  0  0  0  0  0  0  0  0  0
   36.9428   29.7065   51.4137 C   0  0  0  0  0  0  0  0  0  0  0  0
   35.6636   29.2573   51.6554 F   0  0  0  0  0  0  0  0  0  0  0  0
   37.5681   30.0405   52.5922 F   0  0  0  0  0  0  0  0  0  0  0  0
   37.6719   28.6893   50.8221 F   0  0  0  0  0  0  0  0  0  0  0  0
   38.8566   31.4477   48.9363 H   0  0  0  0  0  0  0  0  0  0  0  0
   34.8308   30.0250   46.6367 H   0  0  0  0  0  0  0  0  0  0  0  0
   39.6310   29.6609   45.1836 H   0  0  0  0  0  0  0  0  0  0  0  0
   41.5604   31.2688   44.2204 H   0  0  0  0  0  0  0  0  0  0  0  0
   41.7809   35.1799   43.6848 H   0  0  0  0  0  0  0  0  0  0  0  0
   40.9821   34.7043   44.1612 N   0  0  0  0  0  0  0  0  0  0  0  0
   41.5241   33.8813   45.2239 C   0  0  1  0  0  0  0  0  0  0  0  0
   41.6453   34.7359   46.4658 C   0  0  1  0  0  0  0  0  0  0  0  0
   42.3188   34.3198   47.2185 H   0  0  0  0  0  0  0  0  0  0  0  0
   40.3006   34.9069   46.9739 N   0  0  0  0  0  0  0  0  0  0  0  0
   39.9250   34.0748   47.4540 H   0  0  0  0  0  0  0  0  0  0  0  0
   39.4317   35.4146   45.9554 C   0  0  0  0  0  0  0  0  0  0  0  0
   40.1021   35.7330   44.6514 C   0  0  0  0  0  0  0  0  0  0  0  0
   42.5425   33.5169   44.9765 H   0  0  0  0  0  0  0  0  0  0  0  0
   41.9942   35.7395   46.1606 H   0  0  0  0  0  0  0  0  0  0  0  0
   38.4997   34.7987   45.8125 H   0  0  0  0  0  0  0  0  0  0  0  0
   39.0323   36.3988   46.3402 H   0  0  0  0  0  0  0  0  0  0  0  0
   40.6079   36.7364   44.7194 H   0  0  0  0  0  0  0  0  0  0  0  0
   39.2906   35.8667   43.8942 H   0  0  0  0  0  0  0  0  0  0  0  0
  1 12  1  0
  2  1  2  0
  3  2  1  0
  4  3  2  0
  4  5  1  0
  5  6  2  0
  6  1  1  0
  7 11  2  0
  7  3  1  0
  8  7  1  0
  9  8  2  0
  9 10  1  0
 10 11  1  0
 12 13  1  0
 13 14  1  0
 13 15  1  0
 16 13  1  0
  2 17  1  0
  5 18  1  0
  8 19  1  0
  9 20  1  0
 21 22  1  0
 22 23  1  0
 23 24  1  0
 24 25  1  1
 24 26  1  0
 26 27  1  0
 26 28  1  0
 28 29  1  0
 29 22  1  0
 23 30  1  6
 24 31  1  0
 28 32  1  0
 28 33  1  0
 29 34  1  0
 29 35  1  0
 10 23  1  0
M  ISO  7  17  14  18  14  19  14  20  14  21   5  25   8  27   5
M  END
>  <DihAtoms>  (1) 
8,9,22,21

>  <DihDeg>  (1) 
17.192985159976832

$$$$
