
 OpenBabel03272506153D

 28 30  0  0  1  0  0  0  0  0999 V2000
   35.4700   19.7720   33.4170 C   0  0  0  0  0  0  0  0  0  0  0  0
   35.3230   19.2830   32.1130 C   0  0  0  0  0  0  0  0  0  0  0  0
   35.9490   20.0060   31.0890 C   0  0  0  0  0  0  0  0  0  0  0  0
   36.6590   21.1260   31.3930 N   0  0  0  0  0  0  0  0  0  0  0  0
   36.7690   21.5560   32.6690 C   0  0  0  0  0  0  0  0  0  0  0  0
   36.1770   20.8810   33.6790 N   0  0  0  0  0  0  0  0  0  0  0  0
   37.5010   22.7190   33.0320 N   0  0  0  0  0  0  0  0  0  0  0  0
   37.6820   23.6760   32.1030 C   0  0  0  0  0  0  0  0  0  0  0  0
   38.4020   24.7680   32.5310 C   0  0  0  0  0  0  0  0  0  0  0  0
   38.9110   24.9080   33.7970 C   0  0  0  0  0  0  0  0  0  0  0  0
   39.5680   25.9090   34.1850 O   0  0  0  0  0  0  0  0  0  0  0  0
   38.6950   23.9110   34.6920 N   0  0  0  0  0  0  0  0  0  0  0  0
   37.9920   22.8410   34.2800 C   0  0  0  0  0  0  0  0  0  0  0  0
   37.7680   21.8870   35.0800 O   0  0  0  0  0  0  0  0  0  0  0  0
   34.9940   19.2320   34.2240 H   0  0  0  0  0  0  0  0  0  0  0  0
   34.7520   18.3910   31.9090 H   0  0  0  0  0  0  0  0  0  0  0  0
   35.8700   19.6730   30.0570 H   0  0  0  0  0  0  0  0  0  0  0  0
   37.2880   23.5780   31.1030 H   0  0  0  0  0  0  0  0  0  0  0  0
   38.5900   25.5800   31.8400 H   0  0  0  0  0  0  0  0  0  0  0  0
   38.3050   25.4590   37.2380 H   0  0  0  0  0  0  0  0  0  0  0  0
   38.1120   24.5110   36.8430 N   0  0  0  0  0  0  0  0  0  0  0  0
   39.1940   23.9690   36.0520 C   0  0  1  0  0  3  0  0  0  0  0  0
   39.7670   22.7050   36.5540 C   0  0  0  0  0  3  0  0  0  0  0  0
   40.8760   22.7150   36.3650 H   0  0  0  0  0  0  0  0  0  0  0  0
   39.6630   22.4490   37.9500 N   0  0  0  0  0  0  0  0  0  0  0  0
   39.5820   21.4640   38.2230 H   0  0  0  0  0  0  0  0  0  0  0  0
   38.9190   23.3710   38.7320 C   0  0  0  0  0  2  0  0  0  0  0  0
   37.6600   23.6820   37.9090 C   0  0  0  0  0  2  0  0  0  0  0  0
  1  6  1  0  0  0  0
  1 15  1  0  0  0  0
  2  1  2  0  0  0  0
  3  4  2  0  0  0  0
  3  2  1  0  0  0  0
  4  5  1  0  0  0  0
  5  7  1  0  0  0  0
  5  6  2  0  0  0  0
  7 13  1  0  0  0  0
  8  9  2  0  0  0  0
  8  7  1  0  0  0  0
  9 10  1  0  0  0  0
 10 11  2  0  0  0  0
 10 12  1  0  0  0  0
 13 12  1  0  0  0  0
 13 14  2  0  0  0  0
 16  2  1  0  0  0  0
 17  3  1  0  0  0  0
 18  8  1  0  0  0  0
 19  9  1  0  0  0  0
 21 20  1  0  0  0  0
 21 28  1  0  0  0  0
 22 12  1  6  0  0  0
 22 23  1  0  0  0  0
 22 21  1  0  0  0  0
 23 25  1  0  0  0  0
 24 23  1  0  0  0  0
 25 26  1  0  0  0  0
 25 27  1  0  0  0  0
 28 27  1  0  0  0  0
M  END
>  <minimizedAffinity>
-5.64341116

$$$$

 OpenBabel03272506153D

 28 30  0  0  1  0  0  0  0  0999 V2000
   37.8130   24.1230   38.0220 C   0  0  0  0  0  0  0  0  0  0  0  0
   38.8110   23.3930   38.6790 C   0  0  0  0  0  0  0  0  0  0  0  0
   39.8100   22.8200   37.8820 C   0  0  0  0  0  0  0  0  0  0  0  0
   39.7740   22.9910   36.5320 N   0  0  0  0  0  0  0  0  0  0  0  0
   38.7880   23.7050   35.9470 C   0  0  0  0  0  0  0  0  0  0  0  0
   37.8100   24.2700   36.6900 N   0  0  0  0  0  0  0  0  0  0  0  0
   38.7120   23.9100   34.5430 N   0  0  0  0  0  0  0  0  0  0  0  0
   39.3110   23.0180   33.7330 C   0  0  0  0  0  0  0  0  0  0  0  0
   39.1940   23.2880   32.3880 C   0  0  0  0  0  0  0  0  0  0  0  0
   38.5270   24.3710   31.8740 C   0  0  0  0  0  0  0  0  0  0  0  0
   38.4210   24.6140   30.6440 O   0  0  0  0  0  0  0  0  0  0  0  0
   37.9410   25.2370   32.7400 N   0  0  0  0  0  0  0  0  0  0  0  0
   38.0520   24.9790   34.0550 C   0  0  0  0  0  0  0  0  0  0  0  0
   37.5220   25.7590   34.8980 O   0  0  0  0  0  0  0  0  0  0  0  0
   37.0310   24.5730   38.6170 H   0  0  0  0  0  0  0  0  0  0  0  0
   38.8070   23.2770   39.7530 H   0  0  0  0  0  0  0  0  0  0  0  0
   40.6100   22.2420   38.3370 H   0  0  0  0  0  0  0  0  0  0  0  0
   39.8390   22.1620   34.1240 H   0  0  0  0  0  0  0  0  0  0  0  0
   39.6500   22.6150   31.6730 H   0  0  0  0  0  0  0  0  0  0  0  0
   38.1650   28.2340   32.7170 H   0  0  0  0  0  0  0  0  0  0  0  0
   38.2170   27.4250   32.0590 N   0  0  0  0  0  0  0  0  0  0  0  0
   37.2150   26.4090   32.2910 C   0  0  1  0  0  3  0  0  0  0  0  0
   36.2910   26.1690   31.1660 C   0  0  0  0  0  3  0  0  0  0  0  0
   35.2700   25.9470   31.5820 H   0  0  0  0  0  0  0  0  0  0  0  0
   36.0650   27.2450   30.2640 N   0  0  0  0  0  0  0  0  0  0  0  0
   35.8710   26.9860   29.2910 H   0  0  0  0  0  0  0  0  0  0  0  0
   36.8290   28.4280   30.4490 C   0  0  0  0  0  2  0  0  0  0  0  0
   38.2600   27.9480   30.7340 C   0  0  0  0  0  2  0  0  0  0  0  0
  1 15  1  0  0  0  0
  1  2  1  0  0  0  0
  2 16  1  0  0  0  0
  3 17  1  0  0  0  0
  3  2  2  0  0  0  0
  4  3  1  0  0  0  0
  5  4  2  0  0  0  0
  5  6  1  0  0  0  0
  6  1  2  0  0  0  0
  7  5  1  0  0  0  0
  8 18  1  0  0  0  0
  8  7  1  0  0  0  0
  9  8  2  0  0  0  0
 10  9  1  0  0  0  0
 10 12  1  0  0  0  0
 11 10  2  0  0  0  0
 12 13  1  0  0  0  0
 13  7  1  0  0  0  0
 13 14  2  0  0  0  0
 19  9  1  0  0  0  0
 21 22  1  0  0  0  0
 21 20  1  0  0  0  0
 22 12  1  6  0  0  0
 23 24  1  0  0  0  0
 23 22  1  0  0  0  0
 25 27  1  0  0  0  0
 25 23  1  0  0  0  0
 26 25  1  0  0  0  0
 27 28  1  0  0  0  0
 28 21  1  0  0  0  0
M  END
>  <minimizedAffinity>
-5.36885643

$$$$

 OpenBabel03272506153D

 28 30  0  0  1  0  0  0  0  0999 V2000
   38.3960   27.5160   31.9570 C   0  0  0  0  0  0  0  0  0  0  0  0
   37.4720   28.3490   31.3150 C   0  0  0  0  0  0  0  0  0  0  0  0
   36.2670   27.7660   30.9040 C   0  0  0  0  0  0  0  0  0  0  0  0
   36.0440   26.4440   31.1390 N   0  0  0  0  0  0  0  0  0  0  0  0
   36.9690   25.6830   31.7620 C   0  0  0  0  0  0  0  0  0  0  0  0
   38.1420   26.2170   32.1700 N   0  0  0  0  0  0  0  0  0  0  0  0
   36.7790   24.3000   32.0290 N   0  0  0  0  0  0  0  0  0  0  0  0
   35.9190   23.6120   31.2550 C   0  0  0  0  0  0  0  0  0  0  0  0
   35.7890   22.2800   31.5780 C   0  0  0  0  0  0  0  0  0  0  0  0
   36.4650   21.6650   32.6010 C   0  0  0  0  0  0  0  0  0  0  0  0
   36.3440   20.4470   32.8930 O   0  0  0  0  0  0  0  0  0  0  0  0
   37.3210   22.4100   33.3470 N   0  0  0  0  0  0  0  0  0  0  0  0
   37.4530   23.7120   33.0360 C   0  0  0  0  0  0  0  0  0  0  0  0
   38.2380   24.4430   33.7060 O   0  0  0  0  0  0  0  0  0  0  0  0
   39.3330   27.9430   32.2810 H   0  0  0  0  0  0  0  0  0  0  0  0
   37.6820   29.3940   31.1450 H   0  0  0  0  0  0  0  0  0  0  0  0
   35.5110   28.3650   30.4010 H   0  0  0  0  0  0  0  0  0  0  0  0
   35.3800   24.0840   30.4480 H   0  0  0  0  0  0  0  0  0  0  0  0
   35.1140   21.6600   31.0010 H   0  0  0  0  0  0  0  0  0  0  0  0
   39.9300   21.0220   33.8930 H   0  0  0  0  0  0  0  0  0  0  0  0
   39.4670   21.9450   34.0560 N   0  0  0  0  0  0  0  0  0  0  0  0
   38.0790   21.8480   34.4480 C   0  0  1  0  0  3  0  0  0  0  0  0
   37.7580   22.4150   35.7710 C   0  0  0  0  0  3  0  0  0  0  0  0
   36.9710   21.7740   36.2540 H   0  0  0  0  0  0  0  0  0  0  0  0
   38.8030   22.4560   36.7360 N   0  0  0  0  0  0  0  0  0  0  0  0
   38.7710   23.2330   37.4040 H   0  0  0  0  0  0  0  0  0  0  0  0
   40.0990   22.0540   36.3170 C   0  0  0  0  0  2  0  0  0  0  0  0
   40.2980   22.6960   34.9360 C   0  0  0  0  0  2  0  0  0  0  0  0
  1  6  1  0  0  0  0
  1 15  1  0  0  0  0
  2  1  2  0  0  0  0
  3  4  2  0  0  0  0
  3  2  1  0  0  0  0
  4  5  1  0  0  0  0
  5  7  1  0  0  0  0
  5  6  2  0  0  0  0
  7 13  1  0  0  0  0
  8  9  2  0  0  0  0
  8  7  1  0  0  0  0
  9 10  1  0  0  0  0
 10 11  2  0  0  0  0
 10 12  1  0  0  0  0
 13 12  1  0  0  0  0
 13 14  2  0  0  0  0
 16  2  1  0  0  0  0
 17  3  1  0  0  0  0
 18  8  1  0  0  0  0
 19  9  1  0  0  0  0
 20 21  1  0  0  0  0
 21 22  1  0  0  0  0
 21 28  1  0  0  0  0
 22 12  1  6  0  0  0
 22 23  1  0  0  0  0
 23 24  1  0  0  0  0
 23 25  1  0  0  0  0
 25 26  1  0  0  0  0
 27 25  1  0  0  0  0
 28 27  1  0  0  0  0
M  END
>  <minimizedAffinity>
-5.08328152

$$$$

 OpenBabel03272506153D

 28 30  0  0  1  0  0  0  0  0999 V2000
   41.4400   27.1870   33.7950 C   0  0  0  0  0  0  0  0  0  0  0  0
   42.4180   27.4620   32.8320 C   0  0  0  0  0  0  0  0  0  0  0  0
   43.4450   26.5200   32.6820 C   0  0  0  0  0  0  0  0  0  0  0  0
   43.4510   25.4020   33.4580 N   0  0  0  0  0  0  0  0  0  0  0  0
   42.4830   25.1850   34.3740 C   0  0  0  0  0  0  0  0  0  0  0  0
   41.4790   26.0750   34.5420 N   0  0  0  0  0  0  0  0  0  0  0  0
   42.4500   24.0330   35.2050 N   0  0  0  0  0  0  0  0  0  0  0  0
   43.6060   23.3880   35.4510 C   0  0  0  0  0  0  0  0  0  0  0  0
   43.4890   22.2810   36.2610 C   0  0  0  0  0  0  0  0  0  0  0  0
   42.3060   21.8380   36.7950 C   0  0  0  0  0  0  0  0  0  0  0  0
   42.2040   20.8260   37.5360 O   0  0  0  0  0  0  0  0  0  0  0  0
   41.1720   22.5290   36.5130 N   0  0  0  0  0  0  0  0  0  0  0  0
   41.2790   23.6120   35.7220 C   0  0  0  0  0  0  0  0  0  0  0  0
   40.2480   24.2850   35.4330 O   0  0  0  0  0  0  0  0  0  0  0  0
   40.6390   27.9000   33.9290 H   0  0  0  0  0  0  0  0  0  0  0  0
   42.3820   28.3590   32.2340 H   0  0  0  0  0  0  0  0  0  0  0  0
   44.2320   26.6800   31.9490 H   0  0  0  0  0  0  0  0  0  0  0  0
   44.5430   23.7260   35.0360 H   0  0  0  0  0  0  0  0  0  0  0  0
   44.3760   21.7100   36.5040 H   0  0  0  0  0  0  0  0  0  0  0  0
   39.7280   22.1930   39.1270 H   0  0  0  0  0  0  0  0  0  0  0  0
   39.7360   22.8250   38.2950 N   0  0  0  0  0  0  0  0  0  0  0  0
   39.8770   22.1370   37.0320 C   0  0  1  0  0  3  0  0  0  0  0  0
   38.7550   22.3160   36.0900 C   0  0  0  0  0  3  0  0  0  0  0  0
   38.5970   21.3510   35.5340 H   0  0  0  0  0  0  0  0  0  0  0  0
   37.4760   22.6030   36.6430 N   0  0  0  0  0  0  0  0  0  0  0  0
   36.8590   23.1900   36.0720 H   0  0  0  0  0  0  0  0  0  0  0  0
   37.3990   22.8070   38.0460 C   0  0  0  0  0  2  0  0  0  0  0  0
   38.6070   23.6890   38.3970 C   0  0  0  0  0  2  0  0  0  0  0  0
  1 15  1  0  0  0  0
  1  6  1  0  0  0  0
  2  1  2  0  0  0  0
  3  2  1  0  0  0  0
  3  4  2  0  0  0  0
  4  5  1  0  0  0  0
  5  6  2  0  0  0  0
  5  7  1  0  0  0  0
  7  8  1  0  0  0  0
  7 13  1  0  0  0  0
  8  9  2  0  0  0  0
  9 19  1  0  0  0  0
  9 10  1  0  0  0  0
 10 11  2  0  0  0  0
 12 10  1  0  0  0  0
 13 12  1  0  0  0  0
 14 13  2  0  0  0  0
 16  2  1  0  0  0  0
 17  3  1  0  0  0  0
 18  8  1  0  0  0  0
 21 28  1  0  0  0  0
 21 20  1  0  0  0  0
 22 12  1  6  0  0  0
 22 21  1  0  0  0  0
 23 25  1  0  0  0  0
 23 22  1  0  0  0  0
 24 23  1  0  0  0  0
 25 27  1  0  0  0  0
 26 25  1  0  0  0  0
 27 28  1  0  0  0  0
M  END
>  <minimizedAffinity>
-5.00226259

$$$$

 OpenBabel03272506153D

 28 30  0  0  1  0  0  0  0  0999 V2000
   39.6880   22.9990   36.5980 C   0  0  0  0  0  0  0  0  0  0  0  0
   39.2040   23.0160   37.9120 C   0  0  0  0  0  0  0  0  0  0  0  0
   38.2200   23.9660   38.2160 C   0  0  0  0  0  0  0  0  0  0  0  0
   37.7810   24.8130   37.2450 N   0  0  0  0  0  0  0  0  0  0  0  0
   38.2810   24.7550   35.9920 C   0  0  0  0  0  0  0  0  0  0  0  0
   39.2310   23.8500   35.6690 N   0  0  0  0  0  0  0  0  0  0  0  0
   37.8510   25.6190   34.9490 N   0  0  0  0  0  0  0  0  0  0  0  0
   37.3180   26.8090   35.2820 C   0  0  0  0  0  0  0  0  0  0  0  0
   36.9250   27.5860   34.2160 C   0  0  0  0  0  0  0  0  0  0  0  0
   37.0510   27.2120   32.9020 C   0  0  0  0  0  0  0  0  0  0  0  0
   36.6910   27.9260   31.9300 O   0  0  0  0  0  0  0  0  0  0  0  0
   37.5970   26.0010   32.6260 N   0  0  0  0  0  0  0  0  0  0  0  0
   37.9840   25.2370   33.6640 C   0  0  0  0  0  0  0  0  0  0  0  0
   38.4970   24.1000   33.4530 O   0  0  0  0  0  0  0  0  0  0  0  0
   40.4490   22.2760   36.3420 H   0  0  0  0  0  0  0  0  0  0  0  0
   39.5760   22.3290   38.6570 H   0  0  0  0  0  0  0  0  0  0  0  0
   37.8070   24.0250   39.2200 H   0  0  0  0  0  0  0  0  0  0  0  0
   37.2120   27.1150   36.3120 H   0  0  0  0  0  0  0  0  0  0  0  0
   36.4860   28.5570   34.4050 H   0  0  0  0  0  0  0  0  0  0  0  0
   39.1670   26.6080   30.1360 H   0  0  0  0  0  0  0  0  0  0  0  0
   39.1180   25.8890   30.8930 N   0  0  0  0  0  0  0  0  0  0  0  0
   37.7710   25.5200   31.2690 C   0  0  1  0  0  3  0  0  0  0  0  0
   37.4300   24.0980   31.0700 C   0  0  0  0  0  3  0  0  0  0  0  0
   36.3570   24.0310   30.7390 H   0  0  0  0  0  0  0  0  0  0  0  0
   38.1420   23.3900   30.0620 N   0  0  0  0  0  0  0  0  0  0  0  0
   38.2920   22.3910   30.2340 H   0  0  0  0  0  0  0  0  0  0  0  0
   39.2010   24.0710   29.4060 C   0  0  0  0  0  2  0  0  0  0  0  0
   39.9640   24.8060   30.5170 C   0  0  0  0  0  2  0  0  0  0  0  0
  1  2  1  0  0  0  0
  2  3  2  0  0  0  0
  2 16  1  0  0  0  0
  3 17  1  0  0  0  0
  4  3  1  0  0  0  0
  5  4  2  0  0  0  0
  6  5  1  0  0  0  0
  6  1  2  0  0  0  0
  7  8  1  0  0  0  0
  7  5  1  0  0  0  0
  8 18  1  0  0  0  0
  9 19  1  0  0  0  0
  9  8  2  0  0  0  0
 10  9  1  0  0  0  0
 11 10  2  0  0  0  0
 12 10  1  0  0  0  0
 12 13  1  0  0  0  0
 13  7  1  0  0  0  0
 14 13  2  0  0  0  0
 15  1  1  0  0  0  0
 20 21  1  0  0  0  0
 21 22  1  0  0  0  0
 22 12  1  1  0  0  0
 23 22  1  0  0  0  0
 24 23  1  0  0  0  0
 25 26  1  0  0  0  0
 25 23  1  0  0  0  0
 27 25  1  0  0  0  0
 27 28  1  0  0  0  0
 28 21  1  0  0  0  0
M  END
>  <minimizedAffinity>
-4.94435978

$$$$

 OpenBabel03272506153D

 28 30  0  0  1  0  0  0  0  0999 V2000
   40.7360   27.5010   31.1800 C   0  0  0  0  0  0  0  0  0  0  0  0
   40.0600   27.8780   30.0140 C   0  0  0  0  0  0  0  0  0  0  0  0
   38.8960   27.1660   29.6940 C   0  0  0  0  0  0  0  0  0  0  0  0
   38.4770   26.1600   30.5110 N   0  0  0  0  0  0  0  0  0  0  0  0
   39.1670   25.8360   31.6250 C   0  0  0  0  0  0  0  0  0  0  0  0
   40.2930   26.5040   31.9600 N   0  0  0  0  0  0  0  0  0  0  0  0
   38.7660   24.7950   32.5060 N   0  0  0  0  0  0  0  0  0  0  0  0
   37.9970   23.8040   32.0170 C   0  0  0  0  0  0  0  0  0  0  0  0
   37.6500   22.8360   32.9330 C   0  0  0  0  0  0  0  0  0  0  0  0
   38.0370   22.8450   34.2490 C   0  0  0  0  0  0  0  0  0  0  0  0
   37.7180   21.9580   35.0820 O   0  0  0  0  0  0  0  0  0  0  0  0
   38.8140   23.8700   34.6850 N   0  0  0  0  0  0  0  0  0  0  0  0
   39.1570   24.8190   33.7950 C   0  0  0  0  0  0  0  0  0  0  0  0
   39.8790   25.7920   34.1580 O   0  0  0  0  0  0  0  0  0  0  0  0
   41.6370   28.0350   31.4460 H   0  0  0  0  0  0  0  0  0  0  0  0
   40.4210   28.6810   29.3890 H   0  0  0  0  0  0  0  0  0  0  0  0
   38.3290   27.4150   28.8000 H   0  0  0  0  0  0  0  0  0  0  0  0
   37.6850   23.7860   30.9840 H   0  0  0  0  0  0  0  0  0  0  0  0
   37.0320   22.0070   32.6140 H   0  0  0  0  0  0  0  0  0  0  0  0
   38.3660   25.4990   37.1700 H   0  0  0  0  0  0  0  0  0  0  0  0
   38.1730   24.5420   36.7980 N   0  0  0  0  0  0  0  0  0  0  0  0
   39.2720   23.9640   36.0570 C   0  0  1  0  0  3  0  0  0  0  0  0
   39.8150   22.7100   36.6140 C   0  0  0  0  0  3  0  0  0  0  0  0
   40.9290   22.7020   36.4570 H   0  0  0  0  0  0  0  0  0  0  0  0
   39.6660   22.4980   38.0130 N   0  0  0  0  0  0  0  0  0  0  0  0
   39.5660   21.5230   38.3130 H   0  0  0  0  0  0  0  0  0  0  0  0
   38.9100   23.4510   38.7440 C   0  0  0  0  0  2  0  0  0  0  0  0
   37.6800   23.7510   37.8750 C   0  0  0  0  0  2  0  0  0  0  0  0
  1 15  1  0  0  0  0
  1  6  1  0  0  0  0
  2  1  2  0  0  0  0
  3  2  1  0  0  0  0
  3  4  2  0  0  0  0
  4  5  1  0  0  0  0
  5  6  2  0  0  0  0
  5  7  1  0  0  0  0
  7 13  1  0  0  0  0
  8  7  1  0  0  0  0
  8  9  2  0  0  0  0
  9 10  1  0  0  0  0
 10 12  1  0  0  0  0
 10 11  2  0  0  0  0
 13 14  2  0  0  0  0
 13 12  1  0  0  0  0
 16  2  1  0  0  0  0
 17  3  1  0  0  0  0
 18  8  1  0  0  0  0
 19  9  1  0  0  0  0
 21 20  1  0  0  0  0
 21 28  1  0  0  0  0
 22 12  1  6  0  0  0
 22 23  1  0  0  0  0
 22 21  1  0  0  0  0
 23 25  1  0  0  0  0
 24 23  1  0  0  0  0
 25 26  1  0  0  0  0
 25 27  1  0  0  0  0
 28 27  1  0  0  0  0
M  END
>  <minimizedAffinity>
-4.89008236

$$$$

 OpenBabel03272506153D

 28 30  0  0  1  0  0  0  0  0999 V2000
   36.1230   20.2880   30.7760 C   0  0  0  0  0  0  0  0  0  0  0  0
   36.6330   19.2700   29.9620 C   0  0  0  0  0  0  0  0  0  0  0  0
   37.9730   18.9110   30.1570 C   0  0  0  0  0  0  0  0  0  0  0  0
   38.7100   19.5500   31.1060 N   0  0  0  0  0  0  0  0  0  0  0  0
   38.1700   20.5270   31.8650 C   0  0  0  0  0  0  0  0  0  0  0  0
   36.8800   20.8960   31.7010 N   0  0  0  0  0  0  0  0  0  0  0  0
   38.9010   21.2200   32.8680 N   0  0  0  0  0  0  0  0  0  0  0  0
   40.2410   21.2730   32.7600 C   0  0  0  0  0  0  0  0  0  0  0  0
   40.8760   21.9600   33.7710 C   0  0  0  0  0  0  0  0  0  0  0  0
   40.2280   22.5560   34.8230 C   0  0  0  0  0  0  0  0  0  0  0  0
   40.8120   23.1830   35.7450 O   0  0  0  0  0  0  0  0  0  0  0  0
   38.8750   22.4700   34.8780 N   0  0  0  0  0  0  0  0  0  0  0  0
   38.2480   21.8010   33.8940 C   0  0  0  0  0  0  0  0  0  0  0  0
   36.9880   21.6950   33.9060 O   0  0  0  0  0  0  0  0  0  0  0  0
   35.0920   20.5830   30.6430 H   0  0  0  0  0  0  0  0  0  0  0  0
   36.0190   18.7850   29.2180 H   0  0  0  0  0  0  0  0  0  0  0  0
   38.4240   18.1250   29.5540 H   0  0  0  0  0  0  0  0  0  0  0  0
   40.7630   20.8080   31.9380 H   0  0  0  0  0  0  0  0  0  0  0  0
   41.9550   22.0460   33.7530 H   0  0  0  0  0  0  0  0  0  0  0  0
   37.7400   21.7870   37.5770 H   0  0  0  0  0  0  0  0  0  0  0  0
   38.4980   22.3690   37.1530 N   0  0  0  0  0  0  0  0  0  0  0  0
   38.1040   23.0680   35.9510 C   0  0  1  0  0  3  0  0  0  0  0  0
   38.1870   24.5390   36.0240 C   0  0  0  0  0  3  0  0  0  0  0  0
   37.3300   24.9750   35.4400 H   0  0  0  0  0  0  0  0  0  0  0  0
   38.0640   25.1380   37.3080 N   0  0  0  0  0  0  0  0  0  0  0  0
   38.5840   26.0090   37.4520 H   0  0  0  0  0  0  0  0  0  0  0  0
   37.9840   24.2730   38.4310 C   0  0  0  0  0  2  0  0  0  0  0  0
   39.0420   23.1870   38.1850 C   0  0  0  0  0  2  0  0  0  0  0  0
  1  6  1  0  0  0  0
  2  3  1  0  0  0  0
  2  1  2  0  0  0  0
  3  4  2  0  0  0  0
  4  5  1  0  0  0  0
  5  7  1  0  0  0  0
  6  5  2  0  0  0  0
  7 13  1  0  0  0  0
  8  7  1  0  0  0  0
  8  9  2  0  0  0  0
  9 10  1  0  0  0  0
 10 12  1  0  0  0  0
 10 11  2  0  0  0  0
 13 14  2  0  0  0  0
 13 12  1  0  0  0  0
 15  1  1  0  0  0  0
 16  2  1  0  0  0  0
 17  3  1  0  0  0  0
 18  8  1  0  0  0  0
 19  9  1  0  0  0  0
 21 20  1  0  0  0  0
 21 28  1  0  0  0  0
 22 12  1  6  0  0  0
 22 23  1  0  0  0  0
 22 21  1  0  0  0  0
 23 25  1  0  0  0  0
 24 23  1  0  0  0  0
 25 26  1  0  0  0  0
 25 27  1  0  0  0  0
 28 27  1  0  0  0  0
M  END
>  <minimizedAffinity>
-4.80315208

$$$$

 OpenBabel03272506153D

 28 30  0  0  1  0  0  0  0  0999 V2000
   37.0660   27.8090   33.4380 C   0  0  0  0  0  0  0  0  0  0  0  0
   36.0910   28.3540   32.5940 C   0  0  0  0  0  0  0  0  0  0  0  0
   35.5330   27.5010   31.6320 C   0  0  0  0  0  0  0  0  0  0  0  0
   35.9500   26.2080   31.5570 N   0  0  0  0  0  0  0  0  0  0  0  0
   36.8950   25.7310   32.3950 C   0  0  0  0  0  0  0  0  0  0  0  0
   37.4520   26.5290   33.3330 N   0  0  0  0  0  0  0  0  0  0  0  0
   37.3590   24.3890   32.3520 N   0  0  0  0  0  0  0  0  0  0  0  0
   37.2430   23.7080   31.1970 C   0  0  0  0  0  0  0  0  0  0  0  0
   37.7130   22.4150   31.2380 C   0  0  0  0  0  0  0  0  0  0  0  0
   38.2630   21.8290   32.3500 C   0  0  0  0  0  0  0  0  0  0  0  0
   38.6920   20.6460   32.3830 O   0  0  0  0  0  0  0  0  0  0  0  0
   38.3550   22.5650   33.4870 N   0  0  0  0  0  0  0  0  0  0  0  0
   37.8980   23.8300   33.4530 C   0  0  0  0  0  0  0  0  0  0  0  0
   37.9630   24.5510   34.4900 O   0  0  0  0  0  0  0  0  0  0  0  0
   37.5110   28.4480   34.1860 H   0  0  0  0  0  0  0  0  0  0  0  0
   35.7850   29.3850   32.6820 H   0  0  0  0  0  0  0  0  0  0  0  0
   34.7710   27.8700   30.9490 H   0  0  0  0  0  0  0  0  0  0  0  0
   36.8120   24.1570   30.3150 H   0  0  0  0  0  0  0  0  0  0  0  0
   37.6540   21.8030   30.3460 H   0  0  0  0  0  0  0  0  0  0  0  0
   41.0010   21.7390   34.6480 H   0  0  0  0  0  0  0  0  0  0  0  0
   40.2900   22.4980   34.7440 N   0  0  0  0  0  0  0  0  0  0  0  0
   38.9210   22.0320   34.7110 C   0  0  1  0  0  3  0  0  0  0  0  0
   38.1330   22.3100   35.9270 C   0  0  0  0  0  3  0  0  0  0  0  0
   37.4410   21.4410   36.1100 H   0  0  0  0  0  0  0  0  0  0  0  0
   38.8450   22.4420   37.1510 N   0  0  0  0  0  0  0  0  0  0  0  0
   38.4410   23.0830   37.8410 H   0  0  0  0  0  0  0  0  0  0  0  0
   40.2640   22.4100   37.0920 C   0  0  0  0  0  2  0  0  0  0  0  0
   40.6410   23.2780   35.8830 C   0  0  0  0  0  2  0  0  0  0  0  0
  1 15  1  0  0  0  0
  2 16  1  0  0  0  0
  2  1  2  0  0  0  0
  3  2  1  0  0  0  0
  4  3  2  0  0  0  0
  4  5  1  0  0  0  0
  5  6  2  0  0  0  0
  6  1  1  0  0  0  0
  7  5  1  0  0  0  0
  7 13  1  0  0  0  0
  8  9  2  0  0  0  0
  8  7  1  0  0  0  0
  9 10  1  0  0  0  0
 10 11  2  0  0  0  0
 10 12  1  0  0  0  0
 13 12  1  0  0  0  0
 13 14  2  0  0  0  0
 17  3  1  0  0  0  0
 18  8  1  0  0  0  0
 19  9  1  0  0  0  0
 20 21  1  0  0  0  0
 21 28  1  0  0  0  0
 22 12  1  6  0  0  0
 22 21  1  0  0  0  0
 22 23  1  0  0  0  0
 23 24  1  0  0  0  0
 23 25  1  0  0  0  0
 25 26  1  0  0  0  0
 27 25  1  0  0  0  0
 28 27  1  0  0  0  0
M  END
>  <minimizedAffinity>
-4.79622555

$$$$

 OpenBabel03272506153D

 28 30  0  0  1  0  0  0  0  0999 V2000
   35.8010   27.8070   31.5430 C   0  0  0  0  0  0  0  0  0  0  0  0
   36.6830   28.7210   30.9530 C   0  0  0  0  0  0  0  0  0  0  0  0
   37.9810   28.2690   30.6830 C   0  0  0  0  0  0  0  0  0  0  0  0
   38.3260   26.9900   30.9960 N   0  0  0  0  0  0  0  0  0  0  0  0
   37.4370   26.1480   31.5650 C   0  0  0  0  0  0  0  0  0  0  0  0
   36.1770   26.5550   31.8370 N   0  0  0  0  0  0  0  0  0  0  0  0
   37.7540   24.8050   31.9060 N   0  0  0  0  0  0  0  0  0  0  0  0
   39.0430   24.4890   32.1290 C   0  0  0  0  0  0  0  0  0  0  0  0
   39.2680   23.1700   32.4530 C   0  0  0  0  0  0  0  0  0  0  0  0
   38.2820   22.2210   32.5500 C   0  0  0  0  0  0  0  0  0  0  0  0
   38.4910   21.0160   32.8460 O   0  0  0  0  0  0  0  0  0  0  0  0
   36.9990   22.5990   32.3150 N   0  0  0  0  0  0  0  0  0  0  0  0
   36.7730   23.8870   31.9990 C   0  0  0  0  0  0  0  0  0  0  0  0
   35.5930   24.2820   31.7710 O   0  0  0  0  0  0  0  0  0  0  0  0
   34.7940   28.1340   31.7620 H   0  0  0  0  0  0  0  0  0  0  0  0
   36.3740   29.7280   30.7190 H   0  0  0  0  0  0  0  0  0  0  0  0
   38.7090   28.9340   30.2260 H   0  0  0  0  0  0  0  0  0  0  0  0
   39.8290   25.2260   32.0560 H   0  0  0  0  0  0  0  0  0  0  0  0
   40.2810   22.8400   32.6460 H   0  0  0  0  0  0  0  0  0  0  0  0
   35.0420   21.1690   30.5370 H   0  0  0  0  0  0  0  0  0  0  0  0
   35.8780   20.9660   31.1300 N   0  0  0  0  0  0  0  0  0  0  0  0
   35.8910   21.6670   32.3940 C   0  0  1  0  0  3  0  0  0  0  0  0
   35.8940   20.8050   33.5920 C   0  0  0  0  0  3  0  0  0  0  0  0
   35.2710   21.2970   34.3890 H   0  0  0  0  0  0  0  0  0  0  0  0
   35.3230   19.5090   33.4660 N   0  0  0  0  0  0  0  0  0  0  0  0
   35.7340   18.7750   34.0510 H   0  0  0  0  0  0  0  0  0  0  0  0
   34.8970   19.1020   32.1730 C   0  0  0  0  0  2  0  0  0  0  0  0
   36.0120   19.5500   31.2170 C   0  0  0  0  0  2  0  0  0  0  0  0
  1 15  1  0  0  0  0
  1  6  1  0  0  0  0
  2  1  2  0  0  0  0
  3  2  1  0  0  0  0
  3  4  2  0  0  0  0
  4  5  1  0  0  0  0
  5  6  2  0  0  0  0
  5  7  1  0  0  0  0
  7 13  1  0  0  0  0
  7  8  1  0  0  0  0
  8  9  2  0  0  0  0
  9 10  1  0  0  0  0
  9 19  1  0  0  0  0
 10 11  2  0  0  0  0
 12 10  1  0  0  0  0
 13 12  1  0  0  0  0
 14 13  2  0  0  0  0
 16  2  1  0  0  0  0
 17  3  1  0  0  0  0
 18  8  1  0  0  0  0
 20 21  1  0  0  0  0
 21 28  1  0  0  0  0
 21 22  1  0  0  0  0
 22 12  1  6  0  0  0
 22 23  1  0  0  0  0
 23 24  1  0  0  0  0
 25 23  1  0  0  0  0
 25 26  1  0  0  0  0
 27 25  1  0  0  0  0
 28 27  1  0  0  0  0
M  END
>  <minimizedAffinity>
-4.68449211

$$$$
