
 OpenBabel03272506153D

 28 30  0  0  1  0  0  0  0  0999 V2000
   40.4980   31.2030   45.2330 C   0  0  0  0  0  0  0  0  0  0  0  0
   40.5740   31.6990   43.9260 C   0  0  0  0  0  0  0  0  0  0  0  0
   39.3700   31.8240   43.2220 C   0  0  0  0  0  0  0  0  0  0  0  0
   38.2000   31.4670   43.8200 N   0  0  0  0  0  0  0  0  0  0  0  0
   38.1820   30.9920   45.0840 C   0  0  0  0  0  0  0  0  0  0  0  0
   39.3270   30.8610   45.7890 N   0  0  0  0  0  0  0  0  0  0  0  0
   36.9850   30.6090   45.7470 N   0  0  0  0  0  0  0  0  0  0  0  0
   35.9270   30.2450   44.9980 C   0  0  0  0  0  0  0  0  0  0  0  0
   34.8060   29.8910   45.7150 C   0  0  0  0  0  0  0  0  0  0  0  0
   34.7330   29.8950   47.0840 C   0  0  0  0  0  0  0  0  0  0  0  0
   33.7070   29.5690   47.7360 O   0  0  0  0  0  0  0  0  0  0  0  0
   35.8320   30.2700   47.7870 N   0  0  0  0  0  0  0  0  0  0  0  0
   36.9310   30.6170   47.0930 C   0  0  0  0  0  0  0  0  0  0  0  0
   37.9770   30.9740   47.7070 O   0  0  0  0  0  0  0  0  0  0  0  0
   41.4140   31.0960   45.7960 H   0  0  0  0  0  0  0  0  0  0  0  0
   41.5200   31.9720   43.4840 H   0  0  0  0  0  0  0  0  0  0  0  0
   39.3680   32.2040   42.2030 H   0  0  0  0  0  0  0  0  0  0  0  0
   35.9710   30.2380   43.9200 H   0  0  0  0  0  0  0  0  0  0  0  0
   33.9140   29.5860   45.1820 H   0  0  0  0  0  0  0  0  0  0  0  0
   35.5480   28.4380   50.1530 H   0  0  0  0  0  0  0  0  0  0  0  0
   36.2820   28.9900   49.6540 N   0  0  0  0  0  0  0  0  0  0  0  0
   35.8500   30.3050   49.2360 C   0  0  1  0  0  0  0  0  0  0  0  0
   36.6100   31.4290   49.8170 C   0  0  0  0  0  0  0  0  0  0  0  0
   35.8990   32.2800   50.0090 H   0  0  0  0  0  0  0  0  0  0  0  0
   37.2330   31.2160   51.0770 N   0  0  0  0  0  0  0  0  0  0  0  0
   38.1040   31.7300   51.2430 H   0  0  0  0  0  0  0  0  0  0  0  0
   37.1720   29.9070   51.6260 C   0  0  0  0  0  0  0  0  0  0  0  0
   37.4620   28.9600   50.4520 C   0  0  0  0  0  0  0  0  0  0  0  0
  1  6  1  0  0  0  0
  1 15  1  0  0  0  0
  2  1  2  0  0  0  0
  3  4  2  0  0  0  0
  3  2  1  0  0  0  0
  4  5  1  0  0  0  0
  5  7  1  0  0  0  0
  5  6  2  0  0  0  0
  7 13  1  0  0  0  0
  8  9  2  0  0  0  0
  8  7  1  0  0  0  0
  9 10  1  0  0  0  0
 10 11  2  0  0  0  0
 10 12  1  0  0  0  0
 13 14  2  0  0  0  0
 13 12  1  0  0  0  0
 16  2  1  0  0  0  0
 17  3  1  0  0  0  0
 18  8  1  0  0  0  0
 19  9  1  0  0  0  0
 21 20  1  0  0  0  0
 21 28  1  0  0  0  0
 22 12  1  6  0  0  0
 22 21  1  0  0  0  0
 22 23  1  0  0  0  0
 23 24  1  0  0  0  0
 23 25  1  0  0  0  0
 25 26  1  0  0  0  0
 25 27  1  0  0  0  0
 28 27  1  0  0  0  0
M  END
>  <minimizedAffinity>
-5.55366611

>  <minimizedRMSD>
5.17311287

$$$$
