REMARK  Name = 
REMARK  4 active torsions:
REMARK  status: ('A' for Active; 'I' for Inactive)
REMARK    1  A    between atoms: C_2  and  C_12
REMARK    2  A    between atoms: C_6  and  O_16
REMARK    3  A    between atoms: O_16  and  C_18
REMARK    4  A    between atoms: C_22  and  N_37
REMARK                            x       y       z     vdW  Elec       q    Type
REMARK                         _______ _______ _______ _____ _____    ______ ____
ROOT
ATOM      1  O   UNL     1      39.424  33.579  43.233  0.00  0.00    +0.000 OA
ENDROOT
BRANCH   1   7
ATOM      2  C   UNL     1      36.222  30.203  46.863  0.00  0.00    +0.000 A 
ATOM      3  C   UNL     1      37.080  30.756  47.809  0.00  0.00    +0.000 A 
ATOM      4  C   UNL     1      38.074  31.664  47.436  0.00  0.00    +0.000 A 
ATOM      5  C   UNL     1      38.144  31.969  46.084  0.00  0.00    +0.000 A 
ATOM      6  N   UNL     1      39.027  32.828  45.477  0.00  0.00    +0.000 N 
ATOM      7  C   UNL     1      38.727  32.815  44.170  0.00  0.00    +0.000 A 
ATOM      8  N   UNL     1      37.716  31.998  43.953  0.00  0.00    +0.000 NA
ATOM      9  C   UNL     1      37.320  31.449  45.114  0.00  0.00    +0.000 A 
ATOM     10  C   UNL     1      36.334  30.542  45.519  0.00  0.00    +0.000 A 
ATOM     11  H   UNL     1      35.442  29.492  47.148  0.00  0.00    +0.000 HD
ATOM     12  H   UNL     1      38.741  32.096  48.160  0.00  0.00    +0.000 HD
ATOM     13  H   UNL     1      39.787  33.382  45.968  0.00  0.00    +0.000 HD
ATOM     14  H   UNL     1      35.687  30.135  44.754  0.00  0.00    +0.000 HD
BRANCH   3  17
ATOM     15  C   UNL     1      37.500  30.140  51.488  0.00  0.00    +0.000 A 
ATOM     16  C   UNL     1      37.817  30.588  50.207  0.00  0.00    +0.000 A 
ATOM     17  C   UNL     1      36.907  30.358  49.190  0.00  0.00    +0.000 A 
ATOM     18  N   UNL     1      35.751  29.700  49.518  0.00  0.00    +0.000 NA
ATOM     19  C   UNL     1      35.465  29.276  50.761  0.00  0.00    +0.000 A 
ATOM     20  N   UNL     1      36.337  29.498  51.728  0.00  0.00    +0.000 NA
ATOM     21  H   UNL     1      38.270  30.358  52.244  0.00  0.00    +0.000 HD
ATOM     22  H   UNL     1      38.724  31.102  49.957  0.00  0.00    +0.000 HD
ATOM     23  H   UNL     1      34.543  28.763  50.973  0.00  0.00    +0.000 HD
ENDBRANCH   3  17
ENDBRANCH   1   7
BRANCH   1  25
ATOM     24  N   UNL     1      39.570  31.837  41.728  0.00  0.00    +0.000 NA
ATOM     25  C   UNL     1      39.206  33.239  41.871  0.00  0.00    +0.000 C 
ATOM     26  C   UNL     1      37.813  33.442  41.506  0.00  0.00    +0.000 C 
ATOM     27  O   UNL     1      37.653  33.112  40.149  0.00  0.00    +0.000 OA
ATOM     28  C   UNL     1      38.070  31.863  39.794  0.00  0.00    +0.000 C 
ATOM     29  C   UNL     1      39.468  31.581  40.313  0.00  0.00    +0.000 C 
ATOM     30  H   UNL     1      38.985  31.150  42.172  0.00  0.00    +0.000 HD
ATOM     31  H   UNL     1      39.875  33.801  41.201  0.00  0.00    +0.000 HD
ATOM     32  H   UNL     1      36.980  32.995  41.974  0.00  0.00    +0.000 HD
ATOM     33  H   UNL     1      37.626  34.559  41.518  0.00  0.00    +0.000 HD
ATOM     34  H   UNL     1      38.161  31.860  38.689  0.00  0.00    +0.000 HD
ATOM     35  H   UNL     1      37.313  31.143  40.184  0.00  0.00    +0.000 HD
ATOM     36  H   UNL     1      40.110  32.375  39.829  0.00  0.00    +0.000 HD
BRANCH  29  37
ATOM     37  N   UNL     1      39.996  30.329  39.904  0.00  0.00    +0.000 NA
ATOM     38  C   UNL     1      39.198  29.196  40.346  0.00  0.00    +0.000 C 
ATOM     39  H   UNL     1      38.121  29.347  40.283  0.00  0.00    +0.000 HD
ATOM     40  C   UNL     1      39.576  27.992  39.522  0.00  0.00    +0.000 C 
ATOM     41  H   UNL     1      38.986  27.884  38.595  0.00  0.00    +0.000 HD
ATOM     42  N   UNL     1      40.990  27.959  39.208  0.00  0.00    +0.000 NA
ATOM     43  H   UNL     1      41.499  27.864  40.128  0.00  0.00    +0.000 HD
ATOM     44  C   UNL     1      41.390  29.099  38.435  0.00  0.00    +0.000 C 
ATOM     45  C   UNL     1      40.291  30.167  38.521  0.00  0.00    +0.000 C 
ENDBRANCH  29  37
ENDBRANCH   1  25
TORSDOF 4
