
 OpenBabel03272510253D

 45 49  0  0  1  0  0  0  0  0999 V2000
   39.4570   33.5800   43.2660 O   0  0  0  0  0  0  0  0  0  0  0  0
   36.2360   30.2020   46.8780 C   0  0  0  0  0  0  0  0  0  0  0  0
   37.0860   30.7590   47.8290 C   0  0  0  0  0  0  0  0  0  0  0  0
   38.0810   31.6680   47.4620 C   0  0  0  0  0  0  0  0  0  0  0  0
   38.1600   31.9710   46.1100 C   0  0  0  0  0  0  0  0  0  0  0  0
   39.0460   32.8310   45.5080 N   0  0  0  0  0  0  0  0  0  0  0  0
   38.7550   32.8150   44.1990 C   0  0  0  0  0  0  0  0  0  0  0  0
   37.7480   31.9960   43.9760 N   0  0  0  0  0  0  0  0  0  0  0  0
   37.3440   31.4480   45.1350 C   0  0  0  0  0  0  0  0  0  0  0  0
   36.3570   30.5390   45.5340 C   0  0  0  0  0  0  0  0  0  0  0  0
   35.4560   29.4900   47.1580 H   0  0  0  0  0  0  0  0  0  0  0  0
   38.7420   32.1030   48.1900 H   0  0  0  0  0  0  0  0  0  0  0  0
   39.8010   33.3880   46.0040 H   0  0  0  0  0  0  0  0  0  0  0  0
   35.7170   30.1300   44.7650 H   0  0  0  0  0  0  0  0  0  0  0  0
   37.4790   30.1520   51.5130 C   0  0  0  0  0  0  0  0  0  0  0  0
   37.8050   30.5990   50.2330 C   0  0  0  0  0  0  0  0  0  0  0  0
   36.9040   30.3620   49.2090 C   0  0  0  0  0  0  0  0  0  0  0  0
   35.7480   29.6990   49.5290 N   0  0  0  0  0  0  0  0  0  0  0  0
   35.4540   29.2760   50.7710 C   0  0  0  0  0  0  0  0  0  0  0  0
   36.3180   29.5040   51.7440 N   0  0  0  0  0  0  0  0  0  0  0  0
   38.2420   30.3750   52.2740 H   0  0  0  0  0  0  0  0  0  0  0  0
   38.7110   31.1170   49.9900 H   0  0  0  0  0  0  0  0  0  0  0  0
   34.5330   28.7590   50.9760 H   0  0  0  0  0  0  0  0  0  0  0  0
   39.6240   31.7950   41.8140 N   0  0  0  0  0  0  0  0  0  0  0  0
   39.2860   33.2080   41.9060 C   0  0  1  0  0  0  0  0  0  0  0  0
   37.9130   33.4300   41.4800 C   0  0  0  0  0  0  0  0  0  0  0  0
   37.7990   33.0670   40.1270 O   0  0  0  0  0  0  0  0  0  0  0  0
   38.2020   31.8000   39.8220 C   0  0  0  0  0  0  0  0  0  0  0  0
   39.5720   31.5030   40.4030 C   0  0  2  0  0  0  0  0  0  0  0  0
   39.0070   31.1330   42.2520 H   0  0  0  0  0  0  0  0  0  0  0  0
   39.9930   33.7370   41.2480 H   0  0  0  0  0  0  0  0  0  0  0  0
   37.0530   33.0130   41.9260 H   0  0  0  0  0  0  0  0  0  0  0  0
   37.7500   34.5510   41.4560 H   0  0  0  0  0  0  0  0  0  0  0  0
   38.3360   31.7660   38.7220 H   0  0  0  0  0  0  0  0  0  0  0  0
   37.4150   31.1070   40.2000 H   0  0  0  0  0  0  0  0  0  0  0  0
   40.2500   32.2700   39.9250 H   0  0  0  0  0  0  0  0  0  0  0  0
   40.0880   30.2300   40.0480 N   0  0  1  0  0  0  0  0  0  0  0  0
   41.5350   30.1440   40.1640 C   0  0  0  0  0  3  0  0  0  0  0  0
   41.9520   30.6450   41.0370 H   0  0  0  0  0  0  0  0  0  0  0  0
   41.9290   28.6890   40.1960 C   0  0  0  0  0  3  0  0  0  0  0  0
   41.9490   28.2560   41.2120 H   0  0  0  0  0  0  0  0  0  0  0  0
   41.0990   27.8730   39.3330 N   0  0  0  0  0  0  0  0  0  0  0  0
   41.2730   28.2090   38.3470 H   0  0  0  0  0  0  0  0  0  0  0  0
   39.7220   27.9120   39.7270 C   0  0  0  0  0  2  0  0  0  0  0  0
   39.5110   29.0940   40.6820 C   0  0  0  0  0  2  0  0  0  0  0  0
  1  7  1  0  0  0  0
  2 11  1  0  0  0  0
  2  3  1  0  0  0  0
  3 17  1  0  0  0  0
  4  3  2  0  0  0  0
  4 12  1  0  0  0  0
  5  4  1  0  0  0  0
  6 13  1  0  0  0  0
  6  5  1  0  0  0  0
  7  6  1  0  0  0  0
  8  7  2  0  0  0  0
  8  9  1  0  0  0  0
  9 10  1  0  0  0  0
  9  5  2  0  0  0  0
 10  2  2  0  0  0  0
 14 10  1  0  0  0  0
 15 20  1  0  0  0  0
 15 21  1  0  0  0  0
 16 15  2  0  0  0  0
 17 18  2  0  0  0  0
 17 16  1  0  0  0  0
 18 19  1  0  0  0  0
 19 23  1  0  0  0  0
 19 20  2  0  0  0  0
 22 16  1  0  0  0  0
 24 25  1  0  0  0  0
 24 30  1  0  0  0  0
 25 31  1  6  0  0  0
 25  1  1  0  0  0  0
 26 25  1  0  0  0  0
 26 32  1  0  0  0  0
 27 26  1  0  0  0  0
 28 27  1  0  0  0  0
 28 35  1  0  0  0  0
 28 29  1  0  0  0  0
 29 36  1  6  0  0  0
 29 24  1  0  0  0  0
 33 26  1  0  0  0  0
 34 28  1  0  0  0  0
 37 38  1  0  0  0  0
 37 29  1  0  0  0  0
 37 45  1  1  0  0  0
 38 40  1  0  0  0  0
 38 39  1  0  0  0  0
 40 41  1  0  0  0  0
 42 44  1  0  0  0  0
 42 40  1  0  0  0  0
 43 42  1  0  0  0  0
 44 45  1  0  0  0  0
M  END
>  <minimizedAffinity>
-6.05525446

>  <minimizedRMSD>
0.136285216

$$$$
