
     RDKit          3D

 51 55  0  0  0  0  0  0  0  0999 V2000
   36.2221   30.2030   46.8626 C   0  0  0  0  0  0  0  0  0  0  0  0
   37.0802   30.7560   47.8090 C   0  0  0  0  0  0  0  0  0  0  0  0
   38.0736   31.6636   47.4359 C   0  0  0  0  0  0  0  0  0  0  0  0
   38.1439   31.9692   46.0836 C   0  0  0  0  0  0  0  0  0  0  0  0
   39.0266   32.8282   45.4773 N   0  0  0  0  0  0  0  0  0  0  0  0
   38.7268   32.8145   44.1699 C   0  0  0  0  0  0  0  0  0  0  0  0
   37.7159   31.9977   43.9527 N   0  0  0  0  0  0  0  0  0  0  0  0
   37.3199   31.4492   45.1135 C   0  0  0  0  0  0  0  0  0  0  0  0
   36.3340   30.5422   45.5189 C   0  0  0  0  0  0  0  0  0  0  0  0
   37.5004   30.1396   51.4883 C   0  0  0  0  0  0  0  0  0  0  0  0
   37.8174   30.5883   50.2072 C   0  0  0  0  0  0  0  0  0  0  0  0
   36.9075   30.3582   49.1901 C   0  0  0  0  0  0  0  0  0  0  0  0
   35.7508   29.7002   49.5184 N   0  0  0  0  0  0  0  0  0  0  0  0
   35.4647   29.2757   50.7615 C   0  0  0  0  0  0  0  0  0  0  0  0
   36.3370   29.4984   51.7277 N   0  0  0  0  0  0  0  0  0  0  0  0
   39.4241   33.5790   43.2332 O   0  0  0  0  0  0  0  0  0  0  0  0
   39.5700   31.8375   41.7284 N   0  0  0  0  0  0  0  0  0  0  0  0
   39.2065   33.2391   41.8714 C   0  0  1  0  0  0  0  0  0  0  0  0
   37.8133   33.4416   41.5056 C   0  0  0  0  0  0  0  0  0  0  0  0
   37.6525   33.1122   40.1487 O   0  0  0  0  0  0  0  0  0  0  0  0
   38.0701   31.8627   39.7935 C   0  0  0  0  0  0  0  0  0  0  0  0
   39.4676   31.5806   40.3128 C   0  0  2  0  0  0  0  0  0  0  0  0
   35.4421   29.4917   47.1484 H   0  0  0  0  0  0  0  0  0  0  0  0
   38.7411   32.0961   48.1599 H   0  0  0  0  0  0  0  0  0  0  0  0
   39.7867   33.3818   45.9680 H   0  0  0  0  0  0  0  0  0  0  0  0
   35.6872   30.1347   44.7538 H   0  0  0  0  0  0  0  0  0  0  0  0
   38.2698   30.3577   52.2444 H   0  0  0  0  0  0  0  0  0  0  0  0
   38.7239   31.1024   49.9569 H   0  0  0  0  0  0  0  0  0  0  0  0
   34.5432   28.7628   50.9730 H   0  0  0  0  0  0  0  0  0  0  0  0
   38.9851   31.1498   42.1723 H   0  0  0  0  0  0  0  0  0  0  0  0
   39.8753   33.8015   41.2009 H   0  0  0  0  0  0  0  0  0  0  0  0
   36.9799   32.9946   41.9735 H   0  0  0  0  0  0  0  0  0  0  0  0
   37.6260   34.5593   41.5178 H   0  0  0  0  0  0  0  0  0  0  0  0
   38.1613   31.8605   38.6887 H   0  0  0  0  0  0  0  0  0  0  0  0
   37.3132   31.1431   40.1842 H   0  0  0  0  0  0  0  0  0  0  0  0
   40.1096   32.3753   39.8291 H   0  0  0  0  0  0  0  0  0  0  0  0
   39.9959   30.3292   39.9042 N   0  0  0  0  0  0  0  0  0  0  0  0
   39.4943   29.8871   38.6129 C   0  0  2  0  0  0  0  0  0  0  0  0
   39.4004   30.6759   37.8674 H   0  0  0  0  0  0  0  0  0  0  0  0
   40.4110   28.8141   38.0826 C   0  0  2  0  0  0  0  0  0  0  0  0
   41.2499   29.2038   37.4805 H   0  0  0  0  0  0  0  0  0  0  0  0
   40.9191   27.9543   39.1319 N   0  0  0  0  0  0  0  0  0  0  0  0
   40.0830   27.4574   39.5430 H   0  0  0  0  0  0  0  0  0  0  0  0
   41.6926   28.6861   40.0915 C   0  0  0  0  0  0  0  0  0  0  0  0
   41.4118   30.1849   39.9166 C   0  0  0  0  0  0  0  0  0  0  0  0
   38.4848   29.4223   38.8090 H   0  0  0  0  0  0  0  0  0  0  0  0
   39.8145   28.1459   37.4095 H   0  0  0  0  0  0  0  0  0  0  0  0
   42.7620   28.4640   39.9729 H   0  0  0  0  0  0  0  0  0  0  0  0
   41.3019   28.4012   41.1079 H   0  0  0  0  0  0  0  0  0  0  0  0
   41.9060   30.4637   38.9444 H   0  0  0  0  0  0  0  0  0  0  0  0
   41.9577   30.6729   40.7209 H   0  0  0  0  0  0  0  0  0  0  0  0
  1  2  2  0
  2 12  1  0
  3  2  1  0
  4  3  2  0
  5  4  1  0
  6  5  1  0
  7  6  2  0
  7  8  1  0
  8  9  2  0
  8  4  1  0
  9  1  1  0
 10 15  2  0
 11 10  1  0
 12 13  1  0
 12 11  2  0
 13 14  2  0
 14 15  1  0
 16  6  1  0
 17 18  1  0
 18 16  1  0
 19 18  1  0
 20 19  1  0
 21 20  1  0
 21 22  1  0
 22 17  1  0
  1 23  1  0
  3 24  1  0
  5 25  1  0
  9 26  1  0
 10 27  1  0
 11 28  1  0
 14 29  1  0
 17 30  1  0
 18 31  1  6
 19 32  1  0
 19 33  1  0
 21 34  1  0
 21 35  1  0
 22 36  1  6
 37 38  1  0
 38 39  1  6
 38 40  1  0
 40 41  1  6
 40 42  1  0
 42 43  1  0
 42 44  1  0
 44 45  1  0
 45 37  1  0
 38 46  1  0
 40 47  1  0
 44 48  1  0
 44 49  1  0
 45 50  1  0
 45 51  1  0
 22 37  1  0
M  ISO  8  23  14  24  14  25   9  26  14  27  14  28  14  29  14  30   5
M  ISO  8  31  13  32  13  33  13  34  13  35  13  36  13  39   8  41   8
M  ISO  1  43   5
M  END
>  <DihAtoms>  (1) 
20,21,36,37

>  <DihDeg>  (1) 
179.90933473128362

$$$$
