
 OpenBabel03272510263D

 45 49  0  0  1  0  0  0  0  0999 V2000
   39.4760   33.5910   43.3630 O   0  0  0  0  0  0  0  0  0  0  0  0
   36.2150   30.2140   46.9390 C   0  0  0  0  0  0  0  0  0  0  0  0
   37.0680   30.7550   47.8970 C   0  0  0  0  0  0  0  0  0  0  0  0
   38.0720   31.6580   47.5400 C   0  0  0  0  0  0  0  0  0  0  0  0
   38.1570   31.9710   46.1910 C   0  0  0  0  0  0  0  0  0  0  0  0
   39.0520   32.8280   45.5980 N   0  0  0  0  0  0  0  0  0  0  0  0
   38.7650   32.8260   44.2880 C   0  0  0  0  0  0  0  0  0  0  0  0
   37.7500   32.0170   44.0560 N   0  0  0  0  0  0  0  0  0  0  0  0
   37.3390   31.4630   45.2090 C   0  0  0  0  0  0  0  0  0  0  0  0
   36.3430   30.5610   45.5990 C   0  0  0  0  0  0  0  0  0  0  0  0
   35.4280   29.5060   47.2120 H   0  0  0  0  0  0  0  0  0  0  0  0
   38.7340   32.0810   48.2730 H   0  0  0  0  0  0  0  0  0  0  0  0
   39.8110   33.3740   46.1000 H   0  0  0  0  0  0  0  0  0  0  0  0
   35.7010   30.1630   44.8250 H   0  0  0  0  0  0  0  0  0  0  0  0
   37.4420   30.1220   51.5780 C   0  0  0  0  0  0  0  0  0  0  0  0
   37.7740   30.5780   50.3040 C   0  0  0  0  0  0  0  0  0  0  0  0
   36.8780   30.3490   49.2740 C   0  0  0  0  0  0  0  0  0  0  0  0
   35.7210   29.6840   49.5830 N   0  0  0  0  0  0  0  0  0  0  0  0
   35.4210   29.2520   50.8200 C   0  0  0  0  0  0  0  0  0  0  0  0
   36.2790   29.4730   51.8000 N   0  0  0  0  0  0  0  0  0  0  0  0
   38.2010   30.3400   52.3460 H   0  0  0  0  0  0  0  0  0  0  0  0
   38.6810   31.0980   50.0690 H   0  0  0  0  0  0  0  0  0  0  0  0
   34.4990   28.7340   51.0170 H   0  0  0  0  0  0  0  0  0  0  0  0
   39.6720   31.7580   41.9760 N   0  0  0  0  0  0  0  0  0  0  0  0
   39.3680   33.1820   42.0070 C   0  0  1  0  0  0  0  0  0  0  0  0
   38.0270   33.4260   41.5000 C   0  0  0  0  0  0  0  0  0  0  0  0
   37.9770   33.0250   40.1540 O   0  0  0  0  0  0  0  0  0  0  0  0
   38.3600   31.7390   39.9090 C   0  0  0  0  0  0  0  0  0  0  0  0
   39.6880   31.4250   40.5730 C   0  0  2  0  0  0  0  0  0  0  0  0
   39.0140   31.1260   42.3980 H   0  0  0  0  0  0  0  0  0  0  0  0
   40.1240   33.6720   41.3740 H   0  0  0  0  0  0  0  0  0  0  0  0
   37.1330   33.0460   41.9100 H   0  0  0  0  0  0  0  0  0  0  0  0
   37.8970   34.5500   41.4340 H   0  0  0  0  0  0  0  0  0  0  0  0
   38.5530   31.6670   38.8190 H   0  0  0  0  0  0  0  0  0  0  0  0
   37.5350   31.0790   40.2630 H   0  0  0  0  0  0  0  0  0  0  0  0
   40.4120   32.1590   40.1100 H   0  0  0  0  0  0  0  0  0  0  0  0
   40.1870   30.1280   40.2850 N   0  0  1  0  0  0  0  0  0  0  0  0
   39.1980   29.2540   39.6750 C   0  0  0  0  0  3  0  0  0  0  0  0
   38.5580   29.7360   38.9370 H   0  0  0  0  0  0  0  0  0  0  0  0
   39.9150   28.0960   39.0260 C   0  0  0  0  0  3  0  0  0  0  0  0
   40.2080   28.2870   37.9780 H   0  0  0  0  0  0  0  0  0  0  0  0
   41.0710   27.6660   39.7860 N   0  0  0  0  0  0  0  0  0  0  0  0
   40.7050   27.3110   40.7110 H   0  0  0  0  0  0  0  0  0  0  0  0
   42.0460   28.7090   39.9080 C   0  0  0  0  0  2  0  0  0  0  0  0
   41.3930   30.0470   39.5330 C   0  0  0  0  0  2  0  0  0  0  0  0
  1  7  1  0  0  0  0
  2 11  1  0  0  0  0
  2  3  1  0  0  0  0
  3 17  1  0  0  0  0
  4  3  2  0  0  0  0
  4 12  1  0  0  0  0
  5  4  1  0  0  0  0
  6 13  1  0  0  0  0
  6  5  1  0  0  0  0
  7  6  1  0  0  0  0
  8  7  2  0  0  0  0
  8  9  1  0  0  0  0
  9 10  1  0  0  0  0
  9  5  2  0  0  0  0
 10  2  2  0  0  0  0
 14 10  1  0  0  0  0
 15 20  1  0  0  0  0
 15 21  1  0  0  0  0
 16 15  2  0  0  0  0
 17 18  2  0  0  0  0
 17 16  1  0  0  0  0
 18 19  1  0  0  0  0
 19 23  1  0  0  0  0
 19 20  2  0  0  0  0
 22 16  1  0  0  0  0
 24 25  1  0  0  0  0
 24 30  1  0  0  0  0
 25 31  1  6  0  0  0
 25  1  1  0  0  0  0
 26 32  1  0  0  0  0
 26 25  1  0  0  0  0
 27 26  1  0  0  0  0
 28 27  1  0  0  0  0
 28 35  1  0  0  0  0
 28 29  1  0  0  0  0
 29 36  1  6  0  0  0
 29 24  1  0  0  0  0
 33 26  1  0  0  0  0
 34 28  1  0  0  0  0
 37 45  1  6  0  0  0
 37 29  1  0  0  0  0
 38 37  1  0  0  0  0
 39 38  1  0  0  0  0
 40 38  1  0  0  0  0
 40 42  1  0  0  0  0
 41 40  1  0  0  0  0
 42 44  1  0  0  0  0
 42 43  1  0  0  0  0
 45 44  1  0  0  0  0
M  END
>  <minimizedAffinity>
-5.98268938

>  <minimizedRMSD>
0.361376315

$$$$
