
 OpenBabel03272506403D

 19 20  0  0  1  0  0  0  0  0999 V2000
   36.3610   29.4730   49.1940 S   0  0  0  0  0  0  0  0  0  0  0  0
   38.0010   33.0660   49.4170 C   0  0  0  0  0  0  0  0  0  0  0  0
   38.8890   33.1320   48.3460 C   0  0  0  0  0  0  0  0  0  0  0  0
   38.9920   32.0040   47.5000 C   0  0  0  0  0  0  0  0  0  0  0  0
   38.2120   30.9150   47.7880 N   0  0  0  0  0  0  0  0  0  0  0  0
   37.3740   30.9000   48.8300 C   0  0  0  0  0  0  0  0  0  0  0  0
   37.2610   31.9670   49.6480 N   0  0  0  0  0  0  0  0  0  0  0  0
   37.9580   33.9490   50.0330 H   0  0  0  0  0  0  0  0  0  0  0  0
   39.5250   33.9310   48.0560 H   0  0  0  0  0  0  0  0  0  0  0  0
   39.6090   31.8640   46.6360 H   0  0  0  0  0  0  0  0  0  0  0  0
   34.7990   31.2390   47.8890 H   0  0  0  0  0  0  0  0  0  0  0  0
   34.1490   30.4490   48.1680 N   0  0  0  0  0  0  0  0  0  0  0  0
   34.6150   29.9270   49.4610 C   0  0  1  0  0  0  0  0  0  0  0  0
   33.8120   28.6520   49.6960 C   0  0  0  0  0  0  0  0  0  0  0  0
   33.3190   28.6990   50.7010 H   0  0  0  0  0  0  0  0  0  0  0  0
   32.7460   28.4800   48.7360 N   0  0  0  0  0  0  0  0  0  0  0  0
   32.1310   29.3100   48.8000 H   0  0  0  0  0  0  0  0  0  0  0  0
   33.2850   28.3780   47.3840 C   0  0  0  0  0  0  0  0  0  0  0  0
   34.4070   29.4030   47.1960 C   0  0  0  0  0  0  0  0  0  0  0  0
  2  7  1  0  0  0  0
  2  8  1  0  0  0  0
  3  2  2  0  0  0  0
  4  5  2  0  0  0  0
  4  3  1  0  0  0  0
  5  6  1  0  0  0  0
  6  1  1  0  0  0  0
  6  7  2  0  0  0  0
  9  3  1  0  0  0  0
 10  4  1  0  0  0  0
 11 12  1  0  0  0  0
 12 13  1  0  0  0  0
 13  1  1  6  0  0  0
 13 14  1  0  0  0  0
 14 15  1  0  0  0  0
 16 17  1  0  0  0  0
 16 14  1  0  0  0  0
 18 16  1  0  0  0  0
 19 18  1  0  0  0  0
 19 12  1  0  0  0  0
M  END
>  <minimizedAffinity>
-4.36720514

>  <minimizedRMSD>
2.85731268

$$$$
