
 OpenBabel03272510253D

 45 49  0  0  1  0  0  0  0  0999 V2000
   39.4780   33.6100   43.4040 O   0  0  0  0  0  0  0  0  0  0  0  0
   36.2090   30.2220   46.9630 C   0  0  0  0  0  0  0  0  0  0  0  0
   37.0620   30.7560   47.9230 C   0  0  0  0  0  0  0  0  0  0  0  0
   38.0680   31.6600   47.5710 C   0  0  0  0  0  0  0  0  0  0  0  0
   38.1540   31.9790   46.2230 C   0  0  0  0  0  0  0  0  0  0  0  0
   39.0510   32.8370   45.6350 N   0  0  0  0  0  0  0  0  0  0  0  0
   38.7640   32.8420   44.3250 C   0  0  0  0  0  0  0  0  0  0  0  0
   37.7480   32.0360   44.0890 N   0  0  0  0  0  0  0  0  0  0  0  0
   37.3360   31.4780   45.2390 C   0  0  0  0  0  0  0  0  0  0  0  0
   36.3370   30.5750   45.6240 C   0  0  0  0  0  0  0  0  0  0  0  0
   35.4190   29.5150   47.2310 H   0  0  0  0  0  0  0  0  0  0  0  0
   38.7310   32.0770   48.3070 H   0  0  0  0  0  0  0  0  0  0  0  0
   39.8110   33.3780   46.1400 H   0  0  0  0  0  0  0  0  0  0  0  0
   35.6950   30.1830   44.8480 H   0  0  0  0  0  0  0  0  0  0  0  0
   37.4340   30.1040   51.6010 C   0  0  0  0  0  0  0  0  0  0  0  0
   37.7670   30.5650   50.3290 C   0  0  0  0  0  0  0  0  0  0  0  0
   36.8710   30.3440   49.2980 C   0  0  0  0  0  0  0  0  0  0  0  0
   35.7120   29.6820   49.6040 N   0  0  0  0  0  0  0  0  0  0  0  0
   35.4100   29.2450   50.8390 C   0  0  0  0  0  0  0  0  0  0  0  0
   36.2690   29.4580   51.8190 N   0  0  0  0  0  0  0  0  0  0  0  0
   38.1940   30.3150   52.3700 H   0  0  0  0  0  0  0  0  0  0  0  0
   38.6770   31.0830   50.0960 H   0  0  0  0  0  0  0  0  0  0  0  0
   34.4860   28.7280   51.0330 H   0  0  0  0  0  0  0  0  0  0  0  0
   39.6860   31.7810   42.0140 N   0  0  0  0  0  0  0  0  0  0  0  0
   39.3760   33.2020   42.0470 C   0  0  1  0  0  0  0  0  0  0  0  0
   38.0360   33.4420   41.5360 C   0  0  0  0  0  0  0  0  0  0  0  0
   37.9920   33.0430   40.1890 O   0  0  0  0  0  0  0  0  0  0  0  0
   38.3810   31.7590   39.9430 C   0  0  0  0  0  0  0  0  0  0  0  0
   39.7080   31.4490   40.6110 C   0  0  2  0  0  0  0  0  0  0  0  0
   39.0290   31.1450   42.4340 H   0  0  0  0  0  0  0  0  0  0  0  0
   40.1320   33.6970   41.4180 H   0  0  0  0  0  0  0  0  0  0  0  0
   37.1410   33.0580   41.9430 H   0  0  0  0  0  0  0  0  0  0  0  0
   37.9010   34.5650   41.4710 H   0  0  0  0  0  0  0  0  0  0  0  0
   38.5780   31.6900   38.8540 H   0  0  0  0  0  0  0  0  0  0  0  0
   37.5570   31.0950   40.2940 H   0  0  0  0  0  0  0  0  0  0  0  0
   40.4300   32.1870   40.1520 H   0  0  0  0  0  0  0  0  0  0  0  0
   40.2130   30.1550   40.3230 N   0  0  1  0  0  0  0  0  0  0  0  0
   40.5080   29.3740   41.5130 C   0  0  0  0  0  3  0  0  0  0  0  0
   39.7780   29.4750   42.3160 H   0  0  0  0  0  0  0  0  0  0  0  0
   40.6110   27.9220   41.1220 C   0  0  0  0  0  3  0  0  0  0  0  0
   39.6510   27.3810   41.1610 H   0  0  0  0  0  0  0  0  0  0  0  0
   41.2220   27.7430   39.8210 N   0  0  0  0  0  0  0  0  0  0  0  0
   42.2120   28.1020   39.9020 H   0  0  0  0  0  0  0  0  0  0  0  0
   40.4570   28.3700   38.7840 C   0  0  0  0  0  2  0  0  0  0  0  0
   39.4610   29.3480   39.4230 C   0  0  0  0  0  2  0  0  0  0  0  0
  1  7  1  0  0  0  0
  2 11  1  0  0  0  0
  2  3  1  0  0  0  0
  3 17  1  0  0  0  0
  4  3  2  0  0  0  0
  4 12  1  0  0  0  0
  5  4  1  0  0  0  0
  6 13  1  0  0  0  0
  6  5  1  0  0  0  0
  7  6  1  0  0  0  0
  8  7  2  0  0  0  0
  8  9  1  0  0  0  0
  9 10  1  0  0  0  0
  9  5  2  0  0  0  0
 10  2  2  0  0  0  0
 14 10  1  0  0  0  0
 15 20  1  0  0  0  0
 15 21  1  0  0  0  0
 16 15  2  0  0  0  0
 17 18  2  0  0  0  0
 17 16  1  0  0  0  0
 18 19  1  0  0  0  0
 19 23  1  0  0  0  0
 19 20  2  0  0  0  0
 22 16  1  0  0  0  0
 24 25  1  0  0  0  0
 24 30  1  0  0  0  0
 25 31  1  6  0  0  0
 25  1  1  0  0  0  0
 26 32  1  0  0  0  0
 26 25  1  0  0  0  0
 27 26  1  0  0  0  0
 28 27  1  0  0  0  0
 28 35  1  0  0  0  0
 28 29  1  0  0  0  0
 29 36  1  6  0  0  0
 29 24  1  0  0  0  0
 33 26  1  0  0  0  0
 34 28  1  0  0  0  0
 37 45  1  6  0  0  0
 37 29  1  0  0  0  0
 37 38  1  0  0  0  0
 38 39  1  0  0  0  0
 40 41  1  0  0  0  0
 40 38  1  0  0  0  0
 42 43  1  0  0  0  0
 42 40  1  0  0  0  0
 44 45  1  0  0  0  0
 44 42  1  0  0  0  0
M  END
>  <minimizedAffinity>
-5.99005175

>  <minimizedRMSD>
0.471675158

$$$$
