
 OpenBabel03272508033D

 28 30  0  0  1  0  0  0  0  0999 V2000
   37.4090   26.0640   34.2510 C   0  0  0  0  0  0  0  0  0  0  0  0
   37.1720   27.3220   34.7680 C   0  0  0  0  0  0  0  0  0  0  0  0
   36.6200   28.1530   33.7920 C   0  0  0  0  0  0  0  0  0  0  0  0
   36.5450   27.3450   32.7080 N   0  0  0  0  0  0  0  0  0  0  0  0
   37.0020   26.1200   32.9570 N   0  0  0  0  0  0  0  0  0  0  0  0
   37.3750   27.6560   35.7850 H   0  0  0  0  0  0  0  0  0  0  0  0
   36.3170   29.1770   33.8490 H   0  0  0  0  0  0  0  0  0  0  0  0
   37.3300   26.2530   30.8000 H   0  0  0  0  0  0  0  0  0  0  0  0
   36.9250   27.1260   30.3470 N   0  0  0  0  0  0  0  0  0  0  0  0
   36.0450   27.6700   31.3770 C   0  0  2  0  0  3  0  0  0  0  0  0
   35.9980   29.1520   31.1600 C   0  0  0  0  0  3  0  0  0  0  0  0
   36.7920   29.6270   31.7730 H   0  0  0  0  0  0  0  0  0  0  0  0
   36.2880   29.4870   29.7820 N   0  0  0  0  0  0  0  0  0  0  0  0
   35.6610   29.0120   29.0950 H   0  0  0  0  0  0  0  0  0  0  0  0
   37.6900   29.2830   29.4770 C   0  0  0  0  0  2  0  0  0  0  0  0
   38.0950   27.9960   30.1730 C   0  0  0  0  0  2  0  0  0  0  0  0
   37.9840   24.9090   34.9310 C   0  0  0  0  0  0  0  0  0  0  0  0
   37.8590   24.8740   36.3540 C   0  0  0  0  0  0  0  0  0  0  0  0
   38.4060   23.7800   37.0240 C   0  0  0  0  0  0  0  0  0  0  0  0
   39.0180   22.8240   36.2930 N   0  0  0  0  0  0  0  0  0  0  0  0
   39.1190   22.8870   34.9390 C   0  0  0  0  0  0  0  0  0  0  0  0
   38.5940   23.9410   34.2810 N   0  0  0  0  0  0  0  0  0  0  0  0
   37.3520   25.6860   36.8640 H   0  0  0  0  0  0  0  0  0  0  0  0
   39.6210   22.0940   34.3830 H   0  0  0  0  0  0  0  0  0  0  0  0
   38.2890   23.7240   38.5040 C   0  0  0  0  0  0  0  0  0  0  0  0
   39.5320   23.4040   38.9800 F   0  0  0  0  0  0  0  0  0  0  0  0
   37.9010   24.9470   39.0480 F   0  0  0  0  0  0  0  0  0  0  0  0
   37.3810   22.7520   38.9210 F   0  0  0  0  0  0  0  0  0  0  0  0
  1  2  1  0  0  0  0
  1 17  1  0  0  0  0
  2  6  1  0  0  0  0
  3  7  1  0  0  0  0
  3  2  2  0  0  0  0
  4  5  1  0  0  0  0
  4  3  1  0  0  0  0
  5  1  2  0  0  0  0
  9  8  1  0  0  0  0
  9 10  1  0  0  0  0
 10  4  1  1  0  0  0
 11 10  1  0  0  0  0
 11 12  1  0  0  0  0
 13 11  1  0  0  0  0
 14 13  1  0  0  0  0
 15 13  1  0  0  0  0
 15 16  1  0  0  0  0
 16  9  1  0  0  0  0
 17 18  1  0  0  0  0
 18 23  1  0  0  0  0
 18 19  2  0  0  0  0
 19 25  1  0  0  0  0
 20 19  1  0  0  0  0
 21 20  2  0  0  0  0
 22 17  2  0  0  0  0
 22 21  1  0  0  0  0
 24 21  1  0  0  0  0
 25 28  1  0  0  0  0
 25 26  1  0  0  0  0
 25 27  1  0  0  0  0
M  END
>  <minimizedAffinity>
-6.09179544

$$$$

 OpenBabel03272508033D

 28 30  0  0  1  0  0  0  0  0999 V2000
   37.8630   25.4310   35.2280 C   0  0  0  0  0  0  0  0  0  0  0  0
   37.4530   26.7470   35.2890 C   0  0  0  0  0  0  0  0  0  0  0  0
   37.0630   27.1950   34.0250 C   0  0  0  0  0  0  0  0  0  0  0  0
   37.2570   26.1070   33.2430 N   0  0  0  0  0  0  0  0  0  0  0  0
   37.7240   25.0670   33.9280 N   0  0  0  0  0  0  0  0  0  0  0  0
   37.4250   27.3800   36.1760 H   0  0  0  0  0  0  0  0  0  0  0  0
   36.6950   28.1500   33.7150 H   0  0  0  0  0  0  0  0  0  0  0  0
   39.0090   25.8270   31.7260 H   0  0  0  0  0  0  0  0  0  0  0  0
   38.2550   26.1740   31.0590 N   0  0  0  0  0  0  0  0  0  0  0  0
   37.0180   25.9770   31.8100 C   0  0  2  0  0  3  0  0  0  0  0  0
   36.0530   27.0150   31.3220 C   0  0  0  0  0  3  0  0  0  0  0  0
   36.1440   27.9160   31.9640 H   0  0  0  0  0  0  0  0  0  0  0  0
   36.3760   27.4370   29.9750 N   0  0  0  0  0  0  0  0  0  0  0  0
   36.4210   26.6500   29.2900 H   0  0  0  0  0  0  0  0  0  0  0  0
   37.5750   28.2500   29.9540 C   0  0  0  0  0  2  0  0  0  0  0  0
   38.5440   27.6080   30.9320 C   0  0  0  0  0  2  0  0  0  0  0  0
   38.3550   24.5940   36.3160 C   0  0  0  0  0  0  0  0  0  0  0  0
   39.5360   23.8310   36.0570 C   0  0  0  0  0  0  0  0  0  0  0  0
   40.0200   23.0220   37.0830 C   0  0  0  0  0  0  0  0  0  0  0  0
   39.3510   23.0060   38.2550 N   0  0  0  0  0  0  0  0  0  0  0  0
   38.2300   23.7450   38.4710 C   0  0  0  0  0  0  0  0  0  0  0  0
   37.7520   24.5310   37.4840 N   0  0  0  0  0  0  0  0  0  0  0  0
   40.0120   23.9020   35.0850 H   0  0  0  0  0  0  0  0  0  0  0  0
   37.7170   23.7060   39.4320 H   0  0  0  0  0  0  0  0  0  0  0  0
   41.2460   22.2190   36.8340 C   0  0  0  0  0  0  0  0  0  0  0  0
   42.2960   23.0970   36.8620 F   0  0  0  0  0  0  0  0  0  0  0  0
   41.4460   21.2470   37.8120 F   0  0  0  0  0  0  0  0  0  0  0  0
   41.2160   21.5900   35.5910 F   0  0  0  0  0  0  0  0  0  0  0  0
  1  2  1  0  0  0  0
  1 17  1  0  0  0  0
  2  6  1  0  0  0  0
  3  2  2  0  0  0  0
  4  5  1  0  0  0  0
  4  3  1  0  0  0  0
  5  1  2  0  0  0  0
  7  3  1  0  0  0  0
  9  8  1  0  0  0  0
  9 10  1  0  0  0  0
 10  4  1  1  0  0  0
 11 10  1  0  0  0  0
 11 12  1  0  0  0  0
 13 11  1  0  0  0  0
 14 13  1  0  0  0  0
 15 13  1  0  0  0  0
 15 16  1  0  0  0  0
 16  9  1  0  0  0  0
 17 22  1  0  0  0  0
 18 17  2  0  0  0  0
 18 19  1  0  0  0  0
 19 20  2  0  0  0  0
 20 21  1  0  0  0  0
 21 24  1  0  0  0  0
 22 21  2  0  0  0  0
 23 18  1  0  0  0  0
 25 26  1  0  0  0  0
 25 19  1  0  0  0  0
 25 27  1  0  0  0  0
 28 25  1  0  0  0  0
M  END
>  <minimizedAffinity>
-5.6888628

$$$$

 OpenBabel03272508033D

 28 30  0  0  1  0  0  0  0  0999 V2000
   38.6150   22.5870   33.7690 C   0  0  0  0  0  0  0  0  0  0  0  0
   38.4550   23.6760   32.9350 C   0  0  0  0  0  0  0  0  0  0  0  0
   37.7890   23.2990   31.7670 C   0  0  0  0  0  0  0  0  0  0  0  0
   37.5720   21.9750   31.9520 N   0  0  0  0  0  0  0  0  0  0  0  0
   38.0470   21.5420   33.1160 N   0  0  0  0  0  0  0  0  0  0  0  0
   38.7870   24.6950   33.1240 H   0  0  0  0  0  0  0  0  0  0  0  0
   37.5030   23.8820   30.9170 H   0  0  0  0  0  0  0  0  0  0  0  0
   35.4170   22.3660   31.1440 H   0  0  0  0  0  0  0  0  0  0  0  0
   35.4760   21.3160   30.9810 N   0  0  0  0  0  0  0  0  0  0  0  0
   36.9080   21.0390   31.0520 C   0  0  2  0  0  3  0  0  0  0  0  0
   37.0460   19.6270   31.5360 C   0  0  0  0  0  3  0  0  0  0  0  0
   37.1270   19.6360   32.6430 H   0  0  0  0  0  0  0  0  0  0  0  0
   35.8680   18.8480   31.2170 N   0  0  0  0  0  0  0  0  0  0  0  0
   35.6290   18.8480   30.2010 H   0  0  0  0  0  0  0  0  0  0  0  0
   34.7430   19.2360   32.0450 C   0  0  0  0  0  2  0  0  0  0  0  0
   34.7950   20.7500   32.1530 C   0  0  0  0  0  2  0  0  0  0  0  0
   39.2640   22.5470   35.0750 C   0  0  0  0  0  0  0  0  0  0  0  0
   38.5560   23.1450   36.1630 C   0  0  0  0  0  0  0  0  0  0  0  0
   39.1610   23.1210   37.4180 C   0  0  0  0  0  0  0  0  0  0  0  0
   40.3730   22.5370   37.5330 N   0  0  0  0  0  0  0  0  0  0  0  0
   41.0200   21.9750   36.4780 C   0  0  0  0  0  0  0  0  0  0  0  0
   40.4440   21.9940   35.2570 N   0  0  0  0  0  0  0  0  0  0  0  0
   37.5840   23.5940   35.9830 H   0  0  0  0  0  0  0  0  0  0  0  0
   41.9990   21.5130   36.6100 H   0  0  0  0  0  0  0  0  0  0  0  0
   38.4420   23.7380   38.5640 C   0  0  0  0  0  0  0  0  0  0  0  0
   37.3940   22.9090   38.8560 F   0  0  0  0  0  0  0  0  0  0  0  0
   39.2520   23.8540   39.6920 F   0  0  0  0  0  0  0  0  0  0  0  0
   37.9450   25.0020   38.2490 F   0  0  0  0  0  0  0  0  0  0  0  0
  1 17  1  0  0  0  0
  2  6  1  0  0  0  0
  2  1  1  0  0  0  0
  3  4  1  0  0  0  0
  3  2  2  0  0  0  0
  4  5  1  0  0  0  0
  5  1  2  0  0  0  0
  7  3  1  0  0  0  0
  9 10  1  0  0  0  0
  9  8  1  0  0  0  0
  9 16  1  0  0  0  0
 10 11  1  0  0  0  0
 10  4  1  1  0  0  0
 11 12  1  0  0  0  0
 13 11  1  0  0  0  0
 13 15  1  0  0  0  0
 14 13  1  0  0  0  0
 15 16  1  0  0  0  0
 17 22  2  0  0  0  0
 17 18  1  0  0  0  0
 18 19  2  0  0  0  0
 19 20  1  0  0  0  0
 19 25  1  0  0  0  0
 21 24  1  0  0  0  0
 21 20  2  0  0  0  0
 22 21  1  0  0  0  0
 23 18  1  0  0  0  0
 25 26  1  0  0  0  0
 25 27  1  0  0  0  0
 28 25  1  0  0  0  0
M  END
>  <minimizedAffinity>
-5.55842638

$$$$

 OpenBabel03272508033D

 28 30  0  0  1  0  0  0  0  0999 V2000
   38.0070   26.3000   34.1060 C   0  0  0  0  0  0  0  0  0  0  0  0
   39.3850   26.3800   34.1310 C   0  0  0  0  0  0  0  0  0  0  0  0
   39.9230   25.2860   34.8110 C   0  0  0  0  0  0  0  0  0  0  0  0
   38.8250   24.5790   35.1710 N   0  0  0  0  0  0  0  0  0  0  0  0
   37.6970   25.1560   34.7670 N   0  0  0  0  0  0  0  0  0  0  0  0
   39.9990   27.1680   33.6970 H   0  0  0  0  0  0  0  0  0  0  0  0
   40.9420   25.0340   35.0140 H   0  0  0  0  0  0  0  0  0  0  0  0
   36.9060   23.9230   36.3260 H   0  0  0  0  0  0  0  0  0  0  0  0
   37.6240   23.3140   36.8220 N   0  0  0  0  0  0  0  0  0  0  0  0
   38.7670   23.3250   35.9130 C   0  0  2  0  0  3  0  0  0  0  0  0
   39.9890   23.1380   36.7620 C   0  0  0  0  0  3  0  0  0  0  0  0
   40.3770   24.1360   37.0530 H   0  0  0  0  0  0  0  0  0  0  0  0
   39.6670   22.4480   37.9950 N   0  0  0  0  0  0  0  0  0  0  0  0
   39.1980   21.5270   37.8480 H   0  0  0  0  0  0  0  0  0  0  0  0
   38.9240   23.3060   38.8960 C   0  0  0  0  0  2  0  0  0  0  0  0
   37.9380   24.0770   38.0370 C   0  0  0  0  0  2  0  0  0  0  0  0
   37.0660   27.2400   33.5080 C   0  0  0  0  0  0  0  0  0  0  0  0
   36.6030   28.3040   34.3440 C   0  0  0  0  0  0  0  0  0  0  0  0
   35.6990   29.2110   33.7930 C   0  0  0  0  0  0  0  0  0  0  0  0
   35.3170   29.0340   32.5100 N   0  0  0  0  0  0  0  0  0  0  0  0
   35.7770   28.0120   31.7410 C   0  0  0  0  0  0  0  0  0  0  0  0
   36.6510   27.1270   32.2640 N   0  0  0  0  0  0  0  0  0  0  0  0
   36.9610   28.3720   35.3650 H   0  0  0  0  0  0  0  0  0  0  0  0
   35.4450   27.9020   30.7080 H   0  0  0  0  0  0  0  0  0  0  0  0
   35.2040   30.3240   34.6440 C   0  0  0  0  0  0  0  0  0  0  0  0
   36.1520   30.5240   35.6110 F   0  0  0  0  0  0  0  0  0  0  0  0
   35.0400   31.5050   33.9230 F   0  0  0  0  0  0  0  0  0  0  0  0
   33.9920   30.0140   35.2580 F   0  0  0  0  0  0  0  0  0  0  0  0
  1  2  1  0  0  0  0
  1  5  2  0  0  0  0
  2  3  2  0  0  0  0
  3  7  1  0  0  0  0
  3  4  1  0  0  0  0
  5  4  1  0  0  0  0
  6  2  1  0  0  0  0
  8  9  1  0  0  0  0
  9 16  1  0  0  0  0
 10  4  1  1  0  0  0
 10 11  1  0  0  0  0
 10  9  1  0  0  0  0
 11 12  1  0  0  0  0
 11 13  1  0  0  0  0
 13 15  1  0  0  0  0
 14 13  1  0  0  0  0
 16 15  1  0  0  0  0
 17  1  1  0  0  0  0
 17 18  1  0  0  0  0
 18 23  1  0  0  0  0
 19 18  2  0  0  0  0
 19 25  1  0  0  0  0
 20 19  1  0  0  0  0
 21 22  1  0  0  0  0
 21 20  2  0  0  0  0
 22 17  2  0  0  0  0
 24 21  1  0  0  0  0
 25 28  1  0  0  0  0
 25 26  1  0  0  0  0
 27 25  1  0  0  0  0
M  END
>  <minimizedAffinity>
-5.51506329

$$$$

 OpenBabel03272508033D

 28 30  0  0  1  0  0  0  0  0999 V2000
   37.3810   26.5290   34.1370 C   0  0  0  0  0  0  0  0  0  0  0  0
   37.3800   26.8880   32.8050 C   0  0  0  0  0  0  0  0  0  0  0  0
   36.7160   28.1040   32.6290 C   0  0  0  0  0  0  0  0  0  0  0  0
   36.3410   28.4310   33.8880 N   0  0  0  0  0  0  0  0  0  0  0  0
   36.7200   27.5230   34.7830 N   0  0  0  0  0  0  0  0  0  0  0  0
   37.8210   26.3300   31.9800 H   0  0  0  0  0  0  0  0  0  0  0  0
   36.5330   28.6670   31.7390 H   0  0  0  0  0  0  0  0  0  0  0  0
   34.1960   28.2730   34.7950 H   0  0  0  0  0  0  0  0  0  0  0  0
   34.1890   29.2980   34.5120 N   0  0  0  0  0  0  0  0  0  0  0  0
   35.6040   29.6110   34.3280 C   0  0  2  0  0  3  0  0  0  0  0  0
   35.6690   30.7060   33.3060 C   0  0  0  0  0  3  0  0  0  0  0  0
   35.7750   30.2480   32.3000 H   0  0  0  0  0  0  0  0  0  0  0  0
   34.4410   31.4720   33.2820 N   0  0  0  0  0  0  0  0  0  0  0  0
   34.1810   31.8740   34.2100 H   0  0  0  0  0  0  0  0  0  0  0  0
   33.3590   30.7090   32.6910 C   0  0  0  0  0  2  0  0  0  0  0  0
   33.5020   29.2910   33.2140 C   0  0  0  0  0  2  0  0  0  0  0  0
   37.9560   25.3330   34.7430 C   0  0  0  0  0  0  0  0  0  0  0  0
   37.8320   25.2080   36.1610 C   0  0  0  0  0  0  0  0  0  0  0  0
   38.3790   24.0730   36.7600 C   0  0  0  0  0  0  0  0  0  0  0  0
   38.9890   23.1640   35.9690 N   0  0  0  0  0  0  0  0  0  0  0  0
   39.0890   23.3130   34.6220 C   0  0  0  0  0  0  0  0  0  0  0  0
   38.5650   24.4080   34.0320 N   0  0  0  0  0  0  0  0  0  0  0  0
   37.3250   25.9860   36.7220 H   0  0  0  0  0  0  0  0  0  0  0  0
   39.5900   22.5570   34.0160 H   0  0  0  0  0  0  0  0  0  0  0  0
   38.2620   23.9240   38.2330 C   0  0  0  0  0  0  0  0  0  0  0  0
   37.9840   25.1690   38.7290 F   0  0  0  0  0  0  0  0  0  0  0  0
   37.2320   23.0570   38.5940 F   0  0  0  0  0  0  0  0  0  0  0  0
   39.4450   23.4620   38.8080 F   0  0  0  0  0  0  0  0  0  0  0  0
  1 17  1  0  0  0  0
  1  5  2  0  0  0  0
  2  1  1  0  0  0  0
  3  2  2  0  0  0  0
  3  4  1  0  0  0  0
  4  5  1  0  0  0  0
  6  2  1  0  0  0  0
  7  3  1  0  0  0  0
  9  8  1  0  0  0  0
 10  4  1  6  0  0  0
 10  9  1  0  0  0  0
 11 10  1  0  0  0  0
 12 11  1  0  0  0  0
 13 11  1  0  0  0  0
 13 14  1  0  0  0  0
 15 16  1  0  0  0  0
 15 13  1  0  0  0  0
 16  9  1  0  0  0  0
 17 18  1  0  0  0  0
 18 23  1  0  0  0  0
 18 19  2  0  0  0  0
 19 25  1  0  0  0  0
 20 19  1  0  0  0  0
 21 20  2  0  0  0  0
 22 21  1  0  0  0  0
 22 17  2  0  0  0  0
 24 21  1  0  0  0  0
 25 27  1  0  0  0  0
 25 26  1  0  0  0  0
 25 28  1  0  0  0  0
M  END
>  <minimizedAffinity>
-5.44510031

$$$$

 OpenBabel03272508033D

 28 30  0  0  1  0  0  0  0  0999 V2000
   38.1170   24.2650   33.0570 C   0  0  0  0  0  0  0  0  0  0  0  0
   38.2240   23.8970   31.7310 C   0  0  0  0  0  0  0  0  0  0  0  0
   37.4340   24.7270   30.9320 C   0  0  0  0  0  0  0  0  0  0  0  0
   36.8770   25.5740   31.8290 N   0  0  0  0  0  0  0  0  0  0  0  0
   37.2640   25.3200   33.0750 N   0  0  0  0  0  0  0  0  0  0  0  0
   38.8250   23.0840   31.3270 H   0  0  0  0  0  0  0  0  0  0  0  0
   37.2840   24.7240   29.8730 H   0  0  0  0  0  0  0  0  0  0  0  0
   36.4830   26.3710   29.6700 H   0  0  0  0  0  0  0  0  0  0  0  0
   36.1450   27.2110   30.2290 N   0  0  0  0  0  0  0  0  0  0  0  0
   35.9490   26.6710   31.5720 C   0  0  2  0  0  3  0  0  0  0  0  0
   36.1710   27.8060   32.5250 C   0  0  0  0  0  3  0  0  0  0  0  0
   37.2390   27.8140   32.8270 H   0  0  0  0  0  0  0  0  0  0  0  0
   35.9140   29.0810   31.8880 N   0  0  0  0  0  0  0  0  0  0  0  0
   34.9600   29.1550   31.4700 H   0  0  0  0  0  0  0  0  0  0  0  0
   36.9570   29.4100   30.9360 C   0  0  0  0  0  2  0  0  0  0  0  0
   37.2990   28.1180   30.2150 C   0  0  0  0  0  2  0  0  0  0  0  0
   38.7670   23.6540   34.2110 C   0  0  0  0  0  0  0  0  0  0  0  0
   38.2510   24.0020   35.4980 C   0  0  0  0  0  0  0  0  0  0  0  0
   38.8610   23.4320   36.6140 C   0  0  0  0  0  0  0  0  0  0  0  0
   39.8970   22.5890   36.4160 N   0  0  0  0  0  0  0  0  0  0  0  0
   40.3640   22.2770   35.1780 C   0  0  0  0  0  0  0  0  0  0  0  0
   39.7810   22.8250   34.0900 N   0  0  0  0  0  0  0  0  0  0  0  0
   37.4140   24.6880   35.5680 H   0  0  0  0  0  0  0  0  0  0  0  0
   41.2040   21.5920   35.0580 H   0  0  0  0  0  0  0  0  0  0  0  0
   38.3410   23.7800   37.9620 C   0  0  0  0  0  0  0  0  0  0  0  0
   38.0470   25.1170   37.9300 F   0  0  0  0  0  0  0  0  0  0  0  0
   37.1830   23.0730   38.2780 F   0  0  0  0  0  0  0  0  0  0  0  0
   39.2830   23.5490   38.9630 F   0  0  0  0  0  0  0  0  0  0  0  0
  1  5  2  0  0  0  0
  1 17  1  0  0  0  0
  2  1  1  0  0  0  0
  3  2  2  0  0  0  0
  3  4  1  0  0  0  0
  4  5  1  0  0  0  0
  6  2  1  0  0  0  0
  7  3  1  0  0  0  0
  8  9  1  0  0  0  0
  9 10  1  0  0  0  0
 10  4  1  1  0  0  0
 10 11  1  0  0  0  0
 11 12  1  0  0  0  0
 13 11  1  0  0  0  0
 14 13  1  0  0  0  0
 15 13  1  0  0  0  0
 16  9  1  0  0  0  0
 16 15  1  0  0  0  0
 17 18  1  0  0  0  0
 18 23  1  0  0  0  0
 18 19  2  0  0  0  0
 19 25  1  0  0  0  0
 20 19  1  0  0  0  0
 21 20  2  0  0  0  0
 22 17  2  0  0  0  0
 22 21  1  0  0  0  0
 24 21  1  0  0  0  0
 25 27  1  0  0  0  0
 25 28  1  0  0  0  0
 26 25  1  0  0  0  0
M  END
>  <minimizedAffinity>
-5.38339949

$$$$

 OpenBabel03272508033D

 28 30  0  0  1  0  0  0  0  0999 V2000
   39.9580   23.5120   33.5900 C   0  0  0  0  0  0  0  0  0  0  0  0
   40.9430   23.9350   32.7220 C   0  0  0  0  0  0  0  0  0  0  0  0
   40.3870   24.2820   31.4880 C   0  0  0  0  0  0  0  0  0  0  0  0
   39.0660   24.0500   31.6720 N   0  0  0  0  0  0  0  0  0  0  0  0
   38.7960   23.5990   32.8940 N   0  0  0  0  0  0  0  0  0  0  0  0
   42.0100   24.0010   32.9300 H   0  0  0  0  0  0  0  0  0  0  0  0
   40.8570   24.6470   30.5990 H   0  0  0  0  0  0  0  0  0  0  0  0
   39.0670   25.8090   30.1370 H   0  0  0  0  0  0  0  0  0  0  0  0
   38.0290   25.5710   30.1290 N   0  0  0  0  0  0  0  0  0  0  0  0
   37.9800   24.2340   30.7160 C   0  0  2  0  0  3  0  0  0  0  0  0
   36.6420   24.1090   31.3810 C   0  0  0  0  0  3  0  0  0  0  0  0
   36.7390   24.4270   32.4400 H   0  0  0  0  0  0  0  0  0  0  0  0
   35.6720   24.9960   30.7730 N   0  0  0  0  0  0  0  0  0  0  0  0
   35.5660   24.8570   29.7430 H   0  0  0  0  0  0  0  0  0  0  0  0
   35.9390   26.3780   31.1160 C   0  0  0  0  0  2  0  0  0  0  0  0
   37.4460   26.5500   31.0560 C   0  0  0  0  0  2  0  0  0  0  0  0
   40.1130   23.0530   34.9660 C   0  0  0  0  0  0  0  0  0  0  0  0
   39.2130   23.6010   35.9320 C   0  0  0  0  0  0  0  0  0  0  0  0
   39.3480   23.1780   37.2540 C   0  0  0  0  0  0  0  0  0  0  0  0
   40.3140   22.2800   37.5420 N   0  0  0  0  0  0  0  0  0  0  0  0
   41.1530   21.7760   36.5990 C   0  0  0  0  0  0  0  0  0  0  0  0
   41.0330   22.1800   35.3170 N   0  0  0  0  0  0  0  0  0  0  0  0
   38.4650   24.3190   35.6140 H   0  0  0  0  0  0  0  0  0  0  0  0
   41.9220   21.0520   36.8710 H   0  0  0  0  0  0  0  0  0  0  0  0
   38.4230   23.7370   38.2740 C   0  0  0  0  0  0  0  0  0  0  0  0
   39.1320   23.8060   39.4430 F   0  0  0  0  0  0  0  0  0  0  0  0
   37.9810   25.0160   37.9400 F   0  0  0  0  0  0  0  0  0  0  0  0
   37.3070   22.9250   38.4700 F   0  0  0  0  0  0  0  0  0  0  0  0
  1 17  1  0  0  0  0
  2  6  1  0  0  0  0
  2  1  1  0  0  0  0
  3  4  1  0  0  0  0
  3  2  2  0  0  0  0
  4  5  1  0  0  0  0
  5  1  2  0  0  0  0
  7  3  1  0  0  0  0
  9  8  1  0  0  0  0
  9 10  1  0  0  0  0
  9 16  1  0  0  0  0
 10 11  1  0  0  0  0
 10  4  1  1  0  0  0
 11 12  1  0  0  0  0
 13 15  1  0  0  0  0
 13 11  1  0  0  0  0
 14 13  1  0  0  0  0
 16 15  1  0  0  0  0
 17 22  2  0  0  0  0
 17 18  1  0  0  0  0
 18 19  2  0  0  0  0
 19 20  1  0  0  0  0
 19 25  1  0  0  0  0
 21 24  1  0  0  0  0
 21 20  2  0  0  0  0
 22 21  1  0  0  0  0
 23 18  1  0  0  0  0
 25 28  1  0  0  0  0
 25 26  1  0  0  0  0
 27 25  1  0  0  0  0
M  END
>  <minimizedAffinity>
-5.35352564

$$$$

 OpenBabel03272508033D

 28 30  0  0  1  0  0  0  0  0999 V2000
   35.6290   28.7920   33.4750 C   0  0  0  0  0  0  0  0  0  0  0  0
   36.5940   28.1110   34.1880 C   0  0  0  0  0  0  0  0  0  0  0  0
   37.1880   27.1320   33.3890 C   0  0  0  0  0  0  0  0  0  0  0  0
   36.5420   27.2690   32.2070 N   0  0  0  0  0  0  0  0  0  0  0  0
   35.6280   28.2340   32.2380 N   0  0  0  0  0  0  0  0  0  0  0  0
   36.8800   28.2830   35.2250 H   0  0  0  0  0  0  0  0  0  0  0  0
   37.9630   26.4310   33.6190 H   0  0  0  0  0  0  0  0  0  0  0  0
   34.7440   26.4480   30.9650 H   0  0  0  0  0  0  0  0  0  0  0  0
   35.5140   25.8120   30.5970 N   0  0  0  0  0  0  0  0  0  0  0  0
   36.7420   26.5050   30.9800 C   0  0  2  0  0  3  0  0  0  0  0  0
   37.7900   25.4490   31.1610 C   0  0  0  0  0  3  0  0  0  0  0  0
   37.7940   25.1290   32.2240 H   0  0  0  0  0  0  0  0  0  0  0  0
   37.4820   24.2690   30.3790 N   0  0  0  0  0  0  0  0  0  0  0  0
   37.3530   24.4640   29.3610 H   0  0  0  0  0  0  0  0  0  0  0  0
   36.3640   23.5420   30.9450 C   0  0  0  0  0  2  0  0  0  0  0  0
   35.3570   24.5880   31.3930 C   0  0  0  0  0  2  0  0  0  0  0  0
   34.7710   29.8780   33.9380 C   0  0  0  0  0  0  0  0  0  0  0  0
   35.3600   30.8230   34.8340 C   0  0  0  0  0  0  0  0  0  0  0  0
   34.5560   31.8660   35.2920 C   0  0  0  0  0  0  0  0  0  0  0  0
   33.2770   31.9230   34.8650 N   0  0  0  0  0  0  0  0  0  0  0  0
   32.7470   31.0080   34.0100 C   0  0  0  0  0  0  0  0  0  0  0  0
   33.5160   29.9930   33.5620 N   0  0  0  0  0  0  0  0  0  0  0  0
   36.3980   30.7040   35.1280 H   0  0  0  0  0  0  0  0  0  0  0  0
   31.7090   31.0860   33.6870 H   0  0  0  0  0  0  0  0  0  0  0  0
   35.1480   32.8600   36.2260 C   0  0  0  0  0  0  0  0  0  0  0  0
   35.0050   32.3420   37.4850 F   0  0  0  0  0  0  0  0  0  0  0  0
   36.5030   33.0720   35.9780 F   0  0  0  0  0  0  0  0  0  0  0  0
   34.4940   34.0890   36.1650 F   0  0  0  0  0  0  0  0  0  0  0  0
  1 17  1  0  0  0  0
  1  2  1  0  0  0  0
  2  6  1  0  0  0  0
  3  7  1  0  0  0  0
  3  2  2  0  0  0  0
  4  5  1  0  0  0  0
  4  3  1  0  0  0  0
  5  1  2  0  0  0  0
  9  8  1  0  0  0  0
  9 10  1  0  0  0  0
  9 16  1  0  0  0  0
 10 11  1  0  0  0  0
 10  4  1  1  0  0  0
 11 12  1  0  0  0  0
 13 15  1  0  0  0  0
 13 11  1  0  0  0  0
 14 13  1  0  0  0  0
 15 16  1  0  0  0  0
 17 18  1  0  0  0  0
 18 23  1  0  0  0  0
 18 19  2  0  0  0  0
 19 25  1  0  0  0  0
 20 19  1  0  0  0  0
 21 20  2  0  0  0  0
 22 17  2  0  0  0  0
 22 21  1  0  0  0  0
 24 21  1  0  0  0  0
 25 26  1  0  0  0  0
 27 25  1  0  0  0  0
 28 25  1  0  0  0  0
M  END
>  <minimizedAffinity>
-5.25099468

$$$$

 OpenBabel03272508033D

 28 30  0  0  1  0  0  0  0  0999 V2000
   37.8170   22.8360   34.1960 C   0  0  0  0  0  0  0  0  0  0  0  0
   37.1940   21.7700   33.5780 C   0  0  0  0  0  0  0  0  0  0  0  0
   36.7050   22.1510   32.3270 C   0  0  0  0  0  0  0  0  0  0  0  0
   37.0630   23.4550   32.2440 N   0  0  0  0  0  0  0  0  0  0  0  0
   37.7140   23.8720   33.3260 N   0  0  0  0  0  0  0  0  0  0  0  0
   37.0790   20.7630   33.9770 H   0  0  0  0  0  0  0  0  0  0  0  0
   36.1770   21.5830   31.5910 H   0  0  0  0  0  0  0  0  0  0  0  0
   37.9550   23.1090   30.1140 H   0  0  0  0  0  0  0  0  0  0  0  0
   37.7510   24.1510   30.0500 N   0  0  0  0  0  0  0  0  0  0  0  0
   36.8160   24.3860   31.1480 C   0  0  2  0  0  3  0  0  0  0  0  0
   37.0170   25.8060   31.5840 C   0  0  0  0  0  3  0  0  0  0  0  0
   37.7720   25.8250   32.3970 H   0  0  0  0  0  0  0  0  0  0  0  0
   37.5530   26.6120   30.5070 N   0  0  0  0  0  0  0  0  0  0  0  0
   36.9720   26.5900   29.6400 H   0  0  0  0  0  0  0  0  0  0  0  0
   38.9400   26.2830   30.2470 C   0  0  0  0  0  2  0  0  0  0  0  0
   39.0480   24.7720   30.3520 C   0  0  0  0  0  2  0  0  0  0  0  0
   38.4500   22.8650   35.5100 C   0  0  0  0  0  0  0  0  0  0  0  0
   39.7620   22.3050   35.6040 C   0  0  0  0  0  0  0  0  0  0  0  0
   40.3820   22.3190   36.8520 C   0  0  0  0  0  0  0  0  0  0  0  0
   39.7120   22.8590   37.8930 N   0  0  0  0  0  0  0  0  0  0  0  0
   38.4640   23.3840   37.7700 C   0  0  0  0  0  0  0  0  0  0  0  0
   37.8540   23.3740   36.5660 N   0  0  0  0  0  0  0  0  0  0  0  0
   40.2290   21.8910   34.7160 H   0  0  0  0  0  0  0  0  0  0  0  0
   37.9540   23.8110   38.6350 H   0  0  0  0  0  0  0  0  0  0  0  0
   41.7460   21.7420   36.9730 C   0  0  0  0  0  0  0  0  0  0  0  0
   41.9480   20.9860   35.8490 F   0  0  0  0  0  0  0  0  0  0  0  0
   42.7300   22.7260   37.0360 F   0  0  0  0  0  0  0  0  0  0  0  0
   41.8710   20.9240   38.0950 F   0  0  0  0  0  0  0  0  0  0  0  0
  1 17  1  0  0  0  0
  2  6  1  0  0  0  0
  2  1  1  0  0  0  0
  3  2  2  0  0  0  0
  4  3  1  0  0  0  0
  4  5  1  0  0  0  0
  5  1  2  0  0  0  0
  7  3  1  0  0  0  0
  9  8  1  0  0  0  0
  9 16  1  0  0  0  0
  9 10  1  0  0  0  0
 10 11  1  0  0  0  0
 10  4  1  1  0  0  0
 11 12  1  0  0  0  0
 13 11  1  0  0  0  0
 14 13  1  0  0  0  0
 15 16  1  0  0  0  0
 15 13  1  0  0  0  0
 17 18  2  0  0  0  0
 17 22  1  0  0  0  0
 18 19  1  0  0  0  0
 19 25  1  0  0  0  0
 19 20  2  0  0  0  0
 21 20  1  0  0  0  0
 21 24  1  0  0  0  0
 22 21  2  0  0  0  0
 23 18  1  0  0  0  0
 25 27  1  0  0  0  0
 25 28  1  0  0  0  0
 26 25  1  0  0  0  0
M  END
>  <minimizedAffinity>
-5.21891499

$$$$
