
 OpenBabel03272508343D

 25 27  0  0  1  0  0  0  0  0999 V2000
   37.9590   25.5670   35.2180 C   0  0  0  0  0  0  0  0  0  0  0  0
   37.7820   26.9120   35.4960 C   0  0  0  0  0  0  0  0  0  0  0  0
   37.2120   27.5090   34.3800 C   0  0  0  0  0  0  0  0  0  0  0  0
   37.0660   26.5200   33.4810 N   0  0  0  0  0  0  0  0  0  0  0  0
   37.5080   25.3260   33.9540 N   0  0  0  0  0  0  0  0  0  0  0  0
   38.0430   27.4110   36.4230 H   0  0  0  0  0  0  0  0  0  0  0  0
   36.9420   28.5260   34.2470 H   0  0  0  0  0  0  0  0  0  0  0  0
   38.6670   23.4540   38.2490 C   0  0  0  0  0  0  0  0  0  0  0  0
   38.0020   24.3840   37.4490 C   0  0  0  0  0  0  0  0  0  0  0  0
   38.5410   24.6310   36.1660 C   0  0  0  0  0  0  0  0  0  0  0  0
   39.6820   23.9450   35.7790 N   0  0  0  0  0  0  0  0  0  0  0  0
   40.2660   23.0530   36.6260 C   0  0  0  0  0  0  0  0  0  0  0  0
   39.7670   22.8110   37.8430 N   0  0  0  0  0  0  0  0  0  0  0  0
   38.2430   23.2770   39.2280 H   0  0  0  0  0  0  0  0  0  0  0  0
   37.1160   24.9280   37.7270 H   0  0  0  0  0  0  0  0  0  0  0  0
   41.1450   22.6050   36.1740 H   0  0  0  0  0  0  0  0  0  0  0  0
   37.3310   25.7410   30.4890 H   0  0  0  0  0  0  0  0  0  0  0  0
   37.4980   26.5230   31.1520 N   0  0  0  0  0  0  0  0  0  0  0  0
   36.4900   26.7300   32.1410 C   0  0  2  0  0  3  0  0  0  0  0  0
   35.7270   28.0060   32.0680 C   0  0  0  0  0  3  0  0  0  0  0  0
   34.6510   27.8810   31.7530 H   0  0  0  0  0  0  0  0  0  0  0  0
   36.2620   29.0320   31.2320 N   0  0  0  0  0  0  0  0  0  0  0  0
   36.8330   29.7490   31.6840 H   0  0  0  0  0  0  0  0  0  0  0  0
   36.9020   28.5510   30.0230 C   0  0  0  0  0  2  0  0  0  0  0  0
   38.0330   27.6690   30.5200 C   0  0  0  0  0  2  0  0  0  0  0  0
  1  2  1  0  0  0  0
  1 10  1  0  0  0  0
  2  6  1  0  0  0  0
  3  2  2  0  0  0  0
  4  5  1  0  0  0  0
  4  3  1  0  0  0  0
  5  1  2  0  0  0  0
  7  3  1  0  0  0  0
  8 14  1  0  0  0  0
  9 15  1  0  0  0  0
  9  8  2  0  0  0  0
 10  9  1  0  0  0  0
 11 10  2  0  0  0  0
 11 12  1  0  0  0  0
 12 13  2  0  0  0  0
 13  8  1  0  0  0  0
 16 12  1  0  0  0  0
 17 18  1  0  0  0  0
 18 19  1  0  0  0  0
 19  4  1  1  0  0  0
 20 19  1  0  0  0  0
 21 20  1  0  0  0  0
 22 23  1  0  0  0  0
 22 20  1  0  0  0  0
 24 25  1  0  0  0  0
 24 22  1  0  0  0  0
 25 18  1  0  0  0  0
M  END
>  <minimizedAffinity>
-4.66686153

$$$$

 OpenBabel03272508343D

 25 27  0  0  1  0  0  0  0  0999 V2000
   35.5620   29.8870   33.4220 C   0  0  0  0  0  0  0  0  0  0  0  0
   35.7110   30.5580   32.2200 C   0  0  0  0  0  0  0  0  0  0  0  0
   36.2200   29.6630   31.2880 C   0  0  0  0  0  0  0  0  0  0  0  0
   36.3580   28.5000   31.9490 N   0  0  0  0  0  0  0  0  0  0  0  0
   35.9680   28.5970   33.2470 N   0  0  0  0  0  0  0  0  0  0  0  0
   35.4730   31.6010   32.0380 H   0  0  0  0  0  0  0  0  0  0  0  0
   36.4560   29.8400   30.2700 H   0  0  0  0  0  0  0  0  0  0  0  0
   35.2260   31.8510   36.6120 C   0  0  0  0  0  0  0  0  0  0  0  0
   35.8530   31.3000   35.4940 C   0  0  0  0  0  0  0  0  0  0  0  0
   35.0550   30.5210   34.6270 C   0  0  0  0  0  0  0  0  0  0  0  0
   33.7120   30.3510   34.9300 N   0  0  0  0  0  0  0  0  0  0  0  0
   33.1830   30.9270   36.0440 C   0  0  0  0  0  0  0  0  0  0  0  0
   33.9270   31.6660   36.8740 N   0  0  0  0  0  0  0  0  0  0  0  0
   35.8500   32.4440   37.2660 H   0  0  0  0  0  0  0  0  0  0  0  0
   36.8920   31.4180   35.2380 H   0  0  0  0  0  0  0  0  0  0  0  0
   32.1260   30.6970   36.1360 H   0  0  0  0  0  0  0  0  0  0  0  0
   36.1320   26.6830   29.4440 H   0  0  0  0  0  0  0  0  0  0  0  0
   35.8820   26.7280   30.4510 N   0  0  0  0  0  0  0  0  0  0  0  0
   36.8760   27.2720   31.3180 C   0  0  2  0  0  3  0  0  0  0  0  0
   37.4710   26.3510   32.3240 C   0  0  0  0  0  3  0  0  0  0  0  0
   38.5470   26.0820   32.1200 H   0  0  0  0  0  0  0  0  0  0  0  0
   36.7940   25.1140   32.5460 N   0  0  0  0  0  0  0  0  0  0  0  0
   36.1470   25.0740   33.3360 H   0  0  0  0  0  0  0  0  0  0  0  0
   36.1960   24.5340   31.3600 C   0  0  0  0  0  2  0  0  0  0  0  0
   35.1950   25.5750   30.8940 C   0  0  0  0  0  2  0  0  0  0  0  0
  1 10  1  0  0  0  0
  2  1  1  0  0  0  0
  3  4  1  0  0  0  0
  3  2  2  0  0  0  0
  4  5  1  0  0  0  0
  5  1  2  0  0  0  0
  6  2  1  0  0  0  0
  7  3  1  0  0  0  0
  8 13  1  0  0  0  0
  8 14  1  0  0  0  0
  9  8  2  0  0  0  0
 10 11  2  0  0  0  0
 10  9  1  0  0  0  0
 11 12  1  0  0  0  0
 12 16  1  0  0  0  0
 12 13  2  0  0  0  0
 15  9  1  0  0  0  0
 17 18  1  0  0  0  0
 18 25  1  0  0  0  0
 18 19  1  0  0  0  0
 19  4  1  1  0  0  0
 19 20  1  0  0  0  0
 20 22  1  0  0  0  0
 21 20  1  0  0  0  0
 22 23  1  0  0  0  0
 24 22  1  0  0  0  0
 25 24  1  0  0  0  0
M  END
>  <minimizedAffinity>
-4.63739729

$$$$

 OpenBabel03272508343D

 25 27  0  0  1  0  0  0  0  0999 V2000
   37.3220   27.1010   34.4810 C   0  0  0  0  0  0  0  0  0  0  0  0
   38.0130   27.4680   35.6240 C   0  0  0  0  0  0  0  0  0  0  0  0
   38.5240   26.3160   36.2060 C   0  0  0  0  0  0  0  0  0  0  0  0
   38.1300   25.3090   35.4080 N   0  0  0  0  0  0  0  0  0  0  0  0
   37.3990   25.7460   34.3500 N   0  0  0  0  0  0  0  0  0  0  0  0
   38.1350   28.4800   35.9980 H   0  0  0  0  0  0  0  0  0  0  0  0
   39.1020   26.2290   37.0910 H   0  0  0  0  0  0  0  0  0  0  0  0
   35.2740   29.9640   33.1560 C   0  0  0  0  0  0  0  0  0  0  0  0
   35.8550   29.1210   34.1040 C   0  0  0  0  0  0  0  0  0  0  0  0
   36.6500   28.0590   33.6190 C   0  0  0  0  0  0  0  0  0  0  0  0
   36.8070   27.9150   32.2490 N   0  0  0  0  0  0  0  0  0  0  0  0
   36.2030   28.7860   31.3950 C   0  0  0  0  0  0  0  0  0  0  0  0
   35.4460   29.7960   31.8400 N   0  0  0  0  0  0  0  0  0  0  0  0
   34.6690   30.7730   33.5430 H   0  0  0  0  0  0  0  0  0  0  0  0
   35.7480   29.2130   35.1710 H   0  0  0  0  0  0  0  0  0  0  0  0
   36.4240   28.5360   30.3620 H   0  0  0  0  0  0  0  0  0  0  0  0
   37.2450   22.7690   36.9570 H   0  0  0  0  0  0  0  0  0  0  0  0
   37.9630   23.5190   36.9520 N   0  0  0  0  0  0  0  0  0  0  0  0
   38.4640   23.8970   35.6700 C   0  0  2  0  0  3  0  0  0  0  0  0
   39.9000   23.6160   35.3990 C   0  0  0  0  0  3  0  0  0  0  0  0
   40.0730   22.7970   34.6430 H   0  0  0  0  0  0  0  0  0  0  0  0
   40.7180   23.2900   36.5220 N   0  0  0  0  0  0  0  0  0  0  0  0
   41.2570   24.0520   36.9410 H   0  0  0  0  0  0  0  0  0  0  0  0
   40.0520   22.5070   37.5440 C   0  0  0  0  0  2  0  0  0  0  0  0
   38.9010   23.3840   38.0010 C   0  0  0  0  0  2  0  0  0  0  0  0
  1  2  1  0  0  0  0
  2  6  1  0  0  0  0
  2  3  2  0  0  0  0
  3  7  1  0  0  0  0
  4  3  1  0  0  0  0
  5  1  2  0  0  0  0
  5  4  1  0  0  0  0
  8 14  1  0  0  0  0
  8  9  1  0  0  0  0
  9 15  1  0  0  0  0
 10  9  2  0  0  0  0
 10  1  1  0  0  0  0
 11 10  1  0  0  0  0
 12 13  1  0  0  0  0
 12 11  2  0  0  0  0
 13  8  2  0  0  0  0
 16 12  1  0  0  0  0
 18 17  1  0  0  0  0
 18 25  1  0  0  0  0
 19  4  1  1  0  0  0
 19 18  1  0  0  0  0
 20 19  1  0  0  0  0
 20 22  1  0  0  0  0
 21 20  1  0  0  0  0
 22 23  1  0  0  0  0
 22 24  1  0  0  0  0
 24 25  1  0  0  0  0
M  END
>  <minimizedAffinity>
-4.55084085

$$$$

 OpenBabel03272508343D

 25 27  0  0  1  0  0  0  0  0999 V2000
   36.2600   23.2390   31.8180 C   0  0  0  0  0  0  0  0  0  0  0  0
   35.4830   24.2110   31.2120 C   0  0  0  0  0  0  0  0  0  0  0  0
   35.9810   25.4530   31.5840 C   0  0  0  0  0  0  0  0  0  0  0  0
   37.0250   25.1910   32.3900 N   0  0  0  0  0  0  0  0  0  0  0  0
   37.2250   23.8580   32.5550 N   0  0  0  0  0  0  0  0  0  0  0  0
   34.6340   24.0340   30.5590 H   0  0  0  0  0  0  0  0  0  0  0  0
   35.6270   26.4120   31.3040 H   0  0  0  0  0  0  0  0  0  0  0  0
   34.8670   19.7520   32.0430 C   0  0  0  0  0  0  0  0  0  0  0  0
   34.9770   21.1180   32.3020 C   0  0  0  0  0  0  0  0  0  0  0  0
   36.0210   21.8150   31.6530 C   0  0  0  0  0  0  0  0  0  0  0  0
   36.8650   21.1120   30.8060 N   0  0  0  0  0  0  0  0  0  0  0  0
   36.6830   19.7770   30.6110 C   0  0  0  0  0  0  0  0  0  0  0  0
   35.7000   19.1050   31.2200 N   0  0  0  0  0  0  0  0  0  0  0  0
   34.0630   19.2330   32.5470 H   0  0  0  0  0  0  0  0  0  0  0  0
   34.3340   21.6850   32.9540 H   0  0  0  0  0  0  0  0  0  0  0  0
   37.4250   19.3800   29.9250 H   0  0  0  0  0  0  0  0  0  0  0  0
   39.6220   25.7230   34.0030 H   0  0  0  0  0  0  0  0  0  0  0  0
   38.5880   25.6930   34.0980 N   0  0  0  0  0  0  0  0  0  0  0  0
   37.8450   26.2460   33.0120 C   0  0  2  0  0  3  0  0  0  0  0  0
   37.0400   27.4660   33.2980 C   0  0  0  0  0  3  0  0  0  0  0  0
   37.4400   28.4030   32.8150 H   0  0  0  0  0  0  0  0  0  0  0  0
   36.8300   27.7930   34.6710 N   0  0  0  0  0  0  0  0  0  0  0  0
   35.9530   27.4810   35.0940 H   0  0  0  0  0  0  0  0  0  0  0  0
   37.9530   27.4990   35.5390 C   0  0  0  0  0  2  0  0  0  0  0  0
   38.1510   26.0000   35.4070 C   0  0  0  0  0  2  0  0  0  0  0  0
  1  5  2  0  0  0  0
  2  3  2  0  0  0  0
  2  1  1  0  0  0  0
  3  4  1  0  0  0  0
  4  5  1  0  0  0  0
  6  2  1  0  0  0  0
  7  3  1  0  0  0  0
  8  9  1  0  0  0  0
  8 14  1  0  0  0  0
  9 15  1  0  0  0  0
 10  1  1  0  0  0  0
 10  9  2  0  0  0  0
 11 10  1  0  0  0  0
 12 11  2  0  0  0  0
 12 13  1  0  0  0  0
 13  8  2  0  0  0  0
 16 12  1  0  0  0  0
 17 18  1  0  0  0  0
 18 25  1  0  0  0  0
 19  4  1  1  0  0  0
 19 20  1  0  0  0  0
 19 18  1  0  0  0  0
 20 22  1  0  0  0  0
 21 20  1  0  0  0  0
 22 23  1  0  0  0  0
 22 24  1  0  0  0  0
 25 24  1  0  0  0  0
M  END
>  <minimizedAffinity>
-4.53852797

$$$$

 OpenBabel03272508343D

 25 27  0  0  1  0  0  0  0  0999 V2000
   38.0110   23.1690   34.5260 C   0  0  0  0  0  0  0  0  0  0  0  0
   37.6340   22.0220   33.8480 C   0  0  0  0  0  0  0  0  0  0  0  0
   37.2830   22.3830   32.5540 C   0  0  0  0  0  0  0  0  0  0  0  0
   37.4570   23.7150   32.4970 N   0  0  0  0  0  0  0  0  0  0  0  0
   37.8990   24.2270   33.6750 N   0  0  0  0  0  0  0  0  0  0  0  0
   37.6160   21.0160   34.2560 H   0  0  0  0  0  0  0  0  0  0  0  0
   36.9460   21.7580   31.7670 H   0  0  0  0  0  0  0  0  0  0  0  0
   39.9670   22.7420   37.7100 C   0  0  0  0  0  0  0  0  0  0  0  0
   39.6930   22.6780   36.3440 C   0  0  0  0  0  0  0  0  0  0  0  0
   38.4380   23.1640   35.9150 C   0  0  0  0  0  0  0  0  0  0  0  0
   37.5610   23.6710   36.8620 N   0  0  0  0  0  0  0  0  0  0  0  0
   37.9110   23.6950   38.1780 C   0  0  0  0  0  0  0  0  0  0  0  0
   39.0960   23.2370   38.5970 N   0  0  0  0  0  0  0  0  0  0  0  0
   40.9310   22.3660   38.0230 H   0  0  0  0  0  0  0  0  0  0  0  0
   40.3580   22.2900   35.5910 H   0  0  0  0  0  0  0  0  0  0  0  0
   37.1170   24.1190   38.7840 H   0  0  0  0  0  0  0  0  0  0  0  0
   38.7510   25.6210   30.4170 H   0  0  0  0  0  0  0  0  0  0  0  0
   38.1010   25.6090   31.2260 N   0  0  0  0  0  0  0  0  0  0  0  0
   37.1930   24.5090   31.2830 C   0  0  2  0  0  3  0  0  0  0  0  0
   35.7450   24.8240   31.1410 C   0  0  0  0  0  3  0  0  0  0  0  0
   35.2920   24.4690   30.1700 H   0  0  0  0  0  0  0  0  0  0  0  0
   35.3650   26.1920   31.2720 N   0  0  0  0  0  0  0  0  0  0  0  0
   35.0320   26.4960   32.1900 H   0  0  0  0  0  0  0  0  0  0  0  0
   36.3230   27.1380   30.7340 C   0  0  0  0  0  2  0  0  0  0  0  0
   37.5890   26.8900   31.5340 C   0  0  0  0  0  2  0  0  0  0  0  0
  1 10  1  0  0  0  0
  2  6  1  0  0  0  0
  2  1  1  0  0  0  0
  3  2  2  0  0  0  0
  4  3  1  0  0  0  0
  4  5  1  0  0  0  0
  5  1  2  0  0  0  0
  7  3  1  0  0  0  0
  8 14  1  0  0  0  0
  8 13  1  0  0  0  0
  9  8  2  0  0  0  0
 10  9  1  0  0  0  0
 10 11  2  0  0  0  0
 11 12  1  0  0  0  0
 12 13  2  0  0  0  0
 12 16  1  0  0  0  0
 15  9  1  0  0  0  0
 17 18  1  0  0  0  0
 18 19  1  0  0  0  0
 18 25  1  0  0  0  0
 19  4  1  1  0  0  0
 20 22  1  0  0  0  0
 20 19  1  0  0  0  0
 21 20  1  0  0  0  0
 22 23  1  0  0  0  0
 24 22  1  0  0  0  0
 24 25  1  0  0  0  0
M  END
>  <minimizedAffinity>
-4.48305845

$$$$

 OpenBabel03272508343D

 25 27  0  0  1  0  0  0  0  0999 V2000
   35.5320   29.8180   34.2020 C   0  0  0  0  0  0  0  0  0  0  0  0
   35.5960   30.1860   32.8680 C   0  0  0  0  0  0  0  0  0  0  0  0
   36.2280   29.1650   32.1710 C   0  0  0  0  0  0  0  0  0  0  0  0
   36.5200   28.2310   33.0930 N   0  0  0  0  0  0  0  0  0  0  0  0
   36.1130   28.5920   34.3370 N   0  0  0  0  0  0  0  0  0  0  0  0
   35.2170   31.1090   32.4430 H   0  0  0  0  0  0  0  0  0  0  0  0
   36.4440   29.1150   31.1340 H   0  0  0  0  0  0  0  0  0  0  0  0
   34.9580   32.3210   36.9500 C   0  0  0  0  0  0  0  0  0  0  0  0
   35.6680   31.5810   36.0050 C   0  0  0  0  0  0  0  0  0  0  0  0
   34.9350   30.6570   35.2280 C   0  0  0  0  0  0  0  0  0  0  0  0
   33.5710   30.5380   35.4450 N   0  0  0  0  0  0  0  0  0  0  0  0
   32.9580   31.3020   36.3910 C   0  0  0  0  0  0  0  0  0  0  0  0
   33.6400   32.1800   37.1340 N   0  0  0  0  0  0  0  0  0  0  0  0
   35.5330   33.0250   37.5370 H   0  0  0  0  0  0  0  0  0  0  0  0
   36.7260   31.6560   35.8180 H   0  0  0  0  0  0  0  0  0  0  0  0
   31.8950   31.0880   36.4360 H   0  0  0  0  0  0  0  0  0  0  0  0
   39.1560   26.6390   33.4760 H   0  0  0  0  0  0  0  0  0  0  0  0
   38.6170   27.1770   32.7700 N   0  0  0  0  0  0  0  0  0  0  0  0
   37.2050   26.9670   32.7680 C   0  0  2  0  0  3  0  0  0  0  0  0
   36.6210   26.3240   31.5590 C   0  0  0  0  0  3  0  0  0  0  0  0
   36.2480   25.2740   31.7330 H   0  0  0  0  0  0  0  0  0  0  0  0
   37.4490   26.2580   30.3990 N   0  0  0  0  0  0  0  0  0  0  0  0
   37.3270   26.9930   29.6980 H   0  0  0  0  0  0  0  0  0  0  0  0
   38.8550   26.0390   30.6750 C   0  0  0  0  0  2  0  0  0  0  0  0
   39.2660   27.2340   31.5150 C   0  0  0  0  0  2  0  0  0  0  0  0
  1  5  2  0  0  0  0
  1 10  1  0  0  0  0
  2  1  1  0  0  0  0
  3  2  2  0  0  0  0
  3  4  1  0  0  0  0
  4  5  1  0  0  0  0
  6  2  1  0  0  0  0
  7  3  1  0  0  0  0
  8 13  1  0  0  0  0
  8 14  1  0  0  0  0
  9  8  2  0  0  0  0
 10 11  2  0  0  0  0
 10  9  1  0  0  0  0
 11 12  1  0  0  0  0
 12 16  1  0  0  0  0
 12 13  2  0  0  0  0
 15  9  1  0  0  0  0
 18 17  1  0  0  0  0
 19 18  1  0  0  0  0
 19  4  1  6  0  0  0
 20 21  1  0  0  0  0
 20 19  1  0  0  0  0
 22 24  1  0  0  0  0
 22 20  1  0  0  0  0
 23 22  1  0  0  0  0
 24 25  1  0  0  0  0
 25 18  1  0  0  0  0
M  END
>  <minimizedAffinity>
-4.35061741

$$$$

 OpenBabel03272508343D

 25 27  0  0  1  0  0  0  0  0999 V2000
   38.1080   23.5430   34.5050 C   0  0  0  0  0  0  0  0  0  0  0  0
   37.9970   24.7580   33.8490 C   0  0  0  0  0  0  0  0  0  0  0  0
   37.6380   24.5040   32.5330 C   0  0  0  0  0  0  0  0  0  0  0  0
   37.5450   23.1660   32.4390 N   0  0  0  0  0  0  0  0  0  0  0  0
   37.8240   22.5480   33.6170 N   0  0  0  0  0  0  0  0  0  0  0  0
   38.1620   25.7360   34.2890 H   0  0  0  0  0  0  0  0  0  0  0  0
   37.4680   25.2030   31.7530 H   0  0  0  0  0  0  0  0  0  0  0  0
   39.8870   22.7760   37.7290 C   0  0  0  0  0  0  0  0  0  0  0  0
   39.6650   22.8080   36.3520 C   0  0  0  0  0  0  0  0  0  0  0  0
   38.4760   23.4280   35.9060 C   0  0  0  0  0  0  0  0  0  0  0  0
   37.6100   23.9640   36.8470 N   0  0  0  0  0  0  0  0  0  0  0  0
   37.9080   23.8890   38.1740 C   0  0  0  0  0  0  0  0  0  0  0  0
   39.0280   23.3030   38.6100 N   0  0  0  0  0  0  0  0  0  0  0  0
   40.8000   22.2980   38.0550 H   0  0  0  0  0  0  0  0  0  0  0  0
   40.3210   22.3990   35.6040 H   0  0  0  0  0  0  0  0  0  0  0  0
   37.1310   24.3520   38.7730 H   0  0  0  0  0  0  0  0  0  0  0  0
   35.2020   22.5630   30.4960 H   0  0  0  0  0  0  0  0  0  0  0  0
   35.7980   22.1250   31.2250 N   0  0  0  0  0  0  0  0  0  0  0  0
   37.1820   22.4700   31.1920 C   0  0  2  0  0  3  0  0  0  0  0  0
   38.1420   21.3770   30.8770 C   0  0  0  0  0  3  0  0  0  0  0  0
   38.6340   21.4740   29.8660 H   0  0  0  0  0  0  0  0  0  0  0  0
   37.6450   20.0410   30.9440 N   0  0  0  0  0  0  0  0  0  0  0  0
   37.8090   19.5270   31.8120 H   0  0  0  0  0  0  0  0  0  0  0  0
   36.2710   19.8880   30.5060 C   0  0  0  0  0  2  0  0  0  0  0  0
   35.4730   20.7670   31.4520 C   0  0  0  0  0  2  0  0  0  0  0  0
  1 10  1  0  0  0  0
  2  6  1  0  0  0  0
  2  1  1  0  0  0  0
  3  2  2  0  0  0  0
  4  3  1  0  0  0  0
  4  5  1  0  0  0  0
  5  1  2  0  0  0  0
  7  3  1  0  0  0  0
  8 14  1  0  0  0  0
  8 13  1  0  0  0  0
  9  8  2  0  0  0  0
 10  9  1  0  0  0  0
 10 11  2  0  0  0  0
 11 12  1  0  0  0  0
 12 13  2  0  0  0  0
 12 16  1  0  0  0  0
 15  9  1  0  0  0  0
 17 18  1  0  0  0  0
 18 25  1  0  0  0  0
 19 18  1  0  0  0  0
 19  4  1  1  0  0  0
 20 22  1  0  0  0  0
 20 19  1  0  0  0  0
 21 20  1  0  0  0  0
 22 23  1  0  0  0  0
 24 22  1  0  0  0  0
 24 25  1  0  0  0  0
M  END
>  <minimizedAffinity>
-4.34503126

$$$$

 OpenBabel03272508343D

 25 27  0  0  1  0  0  0  0  0999 V2000
   38.3790   24.8900   34.3680 C   0  0  0  0  0  0  0  0  0  0  0  0
   38.1570   23.5460   34.1170 C   0  0  0  0  0  0  0  0  0  0  0  0
   39.1120   22.8160   34.8120 C   0  0  0  0  0  0  0  0  0  0  0  0
   39.8650   23.7290   35.4490 N   0  0  0  0  0  0  0  0  0  0  0  0
   39.4510   24.9990   35.2040 N   0  0  0  0  0  0  0  0  0  0  0  0
   37.3740   23.1360   33.4880 H   0  0  0  0  0  0  0  0  0  0  0  0
   39.2360   21.7630   34.8450 H   0  0  0  0  0  0  0  0  0  0  0  0
   36.5300   28.1090   33.7620 C   0  0  0  0  0  0  0  0  0  0  0  0
   37.3290   27.1860   34.4360 C   0  0  0  0  0  0  0  0  0  0  0  0
   37.5650   25.9490   33.7950 C   0  0  0  0  0  0  0  0  0  0  0  0
   36.9980   25.7250   32.5500 N   0  0  0  0  0  0  0  0  0  0  0  0
   36.2300   26.6850   31.9640 C   0  0  0  0  0  0  0  0  0  0  0  0
   35.9980   27.8590   32.5600 N   0  0  0  0  0  0  0  0  0  0  0  0
   36.3590   29.0500   34.2650 H   0  0  0  0  0  0  0  0  0  0  0  0
   37.7800   27.3370   35.4020 H   0  0  0  0  0  0  0  0  0  0  0  0
   35.8630   26.3530   30.9980 H   0  0  0  0  0  0  0  0  0  0  0  0
   42.9150   23.1550   35.4570 H   0  0  0  0  0  0  0  0  0  0  0  0
   41.9910   22.6870   35.5350 N   0  0  0  0  0  0  0  0  0  0  0  0
   41.0070   23.3710   36.3100 C   0  0  2  0  0  3  0  0  0  0  0  0
   40.5580   22.7090   37.5650 C   0  0  0  0  0  3  0  0  0  0  0  0
   40.9010   23.2280   38.5060 H   0  0  0  0  0  0  0  0  0  0  0  0
   40.9030   21.3340   37.7290 N   0  0  0  0  0  0  0  0  0  0  0  0
   40.1960   20.6430   37.4670 H   0  0  0  0  0  0  0  0  0  0  0  0
   42.2010   20.9710   37.1930 C   0  0  0  0  0  2  0  0  0  0  0  0
   42.1010   21.2890   35.7130 C   0  0  0  0  0  2  0  0  0  0  0  0
  1  5  2  0  0  0  0
  2  1  1  0  0  0  0
  2  3  2  0  0  0  0
  3  7  1  0  0  0  0
  3  4  1  0  0  0  0
  5  4  1  0  0  0  0
  6  2  1  0  0  0  0
  8 14  1  0  0  0  0
  8  9  1  0  0  0  0
  9 15  1  0  0  0  0
 10  1  1  0  0  0  0
 10  9  2  0  0  0  0
 11 10  1  0  0  0  0
 12 11  2  0  0  0  0
 12 13  1  0  0  0  0
 13  8  2  0  0  0  0
 16 12  1  0  0  0  0
 17 18  1  0  0  0  0
 18 25  1  0  0  0  0
 18 19  1  0  0  0  0
 19  4  1  6  0  0  0
 19 20  1  0  0  0  0
 20 22  1  0  0  0  0
 20 21  1  0  0  0  0
 23 22  1  0  0  0  0
 24 22  1  0  0  0  0
 25 24  1  0  0  0  0
M  END
>  <minimizedAffinity>
-4.33632421

$$$$

 OpenBabel03272508343D

 25 27  0  0  1  0  0  0  0  0999 V2000
   37.6460   24.5340   33.1820 C   0  0  0  0  0  0  0  0  0  0  0  0
   37.1740   23.7850   32.1170 C   0  0  0  0  0  0  0  0  0  0  0  0
   36.4150   24.6200   31.3080 C   0  0  0  0  0  0  0  0  0  0  0  0
   36.4530   25.8250   31.9040 N   0  0  0  0  0  0  0  0  0  0  0  0
   37.1920   25.8110   33.0440 N   0  0  0  0  0  0  0  0  0  0  0  0
   37.3650   22.7310   31.9440 H   0  0  0  0  0  0  0  0  0  0  0  0
   35.9050   24.3770   30.4100 H   0  0  0  0  0  0  0  0  0  0  0  0
   38.9810   22.4770   36.0340 C   0  0  0  0  0  0  0  0  0  0  0  0
   38.0730   22.9080   35.0670 C   0  0  0  0  0  0  0  0  0  0  0  0
   38.4780   23.9770   34.2360 C   0  0  0  0  0  0  0  0  0  0  0  0
   39.7360   24.5280   34.4240 N   0  0  0  0  0  0  0  0  0  0  0  0
   40.5590   24.0430   35.3940 C   0  0  0  0  0  0  0  0  0  0  0  0
   40.1880   23.0320   36.1890 N   0  0  0  0  0  0  0  0  0  0  0  0
   38.6570   21.6580   36.6620 H   0  0  0  0  0  0  0  0  0  0  0  0
   37.0920   22.4970   34.9020 H   0  0  0  0  0  0  0  0  0  0  0  0
   41.5010   24.5810   35.4110 H   0  0  0  0  0  0  0  0  0  0  0  0
   35.5200   27.2050   29.2860 H   0  0  0  0  0  0  0  0  0  0  0  0
   36.2310   27.2700   30.0400 N   0  0  0  0  0  0  0  0  0  0  0  0
   35.7650   27.0110   31.3630 C   0  0  2  0  0  3  0  0  0  0  0  0
   35.8000   28.1470   32.3240 C   0  0  0  0  0  3  0  0  0  0  0  0
   34.7810   28.5410   32.6070 H   0  0  0  0  0  0  0  0  0  0  0  0
   36.5690   29.2880   31.9480 N   0  0  0  0  0  0  0  0  0  0  0  0
   37.5240   29.3460   32.3100 H   0  0  0  0  0  0  0  0  0  0  0  0
   36.5370   29.5950   30.5310 C   0  0  0  0  0  2  0  0  0  0  0  0
   37.1150   28.3600   29.8640 C   0  0  0  0  0  2  0  0  0  0  0  0
  1 10  1  0  0  0  0
  2  1  1  0  0  0  0
  3  4  1  0  0  0  0
  3  2  2  0  0  0  0
  4  5  1  0  0  0  0
  5  1  2  0  0  0  0
  6  2  1  0  0  0  0
  7  3  1  0  0  0  0
  8 13  1  0  0  0  0
  8 14  1  0  0  0  0
  9  8  2  0  0  0  0
 10 11  2  0  0  0  0
 10  9  1  0  0  0  0
 11 12  1  0  0  0  0
 12 16  1  0  0  0  0
 12 13  2  0  0  0  0
 15  9  1  0  0  0  0
 17 18  1  0  0  0  0
 18 19  1  0  0  0  0
 19  4  1  1  0  0  0
 19 20  1  0  0  0  0
 20 21  1  0  0  0  0
 22 23  1  0  0  0  0
 22 20  1  0  0  0  0
 24 22  1  0  0  0  0
 25 18  1  0  0  0  0
 25 24  1  0  0  0  0
M  END
>  <minimizedAffinity>
-4.28818893

$$$$
