
 OpenBabel03272503573D

 34 37  0  0  0  0  0  0  0  0999 V2000
   41.2910   26.9820   33.9440 C   0  0  0  0  0  0  0  0  0  0  0  0
   41.0060   26.0380   34.9300 C   0  0  0  0  0  0  0  0  0  0  0  0
   39.7050   25.5980   34.9480 C   0  0  0  0  0  0  0  0  0  0  0  0
   38.8380   26.0800   34.0630 N   0  0  0  0  0  0  0  0  0  0  0  0
   39.0870   26.9700   33.1240 C   0  0  0  0  0  0  0  0  0  0  0  0
   40.3480   27.3850   33.1220 N   0  0  0  0  0  0  0  0  0  0  0  0
   41.7580   25.7040   35.6000 H   0  0  0  0  0  0  0  0  0  0  0  0
   39.2740   24.6370   35.9000 N   0  0  0  0  0  0  0  0  0  0  0  0
   39.8620   23.3120   35.9780 C   0  0  0  0  0  3  0  0  0  0  0  0
   39.3830   22.6180   35.2740 H   0  0  0  0  0  0  0  0  0  0  0  0
   39.6510   22.8370   37.4170 C   0  0  0  0  0  3  0  0  0  0  0  0
   40.1870   21.8690   37.5040 H   0  0  0  0  0  0  0  0  0  0  0  0
   38.2390   22.5770   37.6370 N   0  0  0  0  0  0  0  0  0  0  0  0
   38.0000   21.6360   37.2390 H   0  0  0  0  0  0  0  0  0  0  0  0
   37.4160   23.6270   37.0540 C   0  0  0  0  0  2  0  0  0  0  0  0
   38.2330   24.9080   36.8430 C   0  0  0  0  0  2  0  0  0  0  0  0
   38.2670   27.5830   32.0840 C   0  0  0  0  0  0  0  0  0  0  0  0
   38.5960   27.5220   30.7680 N   0  0  0  0  0  0  0  0  0  0  0  0
   37.8240   28.0720   29.8250 C   0  0  0  0  0  0  0  0  0  0  0  0
   36.6790   28.7210   30.0730 N   0  0  0  0  0  0  0  0  0  0  0  0
   36.2980   28.8150   31.3660 C   0  0  0  0  0  0  0  0  0  0  0  0
   35.1210   29.4830   31.6450 C   0  0  0  0  0  0  0  0  0  0  0  0
   34.6860   29.6130   32.9350 C   0  0  0  0  0  0  0  0  0  0  0  0
   35.4710   29.0520   33.9090 C   0  0  0  0  0  0  0  0  0  0  0  0
   36.6390   28.3930   33.5920 C   0  0  0  0  0  0  0  0  0  0  0  0
   37.0970   28.2480   32.3160 C   0  0  0  0  0  0  0  0  0  0  0  0
   38.1020   28.0170   28.7560 H   0  0  0  0  0  0  0  0  0  0  0  0
   34.5470   29.9050   30.8060 H   0  0  0  0  0  0  0  0  0  0  0  0
   33.7650   30.1330   33.1570 H   0  0  0  0  0  0  0  0  0  0  0  0
   35.0920   29.1760   34.9320 H   0  0  0  0  0  0  0  0  0  0  0  0
   37.1390   28.0180   34.4690 H   0  0  0  0  0  0  0  0  0  0  0  0
   42.6300   27.5420   33.7920 N   0  0  0  0  0  0  0  0  0  0  0  0
   43.0370   28.1910   34.5150 H   0  0  0  0  0  0  0  0  0  0  0  0
   43.0100   27.1720   32.9010 H   0  0  0  0  0  0  0  0  0  0  0  0
  1  2  1  0  0  0  0
  2  3  2  0  0  0  0
  2  7  1  0  0  0  0
  3  8  1  0  0  0  0
  4  3  1  0  0  0  0
  5  4  2  0  0  0  0
  6  5  1  0  0  0  0
  6  1  2  0  0  0  0
  8  9  1  0  0  0  0
  8 16  1  0  0  0  0
  9 11  1  0  0  0  0
 10  9  1  0  0  0  0
 11 12  1  0  0  0  0
 11 13  1  0  0  0  0
 14 13  1  0  0  0  0
 15 13  1  0  0  0  0
 16 15  1  0  0  0  0
 17 26  1  0  0  0  0
 17  5  1  0  0  0  0
 18 17  2  0  0  0  0
 19 20  2  0  0  0  0
 19 18  1  0  0  0  0
 20 21  1  0  0  0  0
 21 22  2  0  0  0  0
 21 26  1  0  0  0  0
 22 23  1  0  0  0  0
 23 29  1  0  0  0  0
 23 24  2  0  0  0  0
 24 30  1  0  0  0  0
 25 24  1  0  0  0  0
 25 31  1  0  0  0  0
 26 25  2  0  0  0  0
 27 19  1  0  0  0  0
 28 22  1  0  0  0  0
 32  1  1  0  0  0  0
 32 33  1  0  0  0  0
 34 32  1  0  0  0  0
M  END
>  <minimizedAffinity>
-6.26728916

$$$$

 OpenBabel03272503573D

 34 37  0  0  0  0  0  0  0  0999 V2000
   35.7400   30.3250   31.1690 C   0  0  0  0  0  0  0  0  0  0  0  0
   36.1550   29.0060   30.9910 C   0  0  0  0  0  0  0  0  0  0  0  0
   36.2610   28.2730   32.1480 C   0  0  0  0  0  0  0  0  0  0  0  0
   35.9720   28.8440   33.3140 N   0  0  0  0  0  0  0  0  0  0  0  0
   35.5780   30.0860   33.5030 C   0  0  0  0  0  0  0  0  0  0  0  0
   35.4830   30.7800   32.3750 N   0  0  0  0  0  0  0  0  0  0  0  0
   36.3660   28.6260   30.0230 H   0  0  0  0  0  0  0  0  0  0  0  0
   36.6730   26.9150   32.1150 N   0  0  0  0  0  0  0  0  0  0  0  0
   35.9340   25.9020   31.3840 C   0  0  0  0  0  3  0  0  0  0  0  0
   35.1150   25.4880   31.9880 H   0  0  0  0  0  0  0  0  0  0  0  0
   36.9430   24.8050   31.0380 C   0  0  0  0  0  3  0  0  0  0  0  0
   36.4020   24.0800   30.3950 H   0  0  0  0  0  0  0  0  0  0  0  0
   37.3320   24.1080   32.2520 N   0  0  0  0  0  0  0  0  0  0  0  0
   36.5870   23.4120   32.4990 H   0  0  0  0  0  0  0  0  0  0  0  0
   37.5700   25.0450   33.3410 C   0  0  0  0  0  2  0  0  0  0  0  0
   37.8420   26.4540   32.7990 C   0  0  0  0  0  2  0  0  0  0  0  0
   35.2160   30.8490   34.6930 C   0  0  0  0  0  0  0  0  0  0  0  0
   35.9990   31.8430   35.1870 N   0  0  0  0  0  0  0  0  0  0  0  0
   35.6460   32.5450   36.2680 C   0  0  0  0  0  0  0  0  0  0  0  0
   34.5130   32.3480   36.9560 N   0  0  0  0  0  0  0  0  0  0  0  0
   33.6910   31.3720   36.5130 C   0  0  0  0  0  0  0  0  0  0  0  0
   32.5190   31.1500   37.2100 C   0  0  0  0  0  0  0  0  0  0  0  0
   31.6480   30.1730   36.8110 C   0  0  0  0  0  0  0  0  0  0  0  0
   32.0030   29.4480   35.7030 C   0  0  0  0  0  0  0  0  0  0  0  0
   33.1820   29.6980   35.0340 C   0  0  0  0  0  0  0  0  0  0  0  0
   34.0670   30.6640   35.4090 C   0  0  0  0  0  0  0  0  0  0  0  0
   36.2910   33.3520   36.6610 H   0  0  0  0  0  0  0  0  0  0  0  0
   32.3050   31.7770   38.0890 H   0  0  0  0  0  0  0  0  0  0  0  0
   30.7300   29.9980   37.3520 H   0  0  0  0  0  0  0  0  0  0  0  0
   31.2830   28.6720   35.4120 H   0  0  0  0  0  0  0  0  0  0  0  0
   33.3140   29.0380   34.1920 H   0  0  0  0  0  0  0  0  0  0  0  0
   35.5750   31.2300   30.0370 N   0  0  0  0  0  0  0  0  0  0  0  0
   36.4040   31.5770   29.4880 H   0  0  0  0  0  0  0  0  0  0  0  0
   34.5590   31.4060   29.9400 H   0  0  0  0  0  0  0  0  0  0  0  0
  1  6  1  0  0  0  0
  2  1  2  0  0  0  0
  2  3  1  0  0  0  0
  3  4  2  0  0  0  0
  4  5  1  0  0  0  0
  5 17  1  0  0  0  0
  6  5  2  0  0  0  0
  7  2  1  0  0  0  0
  8  3  1  0  0  0  0
  8 16  1  0  0  0  0
  9 10  1  0  0  0  0
  9  8  1  0  0  0  0
 11  9  1  0  0  0  0
 11 13  1  0  0  0  0
 12 11  1  0  0  0  0
 13 14  1  0  0  0  0
 13 15  1  0  0  0  0
 16 15  1  0  0  0  0
 17 18  2  0  0  0  0
 17 26  1  0  0  0  0
 18 19  1  0  0  0  0
 19 27  1  0  0  0  0
 19 20  2  0  0  0  0
 21 20  1  0  0  0  0
 21 22  1  0  0  0  0
 22 28  1  0  0  0  0
 23 22  2  0  0  0  0
 23 29  1  0  0  0  0
 24 23  1  0  0  0  0
 25 26  1  0  0  0  0
 25 24  2  0  0  0  0
 26 21  2  0  0  0  0
 30 24  1  0  0  0  0
 31 25  1  0  0  0  0
 32  1  1  0  0  0  0
 33 32  1  0  0  0  0
 34 32  1  0  0  0  0
M  END
>  <minimizedAffinity>
-5.98874855

$$$$

 OpenBabel03272503573D

 34 37  0  0  0  0  0  0  0  0999 V2000
   41.2830   27.0370   33.8940 C   0  0  0  0  0  0  0  0  0  0  0  0
   41.0040   26.0690   34.8580 C   0  0  0  0  0  0  0  0  0  0  0  0
   39.7050   25.6200   34.8650 C   0  0  0  0  0  0  0  0  0  0  0  0
   38.8360   26.1160   33.9900 N   0  0  0  0  0  0  0  0  0  0  0  0
   39.0800   27.0300   33.0720 C   0  0  0  0  0  0  0  0  0  0  0  0
   40.3380   27.4520   33.0810 N   0  0  0  0  0  0  0  0  0  0  0  0
   41.7560   25.7250   35.5210 H   0  0  0  0  0  0  0  0  0  0  0  0
   39.2800   24.6340   35.7930 N   0  0  0  0  0  0  0  0  0  0  0  0
   39.8770   23.3120   35.8420 C   0  0  0  0  0  3  0  0  0  0  0  0
   39.4030   22.6310   35.1220 H   0  0  0  0  0  0  0  0  0  0  0  0
   39.6680   22.8030   37.2690 C   0  0  0  0  0  3  0  0  0  0  0  0
   40.2100   21.8370   37.3350 H   0  0  0  0  0  0  0  0  0  0  0  0
   38.2570   22.5280   37.4820 N   0  0  0  0  0  0  0  0  0  0  0  0
   38.0250   21.5950   37.0620 H   0  0  0  0  0  0  0  0  0  0  0  0
   37.4270   23.5860   36.9210 C   0  0  0  0  0  2  0  0  0  0  0  0
   38.2360   24.8760   36.7420 C   0  0  0  0  0  2  0  0  0  0  0  0
   38.2560   27.6600   32.0450 C   0  0  0  0  0  0  0  0  0  0  0  0
   37.0560   28.2310   32.3250 N   0  0  0  0  0  0  0  0  0  0  0  0
   36.3200   28.8200   31.3780 C   0  0  0  0  0  0  0  0  0  0  0  0
   36.6810   28.9080   30.0900 N   0  0  0  0  0  0  0  0  0  0  0  0
   37.8670   28.3580   29.7500 C   0  0  0  0  0  0  0  0  0  0  0  0
   38.2570   28.4350   28.4270 C   0  0  0  0  0  0  0  0  0  0  0  0
   39.4470   27.8940   28.0210 C   0  0  0  0  0  0  0  0  0  0  0  0
   40.2070   27.2870   28.9870 C   0  0  0  0  0  0  0  0  0  0  0  0
   39.7840   27.2290   30.2970 C   0  0  0  0  0  0  0  0  0  0  0  0
   38.6060   27.7600   30.7290 C   0  0  0  0  0  0  0  0  0  0  0  0
   35.3440   29.2820   31.6160 H   0  0  0  0  0  0  0  0  0  0  0  0
   37.5900   28.9410   27.7120 H   0  0  0  0  0  0  0  0  0  0  0  0
   39.7560   27.9530   26.9880 H   0  0  0  0  0  0  0  0  0  0  0  0
   41.1540   26.8630   28.6260 H   0  0  0  0  0  0  0  0  0  0  0  0
   40.4920   26.7150   30.9250 H   0  0  0  0  0  0  0  0  0  0  0  0
   42.6180   27.6090   33.7570 N   0  0  0  0  0  0  0  0  0  0  0  0
   43.0200   28.2450   34.4950 H   0  0  0  0  0  0  0  0  0  0  0  0
   43.0010   27.2630   32.8590 H   0  0  0  0  0  0  0  0  0  0  0  0
  1  2  1  0  0  0  0
  2  3  2  0  0  0  0
  2  7  1  0  0  0  0
  3  8  1  0  0  0  0
  4  3  1  0  0  0  0
  5  6  1  0  0  0  0
  5  4  2  0  0  0  0
  6  1  2  0  0  0  0
  8  9  1  0  0  0  0
  8 16  1  0  0  0  0
  9 11  1  0  0  0  0
 10  9  1  0  0  0  0
 11 12  1  0  0  0  0
 11 13  1  0  0  0  0
 14 13  1  0  0  0  0
 15 13  1  0  0  0  0
 16 15  1  0  0  0  0
 17 18  1  0  0  0  0
 17  5  1  0  0  0  0
 19 27  1  0  0  0  0
 19 18  2  0  0  0  0
 20 19  1  0  0  0  0
 21 20  2  0  0  0  0
 21 26  1  0  0  0  0
 22 21  1  0  0  0  0
 23 22  2  0  0  0  0
 23 24  1  0  0  0  0
 24 25  2  0  0  0  0
 25 26  1  0  0  0  0
 25 31  1  0  0  0  0
 26 17  2  0  0  0  0
 28 22  1  0  0  0  0
 29 23  1  0  0  0  0
 30 24  1  0  0  0  0
 32  1  1  0  0  0  0
 32 33  1  0  0  0  0
 34 32  1  0  0  0  0
M  END
>  <minimizedAffinity>
-5.9562211

$$$$

 OpenBabel03272503573D

 34 37  0  0  0  0  0  0  0  0999 V2000
   36.2200   29.1310   31.3410 C   0  0  0  0  0  0  0  0  0  0  0  0
   37.2030   28.2000   31.6750 C   0  0  0  0  0  0  0  0  0  0  0  0
   37.1440   27.7390   32.9680 C   0  0  0  0  0  0  0  0  0  0  0  0
   36.1950   28.1890   33.7830 N   0  0  0  0  0  0  0  0  0  0  0  0
   35.2570   29.0660   33.4860 C   0  0  0  0  0  0  0  0  0  0  0  0
   35.3300   29.5020   32.2340 N   0  0  0  0  0  0  0  0  0  0  0  0
   37.9270   27.8920   30.9650 H   0  0  0  0  0  0  0  0  0  0  0  0
   38.0840   26.7870   33.4450 N   0  0  0  0  0  0  0  0  0  0  0  0
   38.2260   25.4750   32.8430 C   0  0  0  0  0  3  0  0  0  0  0  0
   37.5060   24.7600   33.2630 H   0  0  0  0  0  0  0  0  0  0  0  0
   39.6570   25.0230   33.1400 C   0  0  0  0  0  3  0  0  0  0  0  0
   39.7980   24.0660   32.5960 H   0  0  0  0  0  0  0  0  0  0  0  0
   39.7890   24.7420   34.5600 N   0  0  0  0  0  0  0  0  0  0  0  0
   39.3940   23.7900   34.7570 H   0  0  0  0  0  0  0  0  0  0  0  0
   39.1320   25.7670   35.3590 C   0  0  0  0  0  2  0  0  0  0  0  0
   38.9520   27.0580   34.5500 C   0  0  0  0  0  2  0  0  0  0  0  0
   34.1540   29.6450   34.2460 C   0  0  0  0  0  0  0  0  0  0  0  0
   32.8730   29.2160   34.1100 N   0  0  0  0  0  0  0  0  0  0  0  0
   31.8750   29.7440   34.8260 C   0  0  0  0  0  0  0  0  0  0  0  0
   32.0320   30.7220   35.7280 N   0  0  0  0  0  0  0  0  0  0  0  0
   33.2850   31.1910   35.9090 C   0  0  0  0  0  0  0  0  0  0  0  0
   33.4690   32.2020   36.8330 C   0  0  0  0  0  0  0  0  0  0  0  0
   34.7160   32.7200   37.0570 C   0  0  0  0  0  0  0  0  0  0  0  0
   35.7450   32.1850   36.3260 C   0  0  0  0  0  0  0  0  0  0  0  0
   35.5220   31.1770   35.4130 C   0  0  0  0  0  0  0  0  0  0  0  0
   34.2930   30.6420   35.1700 C   0  0  0  0  0  0  0  0  0  0  0  0
   30.8350   29.3870   34.7070 H   0  0  0  0  0  0  0  0  0  0  0  0
   32.5910   32.5780   37.3800 H   0  0  0  0  0  0  0  0  0  0  0  0
   34.8640   33.5090   37.7790 H   0  0  0  0  0  0  0  0  0  0  0  0
   36.7300   32.6240   36.5310 H   0  0  0  0  0  0  0  0  0  0  0  0
   36.4310   30.8740   34.9200 H   0  0  0  0  0  0  0  0  0  0  0  0
   36.1450   29.7110   30.0050 N   0  0  0  0  0  0  0  0  0  0  0  0
   36.8800   30.3800   29.6560 H   0  0  0  0  0  0  0  0  0  0  0  0
   35.2890   29.3320   29.5610 H   0  0  0  0  0  0  0  0  0  0  0  0
  1  2  2  0  0  0  0
  1  6  1  0  0  0  0
  2  3  1  0  0  0  0
  3  8  1  0  0  0  0
  3  4  2  0  0  0  0
  5  4  1  0  0  0  0
  5 17  1  0  0  0  0
  6  5  2  0  0  0  0
  7  2  1  0  0  0  0
  8 16  1  0  0  0  0
  9 11  1  0  0  0  0
  9 10  1  0  0  0  0
  9  8  1  0  0  0  0
 11 13  1  0  0  0  0
 12 11  1  0  0  0  0
 13 14  1  0  0  0  0
 13 15  1  0  0  0  0
 16 15  1  0  0  0  0
 17 26  1  0  0  0  0
 18 17  2  0  0  0  0
 18 19  1  0  0  0  0
 19 20  2  0  0  0  0
 20 21  1  0  0  0  0
 21 22  1  0  0  0  0
 22 23  2  0  0  0  0
 22 28  1  0  0  0  0
 23 29  1  0  0  0  0
 24 30  1  0  0  0  0
 24 23  1  0  0  0  0
 25 24  2  0  0  0  0
 26 25  1  0  0  0  0
 26 21  2  0  0  0  0
 27 19  1  0  0  0  0
 31 25  1  0  0  0  0
 32  1  1  0  0  0  0
 33 32  1  0  0  0  0
 34 32  1  0  0  0  0
M  END
>  <minimizedAffinity>
-5.94972181

$$$$

 OpenBabel03272503573D

 34 37  0  0  0  0  0  0  0  0999 V2000
   34.3400   30.8160   31.6130 C   0  0  0  0  0  0  0  0  0  0  0  0
   33.4410   31.0070   32.6620 C   0  0  0  0  0  0  0  0  0  0  0  0
   33.5330   30.0840   33.6760 C   0  0  0  0  0  0  0  0  0  0  0  0
   34.4350   29.1100   33.5950 N   0  0  0  0  0  0  0  0  0  0  0  0
   35.2920   28.9130   32.6150 C   0  0  0  0  0  0  0  0  0  0  0  0
   35.1880   29.8130   31.6440 N   0  0  0  0  0  0  0  0  0  0  0  0
   32.7510   31.8120   32.6500 H   0  0  0  0  0  0  0  0  0  0  0  0
   32.6790   30.1570   34.8080 N   0  0  0  0  0  0  0  0  0  0  0  0
   32.6570   31.3140   35.6840 C   0  0  0  0  0  3  0  0  0  0  0  0
   33.4350   31.2480   36.4560 H   0  0  0  0  0  0  0  0  0  0  0  0
   31.2700   31.3320   36.3290 C   0  0  0  0  0  3  0  0  0  0  0  0
   31.2180   32.2700   36.9210 H   0  0  0  0  0  0  0  0  0  0  0  0
   31.1560   30.2210   37.2590 N   0  0  0  0  0  0  0  0  0  0  0  0
   31.6320   30.4790   38.1570 H   0  0  0  0  0  0  0  0  0  0  0  0
   31.7150   29.0030   36.6890 C   0  0  0  0  0  2  0  0  0  0  0  0
   31.7850   29.0980   35.1600 C   0  0  0  0  0  2  0  0  0  0  0  0
   36.3350   27.9190   32.3840 C   0  0  0  0  0  0  0  0  0  0  0  0
   36.5250   27.3300   31.1750 N   0  0  0  0  0  0  0  0  0  0  0  0
   37.4960   26.4350   30.9740 C   0  0  0  0  0  0  0  0  0  0  0  0
   38.3610   26.0370   31.9180 N   0  0  0  0  0  0  0  0  0  0  0  0
   38.2220   26.5880   33.1430 C   0  0  0  0  0  0  0  0  0  0  0  0
   39.1010   26.1900   34.1320 C   0  0  0  0  0  0  0  0  0  0  0  0
   39.0090   26.7110   35.3940 C   0  0  0  0  0  0  0  0  0  0  0  0
   38.0150   27.6310   35.6090 C   0  0  0  0  0  0  0  0  0  0  0  0
   37.1570   28.0020   34.5970 C   0  0  0  0  0  0  0  0  0  0  0  0
   37.2250   27.5010   33.3320 C   0  0  0  0  0  0  0  0  0  0  0  0
   37.6410   25.9610   29.9850 H   0  0  0  0  0  0  0  0  0  0  0  0
   39.8740   25.4470   33.8800 H   0  0  0  0  0  0  0  0  0  0  0  0
   39.6960   26.4040   36.1700 H   0  0  0  0  0  0  0  0  0  0  0  0
   37.9700   28.0270   36.6320 H   0  0  0  0  0  0  0  0  0  0  0  0
   36.4320   28.7260   34.9310 H   0  0  0  0  0  0  0  0  0  0  0  0
   34.3700   31.7150   30.4650 N   0  0  0  0  0  0  0  0  0  0  0  0
   33.5800   31.7400   29.7680 H   0  0  0  0  0  0  0  0  0  0  0  0
   35.2580   32.2440   30.5220 H   0  0  0  0  0  0  0  0  0  0  0  0
  1  6  2  0  0  0  0
  1  2  1  0  0  0  0
  2  3  2  0  0  0  0
  3  8  1  0  0  0  0
  4  3  1  0  0  0  0
  5  4  2  0  0  0  0
  6  5  1  0  0  0  0
  7  2  1  0  0  0  0
  8 16  1  0  0  0  0
  8  9  1  0  0  0  0
  9 11  1  0  0  0  0
  9 10  1  0  0  0  0
 11 12  1  0  0  0  0
 11 13  1  0  0  0  0
 13 14  1  0  0  0  0
 15 13  1  0  0  0  0
 16 15  1  0  0  0  0
 17  5  1  0  0  0  0
 17 26  1  0  0  0  0
 18 17  2  0  0  0  0
 19 18  1  0  0  0  0
 19 20  2  0  0  0  0
 20 21  1  0  0  0  0
 21 26  2  0  0  0  0
 21 22  1  0  0  0  0
 22 23  2  0  0  0  0
 23 24  1  0  0  0  0
 23 29  1  0  0  0  0
 24 30  1  0  0  0  0
 25 31  1  0  0  0  0
 25 24  2  0  0  0  0
 26 25  1  0  0  0  0
 27 19  1  0  0  0  0
 28 22  1  0  0  0  0
 32 34  1  0  0  0  0
 32  1  1  0  0  0  0
 33 32  1  0  0  0  0
M  END
>  <minimizedAffinity>
-5.86613894

$$$$

 OpenBabel03272503573D

 34 37  0  0  0  0  0  0  0  0999 V2000
   35.5820   25.0420   31.0000 C   0  0  0  0  0  0  0  0  0  0  0  0
   35.9910   25.8560   32.0560 C   0  0  0  0  0  0  0  0  0  0  0  0
   36.9460   25.3030   32.8750 C   0  0  0  0  0  0  0  0  0  0  0  0
   37.3990   24.0800   32.6190 N   0  0  0  0  0  0  0  0  0  0  0  0
   37.0270   23.2960   31.6270 C   0  0  0  0  0  0  0  0  0  0  0  0
   36.1040   23.8450   30.8480 N   0  0  0  0  0  0  0  0  0  0  0  0
   35.5780   26.8230   32.1910 H   0  0  0  0  0  0  0  0  0  0  0  0
   37.4540   26.0210   33.9890 N   0  0  0  0  0  0  0  0  0  0  0  0
   38.1290   27.2970   33.8420 C   0  0  0  0  0  3  0  0  0  0  0  0
   39.1970   27.1630   33.6240 H   0  0  0  0  0  0  0  0  0  0  0  0
   37.9470   28.0300   35.1720 C   0  0  0  0  0  3  0  0  0  0  0  0
   38.3760   29.0440   35.0270 H   0  0  0  0  0  0  0  0  0  0  0  0
   38.7320   27.3670   36.2000 N   0  0  0  0  0  0  0  0  0  0  0  0
   39.7320   27.6700   36.1130 H   0  0  0  0  0  0  0  0  0  0  0  0
   38.6020   25.9190   36.1050 C   0  0  0  0  0  2  0  0  0  0  0  0
   37.3350   25.5350   35.3300 C   0  0  0  0  0  2  0  0  0  0  0  0
   37.4290   21.9570   31.2070 C   0  0  0  0  0  0  0  0  0  0  0  0
   38.4420   21.7450   30.3280 N   0  0  0  0  0  0  0  0  0  0  0  0
   38.8110   20.5120   29.9660 C   0  0  0  0  0  0  0  0  0  0  0  0
   38.2370   19.3900   30.4210 N   0  0  0  0  0  0  0  0  0  0  0  0
   37.2220   19.5370   31.2990 C   0  0  0  0  0  0  0  0  0  0  0  0
   36.6140   18.3930   31.7790 C   0  0  0  0  0  0  0  0  0  0  0  0
   35.5780   18.4780   32.6690 C   0  0  0  0  0  0  0  0  0  0  0  0
   35.1920   19.7390   33.0460 C   0  0  0  0  0  0  0  0  0  0  0  0
   35.8230   20.8570   32.5450 C   0  0  0  0  0  0  0  0  0  0  0  0
   36.8570   20.8020   31.6590 C   0  0  0  0  0  0  0  0  0  0  0  0
   39.6380   20.3500   29.2490 H   0  0  0  0  0  0  0  0  0  0  0  0
   36.9820   17.4170   31.4290 H   0  0  0  0  0  0  0  0  0  0  0  0
   35.1000   17.5860   33.0480 H   0  0  0  0  0  0  0  0  0  0  0  0
   34.3590   19.7700   33.7600 H   0  0  0  0  0  0  0  0  0  0  0  0
   35.3980   21.7670   32.9350 H   0  0  0  0  0  0  0  0  0  0  0  0
   34.5780   25.4880   30.0410 N   0  0  0  0  0  0  0  0  0  0  0  0
   33.5700   25.6120   30.3200 H   0  0  0  0  0  0  0  0  0  0  0  0
   35.0680   25.6290   29.1380 H   0  0  0  0  0  0  0  0  0  0  0  0
  1  2  1  0  0  0  0
  2  7  1  0  0  0  0
  2  3  2  0  0  0  0
  3  8  1  0  0  0  0
  4  3  1  0  0  0  0
  5  4  2  0  0  0  0
  6  1  2  0  0  0  0
  6  5  1  0  0  0  0
  8 16  1  0  0  0  0
  9  8  1  0  0  0  0
  9 11  1  0  0  0  0
 10  9  1  0  0  0  0
 11 13  1  0  0  0  0
 12 11  1  0  0  0  0
 14 13  1  0  0  0  0
 15 13  1  0  0  0  0
 16 15  1  0  0  0  0
 17  5  1  0  0  0  0
 17 26  1  0  0  0  0
 18 17  2  0  0  0  0
 19 18  1  0  0  0  0
 19 20  2  0  0  0  0
 20 21  1  0  0  0  0
 21 26  2  0  0  0  0
 21 22  1  0  0  0  0
 22 23  2  0  0  0  0
 23 24  1  0  0  0  0
 23 29  1  0  0  0  0
 24 30  1  0  0  0  0
 25 31  1  0  0  0  0
 25 24  2  0  0  0  0
 26 25  1  0  0  0  0
 27 19  1  0  0  0  0
 28 22  1  0  0  0  0
 32 33  1  0  0  0  0
 32  1  1  0  0  0  0
 34 32  1  0  0  0  0
M  END
>  <minimizedAffinity>
-5.7028079

$$$$

 OpenBabel03272503573D

 34 37  0  0  0  0  0  0  0  0999 V2000
   36.8510   28.2280   30.2220 C   0  0  0  0  0  0  0  0  0  0  0  0
   36.1220   29.2350   30.8530 C   0  0  0  0  0  0  0  0  0  0  0  0
   35.9080   29.0380   32.1960 C   0  0  0  0  0  0  0  0  0  0  0  0
   36.3900   27.9460   32.7820 N   0  0  0  0  0  0  0  0  0  0  0  0
   37.0810   26.9850   32.2050 C   0  0  0  0  0  0  0  0  0  0  0  0
   37.2760   27.1910   30.9080 N   0  0  0  0  0  0  0  0  0  0  0  0
   35.7720   30.0770   30.3110 H   0  0  0  0  0  0  0  0  0  0  0  0
   35.1810   29.9840   32.9640 N   0  0  0  0  0  0  0  0  0  0  0  0
   35.6130   31.3630   33.1000 C   0  0  0  0  0  3  0  0  0  0  0  0
   36.3410   31.4770   33.9140 H   0  0  0  0  0  0  0  0  0  0  0  0
   34.3530   32.1770   33.3980 C   0  0  0  0  0  3  0  0  0  0  0  0
   34.6660   33.2410   33.4030 H   0  0  0  0  0  0  0  0  0  0  0  0
   33.8750   31.8550   34.7330 N   0  0  0  0  0  0  0  0  0  0  0  0
   34.4450   32.3870   35.4350 H   0  0  0  0  0  0  0  0  0  0  0  0
   33.9310   30.4210   34.9770 C   0  0  0  0  0  2  0  0  0  0  0  0
   33.9760   29.6440   33.6550 C   0  0  0  0  0  2  0  0  0  0  0  0
   37.6820   25.7500   32.7000 C   0  0  0  0  0  0  0  0  0  0  0  0
   38.7890   25.7450   33.4870 N   0  0  0  0  0  0  0  0  0  0  0  0
   39.3170   24.6070   33.9480 C   0  0  0  0  0  0  0  0  0  0  0  0
   38.8230   23.3890   33.6900 N   0  0  0  0  0  0  0  0  0  0  0  0
   37.7210   23.3290   32.9110 C   0  0  0  0  0  0  0  0  0  0  0  0
   37.1970   22.0820   32.6310 C   0  0  0  0  0  0  0  0  0  0  0  0
   36.0830   21.9580   31.8460 C   0  0  0  0  0  0  0  0  0  0  0  0
   35.5340   23.1200   31.3680 C   0  0  0  0  0  0  0  0  0  0  0  0
   36.0870   24.3460   31.6690 C   0  0  0  0  0  0  0  0  0  0  0  0
   37.1940   24.4990   32.4490 C   0  0  0  0  0  0  0  0  0  0  0  0
   40.2200   24.6140   34.5880 H   0  0  0  0  0  0  0  0  0  0  0  0
   37.6950   21.1960   33.0530 H   0  0  0  0  0  0  0  0  0  0  0  0
   35.6690   20.9850   31.6250 H   0  0  0  0  0  0  0  0  0  0  0  0
   34.6430   22.9830   30.7410 H   0  0  0  0  0  0  0  0  0  0  0  0
   35.5410   25.1550   31.2130 H   0  0  0  0  0  0  0  0  0  0  0  0
   37.1640   28.2940   28.7990 N   0  0  0  0  0  0  0  0  0  0  0  0
   36.4130   28.1920   28.0670 H   0  0  0  0  0  0  0  0  0  0  0  0
   38.1860   28.4470   28.7240 H   0  0  0  0  0  0  0  0  0  0  0  0
  1  2  2  0  0  0  0
  1  6  1  0  0  0  0
  2  3  1  0  0  0  0
  3  4  2  0  0  0  0
  3  8  1  0  0  0  0
  5 17  1  0  0  0  0
  5  4  1  0  0  0  0
  6  5  2  0  0  0  0
  7  2  1  0  0  0  0
  8  9  1  0  0  0  0
  8 16  1  0  0  0  0
  9 11  1  0  0  0  0
  9 10  1  0  0  0  0
 11 12  1  0  0  0  0
 11 13  1  0  0  0  0
 13 15  1  0  0  0  0
 13 14  1  0  0  0  0
 16 15  1  0  0  0  0
 17 18  1  0  0  0  0
 18 19  2  0  0  0  0
 19 27  1  0  0  0  0
 20 19  1  0  0  0  0
 21 20  2  0  0  0  0
 22 21  1  0  0  0  0
 22 28  1  0  0  0  0
 23 22  2  0  0  0  0
 24 25  2  0  0  0  0
 24 23  1  0  0  0  0
 25 26  1  0  0  0  0
 26 17  2  0  0  0  0
 26 21  1  0  0  0  0
 29 23  1  0  0  0  0
 30 24  1  0  0  0  0
 31 25  1  0  0  0  0
 32  1  1  0  0  0  0
 33 32  1  0  0  0  0
 34 32  1  0  0  0  0
M  END
>  <minimizedAffinity>
-5.6925559

$$$$

 OpenBabel03272503573D

 34 37  0  0  0  0  0  0  0  0999 V2000
   36.0320   27.0070   31.6810 C   0  0  0  0  0  0  0  0  0  0  0  0
   35.4930   28.2490   32.0150 C   0  0  0  0  0  0  0  0  0  0  0  0
   35.8990   28.7450   33.2300 C   0  0  0  0  0  0  0  0  0  0  0  0
   36.7440   28.0400   33.9770 N   0  0  0  0  0  0  0  0  0  0  0  0
   37.2640   26.8670   33.6790 C   0  0  0  0  0  0  0  0  0  0  0  0
   36.8600   26.4020   32.5030 N   0  0  0  0  0  0  0  0  0  0  0  0
   34.8240   28.7470   31.3610 H   0  0  0  0  0  0  0  0  0  0  0  0
   35.4290   30.0000   33.6980 N   0  0  0  0  0  0  0  0  0  0  0  0
   35.6620   31.2320   32.9680 C   0  0  0  0  0  3  0  0  0  0  0  0
   36.6390   31.6680   33.2170 H   0  0  0  0  0  0  0  0  0  0  0  0
   34.5370   32.1870   33.3730 C   0  0  0  0  0  3  0  0  0  0  0  0
   34.6580   33.0910   32.7410 H   0  0  0  0  0  0  0  0  0  0  0  0
   34.7230   32.5920   34.7560 N   0  0  0  0  0  0  0  0  0  0  0  0
   35.4470   33.3490   34.7950 H   0  0  0  0  0  0  0  0  0  0  0  0
   35.0950   31.4560   35.5880 C   0  0  0  0  0  2  0  0  0  0  0  0
   34.6950   30.1350   34.9190 C   0  0  0  0  0  2  0  0  0  0  0  0
   38.1980   25.9840   34.3690 C   0  0  0  0  0  0  0  0  0  0  0  0
   37.7840   24.9250   35.1120 N   0  0  0  0  0  0  0  0  0  0  0  0
   38.6520   24.1140   35.7240 C   0  0  0  0  0  0  0  0  0  0  0  0
   39.9840   24.2570   35.6700 N   0  0  0  0  0  0  0  0  0  0  0  0
   40.4570   25.2940   34.9450 C   0  0  0  0  0  0  0  0  0  0  0  0
   41.8270   25.4610   34.8780 C   0  0  0  0  0  0  0  0  0  0  0  0
   42.3650   26.4950   34.1610 C   0  0  0  0  0  0  0  0  0  0  0  0
   41.4820   27.3320   33.5300 C   0  0  0  0  0  0  0  0  0  0  0  0
   40.1210   27.1330   33.6220 C   0  0  0  0  0  0  0  0  0  0  0  0
   39.5570   26.1130   34.3270 C   0  0  0  0  0  0  0  0  0  0  0  0
   38.3040   23.2540   36.3270 H   0  0  0  0  0  0  0  0  0  0  0  0
   42.4700   24.7450   35.4120 H   0  0  0  0  0  0  0  0  0  0  0  0
   43.4360   26.6290   34.1050 H   0  0  0  0  0  0  0  0  0  0  0  0
   41.9480   28.1510   32.9660 H   0  0  0  0  0  0  0  0  0  0  0  0
   39.5690   27.8800   33.0750 H   0  0  0  0  0  0  0  0  0  0  0  0
   35.7020   26.3500   30.4200 N   0  0  0  0  0  0  0  0  0  0  0  0
   34.7380   25.9670   30.2390 H   0  0  0  0  0  0  0  0  0  0  0  0
   36.5610   26.3650   29.8410 H   0  0  0  0  0  0  0  0  0  0  0  0
  1  2  2  0  0  0  0
  1  6  1  0  0  0  0
  2  3  1  0  0  0  0
  3  8  1  0  0  0  0
  3  4  2  0  0  0  0
  5  4  1  0  0  0  0
  5 17  1  0  0  0  0
  6  5  2  0  0  0  0
  7  2  1  0  0  0  0
  8 16  1  0  0  0  0
  9 10  1  0  0  0  0
  9 11  1  0  0  0  0
  9  8  1  0  0  0  0
 11 13  1  0  0  0  0
 12 11  1  0  0  0  0
 13 14  1  0  0  0  0
 13 15  1  0  0  0  0
 16 15  1  0  0  0  0
 17 18  1  0  0  0  0
 18 19  2  0  0  0  0
 19 27  1  0  0  0  0
 20 19  1  0  0  0  0
 21 20  2  0  0  0  0
 22 21  1  0  0  0  0
 22 28  1  0  0  0  0
 23 22  2  0  0  0  0
 24 25  2  0  0  0  0
 24 23  1  0  0  0  0
 25 26  1  0  0  0  0
 26 17  2  0  0  0  0
 26 21  1  0  0  0  0
 29 23  1  0  0  0  0
 30 24  1  0  0  0  0
 31 25  1  0  0  0  0
 32  1  1  0  0  0  0
 33 32  1  0  0  0  0
 34 32  1  0  0  0  0
M  END
>  <minimizedAffinity>
-5.67924452

$$$$

 OpenBabel03272503573D

 34 37  0  0  0  0  0  0  0  0999 V2000
   36.7500   28.1980   30.3240 C   0  0  0  0  0  0  0  0  0  0  0  0
   36.0440   29.2240   30.9500 C   0  0  0  0  0  0  0  0  0  0  0  0
   35.9020   29.0810   32.3090 C   0  0  0  0  0  0  0  0  0  0  0  0
   36.4250   28.0180   32.9130 N   0  0  0  0  0  0  0  0  0  0  0  0
   37.0950   27.0390   32.3400 C   0  0  0  0  0  0  0  0  0  0  0  0
   37.2220   27.1940   31.0280 N   0  0  0  0  0  0  0  0  0  0  0  0
   35.6580   30.0400   30.3940 H   0  0  0  0  0  0  0  0  0  0  0  0
   35.2050   30.0510   33.0760 N   0  0  0  0  0  0  0  0  0  0  0  0
   35.6290   31.4380   33.1330 C   0  0  0  0  0  3  0  0  0  0  0  0
   36.3970   31.5920   33.9030 H   0  0  0  0  0  0  0  0  0  0  0  0
   34.3770   32.2520   33.4640 C   0  0  0  0  0  3  0  0  0  0  0  0
   34.6790   33.3190   33.4100 H   0  0  0  0  0  0  0  0  0  0  0  0
   33.9720   31.9810   34.8330 N   0  0  0  0  0  0  0  0  0  0  0  0
   34.5720   32.5460   35.4830 H   0  0  0  0  0  0  0  0  0  0  0  0
   34.0560   30.5580   35.1310 C   0  0  0  0  0  2  0  0  0  0  0  0
   34.0410   29.7280   33.8420 C   0  0  0  0  0  2  0  0  0  0  0  0
   37.7340   25.8320   32.8530 C   0  0  0  0  0  0  0  0  0  0  0  0
   37.1650   24.6030   32.7390 N   0  0  0  0  0  0  0  0  0  0  0  0
   37.7700   23.5030   33.1970 C   0  0  0  0  0  0  0  0  0  0  0  0
   38.9680   23.4980   33.7990 N   0  0  0  0  0  0  0  0  0  0  0  0
   39.5840   24.6910   33.9420 C   0  0  0  0  0  0  0  0  0  0  0  0
   40.8190   24.7090   34.5620 C   0  0  0  0  0  0  0  0  0  0  0  0
   41.4900   25.8880   34.7380 C   0  0  0  0  0  0  0  0  0  0  0  0
   40.8770   27.0220   34.2710 C   0  0  0  0  0  0  0  0  0  0  0  0
   39.6440   26.9640   33.6580 C   0  0  0  0  0  0  0  0  0  0  0  0
   38.9530   25.8050   33.4690 C   0  0  0  0  0  0  0  0  0  0  0  0
   37.2980   22.5080   33.1000 H   0  0  0  0  0  0  0  0  0  0  0  0
   41.2450   23.7550   34.9080 H   0  0  0  0  0  0  0  0  0  0  0  0
   42.4570   25.9060   35.2210 H   0  0  0  0  0  0  0  0  0  0  0  0
   41.4430   27.9490   34.4290 H   0  0  0  0  0  0  0  0  0  0  0  0
   39.3000   27.9390   33.3560 H   0  0  0  0  0  0  0  0  0  0  0  0
   36.9890   28.2090   28.8840 N   0  0  0  0  0  0  0  0  0  0  0  0
   36.2030   28.0720   28.1970 H   0  0  0  0  0  0  0  0  0  0  0  0
   38.0040   28.3680   28.7510 H   0  0  0  0  0  0  0  0  0  0  0  0
  1  2  2  0  0  0  0
  1  6  1  0  0  0  0
  2  3  1  0  0  0  0
  3  4  2  0  0  0  0
  3  8  1  0  0  0  0
  5 17  1  0  0  0  0
  5  4  1  0  0  0  0
  6  5  2  0  0  0  0
  7  2  1  0  0  0  0
  8  9  1  0  0  0  0
  8 16  1  0  0  0  0
  9 11  1  0  0  0  0
  9 10  1  0  0  0  0
 11 13  1  0  0  0  0
 12 11  1  0  0  0  0
 13 15  1  0  0  0  0
 13 14  1  0  0  0  0
 16 15  1  0  0  0  0
 17 26  1  0  0  0  0
 18 17  2  0  0  0  0
 18 19  1  0  0  0  0
 19 20  2  0  0  0  0
 20 21  1  0  0  0  0
 21 22  1  0  0  0  0
 22 23  2  0  0  0  0
 22 28  1  0  0  0  0
 23 29  1  0  0  0  0
 24 30  1  0  0  0  0
 24 23  1  0  0  0  0
 25 24  2  0  0  0  0
 26 25  1  0  0  0  0
 26 21  2  0  0  0  0
 27 19  1  0  0  0  0
 31 25  1  0  0  0  0
 32  1  1  0  0  0  0
 33 32  1  0  0  0  0
 34 32  1  0  0  0  0
M  END
>  <minimizedAffinity>
-5.58897448

$$$$
