
 OpenBabel03272510253D

 45 49  0  0  1  0  0  0  0  0999 V2000
   39.5340   33.5980   43.5220 O   0  0  0  0  0  0  0  0  0  0  0  0
   36.1800   30.2610   47.0480 C   0  0  0  0  0  0  0  0  0  0  0  0
   37.0530   30.7550   48.0120 C   0  0  0  0  0  0  0  0  0  0  0  0
   38.0840   31.6320   47.6680 C   0  0  0  0  0  0  0  0  0  0  0  0
   38.1740   31.9680   46.3240 C   0  0  0  0  0  0  0  0  0  0  0  0
   39.0940   32.8070   45.7440 N   0  0  0  0  0  0  0  0  0  0  0  0
   38.8020   32.8380   44.4350 C   0  0  0  0  0  0  0  0  0  0  0  0
   37.7610   32.0680   44.1920 N   0  0  0  0  0  0  0  0  0  0  0  0
   37.3360   31.5060   45.3370 C   0  0  0  0  0  0  0  0  0  0  0  0
   36.3130   30.6280   45.7140 C   0  0  0  0  0  0  0  0  0  0  0  0
   35.3700   29.5740   47.3110 H   0  0  0  0  0  0  0  0  0  0  0  0
   38.7630   32.0190   48.4060 H   0  0  0  0  0  0  0  0  0  0  0  0
   39.8720   33.3180   46.2520 H   0  0  0  0  0  0  0  0  0  0  0  0
   35.6550   30.2670   44.9360 H   0  0  0  0  0  0  0  0  0  0  0  0
   37.4080   30.0680   51.6860 C   0  0  0  0  0  0  0  0  0  0  0  0
   37.7470   30.5420   50.4200 C   0  0  0  0  0  0  0  0  0  0  0  0
   36.8560   30.3300   49.3820 C   0  0  0  0  0  0  0  0  0  0  0  0
   35.6960   29.6630   49.6760 N   0  0  0  0  0  0  0  0  0  0  0  0
   35.3880   29.2140   50.9050 C   0  0  0  0  0  0  0  0  0  0  0  0
   36.2420   29.4190   51.8920 N   0  0  0  0  0  0  0  0  0  0  0  0
   38.1630   30.2730   52.4600 H   0  0  0  0  0  0  0  0  0  0  0  0
   38.6570   31.0620   50.1960 H   0  0  0  0  0  0  0  0  0  0  0  0
   34.4640   28.6960   51.0900 H   0  0  0  0  0  0  0  0  0  0  0  0
   39.5170   31.6270   42.3230 N   0  0  0  0  0  0  0  0  0  0  0  0
   39.6120   33.0750   42.2030 C   0  0  1  0  0  0  0  0  0  0  0  0
   38.5280   33.5880   41.3810 C   0  0  0  0  0  0  0  0  0  0  0  0
   38.6590   33.0590   40.0850 O   0  0  0  0  0  0  0  0  0  0  0  0
   38.7230   31.6990   40.0080 C   0  0  0  0  0  0  0  0  0  0  0  0
   39.7420   31.1400   40.9850 C   0  0  2  0  0  0  0  0  0  0  0  0
   38.6380   31.2340   42.6120 H   0  0  0  0  0  0  0  0  0  0  0  0
   40.5890   33.2830   41.7410 H   0  0  0  0  0  0  0  0  0  0  0  0
   37.4970   33.4950   41.5870 H   0  0  0  0  0  0  0  0  0  0  0  0
   38.7240   34.6920   41.2240 H   0  0  0  0  0  0  0  0  0  0  0  0
   39.1170   31.4550   39.0010 H   0  0  0  0  0  0  0  0  0  0  0  0
   37.6940   31.3130   40.1930 H   0  0  0  0  0  0  0  0  0  0  0  0
   40.7190   31.6100   40.6670 H   0  0  0  0  0  0  0  0  0  0  0  0
   39.9200   29.7350   40.8940 N   0  0  1  0  0  0  0  0  0  0  0  0
   40.3440   29.1270   42.1450 C   0  0  0  0  0  3  0  0  0  0  0  0
   39.8590   29.5290   43.0340 H   0  0  0  0  0  0  0  0  0  0  0  0
   40.0860   27.6440   42.0710 C   0  0  0  0  0  3  0  0  0  0  0  0
   39.0800   27.3500   42.4170 H   0  0  0  0  0  0  0  0  0  0  0  0
   40.3250   27.1080   40.7480 N   0  0  0  0  0  0  0  0  0  0  0  0
   41.3540   27.2430   40.5510 H   0  0  0  0  0  0  0  0  0  0  0  0
   39.4620   27.7010   39.7690 C   0  0  0  0  0  2  0  0  0  0  0  0
   38.8420   28.9750   40.3610 C   0  0  0  0  0  2  0  0  0  0  0  0
  1  7  1  0  0  0  0
  2 11  1  0  0  0  0
  2  3  1  0  0  0  0
  3 17  1  0  0  0  0
  4  3  2  0  0  0  0
  4 12  1  0  0  0  0
  5  4  1  0  0  0  0
  6 13  1  0  0  0  0
  6  5  1  0  0  0  0
  7  6  1  0  0  0  0
  8  7  2  0  0  0  0
  8  9  1  0  0  0  0
  9 10  1  0  0  0  0
  9  5  2  0  0  0  0
 10  2  2  0  0  0  0
 14 10  1  0  0  0  0
 15 20  1  0  0  0  0
 15 21  1  0  0  0  0
 16 15  2  0  0  0  0
 17 18  2  0  0  0  0
 17 16  1  0  0  0  0
 18 19  1  0  0  0  0
 19 23  1  0  0  0  0
 19 20  2  0  0  0  0
 22 16  1  0  0  0  0
 24 30  1  0  0  0  0
 25 31  1  6  0  0  0
 25 24  1  0  0  0  0
 25  1  1  0  0  0  0
 26 32  1  0  0  0  0
 26 25  1  0  0  0  0
 27 26  1  0  0  0  0
 28 27  1  0  0  0  0
 28 35  1  0  0  0  0
 28 29  1  0  0  0  0
 29 36  1  6  0  0  0
 29 24  1  0  0  0  0
 33 26  1  0  0  0  0
 34 28  1  0  0  0  0
 37 45  1  1  0  0  0
 37 29  1  0  0  0  0
 37 38  1  0  0  0  0
 38 39  1  0  0  0  0
 40 38  1  0  0  0  0
 40 41  1  0  0  0  0
 42 40  1  0  0  0  0
 43 42  1  0  0  0  0
 44 45  1  0  0  0  0
 44 42  1  0  0  0  0
M  END
>  <minimizedAffinity>
-6.05380678

>  <minimizedRMSD>
1.04177511

$$$$
