
 OpenBabel03262520573D

 19 20  0  0  1  0  0  0  0  0999 V2000
   39.1050   23.6750   34.7670 S   0  0  0  0  0  0  0  0  0  0  0  0
   36.5180   25.2760   32.0700 C   0  0  0  0  0  0  0  0  0  0  0  0
   37.4790   25.2240   33.0790 C   0  0  0  0  0  0  0  0  0  0  0  0
   37.8800   23.9630   33.4920 C   0  0  0  0  0  0  0  0  0  0  0  0
   37.3250   22.8560   32.9030 N   0  0  0  0  0  0  0  0  0  0  0  0
   36.4070   22.9650   31.9390 C   0  0  0  0  0  0  0  0  0  0  0  0
   35.9970   24.1810   31.5170 N   0  0  0  0  0  0  0  0  0  0  0  0
   36.2040   26.2600   31.7470 H   0  0  0  0  0  0  0  0  0  0  0  0
   37.9230   26.0760   33.5500 H   0  0  0  0  0  0  0  0  0  0  0  0
   35.9710   22.0900   31.4760 H   0  0  0  0  0  0  0  0  0  0  0  0
   40.4330   21.6560   36.0960 H   0  0  0  0  0  0  0  0  0  0  0  0
   39.5930   21.8390   36.7180 N   0  0  0  0  0  0  0  0  0  0  0  0
   38.5470   22.3170   35.8700 C   0  0  1  0  0  3  0  0  0  0  0  0
   37.4080   22.8960   36.6740 C   0  0  0  0  0  3  0  0  0  0  0  0
   36.9740   22.1360   37.3540 H   0  0  0  0  0  0  0  0  0  0  0  0
   37.9490   23.9860   37.4630 N   0  0  0  0  0  0  0  0  0  0  0  0
   38.5580   24.6080   36.8650 H   0  0  0  0  0  0  0  0  0  0  0  0
   38.8070   23.3330   38.4640 C   0  0  0  0  0  2  0  0  0  0  0  0
   40.0100   22.8240   37.6850 C   0  0  0  0  0  2  0  0  0  0  0  0
  2  3  1  0  0  0  0
  3  4  2  0  0  0  0
  3  9  1  0  0  0  0
  4  1  1  0  0  0  0
  5  4  1  0  0  0  0
  6  5  2  0  0  0  0
  7  6  1  0  0  0  0
  7  2  2  0  0  0  0
  8  2  1  0  0  0  0
 10  6  1  0  0  0  0
 11 12  1  0  0  0  0
 12 19  1  0  0  0  0
 13  1  1  6  0  0  0
 13 14  1  0  0  0  0
 13 12  1  0  0  0  0
 14 15  1  0  0  0  0
 14 16  1  0  0  0  0
 16 18  1  0  0  0  0
 17 16  1  0  0  0  0
 19 18  1  0  0  0  0
M  END
>  <minimizedAffinity>
-3.81310797

$$$$

 OpenBabel03262520573D

 19 20  0  0  1  0  0  0  0  0999 V2000
   38.6720   24.7350   34.2890 S   0  0  0  0  0  0  0  0  0  0  0  0
   39.8470   22.8920   37.7170 C   0  0  0  0  0  0  0  0  0  0  0  0
   39.8800   23.3120   36.3870 C   0  0  0  0  0  0  0  0  0  0  0  0
   38.8180   24.0890   35.9530 C   0  0  0  0  0  0  0  0  0  0  0  0
   37.8100   24.3980   36.8300 N   0  0  0  0  0  0  0  0  0  0  0  0
   37.8290   23.9680   38.0940 C   0  0  0  0  0  0  0  0  0  0  0  0
   38.8520   23.2090   38.5460 N   0  0  0  0  0  0  0  0  0  0  0  0
   40.6750   22.2860   38.0570 H   0  0  0  0  0  0  0  0  0  0  0  0
   40.6580   23.0810   35.6890 H   0  0  0  0  0  0  0  0  0  0  0  0
   37.0330   24.2140   38.7840 H   0  0  0  0  0  0  0  0  0  0  0  0
   39.3380   26.4800   32.2590 H   0  0  0  0  0  0  0  0  0  0  0  0
   38.9200   27.1190   32.9960 N   0  0  0  0  0  0  0  0  0  0  0  0
   39.1640   26.5040   34.2630 C   0  0  1  0  0  3  0  0  0  0  0  0
   38.3580   27.1600   35.3570 C   0  0  0  0  0  3  0  0  0  0  0  0
   38.6100   28.2350   35.4470 H   0  0  0  0  0  0  0  0  0  0  0  0
   36.9590   27.0280   34.9990 N   0  0  0  0  0  0  0  0  0  0  0  0
   36.7480   26.0400   34.6910 H   0  0  0  0  0  0  0  0  0  0  0  0
   36.7860   27.9140   33.8370 C   0  0  0  0  0  2  0  0  0  0  0  0
   37.5140   27.2200   32.6960 C   0  0  0  0  0  2  0  0  0  0  0  0
  1  4  1  0  0  0  0
  2  8  1  0  0  0  0
  2  7  1  0  0  0  0
  3  2  2  0  0  0  0
  4  3  1  0  0  0  0
  4  5  2  0  0  0  0
  5  6  1  0  0  0  0
  6  7  2  0  0  0  0
  6 10  1  0  0  0  0
  9  3  1  0  0  0  0
 11 12  1  0  0  0  0
 12 13  1  0  0  0  0
 13  1  1  6  0  0  0
 13 14  1  0  0  0  0
 14 15  1  0  0  0  0
 16 14  1  0  0  0  0
 17 16  1  0  0  0  0
 18 16  1  0  0  0  0
 19 12  1  0  0  0  0
 19 18  1  0  0  0  0
M  END
>  <minimizedAffinity>
-3.71207595

$$$$

 OpenBabel03262520573D

 19 20  0  0  1  0  0  0  0  0999 V2000
   38.5310   22.3140   34.4380 S   0  0  0  0  0  0  0  0  0  0  0  0
   35.7610   22.8270   31.5070 C   0  0  0  0  0  0  0  0  0  0  0  0
   36.5570   22.1700   32.4450 C   0  0  0  0  0  0  0  0  0  0  0  0
   37.4290   22.9570   33.1810 C   0  0  0  0  0  0  0  0  0  0  0  0
   37.4660   24.3090   32.9560 N   0  0  0  0  0  0  0  0  0  0  0  0
   36.6800   24.8860   32.0430 C   0  0  0  0  0  0  0  0  0  0  0  0
   35.8200   24.1440   31.3110 N   0  0  0  0  0  0  0  0  0  0  0  0
   35.0800   22.2140   30.9320 H   0  0  0  0  0  0  0  0  0  0  0  0
   36.5430   21.1170   32.6350 H   0  0  0  0  0  0  0  0  0  0  0  0
   36.7110   25.9530   31.8670 H   0  0  0  0  0  0  0  0  0  0  0  0
   37.6890   24.8390   35.1600 H   0  0  0  0  0  0  0  0  0  0  0  0
   38.3950   24.5980   35.9150 N   0  0  0  0  0  0  0  0  0  0  0  0
   39.3400   23.7030   35.3260 C   0  0  1  0  0  3  0  0  0  0  0  0
   40.2110   23.0560   36.3750 C   0  0  0  0  0  3  0  0  0  0  0  0
   40.7760   23.8160   36.9490 H   0  0  0  0  0  0  0  0  0  0  0  0
   39.3350   22.3330   37.2760 N   0  0  0  0  0  0  0  0  0  0  0  0
   38.6320   21.7630   36.7310 H   0  0  0  0  0  0  0  0  0  0  0  0
   38.6040   23.3810   38.0060 C   0  0  0  0  0  2  0  0  0  0  0  0
   37.6500   23.9840   36.9860 C   0  0  0  0  0  2  0  0  0  0  0  0
  2  3  1  0  0  0  0
  3  9  1  0  0  0  0
  3  4  2  0  0  0  0
  4  1  1  0  0  0  0
  5  4  1  0  0  0  0
  6  5  2  0  0  0  0
  7  2  2  0  0  0  0
  7  6  1  0  0  0  0
  8  2  1  0  0  0  0
 10  6  1  0  0  0  0
 11 12  1  0  0  0  0
 12 19  1  0  0  0  0
 13  1  1  1  0  0  0
 13 12  1  0  0  0  0
 13 14  1  0  0  0  0
 14 15  1  0  0  0  0
 14 16  1  0  0  0  0
 16 18  1  0  0  0  0
 17 16  1  0  0  0  0
 19 18  1  0  0  0  0
M  END
>  <minimizedAffinity>
-3.67497659

$$$$

 OpenBabel03262520573D

 19 20  0  0  1  0  0  0  0  0999 V2000
   38.1800   25.2890   36.6700 S   0  0  0  0  0  0  0  0  0  0  0  0
   36.8040   27.5880   33.6120 C   0  0  0  0  0  0  0  0  0  0  0  0
   37.1760   27.2330   34.9080 C   0  0  0  0  0  0  0  0  0  0  0  0
   37.6450   25.9410   35.0900 C   0  0  0  0  0  0  0  0  0  0  0  0
   37.7180   25.0960   34.0120 N   0  0  0  0  0  0  0  0  0  0  0  0
   37.3470   25.4900   32.7910 C   0  0  0  0  0  0  0  0  0  0  0  0
   36.8860   26.7430   32.5840 N   0  0  0  0  0  0  0  0  0  0  0  0
   36.4380   28.5960   33.4690 H   0  0  0  0  0  0  0  0  0  0  0  0
   37.1270   27.8780   35.7610 H   0  0  0  0  0  0  0  0  0  0  0  0
   37.4050   24.8210   31.9420 H   0  0  0  0  0  0  0  0  0  0  0  0
   38.5530   23.2130   34.8920 H   0  0  0  0  0  0  0  0  0  0  0  0
   38.6330   22.7360   35.8370 N   0  0  0  0  0  0  0  0  0  0  0  0
   37.8300   23.4880   36.7490 C   0  0  1  0  0  3  0  0  0  0  0  0
   38.1030   23.0890   38.1790 C   0  0  0  0  0  3  0  0  0  0  0  0
   37.8860   22.0150   38.3420 H   0  0  0  0  0  0  0  0  0  0  0  0
   39.5100   23.3340   38.4330 N   0  0  0  0  0  0  0  0  0  0  0  0
   39.7890   24.2880   38.0760 H   0  0  0  0  0  0  0  0  0  0  0  0
   40.2160   22.3230   37.6310 C   0  0  0  0  0  2  0  0  0  0  0  0
   40.0320   22.7600   36.1870 C   0  0  0  0  0  2  0  0  0  0  0  0
  2  3  1  0  0  0  0
  3  4  2  0  0  0  0
  3  9  1  0  0  0  0
  4  1  1  0  0  0  0
  5  4  1  0  0  0  0
  6  5  2  0  0  0  0
  7  6  1  0  0  0  0
  7  2  2  0  0  0  0
  8  2  1  0  0  0  0
 10  6  1  0  0  0  0
 11 12  1  0  0  0  0
 12 19  1  0  0  0  0
 12 13  1  0  0  0  0
 13  1  1  1  0  0  0
 13 14  1  0  0  0  0
 14 15  1  0  0  0  0
 14 16  1  0  0  0  0
 17 16  1  0  0  0  0
 18 16  1  0  0  0  0
 19 18  1  0  0  0  0
M  END
>  <minimizedAffinity>
-3.65517926

$$$$

 OpenBabel03262520573D

 19 20  0  0  1  0  0  0  0  0999 V2000
   38.3910   24.6980   34.3790 S   0  0  0  0  0  0  0  0  0  0  0  0
   38.0780   23.9600   38.3640 C   0  0  0  0  0  0  0  0  0  0  0  0
   37.7730   24.4890   37.1100 C   0  0  0  0  0  0  0  0  0  0  0  0
   38.6110   24.1350   36.0650 C   0  0  0  0  0  0  0  0  0  0  0  0
   39.6740   23.3030   36.3080 N   0  0  0  0  0  0  0  0  0  0  0  0
   39.9200   22.8260   37.5310 C   0  0  0  0  0  0  0  0  0  0  0  0
   39.1200   23.1540   38.5700 N   0  0  0  0  0  0  0  0  0  0  0  0
   37.4250   24.2360   39.1810 H   0  0  0  0  0  0  0  0  0  0  0  0
   36.9490   25.1380   36.9010 H   0  0  0  0  0  0  0  0  0  0  0  0
   40.7590   22.1700   37.7210 H   0  0  0  0  0  0  0  0  0  0  0  0
   39.4290   26.6160   36.0670 H   0  0  0  0  0  0  0  0  0  0  0  0
   39.4820   27.0820   35.1150 N   0  0  0  0  0  0  0  0  0  0  0  0
   38.4240   26.5330   34.3270 C   0  0  1  0  0  3  0  0  0  0  0  0
   38.5830   26.8900   32.8690 C   0  0  0  0  0  3  0  0  0  0  0  0
   38.5790   27.9880   32.7250 H   0  0  0  0  0  0  0  0  0  0  0  0
   39.8590   26.3570   32.4320 N   0  0  0  0  0  0  0  0  0  0  0  0
   39.9750   25.3600   32.7590 H   0  0  0  0  0  0  0  0  0  0  0  0
   40.8640   27.1830   33.1210 C   0  0  0  0  0  2  0  0  0  0  0  0
   40.7840   26.7690   34.5820 C   0  0  0  0  0  2  0  0  0  0  0  0
  1  4  1  0  0  0  0
  2  7  1  0  0  0  0
  2  8  1  0  0  0  0
  3  2  2  0  0  0  0
  4  5  2  0  0  0  0
  4  3  1  0  0  0  0
  5  6  1  0  0  0  0
  6 10  1  0  0  0  0
  6  7  2  0  0  0  0
  9  3  1  0  0  0  0
 12 11  1  0  0  0  0
 13  1  1  6  0  0  0
 13 12  1  0  0  0  0
 14 13  1  0  0  0  0
 15 14  1  0  0  0  0
 16 17  1  0  0  0  0
 16 14  1  0  0  0  0
 16 18  1  0  0  0  0
 18 19  1  0  0  0  0
 19 12  1  0  0  0  0
M  END
>  <minimizedAffinity>
-3.60749698

$$$$

 OpenBabel03262520573D

 19 20  0  0  1  0  0  0  0  0999 V2000
   36.8520   27.8810   32.6520 S   0  0  0  0  0  0  0  0  0  0  0  0
   38.3830   26.7760   36.2520 C   0  0  0  0  0  0  0  0  0  0  0  0
   37.9170   27.6110   35.2370 C   0  0  0  0  0  0  0  0  0  0  0  0
   37.4910   26.9940   34.0700 C   0  0  0  0  0  0  0  0  0  0  0  0
   37.5500   25.6280   33.9740 N   0  0  0  0  0  0  0  0  0  0  0  0
   38.0070   24.8760   34.9790 C   0  0  0  0  0  0  0  0  0  0  0  0
   38.4280   25.4500   36.1280 N   0  0  0  0  0  0  0  0  0  0  0  0
   38.7150   27.2560   37.1630 H   0  0  0  0  0  0  0  0  0  0  0  0
   37.8640   28.6780   35.2930 H   0  0  0  0  0  0  0  0  0  0  0  0
   38.0520   23.7980   34.9000 H   0  0  0  0  0  0  0  0  0  0  0  0
   35.4200   27.7240   30.3000 H   0  0  0  0  0  0  0  0  0  0  0  0
   36.3990   27.4400   30.0030 N   0  0  0  0  0  0  0  0  0  0  0  0
   37.0200   26.8460   31.1440 C   0  0  1  0  0  3  0  0  0  0  0  0
   38.5060   26.6800   30.9360 C   0  0  0  0  0  3  0  0  0  0  0  0
   38.7160   26.0340   30.0600 H   0  0  0  0  0  0  0  0  0  0  0  0
   39.0580   27.9990   30.6970 N   0  0  0  0  0  0  0  0  0  0  0  0
   38.6860   28.6890   31.4050 H   0  0  0  0  0  0  0  0  0  0  0  0
   38.5450   28.3840   29.3730 C   0  0  0  0  0  2  0  0  0  0  0  0
   37.0630   28.6490   29.5820 C   0  0  0  0  0  2  0  0  0  0  0  0
  1  4  1  0  0  0  0
  2  8  1  0  0  0  0
  3  9  1  0  0  0  0
  3  2  2  0  0  0  0
  4  3  1  0  0  0  0
  5  4  2  0  0  0  0
  5  6  1  0  0  0  0
  6  7  2  0  0  0  0
  7  2  1  0  0  0  0
 10  6  1  0  0  0  0
 12 11  1  0  0  0  0
 12 13  1  0  0  0  0
 13  1  1  1  0  0  0
 14 13  1  0  0  0  0
 15 14  1  0  0  0  0
 16 14  1  0  0  0  0
 16 17  1  0  0  0  0
 18 19  1  0  0  0  0
 18 16  1  0  0  0  0
 19 12  1  0  0  0  0
M  END
>  <minimizedAffinity>
-3.52909994

$$$$

 OpenBabel03262520573D

 19 20  0  0  1  0  0  0  0  0999 V2000
   37.7190   25.9740   35.3460 S   0  0  0  0  0  0  0  0  0  0  0  0
   38.6710   23.4030   38.3470 C   0  0  0  0  0  0  0  0  0  0  0  0
   37.9930   24.4120   37.6640 C   0  0  0  0  0  0  0  0  0  0  0  0
   38.4510   24.7180   36.3910 C   0  0  0  0  0  0  0  0  0  0  0  0
   39.5220   24.0310   35.8800 N   0  0  0  0  0  0  0  0  0  0  0  0
   40.1350   23.0730   36.5800 C   0  0  0  0  0  0  0  0  0  0  0  0
   39.7100   22.7530   37.8220 N   0  0  0  0  0  0  0  0  0  0  0  0
   38.3150   23.1630   39.3400 H   0  0  0  0  0  0  0  0  0  0  0  0
   37.1570   24.9590   38.0460 H   0  0  0  0  0  0  0  0  0  0  0  0
   40.9790   22.5320   36.1740 H   0  0  0  0  0  0  0  0  0  0  0  0
   38.8580   24.0820   33.6940 H   0  0  0  0  0  0  0  0  0  0  0  0
   38.5950   24.8590   33.0210 N   0  0  0  0  0  0  0  0  0  0  0  0
   38.6410   26.0800   33.7620 C   0  0  1  0  0  3  0  0  0  0  0  0
   37.9970   27.2110   32.9970 C   0  0  0  0  0  3  0  0  0  0  0  0
   38.5090   27.3810   32.0300 H   0  0  0  0  0  0  0  0  0  0  0  0
   36.6200   26.8320   32.7460 N   0  0  0  0  0  0  0  0  0  0  0  0
   36.1750   26.4520   33.6260 H   0  0  0  0  0  0  0  0  0  0  0  0
   36.7080   25.7340   31.7700 C   0  0  0  0  0  2  0  0  0  0  0  0
   37.2680   24.5540   32.5470 C   0  0  0  0  0  2  0  0  0  0  0  0
  1  4  1  0  0  0  0
  2  8  1  0  0  0  0
  3  9  1  0  0  0  0
  3  2  2  0  0  0  0
  4  3  1  0  0  0  0
  5  4  2  0  0  0  0
  5  6  1  0  0  0  0
  6  7  2  0  0  0  0
  7  2  1  0  0  0  0
 10  6  1  0  0  0  0
 12 11  1  0  0  0  0
 12 13  1  0  0  0  0
 13  1  1  1  0  0  0
 14 13  1  0  0  0  0
 15 14  1  0  0  0  0
 16 14  1  0  0  0  0
 16 17  1  0  0  0  0
 18 19  1  0  0  0  0
 18 16  1  0  0  0  0
 19 12  1  0  0  0  0
M  END
>  <minimizedAffinity>
-3.52627611

$$$$

 OpenBabel03262520573D

 19 20  0  0  1  0  0  0  0  0999 V2000
   35.6250   24.7480   31.1190 S   0  0  0  0  0  0  0  0  0  0  0  0
   36.1170   20.7770   31.8350 C   0  0  0  0  0  0  0  0  0  0  0  0
   35.5940   21.9440   31.2810 C   0  0  0  0  0  0  0  0  0  0  0  0
   36.1480   23.1400   31.7100 C   0  0  0  0  0  0  0  0  0  0  0  0
   37.1580   23.1170   32.6370 N   0  0  0  0  0  0  0  0  0  0  0  0
   37.6220   21.9680   33.1360 C   0  0  0  0  0  0  0  0  0  0  0  0
   37.1010   20.7870   32.7350 N   0  0  0  0  0  0  0  0  0  0  0  0
   35.6860   19.8420   31.5010 H   0  0  0  0  0  0  0  0  0  0  0  0
   34.8070   21.9820   30.5570 H   0  0  0  0  0  0  0  0  0  0  0  0
   38.4180   21.9530   33.8670 H   0  0  0  0  0  0  0  0  0  0  0  0
   38.1340   24.9940   32.2390 H   0  0  0  0  0  0  0  0  0  0  0  0
   37.8640   26.0000   32.0340 N   0  0  0  0  0  0  0  0  0  0  0  0
   36.4380   26.0670   32.1050 C   0  0  1  0  0  3  0  0  0  0  0  0
   35.9200   27.3670   31.5390 C   0  0  0  0  0  3  0  0  0  0  0  0
   36.3290   28.2340   32.0940 H   0  0  0  0  0  0  0  0  0  0  0  0
   36.3560   27.4390   30.1570 N   0  0  0  0  0  0  0  0  0  0  0  0
   36.1720   26.5230   29.6640 H   0  0  0  0  0  0  0  0  0  0  0  0
   37.8130   27.6290   30.2350 C   0  0  0  0  0  2  0  0  0  0  0  0
   38.3630   26.2960   30.7150 C   0  0  0  0  0  2  0  0  0  0  0  0
  1  4  1  0  0  0  0
  2  7  1  0  0  0  0
  3  4  1  0  0  0  0
  3  2  2  0  0  0  0
  4  5  2  0  0  0  0
  5  6  1  0  0  0  0
  6 10  1  0  0  0  0
  7  6  2  0  0  0  0
  8  2  1  0  0  0  0
  9  3  1  0  0  0  0
 12 13  1  0  0  0  0
 12 11  1  0  0  0  0
 13  1  1  6  0  0  0
 14 15  1  0  0  0  0
 14 13  1  0  0  0  0
 16 18  1  0  0  0  0
 16 14  1  0  0  0  0
 17 16  1  0  0  0  0
 18 19  1  0  0  0  0
 19 12  1  0  0  0  0
M  END
>  <minimizedAffinity>
-3.44681215

$$$$

 OpenBabel03262520573D

 19 20  0  0  1  0  0  0  0  0999 V2000
   35.6980   22.1530   31.3840 S   0  0  0  0  0  0  0  0  0  0  0  0
   35.5510   26.2130   31.2240 C   0  0  0  0  0  0  0  0  0  0  0  0
   35.2010   24.8870   30.9710 C   0  0  0  0  0  0  0  0  0  0  0  0
   35.9810   23.9120   31.5730 C   0  0  0  0  0  0  0  0  0  0  0  0
   37.0330   24.2890   32.3670 N   0  0  0  0  0  0  0  0  0  0  0  0
   37.3240   25.5760   32.5750 C   0  0  0  0  0  0  0  0  0  0  0  0
   36.5810   26.5490   32.0020 N   0  0  0  0  0  0  0  0  0  0  0  0
   34.9430   26.9750   30.7550 H   0  0  0  0  0  0  0  0  0  0  0  0
   34.3840   24.5730   30.3560 H   0  0  0  0  0  0  0  0  0  0  0  0
   38.1540   25.8710   33.2020 H   0  0  0  0  0  0  0  0  0  0  0  0
   34.5110   20.8220   33.4870 H   0  0  0  0  0  0  0  0  0  0  0  0
   35.4340   20.3110   33.3710 N   0  0  0  0  0  0  0  0  0  0  0  0
   36.3650   21.2560   32.8400 C   0  0  1  0  0  3  0  0  0  0  0  0
   37.6200   20.5740   32.3510 C   0  0  0  0  0  3  0  0  0  0  0  0
   38.1230   20.0270   33.1720 H   0  0  0  0  0  0  0  0  0  0  0  0
   37.2250   19.6310   31.3230 N   0  0  0  0  0  0  0  0  0  0  0  0
   36.5560   20.0840   30.6430 H   0  0  0  0  0  0  0  0  0  0  0  0
   36.4950   18.5760   32.0450 C   0  0  0  0  0  2  0  0  0  0  0  0
   35.1830   19.2170   32.4660 C   0  0  0  0  0  2  0  0  0  0  0  0
  1  4  1  0  0  0  0
  2  7  1  0  0  0  0
  3  2  2  0  0  0  0
  3  4  1  0  0  0  0
  4  5  2  0  0  0  0
  5  6  1  0  0  0  0
  6 10  1  0  0  0  0
  7  6  2  0  0  0  0
  8  2  1  0  0  0  0
  9  3  1  0  0  0  0
 12 11  1  0  0  0  0
 13  1  1  6  0  0  0
 13 12  1  0  0  0  0
 14 13  1  0  0  0  0
 14 15  1  0  0  0  0
 16 18  1  0  0  0  0
 16 14  1  0  0  0  0
 17 16  1  0  0  0  0
 18 19  1  0  0  0  0
 19 12  1  0  0  0  0
M  END
>  <minimizedAffinity>
-3.43841434

$$$$
