
 OpenBabel03272502543D

 42 45  0  0  0  0  0  0  0  0999 V2000
   36.9640   30.8850   49.3930 C   0  0  0  0  0  0  0  0  0  0  0  0
   37.0670   30.5400   50.7410 C   0  0  0  0  0  0  0  0  0  0  0  0
   36.2020   29.6130   51.2970 C   0  0  0  0  0  0  0  0  0  0  0  0
   35.2550   29.0660   50.4480 C   0  0  0  0  0  0  0  0  0  0  0  0
   35.1460   29.4040   49.1110 C   0  0  0  0  0  0  0  0  0  0  0  0
   36.0240   30.3190   48.6300 N   0  0  0  0  0  0  0  0  0  0  0  0
   34.1530   28.7970   48.3270 N   0  0  0  0  0  0  0  0  0  0  0  0
   33.0990   28.0680   49.0060 C   0  0  0  0  0  0  0  0  0  0  0  0
   32.2610   27.4030   47.9320 C   0  0  0  0  0  0  0  0  0  0  0  0
   31.6760   28.4850   47.0230 C   0  0  0  0  0  0  0  0  0  0  0  0
   32.7550   29.3500   46.4590 C   0  0  0  0  0  0  0  0  0  0  0  0
   34.1040   28.8450   46.8820 C   0  0  0  0  0  0  0  0  0  0  0  0
   37.8140   30.9710   51.4070 H   0  0  0  0  0  0  0  0  0  0  0  0
   36.2850   29.3490   52.3340 H   0  0  0  0  0  0  0  0  0  0  0  0
   34.5980   28.3450   50.9280 H   0  0  0  0  0  0  0  0  0  0  0  0
   33.5020   27.2300   49.6210 H   0  0  0  0  0  0  0  0  0  0  0  0
   32.4610   28.7540   49.5600 H   0  0  0  0  0  0  0  0  0  0  0  0
   31.4080   26.8370   48.3440 H   0  0  0  0  0  0  0  0  0  0  0  0
   32.9480   26.7400   47.3410 H   0  0  0  0  0  0  0  0  0  0  0  0
   31.0700   29.1310   47.7100 H   0  0  0  0  0  0  0  0  0  0  0  0
   31.0090   28.0190   46.2760 H   0  0  0  0  0  0  0  0  0  0  0  0
   32.6900   29.2670   45.3470 H   0  0  0  0  0  0  0  0  0  0  0  0
   32.6530   30.4130   46.7290 H   0  0  0  0  0  0  0  0  0  0  0  0
   34.8400   29.6460   46.5860 H   0  0  0  0  0  0  0  0  0  0  0  0
   34.4160   27.9240   46.3860 H   0  0  0  0  0  0  0  0  0  0  0  0
   39.1920   33.7750   49.0870 C   0  0  0  0  0  0  0  0  0  0  0  0
   39.6450   33.6860   47.7540 C   0  0  0  0  0  0  0  0  0  0  0  0
   39.1690   32.6360   47.0060 C   0  0  0  0  0  0  0  0  0  0  0  0
   38.3040   31.7530   47.5750 N   0  0  0  0  0  0  0  0  0  0  0  0
   37.8900   31.8630   48.8470 C   0  0  0  0  0  0  0  0  0  0  0  0
   38.3370   32.8760   49.5940 N   0  0  0  0  0  0  0  0  0  0  0  0
   39.5560   34.5960   49.6870 H   0  0  0  0  0  0  0  0  0  0  0  0
   40.3200   34.3940   47.3450 H   0  0  0  0  0  0  0  0  0  0  0  0
   39.5410   32.4240   45.6510 N   0  0  0  0  0  0  0  0  0  0  0  0
   40.8460   31.9420   45.2520 C   0  0  0  0  0  0  0  0  0  0  0  0
   41.5140   32.7690   44.9360 H   0  0  0  0  0  0  0  0  0  0  0  0
   40.6130   31.0450   44.0390 C   0  0  0  0  0  0  0  0  0  0  0  0
   41.5630   30.5140   43.7820 H   0  0  0  0  0  0  0  0  0  0  0  0
   40.1460   31.8610   42.9610 N   0  0  0  0  0  0  0  0  0  0  0  0
   40.7530   31.9350   42.1400 H   0  0  0  0  0  0  0  0  0  0  0  0
   39.5040   33.0840   43.3800 C   0  0  0  0  0  0  0  0  0  0  0  0
   38.6170   32.6820   44.5660 C   0  0  0  0  0  0  0  0  0  0  0  0
  1  2  1  0  0  0  0
  2  3  2  0  0  0  0
  2 13  1  0  0  0  0
  3 14  1  0  0  0  0
  4 15  1  0  0  0  0
  4  3  1  0  0  0  0
  5  4  2  0  0  0  0
  6  5  1  0  0  0  0
  6  1  2  0  0  0  0
  7  8  1  0  0  0  0
  7  5  1  0  0  0  0
  8 17  1  0  0  0  0
  8 16  1  0  0  0  0
  9 18  1  0  0  0  0
  9  8  1  0  0  0  0
 10 20  1  0  0  0  0
 10  9  1  0  0  0  0
 11 23  1  0  0  0  0
 11 12  1  0  0  0  0
 11 10  1  0  0  0  0
 12  7  1  0  0  0  0
 19  9  1  0  0  0  0
 21 10  1  0  0  0  0
 22 11  1  0  0  0  0
 24 12  1  0  0  0  0
 25 12  1  0  0  0  0
 26 31  1  0  0  0  0
 26 32  1  0  0  0  0
 27 26  2  0  0  0  0
 28 29  2  0  0  0  0
 28 27  1  0  0  0  0
 29 30  1  0  0  0  0
 30  1  1  0  0  0  0
 30 31  2  0  0  0  0
 33 27  1  0  0  0  0
 34 28  1  0  0  0  0
 35 34  1  0  0  0  0
 36 35  1  0  0  0  0
 37 35  1  0  0  0  0
 38 37  1  0  0  0  0
 39 41  1  0  0  0  0
 39 37  1  0  0  0  0
 40 39  1  0  0  0  0
 41 42  1  0  0  0  0
 42 34  1  0  0  0  0
M  END
>  <minimizedAffinity>
-7.3431325

>  <minimizedRMSD>
1.80007792

$$$$
