
     RDKit          3D

 41 44  0  0  0  0  0  0  0  0999 V2000
   33.8445   28.7884   48.2708 C   0  0  0  0  0  0  0  0  0  0  0  0
   34.4393   28.4178   49.4241 C   0  0  0  0  0  0  0  0  0  0  0  0
   35.7120   28.7812   49.8128 C   0  0  0  0  0  0  0  0  0  0  0  0
   36.4619   29.5791   48.9921 C   0  0  0  0  0  0  0  0  0  0  0  0
   35.8488   29.9682   47.7904 C   0  0  0  0  0  0  0  0  0  0  0  0
   34.5994   29.5813   47.4631 N   0  0  0  0  0  0  0  0  0  0  0  0
   31.6276   27.6696   48.7045 C   0  0  0  0  0  0  0  0  0  0  0  0
   32.5218   28.4047   47.8770 C   0  0  0  0  0  0  0  0  0  0  0  0
   32.0380   28.7403   46.6378 C   0  0  0  0  0  0  0  0  0  0  0  0
   30.7718   28.3688   46.2694 N   0  0  0  0  0  0  0  0  0  0  0  0
   29.9764   27.6728   47.1026 C   0  0  0  0  0  0  0  0  0  0  0  0
   30.3978   27.3173   48.3273 N   0  0  0  0  0  0  0  0  0  0  0  0
   37.7538   30.0476   49.2074 O   0  0  0  0  0  0  0  0  0  0  0  0
   38.1627   31.3056   48.7763 C   0  0  0  0  0  0  0  0  0  0  0  0
   37.8727   32.3253   49.6816 C   0  0  0  0  0  0  0  0  0  0  0  0
   38.3381   33.5088   49.1130 C   0  0  0  0  0  0  0  0  0  0  0  0
   38.8738   33.1813   47.9290 N   0  0  0  0  0  0  0  0  0  0  0  0
   38.7663   31.8910   47.7416 N   0  0  0  0  0  0  0  0  0  0  0  0
   33.9256   27.7879   50.1360 H   0  0  0  0  0  0  0  0  0  0  0  0
   36.1906   28.4853   50.7365 H   0  0  0  0  0  0  0  0  0  0  0  0
   36.3959   30.6035   47.0960 H   0  0  0  0  0  0  0  0  0  0  0  0
   31.9772   27.3888   49.6880 H   0  0  0  0  0  0  0  0  0  0  0  0
   32.6753   29.3054   45.9533 H   0  0  0  0  0  0  0  0  0  0  0  0
   29.0075   27.4513   46.6763 H   0  0  0  0  0  0  0  0  0  0  0  0
   37.3988   32.3993   50.6614 H   0  0  0  0  0  0  0  0  0  0  0  0
   38.3154   34.5278   49.4784 H   0  0  0  0  0  0  0  0  0  0  0  0
   37.9028   34.5178   45.7027 H   0  0  0  0  0  0  0  0  0  0  0  0
   38.8302   34.0182   45.6795 N   0  0  0  0  0  0  0  0  0  0  0  0
   39.4826   34.0534   46.9735 C   0  0  1  0  0  0  0  0  0  0  0  0
   39.5214   35.5015   47.3803 C   0  0  2  0  0  0  0  0  0  0  0  0
   39.8335   35.6761   48.4132 H   0  0  0  0  0  0  0  0  0  0  0  0
   40.4792   36.1466   46.5130 N   0  0  0  0  0  0  0  0  0  0  0  0
   41.4637   36.0124   46.8278 H   0  0  0  0  0  0  0  0  0  0  0  0
   40.2684   35.9442   45.1202 C   0  0  0  0  0  0  0  0  0  0  0  0
   39.7210   34.6228   44.7112 C   0  0  0  0  0  0  0  0  0  0  0  0
   40.5228   33.7065   46.8037 H   0  0  0  0  0  0  0  0  0  0  0  0
   38.5338   36.0006   47.1652 H   0  0  0  0  0  0  0  0  0  0  0  0
   39.7107   36.8179   44.6818 H   0  0  0  0  0  0  0  0  0  0  0  0
   41.2855   36.0237   44.6355 H   0  0  0  0  0  0  0  0  0  0  0  0
   40.5049   33.8678   44.4736 H   0  0  0  0  0  0  0  0  0  0  0  0
   39.1312   34.7594   43.7772 H   0  0  0  0  0  0  0  0  0  0  0  0
  1  2  2  0
  2  3  1  0
  4 13  1  0
  4  3  2  0
  5  4  1  0
  6  5  2  0
  6  1  1  0
  8  1  1  0
  8  7  2  0
  9  8  1  0
 10  9  2  0
 10 11  1  0
 11 12  2  0
 12  7  1  0
 14 13  1  0
 14 15  1  0
 16 15  2  0
 17 16  1  0
 18 17  1  0
 18 14  2  0
  2 19  1  0
  3 20  1  0
  5 21  1  0
  7 22  1  0
  9 23  1  0
 11 24  1  0
 15 25  1  0
 16 26  1  0
 27 28  1  0
 28 29  1  0
 29 30  1  0
 30 31  1  1
 30 32  1  0
 32 33  1  0
 32 34  1  0
 34 35  1  0
 35 28  1  0
 29 36  1  6
 30 37  1  0
 34 38  1  0
 34 39  1  0
 35 40  1  0
 35 41  1  0
 17 29  1  0
M  ISO  8  19  14  20  14  21  14  22  14  23  14  24  14  25  14  26  14
M  ISO  3  27   5  31   8  33   5
M  END
>  <DihAtoms>  (1) 
15,16,28,27

>  <DihDeg>  (1) 
13.91710145142344

$$$$
