
 OpenBabel03272508463D

 27 29  0  0  0  0  0  0  0  0999 V2000
   37.2330   26.4610   33.8310 C   0  0  0  0  0  0  0  0  0  0  0  0
   37.5450   27.4880   34.7060 C   0  0  0  0  0  0  0  0  0  0  0  0
   38.1200   26.8250   35.7830 C   0  0  0  0  0  0  0  0  0  0  0  0
   38.1320   25.4780   35.5230 C   0  0  0  0  0  0  0  0  0  0  0  0
   37.5960   25.2930   34.3530 O   0  0  0  0  0  0  0  0  0  0  0  0
   37.3820   28.5540   34.5860 H   0  0  0  0  0  0  0  0  0  0  0  0
   38.4980   27.2970   36.6800 H   0  0  0  0  0  0  0  0  0  0  0  0
   38.6380   24.4570   36.3780 N   0  0  0  0  0  0  0  0  0  0  0  0
   39.8770   23.7690   36.0820 C   0  0  0  0  0  3  0  0  0  0  0  0
   40.0320   23.6980   34.9950 H   0  0  0  0  0  0  0  0  0  0  0  0
   39.7080   22.3630   36.6400 C   0  0  0  0  0  3  0  0  0  0  0  0
   38.7150   22.0080   36.2990 H   0  0  0  0  0  0  0  0  0  0  0  0
   39.7210   22.4580   38.0740 N   0  0  0  0  0  0  0  0  0  0  0  0
   40.6610   22.6790   38.4410 H   0  0  0  0  0  0  0  0  0  0  0  0
   38.7830   23.4070   38.5910 C   0  0  0  0  0  2  0  0  0  0  0  0
   37.9190   24.0780   37.5760 C   0  0  0  0  0  2  0  0  0  0  0  0
   36.5960   26.6510   32.5240 C   0  0  0  0  0  0  0  0  0  0  0  0
   36.3490   25.6220   31.8390 O   0  0  0  0  0  0  0  0  0  0  0  0
   36.9150   29.8270   30.8000 C   0  0  0  0  0  0  0  0  0  0  0  0
   35.7510   30.5080   31.1480 C   0  0  0  0  0  0  0  0  0  0  0  0
   34.8410   29.8760   31.9830 C   0  0  0  0  0  0  0  0  0  0  0  0
   35.1420   28.6280   32.4130 N   0  0  0  0  0  0  0  0  0  0  0  0
   36.2740   27.9870   32.0640 C   0  0  0  0  0  0  0  0  0  0  0  0
   37.1640   28.5950   31.2510 N   0  0  0  0  0  0  0  0  0  0  0  0
   37.6610   30.2690   30.1520 H   0  0  0  0  0  0  0  0  0  0  0  0
   35.6180   31.5000   30.7450 H   0  0  0  0  0  0  0  0  0  0  0  0
   33.9360   30.3910   32.2610 H   0  0  0  0  0  0  0  0  0  0  0  0
  1  5  1  0  0  0  0
  1  2  2  0  0  0  0
  2  3  1  0  0  0  0
  3  7  1  0  0  0  0
  4  3  2  0  0  0  0
  4  8  1  0  0  0  0
  5  4  1  0  0  0  0
  6  2  1  0  0  0  0
  8 16  1  0  0  0  0
  9  8  1  0  0  0  0
  9 11  1  0  0  0  0
 10  9  1  0  0  0  0
 11 13  1  0  0  0  0
 12 11  1  0  0  0  0
 13 14  1  0  0  0  0
 13 15  1  0  0  0  0
 16 15  1  0  0  0  0
 17  1  1  0  0  0  0
 18 17  2  0  0  0  0
 19 20  2  0  0  0  0
 19 24  1  0  0  0  0
 20 21  1  0  0  0  0
 21 27  1  0  0  0  0
 21 22  2  0  0  0  0
 23 22  1  0  0  0  0
 23 17  1  0  0  0  0
 24 23  2  0  0  0  0
 25 19  1  0  0  0  0
 26 20  1  0  0  0  0
M  END
>  <minimizedAffinity>
-5.33465242

$$$$

 OpenBabel03272508463D

 27 29  0  0  0  0  0  0  0  0999 V2000
   37.2350   26.4600   33.8390 C   0  0  0  0  0  0  0  0  0  0  0  0
   37.5570   27.4850   34.7110 C   0  0  0  0  0  0  0  0  0  0  0  0
   38.1370   26.8220   35.7840 C   0  0  0  0  0  0  0  0  0  0  0  0
   38.1430   25.4740   35.5250 C   0  0  0  0  0  0  0  0  0  0  0  0
   37.5980   25.2900   34.3590 O   0  0  0  0  0  0  0  0  0  0  0  0
   37.3960   28.5530   34.5920 H   0  0  0  0  0  0  0  0  0  0  0  0
   38.5230   27.2930   36.6780 H   0  0  0  0  0  0  0  0  0  0  0  0
   38.6530   24.4530   36.3770 N   0  0  0  0  0  0  0  0  0  0  0  0
   39.8940   23.7700   36.0790 C   0  0  0  0  0  3  0  0  0  0  0  0
   40.0510   23.7030   34.9920 H   0  0  0  0  0  0  0  0  0  0  0  0
   39.7310   22.3610   36.6320 C   0  0  0  0  0  3  0  0  0  0  0  0
   38.7390   22.0050   36.2900 H   0  0  0  0  0  0  0  0  0  0  0  0
   39.7420   22.4510   38.0670 N   0  0  0  0  0  0  0  0  0  0  0  0
   40.6820   22.6750   38.4350 H   0  0  0  0  0  0  0  0  0  0  0  0
   38.8010   23.3960   38.5860 C   0  0  0  0  0  2  0  0  0  0  0  0
   37.9350   24.0660   37.5740 C   0  0  0  0  0  2  0  0  0  0  0  0
   36.5890   26.6500   32.5360 C   0  0  0  0  0  0  0  0  0  0  0  0
   36.2680   25.6190   31.8870 O   0  0  0  0  0  0  0  0  0  0  0  0
   34.9020   29.8090   31.9620 C   0  0  0  0  0  0  0  0  0  0  0  0
   35.7900   30.5150   31.1540 C   0  0  0  0  0  0  0  0  0  0  0  0
   36.9850   29.9050   30.7990 C   0  0  0  0  0  0  0  0  0  0  0  0
   37.2160   28.6540   31.2610 N   0  0  0  0  0  0  0  0  0  0  0  0
   36.3420   27.9900   32.0420 C   0  0  0  0  0  0  0  0  0  0  0  0
   35.1770   28.5760   32.3920 N   0  0  0  0  0  0  0  0  0  0  0  0
   33.9550   30.2330   32.2710 H   0  0  0  0  0  0  0  0  0  0  0  0
   35.4990   31.5070   30.8460 H   0  0  0  0  0  0  0  0  0  0  0  0
   37.6820   30.4390   30.1740 H   0  0  0  0  0  0  0  0  0  0  0  0
  1  5  1  0  0  0  0
  1  2  2  0  0  0  0
  2  3  1  0  0  0  0
  3  7  1  0  0  0  0
  4  3  2  0  0  0  0
  4  8  1  0  0  0  0
  5  4  1  0  0  0  0
  6  2  1  0  0  0  0
  8 16  1  0  0  0  0
  9  8  1  0  0  0  0
  9 11  1  0  0  0  0
 10  9  1  0  0  0  0
 11 13  1  0  0  0  0
 12 11  1  0  0  0  0
 13 14  1  0  0  0  0
 13 15  1  0  0  0  0
 16 15  1  0  0  0  0
 17  1  1  0  0  0  0
 18 17  2  0  0  0  0
 19 25  1  0  0  0  0
 19 24  1  0  0  0  0
 20 19  2  0  0  0  0
 21 20  1  0  0  0  0
 21 22  2  0  0  0  0
 22 23  1  0  0  0  0
 23 24  2  0  0  0  0
 23 17  1  0  0  0  0
 26 20  1  0  0  0  0
 27 21  1  0  0  0  0
M  END
>  <minimizedAffinity>
-5.31655931

$$$$

 OpenBabel03272508463D

 27 29  0  0  0  0  0  0  0  0999 V2000
   37.4400   23.9230   32.7780 C   0  0  0  0  0  0  0  0  0  0  0  0
   37.7590   25.2560   32.9670 C   0  0  0  0  0  0  0  0  0  0  0  0
   38.2330   25.2900   34.2730 C   0  0  0  0  0  0  0  0  0  0  0  0
   38.1830   24.0230   34.7970 C   0  0  0  0  0  0  0  0  0  0  0  0
   37.7060   23.2310   33.8840 O   0  0  0  0  0  0  0  0  0  0  0  0
   37.6630   26.0820   32.2690 H   0  0  0  0  0  0  0  0  0  0  0  0
   38.5840   26.1730   34.7890 H   0  0  0  0  0  0  0  0  0  0  0  0
   38.5810   23.6360   36.1090 N   0  0  0  0  0  0  0  0  0  0  0  0
   37.6110   23.4440   37.1670 C   0  0  0  0  0  3  0  0  0  0  0  0
   36.7510   24.1170   37.0330 H   0  0  0  0  0  0  0  0  0  0  0  0
   38.3270   23.8260   38.4550 C   0  0  0  0  0  3  0  0  0  0  0  0
   38.8330   24.7910   38.2560 H   0  0  0  0  0  0  0  0  0  0  0  0
   39.3100   22.8120   38.7240 N   0  0  0  0  0  0  0  0  0  0  0  0
   38.8790   21.9210   39.0220 H   0  0  0  0  0  0  0  0  0  0  0  0
   40.1860   22.5600   37.6210 C   0  0  0  0  0  2  0  0  0  0  0  0
   39.9780   23.4230   36.4220 C   0  0  0  0  0  2  0  0  0  0  0  0
   36.8910   23.3690   31.5370 C   0  0  0  0  0  0  0  0  0  0  0  0
   36.8850   24.1110   30.5180 O   0  0  0  0  0  0  0  0  0  0  0  0
   36.6900   19.8200   30.8120 C   0  0  0  0  0  0  0  0  0  0  0  0
   35.4990   19.4270   31.4180 C   0  0  0  0  0  0  0  0  0  0  0  0
   34.7510   20.3870   32.0850 C   0  0  0  0  0  0  0  0  0  0  0  0
   35.2260   21.6540   32.1060 N   0  0  0  0  0  0  0  0  0  0  0  0
   36.3820   22.0120   31.5140 C   0  0  0  0  0  0  0  0  0  0  0  0
   37.1160   21.0850   30.8630 N   0  0  0  0  0  0  0  0  0  0  0  0
   37.3160   19.1170   30.2780 H   0  0  0  0  0  0  0  0  0  0  0  0
   35.2200   18.3890   31.3350 H   0  0  0  0  0  0  0  0  0  0  0  0
   33.8270   20.0980   32.5580 H   0  0  0  0  0  0  0  0  0  0  0  0
  1  2  2  0  0  0  0
  1  5  1  0  0  0  0
  2  3  1  0  0  0  0
  3  7  1  0  0  0  0
  3  4  2  0  0  0  0
  4  8  1  0  0  0  0
  5  4  1  0  0  0  0
  6  2  1  0  0  0  0
  8 16  1  0  0  0  0
  8  9  1  0  0  0  0
  9 11  1  0  0  0  0
 10  9  1  0  0  0  0
 11 13  1  0  0  0  0
 12 11  1  0  0  0  0
 13 14  1  0  0  0  0
 15 13  1  0  0  0  0
 16 15  1  0  0  0  0
 17  1  1  0  0  0  0
 18 17  2  0  0  0  0
 19 24  2  0  0  0  0
 19 20  1  0  0  0  0
 20 21  2  0  0  0  0
 21 22  1  0  0  0  0
 21 27  1  0  0  0  0
 23 17  1  0  0  0  0
 23 22  2  0  0  0  0
 24 23  1  0  0  0  0
 25 19  1  0  0  0  0
 26 20  1  0  0  0  0
M  END
>  <minimizedAffinity>
-5.17172527

$$$$

 OpenBabel03272508463D

 27 29  0  0  0  0  0  0  0  0999 V2000
   37.5850   26.7800   34.1790 C   0  0  0  0  0  0  0  0  0  0  0  0
   37.9650   27.7200   35.1210 C   0  0  0  0  0  0  0  0  0  0  0  0
   38.4880   26.9480   36.1510 C   0  0  0  0  0  0  0  0  0  0  0  0
   38.4060   25.6240   35.8010 C   0  0  0  0  0  0  0  0  0  0  0  0
   37.8630   25.5560   34.6220 O   0  0  0  0  0  0  0  0  0  0  0  0
   37.8780   28.8020   35.0740 H   0  0  0  0  0  0  0  0  0  0  0  0
   38.8950   27.3320   37.0770 H   0  0  0  0  0  0  0  0  0  0  0  0
   38.8360   24.5150   36.5850 N   0  0  0  0  0  0  0  0  0  0  0  0
   40.0150   23.7530   36.2330 C   0  0  0  0  0  3  0  0  0  0  0  0
   40.1590   23.7390   35.1430 H   0  0  0  0  0  0  0  0  0  0  0  0
   39.7410   22.3320   36.7040 C   0  0  0  0  0  3  0  0  0  0  0  0
   38.7220   22.0780   36.3520 H   0  0  0  0  0  0  0  0  0  0  0  0
   39.7690   22.3350   38.1410 N   0  0  0  0  0  0  0  0  0  0  0  0
   40.7260   22.4590   38.5110 H   0  0  0  0  0  0  0  0  0  0  0  0
   38.9110   23.3200   38.7260 C   0  0  0  0  0  2  0  0  0  0  0  0
   38.0970   24.1180   37.7650 C   0  0  0  0  0  2  0  0  0  0  0  0
   36.9680   27.1010   32.8890 C   0  0  0  0  0  0  0  0  0  0  0  0
   36.9610   28.3080   32.5290 O   0  0  0  0  0  0  0  0  0  0  0  0
   34.6460   25.3550   30.7170 C   0  0  0  0  0  0  0  0  0  0  0  0
   35.2410   24.1100   30.5320 C   0  0  0  0  0  0  0  0  0  0  0  0
   36.4550   23.8590   31.1560 C   0  0  0  0  0  0  0  0  0  0  0  0
   36.9890   24.8460   31.9130 N   0  0  0  0  0  0  0  0  0  0  0  0
   36.3960   26.0440   32.0780 C   0  0  0  0  0  0  0  0  0  0  0  0
   35.2150   26.2960   31.4740 N   0  0  0  0  0  0  0  0  0  0  0  0
   33.7000   25.6070   30.2550 H   0  0  0  0  0  0  0  0  0  0  0  0
   34.7220   23.4000   29.9060 H   0  0  0  0  0  0  0  0  0  0  0  0
   36.9270   22.9000   31.0230 H   0  0  0  0  0  0  0  0  0  0  0  0
  1  5  1  0  0  0  0
  1  2  2  0  0  0  0
  2  3  1  0  0  0  0
  3  7  1  0  0  0  0
  4  3  2  0  0  0  0
  4  8  1  0  0  0  0
  5  4  1  0  0  0  0
  6  2  1  0  0  0  0
  8 16  1  0  0  0  0
  9  8  1  0  0  0  0
  9 11  1  0  0  0  0
 10  9  1  0  0  0  0
 11 13  1  0  0  0  0
 12 11  1  0  0  0  0
 13 14  1  0  0  0  0
 13 15  1  0  0  0  0
 16 15  1  0  0  0  0
 17  1  1  0  0  0  0
 18 17  2  0  0  0  0
 19 24  1  0  0  0  0
 20 19  2  0  0  0  0
 20 21  1  0  0  0  0
 21 22  2  0  0  0  0
 22 23  1  0  0  0  0
 23 17  1  0  0  0  0
 24 23  2  0  0  0  0
 25 19  1  0  0  0  0
 26 20  1  0  0  0  0
 27 21  1  0  0  0  0
M  END
>  <minimizedAffinity>
-5.14163876

$$$$

 OpenBabel03272508463D

 27 29  0  0  0  0  0  0  0  0999 V2000
   38.0970   25.4390   35.7110 C   0  0  0  0  0  0  0  0  0  0  0  0
   38.2780   26.7270   36.1840 C   0  0  0  0  0  0  0  0  0  0  0  0
   37.9860   27.5170   35.0800 C   0  0  0  0  0  0  0  0  0  0  0  0
   37.6520   26.7050   34.0260 C   0  0  0  0  0  0  0  0  0  0  0  0
   37.7280   25.4720   34.4330 O   0  0  0  0  0  0  0  0  0  0  0  0
   38.5780   27.0490   37.1770 H   0  0  0  0  0  0  0  0  0  0  0  0
   38.0160   28.5980   35.0570 H   0  0  0  0  0  0  0  0  0  0  0  0
   37.2860   27.1280   32.7160 N   0  0  0  0  0  0  0  0  0  0  0  0
   37.5660   26.3130   31.5530 C   0  0  0  0  0  3  0  0  0  0  0  0
   38.4850   25.7260   31.7010 H   0  0  0  0  0  0  0  0  0  0  0  0
   37.7970   27.2930   30.4110 C   0  0  0  0  0  3  0  0  0  0  0  0
   38.4900   28.0650   30.7970 H   0  0  0  0  0  0  0  0  0  0  0  0
   36.5310   27.8960   30.0910 N   0  0  0  0  0  0  0  0  0  0  0  0
   35.8910   27.2320   29.6250 H   0  0  0  0  0  0  0  0  0  0  0  0
   35.8690   28.4650   31.2250 C   0  0  0  0  0  2  0  0  0  0  0  0
   36.6200   28.3970   32.5120 C   0  0  0  0  0  2  0  0  0  0  0  0
   38.2870   24.2260   36.5120 C   0  0  0  0  0  0  0  0  0  0  0  0
   37.3040   23.8080   37.1810 O   0  0  0  0  0  0  0  0  0  0  0  0
   40.9610   21.9970   37.5300 C   0  0  0  0  0  0  0  0  0  0  0  0
   41.9650   22.2400   36.5960 C   0  0  0  0  0  0  0  0  0  0  0  0
   41.7280   23.1780   35.6020 C   0  0  0  0  0  0  0  0  0  0  0  0
   40.5290   23.8050   35.6000 N   0  0  0  0  0  0  0  0  0  0  0  0
   39.5710   23.5550   36.5140 C   0  0  0  0  0  0  0  0  0  0  0  0
   39.7930   22.6430   37.4840 N   0  0  0  0  0  0  0  0  0  0  0  0
   41.0890   21.2770   38.3280 H   0  0  0  0  0  0  0  0  0  0  0  0
   42.8820   21.6800   36.6960 H   0  0  0  0  0  0  0  0  0  0  0  0
   42.4960   23.3770   34.8720 H   0  0  0  0  0  0  0  0  0  0  0  0
  1  2  2  0  0  0  0
  1 17  1  0  0  0  0
  2  6  1  0  0  0  0
  3  2  1  0  0  0  0
  4  5  1  0  0  0  0
  4  3  2  0  0  0  0
  5  1  1  0  0  0  0
  7  3  1  0  0  0  0
  8  4  1  0  0  0  0
  9 10  1  0  0  0  0
  9  8  1  0  0  0  0
 11 12  1  0  0  0  0
 11  9  1  0  0  0  0
 13 11  1  0  0  0  0
 13 15  1  0  0  0  0
 14 13  1  0  0  0  0
 15 16  1  0  0  0  0
 16  8  1  0  0  0  0
 17 23  1  0  0  0  0
 17 18  2  0  0  0  0
 19 25  1  0  0  0  0
 20 26  1  0  0  0  0
 20 19  2  0  0  0  0
 21 20  1  0  0  0  0
 22 21  2  0  0  0  0
 22 23  1  0  0  0  0
 23 24  2  0  0  0  0
 24 19  1  0  0  0  0
 27 21  1  0  0  0  0
M  END
>  <minimizedAffinity>
-5.08752203

$$$$

 OpenBabel03272508463D

 27 29  0  0  0  0  0  0  0  0999 V2000
   37.3080   25.9470   33.3690 C   0  0  0  0  0  0  0  0  0  0  0  0
   37.1600   26.9900   34.2670 C   0  0  0  0  0  0  0  0  0  0  0  0
   37.6290   26.4540   35.4590 C   0  0  0  0  0  0  0  0  0  0  0  0
   38.0280   25.1600   35.2400 C   0  0  0  0  0  0  0  0  0  0  0  0
   37.8230   24.8870   33.9850 O   0  0  0  0  0  0  0  0  0  0  0  0
   36.7700   27.9880   34.0890 H   0  0  0  0  0  0  0  0  0  0  0  0
   37.6740   26.9760   36.4060 H   0  0  0  0  0  0  0  0  0  0  0  0
   38.5690   24.2670   36.2090 N   0  0  0  0  0  0  0  0  0  0  0  0
   39.8860   23.6880   36.0510 C   0  0  0  0  0  3  0  0  0  0  0  0
   40.1240   23.5470   34.9860 H   0  0  0  0  0  0  0  0  0  0  0  0
   39.8160   22.3210   36.7150 C   0  0  0  0  0  3  0  0  0  0  0  0
   38.8890   21.8410   36.3450 H   0  0  0  0  0  0  0  0  0  0  0  0
   39.7180   22.5290   38.1340 N   0  0  0  0  0  0  0  0  0  0  0  0
   40.6050   22.8740   38.5390 H   0  0  0  0  0  0  0  0  0  0  0  0
   38.6590   23.4160   38.5090 C   0  0  0  0  0  2  0  0  0  0  0  0
   37.8080   23.9120   37.3890 C   0  0  0  0  0  2  0  0  0  0  0  0
   36.9470   26.0170   31.9500 C   0  0  0  0  0  0  0  0  0  0  0  0
   35.8110   26.4800   31.6580 O   0  0  0  0  0  0  0  0  0  0  0  0
   38.6920   23.7860   29.6840 C   0  0  0  0  0  0  0  0  0  0  0  0
   39.6160   24.6150   29.0520 C   0  0  0  0  0  0  0  0  0  0  0  0
   39.6440   25.9580   29.4010 C   0  0  0  0  0  0  0  0  0  0  0  0
   38.7690   26.3830   30.3420 N   0  0  0  0  0  0  0  0  0  0  0  0
   37.8840   25.5620   30.9420 C   0  0  0  0  0  0  0  0  0  0  0  0
   37.8490   24.2550   30.6070 N   0  0  0  0  0  0  0  0  0  0  0  0
   38.6240   22.7310   29.4530 H   0  0  0  0  0  0  0  0  0  0  0  0
   40.2640   24.1650   28.3160 H   0  0  0  0  0  0  0  0  0  0  0  0
   40.3530   26.6110   28.9210 H   0  0  0  0  0  0  0  0  0  0  0  0
  1  5  1  0  0  0  0
  1  2  2  0  0  0  0
  2  3  1  0  0  0  0
  3  7  1  0  0  0  0
  4  3  2  0  0  0  0
  4  8  1  0  0  0  0
  5  4  1  0  0  0  0
  6  2  1  0  0  0  0
  8 16  1  0  0  0  0
  9  8  1  0  0  0  0
  9 11  1  0  0  0  0
 10  9  1  0  0  0  0
 11 13  1  0  0  0  0
 12 11  1  0  0  0  0
 13 15  1  0  0  0  0
 13 14  1  0  0  0  0
 16 15  1  0  0  0  0
 17  1  1  0  0  0  0
 18 17  2  0  0  0  0
 19 24  1  0  0  0  0
 20 21  1  0  0  0  0
 20 19  2  0  0  0  0
 21 22  2  0  0  0  0
 22 23  1  0  0  0  0
 23 17  1  0  0  0  0
 24 23  2  0  0  0  0
 25 19  1  0  0  0  0
 26 20  1  0  0  0  0
 27 21  1  0  0  0  0
M  END
>  <minimizedAffinity>
-5.02718163

$$$$

 OpenBabel03272508463D

 27 29  0  0  0  0  0  0  0  0999 V2000
   37.9880   24.1510   33.5700 C   0  0  0  0  0  0  0  0  0  0  0  0
   37.2920   24.8570   32.6040 C   0  0  0  0  0  0  0  0  0  0  0  0
   36.6370   23.8620   31.8900 C   0  0  0  0  0  0  0  0  0  0  0  0
   36.9520   22.6420   32.4350 C   0  0  0  0  0  0  0  0  0  0  0  0
   37.7580   22.8480   33.4330 O   0  0  0  0  0  0  0  0  0  0  0  0
   37.2620   25.9300   32.4380 H   0  0  0  0  0  0  0  0  0  0  0  0
   35.9840   24.0250   31.0430 H   0  0  0  0  0  0  0  0  0  0  0  0
   36.4830   21.3730   31.9900 N   0  0  0  0  0  0  0  0  0  0  0  0
   37.3380   20.4680   31.2520 C   0  0  0  0  0  3  0  0  0  0  0  0
   38.0610   21.0280   30.6400 H   0  0  0  0  0  0  0  0  0  0  0  0
   36.4120   19.6960   30.3220 C   0  0  0  0  0  3  0  0  0  0  0  0
   35.7560   20.4480   29.8400 H   0  0  0  0  0  0  0  0  0  0  0  0
   35.6190   18.8110   31.1310 N   0  0  0  0  0  0  0  0  0  0  0  0
   36.1770   18.0280   31.5110 H   0  0  0  0  0  0  0  0  0  0  0  0
   34.9470   19.4710   32.2080 C   0  0  0  0  0  2  0  0  0  0  0  0
   35.1260   20.9510   32.2680 C   0  0  0  0  0  2  0  0  0  0  0  0
   38.8470   24.7640   34.5880 C   0  0  0  0  0  0  0  0  0  0  0  0
   39.5440   25.7560   34.2440 O   0  0  0  0  0  0  0  0  0  0  0  0
   37.8690   24.1520   38.0270 C   0  0  0  0  0  0  0  0  0  0  0  0
   38.8340   23.2620   38.4900 C   0  0  0  0  0  0  0  0  0  0  0  0
   39.8360   22.8610   37.6170 C   0  0  0  0  0  0  0  0  0  0  0  0
   39.8140   23.3640   36.3600 N   0  0  0  0  0  0  0  0  0  0  0  0
   38.8700   24.2250   35.9340 C   0  0  0  0  0  0  0  0  0  0  0  0
   37.8920   24.6190   36.7760 N   0  0  0  0  0  0  0  0  0  0  0  0
   37.0640   24.4990   38.6620 H   0  0  0  0  0  0  0  0  0  0  0  0
   38.7510   22.9270   39.5130 H   0  0  0  0  0  0  0  0  0  0  0  0
   40.5900   22.1730   37.9620 H   0  0  0  0  0  0  0  0  0  0  0  0
  1 17  1  0  0  0  0
  2  1  2  0  0  0  0
  3  4  2  0  0  0  0
  3  2  1  0  0  0  0
  4  5  1  0  0  0  0
  5  1  1  0  0  0  0
  6  2  1  0  0  0  0
  7  3  1  0  0  0  0
  8 16  1  0  0  0  0
  8  4  1  0  0  0  0
  9  8  1  0  0  0  0
 10  9  1  0  0  0  0
 11 13  1  0  0  0  0
 11  9  1  0  0  0  0
 12 11  1  0  0  0  0
 13 14  1  0  0  0  0
 13 15  1  0  0  0  0
 15 16  1  0  0  0  0
 17 23  1  0  0  0  0
 18 17  2  0  0  0  0
 19 20  1  0  0  0  0
 19 25  1  0  0  0  0
 20 26  1  0  0  0  0
 21 27  1  0  0  0  0
 21 20  2  0  0  0  0
 22 21  1  0  0  0  0
 23 22  2  0  0  0  0
 23 24  1  0  0  0  0
 24 19  2  0  0  0  0
M  END
>  <minimizedAffinity>
-4.9283123

$$$$

 OpenBabel03272508463D

 27 29  0  0  0  0  0  0  0  0999 V2000
   37.4590   25.9750   33.4270 C   0  0  0  0  0  0  0  0  0  0  0  0
   37.4190   24.8000   32.6960 C   0  0  0  0  0  0  0  0  0  0  0  0
   37.8610   23.8450   33.6030 C   0  0  0  0  0  0  0  0  0  0  0  0
   38.1380   24.4580   34.7980 C   0  0  0  0  0  0  0  0  0  0  0  0
   37.8900   25.7270   34.6620 O   0  0  0  0  0  0  0  0  0  0  0  0
   37.1170   24.6540   31.6640 H   0  0  0  0  0  0  0  0  0  0  0  0
   37.9660   22.7880   33.3970 H   0  0  0  0  0  0  0  0  0  0  0  0
   38.6150   23.8250   35.9810 N   0  0  0  0  0  0  0  0  0  0  0  0
   37.7170   23.4580   37.0560 C   0  0  0  0  0  3  0  0  0  0  0  0
   36.8720   24.1610   37.1150 H   0  0  0  0  0  0  0  0  0  0  0  0
   38.5350   23.5770   38.3340 C   0  0  0  0  0  3  0  0  0  0  0  0
   39.0580   24.5520   38.2800 H   0  0  0  0  0  0  0  0  0  0  0  0
   39.5000   22.5110   38.3350 N   0  0  0  0  0  0  0  0  0  0  0  0
   39.0610   21.5900   38.4940 H   0  0  0  0  0  0  0  0  0  0  0  0
   40.2870   22.4530   37.1400 C   0  0  0  0  0  2  0  0  0  0  0  0
   40.0230   23.5300   36.1420 C   0  0  0  0  0  2  0  0  0  0  0  0
   37.0800   27.2910   32.9040 C   0  0  0  0  0  0  0  0  0  0  0  0
   36.3030   27.9960   33.6030 O   0  0  0  0  0  0  0  0  0  0  0  0
   37.1360   28.6420   29.5380 C   0  0  0  0  0  0  0  0  0  0  0  0
   38.4840   28.6010   29.1890 C   0  0  0  0  0  0  0  0  0  0  0  0
   39.3900   28.1060   30.1160 C   0  0  0  0  0  0  0  0  0  0  0  0
   38.9070   27.6890   31.3100 N   0  0  0  0  0  0  0  0  0  0  0  0
   37.5980   27.7370   31.6260 C   0  0  0  0  0  0  0  0  0  0  0  0
   36.7100   28.2180   30.7310 N   0  0  0  0  0  0  0  0  0  0  0  0
   36.3830   29.0170   28.8570 H   0  0  0  0  0  0  0  0  0  0  0  0
   38.7530   28.9610   28.2080 H   0  0  0  0  0  0  0  0  0  0  0  0
   40.4360   28.0680   29.8600 H   0  0  0  0  0  0  0  0  0  0  0  0
  1  5  1  0  0  0  0
  2  1  2  0  0  0  0
  2  3  1  0  0  0  0
  3  4  2  0  0  0  0
  4  8  1  0  0  0  0
  5  4  1  0  0  0  0
  6  2  1  0  0  0  0
  7  3  1  0  0  0  0
  8 16  1  0  0  0  0
  8  9  1  0  0  0  0
  9 10  1  0  0  0  0
  9 11  1  0  0  0  0
 11 13  1  0  0  0  0
 12 11  1  0  0  0  0
 13 14  1  0  0  0  0
 15 13  1  0  0  0  0
 16 15  1  0  0  0  0
 17  1  1  0  0  0  0
 17 18  2  0  0  0  0
 19 24  1  0  0  0  0
 20 19  2  0  0  0  0
 20 21  1  0  0  0  0
 21 22  2  0  0  0  0
 22 23  1  0  0  0  0
 23 17  1  0  0  0  0
 24 23  2  0  0  0  0
 25 19  1  0  0  0  0
 26 20  1  0  0  0  0
 27 21  1  0  0  0  0
M  END
>  <minimizedAffinity>
-4.88284922

$$$$

 OpenBabel03272508463D

 27 29  0  0  0  0  0  0  0  0999 V2000
   38.0510   25.7710   33.1100 C   0  0  0  0  0  0  0  0  0  0  0  0
   37.6400   24.5660   32.5670 C   0  0  0  0  0  0  0  0  0  0  0  0
   37.8580   23.6610   33.5990 C   0  0  0  0  0  0  0  0  0  0  0  0
   38.3700   24.3320   34.6800 C   0  0  0  0  0  0  0  0  0  0  0  0
   38.4740   25.5870   34.3580 O   0  0  0  0  0  0  0  0  0  0  0  0
   37.2440   24.3680   31.5760 H   0  0  0  0  0  0  0  0  0  0  0  0
   37.6540   22.5990   33.5540 H   0  0  0  0  0  0  0  0  0  0  0  0
   38.7270   23.7630   35.9350 N   0  0  0  0  0  0  0  0  0  0  0  0
   37.7310   23.4740   36.9460 C   0  0  0  0  0  3  0  0  0  0  0  0
   36.9000   24.1930   36.8890 H   0  0  0  0  0  0  0  0  0  0  0  0
   38.4370   23.6550   38.2820 C   0  0  0  0  0  3  0  0  0  0  0  0
   38.9830   24.6170   38.2190 H   0  0  0  0  0  0  0  0  0  0  0  0
   39.3760   22.5760   38.4300 N   0  0  0  0  0  0  0  0  0  0  0  0
   38.9050   21.6720   38.6030 H   0  0  0  0  0  0  0  0  0  0  0  0
   40.2620   22.4350   37.3150 C   0  0  0  0  0  2  0  0  0  0  0  0
   40.1100   23.4540   36.2370 C   0  0  0  0  0  2  0  0  0  0  0  0
   38.0170   27.0540   32.4010 C   0  0  0  0  0  0  0  0  0  0  0  0
   38.9410   27.2910   31.5770 O   0  0  0  0  0  0  0  0  0  0  0  0
   35.4580   29.5510   31.7880 C   0  0  0  0  0  0  0  0  0  0  0  0
   34.9230   29.7910   33.0510 C   0  0  0  0  0  0  0  0  0  0  0  0
   35.4420   29.0900   34.1310 C   0  0  0  0  0  0  0  0  0  0  0  0
   36.4430   28.2110   33.8900 N   0  0  0  0  0  0  0  0  0  0  0  0
   36.9450   27.9950   32.6590 C   0  0  0  0  0  0  0  0  0  0  0  0
   36.4470   28.6720   31.6030 N   0  0  0  0  0  0  0  0  0  0  0  0
   35.0940   30.0670   30.9090 H   0  0  0  0  0  0  0  0  0  0  0  0
   34.1260   30.5150   33.1240 H   0  0  0  0  0  0  0  0  0  0  0  0
   35.0380   29.2660   35.1150 H   0  0  0  0  0  0  0  0  0  0  0  0
  1  5  1  0  0  0  0
  2  1  2  0  0  0  0
  2  3  1  0  0  0  0
  3  4  2  0  0  0  0
  4  8  1  0  0  0  0
  5  4  1  0  0  0  0
  6  2  1  0  0  0  0
  7  3  1  0  0  0  0
  8 16  1  0  0  0  0
  8  9  1  0  0  0  0
  9 11  1  0  0  0  0
 10  9  1  0  0  0  0
 11 13  1  0  0  0  0
 12 11  1  0  0  0  0
 13 14  1  0  0  0  0
 15 13  1  0  0  0  0
 16 15  1  0  0  0  0
 17 23  1  0  0  0  0
 17  1  1  0  0  0  0
 18 17  2  0  0  0  0
 19 20  1  0  0  0  0
 20 26  1  0  0  0  0
 20 21  2  0  0  0  0
 21 27  1  0  0  0  0
 22 21  1  0  0  0  0
 23 22  2  0  0  0  0
 24 19  2  0  0  0  0
 24 23  1  0  0  0  0
 25 19  1  0  0  0  0
M  END
>  <minimizedAffinity>
-4.86084223

$$$$
