
 OpenBabel03272509523D

 43 46  0  0  0  0  0  0  0  0999 V2000
   34.4280   28.6600   48.1550 C   0  0  0  0  0  0  0  0  0  0  0  0
   33.8660   29.6250   48.2290 H   0  0  0  0  0  0  0  0  0  0  0  0
   35.2590   28.7910   47.4270 H   0  0  0  0  0  0  0  0  0  0  0  0
   33.5480   27.5380   47.6930 C   0  0  0  0  0  0  0  0  0  0  0  0
   33.7080   26.5940   48.2580 H   0  0  0  0  0  0  0  0  0  0  0  0
   33.7360   27.2840   46.6150 H   0  0  0  0  0  0  0  0  0  0  0  0
   32.1070   27.8840   47.7650 C   0  0  0  0  0  0  0  0  0  0  0  0
   31.3900   27.4880   48.8810 C   0  0  0  0  0  0  0  0  0  0  0  0
   30.0630   27.7620   49.0350 C   0  0  0  0  0  0  0  0  0  0  0  0
   29.4250   28.4300   48.0890 N   0  0  0  0  0  0  0  0  0  0  0  0
   30.1220   28.8260   46.9850 C   0  0  0  0  0  0  0  0  0  0  0  0
   31.4370   28.5710   46.8040 N   0  0  0  0  0  0  0  0  0  0  0  0
   31.9100   26.9330   49.6720 H   0  0  0  0  0  0  0  0  0  0  0  0
   29.5370   27.4350   49.9220 H   0  0  0  0  0  0  0  0  0  0  0  0
   29.4740   29.5490   45.9410 N   0  0  0  0  0  0  0  0  0  0  0  0
   30.1490   30.5160   45.0960 C   0  0  0  0  0  3  0  0  0  0  0  0
   31.0930   30.1370   44.6850 H   0  0  0  0  0  0  0  0  0  0  0  0
   29.1700   30.8860   43.9930 C   0  0  0  0  0  3  0  0  0  0  0  0
   28.4230   31.6180   44.3180 H   0  0  0  0  0  0  0  0  0  0  0  0
   28.5820   29.7310   43.3820 N   0  0  0  0  0  0  0  0  0  0  0  0
   29.3470   29.2640   42.8260 H   0  0  0  0  0  0  0  0  0  0  0  0
   27.9290   28.8280   44.2770 C   0  0  0  0  0  2  0  0  0  0  0  0
   28.0630   29.3180   45.6970 C   0  0  0  0  0  2  0  0  0  0  0  0
   34.9860   28.3570   49.4340 O   0  0  0  0  0  0  0  0  0  0  0  0
   37.3140   30.1630   51.5160 C   0  0  0  0  0  0  0  0  0  0  0  0
   38.0540   30.8560   50.5160 C   0  0  0  0  0  0  0  0  0  0  0  0
   37.6890   30.6460   49.2000 C   0  0  0  0  0  0  0  0  0  0  0  0
   36.6430   29.7840   48.9630 N   0  0  0  0  0  0  0  0  0  0  0  0
   35.9770   29.1550   49.9220 C   0  0  0  0  0  0  0  0  0  0  0  0
   36.3130   29.3430   51.2130 N   0  0  0  0  0  0  0  0  0  0  0  0
   37.6520   30.3740   52.5200 H   0  0  0  0  0  0  0  0  0  0  0  0
   38.8660   31.5250   50.7110 H   0  0  0  0  0  0  0  0  0  0  0  0
   38.9440   33.2520   49.0200 F   0  0  0  0  0  0  0  0  0  0  0  0
   38.9110   32.4680   47.9440 C   0  0  0  0  0  0  0  0  0  0  0  0
   38.3200   31.2600   48.0540 C   0  0  0  0  0  0  0  0  0  0  0  0
   38.3410   30.5190   46.8670 C   0  0  0  0  0  0  0  0  0  0  0  0
   38.9090   30.9870   45.7070 C   0  0  0  0  0  0  0  0  0  0  0  0
   39.4980   32.2310   45.6570 C   0  0  0  0  0  0  0  0  0  0  0  0
   39.4920   32.9760   46.8060 C   0  0  0  0  0  0  0  0  0  0  0  0
   37.9100   29.5300   46.7860 H   0  0  0  0  0  0  0  0  0  0  0  0
   38.9220   30.4080   44.7880 H   0  0  0  0  0  0  0  0  0  0  0  0
   39.9400   32.5840   44.7400 H   0  0  0  0  0  0  0  0  0  0  0  0
   39.9440   33.9420   46.7800 H   0  0  0  0  0  0  0  0  0  0  0  0
  1  2  1  0  0  0  0
  1 24  1  0  0  0  0
  3  1  1  0  0  0  0
  4  7  1  0  0  0  0
  4  1  1  0  0  0  0
  4  5  1  0  0  0  0
  6  4  1  0  0  0  0
  7  8  1  0  0  0  0
  8  9  2  0  0  0  0
  8 13  1  0  0  0  0
  9 14  1  0  0  0  0
 10  9  1  0  0  0  0
 11 10  2  0  0  0  0
 12 11  1  0  0  0  0
 12  7  2  0  0  0  0
 15 11  1  0  0  0  0
 16 15  1  0  0  0  0
 17 16  1  0  0  0  0
 18 19  1  0  0  0  0
 18 16  1  0  0  0  0
 20 18  1  0  0  0  0
 20 22  1  0  0  0  0
 21 20  1  0  0  0  0
 22 23  1  0  0  0  0
 23 15  1  0  0  0  0
 24 29  1  0  0  0  0
 25 31  1  0  0  0  0
 26 32  1  0  0  0  0
 26 25  2  0  0  0  0
 27 26  1  0  0  0  0
 28 27  2  0  0  0  0
 28 29  1  0  0  0  0
 29 30  2  0  0  0  0
 30 25  1  0  0  0  0
 34 35  1  0  0  0  0
 34 33  1  0  0  0  0
 35 27  1  0  0  0  0
 36 35  2  0  0  0  0
 37 36  1  0  0  0  0
 38 37  2  0  0  0  0
 38 39  1  0  0  0  0
 39 34  2  0  0  0  0
 40 36  1  0  0  0  0
 41 37  1  0  0  0  0
 42 38  1  0  0  0  0
 43 39  1  0  0  0  0
M  END
>  <minimizedAffinity>
-6.82988882

>  <minimizedRMSD>
0.162678763

$$$$
