
 OpenBabel03272509523D

 43 46  0  0  0  0  0  0  0  0999 V2000
   34.4860   28.6250   48.2230 C   0  0  0  0  0  0  0  0  0  0  0  0
   33.8900   29.5710   48.2690 H   0  0  0  0  0  0  0  0  0  0  0  0
   35.3280   28.7740   47.5110 H   0  0  0  0  0  0  0  0  0  0  0  0
   33.6550   27.4670   47.7610 C   0  0  0  0  0  0  0  0  0  0  0  0
   33.7410   26.5750   48.4180 H   0  0  0  0  0  0  0  0  0  0  0  0
   33.9620   27.1230   46.7370 H   0  0  0  0  0  0  0  0  0  0  0  0
   32.2180   27.8160   47.6380 C   0  0  0  0  0  0  0  0  0  0  0  0
   31.3880   27.5780   48.7210 C   0  0  0  0  0  0  0  0  0  0  0  0
   30.0550   27.8670   48.7000 C   0  0  0  0  0  0  0  0  0  0  0  0
   29.5230   28.3950   47.6120 N   0  0  0  0  0  0  0  0  0  0  0  0
   30.3310   28.6350   46.5390 C   0  0  0  0  0  0  0  0  0  0  0  0
   31.6550   28.3600   46.5290 N   0  0  0  0  0  0  0  0  0  0  0  0
   31.8200   27.1390   49.6300 H   0  0  0  0  0  0  0  0  0  0  0  0
   29.4400   27.6650   49.5670 H   0  0  0  0  0  0  0  0  0  0  0  0
   29.8000   29.2030   45.3450 N   0  0  0  0  0  0  0  0  0  0  0  0
   29.7340   30.6310   45.0970 C   0  0  0  0  0  3  0  0  0  0  0  0
   30.6830   31.1430   45.3010 H   0  0  0  0  0  0  0  0  0  0  0  0
   29.3090   30.8010   43.6470 C   0  0  0  0  0  3  0  0  0  0  0  0
   28.2320   30.6760   43.5040 H   0  0  0  0  0  0  0  0  0  0  0  0
   30.0820   29.9820   42.7590 N   0  0  0  0  0  0  0  0  0  0  0  0
   31.0510   30.3980   42.7360 H   0  0  0  0  0  0  0  0  0  0  0  0
   30.0930   28.5870   43.0630 C   0  0  0  0  0  2  0  0  0  0  0  0
   29.2910   28.3210   44.3120 C   0  0  0  0  0  2  0  0  0  0  0  0
   35.0260   28.3610   49.5180 O   0  0  0  0  0  0  0  0  0  0  0  0
   37.3700   30.1890   51.5630 C   0  0  0  0  0  0  0  0  0  0  0  0
   38.0940   30.8810   50.5500 C   0  0  0  0  0  0  0  0  0  0  0  0
   37.7150   30.6620   49.2400 C   0  0  0  0  0  0  0  0  0  0  0  0
   36.6700   29.7940   49.0200 N   0  0  0  0  0  0  0  0  0  0  0  0
   36.0190   29.1670   49.9900 C   0  0  0  0  0  0  0  0  0  0  0  0
   36.3690   29.3630   51.2760 N   0  0  0  0  0  0  0  0  0  0  0  0
   37.7190   30.4060   52.5620 H   0  0  0  0  0  0  0  0  0  0  0  0
   38.9050   31.5540   50.7330 H   0  0  0  0  0  0  0  0  0  0  0  0
   38.9550   33.2730   49.0330 F   0  0  0  0  0  0  0  0  0  0  0  0
   38.9120   32.4850   47.9610 C   0  0  0  0  0  0  0  0  0  0  0  0
   38.3290   31.2740   48.0840 C   0  0  0  0  0  0  0  0  0  0  0  0
   38.3390   30.5270   46.9000 C   0  0  0  0  0  0  0  0  0  0  0  0
   38.8910   30.9930   45.7310 C   0  0  0  0  0  0  0  0  0  0  0  0
   39.4720   32.2390   45.6680 C   0  0  0  0  0  0  0  0  0  0  0  0
   39.4770   32.9900   46.8140 C   0  0  0  0  0  0  0  0  0  0  0  0
   37.9120   29.5360   46.8300 H   0  0  0  0  0  0  0  0  0  0  0  0
   38.8960   30.4090   44.8150 H   0  0  0  0  0  0  0  0  0  0  0  0
   39.9020   32.5910   44.7440 H   0  0  0  0  0  0  0  0  0  0  0  0
   39.9240   33.9580   46.7780 H   0  0  0  0  0  0  0  0  0  0  0  0
  1  2  1  0  0  0  0
  1 24  1  0  0  0  0
  3  1  1  0  0  0  0
  4  1  1  0  0  0  0
  4  5  1  0  0  0  0
  6  4  1  0  0  0  0
  7  4  1  0  0  0  0
  7  8  1  0  0  0  0
  8 13  1  0  0  0  0
  9  8  2  0  0  0  0
  9 14  1  0  0  0  0
 10  9  1  0  0  0  0
 11 10  2  0  0  0  0
 12 11  1  0  0  0  0
 12  7  2  0  0  0  0
 15 11  1  0  0  0  0
 16 17  1  0  0  0  0
 16 15  1  0  0  0  0
 18 16  1  0  0  0  0
 19 18  1  0  0  0  0
 20 22  1  0  0  0  0
 20 18  1  0  0  0  0
 21 20  1  0  0  0  0
 22 23  1  0  0  0  0
 23 15  1  0  0  0  0
 24 29  1  0  0  0  0
 25 31  1  0  0  0  0
 26 32  1  0  0  0  0
 26 25  2  0  0  0  0
 27 26  1  0  0  0  0
 28 27  2  0  0  0  0
 28 29  1  0  0  0  0
 29 30  2  0  0  0  0
 30 25  1  0  0  0  0
 34 35  1  0  0  0  0
 34 33  1  0  0  0  0
 35 27  1  0  0  0  0
 36 35  2  0  0  0  0
 37 36  1  0  0  0  0
 38 37  2  0  0  0  0
 38 39  1  0  0  0  0
 39 34  2  0  0  0  0
 40 36  1  0  0  0  0
 41 37  1  0  0  0  0
 42 38  1  0  0  0  0
 43 39  1  0  0  0  0
M  END
>  <minimizedAffinity>
-6.56552029

>  <minimizedRMSD>
0.40137288

$$$$
