
 OpenBabel03262522583D

 25 27  0  0  1  0  0  0  0  0999 V2000
   37.6470   26.8650   34.4120 C   0  0  0  0  0  0  0  0  0  0  0  0
   38.1220   27.4590   35.5550 C   0  0  0  0  0  0  0  0  0  0  0  0
   38.2920   26.5290   36.5240 C   0  0  0  0  0  0  0  0  0  0  0  0
   37.9200   25.3470   35.9700 N   0  0  0  0  0  0  0  0  0  0  0  0
   37.5400   25.5780   34.7140 N   0  0  0  0  0  0  0  0  0  0  0  0
   38.3180   28.5370   35.6260 H   0  0  0  0  0  0  0  0  0  0  0  0
   38.6460   26.6420   37.5330 H   0  0  0  0  0  0  0  0  0  0  0  0
   37.9150   28.1310   30.9810 C   0  0  0  0  0  0  0  0  0  0  0  0
   36.6780   28.8080   30.8170 C   0  0  0  0  0  0  0  0  0  0  0  0
   35.7830   28.8140   31.8850 C   0  0  0  0  0  0  0  0  0  0  0  0
   36.1490   28.1710   33.0190 N   0  0  0  0  0  0  0  0  0  0  0  0
   37.3350   27.5330   33.1480 C   0  0  0  0  0  0  0  0  0  0  0  0
   38.2160   27.5100   32.1400 N   0  0  0  0  0  0  0  0  0  0  0  0
   38.5680   28.1600   30.1200 H   0  0  0  0  0  0  0  0  0  0  0  0
   36.3670   29.3190   29.9400 H   0  0  0  0  0  0  0  0  0  0  0  0
   34.8280   29.3020   31.8420 H   0  0  0  0  0  0  0  0  0  0  0  0
   38.7190   23.2590   34.8120 H   0  0  0  0  0  0  0  0  0  0  0  0
   38.7670   23.1280   35.8400 N   0  0  0  0  0  0  0  0  0  0  0  0
   37.9070   24.0370   36.5670 C   0  0  1  0  0  3  0  0  0  0  0  0
   38.4110   24.0560   37.9940 C   0  0  0  0  0  3  0  0  0  0  0  0
   37.5590   24.1980   38.6980 H   0  0  0  0  0  0  0  0  0  0  0  0
   38.9950   22.7660   38.3620 N   0  0  0  0  0  0  0  0  0  0  0  0
   38.2690   22.0340   38.1400 H   0  0  0  0  0  0  0  0  0  0  0  0
   40.2200   22.5280   37.6340 C   0  0  0  0  0  2  0  0  0  0  0  0
   40.1230   23.3250   36.3480 C   0  0  0  0  0  2  0  0  0  0  0  0
  1  5  2  0  0  0  0
  1  2  1  0  0  0  0
  2  6  1  0  0  0  0
  2  3  2  0  0  0  0
  3  7  1  0  0  0  0
  4  3  1  0  0  0  0
  5  4  1  0  0  0  0
  8 13  1  0  0  0  0
  9  8  2  0  0  0  0
  9 10  1  0  0  0  0
 10 11  2  0  0  0  0
 11 12  1  0  0  0  0
 12  1  1  0  0  0  0
 13 12  2  0  0  0  0
 14  8  1  0  0  0  0
 15  9  1  0  0  0  0
 16 10  1  0  0  0  0
 17 18  1  0  0  0  0
 18 25  1  0  0  0  0
 18 19  1  0  0  0  0
 19  4  1  6  0  0  0
 19 20  1  0  0  0  0
 20 22  1  0  0  0  0
 20 21  1  0  0  0  0
 23 22  1  0  0  0  0
 24 22  1  0  0  0  0
 25 24  1  0  0  0  0
M  END
>  <minimizedAffinity>
-5.06893492

$$$$

 OpenBabel03262522583D

 25 27  0  0  1  0  0  0  0  0999 V2000
   38.0510   24.5020   34.7260 C   0  0  0  0  0  0  0  0  0  0  0  0
   38.1970   23.7840   33.5640 C   0  0  0  0  0  0  0  0  0  0  0  0
   37.7340   24.5040   32.5150 C   0  0  0  0  0  0  0  0  0  0  0  0
   37.2980   25.6790   33.0370 N   0  0  0  0  0  0  0  0  0  0  0  0
   37.4980   25.6480   34.3530 N   0  0  0  0  0  0  0  0  0  0  0  0
   38.6310   22.7770   33.5400 H   0  0  0  0  0  0  0  0  0  0  0  0
   37.6950   24.2520   31.4700 H   0  0  0  0  0  0  0  0  0  0  0  0
   39.8110   22.8510   37.4870 C   0  0  0  0  0  0  0  0  0  0  0  0
   39.0780   23.3000   38.6170 C   0  0  0  0  0  0  0  0  0  0  0  0
   37.9990   24.1560   38.4060 C   0  0  0  0  0  0  0  0  0  0  0  0
   37.7140   24.5100   37.1300 N   0  0  0  0  0  0  0  0  0  0  0  0
   38.4310   24.0670   36.0710 C   0  0  0  0  0  0  0  0  0  0  0  0
   39.4730   23.2440   36.2410 N   0  0  0  0  0  0  0  0  0  0  0  0
   40.6360   22.1900   37.7120 H   0  0  0  0  0  0  0  0  0  0  0  0
   39.2790   23.0380   39.6260 H   0  0  0  0  0  0  0  0  0  0  0  0
   37.3940   24.5390   39.2050 H   0  0  0  0  0  0  0  0  0  0  0  0
   38.1880   28.0310   33.1700 H   0  0  0  0  0  0  0  0  0  0  0  0
   37.6380   27.9150   32.2980 N   0  0  0  0  0  0  0  0  0  0  0  0
   36.7120   26.8040   32.3570 C   0  0  1  0  0  3  0  0  0  0  0  0
   36.3420   26.4770   30.9260 C   0  0  0  0  0  3  0  0  0  0  0  0
   35.2900   26.1160   30.8760 H   0  0  0  0  0  0  0  0  0  0  0  0
   36.3720   27.6750   30.0880 N   0  0  0  0  0  0  0  0  0  0  0  0
   35.7630   28.3910   30.5680 H   0  0  0  0  0  0  0  0  0  0  0  0
   37.7240   28.1600   29.9270 C   0  0  0  0  0  2  0  0  0  0  0  0
   38.5020   27.6890   31.1400 C   0  0  0  0  0  2  0  0  0  0  0  0
  1 12  1  0  0  0  0
  2  1  1  0  0  0  0
  3  4  1  0  0  0  0
  3  2  2  0  0  0  0
  4  5  1  0  0  0  0
  5  1  2  0  0  0  0
  6  2  1  0  0  0  0
  7  3  1  0  0  0  0
  8 14  1  0  0  0  0
  8  9  1  0  0  0  0
  9 15  1  0  0  0  0
 10  9  2  0  0  0  0
 10 16  1  0  0  0  0
 11 10  1  0  0  0  0
 12 13  1  0  0  0  0
 12 11  2  0  0  0  0
 13  8  2  0  0  0  0
 18 19  1  0  0  0  0
 18 17  1  0  0  0  0
 19  4  1  6  0  0  0
 20 19  1  0  0  0  0
 21 20  1  0  0  0  0
 22 23  1  0  0  0  0
 22 20  1  0  0  0  0
 24 22  1  0  0  0  0
 24 25  1  0  0  0  0
 25 18  1  0  0  0  0
M  END
>  <minimizedAffinity>
-4.79737186

$$$$

 OpenBabel03262522583D

 25 27  0  0  1  0  0  0  0  0999 V2000
   38.9550   24.0570   34.4840 C   0  0  0  0  0  0  0  0  0  0  0  0
   39.8560   23.5680   33.5700 C   0  0  0  0  0  0  0  0  0  0  0  0
   39.5480   24.0190   32.3310 C   0  0  0  0  0  0  0  0  0  0  0  0
   38.4460   24.7950   32.4830 N   0  0  0  0  0  0  0  0  0  0  0  0
   38.1150   24.7990   33.7740 N   0  0  0  0  0  0  0  0  0  0  0  0
   40.6880   22.9090   33.8510 H   0  0  0  0  0  0  0  0  0  0  0  0
   40.0370   23.8350   31.3900 H   0  0  0  0  0  0  0  0  0  0  0  0
   39.8800   22.8020   37.8030 C   0  0  0  0  0  0  0  0  0  0  0  0
   38.8650   23.3590   38.6240 C   0  0  0  0  0  0  0  0  0  0  0  0
   37.8890   24.1500   38.0220 C   0  0  0  0  0  0  0  0  0  0  0  0
   37.9680   24.3410   36.6840 N   0  0  0  0  0  0  0  0  0  0  0  0
   38.9480   23.7980   35.9240 C   0  0  0  0  0  0  0  0  0  0  0  0
   39.9000   23.0340   36.4740 N   0  0  0  0  0  0  0  0  0  0  0  0
   40.6090   22.1990   38.3250 H   0  0  0  0  0  0  0  0  0  0  0  0
   38.7790   23.2260   39.6740 H   0  0  0  0  0  0  0  0  0  0  0  0
   37.0880   24.6070   38.5710 H   0  0  0  0  0  0  0  0  0  0  0  0
   37.7200   23.8120   30.2820 H   0  0  0  0  0  0  0  0  0  0  0  0
   37.1040   24.6110   30.5270 N   0  0  0  0  0  0  0  0  0  0  0  0
   37.7070   25.5170   31.4810 C   0  0  1  0  0  3  0  0  0  0  0  0
   36.5760   26.3270   32.0780 C   0  0  0  0  0  3  0  0  0  0  0  0
   36.9280   27.3560   32.3160 H   0  0  0  0  0  0  0  0  0  0  0  0
   35.4940   26.5090   31.1120 N   0  0  0  0  0  0  0  0  0  0  0  0
   35.9340   26.9090   30.2410 H   0  0  0  0  0  0  0  0  0  0  0  0
   34.8290   25.2560   30.8370 C   0  0  0  0  0  2  0  0  0  0  0  0
   35.8400   24.1600   31.1070 C   0  0  0  0  0  2  0  0  0  0  0  0
  1 12  1  0  0  0  0
  2  6  1  0  0  0  0
  2  1  1  0  0  0  0
  3  4  1  0  0  0  0
  3  2  2  0  0  0  0
  4  5  1  0  0  0  0
  5  1  2  0  0  0  0
  7  3  1  0  0  0  0
  8 14  1  0  0  0  0
  8  9  1  0  0  0  0
  9 15  1  0  0  0  0
 10 16  1  0  0  0  0
 10  9  2  0  0  0  0
 11 10  1  0  0  0  0
 12 13  1  0  0  0  0
 12 11  2  0  0  0  0
 13  8  2  0  0  0  0
 17 18  1  0  0  0  0
 18 25  1  0  0  0  0
 18 19  1  0  0  0  0
 19 20  1  0  0  0  0
 19  4  1  1  0  0  0
 20 21  1  0  0  0  0
 22 20  1  0  0  0  0
 23 22  1  0  0  0  0
 24 25  1  0  0  0  0
 24 22  1  0  0  0  0
M  END
>  <minimizedAffinity>
-4.7650466

$$$$

 OpenBabel03262522583D

 25 27  0  0  1  0  0  0  0  0999 V2000
   38.0700   25.9410   35.3780 C   0  0  0  0  0  0  0  0  0  0  0  0
   38.0480   27.2450   35.8060 C   0  0  0  0  0  0  0  0  0  0  0  0
   37.3540   28.0080   34.9280 C   0  0  0  0  0  0  0  0  0  0  0  0
   36.9430   27.1640   33.9490 N   0  0  0  0  0  0  0  0  0  0  0  0
   37.3840   25.9410   34.2420 N   0  0  0  0  0  0  0  0  0  0  0  0
   38.5380   27.5740   36.7320 H   0  0  0  0  0  0  0  0  0  0  0  0
   37.1400   29.0630   34.9510 H   0  0  0  0  0  0  0  0  0  0  0  0
   38.8250   23.2960   37.8030 C   0  0  0  0  0  0  0  0  0  0  0  0
   39.9920   22.7080   37.2460 C   0  0  0  0  0  0  0  0  0  0  0  0
   40.4900   23.2310   36.0550 C   0  0  0  0  0  0  0  0  0  0  0  0
   39.8300   24.2730   35.4980 N   0  0  0  0  0  0  0  0  0  0  0  0
   38.7190   24.8150   36.0500 C   0  0  0  0  0  0  0  0  0  0  0  0
   38.2150   24.3340   37.1930 N   0  0  0  0  0  0  0  0  0  0  0  0
   38.4860   22.8490   38.7260 H   0  0  0  0  0  0  0  0  0  0  0  0
   40.5280   21.8920   37.6620 H   0  0  0  0  0  0  0  0  0  0  0  0
   41.3660   22.8440   35.5700 H   0  0  0  0  0  0  0  0  0  0  0  0
   36.7720   29.4490   32.9060 H   0  0  0  0  0  0  0  0  0  0  0  0
   36.5650   28.7240   32.1930 N   0  0  0  0  0  0  0  0  0  0  0  0
   36.1680   27.4580   32.7720 C   0  0  1  0  0  3  0  0  0  0  0  0
   36.3530   26.4150   31.6910 C   0  0  0  0  0  3  0  0  0  0  0  0
   35.5810   25.6190   31.7930 H   0  0  0  0  0  0  0  0  0  0  0  0
   36.1350   26.9890   30.3640 N   0  0  0  0  0  0  0  0  0  0  0  0
   35.1900   27.4580   30.3930 H   0  0  0  0  0  0  0  0  0  0  0  0
   37.1790   27.9300   30.0300 C   0  0  0  0  0  2  0  0  0  0  0  0
   37.7230   28.4590   31.3420 C   0  0  0  0  0  2  0  0  0  0  0  0
  1  2  1  0  0  0  0
  1 12  1  0  0  0  0
  2  6  1  0  0  0  0
  3  7  1  0  0  0  0
  3  2  2  0  0  0  0
  4  5  1  0  0  0  0
  4  3  1  0  0  0  0
  5  1  2  0  0  0  0
  8 14  1  0  0  0  0
  9 15  1  0  0  0  0
  9  8  1  0  0  0  0
 10  9  2  0  0  0  0
 11 12  2  0  0  0  0
 11 10  1  0  0  0  0
 12 13  1  0  0  0  0
 13  8  2  0  0  0  0
 16 10  1  0  0  0  0
 18 19  1  0  0  0  0
 18 17  1  0  0  0  0
 19  4  1  1  0  0  0
 20 21  1  0  0  0  0
 20 19  1  0  0  0  0
 22 23  1  0  0  0  0
 22 20  1  0  0  0  0
 24 22  1  0  0  0  0
 24 25  1  0  0  0  0
 25 18  1  0  0  0  0
M  END
>  <minimizedAffinity>
-4.63460207

$$$$

 OpenBabel03262522583D

 25 27  0  0  1  0  0  0  0  0999 V2000
   37.9950   23.0080   34.3790 C   0  0  0  0  0  0  0  0  0  0  0  0
   37.3660   21.9570   33.7600 C   0  0  0  0  0  0  0  0  0  0  0  0
   37.1180   22.2660   32.4640 C   0  0  0  0  0  0  0  0  0  0  0  0
   37.6000   23.5210   32.2850 N   0  0  0  0  0  0  0  0  0  0  0  0
   38.1150   23.9380   33.4410 N   0  0  0  0  0  0  0  0  0  0  0  0
   37.1200   21.0220   34.2800 H   0  0  0  0  0  0  0  0  0  0  0  0
   36.6440   21.6810   31.6950 H   0  0  0  0  0  0  0  0  0  0  0  0
   40.0310   22.6850   37.4130 C   0  0  0  0  0  0  0  0  0  0  0  0
   39.1590   23.1970   38.4100 C   0  0  0  0  0  0  0  0  0  0  0  0
   37.8970   23.6400   38.0200 C   0  0  0  0  0  0  0  0  0  0  0  0
   37.5760   23.5550   36.7070 N   0  0  0  0  0  0  0  0  0  0  0  0
   38.4270   23.0630   35.7770 C   0  0  0  0  0  0  0  0  0  0  0  0
   39.6460   22.6300   36.1200 N   0  0  0  0  0  0  0  0  0  0  0  0
   40.9940   22.3580   37.7740 H   0  0  0  0  0  0  0  0  0  0  0  0
   39.3850   23.2740   39.4450 H   0  0  0  0  0  0  0  0  0  0  0  0
   37.1800   24.0390   38.7110 H   0  0  0  0  0  0  0  0  0  0  0  0
   35.5780   23.8660   30.8250 H   0  0  0  0  0  0  0  0  0  0  0  0
   36.2410   24.6550   30.6950 N   0  0  0  0  0  0  0  0  0  0  0  0
   37.5930   24.3270   31.0920 C   0  0  1  0  0  3  0  0  0  0  0  0
   38.3130   25.6440   31.2890 C   0  0  0  0  0  3  0  0  0  0  0  0
   39.3860   25.5380   31.0070 H   0  0  0  0  0  0  0  0  0  0  0  0
   37.7840   26.6710   30.3930 N   0  0  0  0  0  0  0  0  0  0  0  0
   37.8230   26.2670   29.4190 H   0  0  0  0  0  0  0  0  0  0  0  0
   36.4330   27.0300   30.7590 C   0  0  0  0  0  2  0  0  0  0  0  0
   35.8410   25.8290   31.4680 C   0  0  0  0  0  2  0  0  0  0  0  0
  1 12  1  0  0  0  0
  2  6  1  0  0  0  0
  2  1  1  0  0  0  0
  3  2  2  0  0  0  0
  4  3  1  0  0  0  0
  4  5  1  0  0  0  0
  5  1  2  0  0  0  0
  7  3  1  0  0  0  0
  8 14  1  0  0  0  0
  8  9  1  0  0  0  0
  9 15  1  0  0  0  0
 10  9  2  0  0  0  0
 10 16  1  0  0  0  0
 11 10  1  0  0  0  0
 12 13  1  0  0  0  0
 12 11  2  0  0  0  0
 13  8  2  0  0  0  0
 18 17  1  0  0  0  0
 18 19  1  0  0  0  0
 18 25  1  0  0  0  0
 19 20  1  0  0  0  0
 19  4  1  1  0  0  0
 21 20  1  0  0  0  0
 22 24  1  0  0  0  0
 22 20  1  0  0  0  0
 23 22  1  0  0  0  0
 24 25  1  0  0  0  0
M  END
>  <minimizedAffinity>
-4.60443926

$$$$

 OpenBabel03262522583D

 25 27  0  0  1  0  0  0  0  0999 V2000
   36.1930   23.7850   31.6910 C   0  0  0  0  0  0  0  0  0  0  0  0
   35.3600   24.7290   31.1430 C   0  0  0  0  0  0  0  0  0  0  0  0
   35.8190   25.9710   31.4280 C   0  0  0  0  0  0  0  0  0  0  0  0
   36.9480   25.7900   32.1580 N   0  0  0  0  0  0  0  0  0  0  0  0
   37.1450   24.4800   32.3000 N   0  0  0  0  0  0  0  0  0  0  0  0
   34.4630   24.4670   30.5670 H   0  0  0  0  0  0  0  0  0  0  0  0
   35.4170   26.9320   31.1580 H   0  0  0  0  0  0  0  0  0  0  0  0
   36.7430   20.2670   30.8120 C   0  0  0  0  0  0  0  0  0  0  0  0
   35.6790   19.6220   31.4960 C   0  0  0  0  0  0  0  0  0  0  0  0
   34.8010   20.4060   32.2410 C   0  0  0  0  0  0  0  0  0  0  0  0
   35.0150   21.7420   32.2670 N   0  0  0  0  0  0  0  0  0  0  0  0
   36.0380   22.3330   31.6060 C   0  0  0  0  0  0  0  0  0  0  0  0
   36.8990   21.6060   30.8820 N   0  0  0  0  0  0  0  0  0  0  0  0
   37.3910   19.6090   30.2520 H   0  0  0  0  0  0  0  0  0  0  0  0
   35.4880   18.5770   31.4920 H   0  0  0  0  0  0  0  0  0  0  0  0
   33.9720   19.9960   32.7850 H   0  0  0  0  0  0  0  0  0  0  0  0
   36.1650   27.9290   33.2310 H   0  0  0  0  0  0  0  0  0  0  0  0
   37.1070   27.6830   33.5910 N   0  0  0  0  0  0  0  0  0  0  0  0
   37.8280   26.7820   32.7170 C   0  0  1  0  0  3  0  0  0  0  0  0
   38.9280   26.1630   33.5530 C   0  0  0  0  0  3  0  0  0  0  0  0
   39.8250   25.9700   32.9200 H   0  0  0  0  0  0  0  0  0  0  0  0
   39.3860   27.0890   34.5880 N   0  0  0  0  0  0  0  0  0  0  0  0
   39.6330   27.9890   34.0960 H   0  0  0  0  0  0  0  0  0  0  0  0
   38.3600   27.2990   35.5840 C   0  0  0  0  0  2  0  0  0  0  0  0
   37.0320   27.0380   34.9010 C   0  0  0  0  0  2  0  0  0  0  0  0
  1  5  2  0  0  0  0
  2  3  2  0  0  0  0
  2  1  1  0  0  0  0
  3  4  1  0  0  0  0
  4  5  1  0  0  0  0
  6  2  1  0  0  0  0
  7  3  1  0  0  0  0
  8 13  2  0  0  0  0
  8  9  1  0  0  0  0
  9 10  2  0  0  0  0
 10 11  1  0  0  0  0
 10 16  1  0  0  0  0
 12  1  1  0  0  0  0
 12 11  2  0  0  0  0
 13 12  1  0  0  0  0
 14  8  1  0  0  0  0
 15  9  1  0  0  0  0
 17 18  1  0  0  0  0
 18 25  1  0  0  0  0
 19  4  1  1  0  0  0
 19 20  1  0  0  0  0
 19 18  1  0  0  0  0
 20 22  1  0  0  0  0
 21 20  1  0  0  0  0
 22 24  1  0  0  0  0
 23 22  1  0  0  0  0
 25 24  1  0  0  0  0
M  END
>  <minimizedAffinity>
-4.59014082

$$$$

 OpenBabel03262522583D

 25 27  0  0  1  0  0  0  0  0999 V2000
   36.0590   28.6840   33.8410 C   0  0  0  0  0  0  0  0  0  0  0  0
   36.9860   27.8070   34.3480 C   0  0  0  0  0  0  0  0  0  0  0  0
   37.5090   27.0590   33.3470 C   0  0  0  0  0  0  0  0  0  0  0  0
   36.8980   27.4820   32.2120 N   0  0  0  0  0  0  0  0  0  0  0  0
   36.0410   28.4480   32.5360 N   0  0  0  0  0  0  0  0  0  0  0  0
   37.2320   27.7550   35.4160 H   0  0  0  0  0  0  0  0  0  0  0  0
   38.2530   26.2830   33.3840 H   0  0  0  0  0  0  0  0  0  0  0  0
   33.2280   30.5140   35.2860 C   0  0  0  0  0  0  0  0  0  0  0  0
   33.8820   31.5140   36.0530 C   0  0  0  0  0  0  0  0  0  0  0  0
   35.2750   31.5370   36.0570 C   0  0  0  0  0  0  0  0  0  0  0  0
   35.9240   30.6010   35.3250 N   0  0  0  0  0  0  0  0  0  0  0  0
   35.2760   29.6580   34.6030 C   0  0  0  0  0  0  0  0  0  0  0  0
   33.9380   29.6090   34.5800 N   0  0  0  0  0  0  0  0  0  0  0  0
   32.1490   30.5460   35.3220 H   0  0  0  0  0  0  0  0  0  0  0  0
   33.3980   32.2590   36.6340 H   0  0  0  0  0  0  0  0  0  0  0  0
   35.8440   32.2600   36.6090 H   0  0  0  0  0  0  0  0  0  0  0  0
   35.4580   28.1770   30.2670 H   0  0  0  0  0  0  0  0  0  0  0  0
   36.3860   27.8670   29.9200 N   0  0  0  0  0  0  0  0  0  0  0  0
   37.0870   27.0200   30.8620 C   0  0  1  0  0  3  0  0  0  0  0  0
   38.5440   27.0360   30.4510 C   0  0  0  0  0  3  0  0  0  0  0  0
   39.0140   26.0500   30.6730 H   0  0  0  0  0  0  0  0  0  0  0  0
   38.6800   27.2050   29.0050 N   0  0  0  0  0  0  0  0  0  0  0  0
   38.0860   26.4560   28.5590 H   0  0  0  0  0  0  0  0  0  0  0  0
   38.2570   28.5250   28.5960 C   0  0  0  0  0  2  0  0  0  0  0  0
   37.2610   29.0020   29.6340 C   0  0  0  0  0  2  0  0  0  0  0  0
  1  2  1  0  0  0  0
  1 12  1  0  0  0  0
  2  6  1  0  0  0  0
  3  7  1  0  0  0  0
  3  2  2  0  0  0  0
  4  5  1  0  0  0  0
  4  3  1  0  0  0  0
  5  1  2  0  0  0  0
  8 14  1  0  0  0  0
  8  9  1  0  0  0  0
  9 10  2  0  0  0  0
  9 15  1  0  0  0  0
 10 16  1  0  0  0  0
 11 10  1  0  0  0  0
 12 11  2  0  0  0  0
 13 12  1  0  0  0  0
 13  8  2  0  0  0  0
 18 17  1  0  0  0  0
 18 19  1  0  0  0  0
 19  4  1  1  0  0  0
 20 21  1  0  0  0  0
 20 19  1  0  0  0  0
 22 20  1  0  0  0  0
 23 22  1  0  0  0  0
 24 22  1  0  0  0  0
 24 25  1  0  0  0  0
 25 18  1  0  0  0  0
M  END
>  <minimizedAffinity>
-4.57710075

$$$$

 OpenBabel03262522583D

 25 27  0  0  1  0  0  0  0  0999 V2000
   37.5930   25.9130   33.8990 C   0  0  0  0  0  0  0  0  0  0  0  0
   38.3840   25.1820   33.0470 C   0  0  0  0  0  0  0  0  0  0  0  0
   38.7600   24.0250   33.6430 C   0  0  0  0  0  0  0  0  0  0  0  0
   38.1930   24.0440   34.8750 N   0  0  0  0  0  0  0  0  0  0  0  0
   37.5060   25.1780   35.0000 N   0  0  0  0  0  0  0  0  0  0  0  0
   38.6470   25.5270   32.0390 H   0  0  0  0  0  0  0  0  0  0  0  0
   39.3730   23.2250   33.2670 H   0  0  0  0  0  0  0  0  0  0  0  0
   35.9020   29.1350   34.3510 C   0  0  0  0  0  0  0  0  0  0  0  0
   35.8860   29.6500   33.0280 C   0  0  0  0  0  0  0  0  0  0  0  0
   36.4540   28.8810   32.0140 C   0  0  0  0  0  0  0  0  0  0  0  0
   36.9900   27.6850   32.3540 N   0  0  0  0  0  0  0  0  0  0  0  0
   36.9920   27.2180   33.6240 C   0  0  0  0  0  0  0  0  0  0  0  0
   36.4540   27.9330   34.6200 N   0  0  0  0  0  0  0  0  0  0  0  0
   35.4480   29.7750   35.0940 H   0  0  0  0  0  0  0  0  0  0  0  0
   35.4730   30.5830   32.7350 H   0  0  0  0  0  0  0  0  0  0  0  0
   36.4820   29.1970   30.9890 H   0  0  0  0  0  0  0  0  0  0  0  0
   39.4820   21.8890   34.6830 H   0  0  0  0  0  0  0  0  0  0  0  0
   39.3710   22.1410   35.6840 N   0  0  0  0  0  0  0  0  0  0  0  0
   38.2730   23.0550   35.9180 C   0  0  1  0  0  3  0  0  0  0  0  0
   38.5150   23.6770   37.2770 C   0  0  0  0  0  3  0  0  0  0  0  0
   37.5430   23.8820   37.7810 H   0  0  0  0  0  0  0  0  0  0  0  0
   39.2130   22.7470   38.1630 N   0  0  0  0  0  0  0  0  0  0  0  0
   38.6530   21.8530   38.1610 H   0  0  0  0  0  0  0  0  0  0  0  0
   40.5670   22.5200   37.7120 C   0  0  0  0  0  2  0  0  0  0  0  0
   40.5750   22.7750   36.2180 C   0  0  0  0  0  2  0  0  0  0  0  0
  1  5  2  0  0  0  0
  2  3  2  0  0  0  0
  2  1  1  0  0  0  0
  3  4  1  0  0  0  0
  4  5  1  0  0  0  0
  6  2  1  0  0  0  0
  7  3  1  0  0  0  0
  8 13  1  0  0  0  0
  8 14  1  0  0  0  0
  9  8  2  0  0  0  0
 10 11  2  0  0  0  0
 10  9  1  0  0  0  0
 11 12  1  0  0  0  0
 12  1  1  0  0  0  0
 12 13  2  0  0  0  0
 15  9  1  0  0  0  0
 16 10  1  0  0  0  0
 17 18  1  0  0  0  0
 18 19  1  0  0  0  0
 18 25  1  0  0  0  0
 19  4  1  6  0  0  0
 19 20  1  0  0  0  0
 20 21  1  0  0  0  0
 20 22  1  0  0  0  0
 23 22  1  0  0  0  0
 24 22  1  0  0  0  0
 25 24  1  0  0  0  0
M  END
>  <minimizedAffinity>
-4.5176878

$$$$

 OpenBabel03262522583D

 25 27  0  0  1  0  0  0  0  0999 V2000
   36.8250   24.0230   31.7200 C   0  0  0  0  0  0  0  0  0  0  0  0
   38.0010   23.4180   31.3500 C   0  0  0  0  0  0  0  0  0  0  0  0
   37.7630   22.1390   30.9720 C   0  0  0  0  0  0  0  0  0  0  0  0
   36.4260   21.9560   31.1090 N   0  0  0  0  0  0  0  0  0  0  0  0
   35.8940   23.0930   31.5560 N   0  0  0  0  0  0  0  0  0  0  0  0
   38.9690   23.9350   31.3750 H   0  0  0  0  0  0  0  0  0  0  0  0
   38.4470   21.3840   30.6260 H   0  0  0  0  0  0  0  0  0  0  0  0
   37.0650   27.0570   33.7670 C   0  0  0  0  0  0  0  0  0  0  0  0
   36.3220   27.9910   32.9990 C   0  0  0  0  0  0  0  0  0  0  0  0
   35.7580   27.5610   31.8000 C   0  0  0  0  0  0  0  0  0  0  0  0
   35.9530   26.2710   31.4380 N   0  0  0  0  0  0  0  0  0  0  0  0
   36.6660   25.4000   32.1890 C   0  0  0  0  0  0  0  0  0  0  0  0
   37.2210   25.7840   33.3460 N   0  0  0  0  0  0  0  0  0  0  0  0
   37.4780   27.4470   34.6860 H   0  0  0  0  0  0  0  0  0  0  0  0
   36.1540   29.0070   33.2590 H   0  0  0  0  0  0  0  0  0  0  0  0
   35.1830   28.2040   31.1620 H   0  0  0  0  0  0  0  0  0  0  0  0
   37.3640   19.8340   30.1300 H   0  0  0  0  0  0  0  0  0  0  0  0
   36.4990   19.6200   30.6620 N   0  0  0  0  0  0  0  0  0  0  0  0
   35.6460   20.7760   30.8430 C   0  0  1  0  0  3  0  0  0  0  0  0
   34.7070   20.4420   31.9830 C   0  0  0  0  0  3  0  0  0  0  0  0
   33.7180   20.9260   31.8160 H   0  0  0  0  0  0  0  0  0  0  0  0
   34.4250   19.0080   32.0290 N   0  0  0  0  0  0  0  0  0  0  0  0
   34.0920   18.7370   31.0650 H   0  0  0  0  0  0  0  0  0  0  0  0
   35.6040   18.2610   32.4060 C   0  0  0  0  0  2  0  0  0  0  0  0
   36.7980   19.0980   31.9940 C   0  0  0  0  0  2  0  0  0  0  0  0
  1 12  1  0  0  0  0
  2  6  1  0  0  0  0
  2  1  1  0  0  0  0
  3  4  1  0  0  0  0
  3  2  2  0  0  0  0
  4  5  1  0  0  0  0
  5  1  2  0  0  0  0
  7  3  1  0  0  0  0
  8 14  1  0  0  0  0
  9 15  1  0  0  0  0
  9  8  2  0  0  0  0
 10  9  1  0  0  0  0
 11 10  2  0  0  0  0
 11 12  1  0  0  0  0
 12 13  2  0  0  0  0
 13  8  1  0  0  0  0
 16 10  1  0  0  0  0
 17 18  1  0  0  0  0
 18 19  1  0  0  0  0
 18 25  1  0  0  0  0
 19  4  1  1  0  0  0
 19 20  1  0  0  0  0
 20 22  1  0  0  0  0
 21 20  1  0  0  0  0
 22 24  1  0  0  0  0
 23 22  1  0  0  0  0
 25 24  1  0  0  0  0
M  END
>  <minimizedAffinity>
-4.4921031

$$$$
