
 OpenBabel03272510113D

 35 38  0  0  1  0  0  0  0  0999 V2000
   33.3010   28.4380   48.3970 C   0  0  0  0  0  0  0  0  0  0  0  0
   34.2080   27.9960   49.2930 C   0  0  0  0  0  0  0  0  0  0  0  0
   35.3940   28.6290   49.6020 C   0  0  0  0  0  0  0  0  0  0  0  0
   35.7120   29.8010   48.9710 C   0  0  0  0  0  0  0  0  0  0  0  0
   34.7730   30.2680   48.0370 C   0  0  0  0  0  0  0  0  0  0  0  0
   33.6280   29.6040   47.7760 N   0  0  0  0  0  0  0  0  0  0  0  0
   34.0450   27.0790   49.8400 H   0  0  0  0  0  0  0  0  0  0  0  0
   36.1220   28.2760   50.3190 H   0  0  0  0  0  0  0  0  0  0  0  0
   34.9700   31.1960   47.5030 H   0  0  0  0  0  0  0  0  0  0  0  0
   30.9990   27.6130   49.0030 C   0  0  0  0  0  0  0  0  0  0  0  0
   32.0730   27.7720   48.0830 C   0  0  0  0  0  0  0  0  0  0  0  0
   31.8670   27.2360   46.8370 C   0  0  0  0  0  0  0  0  0  0  0  0
   30.6890   26.6000   46.5460 N   0  0  0  0  0  0  0  0  0  0  0  0
   29.7120   26.4850   47.4650 C   0  0  0  0  0  0  0  0  0  0  0  0
   29.8590   26.9890   48.7010 N   0  0  0  0  0  0  0  0  0  0  0  0
   31.1270   28.0220   49.9940 H   0  0  0  0  0  0  0  0  0  0  0  0
   32.6540   27.3250   46.0840 H   0  0  0  0  0  0  0  0  0  0  0  0
   28.8430   25.9590   47.0930 H   0  0  0  0  0  0  0  0  0  0  0  0
   36.8500   30.5820   49.1460 O   0  0  0  0  0  0  0  0  0  0  0  0
   37.4990   31.1890   48.0750 C   0  0  0  0  0  0  0  0  0  0  0  0
   38.5410   32.0300   48.4620 C   0  0  0  0  0  0  0  0  0  0  0  0
   39.0850   32.5570   47.2920 C   0  0  0  0  0  0  0  0  0  0  0  0
   38.3820   32.0370   46.2750 N   0  0  0  0  0  0  0  0  0  0  0  0
   37.4580   31.2390   46.7450 N   0  0  0  0  0  0  0  0  0  0  0  0
   38.9920   32.3460   49.4030 H   0  0  0  0  0  0  0  0  0  0  0  0
   39.9040   33.2480   47.1390 H   0  0  0  0  0  0  0  0  0  0  0  0
   37.1190   33.7160   44.4670 H   0  0  0  0  0  0  0  0  0  0  0  0
   37.3480   32.7180   44.2180 N   0  0  0  0  0  0  0  0  0  0  0  0
   38.5620   32.2750   44.8770 C   0  0  1  0  0  3  0  0  0  0  0  0
   39.6130   33.3000   44.5440 C   0  0  0  0  0  3  0  0  0  0  0  0
   40.5440   33.1950   45.1070 H   0  0  0  0  0  0  0  0  0  0  0  0
   39.9220   33.1320   43.1430 N   0  0  0  0  0  0  0  0  0  0  0  0
   40.5950   32.3550   42.9680 H   0  0  0  0  0  0  0  0  0  0  0  0
   38.7990   33.1520   42.2690 C   0  0  0  0  0  2  0  0  0  0  0  0
   37.5340   32.5680   42.7900 C   0  0  0  0  0  2  0  0  0  0  0  0
  1  2  1  0  0  0  0
  2  3  2  0  0  0  0
  2  7  1  0  0  0  0
  3  8  1  0  0  0  0
  4 19  1  0  0  0  0
  4  3  1  0  0  0  0
  5  4  2  0  0  0  0
  6  5  1  0  0  0  0
  6  1  2  0  0  0  0
  9  5  1  0  0  0  0
 10 16  1  0  0  0  0
 11  1  1  0  0  0  0
 11 10  2  0  0  0  0
 12 11  1  0  0  0  0
 13 12  2  0  0  0  0
 13 14  1  0  0  0  0
 14 15  2  0  0  0  0
 15 10  1  0  0  0  0
 17 12  1  0  0  0  0
 18 14  1  0  0  0  0
 20 21  1  0  0  0  0
 20 19  1  0  0  0  0
 21 25  1  0  0  0  0
 22 21  2  0  0  0  0
 23 24  1  0  0  0  0
 23 22  1  0  0  0  0
 24 20  2  0  0  0  0
 26 22  1  0  0  0  0
 28 27  1  0  0  0  0
 28 29  1  0  0  0  0
 29 23  1  1  0  0  0
 30 29  1  0  0  0  0
 30 31  1  0  0  0  0
 32 30  1  0  0  0  0
 33 32  1  0  0  0  0
 34 35  1  0  0  0  0
 34 32  1  0  0  0  0
 35 28  1  0  0  0  0
M  END
>  <minimizedAffinity>
-6.04543877

>  <minimizedRMSD>
2.11902142

$$$$
