REMARK  Name = 
REMARK  5 active torsions:
REMARK  status: ('A' for Active; 'I' for Inactive)
REMARK    1  A    between atoms: C_3  and  C_9
REMARK    2  A    between atoms: C_5  and  O_14
REMARK    3  A    between atoms: O_14  and  C_15
REMARK    4  A    between atoms: C_15  and  C_16
REMARK    5  A    between atoms: C_16  and  C_17
REMARK                            x       y       z     vdW  Elec       q    Type
REMARK                         _______ _______ _______ _____ _____    ______ ____
ROOT
ATOM      1  C   UNL     1      34.445  28.661  48.162  0.00  0.00    +0.000 C 
ATOM      2  H   UNL     1      33.879  29.624  48.235  0.00  0.00    +0.000 HD
ATOM      3  H   UNL     1      35.275  28.795  47.434  0.00  0.00    +0.000 HD
ENDROOT
BRANCH   1   4
ATOM      4  C   UNL     1      33.569  27.535  47.702  0.00  0.00    +0.000 C 
ATOM      5  H   UNL     1      33.692  26.609  48.304  0.00  0.00    +0.000 HD
ATOM      6  H   UNL     1      33.798  27.243  46.642  0.00  0.00    +0.000 HD
BRANCH   4   7
ATOM      7  C   UNL     1      32.131  27.902  47.702  0.00  0.00    +0.000 A 
ATOM      8  C   UNL     1      31.353  27.514  48.780  0.00  0.00    +0.000 A 
ATOM      9  C   UNL     1      30.024  27.806  48.867  0.00  0.00    +0.000 A 
ATOM     10  N   UNL     1      29.444  28.485  47.892  0.00  0.00    +0.000 NA
ATOM     11  C   UNL     1      30.201  28.873  46.825  0.00  0.00    +0.000 A 
ATOM     12  N   UNL     1      31.520  28.599  46.710  0.00  0.00    +0.000 NA
ATOM     13  H   UNL     1      31.825  26.950  49.595  0.00  0.00    +0.000 HD
ATOM     14  H   UNL     1      29.450  27.485  49.726  0.00  0.00    +0.000 HD
ATOM     15  N   UNL     1      29.617  29.606  45.752  0.00  0.00    +0.000 N 
ATOM     16  C   UNL     1      28.217  29.987  45.709  0.00  0.00    +0.000 C 
ATOM     17  H   UNL     1      27.874  30.454  46.642  0.00  0.00    +0.000 HD
ATOM     18  C   UNL     1      28.059  30.927  44.525  0.00  0.00    +0.000 C 
ATOM     19  H   UNL     1      27.996  30.397  43.569  0.00  0.00    +0.000 HD
ATOM     20  N   UNL     1      29.054  31.959  44.517  0.00  0.00    +0.000 NA
ATOM     21  H   UNL     1      28.822  32.604  45.319  0.00  0.00    +0.000 HD
ATOM     22  C   UNL     1      30.409  31.506  44.554  0.00  0.00    +0.000 C 
ATOM     23  C   UNL     1      30.451  30.002  44.634  0.00  0.00    +0.000 C 
ENDBRANCH   4   7
ENDBRANCH   1   4
BRANCH   1  24
ATOM     24  O   UNL     1      35.004  28.362  49.441  0.00  0.00    +0.000 OA
BRANCH  24  29
ATOM     25  C   UNL     1      37.333  30.175  51.516  0.00  0.00    +0.000 A 
ATOM     26  C   UNL     1      38.072  30.866  50.513  0.00  0.00    +0.000 A 
ATOM     27  C   UNL     1      37.706  30.651  49.198  0.00  0.00    +0.000 A 
ATOM     28  N   UNL     1      36.660  29.788  48.965  0.00  0.00    +0.000 NA
ATOM     29  C   UNL     1      35.995  29.162  49.926  0.00  0.00    +0.000 A 
ATOM     30  N   UNL     1      36.332  29.354  51.216  0.00  0.00    +0.000 NA
ATOM     31  H   UNL     1      37.672  30.389  52.519  0.00  0.00    +0.000 HD
ATOM     32  H   UNL     1      38.884  31.535  50.706  0.00  0.00    +0.000 HD
BRANCH  27  35
ATOM     33  F   UNL     1      38.929  33.271  49.000  0.00  0.00    +0.000 F 
ATOM     34  C   UNL     1      38.912  32.477  47.931  0.00  0.00    +0.000 A 
ATOM     35  C   UNL     1      38.336  31.262  48.050  0.00  0.00    +0.000 A 
ATOM     36  C   UNL     1      38.373  30.510  46.870  0.00  0.00    +0.000 A 
ATOM     37  C   UNL     1      38.942  30.974  45.709  0.00  0.00    +0.000 A 
ATOM     38  C   UNL     1      39.515  32.225  45.650  0.00  0.00    +0.000 A 
ATOM     39  C   UNL     1      39.493  32.981  46.792  0.00  0.00    +0.000 A 
ATOM     40  H   UNL     1      37.955  29.515  46.797  0.00  0.00    +0.000 HD
ATOM     41  H   UNL     1      38.968  30.386  44.796  0.00  0.00    +0.000 HD
ATOM     42  H   UNL     1      39.958  32.575  44.732  0.00  0.00    +0.000 HD
ATOM     43  H   UNL     1      39.933  33.952  46.759  0.00  0.00    +0.000 HD
ENDBRANCH  27  35
ENDBRANCH  24  29
ENDBRANCH   1  24
TORSDOF 5
