
 OpenBabel03262522113D

 30 32  0  0  1  0  0  0  0  0999 V2000
   37.5910   31.2300   47.0950 C   0  0  0  0  0  0  0  0  0  0  0  0
   37.9080   32.2440   48.0000 C   0  0  0  0  0  0  0  0  0  0  0  0
   39.0550   33.0150   47.8150 C   0  0  0  0  0  0  0  0  0  0  0  0
   39.8160   32.6980   46.7020 C   0  0  0  0  0  0  0  0  0  0  0  0
   39.4810   31.6970   45.8290 C   0  0  0  0  0  0  0  0  0  0  0  0
   38.3650   30.9560   46.0220 N   0  0  0  0  0  0  0  0  0  0  0  0
   37.2650   32.4420   48.8570 H   0  0  0  0  0  0  0  0  0  0  0  0
   39.3340   33.8100   48.4950 H   0  0  0  0  0  0  0  0  0  0  0  0
   40.7090   33.2850   46.5420 H   0  0  0  0  0  0  0  0  0  0  0  0
   36.3800   30.4920   47.3800 C   0  0  0  0  0  0  0  0  0  0  0  0
   35.6020   30.1930   46.4590 O   0  0  0  0  0  0  0  0  0  0  0  0
   37.0020   29.6070   49.5880 C   0  0  0  0  0  0  0  0  0  0  0  0
   36.0010   30.0620   48.7080 C   0  0  0  0  0  0  0  0  0  0  0  0
   34.6900   30.0680   49.1810 C   0  0  0  0  0  0  0  0  0  0  0  0
   34.4300   29.6460   50.4480 N   0  0  0  0  0  0  0  0  0  0  0  0
   35.4260   29.2140   51.2650 C   0  0  0  0  0  0  0  0  0  0  0  0
   36.6720   29.1990   50.8380 N   0  0  0  0  0  0  0  0  0  0  0  0
   38.0260   29.6060   49.2020 H   0  0  0  0  0  0  0  0  0  0  0  0
   33.9380   30.4220   48.4900 H   0  0  0  0  0  0  0  0  0  0  0  0
   35.1750   28.8860   52.2670 H   0  0  0  0  0  0  0  0  0  0  0  0
   40.4820   31.3010   44.3870 S   0  0  0  0  0  0  0  0  0  0  0  0
   40.9850   31.1610   41.8430 H   0  0  0  0  0  0  0  0  0  0  0  0
   40.0100   31.5350   41.7970 N   0  0  0  0  0  0  0  0  0  0  0  0
   39.7960   32.2670   43.0240 C   0  0  1  0  0  0  0  0  0  0  0  0
   38.3630   32.6430   43.2110 C   0  0  0  0  0  0  0  0  0  0  0  0
   38.2430   33.1990   44.1580 H   0  0  0  0  0  0  0  0  0  0  0  0
   37.4220   31.5770   43.0680 N   0  0  0  0  0  0  0  0  0  0  0  0
   36.4680   32.0380   42.9800 H   0  0  0  0  0  0  0  0  0  0  0  0
   37.6600   30.9290   41.8010 C   0  0  0  0  0  0  0  0  0  0  0  0
   39.0960   30.4340   41.7350 C   0  0  0  0  0  0  0  0  0  0  0  0
  1 10  1  0  0  0  0
  1  2  1  0  0  0  0
  2  7  1  0  0  0  0
  3  2  2  0  0  0  0
  3  8  1  0  0  0  0
  4  3  1  0  0  0  0
  5  6  1  0  0  0  0
  5  4  2  0  0  0  0
  6  1  2  0  0  0  0
  9  4  1  0  0  0  0
 10 13  1  0  0  0  0
 11 10  2  0  0  0  0
 12 17  1  0  0  0  0
 13 14  1  0  0  0  0
 13 12  2  0  0  0  0
 14 15  2  0  0  0  0
 15 16  1  0  0  0  0
 16 20  1  0  0  0  0
 17 16  2  0  0  0  0
 18 12  1  0  0  0  0
 19 14  1  0  0  0  0
 21  5  1  0  0  0  0
 23 22  1  0  0  0  0
 23 24  1  0  0  0  0
 24 25  1  0  0  0  0
 24 21  1  1  0  0  0
 25 26  1  0  0  0  0
 27 25  1  0  0  0  0
 28 27  1  0  0  0  0
 29 27  1  0  0  0  0
 30 23  1  0  0  0  0
 30 29  1  0  0  0  0
M  END
>  <minimizedAffinity>
-5.17238045

>  <minimizedRMSD>
1.16499221

$$$$
