
 OpenBabel03272509273D

 41 43  0  0  1  0  0  0  0  0999 V2000
   37.6910   24.9660   34.3100 C   0  0  2  0  0  0  0  0  0  0  0  0
   37.2570   26.0370   33.3220 C   0  0  0  0  0  0  0  0  0  0  0  0
   37.7360   27.4040   33.7650 C   0  0  0  0  0  0  0  0  0  0  0  0
   37.7090   27.4590   35.2590 C   0  0  0  0  0  0  0  0  0  0  0  0
   38.9330   26.6640   35.7000 C   0  0  0  0  0  0  0  0  0  0  0  0
   38.9120   25.3390   35.0530 C   0  0  1  0  0  0  0  0  0  0  0  0
   36.7940   24.7420   34.9060 H   0  0  0  0  0  0  0  0  0  0  0  0
   36.1670   26.0310   33.1440 H   0  0  0  0  0  0  0  0  0  0  0  0
   37.7160   25.8490   32.3210 H   0  0  0  0  0  0  0  0  0  0  0  0
   38.8120   27.5150   33.4510 H   0  0  0  0  0  0  0  0  0  0  0  0
   37.1820   28.1990   33.2720 H   0  0  0  0  0  0  0  0  0  0  0  0
   37.7440   28.4820   35.6790 H   0  0  0  0  0  0  0  0  0  0  0  0
   36.8260   26.8900   35.6140 H   0  0  0  0  0  0  0  0  0  0  0  0
   39.8060   27.2900   35.3480 H   0  0  0  0  0  0  0  0  0  0  0  0
   38.9280   26.7490   36.7780 H   0  0  0  0  0  0  0  0  0  0  0  0
   39.7830   25.2450   34.3940 H   0  0  0  0  0  0  0  0  0  0  0  0
   39.1290   24.4540   36.1900 N   0  0  1  0  0  0  0  0  0  0  0  0
   37.8560   23.9750   36.6540 C   0  0  0  0  0  3  0  0  0  0  0  0
   37.2110   24.8920   36.7460 H   0  0  0  0  0  0  0  0  0  0  0  0
   38.0380   23.3150   38.0000 C   0  0  0  0  0  3  0  0  0  0  0  0
   37.3330   22.4480   38.0390 H   0  0  0  0  0  0  0  0  0  0  0  0
   39.3960   22.9400   38.2110 N   0  0  0  0  0  0  0  0  0  0  0  0
   39.4000   22.1710   38.9430 H   0  0  0  0  0  0  0  0  0  0  0  0
   40.0150   22.3540   37.0380 C   0  0  0  0  0  2  0  0  0  0  0  0
   40.0300   23.3790   35.9040 C   0  0  0  0  0  2  0  0  0  0  0  0
   38.0460   23.4880   33.3170 S   0  0  0  0  0  0  0  0  0  0  0  0
   37.2230   23.4790   31.7170 C   0  0  0  0  0  0  0  0  0  0  0  0
   37.9260   23.0670   30.9830 H   0  0  0  0  0  0  0  0  0  0  0  0
   37.1770   24.5690   31.4060 H   0  0  0  0  0  0  0  0  0  0  0  0
   35.8680   22.8730   31.8000 C   0  0  0  0  0  0  0  0  0  0  0  0
   35.2490   23.2830   32.6290 H   0  0  0  0  0  0  0  0  0  0  0  0
   35.3700   23.0500   30.8180 H   0  0  0  0  0  0  0  0  0  0  0  0
   36.1890   19.2520   30.9350 C   0  0  0  0  0  0  0  0  0  0  0  0
   36.2420   20.6420   30.8200 C   0  0  0  0  0  0  0  0  0  0  0  0
   35.8710   21.4310   31.8700 C   0  0  0  0  0  0  0  0  0  0  0  0
   35.4540   20.7880   33.0230 N   0  0  0  0  0  0  0  0  0  0  0  0
   35.4110   19.4580   33.1110 C   0  0  0  0  0  0  0  0  0  0  0  0
   35.7740   18.6660   32.0800 N   0  0  0  0  0  0  0  0  0  0  0  0
   36.4670   18.5730   30.1450 H   0  0  0  0  0  0  0  0  0  0  0  0
   36.6020   20.9360   29.8490 H   0  0  0  0  0  0  0  0  0  0  0  0
   35.0840   18.9590   34.0160 H   0  0  0  0  0  0  0  0  0  0  0  0
  1  7  1  1  0  0  0
  1  6  1  0  0  0  0
  2  3  1  0  0  0  0
  2  1  1  0  0  0  0
  3  4  1  0  0  0  0
  4 13  1  0  0  0  0
  4 12  1  0  0  0  0
  4  5  1  0  0  0  0
  5 15  1  0  0  0  0
  6 16  1  6  0  0  0
  6  5  1  0  0  0  0
  6 17  1  0  0  0  0
  8  2  1  0  0  0  0
  9  2  1  0  0  0  0
 10  3  1  0  0  0  0
 11  3  1  0  0  0  0
 14  5  1  0  0  0  0
 17 25  1  6  0  0  0
 17 18  1  0  0  0  0
 18 19  1  0  0  0  0
 18 20  1  0  0  0  0
 20 21  1  0  0  0  0
 20 22  1  0  0  0  0
 22 23  1  0  0  0  0
 24 22  1  0  0  0  0
 25 24  1  0  0  0  0
 26  1  1  0  0  0  0
 27 30  1  0  0  0  0
 27 26  1  0  0  0  0
 28 27  1  0  0  0  0
 29 27  1  0  0  0  0
 30 35  1  0  0  0  0
 30 31  1  0  0  0  0
 32 30  1  0  0  0  0
 33 38  1  0  0  0  0
 34 33  2  0  0  0  0
 34 35  1  0  0  0  0
 35 36  2  0  0  0  0
 36 37  1  0  0  0  0
 37 41  1  0  0  0  0
 38 37  2  0  0  0  0
 39 33  1  0  0  0  0
 40 34  1  0  0  0  0
M  END
>  <minimizedAffinity>
-5.32543325

$$$$

 OpenBabel03272509273D

 41 43  0  0  1  0  0  0  0  0999 V2000
   37.5030   25.0240   33.5160 C   0  0  2  0  0  0  0  0  0  0  0  0
   37.1110   26.2420   32.6940 C   0  0  0  0  0  0  0  0  0  0  0  0
   37.3600   27.5190   33.4710 C   0  0  0  0  0  0  0  0  0  0  0  0
   37.0960   27.2560   34.9190 C   0  0  0  0  0  0  0  0  0  0  0  0
   38.3180   26.4840   35.4050 C   0  0  0  0  0  0  0  0  0  0  0  0
   38.5450   25.3270   34.5190 C   0  0  1  0  0  0  0  0  0  0  0  0
   36.5550   24.6120   33.8910 H   0  0  0  0  0  0  0  0  0  0  0  0
   36.0690   26.1890   32.3310 H   0  0  0  0  0  0  0  0  0  0  0  0
   37.7380   26.3050   31.7720 H   0  0  0  0  0  0  0  0  0  0  0  0
   38.4520   27.7760   33.3770 H   0  0  0  0  0  0  0  0  0  0  0  0
   36.8040   28.3540   33.0530 H   0  0  0  0  0  0  0  0  0  0  0  0
   36.9520   28.1670   35.5300 H   0  0  0  0  0  0  0  0  0  0  0  0
   36.2380   26.5590   34.9980 H   0  0  0  0  0  0  0  0  0  0  0  0
   39.1590   27.2350   35.3380 H   0  0  0  0  0  0  0  0  0  0  0  0
   38.1370   26.3400   36.4610 H   0  0  0  0  0  0  0  0  0  0  0  0
   39.5130   25.4410   34.0160 H   0  0  0  0  0  0  0  0  0  0  0  0
   38.6800   24.2420   35.4820 N   0  0  1  0  0  0  0  0  0  0  0  0
   40.0760   23.9460   35.6540 C   0  0  0  0  0  3  0  0  0  0  0  0
   40.4870   23.8510   34.6110 H   0  0  0  0  0  0  0  0  0  0  0  0
   40.2150   22.6410   36.4000 C   0  0  0  0  0  3  0  0  0  0  0  0
   41.1070   22.7370   37.0670 H   0  0  0  0  0  0  0  0  0  0  0  0
   39.0210   22.3230   37.1090 N   0  0  0  0  0  0  0  0  0  0  0  0
   39.2870   21.6530   37.8890 H   0  0  0  0  0  0  0  0  0  0  0  0
   38.4300   23.4680   37.7750 C   0  0  0  0  0  2  0  0  0  0  0  0
   38.0380   24.5160   36.7330 C   0  0  0  0  0  2  0  0  0  0  0  0
   38.1690   23.8200   32.3320 S   0  0  0  0  0  0  0  0  0  0  0  0
   37.1030   23.5370   30.9120 C   0  0  0  0  0  0  0  0  0  0  0  0
   37.6770   22.9700   30.1710 H   0  0  0  0  0  0  0  0  0  0  0  0
   37.0130   24.5510   30.4070 H   0  0  0  0  0  0  0  0  0  0  0  0
   35.7740   23.0070   31.3190 C   0  0  0  0  0  0  0  0  0  0  0  0
   35.2790   23.6130   32.1110 H   0  0  0  0  0  0  0  0  0  0  0  0
   35.1410   22.9730   30.4030 H   0  0  0  0  0  0  0  0  0  0  0  0
   36.0150   19.2790   31.2740 C   0  0  0  0  0  0  0  0  0  0  0  0
   36.0490   20.6060   30.8400 C   0  0  0  0  0  0  0  0  0  0  0  0
   35.7910   21.6190   31.7150 C   0  0  0  0  0  0  0  0  0  0  0  0
   35.5040   21.2640   33.0220 N   0  0  0  0  0  0  0  0  0  0  0  0
   35.4770   19.9900   33.4160 C   0  0  0  0  0  0  0  0  0  0  0  0
   35.7290   18.9770   32.5600 N   0  0  0  0  0  0  0  0  0  0  0  0
   36.2080   18.4320   30.6350 H   0  0  0  0  0  0  0  0  0  0  0  0
   36.3010   20.6640   29.7950 H   0  0  0  0  0  0  0  0  0  0  0  0
   35.2510   19.7160   34.4400 H   0  0  0  0  0  0  0  0  0  0  0  0
  1  7  1  1  0  0  0
  1  6  1  0  0  0  0
  2  3  1  0  0  0  0
  2  1  1  0  0  0  0
  3  4  1  0  0  0  0
  4 13  1  0  0  0  0
  4  5  1  0  0  0  0
  4 12  1  0  0  0  0
  5 15  1  0  0  0  0
  6 16  1  6  0  0  0
  6  5  1  0  0  0  0
  6 17  1  0  0  0  0
  8  2  1  0  0  0  0
  9  2  1  0  0  0  0
 10  3  1  0  0  0  0
 11  3  1  0  0  0  0
 14  5  1  0  0  0  0
 17 18  1  0  0  0  0
 17 25  1  1  0  0  0
 18 20  1  0  0  0  0
 19 18  1  0  0  0  0
 20 21  1  0  0  0  0
 20 22  1  0  0  0  0
 22 24  1  0  0  0  0
 22 23  1  0  0  0  0
 25 24  1  0  0  0  0
 26  1  1  0  0  0  0
 27 30  1  0  0  0  0
 27 26  1  0  0  0  0
 28 27  1  0  0  0  0
 29 27  1  0  0  0  0
 30 35  1  0  0  0  0
 30 31  1  0  0  0  0
 32 30  1  0  0  0  0
 33 38  1  0  0  0  0
 34 33  2  0  0  0  0
 34 35  1  0  0  0  0
 35 36  2  0  0  0  0
 36 37  1  0  0  0  0
 37 41  1  0  0  0  0
 38 37  2  0  0  0  0
 39 33  1  0  0  0  0
 40 34  1  0  0  0  0
M  END
>  <minimizedAffinity>
-5.17307043

$$$$

 OpenBabel03272509273D

 41 43  0  0  1  0  0  0  0  0999 V2000
   39.9720   26.3420   35.0730 C   0  0  2  0  0  0  0  0  0  0  0  0
   40.3090   27.0650   33.7790 C   0  0  0  0  0  0  0  0  0  0  0  0
   40.7830   26.0870   32.7230 C   0  0  0  0  0  0  0  0  0  0  0  0
   41.5470   24.9910   33.3950 C   0  0  0  0  0  0  0  0  0  0  0  0
   40.4790   24.1040   34.0260 C   0  0  0  0  0  0  0  0  0  0  0  0
   39.5830   24.9340   34.8520 C   0  0  1  0  0  0  0  0  0  0  0  0
   40.8300   26.5230   35.7370 H   0  0  0  0  0  0  0  0  0  0  0  0
   41.0390   27.8810   33.9280 H   0  0  0  0  0  0  0  0  0  0  0  0
   39.3990   27.5620   33.3640 H   0  0  0  0  0  0  0  0  0  0  0  0
   39.8760   25.6160   32.2520 H   0  0  0  0  0  0  0  0  0  0  0  0
   41.3240   26.5930   31.9260 H   0  0  0  0  0  0  0  0  0  0  0  0
   42.1870   24.3970   32.7160 H   0  0  0  0  0  0  0  0  0  0  0  0
   42.1210   25.4300   34.2360 H   0  0  0  0  0  0  0  0  0  0  0  0
   39.9400   23.6550   33.1410 H   0  0  0  0  0  0  0  0  0  0  0  0
   41.0400   23.2930   34.4700 H   0  0  0  0  0  0  0  0  0  0  0  0
   38.5700   24.8970   34.4340 H   0  0  0  0  0  0  0  0  0  0  0  0
   39.5650   24.1890   36.1040 N   0  0  1  0  0  0  0  0  0  0  0  0
   38.2550   23.6290   36.2920 C   0  0  0  0  0  3  0  0  0  0  0  0
   37.5410   24.4800   36.1120 H   0  0  0  0  0  0  0  0  0  0  0  0
   38.1320   23.1240   37.7090 C   0  0  0  0  0  3  0  0  0  0  0  0
   37.5070   22.1970   37.6750 H   0  0  0  0  0  0  0  0  0  0  0  0
   39.4140   22.9110   38.2930 N   0  0  0  0  0  0  0  0  0  0  0  0
   39.2870   22.2200   39.0900 H   0  0  0  0  0  0  0  0  0  0  0  0
   40.3570   22.2810   37.3890 C   0  0  0  0  0  2  0  0  0  0  0  0
   40.5870   23.1880   36.1800 C   0  0  0  0  0  2  0  0  0  0  0  0
   38.5580   27.2300   35.7840 S   0  0  0  0  0  0  0  0  0  0  0  0
   37.0130   26.9510   34.9060 C   0  0  0  0  0  0  0  0  0  0  0  0
   36.3470   26.3920   35.5730 H   0  0  0  0  0  0  0  0  0  0  0  0
   37.2610   26.1700   34.1200 H   0  0  0  0  0  0  0  0  0  0  0  0
   36.4960   28.2030   34.2930 C   0  0  0  0  0  0  0  0  0  0  0  0
   35.4540   28.4480   34.5990 H   0  0  0  0  0  0  0  0  0  0  0  0
   37.1910   29.0230   34.5870 H   0  0  0  0  0  0  0  0  0  0  0  0
   36.2510   29.2560   30.7160 C   0  0  0  0  0  0  0  0  0  0  0  0
   36.1620   29.2960   32.1090 C   0  0  0  0  0  0  0  0  0  0  0  0
   36.5950   28.2370   32.8530 C   0  0  0  0  0  0  0  0  0  0  0  0
   37.1150   27.1540   32.1640 N   0  0  0  0  0  0  0  0  0  0  0  0
   37.1910   27.1370   30.8340 C   0  0  0  0  0  0  0  0  0  0  0  0
   36.7650   28.1770   30.0840 N   0  0  0  0  0  0  0  0  0  0  0  0
   35.9260   30.0550   30.0700 H   0  0  0  0  0  0  0  0  0  0  0  0
   35.7390   30.2270   32.4420 H   0  0  0  0  0  0  0  0  0  0  0  0
   37.5980   26.2870   30.2980 H   0  0  0  0  0  0  0  0  0  0  0  0
  1  7  1  1  0  0  0
  1 26  1  0  0  0  0
  2  8  1  0  0  0  0
  2  1  1  0  0  0  0
  3  4  1  0  0  0  0
  3  2  1  0  0  0  0
  4  5  1  0  0  0  0
  4 13  1  0  0  0  0
  5 15  1  0  0  0  0
  5  6  1  0  0  0  0
  6 16  1  6  0  0  0
  6  1  1  0  0  0  0
  6 17  1  0  0  0  0
  9  2  1  0  0  0  0
 10  3  1  0  0  0  0
 11  3  1  0  0  0  0
 12  4  1  0  0  0  0
 14  5  1  0  0  0  0
 17 25  1  6  0  0  0
 17 18  1  0  0  0  0
 18 20  1  0  0  0  0
 19 18  1  0  0  0  0
 20 22  1  0  0  0  0
 21 20  1  0  0  0  0
 22 23  1  0  0  0  0
 24 22  1  0  0  0  0
 25 24  1  0  0  0  0
 27 28  1  0  0  0  0
 27 26  1  0  0  0  0
 29 27  1  0  0  0  0
 30 32  1  0  0  0  0
 30 31  1  0  0  0  0
 30 27  1  0  0  0  0
 33 34  1  0  0  0  0
 34 40  1  0  0  0  0
 34 35  2  0  0  0  0
 35 30  1  0  0  0  0
 36 35  1  0  0  0  0
 37 36  2  0  0  0  0
 38 33  2  0  0  0  0
 38 37  1  0  0  0  0
 39 33  1  0  0  0  0
 41 37  1  0  0  0  0
M  END
>  <minimizedAffinity>
-5.05260038

$$$$

 OpenBabel03272509273D

 41 43  0  0  1  0  0  0  0  0999 V2000
   39.4130   26.7970   33.6130 C   0  0  2  0  0  0  0  0  0  0  0  0
   39.9960   26.7990   35.0170 C   0  0  0  0  0  0  0  0  0  0  0  0
   38.9060   26.9900   36.0520 C   0  0  0  0  0  0  0  0  0  0  0  0
   37.8610   27.8960   35.4840 C   0  0  0  0  0  0  0  0  0  0  0  0
   37.0700   27.0200   34.5190 C   0  0  0  0  0  0  0  0  0  0  0  0
   38.0020   26.3620   33.5840 C   0  0  1  0  0  0  0  0  0  0  0  0
   39.6350   27.7950   33.2070 H   0  0  0  0  0  0  0  0  0  0  0  0
   40.8020   27.5450   35.1390 H   0  0  0  0  0  0  0  0  0  0  0  0
   40.4740   25.8150   35.2380 H   0  0  0  0  0  0  0  0  0  0  0  0
   38.4160   25.9920   36.2300 H   0  0  0  0  0  0  0  0  0  0  0  0
   39.3160   27.3130   37.0060 H   0  0  0  0  0  0  0  0  0  0  0  0
   37.1850   28.3430   36.2370 H   0  0  0  0  0  0  0  0  0  0  0  0
   38.3640   28.6640   34.8640 H   0  0  0  0  0  0  0  0  0  0  0  0
   36.5510   26.2740   35.1900 H   0  0  0  0  0  0  0  0  0  0  0  0
   36.2910   27.6720   34.1490 H   0  0  0  0  0  0  0  0  0  0  0  0
   37.9520   25.2760   33.7290 H   0  0  0  0  0  0  0  0  0  0  0  0
   37.3840   26.6580   32.2980 N   0  0  1  0  0  0  0  0  0  0  0  0
   36.0960   26.0250   32.2450 C   0  0  0  0  0  3  0  0  0  0  0  0
   36.2760   24.9630   32.5720 H   0  0  0  0  0  0  0  0  0  0  0  0
   35.5850   26.0630   30.8250 C   0  0  0  0  0  3  0  0  0  0  0  0
   34.4780   26.2090   30.8780 H   0  0  0  0  0  0  0  0  0  0  0  0
   36.2450   27.0720   30.0670 N   0  0  0  0  0  0  0  0  0  0  0  0
   35.6130   27.3170   29.2490 H   0  0  0  0  0  0  0  0  0  0  0  0
   36.4200   28.3130   30.7970 C   0  0  0  0  0  2  0  0  0  0  0  0
   37.2980   28.0620   32.0240 C   0  0  0  0  0  2  0  0  0  0  0  0
   40.4060   25.6100   32.6640 S   0  0  0  0  0  0  0  0  0  0  0  0
   41.0120   24.2290   33.6450 C   0  0  0  0  0  0  0  0  0  0  0  0
   41.5840   24.6420   34.4840 H   0  0  0  0  0  0  0  0  0  0  0  0
   41.8320   23.7610   33.0140 H   0  0  0  0  0  0  0  0  0  0  0  0
   39.9300   23.2560   33.9500 C   0  0  0  0  0  0  0  0  0  0  0  0
   38.9950   23.4370   33.3750 H   0  0  0  0  0  0  0  0  0  0  0  0
   40.3320   22.2400   33.7290 H   0  0  0  0  0  0  0  0  0  0  0  0
   38.1480   23.3380   37.2330 C   0  0  0  0  0  0  0  0  0  0  0  0
   38.3810   23.4270   35.8590 C   0  0  0  0  0  0  0  0  0  0  0  0
   39.6170   23.1460   35.3550 C   0  0  0  0  0  0  0  0  0  0  0  0
   40.5970   22.7770   36.2610 N   0  0  0  0  0  0  0  0  0  0  0  0
   40.3520   22.6990   37.5690 C   0  0  0  0  0  0  0  0  0  0  0  0
   39.1340   22.9750   38.0820 N   0  0  0  0  0  0  0  0  0  0  0  0
   37.1970   23.5470   37.6960 H   0  0  0  0  0  0  0  0  0  0  0  0
   37.4880   23.7190   35.3340 H   0  0  0  0  0  0  0  0  0  0  0  0
   41.1230   22.4090   38.2750 H   0  0  0  0  0  0  0  0  0  0  0  0
  1  7  1  6  0  0  0
  1  2  1  0  0  0  0
  2  8  1  0  0  0  0
  2  9  1  0  0  0  0
  2  3  1  0  0  0  0
  3 10  1  0  0  0  0
  3 11  1  0  0  0  0
  4  3  1  0  0  0  0
  4 12  1  0  0  0  0
  5 14  1  0  0  0  0
  5  4  1  0  0  0  0
  6  1  1  0  0  0  0
  6 16  1  1  0  0  0
  6  5  1  0  0  0  0
 13  4  1  0  0  0  0
 15  5  1  0  0  0  0
 17 25  1  1  0  0  0
 17  6  1  0  0  0  0
 18 17  1  0  0  0  0
 18 19  1  0  0  0  0
 20 21  1  0  0  0  0
 20 18  1  0  0  0  0
 22 24  1  0  0  0  0
 22 20  1  0  0  0  0
 23 22  1  0  0  0  0
 24 25  1  0  0  0  0
 26  1  1  0  0  0  0
 26 27  1  0  0  0  0
 27 30  1  0  0  0  0
 27 28  1  0  0  0  0
 29 27  1  0  0  0  0
 30 35  1  0  0  0  0
 31 30  1  0  0  0  0
 32 30  1  0  0  0  0
 33 39  1  0  0  0  0
 33 38  1  0  0  0  0
 34 33  2  0  0  0  0
 35 34  1  0  0  0  0
 35 36  2  0  0  0  0
 36 37  1  0  0  0  0
 37 38  2  0  0  0  0
 37 41  1  0  0  0  0
 40 34  1  0  0  0  0
M  END
>  <minimizedAffinity>
-4.94824982

$$$$

 OpenBabel03272509273D

 41 43  0  0  1  0  0  0  0  0999 V2000
   39.5780   25.1450   34.2960 C   0  0  2  0  0  0  0  0  0  0  0  0
   39.3360   25.3140   32.8040 C   0  0  0  0  0  0  0  0  0  0  0  0
   38.4590   24.1990   32.2710 C   0  0  0  0  0  0  0  0  0  0  0  0
   38.7750   22.9440   33.0210 C   0  0  0  0  0  0  0  0  0  0  0  0
   38.0860   23.1120   34.3700 C   0  0  0  0  0  0  0  0  0  0  0  0
   38.4940   24.3980   34.9660 C   0  0  1  0  0  0  0  0  0  0  0  0
   40.5930   24.7300   34.3780 H   0  0  0  0  0  0  0  0  0  0  0  0
   40.2760   25.3960   32.2300 H   0  0  0  0  0  0  0  0  0  0  0  0
   38.7900   26.2680   32.6060 H   0  0  0  0  0  0  0  0  0  0  0  0
   37.3880   24.4580   32.5000 H   0  0  0  0  0  0  0  0  0  0  0  0
   38.5380   24.1130   31.1900 H   0  0  0  0  0  0  0  0  0  0  0  0
   38.4270   22.0170   32.5260 H   0  0  0  0  0  0  0  0  0  0  0  0
   39.8630   22.9240   33.2280 H   0  0  0  0  0  0  0  0  0  0  0  0
   36.9850   23.0960   34.1190 H   0  0  0  0  0  0  0  0  0  0  0  0
   38.2830   22.1820   34.8850 H   0  0  0  0  0  0  0  0  0  0  0  0
   37.6140   25.0450   35.0670 H   0  0  0  0  0  0  0  0  0  0  0  0
   38.8880   23.9880   36.3080 N   0  0  1  0  0  0  0  0  0  0  0  0
   37.7610   23.3740   36.9550 C   0  0  0  0  0  3  0  0  0  0  0  0
   36.9040   24.0860   36.7930 H   0  0  0  0  0  0  0  0  0  0  0  0
   38.0570   23.2260   38.4270 C   0  0  0  0  0  3  0  0  0  0  0  0
   37.5900   22.2670   38.7620 H   0  0  0  0  0  0  0  0  0  0  0  0
   39.4580   23.2820   38.6790 N   0  0  0  0  0  0  0  0  0  0  0  0
   39.6310   22.8010   39.6100 H   0  0  0  0  0  0  0  0  0  0  0  0
   40.2430   22.5370   37.7140 C   0  0  0  0  0  2  0  0  0  0  0  0
   40.0380   23.1340   36.3220 C   0  0  0  0  0  2  0  0  0  0  0  0
   39.6370   26.8240   34.9820 S   0  0  0  0  0  0  0  0  0  0  0  0
   38.0730   27.3760   35.6780 C   0  0  0  0  0  0  0  0  0  0  0  0
   38.1970   28.4190   35.9920 H   0  0  0  0  0  0  0  0  0  0  0  0
   37.9920   26.8420   36.6770 H   0  0  0  0  0  0  0  0  0  0  0  0
   36.9290   27.0480   34.7860 C   0  0  0  0  0  0  0  0  0  0  0  0
   37.0790   26.1160   34.1970 H   0  0  0  0  0  0  0  0  0  0  0  0
   36.0250   26.9580   35.4330 H   0  0  0  0  0  0  0  0  0  0  0  0
   36.4960   29.2110   31.7700 C   0  0  0  0  0  0  0  0  0  0  0  0
   36.8590   28.1260   32.5710 C   0  0  0  0  0  0  0  0  0  0  0  0
   36.5480   28.1220   33.8990 C   0  0  0  0  0  0  0  0  0  0  0  0
   35.8680   29.2230   34.3900 N   0  0  0  0  0  0  0  0  0  0  0  0
   35.5300   30.2480   33.6080 C   0  0  0  0  0  0  0  0  0  0  0  0
   35.8330   30.2670   32.2920 N   0  0  0  0  0  0  0  0  0  0  0  0
   36.7110   29.2790   30.7160 H   0  0  0  0  0  0  0  0  0  0  0  0
   37.3690   27.3740   31.9940 H   0  0  0  0  0  0  0  0  0  0  0  0
   34.9980   31.1090   33.9960 H   0  0  0  0  0  0  0  0  0  0  0  0
  1  7  1  1  0  0  0
  1  6  1  0  0  0  0
  1 26  1  0  0  0  0
  2  1  1  0  0  0  0
  3 10  1  0  0  0  0
  3  2  1  0  0  0  0
  3  4  1  0  0  0  0
  4 13  1  0  0  0  0
  4  5  1  0  0  0  0
  5 15  1  0  0  0  0
  5  6  1  0  0  0  0
  6 16  1  1  0  0  0
  6 17  1  0  0  0  0
  8  2  1  0  0  0  0
  9  2  1  0  0  0  0
 11  3  1  0  0  0  0
 12  4  1  0  0  0  0
 14  5  1  0  0  0  0
 17 25  1  6  0  0  0
 17 18  1  0  0  0  0
 18 20  1  0  0  0  0
 19 18  1  0  0  0  0
 20 22  1  0  0  0  0
 20 21  1  0  0  0  0
 22 23  1  0  0  0  0
 24 22  1  0  0  0  0
 25 24  1  0  0  0  0
 26 27  1  0  0  0  0
 27 28  1  0  0  0  0
 27 29  1  0  0  0  0
 30 32  1  0  0  0  0
 30 27  1  0  0  0  0
 31 30  1  0  0  0  0
 33 38  2  0  0  0  0
 33 34  1  0  0  0  0
 34 35  2  0  0  0  0
 35 36  1  0  0  0  0
 35 30  1  0  0  0  0
 37 41  1  0  0  0  0
 37 36  2  0  0  0  0
 38 37  1  0  0  0  0
 39 33  1  0  0  0  0
 40 34  1  0  0  0  0
M  END
>  <minimizedAffinity>
-4.86278105

$$$$

 OpenBabel03272509273D

 41 43  0  0  1  0  0  0  0  0999 V2000
   36.9210   27.1570   33.6530 C   0  0  2  0  0  0  0  0  0  0  0  0
   37.0400   27.8560   34.9980 C   0  0  0  0  0  0  0  0  0  0  0  0
   38.3350   27.4790   35.6890 C   0  0  0  0  0  0  0  0  0  0  0  0
   38.6580   26.0580   35.3530 C   0  0  0  0  0  0  0  0  0  0  0  0
   39.1980   26.1070   33.9280 C   0  0  0  0  0  0  0  0  0  0  0  0
   38.2360   26.8220   33.0690 C   0  0  1  0  0  0  0  0  0  0  0  0
   36.2240   26.3230   33.8220 H   0  0  0  0  0  0  0  0  0  0  0  0
   36.1680   27.6700   35.6490 H   0  0  0  0  0  0  0  0  0  0  0  0
   37.0670   28.9640   34.8570 H   0  0  0  0  0  0  0  0  0  0  0  0
   39.1580   28.1150   35.2570 H   0  0  0  0  0  0  0  0  0  0  0  0
   38.2960   27.6960   36.7530 H   0  0  0  0  0  0  0  0  0  0  0  0
   39.3990   25.5870   36.0270 H   0  0  0  0  0  0  0  0  0  0  0  0
   37.7110   25.4850   35.3060 H   0  0  0  0  0  0  0  0  0  0  0  0
   40.1730   26.6690   34.0250 H   0  0  0  0  0  0  0  0  0  0  0  0
   39.4700   25.0830   33.7140 H   0  0  0  0  0  0  0  0  0  0  0  0
   38.7060   27.7340   32.6810 H   0  0  0  0  0  0  0  0  0  0  0  0
   38.0970   25.8960   31.9520 N   0  0  1  0  0  0  0  0  0  0  0  0
   39.3980   25.4080   31.5890 C   0  0  0  0  0  3  0  0  0  0  0  0
   40.0450   26.3250   31.5060 H   0  0  0  0  0  0  0  0  0  0  0  0
   39.3070   24.7000   30.2590 C   0  0  0  0  0  3  0  0  0  0  0  0
   40.0160   23.8360   30.2970 H   0  0  0  0  0  0  0  0  0  0  0  0
   37.9670   24.3090   29.9740 N   0  0  0  0  0  0  0  0  0  0  0  0
   38.0130   23.5150   29.2710 H   0  0  0  0  0  0  0  0  0  0  0  0
   37.2750   23.7610   31.1250 C   0  0  0  0  0  2  0  0  0  0  0  0
   37.1830   24.8250   32.2180 C   0  0  0  0  0  2  0  0  0  0  0  0
   36.0810   28.3320   32.5550 S   0  0  0  0  0  0  0  0  0  0  0  0
   35.6140   29.8700   33.3630 C   0  0  0  0  0  0  0  0  0  0  0  0
   35.9020   30.6950   32.7020 H   0  0  0  0  0  0  0  0  0  0  0  0
   36.3550   29.9880   34.2160 H   0  0  0  0  0  0  0  0  0  0  0  0
   34.2110   29.8280   33.8560 C   0  0  0  0  0  0  0  0  0  0  0  0
   33.4650   30.1530   33.0970 H   0  0  0  0  0  0  0  0  0  0  0  0
   34.0090   28.7800   34.1760 H   0  0  0  0  0  0  0  0  0  0  0  0
   34.7040   31.9900   36.8630 C   0  0  0  0  0  0  0  0  0  0  0  0
   34.9580   31.3390   35.6540 C   0  0  0  0  0  0  0  0  0  0  0  0
   33.9970   30.5560   35.0840 C   0  0  0  0  0  0  0  0  0  0  0  0
   32.7910   30.4510   35.7560 N   0  0  0  0  0  0  0  0  0  0  0  0
   32.5700   31.0810   36.9090 C   0  0  0  0  0  0  0  0  0  0  0  0
   33.5120   31.8590   37.4850 N   0  0  0  0  0  0  0  0  0  0  0  0
   35.4190   32.6210   37.3670 H   0  0  0  0  0  0  0  0  0  0  0  0
   35.9480   31.5600   35.2970 H   0  0  0  0  0  0  0  0  0  0  0  0
   31.6240   30.9960   37.4320 H   0  0  0  0  0  0  0  0  0  0  0  0
  1  7  1  1  0  0  0
  1  2  1  0  0  0  0
  2  8  1  0  0  0  0
  2  3  1  0  0  0  0
  3 11  1  0  0  0  0
  4  3  1  0  0  0  0
  4 12  1  0  0  0  0
  5 14  1  0  0  0  0
  5  4  1  0  0  0  0
  6 16  1  6  0  0  0
  6  1  1  0  0  0  0
  6  5  1  0  0  0  0
  9  2  1  0  0  0  0
 10  3  1  0  0  0  0
 13  4  1  0  0  0  0
 15  5  1  0  0  0  0
 17 25  1  1  0  0  0
 17  6  1  0  0  0  0
 18 17  1  0  0  0  0
 19 18  1  0  0  0  0
 20 21  1  0  0  0  0
 20 18  1  0  0  0  0
 22 20  1  0  0  0  0
 22 24  1  0  0  0  0
 23 22  1  0  0  0  0
 24 25  1  0  0  0  0
 26 27  1  0  0  0  0
 26  1  1  0  0  0  0
 27 30  1  0  0  0  0
 27 29  1  0  0  0  0
 28 27  1  0  0  0  0
 30 32  1  0  0  0  0
 30 35  1  0  0  0  0
 31 30  1  0  0  0  0
 33 39  1  0  0  0  0
 33 38  1  0  0  0  0
 34 33  2  0  0  0  0
 35 34  1  0  0  0  0
 35 36  2  0  0  0  0
 36 37  1  0  0  0  0
 37 41  1  0  0  0  0
 37 38  2  0  0  0  0
 40 34  1  0  0  0  0
M  END
>  <minimizedAffinity>
-4.734828

$$$$

 OpenBabel03272509273D

 41 43  0  0  1  0  0  0  0  0999 V2000
   37.5110   22.6850   32.8310 C   0  0  2  0  0  0  0  0  0  0  0  0
   37.6530   24.1940   32.9490 C   0  0  0  0  0  0  0  0  0  0  0  0
   36.6760   24.9000   32.0310 C   0  0  0  0  0  0  0  0  0  0  0  0
   36.5100   24.0810   30.7910 C   0  0  0  0  0  0  0  0  0  0  0  0
   35.6000   22.9300   31.2030 C   0  0  0  0  0  0  0  0  0  0  0  0
   36.1590   22.2730   32.3990 C   0  0  1  0  0  0  0  0  0  0  0  0
   38.3540   22.3640   32.2010 H   0  0  0  0  0  0  0  0  0  0  0  0
   38.6880   24.5360   32.7750 H   0  0  0  0  0  0  0  0  0  0  0  0
   37.4070   24.5250   33.9870 H   0  0  0  0  0  0  0  0  0  0  0  0
   35.6740   24.9290   32.5430 H   0  0  0  0  0  0  0  0  0  0  0  0
   36.9690   25.9320   31.8560 H   0  0  0  0  0  0  0  0  0  0  0  0
   36.0690   24.6300   29.9370 H   0  0  0  0  0  0  0  0  0  0  0  0
   37.4880   23.6270   30.5370 H   0  0  0  0  0  0  0  0  0  0  0  0
   34.6100   23.4290   31.4220 H   0  0  0  0  0  0  0  0  0  0  0  0
   35.4500   22.3720   30.2900 H   0  0  0  0  0  0  0  0  0  0  0  0
   35.4590   22.3870   33.2350 H   0  0  0  0  0  0  0  0  0  0  0  0
   36.1370   20.8710   32.0010 N   0  0  1  0  0  0  0  0  0  0  0  0
   34.7880   20.3850   32.0930 C   0  0  0  0  0  3  0  0  0  0  0  0
   34.4270   20.7060   33.1090 H   0  0  0  0  0  0  0  0  0  0  0  0
   34.7980   18.8790   31.9840 C   0  0  0  0  0  3  0  0  0  0  0  0
   33.8790   18.5840   31.4200 H   0  0  0  0  0  0  0  0  0  0  0  0
   35.9990   18.4140   31.3760 N   0  0  0  0  0  0  0  0  0  0  0  0
   35.7990   17.4490   30.9800 H   0  0  0  0  0  0  0  0  0  0  0  0
   36.4120   19.2150   30.2400 C   0  0  0  0  0  2  0  0  0  0  0  0
   36.6960   20.6450   30.7020 C   0  0  0  0  0  2  0  0  0  0  0  0
   37.8150   22.0250   34.4950 S   0  0  0  0  0  0  0  0  0  0  0  0
   39.4960   22.2870   35.0790 C   0  0  0  0  0  0  0  0  0  0  0  0
   40.1090   22.5680   34.2160 H   0  0  0  0  0  0  0  0  0  0  0  0
   39.8890   21.2480   35.3140 H   0  0  0  0  0  0  0  0  0  0  0  0
   39.5300   23.1700   36.2750 C   0  0  0  0  0  0  0  0  0  0  0  0
   38.7980   22.8800   37.0610 H   0  0  0  0  0  0  0  0  0  0  0  0
   40.5680   23.1340   36.6780 H   0  0  0  0  0  0  0  0  0  0  0  0
   38.2220   26.6640   36.0720 C   0  0  0  0  0  0  0  0  0  0  0  0
   38.3320   25.3190   36.4270 C   0  0  0  0  0  0  0  0  0  0  0  0
   39.3810   24.5740   35.9740 C   0  0  0  0  0  0  0  0  0  0  0  0
   40.3060   25.2160   35.1670 N   0  0  0  0  0  0  0  0  0  0  0  0
   40.1820   26.5020   34.8410 C   0  0  0  0  0  0  0  0  0  0  0  0
   39.1480   27.2500   35.2800 N   0  0  0  0  0  0  0  0  0  0  0  0
   37.4190   27.3070   36.3930 H   0  0  0  0  0  0  0  0  0  0  0  0
   37.5180   25.0200   37.0650 H   0  0  0  0  0  0  0  0  0  0  0  0
   40.9090   27.0010   34.2080 H   0  0  0  0  0  0  0  0  0  0  0  0
  1  7  1  6  0  0  0
  1  2  1  0  0  0  0
  1 26  1  0  0  0  0
  2  9  1  0  0  0  0
  3 10  1  0  0  0  0
  3  2  1  0  0  0  0
  4  5  1  0  0  0  0
  4  3  1  0  0  0  0
  5 14  1  0  0  0  0
  5  6  1  0  0  0  0
  6  1  1  0  0  0  0
  6 16  1  1  0  0  0
  8  2  1  0  0  0  0
 11  3  1  0  0  0  0
 12  4  1  0  0  0  0
 13  4  1  0  0  0  0
 15  5  1  0  0  0  0
 17 25  1  6  0  0  0
 17 18  1  0  0  0  0
 17  6  1  0  0  0  0
 18 19  1  0  0  0  0
 20 18  1  0  0  0  0
 21 20  1  0  0  0  0
 22 20  1  0  0  0  0
 23 22  1  0  0  0  0
 24 25  1  0  0  0  0
 24 22  1  0  0  0  0
 26 27  1  0  0  0  0
 27 29  1  0  0  0  0
 27 30  1  0  0  0  0
 28 27  1  0  0  0  0
 30 32  1  0  0  0  0
 30 31  1  0  0  0  0
 33 39  1  0  0  0  0
 33 34  1  0  0  0  0
 34 40  1  0  0  0  0
 35 30  1  0  0  0  0
 35 34  2  0  0  0  0
 36 35  1  0  0  0  0
 37 36  2  0  0  0  0
 37 38  1  0  0  0  0
 38 33  2  0  0  0  0
 41 37  1  0  0  0  0
M  END
>  <minimizedAffinity>
-4.70131397

$$$$

 OpenBabel03272509273D

 41 43  0  0  1  0  0  0  0  0999 V2000
   35.0590   30.7750   34.8060 C   0  0  2  0  0  0  0  0  0  0  0  0
   35.9800   31.5000   35.7740 C   0  0  0  0  0  0  0  0  0  0  0  0
   35.1810   32.2280   36.8360 C   0  0  0  0  0  0  0  0  0  0  0  0
   33.9110   32.7230   36.2220 C   0  0  0  0  0  0  0  0  0  0  0  0
   33.0230   31.4880   36.1130 C   0  0  0  0  0  0  0  0  0  0  0  0
   33.7610   30.4190   35.4160 C   0  0  1  0  0  0  0  0  0  0  0  0
   35.0290   31.4080   33.9070 H   0  0  0  0  0  0  0  0  0  0  0  0
   36.6810   32.1820   35.2600 H   0  0  0  0  0  0  0  0  0  0  0  0
   36.6290   30.7680   36.3120 H   0  0  0  0  0  0  0  0  0  0  0  0
   34.8950   31.4820   37.6290 H   0  0  0  0  0  0  0  0  0  0  0  0
   35.7760   32.9940   37.3260 H   0  0  0  0  0  0  0  0  0  0  0  0
   33.4000   33.5130   36.8040 H   0  0  0  0  0  0  0  0  0  0  0  0
   34.1260   33.0420   35.1820 H   0  0  0  0  0  0  0  0  0  0  0  0
   32.8030   31.2150   37.1880 H   0  0  0  0  0  0  0  0  0  0  0  0
   32.0940   31.8670   35.7110 H   0  0  0  0  0  0  0  0  0  0  0  0
   33.8990   29.5710   36.0970 H   0  0  0  0  0  0  0  0  0  0  0  0
   32.7970   30.0100   34.4030 N   0  0  1  0  0  0  0  0  0  0  0  0
   31.7810   29.2080   35.0260 C   0  0  0  0  0  3  0  0  0  0  0  0
   32.3410   28.4460   35.6360 H   0  0  0  0  0  0  0  0  0  0  0  0
   30.9600   28.5310   33.9560 C   0  0  0  0  0  3  0  0  0  0  0  0
   29.9050   28.4940   34.3240 H   0  0  0  0  0  0  0  0  0  0  0  0
   31.0900   29.2020   32.7050 N   0  0  0  0  0  0  0  0  0  0  0  0
   30.2390   28.9510   32.1230 H   0  0  0  0  0  0  0  0  0  0  0  0
   31.0570   30.6470   32.8260 C   0  0  0  0  0  2  0  0  0  0  0  0
   32.2340   31.1130   33.6820 C   0  0  0  0  0  2  0  0  0  0  0  0
   35.9230   29.2470   34.3470 S   0  0  0  0  0  0  0  0  0  0  0  0
   35.7650   28.8220   32.6060 C   0  0  0  0  0  0  0  0  0  0  0  0
   35.5290   29.7410   32.0590 H   0  0  0  0  0  0  0  0  0  0  0  0
   34.7860   28.2510   32.5330 H   0  0  0  0  0  0  0  0  0  0  0  0
   36.9130   28.0040   32.1330 C   0  0  0  0  0  0  0  0  0  0  0  0
   37.3970   28.4080   31.2170 H   0  0  0  0  0  0  0  0  0  0  0  0
   37.6470   27.9550   32.9710 H   0  0  0  0  0  0  0  0  0  0  0  0
   35.2830   24.8250   31.0400 C   0  0  0  0  0  0  0  0  0  0  0  0
   35.5590   26.1880   31.1630 C   0  0  0  0  0  0  0  0  0  0  0  0
   36.6010   26.6080   31.9370 C   0  0  0  0  0  0  0  0  0  0  0  0
   37.3470   25.6310   32.5720 N   0  0  0  0  0  0  0  0  0  0  0  0
   37.0660   24.3340   32.4410 C   0  0  0  0  0  0  0  0  0  0  0  0
   36.0380   23.9040   31.6790 N   0  0  0  0  0  0  0  0  0  0  0  0
   34.4760   24.4270   30.4470 H   0  0  0  0  0  0  0  0  0  0  0  0
   34.8690   26.7760   30.5830 H   0  0  0  0  0  0  0  0  0  0  0  0
   37.6530   23.5720   32.9400 H   0  0  0  0  0  0  0  0  0  0  0  0
  1  7  1  6  0  0  0
  1  6  1  0  0  0  0
  1  2  1  0  0  0  0
  2  9  1  0  0  0  0
  2  3  1  0  0  0  0
  3 11  1  0  0  0  0
  3 10  1  0  0  0  0
  4 12  1  0  0  0  0
  4  3  1  0  0  0  0
  5  4  1  0  0  0  0
  5 14  1  0  0  0  0
  6 16  1  1  0  0  0
  6  5  1  0  0  0  0
  8  2  1  0  0  0  0
 13  4  1  0  0  0  0
 15  5  1  0  0  0  0
 17 25  1  1  0  0  0
 17 18  1  0  0  0  0
 17  6  1  0  0  0  0
 18 19  1  0  0  0  0
 20 21  1  0  0  0  0
 20 18  1  0  0  0  0
 22 24  1  0  0  0  0
 22 20  1  0  0  0  0
 23 22  1  0  0  0  0
 24 25  1  0  0  0  0
 26  1  1  0  0  0  0
 27 26  1  0  0  0  0
 28 27  1  0  0  0  0
 29 27  1  0  0  0  0
 30 27  1  0  0  0  0
 30 32  1  0  0  0  0
 31 30  1  0  0  0  0
 33 34  2  0  0  0  0
 33 38  1  0  0  0  0
 34 35  1  0  0  0  0
 35 30  1  0  0  0  0
 35 36  2  0  0  0  0
 37 36  1  0  0  0  0
 37 41  1  0  0  0  0
 38 37  2  0  0  0  0
 39 33  1  0  0  0  0
 40 34  1  0  0  0  0
M  END
>  <minimizedAffinity>
-4.69967413

$$$$

 OpenBabel03272509273D

 41 43  0  0  1  0  0  0  0  0999 V2000
   38.7920   25.5710   33.8490 C   0  0  2  0  0  0  0  0  0  0  0  0
   39.2560   25.3010   35.2720 C   0  0  0  0  0  0  0  0  0  0  0  0
   38.4710   26.1380   36.2620 C   0  0  0  0  0  0  0  0  0  0  0  0
   38.1520   27.4540   35.6280 C   0  0  0  0  0  0  0  0  0  0  0  0
   37.0070   27.1550   34.6660 C   0  0  0  0  0  0  0  0  0  0  0  0
   37.3910   26.0350   33.7870 C   0  0  1  0  0  0  0  0  0  0  0  0
   39.5560   26.2350   33.4180 H   0  0  0  0  0  0  0  0  0  0  0  0
   40.3430   25.4450   35.3970 H   0  0  0  0  0  0  0  0  0  0  0  0
   39.0700   24.2340   35.5430 H   0  0  0  0  0  0  0  0  0  0  0  0
   37.4900   25.6200   36.4570 H   0  0  0  0  0  0  0  0  0  0  0  0
   38.9840   26.2080   37.2180 H   0  0  0  0  0  0  0  0  0  0  0  0
   37.8550   28.2450   36.3430 H   0  0  0  0  0  0  0  0  0  0  0  0
   39.0130   27.7570   35.0000 H   0  0  0  0  0  0  0  0  0  0  0  0
   36.1460   26.8810   35.3440 H   0  0  0  0  0  0  0  0  0  0  0  0
   36.7550   28.1200   34.2490 H   0  0  0  0  0  0  0  0  0  0  0  0
   36.7180   25.1880   33.9660 H   0  0  0  0  0  0  0  0  0  0  0  0
   37.0710   26.5740   32.4710 N   0  0  1  0  0  0  0  0  0  0  0  0
   35.8690   25.9500   31.9940 C   0  0  0  0  0  3  0  0  0  0  0  0
   36.0280   24.8460   32.1470 H   0  0  0  0  0  0  0  0  0  0  0  0
   35.6980   26.2630   30.5270 C   0  0  0  0  0  3  0  0  0  0  0  0
   34.6020   26.3840   30.3410 H   0  0  0  0  0  0  0  0  0  0  0  0
   36.4570   27.4090   30.1530 N   0  0  0  0  0  0  0  0  0  0  0  0
   36.0180   27.8040   29.2700 H   0  0  0  0  0  0  0  0  0  0  0  0
   36.3880   28.4830   31.1260 C   0  0  0  0  0  2  0  0  0  0  0  0
   36.9710   28.0030   32.4550 C   0  0  0  0  0  2  0  0  0  0  0  0
   38.9170   23.9850   32.9760 S   0  0  0  0  0  0  0  0  0  0  0  0
   37.6440   22.8020   33.4400 C   0  0  0  0  0  0  0  0  0  0  0  0
   37.2230   23.1250   34.3990 H   0  0  0  0  0  0  0  0  0  0  0  0
   38.2110   21.8650   33.7400 H   0  0  0  0  0  0  0  0  0  0  0  0
   36.7030   22.5390   32.3180 C   0  0  0  0  0  0  0  0  0  0  0  0
   35.7890   23.1730   32.3490 H   0  0  0  0  0  0  0  0  0  0  0  0
   37.2660   22.7140   31.3720 H   0  0  0  0  0  0  0  0  0  0  0  0
   35.4440   19.0920   33.0160 C   0  0  0  0  0  0  0  0  0  0  0  0
   35.7550   20.4410   33.1960 C   0  0  0  0  0  0  0  0  0  0  0  0
   36.3240   21.1530   32.1810 C   0  0  0  0  0  0  0  0  0  0  0  0
   36.5640   20.4790   30.9960 N   0  0  0  0  0  0  0  0  0  0  0  0
   36.2580   19.1900   30.8460 C   0  0  0  0  0  0  0  0  0  0  0  0
   35.6960   18.4720   31.8420 N   0  0  0  0  0  0  0  0  0  0  0  0
   34.9950   18.4720   33.7760 H   0  0  0  0  0  0  0  0  0  0  0  0
   35.4800   20.7720   34.1820 H   0  0  0  0  0  0  0  0  0  0  0  0
   36.4480   18.6650   29.9160 H   0  0  0  0  0  0  0  0  0  0  0  0
  1  7  1  6  0  0  0
  1  2  1  0  0  0  0
  2  8  1  0  0  0  0
  2  9  1  0  0  0  0
  2  3  1  0  0  0  0
  3 10  1  0  0  0  0
  3 11  1  0  0  0  0
  4  3  1  0  0  0  0
  4 12  1  0  0  0  0
  5 14  1  0  0  0  0
  5  4  1  0  0  0  0
  6  1  1  0  0  0  0
  6 16  1  1  0  0  0
  6  5  1  0  0  0  0
 13  4  1  0  0  0  0
 15  5  1  0  0  0  0
 17 25  1  1  0  0  0
 17  6  1  0  0  0  0
 18 19  1  0  0  0  0
 18 17  1  0  0  0  0
 20 18  1  0  0  0  0
 21 20  1  0  0  0  0
 22 20  1  0  0  0  0
 22 24  1  0  0  0  0
 23 22  1  0  0  0  0
 24 25  1  0  0  0  0
 26 27  1  0  0  0  0
 26  1  1  0  0  0  0
 27 29  1  0  0  0  0
 27 28  1  0  0  0  0
 30 31  1  0  0  0  0
 30 27  1  0  0  0  0
 32 30  1  0  0  0  0
 33 34  1  0  0  0  0
 33 39  1  0  0  0  0
 34 40  1  0  0  0  0
 35 30  1  0  0  0  0
 35 34  2  0  0  0  0
 36 35  1  0  0  0  0
 37 36  2  0  0  0  0
 37 38  1  0  0  0  0
 38 33  2  0  0  0  0
 41 37  1  0  0  0  0
M  END
>  <minimizedAffinity>
-4.67798328

$$$$
