
 OpenBabel03272507373D

 23 24  0  0  1  0  0  0  0  0999 V2000
   36.8320   30.6070   46.7670 C   0  0  0  0  0  0  0  0  0  0  0  0
   38.0930   30.7900   46.1950 C   0  0  0  0  0  0  0  0  0  0  0  0
   38.2400   30.6070   44.8270 C   0  0  0  0  0  0  0  0  0  0  0  0
   37.1320   30.2580   44.1040 N   0  0  0  0  0  0  0  0  0  0  0  0
   35.9160   30.0880   44.6880 C   0  0  0  0  0  0  0  0  0  0  0  0
   35.7840   30.2640   46.0050 N   0  0  0  0  0  0  0  0  0  0  0  0
   39.2020   30.7360   44.3210 H   0  0  0  0  0  0  0  0  0  0  0  0
   35.0870   29.8140   44.0730 H   0  0  0  0  0  0  0  0  0  0  0  0
   39.9040   32.3690   46.5530 C   0  0  0  0  0  0  0  0  0  0  0  0
   39.7170   33.3120   45.7130 O   0  0  0  0  0  0  0  0  0  0  0  0
   39.2540   31.1430   46.8760 N   0  0  0  0  0  0  0  0  0  0  0  0
   40.8000   32.7550   47.0480 H   0  0  0  0  0  0  0  0  0  0  0  0
   39.7470   30.6390   47.6150 H   0  0  0  0  0  0  0  0  0  0  0  0
   36.8530   30.8230   48.1290 O   0  0  0  0  0  0  0  0  0  0  0  0
   35.7870   31.1660   50.1630 H   0  0  0  0  0  0  0  0  0  0  0  0
   35.6490   30.1370   50.0390 N   0  0  0  0  0  0  0  0  0  0  0  0
   36.5720   29.7350   48.9970 C   0  0  2  0  0  0  0  0  0  0  0  0
   37.8980   29.3850   49.6790 C   0  0  0  0  0  0  0  0  0  0  0  0
   38.7030   29.4300   48.9120 H   0  0  0  0  0  0  0  0  0  0  0  0
   38.1170   30.3710   50.7090 N   0  0  0  0  0  0  0  0  0  0  0  0
   39.1260   30.4590   50.9620 H   0  0  0  0  0  0  0  0  0  0  0  0
   37.2830   30.0750   51.8470 C   0  0  0  0  0  0  0  0  0  0  0  0
   35.9610   29.5410   51.3260 C   0  0  0  0  0  0  0  0  0  0  0  0
  1 14  1  0  0  0  0
  2  1  1  0  0  0  0
  2 11  1  0  0  0  0
  3  2  2  0  0  0  0
  4  5  2  0  0  0  0
  4  3  1  0  0  0  0
  5  6  1  0  0  0  0
  6  1  2  0  0  0  0
  7  3  1  0  0  0  0
  8  5  1  0  0  0  0
  9 11  1  0  0  0  0
  9 12  1  0  0  0  0
 10  9  2  0  0  0  0
 11 13  1  0  0  0  0
 16 15  1  0  0  0  0
 16 23  1  0  0  0  0
 17 14  1  6  0  0  0
 17 18  1  0  0  0  0
 17 16  1  0  0  0  0
 18 20  1  0  0  0  0
 19 18  1  0  0  0  0
 20 21  1  0  0  0  0
 20 22  1  0  0  0  0
 23 22  1  0  0  0  0
M  END
>  <minimizedAffinity>
-4.1317215

>  <minimizedRMSD>
4.43303013

$$$$
