
 OpenBabel03262523073D

 41 45  0  0  0  0  0  0  0  0999 V2000
   37.4270   27.3500   33.2780 C   0  0  0  0  0  0  0  0  0  0  0  0
   37.0670   27.1460   31.9650 C   0  0  0  0  0  0  0  0  0  0  0  0
   35.9670   27.7980   31.4720 C   0  0  0  0  0  0  0  0  0  0  0  0
   35.2540   28.6290   32.2790 N   0  0  0  0  0  0  0  0  0  0  0  0
   35.6310   28.8010   33.5360 C   0  0  0  0  0  0  0  0  0  0  0  0
   36.7150   28.1740   34.0680 N   0  0  0  0  0  0  0  0  0  0  0  0
   37.6410   26.4860   31.3440 H   0  0  0  0  0  0  0  0  0  0  0  0
   35.7020   27.6260   30.4460 H   0  0  0  0  0  0  0  0  0  0  0  0
   34.8740   29.6910   34.4160 C   0  0  0  0  0  0  0  0  0  0  0  0
   33.5470   29.5040   34.6750 C   0  0  0  0  0  0  0  0  0  0  0  0
   32.7240   30.2620   35.4770 C   0  0  0  0  0  0  0  0  0  0  0  0
   33.3700   31.3410   36.0770 C   0  0  0  0  0  0  0  0  0  0  0  0
   32.6190   32.1360   36.8860 N   0  0  0  0  0  0  0  0  0  0  0  0
   33.1410   33.1980   37.5100 C   0  0  0  0  0  0  0  0  0  0  0  0
   34.4780   33.5050   37.3360 C   0  0  0  0  0  0  0  0  0  0  0  0
   35.2410   32.6990   36.5160 C   0  0  0  0  0  0  0  0  0  0  0  0
   34.7130   31.5910   35.8600 C   0  0  0  0  0  0  0  0  0  0  0  0
   35.4630   30.7820   35.0420 C   0  0  0  0  0  0  0  0  0  0  0  0
   33.0890   28.6440   34.1810 H   0  0  0  0  0  0  0  0  0  0  0  0
   31.6790   30.0270   35.6180 H   0  0  0  0  0  0  0  0  0  0  0  0
   32.5970   33.8620   38.1600 H   0  0  0  0  0  0  0  0  0  0  0  0
   34.9560   34.3540   37.8170 H   0  0  0  0  0  0  0  0  0  0  0  0
   36.2890   32.8930   36.3460 H   0  0  0  0  0  0  0  0  0  0  0  0
   36.5120   30.9980   34.8880 H   0  0  0  0  0  0  0  0  0  0  0  0
   40.8840   26.4450   34.1270 C   0  0  0  0  0  0  0  0  0  0  0  0
   40.7250   25.3720   34.9940 C   0  0  0  0  0  0  0  0  0  0  0  0
   39.4040   24.9620   35.2830 C   0  0  0  0  0  0  0  0  0  0  0  0
   38.3980   25.6500   34.6900 N   0  0  0  0  0  0  0  0  0  0  0  0
   38.5920   26.6810   33.8590 C   0  0  0  0  0  0  0  0  0  0  0  0
   39.8450   27.0640   33.5900 N   0  0  0  0  0  0  0  0  0  0  0  0
   41.9230   26.7000   33.9550 H   0  0  0  0  0  0  0  0  0  0  0  0
   41.4720   24.7870   35.4950 H   0  0  0  0  0  0  0  0  0  0  0  0
   38.9940   23.8970   36.1340 N   0  0  0  0  0  0  0  0  0  0  0  0
   37.7830   23.9510   36.9690 C   0  0  0  0  0  3  0  0  0  0  0  0
   37.2500   24.9130   36.8670 H   0  0  0  0  0  0  0  0  0  0  0  0
   38.2650   23.8490   38.3950 C   0  0  0  0  0  3  0  0  0  0  0  0
   37.3480   23.6780   39.0280 H   0  0  0  0  0  0  0  0  0  0  0  0
   39.1040   22.6890   38.6050 N   0  0  0  0  0  0  0  0  0  0  0  0
   39.2650   22.4690   39.5900 H   0  0  0  0  0  0  0  0  0  0  0  0
   40.2240   22.6310   37.7270 C   0  0  0  0  0  2  0  0  0  0  0  0
   39.7050   22.6410   36.2840 C   0  0  0  0  0  2  0  0  0  0  0  0
  1 29  1  0  0  0  0
  1  6  1  0  0  0  0
  2  1  2  0  0  0  0
  3  2  1  0  0  0  0
  3  4  2  0  0  0  0
  4  5  1  0  0  0  0
  5  6  2  0  0  0  0
  5  9  1  0  0  0  0
  7  2  1  0  0  0  0
  8  3  1  0  0  0  0
  9 10  2  0  0  0  0
  9 18  1  0  0  0  0
 10 11  1  0  0  0  0
 11 20  1  0  0  0  0
 11 12  2  0  0  0  0
 12 13  1  0  0  0  0
 13 14  2  0  0  0  0
 14 21  1  0  0  0  0
 15 14  1  0  0  0  0
 15 22  1  0  0  0  0
 16 15  2  0  0  0  0
 17 12  1  0  0  0  0
 17 16  1  0  0  0  0
 18 17  2  0  0  0  0
 19 10  1  0  0  0  0
 23 16  1  0  0  0  0
 24 18  1  0  0  0  0
 25 26  1  0  0  0  0
 26 27  2  0  0  0  0
 26 32  1  0  0  0  0
 27 33  1  0  0  0  0
 28 27  1  0  0  0  0
 29 28  2  0  0  0  0
 30 29  1  0  0  0  0
 30 25  2  0  0  0  0
 31 25  1  0  0  0  0
 33 41  1  0  0  0  0
 33 34  1  0  0  0  0
 34 36  1  0  0  0  0
 35 34  1  0  0  0  0
 36 38  1  0  0  0  0
 36 37  1  0  0  0  0
 38 39  1  0  0  0  0
 40 38  1  0  0  0  0
 41 40  1  0  0  0  0
M  END
>  <minimizedAffinity>
-7.52066708

$$$$

 OpenBabel03262523073D

 41 45  0  0  0  0  0  0  0  0999 V2000
   36.9400   26.6230   32.3850 C   0  0  0  0  0  0  0  0  0  0  0  0
   37.3350   27.0780   31.1480 C   0  0  0  0  0  0  0  0  0  0  0  0
   36.9770   28.3430   30.7630 C   0  0  0  0  0  0  0  0  0  0  0  0
   36.2430   29.1240   31.6010 N   0  0  0  0  0  0  0  0  0  0  0  0
   35.8810   28.6520   32.7840 C   0  0  0  0  0  0  0  0  0  0  0  0
   36.2140   27.4020   33.2070 N   0  0  0  0  0  0  0  0  0  0  0  0
   37.9130   26.4480   30.5010 H   0  0  0  0  0  0  0  0  0  0  0  0
   37.2950   28.6800   29.7950 H   0  0  0  0  0  0  0  0  0  0  0  0
   35.0910   29.4800   33.6960 C   0  0  0  0  0  0  0  0  0  0  0  0
   33.7270   29.4440   33.7140 C   0  0  0  0  0  0  0  0  0  0  0  0
   32.8700   30.1660   34.5150 C   0  0  0  0  0  0  0  0  0  0  0  0
   33.5230   31.0230   35.4000 C   0  0  0  0  0  0  0  0  0  0  0  0
   32.7400   31.7680   36.2260 N   0  0  0  0  0  0  0  0  0  0  0  0
   33.2650   32.6220   37.1120 C   0  0  0  0  0  0  0  0  0  0  0  0
   34.6380   32.7580   37.2010 C   0  0  0  0  0  0  0  0  0  0  0  0
   35.4340   32.0000   36.3630 C   0  0  0  0  0  0  0  0  0  0  0  0
   34.9030   31.1090   35.4360 C   0  0  0  0  0  0  0  0  0  0  0  0
   35.6850   30.3520   34.5990 C   0  0  0  0  0  0  0  0  0  0  0  0
   33.2650   28.7570   33.0020 H   0  0  0  0  0  0  0  0  0  0  0  0
   31.7970   30.0640   34.4520 H   0  0  0  0  0  0  0  0  0  0  0  0
   32.6970   33.2360   37.7890 H   0  0  0  0  0  0  0  0  0  0  0  0
   35.1200   33.4330   37.9010 H   0  0  0  0  0  0  0  0  0  0  0  0
   36.5110   32.0670   36.3910 H   0  0  0  0  0  0  0  0  0  0  0  0
   36.7620   30.4370   34.6470 H   0  0  0  0  0  0  0  0  0  0  0  0
   37.3870   22.9810   32.5570 C   0  0  0  0  0  0  0  0  0  0  0  0
   37.9860   22.7950   33.7960 C   0  0  0  0  0  0  0  0  0  0  0  0
   38.2340   23.9480   34.5750 C   0  0  0  0  0  0  0  0  0  0  0  0
   37.8670   25.1410   34.0500 N   0  0  0  0  0  0  0  0  0  0  0  0
   37.2920   25.2810   32.8500 C   0  0  0  0  0  0  0  0  0  0  0  0
   37.0600   24.1860   32.1170 N   0  0  0  0  0  0  0  0  0  0  0  0
   37.2300   22.0540   32.0200 H   0  0  0  0  0  0  0  0  0  0  0  0
   38.3000   21.8840   34.2690 H   0  0  0  0  0  0  0  0  0  0  0  0
   38.8320   24.0080   35.8670 N   0  0  0  0  0  0  0  0  0  0  0  0
   40.1960   23.5340   36.1470 C   0  0  0  0  0  3  0  0  0  0  0  0
   40.6850   23.1180   35.2480 H   0  0  0  0  0  0  0  0  0  0  0  0
   40.0440   22.4110   37.1410 C   0  0  0  0  0  3  0  0  0  0  0  0
   41.0800   22.1810   37.5230 H   0  0  0  0  0  0  0  0  0  0  0  0
   39.2830   22.8120   38.3040 N   0  0  0  0  0  0  0  0  0  0  0  0
   39.3450   22.1560   39.0850 H   0  0  0  0  0  0  0  0  0  0  0  0
   37.9960   23.3360   37.9890 C   0  0  0  0  0  2  0  0  0  0  0  0
   38.1830   24.5350   37.0520 C   0  0  0  0  0  2  0  0  0  0  0  0
  1 29  1  0  0  0  0
  1  6  1  0  0  0  0
  2  1  2  0  0  0  0
  3  2  1  0  0  0  0
  3  4  2  0  0  0  0
  4  5  1  0  0  0  0
  5  6  2  0  0  0  0
  5  9  1  0  0  0  0
  7  2  1  0  0  0  0
  8  3  1  0  0  0  0
  9 10  2  0  0  0  0
  9 18  1  0  0  0  0
 10 11  1  0  0  0  0
 11 12  2  0  0  0  0
 12 17  1  0  0  0  0
 12 13  1  0  0  0  0
 13 14  2  0  0  0  0
 14 15  1  0  0  0  0
 14 21  1  0  0  0  0
 15 22  1  0  0  0  0
 16 23  1  0  0  0  0
 16 15  2  0  0  0  0
 17 16  1  0  0  0  0
 18 24  1  0  0  0  0
 18 17  2  0  0  0  0
 19 10  1  0  0  0  0
 20 11  1  0  0  0  0
 25 26  1  0  0  0  0
 26 32  1  0  0  0  0
 26 27  2  0  0  0  0
 27 33  1  0  0  0  0
 28 27  1  0  0  0  0
 29 28  2  0  0  0  0
 30 25  2  0  0  0  0
 30 29  1  0  0  0  0
 31 25  1  0  0  0  0
 33 34  1  0  0  0  0
 33 41  1  0  0  0  0
 34 36  1  0  0  0  0
 35 34  1  0  0  0  0
 36 37  1  0  0  0  0
 36 38  1  0  0  0  0
 38 39  1  0  0  0  0
 40 38  1  0  0  0  0
 41 40  1  0  0  0  0
M  END
>  <minimizedAffinity>
-7.11933088

$$$$

 OpenBabel03262523073D

 41 45  0  0  0  0  0  0  0  0999 V2000
   36.0720   28.9420   33.6030 C   0  0  0  0  0  0  0  0  0  0  0  0
   36.3070   29.1040   32.2560 C   0  0  0  0  0  0  0  0  0  0  0  0
   37.1900   28.2620   31.6330 C   0  0  0  0  0  0  0  0  0  0  0  0
   37.8170   27.2880   32.3470 N   0  0  0  0  0  0  0  0  0  0  0  0
   37.5660   27.1630   33.6410 C   0  0  0  0  0  0  0  0  0  0  0  0
   36.6970   27.9770   34.3000 N   0  0  0  0  0  0  0  0  0  0  0  0
   35.8040   29.8780   31.7090 H   0  0  0  0  0  0  0  0  0  0  0  0
   37.3590   28.4030   30.5820 H   0  0  0  0  0  0  0  0  0  0  0  0
   38.2320   26.1210   34.4220 C   0  0  0  0  0  0  0  0  0  0  0  0
   39.3290   25.4540   33.9600 C   0  0  0  0  0  0  0  0  0  0  0  0
   40.0450   24.4590   34.5890 C   0  0  0  0  0  0  0  0  0  0  0  0
   39.5510   24.1290   35.8500 C   0  0  0  0  0  0  0  0  0  0  0  0
   40.2090   23.1540   36.5330 N   0  0  0  0  0  0  0  0  0  0  0  0
   39.8170   22.7610   37.7500 C   0  0  0  0  0  0  0  0  0  0  0  0
   38.7170   23.3550   38.3400 C   0  0  0  0  0  0  0  0  0  0  0  0
   38.0480   24.3460   37.6480 C   0  0  0  0  0  0  0  0  0  0  0  0
   38.4430   24.7650   36.3810 C   0  0  0  0  0  0  0  0  0  0  0  0
   37.7860   25.7490   35.6840 C   0  0  0  0  0  0  0  0  0  0  0  0
   39.6760   25.7500   32.9680 H   0  0  0  0  0  0  0  0  0  0  0  0
   40.9060   23.9920   34.1340 H   0  0  0  0  0  0  0  0  0  0  0  0
   40.2970   21.9970   38.3370 H   0  0  0  0  0  0  0  0  0  0  0  0
   38.3530   23.0780   39.3250 H   0  0  0  0  0  0  0  0  0  0  0  0
   37.1840   24.8430   38.0610 H   0  0  0  0  0  0  0  0  0  0  0  0
   36.9220   26.2310   36.1200 H   0  0  0  0  0  0  0  0  0  0  0  0
   34.5790   31.8470   35.2830 C   0  0  0  0  0  0  0  0  0  0  0  0
   33.3310   31.3790   35.6730 C   0  0  0  0  0  0  0  0  0  0  0  0
   33.0110   30.0420   35.3480 C   0  0  0  0  0  0  0  0  0  0  0  0
   33.9470   29.3240   34.6810 N   0  0  0  0  0  0  0  0  0  0  0  0
   35.1400   29.8120   34.3210 C   0  0  0  0  0  0  0  0  0  0  0  0
   35.4380   31.0790   34.6320 N   0  0  0  0  0  0  0  0  0  0  0  0
   34.7520   32.8780   35.5670 H   0  0  0  0  0  0  0  0  0  0  0  0
   32.5480   31.8900   36.1990 H   0  0  0  0  0  0  0  0  0  0  0  0
   31.8040   29.3450   35.6410 N   0  0  0  0  0  0  0  0  0  0  0  0
   31.4950   28.7870   36.9670 C   0  0  0  0  0  3  0  0  0  0  0  0
   32.3120   28.9600   37.6910 H   0  0  0  0  0  0  0  0  0  0  0  0
   31.3750   27.2970   36.7670 C   0  0  0  0  0  3  0  0  0  0  0  0
   30.9350   26.8830   37.7190 H   0  0  0  0  0  0  0  0  0  0  0  0
   30.4280   26.9630   35.7250 N   0  0  0  0  0  0  0  0  0  0  0  0
   30.1600   25.9760   35.7120 H   0  0  0  0  0  0  0  0  0  0  0  0
   30.7150   27.5810   34.4750 C   0  0  0  0  0  2  0  0  0  0  0  0
   30.7400   29.1000   34.6850 C   0  0  0  0  0  2  0  0  0  0  0  0
  1  6  1  0  0  0  0
  1 29  1  0  0  0  0
  2  1  2  0  0  0  0
  3  2  1  0  0  0  0
  3  4  2  0  0  0  0
  4  5  1  0  0  0  0
  5  6  2  0  0  0  0
  5  9  1  0  0  0  0
  7  2  1  0  0  0  0
  8  3  1  0  0  0  0
  9 18  1  0  0  0  0
 10  9  2  0  0  0  0
 10 11  1  0  0  0  0
 11 12  2  0  0  0  0
 12 17  1  0  0  0  0
 12 13  1  0  0  0  0
 13 14  2  0  0  0  0
 14 21  1  0  0  0  0
 14 15  1  0  0  0  0
 15 22  1  0  0  0  0
 16 23  1  0  0  0  0
 16 15  2  0  0  0  0
 17 16  1  0  0  0  0
 18 24  1  0  0  0  0
 18 17  2  0  0  0  0
 19 10  1  0  0  0  0
 20 11  1  0  0  0  0
 25 31  1  0  0  0  0
 25 26  1  0  0  0  0
 26 32  1  0  0  0  0
 27 33  1  0  0  0  0
 27 26  2  0  0  0  0
 28 27  1  0  0  0  0
 29 30  1  0  0  0  0
 29 28  2  0  0  0  0
 30 25  2  0  0  0  0
 33 34  1  0  0  0  0
 34 35  1  0  0  0  0
 36 34  1  0  0  0  0
 36 37  1  0  0  0  0
 38 36  1  0  0  0  0
 39 38  1  0  0  0  0
 40 41  1  0  0  0  0
 40 38  1  0  0  0  0
 41 33  1  0  0  0  0
M  END
>  <minimizedAffinity>
-6.87049341

$$$$

 OpenBabel03262523073D

 41 45  0  0  0  0  0  0  0  0999 V2000
   36.9020   24.3710   31.9680 C   0  0  0  0  0  0  0  0  0  0  0  0
   35.8690   23.7830   31.2740 C   0  0  0  0  0  0  0  0  0  0  0  0
   34.8680   24.5770   30.7800 C   0  0  0  0  0  0  0  0  0  0  0  0
   34.9090   25.9230   30.9790 N   0  0  0  0  0  0  0  0  0  0  0  0
   35.9200   26.4520   31.6510 C   0  0  0  0  0  0  0  0  0  0  0  0
   36.9350   25.7020   32.1600 N   0  0  0  0  0  0  0  0  0  0  0  0
   35.8530   22.7210   31.1280 H   0  0  0  0  0  0  0  0  0  0  0  0
   34.0710   24.1000   30.2420 H   0  0  0  0  0  0  0  0  0  0  0  0
   35.9790   27.8970   31.8730 C   0  0  0  0  0  0  0  0  0  0  0  0
   36.2570   28.7770   30.8690 C   0  0  0  0  0  0  0  0  0  0  0  0
   36.3430   30.1500   30.9430 C   0  0  0  0  0  0  0  0  0  0  0  0
   36.1080   30.6550   32.2210 C   0  0  0  0  0  0  0  0  0  0  0  0
   36.1740   32.0050   32.3700 N   0  0  0  0  0  0  0  0  0  0  0  0
   35.9660   32.5930   33.5540 C   0  0  0  0  0  0  0  0  0  0  0  0
   35.6730   31.8170   34.6610 C   0  0  0  0  0  0  0  0  0  0  0  0
   35.6050   30.4460   34.5100 C   0  0  0  0  0  0  0  0  0  0  0  0
   35.8200   29.8210   33.2850 C   0  0  0  0  0  0  0  0  0  0  0  0
   35.7540   28.4590   33.1230 C   0  0  0  0  0  0  0  0  0  0  0  0
   36.4330   28.3310   29.8870 H   0  0  0  0  0  0  0  0  0  0  0  0
   36.5700   30.7620   30.0820 H   0  0  0  0  0  0  0  0  0  0  0  0
   36.0060   33.6530   33.7330 H   0  0  0  0  0  0  0  0  0  0  0  0
   35.4940   32.2380   35.6460 H   0  0  0  0  0  0  0  0  0  0  0  0
   35.3800   29.7940   35.3400 H   0  0  0  0  0  0  0  0  0  0  0  0
   35.5260   27.8270   33.9710 H   0  0  0  0  0  0  0  0  0  0  0  0
   39.6270   21.9330   32.3200 C   0  0  0  0  0  0  0  0  0  0  0  0
   40.0490   22.1190   33.6300 C   0  0  0  0  0  0  0  0  0  0  0  0
   39.3770   23.1000   34.3940 C   0  0  0  0  0  0  0  0  0  0  0  0
   38.3760   23.7800   33.7860 N   0  0  0  0  0  0  0  0  0  0  0  0
   37.9980   23.5730   32.5190 C   0  0  0  0  0  0  0  0  0  0  0  0
   38.6380   22.6430   31.8010 N   0  0  0  0  0  0  0  0  0  0  0  0
   40.1880   21.1660   31.7990 H   0  0  0  0  0  0  0  0  0  0  0  0
   40.8290   21.6180   34.1700 H   0  0  0  0  0  0  0  0  0  0  0  0
   39.6290   23.4650   35.7470 N   0  0  0  0  0  0  0  0  0  0  0  0
   40.8840   23.1510   36.4480 C   0  0  0  0  0  3  0  0  0  0  0  0
   41.5880   22.5900   35.8080 H   0  0  0  0  0  0  0  0  0  0  0  0
   40.4980   22.2510   37.5950 C   0  0  0  0  0  3  0  0  0  0  0  0
   41.4060   22.1730   38.2580 H   0  0  0  0  0  0  0  0  0  0  0  0
   39.4630   22.8330   38.4210 N   0  0  0  0  0  0  0  0  0  0  0  0
   39.3330   22.3590   39.3170 H   0  0  0  0  0  0  0  0  0  0  0  0
   38.2920   23.1960   37.6950 C   0  0  0  0  0  2  0  0  0  0  0  0
   38.6960   24.1840   36.5940 C   0  0  0  0  0  2  0  0  0  0  0  0
  1  6  1  0  0  0  0
  1 29  1  0  0  0  0
  2  1  2  0  0  0  0
  3  4  2  0  0  0  0
  3  2  1  0  0  0  0
  4  5  1  0  0  0  0
  5  9  1  0  0  0  0
  5  6  2  0  0  0  0
  7  2  1  0  0  0  0
  8  3  1  0  0  0  0
  9 18  1  0  0  0  0
 10 11  1  0  0  0  0
 10  9  2  0  0  0  0
 11 12  2  0  0  0  0
 12 13  1  0  0  0  0
 12 17  1  0  0  0  0
 13 14  2  0  0  0  0
 14 21  1  0  0  0  0
 14 15  1  0  0  0  0
 15 22  1  0  0  0  0
 16 15  2  0  0  0  0
 16 23  1  0  0  0  0
 17 16  1  0  0  0  0
 18 17  2  0  0  0  0
 18 24  1  0  0  0  0
 19 10  1  0  0  0  0
 20 11  1  0  0  0  0
 25 26  1  0  0  0  0
 26 32  1  0  0  0  0
 26 27  2  0  0  0  0
 27 33  1  0  0  0  0
 28 27  1  0  0  0  0
 29 28  2  0  0  0  0
 30 25  2  0  0  0  0
 30 29  1  0  0  0  0
 31 25  1  0  0  0  0
 33 34  1  0  0  0  0
 33 41  1  0  0  0  0
 34 36  1  0  0  0  0
 35 34  1  0  0  0  0
 36 37  1  0  0  0  0
 36 38  1  0  0  0  0
 38 39  1  0  0  0  0
 40 38  1  0  0  0  0
 41 40  1  0  0  0  0
M  END
>  <minimizedAffinity>
-6.55099964

$$$$

 OpenBabel03262523073D

 41 45  0  0  0  0  0  0  0  0999 V2000
   36.2770   27.2140   31.6370 C   0  0  0  0  0  0  0  0  0  0  0  0
   36.7900   27.8980   30.5580 C   0  0  0  0  0  0  0  0  0  0  0  0
   36.6850   29.2640   30.5300 C   0  0  0  0  0  0  0  0  0  0  0  0
   36.0810   29.9190   31.5580 N   0  0  0  0  0  0  0  0  0  0  0  0
   35.6000   29.2270   32.5790 C   0  0  0  0  0  0  0  0  0  0  0  0
   35.6810   27.8700   32.6490 N   0  0  0  0  0  0  0  0  0  0  0  0
   37.2620   27.3640   29.7570 H   0  0  0  0  0  0  0  0  0  0  0  0
   37.0920   29.7790   29.6810 H   0  0  0  0  0  0  0  0  0  0  0  0
   34.9470   29.9160   33.6930 C   0  0  0  0  0  0  0  0  0  0  0  0
   33.7160   29.5500   34.1540 C   0  0  0  0  0  0  0  0  0  0  0  0
   32.9950   30.1110   35.1850 C   0  0  0  0  0  0  0  0  0  0  0  0
   33.6440   31.1790   35.8030 C   0  0  0  0  0  0  0  0  0  0  0  0
   32.9920   31.7830   36.8320 N   0  0  0  0  0  0  0  0  0  0  0  0
   33.5250   32.8170   37.4920 C   0  0  0  0  0  0  0  0  0  0  0  0
   34.7710   33.2920   37.1290 C   0  0  0  0  0  0  0  0  0  0  0  0
   35.4350   32.6790   36.0840 C   0  0  0  0  0  0  0  0  0  0  0  0
   34.8930   31.6030   35.3870 C   0  0  0  0  0  0  0  0  0  0  0  0
   35.5430   30.9860   34.3470 C   0  0  0  0  0  0  0  0  0  0  0  0
   33.2510   28.7080   33.6370 H   0  0  0  0  0  0  0  0  0  0  0  0
   32.0210   29.7440   35.4750 H   0  0  0  0  0  0  0  0  0  0  0  0
   33.0570   33.3340   38.3130 H   0  0  0  0  0  0  0  0  0  0  0  0
   35.2540   34.1270   37.6280 H   0  0  0  0  0  0  0  0  0  0  0  0
   36.4090   33.0090   35.7590 H   0  0  0  0  0  0  0  0  0  0  0  0
   36.5200   31.3360   34.0400 H   0  0  0  0  0  0  0  0  0  0  0  0
   35.7420   23.6340   31.0160 C   0  0  0  0  0  0  0  0  0  0  0  0
   36.5740   23.0240   31.9460 C   0  0  0  0  0  0  0  0  0  0  0  0
   37.3250   23.8690   32.7940 C   0  0  0  0  0  0  0  0  0  0  0  0
   37.1730   25.2050   32.6320 N   0  0  0  0  0  0  0  0  0  0  0  0
   36.3600   25.7560   31.7220 C   0  0  0  0  0  0  0  0  0  0  0  0
   35.6510   24.9510   30.9220 N   0  0  0  0  0  0  0  0  0  0  0  0
   35.2000   22.9230   30.4040 H   0  0  0  0  0  0  0  0  0  0  0  0
   36.7410   21.9800   32.1270 H   0  0  0  0  0  0  0  0  0  0  0  0
   38.2370   23.4800   33.8160 N   0  0  0  0  0  0  0  0  0  0  0  0
   38.2740   22.1260   34.3930 C   0  0  0  0  0  3  0  0  0  0  0  0
   37.5070   21.4660   33.9520 H   0  0  0  0  0  0  0  0  0  0  0  0
   37.9420   22.2940   35.8540 C   0  0  0  0  0  3  0  0  0  0  0  0
   38.1710   21.3070   36.3480 H   0  0  0  0  0  0  0  0  0  0  0  0
   38.8030   23.2600   36.5010 N   0  0  0  0  0  0  0  0  0  0  0  0
   38.7540   23.2390   37.5220 H   0  0  0  0  0  0  0  0  0  0  0  0
   38.8010   24.5380   35.8710 C   0  0  0  0  0  2  0  0  0  0  0  0
   39.2320   24.3530   34.4100 C   0  0  0  0  0  2  0  0  0  0  0  0
  1 29  1  0  0  0  0
  1  6  1  0  0  0  0
  2  1  2  0  0  0  0
  3  2  1  0  0  0  0
  3  4  2  0  0  0  0
  4  5  1  0  0  0  0
  5  6  2  0  0  0  0
  5  9  1  0  0  0  0
  7  2  1  0  0  0  0
  8  3  1  0  0  0  0
  9 10  2  0  0  0  0
  9 18  1  0  0  0  0
 10 11  1  0  0  0  0
 11 20  1  0  0  0  0
 11 12  2  0  0  0  0
 12 13  1  0  0  0  0
 13 14  2  0  0  0  0
 14 21  1  0  0  0  0
 15 14  1  0  0  0  0
 15 22  1  0  0  0  0
 16 15  2  0  0  0  0
 17 12  1  0  0  0  0
 17 16  1  0  0  0  0
 18 17  2  0  0  0  0
 19 10  1  0  0  0  0
 23 16  1  0  0  0  0
 24 18  1  0  0  0  0
 25 26  1  0  0  0  0
 26 32  1  0  0  0  0
 26 27  2  0  0  0  0
 27 33  1  0  0  0  0
 28 27  1  0  0  0  0
 29 28  2  0  0  0  0
 30 25  2  0  0  0  0
 30 29  1  0  0  0  0
 31 25  1  0  0  0  0
 33 34  1  0  0  0  0
 33 41  1  0  0  0  0
 34 36  1  0  0  0  0
 35 34  1  0  0  0  0
 36 37  1  0  0  0  0
 36 38  1  0  0  0  0
 38 39  1  0  0  0  0
 40 38  1  0  0  0  0
 41 40  1  0  0  0  0
M  END
>  <minimizedAffinity>
-6.4984417

$$$$

 OpenBabel03262523073D

 41 45  0  0  0  0  0  0  0  0999 V2000
   36.6310   28.5560   32.2560 C   0  0  0  0  0  0  0  0  0  0  0  0
   37.2920   28.5670   31.0480 C   0  0  0  0  0  0  0  0  0  0  0  0
   38.2980   27.6610   30.8370 C   0  0  0  0  0  0  0  0  0  0  0  0
   38.6270   26.7730   31.8140 N   0  0  0  0  0  0  0  0  0  0  0  0
   37.9690   26.7930   32.9620 C   0  0  0  0  0  0  0  0  0  0  0  0
   36.9640   27.6750   33.2160 N   0  0  0  0  0  0  0  0  0  0  0  0
   37.0190   29.2750   30.2900 H   0  0  0  0  0  0  0  0  0  0  0  0
   38.8010   27.6850   29.8890 H   0  0  0  0  0  0  0  0  0  0  0  0
   38.3110   25.8450   34.0230 C   0  0  0  0  0  0  0  0  0  0  0  0
   39.1060   24.7580   33.7990 C   0  0  0  0  0  0  0  0  0  0  0  0
   39.5010   23.7960   34.7010 C   0  0  0  0  0  0  0  0  0  0  0  0
   39.0040   23.9990   35.9870 C   0  0  0  0  0  0  0  0  0  0  0  0
   39.3540   23.0880   36.9340 N   0  0  0  0  0  0  0  0  0  0  0  0
   38.9300   23.1890   38.1990 C   0  0  0  0  0  0  0  0  0  0  0  0
   38.1160   24.2450   38.5660 C   0  0  0  0  0  0  0  0  0  0  0  0
   37.7610   25.1720   37.6050 C   0  0  0  0  0  0  0  0  0  0  0  0
   38.1930   25.0790   36.2850 C   0  0  0  0  0  0  0  0  0  0  0  0
   37.8460   25.9950   35.3220 C   0  0  0  0  0  0  0  0  0  0  0  0
   39.4700   24.6440   32.7750 H   0  0  0  0  0  0  0  0  0  0  0  0
   40.1380   22.9690   34.4220 H   0  0  0  0  0  0  0  0  0  0  0  0
   39.1740   22.5000   38.9890 H   0  0  0  0  0  0  0  0  0  0  0  0
   37.7430   24.3800   39.5760 H   0  0  0  0  0  0  0  0  0  0  0  0
   37.1280   26.0150   37.8370 H   0  0  0  0  0  0  0  0  0  0  0  0
   37.2100   26.8310   35.5800 H   0  0  0  0  0  0  0  0  0  0  0  0
   33.7930   30.8530   31.8540 C   0  0  0  0  0  0  0  0  0  0  0  0
   33.5350   31.2660   33.1540 C   0  0  0  0  0  0  0  0  0  0  0  0
   34.3580   30.7400   34.1760 C   0  0  0  0  0  0  0  0  0  0  0  0
   35.3310   29.8750   33.8040 N   0  0  0  0  0  0  0  0  0  0  0  0
   35.5490   29.4990   32.5380 C   0  0  0  0  0  0  0  0  0  0  0  0
   34.7670   30.0010   31.5750 N   0  0  0  0  0  0  0  0  0  0  0  0
   33.1240   31.2980   31.1280 H   0  0  0  0  0  0  0  0  0  0  0  0
   32.7860   31.9440   33.5150 H   0  0  0  0  0  0  0  0  0  0  0  0
   34.2860   31.0140   35.5710 N   0  0  0  0  0  0  0  0  0  0  0  0
   33.0970   30.7280   36.3910 C   0  0  0  0  0  3  0  0  0  0  0  0
   32.2750   30.2960   35.7930 H   0  0  0  0  0  0  0  0  0  0  0  0
   32.6270   32.0630   36.9100 C   0  0  0  0  0  3  0  0  0  0  0  0
   31.8540   31.8420   37.7010 H   0  0  0  0  0  0  0  0  0  0  0  0
   33.6810   32.7850   37.5900 N   0  0  0  0  0  0  0  0  0  0  0  0
   33.3490   33.5820   38.1380 H   0  0  0  0  0  0  0  0  0  0  0  0
   34.8450   32.9770   36.7920 C   0  0  0  0  0  2  0  0  0  0  0  0
   35.3590   31.6000   36.3530 C   0  0  0  0  0  2  0  0  0  0  0  0
  1 29  1  0  0  0  0
  1  6  1  0  0  0  0
  2  1  2  0  0  0  0
  3  2  1  0  0  0  0
  3  4  2  0  0  0  0
  4  5  1  0  0  0  0
  5  6  2  0  0  0  0
  5  9  1  0  0  0  0
  7  2  1  0  0  0  0
  8  3  1  0  0  0  0
  9 18  1  0  0  0  0
 10  9  2  0  0  0  0
 10 11  1  0  0  0  0
 11 12  2  0  0  0  0
 12 17  1  0  0  0  0
 12 13  1  0  0  0  0
 13 14  2  0  0  0  0
 14 15  1  0  0  0  0
 14 21  1  0  0  0  0
 15 22  1  0  0  0  0
 16 23  1  0  0  0  0
 16 15  2  0  0  0  0
 17 16  1  0  0  0  0
 18 24  1  0  0  0  0
 18 17  2  0  0  0  0
 19 10  1  0  0  0  0
 20 11  1  0  0  0  0
 25 26  1  0  0  0  0
 26 32  1  0  0  0  0
 26 27  2  0  0  0  0
 27 33  1  0  0  0  0
 28 27  1  0  0  0  0
 29 28  2  0  0  0  0
 30 25  2  0  0  0  0
 30 29  1  0  0  0  0
 31 25  1  0  0  0  0
 33 41  1  0  0  0  0
 33 34  1  0  0  0  0
 34 36  1  0  0  0  0
 35 34  1  0  0  0  0
 36 38  1  0  0  0  0
 36 37  1  0  0  0  0
 38 39  1  0  0  0  0
 40 38  1  0  0  0  0
 41 40  1  0  0  0  0
M  END
>  <minimizedAffinity>
-6.44106197

$$$$

 OpenBabel03262523073D

 41 45  0  0  0  0  0  0  0  0999 V2000
   37.2940   27.1330   33.1170 C   0  0  0  0  0  0  0  0  0  0  0  0
   37.5800   27.5440   31.8350 C   0  0  0  0  0  0  0  0  0  0  0  0
   37.0520   28.7270   31.3880 C   0  0  0  0  0  0  0  0  0  0  0  0
   36.2610   29.4700   32.2090 N   0  0  0  0  0  0  0  0  0  0  0  0
   36.0090   29.0420   33.4360 C   0  0  0  0  0  0  0  0  0  0  0  0
   36.5110   27.8740   33.9220 N   0  0  0  0  0  0  0  0  0  0  0  0
   38.2040   26.9450   31.2020 H   0  0  0  0  0  0  0  0  0  0  0  0
   37.2860   29.0310   30.3860 H   0  0  0  0  0  0  0  0  0  0  0  0
   35.1610   29.8290   34.3310 C   0  0  0  0  0  0  0  0  0  0  0  0
   33.8520   29.5150   34.5560 C   0  0  0  0  0  0  0  0  0  0  0  0
   32.9500   30.1670   35.3670 C   0  0  0  0  0  0  0  0  0  0  0  0
   33.4870   31.2780   36.0160 C   0  0  0  0  0  0  0  0  0  0  0  0
   32.6530   31.9730   36.8370 N   0  0  0  0  0  0  0  0  0  0  0  0
   33.0670   33.0550   37.5070 C   0  0  0  0  0  0  0  0  0  0  0  0
   34.3740   33.4860   37.3710 C   0  0  0  0  0  0  0  0  0  0  0  0
   35.2210   32.7800   36.5380 C   0  0  0  0  0  0  0  0  0  0  0  0
   34.8050   31.6540   35.8350 C   0  0  0  0  0  0  0  0  0  0  0  0
   35.6390   30.9450   35.0050 C   0  0  0  0  0  0  0  0  0  0  0  0
   33.4810   28.6370   34.0240 H   0  0  0  0  0  0  0  0  0  0  0  0
   31.9280   29.8360   35.4780 H   0  0  0  0  0  0  0  0  0  0  0  0
   32.4550   33.6440   38.1680 H   0  0  0  0  0  0  0  0  0  0  0  0
   34.7660   34.3550   37.8900 H   0  0  0  0  0  0  0  0  0  0  0  0
   36.2500   33.0730   36.3960 H   0  0  0  0  0  0  0  0  0  0  0  0
   36.6660   31.2590   34.8790 H   0  0  0  0  0  0  0  0  0  0  0  0
   39.1470   24.6990   35.1510 C   0  0  0  0  0  0  0  0  0  0  0  0
   38.7880   23.4810   34.5910 C   0  0  0  0  0  0  0  0  0  0  0  0
   37.8950   23.5100   33.4960 C   0  0  0  0  0  0  0  0  0  0  0  0
   37.4610   24.7250   33.0820 N   0  0  0  0  0  0  0  0  0  0  0  0
   37.8290   25.8790   33.6500 C   0  0  0  0  0  0  0  0  0  0  0  0
   38.6760   25.8450   34.6860 N   0  0  0  0  0  0  0  0  0  0  0  0
   39.8330   24.5960   35.9840 H   0  0  0  0  0  0  0  0  0  0  0  0
   39.0930   22.4900   34.8670 H   0  0  0  0  0  0  0  0  0  0  0  0
   37.3880   22.3990   32.7620 N   0  0  0  0  0  0  0  0  0  0  0  0
   37.0960   22.4500   31.3210 C   0  0  0  0  0  3  0  0  0  0  0  0
   37.3020   23.4450   30.8890 H   0  0  0  0  0  0  0  0  0  0  0  0
   35.6160   22.1970   31.1930 C   0  0  0  0  0  3  0  0  0  0  0  0
   35.4150   22.0230   30.0970 H   0  0  0  0  0  0  0  0  0  0  0  0
   35.2120   20.9770   31.8590 N   0  0  0  0  0  0  0  0  0  0  0  0
   34.2710   20.6630   31.6110 H   0  0  0  0  0  0  0  0  0  0  0  0
   35.5770   20.9310   33.2350 C   0  0  0  0  0  2  0  0  0  0  0  0
   37.0990   21.0970   33.3320 C   0  0  0  0  0  2  0  0  0  0  0  0
  1 29  1  0  0  0  0
  1  6  1  0  0  0  0
  2  1  2  0  0  0  0
  3  2  1  0  0  0  0
  3  4  2  0  0  0  0
  4  5  1  0  0  0  0
  5  6  2  0  0  0  0
  5  9  1  0  0  0  0
  7  2  1  0  0  0  0
  8  3  1  0  0  0  0
  9 10  2  0  0  0  0
  9 18  1  0  0  0  0
 10 11  1  0  0  0  0
 11 20  1  0  0  0  0
 11 12  2  0  0  0  0
 12 13  1  0  0  0  0
 13 14  2  0  0  0  0
 14 21  1  0  0  0  0
 15 14  1  0  0  0  0
 15 22  1  0  0  0  0
 16 15  2  0  0  0  0
 17 12  1  0  0  0  0
 17 16  1  0  0  0  0
 18 17  2  0  0  0  0
 19 10  1  0  0  0  0
 23 16  1  0  0  0  0
 24 18  1  0  0  0  0
 25 31  1  0  0  0  0
 26 32  1  0  0  0  0
 26 25  2  0  0  0  0
 27 26  1  0  0  0  0
 28 27  2  0  0  0  0
 28 29  1  0  0  0  0
 29 30  2  0  0  0  0
 30 25  1  0  0  0  0
 33 41  1  0  0  0  0
 33 27  1  0  0  0  0
 34 33  1  0  0  0  0
 35 34  1  0  0  0  0
 36 34  1  0  0  0  0
 36 38  1  0  0  0  0
 37 36  1  0  0  0  0
 38 40  1  0  0  0  0
 39 38  1  0  0  0  0
 40 41  1  0  0  0  0
M  END
>  <minimizedAffinity>
-6.42626095

$$$$

 OpenBabel03262523073D

 41 45  0  0  0  0  0  0  0  0999 V2000
   37.6680   26.6300   34.1730 C   0  0  0  0  0  0  0  0  0  0  0  0
   38.0720   26.7070   32.8590 C   0  0  0  0  0  0  0  0  0  0  0  0
   37.5730   27.7120   32.0720 C   0  0  0  0  0  0  0  0  0  0  0  0
   36.6950   28.6100   32.5950 N   0  0  0  0  0  0  0  0  0  0  0  0
   36.3310   28.5040   33.8640 C   0  0  0  0  0  0  0  0  0  0  0  0
   36.8000   27.5230   34.6810 N   0  0  0  0  0  0  0  0  0  0  0  0
   38.7630   25.9890   32.4640 H   0  0  0  0  0  0  0  0  0  0  0  0
   37.8990   27.7550   31.0510 H   0  0  0  0  0  0  0  0  0  0  0  0
   35.3880   29.4620   34.4410 C   0  0  0  0  0  0  0  0  0  0  0  0
   34.0480   29.4060   34.1900 C   0  0  0  0  0  0  0  0  0  0  0  0
   33.0590   30.2390   34.6650 C   0  0  0  0  0  0  0  0  0  0  0  0
   33.5350   31.2480   35.5010 C   0  0  0  0  0  0  0  0  0  0  0  0
   32.6150   32.1100   36.0110 N   0  0  0  0  0  0  0  0  0  0  0  0
   32.9650   33.1140   36.8220 C   0  0  0  0  0  0  0  0  0  0  0  0
   34.2940   33.2890   37.1610 C   0  0  0  0  0  0  0  0  0  0  0  0
   35.2300   32.4130   36.6450 C   0  0  0  0  0  0  0  0  0  0  0  0
   34.8810   31.3650   35.7990 C   0  0  0  0  0  0  0  0  0  0  0  0
   35.8020   30.4890   35.2800 C   0  0  0  0  0  0  0  0  0  0  0  0
   33.7270   28.5970   33.5300 H   0  0  0  0  0  0  0  0  0  0  0  0
   32.0190   30.1070   34.4060 H   0  0  0  0  0  0  0  0  0  0  0  0
   32.2830   33.8260   37.2550 H   0  0  0  0  0  0  0  0  0  0  0  0
   34.6380   34.0840   37.8150 H   0  0  0  0  0  0  0  0  0  0  0  0
   36.2800   32.5040   36.8760 H   0  0  0  0  0  0  0  0  0  0  0  0
   36.8490   30.6010   35.5280 H   0  0  0  0  0  0  0  0  0  0  0  0
   37.9270   24.1700   36.8880 C   0  0  0  0  0  0  0  0  0  0  0  0
   39.1760   23.6000   36.6800 C   0  0  0  0  0  0  0  0  0  0  0  0
   39.9320   24.0790   35.5860 C   0  0  0  0  0  0  0  0  0  0  0  0
   39.3760   25.0550   34.8280 N   0  0  0  0  0  0  0  0  0  0  0  0
   38.1670   25.5790   35.0610 C   0  0  0  0  0  0  0  0  0  0  0  0
   37.4560   25.1220   36.0990 N   0  0  0  0  0  0  0  0  0  0  0  0
   37.4090   23.7530   37.7440 H   0  0  0  0  0  0  0  0  0  0  0  0
   39.6730   22.8300   37.2380 H   0  0  0  0  0  0  0  0  0  0  0  0
   41.2270   23.6530   35.1770 N   0  0  0  0  0  0  0  0  0  0  0  0
   41.4940   22.3310   34.5880 C   0  0  0  0  0  3  0  0  0  0  0  0
   40.5800   21.7140   34.5200 H   0  0  0  0  0  0  0  0  0  0  0  0
   42.4370   21.6400   35.5410 C   0  0  0  0  0  3  0  0  0  0  0  0
   42.8130   20.7220   35.0070 H   0  0  0  0  0  0  0  0  0  0  0  0
   43.6120   22.4370   35.8180 N   0  0  0  0  0  0  0  0  0  0  0  0
   44.3640   21.9190   36.2770 H   0  0  0  0  0  0  0  0  0  0  0  0
   43.3140   23.7380   36.3150 C   0  0  0  0  0  2  0  0  0  0  0  0
   42.4310   24.4550   35.2850 C   0  0  0  0  0  2  0  0  0  0  0  0
  1  6  1  0  0  0  0
  1 29  1  0  0  0  0
  2  1  2  0  0  0  0
  3  4  2  0  0  0  0
  3  2  1  0  0  0  0
  4  5  1  0  0  0  0
  5  9  1  0  0  0  0
  5  6  2  0  0  0  0
  7  2  1  0  0  0  0
  8  3  1  0  0  0  0
  9 18  1  0  0  0  0
 10  9  2  0  0  0  0
 10 11  1  0  0  0  0
 11 12  2  0  0  0  0
 12 17  1  0  0  0  0
 12 13  1  0  0  0  0
 13 14  2  0  0  0  0
 14 15  1  0  0  0  0
 14 21  1  0  0  0  0
 15 22  1  0  0  0  0
 16 23  1  0  0  0  0
 16 15  2  0  0  0  0
 17 16  1  0  0  0  0
 18 24  1  0  0  0  0
 18 17  2  0  0  0  0
 19 10  1  0  0  0  0
 20 11  1  0  0  0  0
 25 31  1  0  0  0  0
 26 25  1  0  0  0  0
 26 32  1  0  0  0  0
 27 26  2  0  0  0  0
 28 29  2  0  0  0  0
 28 27  1  0  0  0  0
 29 30  1  0  0  0  0
 30 25  2  0  0  0  0
 33 41  1  0  0  0  0
 33 27  1  0  0  0  0
 34 33  1  0  0  0  0
 34 36  1  0  0  0  0
 35 34  1  0  0  0  0
 36 38  1  0  0  0  0
 37 36  1  0  0  0  0
 38 39  1  0  0  0  0
 38 40  1  0  0  0  0
 41 40  1  0  0  0  0
M  END
>  <minimizedAffinity>
-6.23625946

$$$$

 OpenBabel03262523073D

 41 45  0  0  0  0  0  0  0  0999 V2000
   36.1620   26.3030   31.5970 C   0  0  0  0  0  0  0  0  0  0  0  0
   35.2960   25.4010   31.0210 C   0  0  0  0  0  0  0  0  0  0  0  0
   35.4790   24.0640   31.2590 C   0  0  0  0  0  0  0  0  0  0  0  0
   36.5040   23.6510   32.0530 N   0  0  0  0  0  0  0  0  0  0  0  0
   37.3170   24.5480   32.5890 C   0  0  0  0  0  0  0  0  0  0  0  0
   37.1730   25.8850   32.3800 N   0  0  0  0  0  0  0  0  0  0  0  0
   34.4940   25.7450   30.3980 H   0  0  0  0  0  0  0  0  0  0  0  0
   34.7940   23.3760   30.8020 H   0  0  0  0  0  0  0  0  0  0  0  0
   38.4240   24.1200   33.4440 C   0  0  0  0  0  0  0  0  0  0  0  0
   39.7070   24.0380   32.9870 C   0  0  0  0  0  0  0  0  0  0  0  0
   40.8320   23.6520   33.6810 C   0  0  0  0  0  0  0  0  0  0  0  0
   40.5790   23.3140   35.0100 C   0  0  0  0  0  0  0  0  0  0  0  0
   41.6450   22.9240   35.7590 N   0  0  0  0  0  0  0  0  0  0  0  0
   41.5120   22.5780   37.0450 C   0  0  0  0  0  0  0  0  0  0  0  0
   40.2630   22.6160   37.6380 C   0  0  0  0  0  0  0  0  0  0  0  0
   39.1800   23.0130   36.8780 C   0  0  0  0  0  0  0  0  0  0  0  0
   39.3030   23.3750   35.5400 C   0  0  0  0  0  0  0  0  0  0  0  0
   38.2340   23.7710   34.7750 C   0  0  0  0  0  0  0  0  0  0  0  0
   39.8520   24.3130   31.9400 H   0  0  0  0  0  0  0  0  0  0  0  0
   41.8100   23.6210   33.2240 H   0  0  0  0  0  0  0  0  0  0  0  0
   42.3160   22.2610   37.6860 H   0  0  0  0  0  0  0  0  0  0  0  0
   40.0950   22.3470   38.6770 H   0  0  0  0  0  0  0  0  0  0  0  0
   38.1850   23.0600   37.2910 H   0  0  0  0  0  0  0  0  0  0  0  0
   37.2450   23.8100   35.2120 H   0  0  0  0  0  0  0  0  0  0  0  0
   36.5350   29.6950   30.2390 C   0  0  0  0  0  0  0  0  0  0  0  0
   35.6830   30.4490   31.0340 C   0  0  0  0  0  0  0  0  0  0  0  0
   34.9740   29.7690   32.0510 C   0  0  0  0  0  0  0  0  0  0  0  0
   35.1850   28.4350   32.1660 N   0  0  0  0  0  0  0  0  0  0  0  0
   36.0150   27.7420   31.3790 C   0  0  0  0  0  0  0  0  0  0  0  0
   36.6830   28.3920   30.4190 N   0  0  0  0  0  0  0  0  0  0  0  0
   37.0420   30.2850   29.4850 H   0  0  0  0  0  0  0  0  0  0  0  0
   35.4710   31.5000   30.9970 H   0  0  0  0  0  0  0  0  0  0  0  0
   34.0520   30.3230   32.9830 N   0  0  0  0  0  0  0  0  0  0  0  0
   34.2150   31.6570   33.5840 C   0  0  0  0  0  3  0  0  0  0  0  0
   35.1360   32.1580   33.2390 H   0  0  0  0  0  0  0  0  0  0  0  0
   34.3550   31.4230   35.0670 C   0  0  0  0  0  3  0  0  0  0  0  0
   34.2690   32.4350   35.5580 H   0  0  0  0  0  0  0  0  0  0  0  0
   33.2620   30.6400   35.6010 N   0  0  0  0  0  0  0  0  0  0  0  0
   33.2070   30.6480   36.6210 H   0  0  0  0  0  0  0  0  0  0  0  0
   33.0860   29.3880   34.9450 C   0  0  0  0  0  2  0  0  0  0  0  0
   32.8520   29.6570   33.4520 C   0  0  0  0  0  2  0  0  0  0  0  0
  1  6  1  0  0  0  0
  2  3  1  0  0  0  0
  2  1  2  0  0  0  0
  3  4  2  0  0  0  0
  4  5  1  0  0  0  0
  5  9  1  0  0  0  0
  6  5  2  0  0  0  0
  7  2  1  0  0  0  0
  8  3  1  0  0  0  0
  9 18  1  0  0  0  0
 10  9  2  0  0  0  0
 10 11  1  0  0  0  0
 11 12  2  0  0  0  0
 12 17  1  0  0  0  0
 12 13  1  0  0  0  0
 13 14  2  0  0  0  0
 14 15  1  0  0  0  0
 14 21  1  0  0  0  0
 15 22  1  0  0  0  0
 16 23  1  0  0  0  0
 16 15  2  0  0  0  0
 17 16  1  0  0  0  0
 18 24  1  0  0  0  0
 18 17  2  0  0  0  0
 19 10  1  0  0  0  0
 20 11  1  0  0  0  0
 25 30  2  0  0  0  0
 25 26  1  0  0  0  0
 26 27  2  0  0  0  0
 27 28  1  0  0  0  0
 27 33  1  0  0  0  0
 29  1  1  0  0  0  0
 29 28  2  0  0  0  0
 30 29  1  0  0  0  0
 31 25  1  0  0  0  0
 32 26  1  0  0  0  0
 33 41  1  0  0  0  0
 33 34  1  0  0  0  0
 34 36  1  0  0  0  0
 35 34  1  0  0  0  0
 36 37  1  0  0  0  0
 36 38  1  0  0  0  0
 38 39  1  0  0  0  0
 40 38  1  0  0  0  0
 41 40  1  0  0  0  0
M  END
>  <minimizedAffinity>
-6.2122488

$$$$
