
 OpenBabel03272509523D

 43 46  0  0  0  0  0  0  0  0999 V2000
   34.4230   28.7310   48.1900 C   0  0  0  0  0  0  0  0  0  0  0  0
   33.8160   29.6660   48.2890 H   0  0  0  0  0  0  0  0  0  0  0  0
   35.2520   28.9230   47.4750 H   0  0  0  0  0  0  0  0  0  0  0  0
   33.5980   27.5850   47.6870 C   0  0  0  0  0  0  0  0  0  0  0  0
   33.7350   26.6530   48.2770 H   0  0  0  0  0  0  0  0  0  0  0  0
   33.8680   27.3180   46.6290 H   0  0  0  0  0  0  0  0  0  0  0  0
   32.1500   27.9040   47.6500 C   0  0  0  0  0  0  0  0  0  0  0  0
   31.3480   27.4440   48.6810 C   0  0  0  0  0  0  0  0  0  0  0  0
   30.0070   27.6880   48.7320 C   0  0  0  0  0  0  0  0  0  0  0  0
   29.4390   28.3900   47.7660 N   0  0  0  0  0  0  0  0  0  0  0  0
   30.2200   28.8500   46.7450 C   0  0  0  0  0  0  0  0  0  0  0  0
   31.5500   28.6240   46.6670 N   0  0  0  0  0  0  0  0  0  0  0  0
   31.8100   26.8600   49.4880 H   0  0  0  0  0  0  0  0  0  0  0  0
   29.4150   27.3110   49.5550 H   0  0  0  0  0  0  0  0  0  0  0  0
   29.6490   29.6100   45.6840 N   0  0  0  0  0  0  0  0  0  0  0  0
   28.4900   30.4680   45.8460 C   0  0  0  0  0  3  0  0  0  0  0  0
   28.5720   31.1370   46.7110 H   0  0  0  0  0  0  0  0  0  0  0  0
   28.3440   31.2490   44.5500 C   0  0  0  0  0  3  0  0  0  0  0  0
   27.8650   30.6680   43.7560 H   0  0  0  0  0  0  0  0  0  0  0  0
   29.5830   31.8370   44.1320 N   0  0  0  0  0  0  0  0  0  0  0  0
   29.7910   32.6130   44.8140 H   0  0  0  0  0  0  0  0  0  0  0  0
   30.6760   30.9290   43.9880 C   0  0  0  0  0  2  0  0  0  0  0  0
   30.2450   29.5350   44.3650 C   0  0  0  0  0  2  0  0  0  0  0  0
   34.9840   28.4140   49.4640 O   0  0  0  0  0  0  0  0  0  0  0  0
   37.3500   30.1750   51.5410 C   0  0  0  0  0  0  0  0  0  0  0  0
   38.0900   30.8690   50.5400 C   0  0  0  0  0  0  0  0  0  0  0  0
   37.7110   30.6730   49.2260 C   0  0  0  0  0  0  0  0  0  0  0  0
   36.6530   29.8250   48.9910 N   0  0  0  0  0  0  0  0  0  0  0  0
   35.9880   29.1970   49.9500 C   0  0  0  0  0  0  0  0  0  0  0  0
   36.3370   29.3700   51.2400 N   0  0  0  0  0  0  0  0  0  0  0  0
   37.7000   30.3740   52.5440 H   0  0  0  0  0  0  0  0  0  0  0  0
   38.9120   31.5260   50.7340 H   0  0  0  0  0  0  0  0  0  0  0  0
   38.9310   33.2950   49.0380 F   0  0  0  0  0  0  0  0  0  0  0  0
   38.9140   32.5050   47.9650 C   0  0  0  0  0  0  0  0  0  0  0  0
   38.3400   31.2890   48.0800 C   0  0  0  0  0  0  0  0  0  0  0  0
   38.3770   30.5420   46.8970 C   0  0  0  0  0  0  0  0  0  0  0  0
   38.9440   31.0120   45.7370 C   0  0  0  0  0  0  0  0  0  0  0  0
   39.5160   32.2630   45.6830 C   0  0  0  0  0  0  0  0  0  0  0  0
   39.4940   33.0150   46.8280 C   0  0  0  0  0  0  0  0  0  0  0  0
   37.9590   29.5470   46.8200 H   0  0  0  0  0  0  0  0  0  0  0  0
   38.9700   30.4270   44.8220 H   0  0  0  0  0  0  0  0  0  0  0  0
   39.9580   32.6180   44.7660 H   0  0  0  0  0  0  0  0  0  0  0  0
   39.9330   33.9860   46.7990 H   0  0  0  0  0  0  0  0  0  0  0  0
  1  2  1  0  0  0  0
  1 24  1  0  0  0  0
  3  1  1  0  0  0  0
  4  1  1  0  0  0  0
  4  5  1  0  0  0  0
  6  4  1  0  0  0  0
  7  4  1  0  0  0  0
  7  8  1  0  0  0  0
  8  9  2  0  0  0  0
  8 13  1  0  0  0  0
  9 14  1  0  0  0  0
 10  9  1  0  0  0  0
 11 10  2  0  0  0  0
 12 11  1  0  0  0  0
 12  7  2  0  0  0  0
 15 16  1  0  0  0  0
 15 11  1  0  0  0  0
 16 17  1  0  0  0  0
 18 16  1  0  0  0  0
 19 18  1  0  0  0  0
 20 18  1  0  0  0  0
 20 21  1  0  0  0  0
 22 20  1  0  0  0  0
 22 23  1  0  0  0  0
 23 15  1  0  0  0  0
 24 29  1  0  0  0  0
 25 31  1  0  0  0  0
 26 32  1  0  0  0  0
 26 25  2  0  0  0  0
 27 26  1  0  0  0  0
 28 27  2  0  0  0  0
 28 29  1  0  0  0  0
 29 30  2  0  0  0  0
 30 25  1  0  0  0  0
 34 35  1  0  0  0  0
 34 33  1  0  0  0  0
 35 27  1  0  0  0  0
 36 35  2  0  0  0  0
 37 36  1  0  0  0  0
 38 37  2  0  0  0  0
 38 39  1  0  0  0  0
 39 34  2  0  0  0  0
 40 36  1  0  0  0  0
 41 37  1  0  0  0  0
 42 38  1  0  0  0  0
 43 39  1  0  0  0  0
M  END
>  <minimizedAffinity>
-6.7653656

>  <minimizedRMSD>
0.0790302828

$$$$
