REMARK  Name = 
REMARK  4 active torsions:
REMARK  status: ('A' for Active; 'I' for Inactive)
REMARK    1  A    between atoms: C_1  and  C_8
REMARK    2  A    between atoms: C_4  and  O_13
REMARK    3  A    between atoms: O_13  and  C_14
REMARK    4  A    between atoms: N_17  and  C_29
REMARK                            x       y       z     vdW  Elec       q    Type
REMARK                         _______ _______ _______ _____ _____    ______ ____
ROOT
ATOM      1  C   UNL     1      33.844  28.788  48.271  0.00  0.00    +0.000 A 
ATOM      2  C   UNL     1      34.439  28.418  49.424  0.00  0.00    +0.000 A 
ATOM      3  C   UNL     1      35.712  28.781  49.813  0.00  0.00    +0.000 A 
ATOM      4  C   UNL     1      36.462  29.579  48.992  0.00  0.00    +0.000 A 
ATOM      5  C   UNL     1      35.849  29.968  47.790  0.00  0.00    +0.000 A 
ATOM      6  N   UNL     1      34.599  29.581  47.463  0.00  0.00    +0.000 NA
ATOM      7  H   UNL     1      33.926  27.788  50.136  0.00  0.00    +0.000 HD
ATOM      8  H   UNL     1      36.191  28.485  50.736  0.00  0.00    +0.000 HD
ATOM      9  H   UNL     1      36.396  30.604  47.096  0.00  0.00    +0.000 HD
ENDROOT
BRANCH   1  11
ATOM     10  C   UNL     1      31.628  27.670  48.705  0.00  0.00    +0.000 A 
ATOM     11  C   UNL     1      32.522  28.405  47.877  0.00  0.00    +0.000 A 
ATOM     12  C   UNL     1      32.038  28.740  46.638  0.00  0.00    +0.000 A 
ATOM     13  N   UNL     1      30.772  28.369  46.269  0.00  0.00    +0.000 NA
ATOM     14  C   UNL     1      29.976  27.673  47.103  0.00  0.00    +0.000 A 
ATOM     15  N   UNL     1      30.398  27.317  48.327  0.00  0.00    +0.000 NA
ATOM     16  H   UNL     1      31.977  27.389  49.688  0.00  0.00    +0.000 HD
ATOM     17  H   UNL     1      32.675  29.305  45.953  0.00  0.00    +0.000 HD
ATOM     18  H   UNL     1      29.008  27.451  46.676  0.00  0.00    +0.000 HD
ENDBRANCH   1  11
BRANCH   4  19
ATOM     19  O   UNL     1      37.754  30.048  49.207  0.00  0.00    +0.000 OA
BRANCH  19  20
ATOM     20  C   UNL     1      38.163  31.306  48.776  0.00  0.00    +0.000 A 
ATOM     21  C   UNL     1      37.873  32.325  49.682  0.00  0.00    +0.000 A 
ATOM     22  C   UNL     1      38.338  33.509  49.113  0.00  0.00    +0.000 A 
ATOM     23  N   UNL     1      38.874  33.181  47.929  0.00  0.00    +0.000 N 
ATOM     24  N   UNL     1      38.766  31.891  47.742  0.00  0.00    +0.000 NA
ATOM     25  H   UNL     1      37.399  32.399  50.661  0.00  0.00    +0.000 HD
ATOM     26  H   UNL     1      38.315  34.528  49.478  0.00  0.00    +0.000 HD
BRANCH  23  29
ATOM     27  H   UNL     1      40.605  35.333  48.169  0.00  0.00    +0.000 HD
ATOM     28  N   UNL     1      39.780  35.365  47.514  0.00  0.00    +0.000 NA
ATOM     29  C   UNL     1      39.483  34.053  46.974  0.00  0.00    +0.000 C 
ATOM     30  C   UNL     1      40.771  33.542  46.389  0.00  0.00    +0.000 C 
ATOM     31  H   UNL     1      40.751  32.491  46.091  0.00  0.00    +0.000 HD
ATOM     32  N   UNL     1      41.029  34.333  45.208  0.00  0.00    +0.000 NA
ATOM     33  H   UNL     1      40.497  34.000  44.375  0.00  0.00    +0.000 HD
ATOM     34  C   UNL     1      41.003  35.742  45.404  0.00  0.00    +0.000 C 
ATOM     35  C   UNL     1      40.033  36.261  46.405  0.00  0.00    +0.000 C 
ENDBRANCH  23  29
ENDBRANCH  19  20
ENDBRANCH   4  19
TORSDOF 4
