
 OpenBabel03272509183D

 33 35  0  0  1  0  0  0  0  0999 V2000
   37.9020   31.2750   48.0140 C   0  0  0  0  0  0  0  0  0  0  0  0
   37.1750   31.5690   49.1720 C   0  0  0  0  0  0  0  0  0  0  0  0
   37.5090   32.7760   49.7890 C   0  0  0  0  0  0  0  0  0  0  0  0
   38.5070   33.6100   49.2570 C   0  0  0  0  0  0  0  0  0  0  0  0
   39.1740   33.2250   48.0940 C   0  0  0  0  0  0  0  0  0  0  0  0
   38.8650   32.0470   47.4700 C   0  0  0  0  0  0  0  0  0  0  0  0
   36.9930   33.0800   50.6920 H   0  0  0  0  0  0  0  0  0  0  0  0
   38.6960   34.5250   49.8020 H   0  0  0  0  0  0  0  0  0  0  0  0
   39.9050   33.9600   47.8100 H   0  0  0  0  0  0  0  0  0  0  0  0
   34.9170   30.6300   49.0970 C   0  0  0  0  0  0  0  0  0  0  0  0
   36.1600   30.7160   49.7100 C   0  0  0  0  0  0  0  0  0  0  0  0
   36.3670   29.9400   50.8640 C   0  0  0  0  0  0  0  0  0  0  0  0
   35.3500   29.1570   51.3090 N   0  0  0  0  0  0  0  0  0  0  0  0
   34.1580   29.1020   50.6840 C   0  0  0  0  0  0  0  0  0  0  0  0
   33.9440   29.8310   49.5890 N   0  0  0  0  0  0  0  0  0  0  0  0
   34.7490   31.2250   48.2080 H   0  0  0  0  0  0  0  0  0  0  0  0
   33.4770   28.4260   51.1850 H   0  0  0  0  0  0  0  0  0  0  0  0
   37.6740   29.9830   51.5710 C   0  0  0  0  0  0  0  0  0  0  0  0
   37.8280   29.0480   52.1440 H   0  0  0  0  0  0  0  0  0  0  0  0
   37.6390   30.8300   52.2860 H   0  0  0  0  0  0  0  0  0  0  0  0
   38.4690   30.1830   50.8280 H   0  0  0  0  0  0  0  0  0  0  0  0
   37.6220   30.0800   47.3400 O   0  0  0  0  0  0  0  0  0  0  0  0
   38.1400   29.2790   47.6800 H   0  0  0  0  0  0  0  0  0  0  0  0
   39.5460   31.7030   46.3290 O   0  0  0  0  0  0  0  0  0  0  0  0
   41.8060   30.9230   45.2110 H   0  0  0  0  0  0  0  0  0  0  0  0
   41.2200   31.5720   44.6550 N   0  0  0  0  0  0  0  0  0  0  0  0
   40.4650   32.4060   45.5910 C   0  0  1  0  0  3  0  0  0  0  0  0
   39.8820   33.5460   44.7890 C   0  0  0  0  0  3  0  0  0  0  0  0
   38.9910   34.0010   45.2600 H   0  0  0  0  0  0  0  0  0  0  0  0
   39.5710   33.0260   43.4720 N   0  0  0  0  0  0  0  0  0  0  0  0
   40.4170   33.0380   42.8590 H   0  0  0  0  0  0  0  0  0  0  0  0
   39.1210   31.6400   43.5300 C   0  0  0  0  0  2  0  0  0  0  0  0
   40.2960   30.7590   43.8580 C   0  0  0  0  0  2  0  0  0  0  0  0
  1  2  1  0  0  0  0
  2 11  1  0  0  0  0
  2  3  2  0  0  0  0
  3  7  1  0  0  0  0
  4  3  1  0  0  0  0
  4  8  1  0  0  0  0
  5  4  2  0  0  0  0
  6  1  2  0  0  0  0
  6  5  1  0  0  0  0
  9  5  1  0  0  0  0
 10 15  2  0  0  0  0
 10 11  1  0  0  0  0
 11 12  2  0  0  0  0
 12 13  1  0  0  0  0
 12 18  1  0  0  0  0
 14 17  1  0  0  0  0
 14 13  2  0  0  0  0
 15 14  1  0  0  0  0
 16 10  1  0  0  0  0
 18 19  1  0  0  0  0
 18 20  1  0  0  0  0
 21 18  1  0  0  0  0
 22 23  1  0  0  0  0
 22  1  1  0  0  0  0
 24  6  1  0  0  0  0
 26 25  1  0  0  0  0
 26 27  1  0  0  0  0
 27 24  1  6  0  0  0
 28 29  1  0  0  0  0
 28 27  1  0  0  0  0
 30 32  1  0  0  0  0
 30 28  1  0  0  0  0
 31 30  1  0  0  0  0
 32 33  1  0  0  0  0
 33 26  1  0  0  0  0
M  END
>  <minimizedAffinity>
-6.17252111

>  <minimizedRMSD>
1.23373413

$$$$
