
 OpenBabel03272510003D

 21 22  0  0  0  0  0  0  0  0999 V2000
   38.2970   31.3460   50.1900 C   0  0  0  0  0  0  0  0  0  0  0  0
   38.4140   31.5910   48.8190 C   0  0  0  0  0  0  0  0  0  0  0  0
   37.4240   31.0860   47.9780 C   0  0  0  0  0  0  0  0  0  0  0  0
   36.4080   30.3860   48.5440 N   0  0  0  0  0  0  0  0  0  0  0  0
   36.3140   30.1630   49.8570 C   0  0  0  0  0  0  0  0  0  0  0  0
   37.2660   30.6480   50.6800 N   0  0  0  0  0  0  0  0  0  0  0  0
   39.0880   31.7540   50.8390 H   0  0  0  0  0  0  0  0  0  0  0  0
   39.2200   32.1480   48.3540 H   0  0  0  0  0  0  0  0  0  0  0  0
   37.4180   31.2590   46.5720 N   0  0  0  0  0  0  0  0  0  0  0  0
   38.2520   32.2330   45.8780 C   0  0  0  0  0  3  0  0  0  0  0  0
   39.1410   32.5100   46.4830 H   0  0  0  0  0  0  0  0  0  0  0  0
   38.7420   31.7160   44.5630 C   0  0  0  0  0  3  0  0  0  0  0  0
   39.0460   32.5940   43.9580 H   0  0  0  0  0  0  0  0  0  0  0  0
   37.8000   30.9470   43.8130 N   0  0  0  0  0  0  0  0  0  0  0  0
   38.1420   29.9480   43.7980 H   0  0  0  0  0  0  0  0  0  0  0  0
   36.4840   30.9170   44.3870 C   0  0  0  0  0  2  0  0  0  0  0  0
   36.5240   30.4040   45.8250 C   0  0  0  0  0  2  0  0  0  0  0  0
   35.1570   29.3830   50.3640 C   0  0  0  0  0  0  0  0  0  0  0  0
   35.2600   29.1200   51.7230 F   0  0  0  0  0  0  0  0  0  0  0  0
   33.9740   30.0860   50.1950 F   0  0  0  0  0  0  0  0  0  0  0  0
   34.9990   28.1830   49.7190 F   0  0  0  0  0  0  0  0  0  0  0  0
  1  6  1  0  0  0  0
  1  7  1  0  0  0  0
  2  1  2  0  0  0  0
  3  4  2  0  0  0  0
  3  2  1  0  0  0  0
  4  5  1  0  0  0  0
  5 18  1  0  0  0  0
  5  6  2  0  0  0  0
  8  2  1  0  0  0  0
  9  3  1  0  0  0  0
 10 11  1  0  0  0  0
 10  9  1  0  0  0  0
 12 10  1  0  0  0  0
 13 12  1  0  0  0  0
 14 16  1  0  0  0  0
 14 12  1  0  0  0  0
 15 14  1  0  0  0  0
 16 17  1  0  0  0  0
 17  9  1  0  0  0  0
 18 19  1  0  0  0  0
 20 18  1  0  0  0  0
 21 18  1  0  0  0  0
M  END
>  <minimizedAffinity>
-5.12167978

>  <minimizedRMSD>
0.438150108

$$$$
