
 OpenBabel03272510003D

 21 22  0  0  0  0  0  0  0  0999 V2000
   37.9620   32.5750   49.5830 C   0  0  0  0  0  0  0  0  0  0  0  0
   38.6350   32.6270   48.3590 C   0  0  0  0  0  0  0  0  0  0  0  0
   38.1450   31.8520   47.3100 C   0  0  0  0  0  0  0  0  0  0  0  0
   37.0430   31.0950   47.5430 N   0  0  0  0  0  0  0  0  0  0  0  0
   36.4140   31.0580   48.7210 C   0  0  0  0  0  0  0  0  0  0  0  0
   36.8800   31.8050   49.7430 N   0  0  0  0  0  0  0  0  0  0  0  0
   38.3640   33.1940   50.4010 H   0  0  0  0  0  0  0  0  0  0  0  0
   39.5160   33.2290   48.1600 H   0  0  0  0  0  0  0  0  0  0  0  0
   38.7280   31.8100   46.0200 N   0  0  0  0  0  0  0  0  0  0  0  0
   38.0810   32.3450   44.8260 C   0  0  0  0  0  3  0  0  0  0  0  0
   37.3250   33.1150   45.0880 H   0  0  0  0  0  0  0  0  0  0  0  0
   39.0640   32.9710   43.8890 C   0  0  0  0  0  3  0  0  0  0  0  0
   38.5790   33.0240   42.8930 H   0  0  0  0  0  0  0  0  0  0  0  0
   40.3120   32.2870   43.7570 N   0  0  0  0  0  0  0  0  0  0  0  0
   41.0570   32.8950   44.1940 H   0  0  0  0  0  0  0  0  0  0  0  0
   40.3610   31.0270   44.4440 C   0  0  0  0  0  2  0  0  0  0  0  0
   40.0320   31.1970   45.9250 C   0  0  0  0  0  2  0  0  0  0  0  0
   35.2170   30.1910   48.8600 C   0  0  0  0  0  0  0  0  0  0  0  0
   34.4030   30.5910   49.9110 F   0  0  0  0  0  0  0  0  0  0  0  0
   34.4310   30.2440   47.7190 F   0  0  0  0  0  0  0  0  0  0  0  0
   35.5350   28.8720   49.0590 F   0  0  0  0  0  0  0  0  0  0  0  0
  1  6  1  0  0  0  0
  1  7  1  0  0  0  0
  2  1  2  0  0  0  0
  3  4  2  0  0  0  0
  3  2  1  0  0  0  0
  4  5  1  0  0  0  0
  5 18  1  0  0  0  0
  5  6  2  0  0  0  0
  8  2  1  0  0  0  0
  9  3  1  0  0  0  0
 10 11  1  0  0  0  0
 10  9  1  0  0  0  0
 12 10  1  0  0  0  0
 13 12  1  0  0  0  0
 14 12  1  0  0  0  0
 14 15  1  0  0  0  0
 14 16  1  0  0  0  0
 16 17  1  0  0  0  0
 17  9  1  0  0  0  0
 18 21  1  0  0  0  0
 18 19  1  0  0  0  0
 20 18  1  0  0  0  0
M  END
>  <minimizedAffinity>
-5.3005805

>  <minimizedRMSD>
2.05585694

$$$$
