
 OpenBabel03272508003D

 21 22  0  0  0  0  0  0  0  0999 V2000
   36.0380   30.3940   47.3880 C   0  0  0  0  0  0  0  0  0  0  0  0
   36.6220   31.0770   48.4760 C   0  0  0  0  0  0  0  0  0  0  0  0
   37.7510   31.8750   48.2190 C   0  0  0  0  0  0  0  0  0  0  0  0
   38.2060   31.9370   46.9360 N   0  0  0  0  0  0  0  0  0  0  0  0
   37.6220   31.2710   45.9290 C   0  0  0  0  0  0  0  0  0  0  0  0
   36.5490   30.5080   46.1540 N   0  0  0  0  0  0  0  0  0  0  0  0
   36.2470   31.0170   49.4860 H   0  0  0  0  0  0  0  0  0  0  0  0
   37.9860   31.3200   44.9050 H   0  0  0  0  0  0  0  0  0  0  0  0
   34.8960   29.5850   47.6440 N   0  0  0  0  0  0  0  0  0  0  0  0
   34.5810   29.2850   49.0010 C   0  0  0  0  0  0  0  0  0  0  0  0
   35.5210   28.8490   49.4500 H   0  0  0  0  0  0  0  0  0  0  0  0
   33.4840   28.3030   49.2020 C   0  0  0  0  0  0  0  0  0  0  0  0
   32.6000   28.8720   49.6100 H   0  0  0  0  0  0  0  0  0  0  0  0
   33.0200   27.6010   48.0630 N   0  0  0  0  0  0  0  0  0  0  0  0
   32.8670   26.5740   48.2990 H   0  0  0  0  0  0  0  0  0  0  0  0
   33.8390   27.6230   46.8990 C   0  0  0  0  0  0  0  0  0  0  0  0
   34.0990   29.0960   46.5570 C   0  0  0  0  0  0  0  0  0  0  0  0
   38.3970   32.6130   49.3390 C   0  0  0  0  0  0  0  0  0  0  0  0
   37.4130   33.3870   49.8870 F   0  0  0  0  0  0  0  0  0  0  0  0
   38.8820   31.7760   50.3250 F   0  0  0  0  0  0  0  0  0  0  0  0
   39.4080   33.4500   48.8900 F   0  0  0  0  0  0  0  0  0  0  0  0
  1  9  1  0  0  0  0
  1  2  1  0  0  0  0
  2  7  1  0  0  0  0
  3  2  2  0  0  0  0
  3 18  1  0  0  0  0
  4  3  1  0  0  0  0
  5  6  1  0  0  0  0
  5  4  2  0  0  0  0
  6  1  2  0  0  0  0
  8  5  1  0  0  0  0
  9 10  1  0  0  0  0
 10 12  1  0  0  0  0
 10 11  1  0  0  0  0
 12 13  1  0  0  0  0
 14 15  1  0  0  0  0
 14 12  1  0  0  0  0
 16 14  1  0  0  0  0
 17 16  1  0  0  0  0
 17  9  1  0  0  0  0
 18 19  1  0  0  0  0
 18 20  1  0  0  0  0
 21 18  1  0  0  0  0
M  END
>  <minimizedAffinity>
-4.99243546

>  <minimizedRMSD>
5.00851536

$$$$
