REMARK  Name = 
REMARK  2 active torsions:
REMARK  status: ('A' for Active; 'I' for Inactive)
REMARK    1  A    between atoms: C_3  and  N_13
REMARK    2  A    between atoms: C_5  and  C_7
REMARK                            x       y       z     vdW  Elec       q    Type
REMARK                         _______ _______ _______ _____ _____    ______ ____
ROOT
ATOM      1  C   UNL     1      38.308  31.239  50.119  0.00  0.00    +0.000 A 
ATOM      2  C   UNL     1      38.294  31.611  48.772  0.00  0.00    +0.000 A 
ATOM      3  C   UNL     1      37.202  31.223  47.998  0.00  0.00    +0.000 A 
ATOM      4  N   UNL     1      36.220  30.507  48.602  0.00  0.00    +0.000 NA
ATOM      5  C   UNL     1      36.252  30.161  49.892  0.00  0.00    +0.000 A 
ATOM      6  N   UNL     1      37.304  30.532  50.650  0.00  0.00    +0.000 NA
ATOM      7  H   UNL     1      39.179  31.555  50.715  0.00  0.00    +0.000 HD
ATOM      8  H   UNL     1      39.072  32.183  48.277  0.00  0.00    +0.000 HD
ENDROOT
BRANCH   3   9
ATOM      9  N   UNL     1      37.059  31.531  46.623  0.00  0.00    +0.000 N 
ATOM     10  C   UNL     1      35.948  32.308  46.083  0.00  0.00    +0.000 C 
ATOM     11  H   UNL     1      35.486  32.949  46.864  0.00  0.00    +0.000 HD
ATOM     12  C   UNL     1      36.379  33.197  44.961  0.00  0.00    +0.000 C 
ATOM     13  H   UNL     1      35.468  33.467  44.389  0.00  0.00    +0.000 HD
ATOM     14  N   UNL     1      37.337  32.636  44.061  0.00  0.00    +0.000 NA
ATOM     15  H   UNL     1      38.246  33.156  44.196  0.00  0.00    +0.000 HD
ATOM     16  C   UNL     1      37.622  31.250  44.306  0.00  0.00    +0.000 C 
ATOM     17  C   UNL     1      38.090  31.031  45.743  0.00  0.00    +0.000 C 
ENDBRANCH   3   9
BRANCH   5  18
ATOM     18  C   UNL     1      35.120  29.376  50.445  0.00  0.00    +0.000 C 
ATOM     19  F   UNL     1      35.268  29.134  51.804  0.00  0.00    +0.000 F 
ATOM     20  F   UNL     1      33.924  30.063  50.302  0.00  0.00    +0.000 F 
ATOM     21  F   UNL     1      34.957  28.165  49.822  0.00  0.00    +0.000 F 
ENDBRANCH   5  18
TORSDOF 2
