
 OpenBabel03272509593D

 46 49  0  0  0  0  0  0  0  0999 V2000
   37.3060   26.2170   31.9000 C   0  0  0  0  0  0  0  0  0  0  0  0
   37.4590   26.9440   31.0610 H   0  0  0  0  0  0  0  0  0  0  0  0
   38.3040   25.8580   32.1980 H   0  0  0  0  0  0  0  0  0  0  0  0
   36.4210   25.1310   31.3750 C   0  0  0  0  0  0  0  0  0  0  0  0
   35.3610   25.4380   31.4880 H   0  0  0  0  0  0  0  0  0  0  0  0
   36.5560   24.9700   30.2760 H   0  0  0  0  0  0  0  0  0  0  0  0
   36.6320   23.8320   32.0780 C   0  0  0  0  0  0  0  0  0  0  0  0
   35.8130   22.7570   31.7240 C   0  0  0  0  0  0  0  0  0  0  0  0
   35.9400   21.5310   32.3200 C   0  0  0  0  0  0  0  0  0  0  0  0
   36.8590   21.3490   33.2540 N   0  0  0  0  0  0  0  0  0  0  0  0
   37.6520   22.4070   33.5900 C   0  0  0  0  0  0  0  0  0  0  0  0
   37.5550   23.6190   33.0290 N   0  0  0  0  0  0  0  0  0  0  0  0
   35.0600   22.9070   30.9580 H   0  0  0  0  0  0  0  0  0  0  0  0
   35.2680   20.7440   31.9940 H   0  0  0  0  0  0  0  0  0  0  0  0
   38.6810   22.1590   34.6560 C   0  0  0  0  0  0  0  0  0  0  0  0
   38.4430   21.1990   35.1630 H   0  0  0  0  0  0  0  0  0  0  0  0
   39.6800   22.0260   34.1830 H   0  0  0  0  0  0  0  0  0  0  0  0
   38.7590   23.1800   35.6400 N   0  0  0  0  0  0  0  0  0  0  0  0
   37.7930   22.9190   36.6810 C   0  0  0  0  0  3  0  0  0  0  0  0
   37.6290   21.8220   36.7450 H   0  0  0  0  0  0  0  0  0  0  0  0
   38.2220   23.4050   38.0460 C   0  0  0  0  0  3  0  0  0  0  0  0
   38.2400   24.5120   38.1040 H   0  0  0  0  0  0  0  0  0  0  0  0
   39.4720   22.8010   38.4660 N   0  0  0  0  0  0  0  0  0  0  0  0
   39.3660   22.1040   39.2240 H   0  0  0  0  0  0  0  0  0  0  0  0
   40.2160   22.3220   37.3160 C   0  0  0  0  0  2  0  0  0  0  0  0
   40.0450   23.3620   36.2290 C   0  0  0  0  0  2  0  0  0  0  0  0
   36.6520   26.9810   32.9070 O   0  0  0  0  0  0  0  0  0  0  0  0
   36.4090   30.3000   31.5070 C   0  0  0  0  0  0  0  0  0  0  0  0
   35.7910   30.9940   32.5830 C   0  0  0  0  0  0  0  0  0  0  0  0
   35.5010   30.2570   33.7240 C   0  0  0  0  0  0  0  0  0  0  0  0
   35.8410   28.9280   33.6990 N   0  0  0  0  0  0  0  0  0  0  0  0
   36.4190   28.3010   32.6770 C   0  0  0  0  0  0  0  0  0  0  0  0
   36.7040   29.0170   31.5640 N   0  0  0  0  0  0  0  0  0  0  0  0
   36.6180   30.9110   30.6370 H   0  0  0  0  0  0  0  0  0  0  0  0
   35.5330   32.0240   32.5860 H   0  0  0  0  0  0  0  0  0  0  0  0
   36.6890   31.8910   35.7910 F   0  0  0  0  0  0  0  0  0  0  0  0
   35.4110   31.5350   35.8900 C   0  0  0  0  0  0  0  0  0  0  0  0
   34.8760   30.7760   34.9220 C   0  0  0  0  0  0  0  0  0  0  0  0
   33.5300   30.4610   35.1240 C   0  0  0  0  0  0  0  0  0  0  0  0
   32.8250   30.8930   36.2190 C   0  0  0  0  0  0  0  0  0  0  0  0
   33.4190   31.6710   37.1870 C   0  0  0  0  0  0  0  0  0  0  0  0
   34.7310   31.9820   36.9970 C   0  0  0  0  0  0  0  0  0  0  0  0
   32.9910   29.8450   34.3940 H   0  0  0  0  0  0  0  0  0  0  0  0
   31.7790   30.6180   36.3260 H   0  0  0  0  0  0  0  0  0  0  0  0
   32.8680   32.0130   38.0530 H   0  0  0  0  0  0  0  0  0  0  0  0
   35.2150   32.5960   37.7540 H   0  0  0  0  0  0  0  0  0  0  0  0
  1  3  1  0  0  0  0
  1 27  1  0  0  0  0
  2  1  1  0  0  0  0
  4  5  1  0  0  0  0
  4  1  1  0  0  0  0
  4  7  1  0  0  0  0
  6  4  1  0  0  0  0
  7 12  1  0  0  0  0
  8  7  2  0  0  0  0
  8  9  1  0  0  0  0
  9 10  2  0  0  0  0
 10 11  1  0  0  0  0
 11 15  1  0  0  0  0
 12 11  2  0  0  0  0
 13  8  1  0  0  0  0
 14  9  1  0  0  0  0
 15 16  1  0  0  0  0
 15 18  1  0  0  0  0
 17 15  1  0  0  0  0
 18 26  1  0  0  0  0
 18 19  1  0  0  0  0
 19 20  1  0  0  0  0
 19 21  1  0  0  0  0
 21 22  1  0  0  0  0
 21 23  1  0  0  0  0
 23 24  1  0  0  0  0
 25 23  1  0  0  0  0
 26 25  1  0  0  0  0
 28 33  2  0  0  0  0
 28 29  1  0  0  0  0
 29 35  1  0  0  0  0
 29 30  2  0  0  0  0
 30 38  1  0  0  0  0
 31 30  1  0  0  0  0
 32 27  1  0  0  0  0
 32 31  2  0  0  0  0
 33 32  1  0  0  0  0
 34 28  1  0  0  0  0
 36 37  1  0  0  0  0
 37 42  1  0  0  0  0
 38 39  1  0  0  0  0
 38 37  2  0  0  0  0
 39 40  2  0  0  0  0
 40 44  1  0  0  0  0
 40 41  1  0  0  0  0
 41 45  1  0  0  0  0
 42 41  2  0  0  0  0
 42 46  1  0  0  0  0
 43 39  1  0  0  0  0
M  END
>  <minimizedAffinity>
-6.72298384

$$$$

 OpenBabel03272509593D

 46 49  0  0  0  0  0  0  0  0999 V2000
   38.1920   27.1380   35.2590 C   0  0  0  0  0  0  0  0  0  0  0  0
   38.7340   28.0750   34.9710 H   0  0  0  0  0  0  0  0  0  0  0  0
   37.7330   27.3230   36.2430 H   0  0  0  0  0  0  0  0  0  0  0  0
   39.2080   26.0400   35.2800 C   0  0  0  0  0  0  0  0  0  0  0  0
   39.7590   26.0350   34.3170 H   0  0  0  0  0  0  0  0  0  0  0  0
   39.9940   26.2060   36.0580 H   0  0  0  0  0  0  0  0  0  0  0  0
   38.5940   24.6970   35.4990 C   0  0  0  0  0  0  0  0  0  0  0  0
   38.1240   24.3960   36.7800 C   0  0  0  0  0  0  0  0  0  0  0  0
   37.5470   23.1880   37.0660 C   0  0  0  0  0  0  0  0  0  0  0  0
   37.4260   22.2770   36.1130 N   0  0  0  0  0  0  0  0  0  0  0  0
   37.8890   22.5850   34.8680 C   0  0  0  0  0  0  0  0  0  0  0  0
   38.4590   23.7550   34.5530 N   0  0  0  0  0  0  0  0  0  0  0  0
   38.2230   25.1420   37.5600 H   0  0  0  0  0  0  0  0  0  0  0  0
   37.2060   23.0240   38.0830 H   0  0  0  0  0  0  0  0  0  0  0  0
   37.7340   21.5240   33.8160 C   0  0  0  0  0  0  0  0  0  0  0  0
   38.5920   21.5930   33.1120 H   0  0  0  0  0  0  0  0  0  0  0  0
   37.7960   20.5190   34.2910 H   0  0  0  0  0  0  0  0  0  0  0  0
   36.5310   21.6170   33.0670 N   0  0  0  0  0  0  0  0  0  0  0  0
   36.8160   21.4010   31.6690 C   0  0  0  0  0  3  0  0  0  0  0  0
   37.7050   20.7390   31.5880 H   0  0  0  0  0  0  0  0  0  0  0  0
   35.6820   20.7530   30.9080 C   0  0  0  0  0  3  0  0  0  0  0  0
   34.8140   21.4330   30.8010 H   0  0  0  0  0  0  0  0  0  0  0  0
   35.3210   19.4660   31.4710 N   0  0  0  0  0  0  0  0  0  0  0  0
   35.6010   18.6600   30.8850 H   0  0  0  0  0  0  0  0  0  0  0  0
   35.7530   19.3770   32.8530 C   0  0  0  0  0  2  0  0  0  0  0  0
   35.4890   20.7320   33.4750 C   0  0  0  0  0  2  0  0  0  0  0  0
   37.2430   26.9500   34.2150 O   0  0  0  0  0  0  0  0  0  0  0  0
   36.0930   29.4930   31.9240 C   0  0  0  0  0  0  0  0  0  0  0  0
   35.4410   30.3800   32.8230 C   0  0  0  0  0  0  0  0  0  0  0  0
   35.4480   30.0320   34.1680 C   0  0  0  0  0  0  0  0  0  0  0  0
   36.0840   28.8620   34.4950 N   0  0  0  0  0  0  0  0  0  0  0  0
   36.6870   28.0460   33.6330 C   0  0  0  0  0  0  0  0  0  0  0  0
   36.6830   28.3830   32.3220 N   0  0  0  0  0  0  0  0  0  0  0  0
   36.0650   29.8010   30.8860 H   0  0  0  0  0  0  0  0  0  0  0  0
   34.9530   31.2840   32.5530 H   0  0  0  0  0  0  0  0  0  0  0  0
   36.7160   31.9290   35.9420 F   0  0  0  0  0  0  0  0  0  0  0  0
   35.4150   31.6820   36.0670 C   0  0  0  0  0  0  0  0  0  0  0  0
   34.8430   30.7990   35.2360 C   0  0  0  0  0  0  0  0  0  0  0  0
   33.4750   30.6160   35.4540 C   0  0  0  0  0  0  0  0  0  0  0  0
   32.7850   31.2840   36.4340 C   0  0  0  0  0  0  0  0  0  0  0  0
   33.4180   32.1830   37.2630 C   0  0  0  0  0  0  0  0  0  0  0  0
   34.7510   32.3660   37.0570 C   0  0  0  0  0  0  0  0  0  0  0  0
   32.9050   29.9160   34.8300 H   0  0  0  0  0  0  0  0  0  0  0  0
   31.7210   31.1040   36.5590 H   0  0  0  0  0  0  0  0  0  0  0  0
   32.8790   32.7110   38.0380 H   0  0  0  0  0  0  0  0  0  0  0  0
   35.2650   33.0730   37.7060 H   0  0  0  0  0  0  0  0  0  0  0  0
  1  4  1  0  0  0  0
  1  3  1  0  0  0  0
  2  1  1  0  0  0  0
  4  7  1  0  0  0  0
  4  6  1  0  0  0  0
  5  4  1  0  0  0  0
  7  8  1  0  0  0  0
  8  9  2  0  0  0  0
  8 13  1  0  0  0  0
  9 14  1  0  0  0  0
 10  9  1  0  0  0  0
 11 10  2  0  0  0  0
 12 11  1  0  0  0  0
 12  7  2  0  0  0  0
 15 17  1  0  0  0  0
 15 11  1  0  0  0  0
 16 15  1  0  0  0  0
 18 26  1  0  0  0  0
 18 15  1  0  0  0  0
 19 18  1  0  0  0  0
 20 19  1  0  0  0  0
 21 23  1  0  0  0  0
 21 19  1  0  0  0  0
 22 21  1  0  0  0  0
 23 25  1  0  0  0  0
 24 23  1  0  0  0  0
 25 26  1  0  0  0  0
 27  1  1  0  0  0  0
 28 33  2  0  0  0  0
 28 29  1  0  0  0  0
 29 30  2  0  0  0  0
 30 31  1  0  0  0  0
 30 38  1  0  0  0  0
 32 27  1  0  0  0  0
 32 31  2  0  0  0  0
 33 32  1  0  0  0  0
 34 28  1  0  0  0  0
 35 29  1  0  0  0  0
 36 37  1  0  0  0  0
 37 42  1  0  0  0  0
 38 39  1  0  0  0  0
 38 37  2  0  0  0  0
 39 40  2  0  0  0  0
 40 44  1  0  0  0  0
 40 41  1  0  0  0  0
 41 45  1  0  0  0  0
 42 41  2  0  0  0  0
 42 46  1  0  0  0  0
 43 39  1  0  0  0  0
M  END
>  <minimizedAffinity>
-6.44988441

$$$$

 OpenBabel03272509593D

 46 49  0  0  0  0  0  0  0  0999 V2000
   36.1210   26.8000   30.9050 C   0  0  0  0  0  0  0  0  0  0  0  0
   37.2040   26.7690   30.6200 H   0  0  0  0  0  0  0  0  0  0  0  0
   35.6030   27.3940   30.1350 H   0  0  0  0  0  0  0  0  0  0  0  0
   36.0500   27.4100   32.2690 C   0  0  0  0  0  0  0  0  0  0  0  0
   35.9810   28.5130   32.1710 H   0  0  0  0  0  0  0  0  0  0  0  0
   35.1200   27.1130   32.8160 H   0  0  0  0  0  0  0  0  0  0  0  0
   37.2320   27.0670   33.1110 C   0  0  0  0  0  0  0  0  0  0  0  0
   38.5000   27.3740   32.6120 C   0  0  0  0  0  0  0  0  0  0  0  0
   39.6380   27.0920   33.3210 C   0  0  0  0  0  0  0  0  0  0  0  0
   39.5440   26.5170   34.5090 N   0  0  0  0  0  0  0  0  0  0  0  0
   38.3000   26.2230   34.9840 C   0  0  0  0  0  0  0  0  0  0  0  0
   37.1670   26.4840   34.3180 N   0  0  0  0  0  0  0  0  0  0  0  0
   38.5770   27.8450   31.6390 H   0  0  0  0  0  0  0  0  0  0  0  0
   40.5880   27.3580   32.8690 H   0  0  0  0  0  0  0  0  0  0  0  0
   38.2370   25.5700   36.3350 C   0  0  0  0  0  0  0  0  0  0  0  0
   39.0880   25.9380   36.9470 H   0  0  0  0  0  0  0  0  0  0  0  0
   37.3090   25.8910   36.8600 H   0  0  0  0  0  0  0  0  0  0  0  0
   38.2910   24.1500   36.2990 N   0  0  0  0  0  0  0  0  0  0  0  0
   39.6650   23.7240   36.1880 C   0  0  0  0  0  3  0  0  0  0  0  0
   40.3130   24.4910   36.6650 H   0  0  0  0  0  0  0  0  0  0  0  0
   39.9470   22.3970   36.8560 C   0  0  0  0  0  3  0  0  0  0  0  0
   39.4640   21.5550   36.3220 H   0  0  0  0  0  0  0  0  0  0  0  0
   39.6240   22.4250   38.2690 N   0  0  0  0  0  0  0  0  0  0  0  0
   40.4540   22.4220   38.8880 H   0  0  0  0  0  0  0  0  0  0  0  0
   38.6730   23.4830   38.5530 C   0  0  0  0  0  2  0  0  0  0  0  0
   37.6830   23.4900   37.4070 C   0  0  0  0  0  2  0  0  0  0  0  0
   35.7280   25.4320   30.9250 O   0  0  0  0  0  0  0  0  0  0  0  0
   38.7470   23.5750   30.2340 C   0  0  0  0  0  0  0  0  0  0  0  0
   38.3600   22.2760   30.6600 C   0  0  0  0  0  0  0  0  0  0  0  0
   37.0710   22.1350   31.1600 C   0  0  0  0  0  0  0  0  0  0  0  0
   36.2990   23.2680   31.1920 N   0  0  0  0  0  0  0  0  0  0  0  0
   36.6860   24.4750   30.7870 C   0  0  0  0  0  0  0  0  0  0  0  0
   37.9400   24.6160   30.2990 N   0  0  0  0  0  0  0  0  0  0  0  0
   39.7590   23.6430   29.8520 H   0  0  0  0  0  0  0  0  0  0  0  0
   38.9710   21.4080   30.6290 H   0  0  0  0  0  0  0  0  0  0  0  0
   36.6110   19.6880   29.6930 F   0  0  0  0  0  0  0  0  0  0  0  0
   36.2680   19.7580   30.9760 C   0  0  0  0  0  0  0  0  0  0  0  0
   36.4880   20.9010   31.6410 C   0  0  0  0  0  0  0  0  0  0  0  0
   36.0920   20.8650   32.9810 C   0  0  0  0  0  0  0  0  0  0  0  0
   35.5280   19.7550   33.5570 C   0  0  0  0  0  0  0  0  0  0  0  0
   35.3220   18.6030   32.8310 C   0  0  0  0  0  0  0  0  0  0  0  0
   35.7050   18.6300   31.5250 C   0  0  0  0  0  0  0  0  0  0  0  0
   36.2260   21.7460   33.6200 H   0  0  0  0  0  0  0  0  0  0  0  0
   35.2390   19.7830   34.6040 H   0  0  0  0  0  0  0  0  0  0  0  0
   34.8770   17.7260   33.2810 H   0  0  0  0  0  0  0  0  0  0  0  0
   35.5480   17.7270   30.9380 H   0  0  0  0  0  0  0  0  0  0  0  0
  1 27  1  0  0  0  0
  1  4  1  0  0  0  0
  2  1  1  0  0  0  0
  3  1  1  0  0  0  0
  4  6  1  0  0  0  0
  4  7  1  0  0  0  0
  5  4  1  0  0  0  0
  7 12  1  0  0  0  0
  8  7  2  0  0  0  0
  8  9  1  0  0  0  0
  9 10  2  0  0  0  0
 10 11  1  0  0  0  0
 11 15  1  0  0  0  0
 12 11  2  0  0  0  0
 13  8  1  0  0  0  0
 14  9  1  0  0  0  0
 15 17  1  0  0  0  0
 15 16  1  0  0  0  0
 18 15  1  0  0  0  0
 18 26  1  0  0  0  0
 19 18  1  0  0  0  0
 19 20  1  0  0  0  0
 19 21  1  0  0  0  0
 21 23  1  0  0  0  0
 22 21  1  0  0  0  0
 23 25  1  0  0  0  0
 23 24  1  0  0  0  0
 26 25  1  0  0  0  0
 28 33  2  0  0  0  0
 28 29  1  0  0  0  0
 29 30  2  0  0  0  0
 30 31  1  0  0  0  0
 30 38  1  0  0  0  0
 32 27  1  0  0  0  0
 32 31  2  0  0  0  0
 33 32  1  0  0  0  0
 34 28  1  0  0  0  0
 35 29  1  0  0  0  0
 36 37  1  0  0  0  0
 37 42  2  0  0  0  0
 37 38  1  0  0  0  0
 38 39  2  0  0  0  0
 39 40  1  0  0  0  0
 39 43  1  0  0  0  0
 40 44  1  0  0  0  0
 41 45  1  0  0  0  0
 41 40  2  0  0  0  0
 42 41  1  0  0  0  0
 46 42  1  0  0  0  0
M  END
>  <minimizedAffinity>
-6.41815329

$$$$

 OpenBabel03272509593D

 46 49  0  0  0  0  0  0  0  0999 V2000
   37.6950   25.0770   30.9110 C   0  0  0  0  0  0  0  0  0  0  0  0
   38.0720   25.1620   29.8590 H   0  0  0  0  0  0  0  0  0  0  0  0
   38.5250   24.6810   31.5180 H   0  0  0  0  0  0  0  0  0  0  0  0
   36.5070   24.1680   30.8720 C   0  0  0  0  0  0  0  0  0  0  0  0
   35.5830   24.7710   30.9860 H   0  0  0  0  0  0  0  0  0  0  0  0
   36.3960   23.6600   29.8810 H   0  0  0  0  0  0  0  0  0  0  0  0
   36.5480   23.1270   31.9410 C   0  0  0  0  0  0  0  0  0  0  0  0
   35.5490   22.1500   31.9390 C   0  0  0  0  0  0  0  0  0  0  0  0
   35.5130   21.1600   32.8840 C   0  0  0  0  0  0  0  0  0  0  0  0
   36.4430   21.1180   33.8250 N   0  0  0  0  0  0  0  0  0  0  0  0
   37.4120   22.0780   33.8140 C   0  0  0  0  0  0  0  0  0  0  0  0
   37.4770   23.0600   32.9070 N   0  0  0  0  0  0  0  0  0  0  0  0
   34.7880   22.1850   31.1680 H   0  0  0  0  0  0  0  0  0  0  0  0
   34.7070   20.4360   32.8200 H   0  0  0  0  0  0  0  0  0  0  0  0
   38.4460   21.9950   34.8990 C   0  0  0  0  0  0  0  0  0  0  0  0
   38.2650   21.0750   35.4940 H   0  0  0  0  0  0  0  0  0  0  0  0
   39.4550   21.8810   34.4420 H   0  0  0  0  0  0  0  0  0  0  0  0
   38.4540   23.1070   35.7840 N   0  0  0  0  0  0  0  0  0  0  0  0
   37.5170   22.8750   36.8570 C   0  0  0  0  0  3  0  0  0  0  0  0
   37.4350   21.7790   37.0240 H   0  0  0  0  0  0  0  0  0  0  0  0
   37.9170   23.5160   38.1660 C   0  0  0  0  0  3  0  0  0  0  0  0
   37.8520   24.6220   38.1200 H   0  0  0  0  0  0  0  0  0  0  0  0
   39.2100   23.0470   38.6240 N   0  0  0  0  0  0  0  0  0  0  0  0
   39.1610   22.4190   39.4440 H   0  0  0  0  0  0  0  0  0  0  0  0
   39.9810   22.5190   37.5140 C   0  0  0  0  0  2  0  0  0  0  0  0
   39.7260   23.4370   36.3370 C   0  0  0  0  0  2  0  0  0  0  0  0
   37.3220   26.4060   31.2560 O   0  0  0  0  0  0  0  0  0  0  0  0
   38.0440   26.7380   34.7770 C   0  0  0  0  0  0  0  0  0  0  0  0
   37.1790   27.8120   35.1230 C   0  0  0  0  0  0  0  0  0  0  0  0
   36.4020   28.3470   34.1030 C   0  0  0  0  0  0  0  0  0  0  0  0
   36.5480   27.7850   32.8610 N   0  0  0  0  0  0  0  0  0  0  0  0
   37.3670   26.7790   32.5630 C   0  0  0  0  0  0  0  0  0  0  0  0
   38.1240   26.2540   33.5540 N   0  0  0  0  0  0  0  0  0  0  0  0
   38.6320   26.3500   35.6000 H   0  0  0  0  0  0  0  0  0  0  0  0
   37.0780   28.2360   36.0900 H   0  0  0  0  0  0  0  0  0  0  0  0
   36.5860   30.6370   35.8570 F   0  0  0  0  0  0  0  0  0  0  0  0
   35.5320   30.5070   35.0570 C   0  0  0  0  0  0  0  0  0  0  0  0
   35.4620   29.4390   34.2500 C   0  0  0  0  0  0  0  0  0  0  0  0
   34.3150   29.4010   33.4530 C   0  0  0  0  0  0  0  0  0  0  0  0
   33.3500   30.3750   33.4980 C   0  0  0  0  0  0  0  0  0  0  0  0
   33.4670   31.4550   34.3450 C   0  0  0  0  0  0  0  0  0  0  0  0
   34.5820   31.4980   35.1250 C   0  0  0  0  0  0  0  0  0  0  0  0
   34.1550   28.5710   32.7530 H   0  0  0  0  0  0  0  0  0  0  0  0
   32.4780   30.2960   32.8550 H   0  0  0  0  0  0  0  0  0  0  0  0
   32.7080   32.2250   34.3850 H   0  0  0  0  0  0  0  0  0  0  0  0
   34.6880   32.3450   35.8000 H   0  0  0  0  0  0  0  0  0  0  0  0
  1 27  1  0  0  0  0
  1  3  1  0  0  0  0
  2  1  1  0  0  0  0
  4  1  1  0  0  0  0
  4  5  1  0  0  0  0
  4  7  1  0  0  0  0
  6  4  1  0  0  0  0
  7 12  1  0  0  0  0
  8  7  2  0  0  0  0
  8  9  1  0  0  0  0
  9 10  2  0  0  0  0
 11 10  1  0  0  0  0
 11 15  1  0  0  0  0
 12 11  2  0  0  0  0
 13  8  1  0  0  0  0
 14  9  1  0  0  0  0
 15 16  1  0  0  0  0
 15 18  1  0  0  0  0
 17 15  1  0  0  0  0
 18 26  1  0  0  0  0
 18 19  1  0  0  0  0
 19 20  1  0  0  0  0
 19 21  1  0  0  0  0
 21 23  1  0  0  0  0
 22 21  1  0  0  0  0
 23 24  1  0  0  0  0
 25 23  1  0  0  0  0
 26 25  1  0  0  0  0
 27 32  1  0  0  0  0
 28 29  1  0  0  0  0
 28 34  1  0  0  0  0
 29 35  1  0  0  0  0
 30 38  1  0  0  0  0
 30 29  2  0  0  0  0
 31 30  1  0  0  0  0
 32 31  2  0  0  0  0
 32 33  1  0  0  0  0
 33 28  2  0  0  0  0
 37 42  1  0  0  0  0
 37 36  1  0  0  0  0
 38 37  2  0  0  0  0
 39 40  2  0  0  0  0
 39 38  1  0  0  0  0
 40 41  1  0  0  0  0
 41 45  1  0  0  0  0
 41 42  2  0  0  0  0
 42 46  1  0  0  0  0
 43 39  1  0  0  0  0
 44 40  1  0  0  0  0
M  END
>  <minimizedAffinity>
-6.41110086

$$$$

 OpenBabel03272509593D

 46 49  0  0  0  0  0  0  0  0999 V2000
   37.2970   25.5230   31.2830 C   0  0  0  0  0  0  0  0  0  0  0  0
   37.3390   26.1700   30.3690 H   0  0  0  0  0  0  0  0  0  0  0  0
   38.3280   25.2000   31.4950 H   0  0  0  0  0  0  0  0  0  0  0  0
   36.3750   24.3870   30.9670 C   0  0  0  0  0  0  0  0  0  0  0  0
   35.3310   24.7610   30.9470 H   0  0  0  0  0  0  0  0  0  0  0  0
   36.5510   23.9740   29.9430 H   0  0  0  0  0  0  0  0  0  0  0  0
   36.4790   23.2750   31.9570 C   0  0  0  0  0  0  0  0  0  0  0  0
   35.5330   22.2500   31.8870 C   0  0  0  0  0  0  0  0  0  0  0  0
   35.5560   21.1920   32.7570 C   0  0  0  0  0  0  0  0  0  0  0  0
   36.4930   21.1300   33.6890 N   0  0  0  0  0  0  0  0  0  0  0  0
   37.4110   22.1380   33.7450 C   0  0  0  0  0  0  0  0  0  0  0  0
   37.4180   23.1870   32.9110 N   0  0  0  0  0  0  0  0  0  0  0  0
   34.7640   22.3010   31.1240 H   0  0  0  0  0  0  0  0  0  0  0  0
   34.7880   20.4340   32.6430 H   0  0  0  0  0  0  0  0  0  0  0  0
   38.4570   22.0310   34.8160 C   0  0  0  0  0  0  0  0  0  0  0  0
   38.2820   21.0970   35.3920 H   0  0  0  0  0  0  0  0  0  0  0  0
   39.4610   21.9270   34.3460 H   0  0  0  0  0  0  0  0  0  0  0  0
   38.4750   23.1220   35.7260 N   0  0  0  0  0  0  0  0  0  0  0  0
   37.5420   22.8700   36.7980 C   0  0  0  0  0  3  0  0  0  0  0  0
   37.4560   21.7710   36.9410 H   0  0  0  0  0  0  0  0  0  0  0  0
   37.9520   23.4800   38.1190 C   0  0  0  0  0  3  0  0  0  0  0  0
   37.8930   24.5860   38.0990 H   0  0  0  0  0  0  0  0  0  0  0  0
   39.2460   22.9940   38.5590 N   0  0  0  0  0  0  0  0  0  0  0  0
   39.1980   22.3480   39.3660 H   0  0  0  0  0  0  0  0  0  0  0  0
   40.0080   22.4880   37.4330 C   0  0  0  0  0  2  0  0  0  0  0  0
   39.7520   23.4340   36.2790 C   0  0  0  0  0  2  0  0  0  0  0  0
   36.7510   26.3740   32.2860 O   0  0  0  0  0  0  0  0  0  0  0  0
   37.8860   27.0040   35.6550 C   0  0  0  0  0  0  0  0  0  0  0  0
   39.2900   27.0880   35.4470 C   0  0  0  0  0  0  0  0  0  0  0  0
   39.7450   26.9180   34.1460 C   0  0  0  0  0  0  0  0  0  0  0  0
   38.7920   26.6860   33.1880 N   0  0  0  0  0  0  0  0  0  0  0  0
   37.4810   26.6120   33.4080 C   0  0  0  0  0  0  0  0  0  0  0  0
   37.0340   26.7780   34.6750 N   0  0  0  0  0  0  0  0  0  0  0  0
   37.5720   27.1420   36.6830 H   0  0  0  0  0  0  0  0  0  0  0  0
   40.0150   27.2680   36.2010 H   0  0  0  0  0  0  0  0  0  0  0  0
   42.0130   25.5760   35.3330 F   0  0  0  0  0  0  0  0  0  0  0  0
   42.1940   26.3520   34.2680 C   0  0  0  0  0  0  0  0  0  0  0  0
   41.1310   26.9670   33.7300 C   0  0  0  0  0  0  0  0  0  0  0  0
   41.4320   27.7560   32.6160 C   0  0  0  0  0  0  0  0  0  0  0  0
   42.7060   27.8840   32.1230 C   0  0  0  0  0  0  0  0  0  0  0  0
   43.7660   27.2310   32.7110 C   0  0  0  0  0  0  0  0  0  0  0  0
   43.4800   26.4610   33.7970 C   0  0  0  0  0  0  0  0  0  0  0  0
   40.6370   28.3050   32.0960 H   0  0  0  0  0  0  0  0  0  0  0  0
   42.8830   28.5110   31.2530 H   0  0  0  0  0  0  0  0  0  0  0  0
   44.7730   27.3310   32.3260 H   0  0  0  0  0  0  0  0  0  0  0  0
   44.3080   25.9400   34.2720 H   0  0  0  0  0  0  0  0  0  0  0  0
  1  3  1  0  0  0  0
  1 27  1  0  0  0  0
  2  1  1  0  0  0  0
  4  1  1  0  0  0  0
  4  7  1  0  0  0  0
  5  4  1  0  0  0  0
  6  4  1  0  0  0  0
  7 12  1  0  0  0  0
  8  7  2  0  0  0  0
  8  9  1  0  0  0  0
  9 10  2  0  0  0  0
 10 11  1  0  0  0  0
 11 15  1  0  0  0  0
 12 11  2  0  0  0  0
 13  8  1  0  0  0  0
 14  9  1  0  0  0  0
 15 16  1  0  0  0  0
 15 18  1  0  0  0  0
 17 15  1  0  0  0  0
 18 26  1  0  0  0  0
 18 19  1  0  0  0  0
 19 20  1  0  0  0  0
 19 21  1  0  0  0  0
 21 23  1  0  0  0  0
 22 21  1  0  0  0  0
 23 24  1  0  0  0  0
 25 23  1  0  0  0  0
 26 25  1  0  0  0  0
 27 32  1  0  0  0  0
 28 34  1  0  0  0  0
 29 28  1  0  0  0  0
 29 35  1  0  0  0  0
 30 29  2  0  0  0  0
 31 32  2  0  0  0  0
 31 30  1  0  0  0  0
 32 33  1  0  0  0  0
 33 28  2  0  0  0  0
 37 36  1  0  0  0  0
 38 30  1  0  0  0  0
 38 37  2  0  0  0  0
 39 38  1  0  0  0  0
 40 39  2  0  0  0  0
 40 41  1  0  0  0  0
 41 42  2  0  0  0  0
 42 37  1  0  0  0  0
 42 46  1  0  0  0  0
 43 39  1  0  0  0  0
 44 40  1  0  0  0  0
 45 41  1  0  0  0  0
M  END
>  <minimizedAffinity>
-6.22957182

$$$$

 OpenBabel03272509593D

 46 49  0  0  0  0  0  0  0  0999 V2000
   36.6280   27.7510   32.8750 C   0  0  0  0  0  0  0  0  0  0  0  0
   37.1690   28.7260   32.9800 H   0  0  0  0  0  0  0  0  0  0  0  0
   36.5270   27.3300   33.8880 H   0  0  0  0  0  0  0  0  0  0  0  0
   37.4480   26.8970   31.9600 C   0  0  0  0  0  0  0  0  0  0  0  0
   37.1460   27.0930   30.9110 H   0  0  0  0  0  0  0  0  0  0  0  0
   38.5350   27.1610   31.9980 H   0  0  0  0  0  0  0  0  0  0  0  0
   37.2980   25.4410   32.2490 C   0  0  0  0  0  0  0  0  0  0  0  0
   36.4270   24.7020   31.4450 C   0  0  0  0  0  0  0  0  0  0  0  0
   36.2310   23.3620   31.6430 C   0  0  0  0  0  0  0  0  0  0  0  0
   36.8790   22.7410   32.6160 N   0  0  0  0  0  0  0  0  0  0  0  0
   37.7270   23.4750   33.3930 C   0  0  0  0  0  0  0  0  0  0  0  0
   37.9410   24.7860   33.2280 N   0  0  0  0  0  0  0  0  0  0  0  0
   35.8960   25.2110   30.6480 H   0  0  0  0  0  0  0  0  0  0  0  0
   35.5380   22.8540   30.9790 H   0  0  0  0  0  0  0  0  0  0  0  0
   38.4410   22.7330   34.4860 C   0  0  0  0  0  0  0  0  0  0  0  0
   37.7920   21.9020   34.8350 H   0  0  0  0  0  0  0  0  0  0  0  0
   39.3620   22.2630   34.0740 H   0  0  0  0  0  0  0  0  0  0  0  0
   38.7840   23.5360   35.6080 N   0  0  0  0  0  0  0  0  0  0  0  0
   37.9080   23.2200   36.7100 C   0  0  0  0  0  3  0  0  0  0  0  0
   37.5830   22.1610   36.6120 H   0  0  0  0  0  0  0  0  0  0  0  0
   38.5540   23.3840   38.0670 C   0  0  0  0  0  3  0  0  0  0  0  0
   38.7500   24.4480   38.3060 H   0  0  0  0  0  0  0  0  0  0  0  0
   39.7320   22.5500   38.2090 N   0  0  0  0  0  0  0  0  0  0  0  0
   39.6020   21.7460   38.8480 H   0  0  0  0  0  0  0  0  0  0  0  0
   40.2630   22.1960   36.9060 C   0  0  0  0  0  2  0  0  0  0  0  0
   40.1390   23.4320   36.0400 C   0  0  0  0  0  2  0  0  0  0  0  0
   35.3840   28.1060   32.2800 O   0  0  0  0  0  0  0  0  0  0  0  0
   32.8280   30.3250   33.5370 C   0  0  0  0  0  0  0  0  0  0  0  0
   33.6140   31.4510   33.9030 C   0  0  0  0  0  0  0  0  0  0  0  0
   34.9830   31.3600   33.6870 C   0  0  0  0  0  0  0  0  0  0  0  0
   35.4420   30.1890   33.1400 N   0  0  0  0  0  0  0  0  0  0  0  0
   34.6830   29.1470   32.8060 C   0  0  0  0  0  0  0  0  0  0  0  0
   33.3490   29.2320   33.0140 N   0  0  0  0  0  0  0  0  0  0  0  0
   31.7660   30.4360   33.7220 H   0  0  0  0  0  0  0  0  0  0  0  0
   33.2440   32.3510   34.3270 H   0  0  0  0  0  0  0  0  0  0  0  0
   35.9380   32.2030   36.2810 F   0  0  0  0  0  0  0  0  0  0  0  0
   36.4040   32.7960   35.1870 C   0  0  0  0  0  0  0  0  0  0  0  0
   35.9510   32.3930   33.9910 C   0  0  0  0  0  0  0  0  0  0  0  0
   36.5060   33.0810   32.9090 C   0  0  0  0  0  0  0  0  0  0  0  0
   37.4330   34.0810   33.0650 C   0  0  0  0  0  0  0  0  0  0  0  0
   37.8680   34.4600   34.3150 C   0  0  0  0  0  0  0  0  0  0  0  0
   37.3310   33.7940   35.3740 C   0  0  0  0  0  0  0  0  0  0  0  0
   36.2070   32.8330   31.8830 H   0  0  0  0  0  0  0  0  0  0  0  0
   37.8320   34.5830   32.1880 H   0  0  0  0  0  0  0  0  0  0  0  0
   38.5980   35.2480   34.4430 H   0  0  0  0  0  0  0  0  0  0  0  0
   37.6650   34.0830   36.3690 H   0  0  0  0  0  0  0  0  0  0  0  0
  1  2  1  0  0  0  0
  1  3  1  0  0  0  0
  4  6  1  0  0  0  0
  4  7  1  0  0  0  0
  4  1  1  0  0  0  0
  5  4  1  0  0  0  0
  7 12  1  0  0  0  0
  8  9  1  0  0  0  0
  8  7  2  0  0  0  0
  9 10  2  0  0  0  0
 10 11  1  0  0  0  0
 11 15  1  0  0  0  0
 12 11  2  0  0  0  0
 13  8  1  0  0  0  0
 14  9  1  0  0  0  0
 15 16  1  0  0  0  0
 15 18  1  0  0  0  0
 17 15  1  0  0  0  0
 18 26  1  0  0  0  0
 18 19  1  0  0  0  0
 19 21  1  0  0  0  0
 20 19  1  0  0  0  0
 21 23  1  0  0  0  0
 21 22  1  0  0  0  0
 23 24  1  0  0  0  0
 25 23  1  0  0  0  0
 26 25  1  0  0  0  0
 27 32  1  0  0  0  0
 27  1  1  0  0  0  0
 28 34  1  0  0  0  0
 28 29  1  0  0  0  0
 29 35  1  0  0  0  0
 30 29  2  0  0  0  0
 30 38  1  0  0  0  0
 31 30  1  0  0  0  0
 32 33  1  0  0  0  0
 32 31  2  0  0  0  0
 33 28  2  0  0  0  0
 37 42  1  0  0  0  0
 37 36  1  0  0  0  0
 38 37  2  0  0  0  0
 39 40  2  0  0  0  0
 39 38  1  0  0  0  0
 40 41  1  0  0  0  0
 41 45  1  0  0  0  0
 41 42  2  0  0  0  0
 42 46  1  0  0  0  0
 43 39  1  0  0  0  0
 44 40  1  0  0  0  0
M  END
>  <minimizedAffinity>
-6.07892179

$$$$

 OpenBabel03272509593D

 46 49  0  0  0  0  0  0  0  0999 V2000
   37.5460   26.6760   31.7250 C   0  0  0  0  0  0  0  0  0  0  0  0
   37.6110   25.6170   32.0850 H   0  0  0  0  0  0  0  0  0  0  0  0
   37.0440   26.6500   30.7440 H   0  0  0  0  0  0  0  0  0  0  0  0
   38.9470   27.1970   31.6560 C   0  0  0  0  0  0  0  0  0  0  0  0
   39.4050   26.8840   30.6960 H   0  0  0  0  0  0  0  0  0  0  0  0
   38.9810   28.3150   31.6390 H   0  0  0  0  0  0  0  0  0  0  0  0
   39.7940   26.7090   32.7850 C   0  0  0  0  0  0  0  0  0  0  0  0
   41.0390   27.3130   32.9740 C   0  0  0  0  0  0  0  0  0  0  0  0
   41.8770   26.9260   33.9850 C   0  0  0  0  0  0  0  0  0  0  0  0
   41.5080   25.9580   34.8090 N   0  0  0  0  0  0  0  0  0  0  0  0
   40.2890   25.3770   34.6120 C   0  0  0  0  0  0  0  0  0  0  0  0
   39.4450   25.7300   33.6340 N   0  0  0  0  0  0  0  0  0  0  0  0
   41.3410   28.1060   32.3000 H   0  0  0  0  0  0  0  0  0  0  0  0
   42.8290   27.4400   34.0710 H   0  0  0  0  0  0  0  0  0  0  0  0
   39.9080   24.2830   35.5660 C   0  0  0  0  0  0  0  0  0  0  0  0
   40.4870   23.3690   35.3100 H   0  0  0  0  0  0  0  0  0  0  0  0
   40.2120   24.5680   36.5990 H   0  0  0  0  0  0  0  0  0  0  0  0
   38.5260   23.9550   35.5560 N   0  0  0  0  0  0  0  0  0  0  0  0
   38.3720   22.5210   35.4930 C   0  0  0  0  0  3  0  0  0  0  0  0
   39.2550   22.0490   35.9750 H   0  0  0  0  0  0  0  0  0  0  0  0
   37.1320   22.0100   36.1900 C   0  0  0  0  0  3  0  0  0  0  0  0
   36.2070   22.3040   35.6570 H   0  0  0  0  0  0  0  0  0  0  0  0
   37.1120   22.3760   37.5930 N   0  0  0  0  0  0  0  0  0  0  0  0
   37.2760   21.5820   38.2360 H   0  0  0  0  0  0  0  0  0  0  0  0
   37.9690   23.5230   37.8310 C   0  0  0  0  0  2  0  0  0  0  0  0
   37.7720   24.4590   36.6570 C   0  0  0  0  0  2  0  0  0  0  0  0
   36.7920   27.3400   32.7320 O   0  0  0  0  0  0  0  0  0  0  0  0
   36.0210   30.5700   31.3150 C   0  0  0  0  0  0  0  0  0  0  0  0
   35.4510   31.2220   32.4420 C   0  0  0  0  0  0  0  0  0  0  0  0
   35.3740   30.4900   33.6200 C   0  0  0  0  0  0  0  0  0  0  0  0
   35.8570   29.2080   33.5790 N   0  0  0  0  0  0  0  0  0  0  0  0
   36.3870   28.6190   32.5090 C   0  0  0  0  0  0  0  0  0  0  0  0
   36.4640   29.3290   31.3590 N   0  0  0  0  0  0  0  0  0  0  0  0
   36.0630   31.1740   30.4160 H   0  0  0  0  0  0  0  0  0  0  0  0
   35.0800   32.2170   32.4570 H   0  0  0  0  0  0  0  0  0  0  0  0
   36.7110   32.0220   35.6750 F   0  0  0  0  0  0  0  0  0  0  0  0
   35.4350   31.6830   35.8350 C   0  0  0  0  0  0  0  0  0  0  0  0
   34.8300   30.9720   34.8720 C   0  0  0  0  0  0  0  0  0  0  0  0
   33.4920   30.6710   35.1420 C   0  0  0  0  0  0  0  0  0  0  0  0
   32.8610   31.0700   36.2920 C   0  0  0  0  0  0  0  0  0  0  0  0
   33.5250   31.8000   37.2530 C   0  0  0  0  0  0  0  0  0  0  0  0
   34.8290   32.0970   36.9970 C   0  0  0  0  0  0  0  0  0  0  0  0
   32.9000   30.0930   34.4210 H   0  0  0  0  0  0  0  0  0  0  0  0
   31.8180   30.8090   36.4500 H   0  0  0  0  0  0  0  0  0  0  0  0
   33.0320   32.1160   38.1620 H   0  0  0  0  0  0  0  0  0  0  0  0
   35.3680   32.6720   37.7480 H   0  0  0  0  0  0  0  0  0  0  0  0
  1  2  1  0  0  0  0
  1 27  1  0  0  0  0
  3  1  1  0  0  0  0
  4  1  1  0  0  0  0
  4  7  1  0  0  0  0
  5  4  1  0  0  0  0
  6  4  1  0  0  0  0
  7  8  2  0  0  0  0
  7 12  1  0  0  0  0
  8  9  1  0  0  0  0
  9 14  1  0  0  0  0
  9 10  2  0  0  0  0
 11 10  1  0  0  0  0
 11 15  1  0  0  0  0
 12 11  2  0  0  0  0
 13  8  1  0  0  0  0
 15 17  1  0  0  0  0
 16 15  1  0  0  0  0
 18 15  1  0  0  0  0
 18 26  1  0  0  0  0
 19 18  1  0  0  0  0
 19 20  1  0  0  0  0
 19 21  1  0  0  0  0
 21 23  1  0  0  0  0
 22 21  1  0  0  0  0
 23 25  1  0  0  0  0
 23 24  1  0  0  0  0
 26 25  1  0  0  0  0
 28 33  2  0  0  0  0
 28 29  1  0  0  0  0
 29 35  1  0  0  0  0
 29 30  2  0  0  0  0
 30 38  1  0  0  0  0
 31 30  1  0  0  0  0
 32 27  1  0  0  0  0
 32 31  2  0  0  0  0
 33 32  1  0  0  0  0
 34 28  1  0  0  0  0
 36 37  1  0  0  0  0
 37 42  1  0  0  0  0
 38 39  1  0  0  0  0
 38 37  2  0  0  0  0
 39 40  2  0  0  0  0
 40 44  1  0  0  0  0
 40 41  1  0  0  0  0
 41 45  1  0  0  0  0
 42 41  2  0  0  0  0
 42 46  1  0  0  0  0
 43 39  1  0  0  0  0
M  END
>  <minimizedAffinity>
-5.98665857

$$$$

 OpenBabel03272509593D

 46 49  0  0  0  0  0  0  0  0999 V2000
   35.6210   26.9530   31.7580 C   0  0  0  0  0  0  0  0  0  0  0  0
   36.3490   27.0380   32.6060 H   0  0  0  0  0  0  0  0  0  0  0  0
   34.6450   27.2960   32.1370 H   0  0  0  0  0  0  0  0  0  0  0  0
   35.6180   25.5180   31.3340 C   0  0  0  0  0  0  0  0  0  0  0  0
   34.6890   25.0330   31.6980 H   0  0  0  0  0  0  0  0  0  0  0  0
   35.5810   25.4070   30.2210 H   0  0  0  0  0  0  0  0  0  0  0  0
   36.7980   24.7660   31.8520 C   0  0  0  0  0  0  0  0  0  0  0  0
   37.4040   23.8380   31.0020 C   0  0  0  0  0  0  0  0  0  0  0  0
   38.4920   23.1060   31.3990 C   0  0  0  0  0  0  0  0  0  0  0  0
   38.9880   23.2760   32.6140 N   0  0  0  0  0  0  0  0  0  0  0  0
   38.3860   24.1860   33.4330 C   0  0  0  0  0  0  0  0  0  0  0  0
   37.3220   24.9170   33.0780 N   0  0  0  0  0  0  0  0  0  0  0  0
   36.9970   23.6990   30.0070 H   0  0  0  0  0  0  0  0  0  0  0  0
   38.9090   22.4030   30.6850 H   0  0  0  0  0  0  0  0  0  0  0  0
   38.9790   24.3470   34.8030 C   0  0  0  0  0  0  0  0  0  0  0  0
   39.9380   24.9020   34.7120 H   0  0  0  0  0  0  0  0  0  0  0  0
   38.3070   24.9800   35.4260 H   0  0  0  0  0  0  0  0  0  0  0  0
   39.2310   23.1220   35.4770 N   0  0  0  0  0  0  0  0  0  0  0  0
   40.4550   23.2330   36.2340 C   0  0  0  0  0  3  0  0  0  0  0  0
   40.5970   24.2960   36.5240 H   0  0  0  0  0  0  0  0  0  0  0  0
   40.4700   22.4000   37.4950 C   0  0  0  0  0  3  0  0  0  0  0  0
   40.5040   21.3150   37.2730 H   0  0  0  0  0  0  0  0  0  0  0  0
   39.3860   22.7560   38.3890 N   0  0  0  0  0  0  0  0  0  0  0  0
   39.6920   23.2640   39.2370 H   0  0  0  0  0  0  0  0  0  0  0  0
   38.3170   23.4090   37.6570 C   0  0  0  0  0  2  0  0  0  0  0  0
   38.1870   22.6750   36.3390 C   0  0  0  0  0  2  0  0  0  0  0  0
   36.1660   27.7940   30.7470 O   0  0  0  0  0  0  0  0  0  0  0  0
   36.8500   31.3360   30.6050 C   0  0  0  0  0  0  0  0  0  0  0  0
   36.2890   31.7610   31.8400 C   0  0  0  0  0  0  0  0  0  0  0  0
   35.7100   30.7830   32.6390 C   0  0  0  0  0  0  0  0  0  0  0  0
   35.7370   29.5000   32.1540 N   0  0  0  0  0  0  0  0  0  0  0  0
   36.2690   29.1280   30.9930 C   0  0  0  0  0  0  0  0  0  0  0  0
   36.8350   30.0780   30.2120 N   0  0  0  0  0  0  0  0  0  0  0  0
   37.2910   32.1290   30.0120 H   0  0  0  0  0  0  0  0  0  0  0  0
   36.2750   32.7600   32.2000 H   0  0  0  0  0  0  0  0  0  0  0  0
   32.9360   30.4290   33.3680 F   0  0  0  0  0  0  0  0  0  0  0  0
   33.8050   30.8530   34.2810 C   0  0  0  0  0  0  0  0  0  0  0  0
   35.0880   31.0120   33.9260 C   0  0  0  0  0  0  0  0  0  0  0  0
   35.9140   31.4590   34.9600 C   0  0  0  0  0  0  0  0  0  0  0  0
   35.4460   31.7110   36.2250 C   0  0  0  0  0  0  0  0  0  0  0  0
   34.1180   31.5320   36.5410 C   0  0  0  0  0  0  0  0  0  0  0  0
   33.3070   31.0970   35.5380 C   0  0  0  0  0  0  0  0  0  0  0  0
   36.9840   31.6230   34.7810 H   0  0  0  0  0  0  0  0  0  0  0  0
   36.1340   32.0570   36.9920 H   0  0  0  0  0  0  0  0  0  0  0  0
   33.7440   31.7310   37.5370 H   0  0  0  0  0  0  0  0  0  0  0  0
   32.2540   30.9520   35.7730 H   0  0  0  0  0  0  0  0  0  0  0  0
  1  3  1  0  0  0  0
  1  2  1  0  0  0  0
  4  5  1  0  0  0  0
  4  1  1  0  0  0  0
  4  7  1  0  0  0  0
  6  4  1  0  0  0  0
  7 12  1  0  0  0  0
  8  9  1  0  0  0  0
  8  7  2  0  0  0  0
  9 10  2  0  0  0  0
 10 11  1  0  0  0  0
 11 15  1  0  0  0  0
 12 11  2  0  0  0  0
 13  8  1  0  0  0  0
 14  9  1  0  0  0  0
 15 17  1  0  0  0  0
 15 18  1  0  0  0  0
 16 15  1  0  0  0  0
 18 19  1  0  0  0  0
 18 26  1  0  0  0  0
 19 20  1  0  0  0  0
 19 21  1  0  0  0  0
 21 23  1  0  0  0  0
 22 21  1  0  0  0  0
 23 24  1  0  0  0  0
 25 23  1  0  0  0  0
 26 25  1  0  0  0  0
 27 32  1  0  0  0  0
 27  1  1  0  0  0  0
 28 29  1  0  0  0  0
 29 35  1  0  0  0  0
 29 30  2  0  0  0  0
 30 38  1  0  0  0  0
 31 30  1  0  0  0  0
 32 31  2  0  0  0  0
 33 28  2  0  0  0  0
 33 32  1  0  0  0  0
 34 28  1  0  0  0  0
 36 37  1  0  0  0  0
 37 42  1  0  0  0  0
 38 37  2  0  0  0  0
 38 39  1  0  0  0  0
 39 40  2  0  0  0  0
 40 41  1  0  0  0  0
 40 44  1  0  0  0  0
 41 45  1  0  0  0  0
 42 46  1  0  0  0  0
 42 41  2  0  0  0  0
 43 39  1  0  0  0  0
M  END
>  <minimizedAffinity>
-5.90452003

$$$$

 OpenBabel03272509593D

 46 49  0  0  0  0  0  0  0  0999 V2000
   38.6660   27.0620   34.0180 C   0  0  0  0  0  0  0  0  0  0  0  0
   39.2450   26.5390   33.2140 H   0  0  0  0  0  0  0  0  0  0  0  0
   38.9920   28.1150   34.0140 H   0  0  0  0  0  0  0  0  0  0  0  0
   38.9710   26.3550   35.3010 C   0  0  0  0  0  0  0  0  0  0  0  0
   40.0520   26.4600   35.5270 H   0  0  0  0  0  0  0  0  0  0  0  0
   38.4500   26.8220   36.1740 H   0  0  0  0  0  0  0  0  0  0  0  0
   38.6200   24.9050   35.2520 C   0  0  0  0  0  0  0  0  0  0  0  0
   38.1200   24.3160   36.4160 C   0  0  0  0  0  0  0  0  0  0  0  0
   37.7730   22.9920   36.4560 C   0  0  0  0  0  0  0  0  0  0  0  0
   37.9110   22.2450   35.3730 N   0  0  0  0  0  0  0  0  0  0  0  0
   38.4000   22.8340   34.2440 C   0  0  0  0  0  0  0  0  0  0  0  0
   38.7490   24.1240   34.1690 N   0  0  0  0  0  0  0  0  0  0  0  0
   38.0080   24.9280   37.3030 H   0  0  0  0  0  0  0  0  0  0  0  0
   37.3930   22.6030   37.3950 H   0  0  0  0  0  0  0  0  0  0  0  0
   38.5410   21.9510   33.0370 C   0  0  0  0  0  0  0  0  0  0  0  0
   39.5160   22.1690   32.5500 H   0  0  0  0  0  0  0  0  0  0  0  0
   38.5810   20.8860   33.3590 H   0  0  0  0  0  0  0  0  0  0  0  0
   37.5110   22.1140   32.0720 N   0  0  0  0  0  0  0  0  0  0  0  0
   36.6510   23.2040   32.4650 C   0  0  0  0  0  3  0  0  0  0  0  0
   37.2490   23.9290   33.0590 H   0  0  0  0  0  0  0  0  0  0  0  0
   36.0400   23.9490   31.3000 C   0  0  0  0  0  3  0  0  0  0  0  0
   35.2960   23.3310   30.7600 H   0  0  0  0  0  0  0  0  0  0  0  0
   37.0530   24.5030   30.4230 N   0  0  0  0  0  0  0  0  0  0  0  0
   37.1370   25.5320   30.4780 H   0  0  0  0  0  0  0  0  0  0  0  0
   38.3080   23.7920   30.5840 C   0  0  0  0  0  2  0  0  0  0  0  0
   37.9580   22.3270   30.7350 C   0  0  0  0  0  2  0  0  0  0  0  0
   37.3060   26.8870   33.6370 O   0  0  0  0  0  0  0  0  0  0  0  0
   35.8100   29.3750   31.4910 C   0  0  0  0  0  0  0  0  0  0  0  0
   35.1630   30.1970   32.4530 C   0  0  0  0  0  0  0  0  0  0  0  0
   35.2930   29.8280   33.7860 C   0  0  0  0  0  0  0  0  0  0  0  0
   36.0340   28.7030   34.0410 N   0  0  0  0  0  0  0  0  0  0  0  0
   36.6310   27.9490   33.1200 C   0  0  0  0  0  0  0  0  0  0  0  0
   36.5080   28.3060   31.8210 N   0  0  0  0  0  0  0  0  0  0  0  0
   35.6850   29.6980   30.4640 H   0  0  0  0  0  0  0  0  0  0  0  0
   34.5920   31.0660   32.2380 H   0  0  0  0  0  0  0  0  0  0  0  0
   32.5340   29.8430   34.6490 F   0  0  0  0  0  0  0  0  0  0  0  0
   33.4370   30.5480   35.3250 C   0  0  0  0  0  0  0  0  0  0  0  0
   34.7120   30.5300   34.9110 C   0  0  0  0  0  0  0  0  0  0  0  0
   35.5760   31.3030   35.6910 C   0  0  0  0  0  0  0  0  0  0  0  0
   35.1490   32.0150   36.7830 C   0  0  0  0  0  0  0  0  0  0  0  0
   33.8270   32.0020   37.1700 C   0  0  0  0  0  0  0  0  0  0  0  0
   32.9800   31.2510   36.4140 C   0  0  0  0  0  0  0  0  0  0  0  0
   36.6430   31.3610   35.4430 H   0  0  0  0  0  0  0  0  0  0  0  0
   35.8640   32.6000   37.3550 H   0  0  0  0  0  0  0  0  0  0  0  0
   33.4860   32.5630   38.0300 H   0  0  0  0  0  0  0  0  0  0  0  0
   31.9320   31.2310   36.7070 H   0  0  0  0  0  0  0  0  0  0  0  0
  1  4  1  0  0  0  0
  2  1  1  0  0  0  0
  3  1  1  0  0  0  0
  4  5  1  0  0  0  0
  4  6  1  0  0  0  0
  7  4  1  0  0  0  0
  7  8  1  0  0  0  0
  8  9  2  0  0  0  0
  8 13  1  0  0  0  0
  9 14  1  0  0  0  0
 10  9  1  0  0  0  0
 11 10  2  0  0  0  0
 12 11  1  0  0  0  0
 12  7  2  0  0  0  0
 15 17  1  0  0  0  0
 15 11  1  0  0  0  0
 16 15  1  0  0  0  0
 18 19  1  0  0  0  0
 18 15  1  0  0  0  0
 19 20  1  0  0  0  0
 21 19  1  0  0  0  0
 22 21  1  0  0  0  0
 23 24  1  0  0  0  0
 23 25  1  0  0  0  0
 23 21  1  0  0  0  0
 25 26  1  0  0  0  0
 26 18  1  0  0  0  0
 27  1  1  0  0  0  0
 28 33  2  0  0  0  0
 28 29  1  0  0  0  0
 29 30  2  0  0  0  0
 30 31  1  0  0  0  0
 30 38  1  0  0  0  0
 32 27  1  0  0  0  0
 32 31  2  0  0  0  0
 33 32  1  0  0  0  0
 34 28  1  0  0  0  0
 35 29  1  0  0  0  0
 36 37  1  0  0  0  0
 37 42  1  0  0  0  0
 38 37  2  0  0  0  0
 38 39  1  0  0  0  0
 39 40  2  0  0  0  0
 40 41  1  0  0  0  0
 40 44  1  0  0  0  0
 41 45  1  0  0  0  0
 42 46  1  0  0  0  0
 42 41  2  0  0  0  0
 43 39  1  0  0  0  0
M  END
>  <minimizedAffinity>
-5.87048149

$$$$
