
 OpenBabel03272506003D

 44 47  0  0  1  0  0  0  0  0999 V2000
   35.2470   29.1360   32.6950 C   0  0  2  0  0  0  0  0  0  0  0  0
   35.6870   27.7550   33.0070 C   0  0  0  0  0  0  0  0  0  0  0  0
   37.2090   27.5850   32.9040 C   0  0  2  0  0  0  0  0  0  0  0  0
   37.7730   27.9750   31.6120 C   0  0  0  0  0  0  0  0  0  0  0  0
   37.1090   29.2070   31.0050 C   0  0  0  0  0  0  0  0  0  0  0  0
   36.3250   29.9720   32.0390 C   0  0  0  0  0  0  0  0  0  0  0  0
   34.3930   29.1580   31.9530 H   0  0  0  0  0  0  0  0  0  0  0  0
   35.3130   27.0940   32.1550 H   0  0  0  0  0  0  0  0  0  0  0  0
   35.4530   27.2830   33.9290 H   0  0  0  0  0  0  0  0  0  0  0  0
   37.6630   28.1290   33.7490 H   0  0  0  0  0  0  0  0  0  0  0  0
   37.6200   27.1740   30.8640 H   0  0  0  0  0  0  0  0  0  0  0  0
   38.8700   28.1150   31.7080 H   0  0  0  0  0  0  0  0  0  0  0  0
   37.9320   29.8750   30.6740 H   0  0  0  0  0  0  0  0  0  0  0  0
   36.4980   28.9830   30.1200 H   0  0  0  0  0  0  0  0  0  0  0  0
   35.8550   30.8240   31.5220 H   0  0  0  0  0  0  0  0  0  0  0  0
   37.0420   30.2910   32.8270 H   0  0  0  0  0  0  0  0  0  0  0  0
   37.9960   26.8750   35.6610 Cl  0  0  0  0  0  0  0  0  0  0  0  0
   37.8340   25.6790   34.3850 C   0  0  0  0  0  0  0  0  0  0  0  0
   37.4190   26.1260   33.1410 C   0  0  0  0  0  0  0  0  0  0  0  0
   37.2940   25.1140   32.2250 C   0  0  0  0  0  0  0  0  0  0  0  0
   37.5570   23.7910   32.5100 C   0  0  0  0  0  0  0  0  0  0  0  0
   37.9720   23.4260   33.7840 C   0  0  0  0  0  0  0  0  0  0  0  0
   38.1140   24.4090   34.7530 C   0  0  0  0  0  0  0  0  0  0  0  0
   36.9680   25.3710   31.2240 H   0  0  0  0  0  0  0  0  0  0  0  0
   37.4270   23.0650   31.7080 H   0  0  0  0  0  0  0  0  0  0  0  0
   38.1590   22.3850   33.9390 H   0  0  0  0  0  0  0  0  0  0  0  0
   38.5330   24.0180   36.0340 N   0  0  0  0  0  0  0  0  0  0  0  0
   39.9280   23.7640   36.2250 C   0  0  0  0  0  3  0  0  0  0  0  0
   40.4600   23.5330   35.2760 H   0  0  0  0  0  0  0  0  0  0  0  0
   40.1860   22.5910   37.1420 C   0  0  0  0  0  3  0  0  0  0  0  0
   41.2380   22.7360   37.5210 H   0  0  0  0  0  0  0  0  0  0  0  0
   39.3260   22.5580   38.2850 N   0  0  0  0  0  0  0  0  0  0  0  0
   39.8680   22.5290   39.1990 H   0  0  0  0  0  0  0  0  0  0  0  0
   38.4370   23.7010   38.3860 C   0  0  0  0  0  2  0  0  0  0  0  0
   37.6120   23.8680   37.1450 C   0  0  0  0  0  2  0  0  0  0  0  0
   34.7750   29.8750   33.8750 C   0  0  0  0  0  0  0  0  0  0  0  0
   35.7670   30.5590   34.5790 C   0  0  0  0  0  0  0  0  0  0  0  0
   35.3680   31.2910   35.7050 C   0  0  0  0  0  0  0  0  0  0  0  0
   34.0250   31.3020   36.0660 N   0  0  0  0  0  0  0  0  0  0  0  0
   33.1090   30.6220   35.3510 C   0  0  0  0  0  0  0  0  0  0  0  0
   33.5060   29.9320   34.2830 N   0  0  0  0  0  0  0  0  0  0  0  0
   36.8270   30.7310   34.5590 H   0  0  0  0  0  0  0  0  0  0  0  0
   35.9040   31.8930   36.4070 H   0  0  0  0  0  0  0  0  0  0  0  0
   32.0630   30.6240   35.6230 H   0  0  0  0  0  0  0  0  0  0  0  0
  1  7  1  6  0  0  0
  1  2  1  0  0  0  0
  1 36  1  0  0  0  0
  2  9  1  0  0  0  0
  3  2  1  0  0  0  0
  3 19  1  0  0  0  0
  3 10  1  1  0  0  0
  4 12  1  0  0  0  0
  4  3  1  0  0  0  0
  5  4  1  0  0  0  0
  5  6  1  0  0  0  0
  6  1  1  0  0  0  0
  6 16  1  0  0  0  0
  8  2  1  0  0  0  0
 11  4  1  0  0  0  0
 13  5  1  0  0  0  0
 14  5  1  0  0  0  0
 15  6  1  0  0  0  0
 18 23  1  0  0  0  0
 18 17  1  0  0  0  0
 19 18  2  0  0  0  0
 20 21  2  0  0  0  0
 20 19  1  0  0  0  0
 21 22  1  0  0  0  0
 22 26  1  0  0  0  0
 22 23  2  0  0  0  0
 23 27  1  0  0  0  0
 24 20  1  0  0  0  0
 25 21  1  0  0  0  0
 27 28  1  0  0  0  0
 27 35  1  0  0  0  0
 28 30  1  0  0  0  0
 29 28  1  0  0  0  0
 30 31  1  0  0  0  0
 30 32  1  0  0  0  0
 32 34  1  0  0  0  0
 32 33  1  0  0  0  0
 35 34  1  0  0  0  0
 36 41  2  0  0  0  0
 36 37  1  0  0  0  0
 37 38  2  0  0  0  0
 38 39  1  0  0  0  0
 38 43  1  0  0  0  0
 40 44  1  0  0  0  0
 40 39  2  0  0  0  0
 41 40  1  0  0  0  0
 42 37  1  0  0  0  0
M  END
>  <minimizedAffinity>
-6.25811386

$$$$

 OpenBabel03272506003D

 44 47  0  0  1  0  0  0  0  0999 V2000
   38.8440   27.5960   30.9990 C   0  0  2  0  0  0  0  0  0  0  0  0
   38.7440   26.2390   31.5900 C   0  0  0  0  0  0  0  0  0  0  0  0
   37.2960   25.8350   31.8940 C   0  0  2  0  0  0  0  0  0  0  0  0
   36.5740   26.7750   32.7530 C   0  0  0  0  0  0  0  0  0  0  0  0
   36.9060   28.2370   32.4680 C   0  0  0  0  0  0  0  0  0  0  0  0
   37.5660   28.3970   31.1240 C   0  0  0  0  0  0  0  0  0  0  0  0
   39.6210   28.2350   31.5160 H   0  0  0  0  0  0  0  0  0  0  0  0
   39.2000   26.3070   32.6350 H   0  0  0  0  0  0  0  0  0  0  0  0
   39.1380   25.3820   31.1040 H   0  0  0  0  0  0  0  0  0  0  0  0
   36.7880   25.6640   30.9300 H   0  0  0  0  0  0  0  0  0  0  0  0
   36.8530   26.6240   33.8120 H   0  0  0  0  0  0  0  0  0  0  0  0
   35.4830   26.5890   32.6800 H   0  0  0  0  0  0  0  0  0  0  0  0
   35.9350   28.7710   32.4090 H   0  0  0  0  0  0  0  0  0  0  0  0
   37.4920   28.7150   33.2650 H   0  0  0  0  0  0  0  0  0  0  0  0
   37.8000   29.4670   31.0040 H   0  0  0  0  0  0  0  0  0  0  0  0
   36.8490   28.0260   30.3590 H   0  0  0  0  0  0  0  0  0  0  0  0
   38.1700   25.9740   34.7120 Cl  0  0  0  0  0  0  0  0  0  0  0  0
   37.8790   24.4520   33.8840 C   0  0  0  0  0  0  0  0  0  0  0  0
   37.4320   24.5140   32.5740 C   0  0  0  0  0  0  0  0  0  0  0  0
   37.2060   23.2760   32.0290 C   0  0  0  0  0  0  0  0  0  0  0  0
   37.4050   22.0950   32.7110 C   0  0  0  0  0  0  0  0  0  0  0  0
   37.8580   22.1210   34.0240 C   0  0  0  0  0  0  0  0  0  0  0  0
   38.1030   23.3450   34.6290 C   0  0  0  0  0  0  0  0  0  0  0  0
   36.8490   23.2280   31.0080 H   0  0  0  0  0  0  0  0  0  0  0  0
   37.1960   21.1640   32.1840 H   0  0  0  0  0  0  0  0  0  0  0  0
   37.9910   21.1710   34.4950 H   0  0  0  0  0  0  0  0  0  0  0  0
   38.5580   23.3490   35.9550 N   0  0  0  0  0  0  0  0  0  0  0  0
   39.9720   23.3290   36.1700 C   0  0  0  0  0  3  0  0  0  0  0  0
   40.5370   22.9340   35.2970 H   0  0  0  0  0  0  0  0  0  0  0  0
   40.3720   22.4690   37.3460 C   0  0  0  0  0  3  0  0  0  0  0  0
   41.3930   22.8370   37.6500 H   0  0  0  0  0  0  0  0  0  0  0  0
   39.5130   22.6190   38.4820 N   0  0  0  0  0  0  0  0  0  0  0  0
   40.0480   22.8910   39.3590 H   0  0  0  0  0  0  0  0  0  0  0  0
   38.4860   23.6290   38.3130 C   0  0  0  0  0  2  0  0  0  0  0  0
   37.6550   23.3700   37.0910 C   0  0  0  0  0  2  0  0  0  0  0  0
   39.2170   27.5810   29.5760 C   0  0  0  0  0  0  0  0  0  0  0  0
   39.1040   28.8100   28.9240 C   0  0  0  0  0  0  0  0  0  0  0  0
   39.4610   28.8540   27.5700 C   0  0  0  0  0  0  0  0  0  0  0  0
   39.9030   27.6920   26.9460 N   0  0  0  0  0  0  0  0  0  0  0  0
   39.9920   26.5320   27.6240 C   0  0  0  0  0  0  0  0  0  0  0  0
   39.6490   26.5090   28.9120 N   0  0  0  0  0  0  0  0  0  0  0  0
   38.8060   29.8240   29.1150 H   0  0  0  0  0  0  0  0  0  0  0  0
   39.4720   29.6420   26.8470 H   0  0  0  0  0  0  0  0  0  0  0  0
   40.3330   25.6240   27.1490 H   0  0  0  0  0  0  0  0  0  0  0  0
  1  6  1  0  0  0  0
  1  7  1  1  0  0  0
  1  2  1  0  0  0  0
  2  3  1  0  0  0  0
  2  8  1  0  0  0  0
  3 10  1  6  0  0  0
  3 19  1  0  0  0  0
  3  4  1  0  0  0  0
  4 11  1  0  0  0  0
  5  4  1  0  0  0  0
  5 14  1  0  0  0  0
  6  5  1  0  0  0  0
  9  2  1  0  0  0  0
 12  4  1  0  0  0  0
 13  5  1  0  0  0  0
 15  6  1  0  0  0  0
 16  6  1  0  0  0  0
 18 23  1  0  0  0  0
 18 17  1  0  0  0  0
 19 18  2  0  0  0  0
 20 19  1  0  0  0  0
 20 21  2  0  0  0  0
 21 22  1  0  0  0  0
 22 26  1  0  0  0  0
 22 23  2  0  0  0  0
 23 27  1  0  0  0  0
 24 20  1  0  0  0  0
 25 21  1  0  0  0  0
 27 28  1  0  0  0  0
 27 35  1  0  0  0  0
 28 30  1  0  0  0  0
 29 28  1  0  0  0  0
 30 31  1  0  0  0  0
 30 32  1  0  0  0  0
 32 33  1  0  0  0  0
 34 32  1  0  0  0  0
 35 34  1  0  0  0  0
 36  1  1  0  0  0  0
 37 42  1  0  0  0  0
 37 36  1  0  0  0  0
 38 37  2  0  0  0  0
 39 38  1  0  0  0  0
 39 40  2  0  0  0  0
 40 41  1  0  0  0  0
 41 36  2  0  0  0  0
 43 38  1  0  0  0  0
 44 40  1  0  0  0  0
M  END
>  <minimizedAffinity>
-5.88072395

$$$$

 OpenBabel03272506003D

 44 47  0  0  1  0  0  0  0  0999 V2000
   36.5620   28.1100   31.4000 C   0  0  2  0  0  0  0  0  0  0  0  0
   36.5980   26.7680   32.0310 C   0  0  0  0  0  0  0  0  0  0  0  0
   38.0280   26.2410   32.2110 C   0  0  2  0  0  0  0  0  0  0  0  0
   38.8150   26.1990   30.9780 C   0  0  0  0  0  0  0  0  0  0  0  0
   38.5600   27.3860   30.0530 C   0  0  0  0  0  0  0  0  0  0  0  0
   37.8850   28.5160   30.7860 C   0  0  0  0  0  0  0  0  0  0  0  0
   35.8320   28.1610   30.5380 H   0  0  0  0  0  0  0  0  0  0  0  0
   36.1660   26.0390   31.2670 H   0  0  0  0  0  0  0  0  0  0  0  0
   36.1490   26.5760   32.9740 H   0  0  0  0  0  0  0  0  0  0  0  0
   38.5080   26.8400   33.0020 H   0  0  0  0  0  0  0  0  0  0  0  0
   38.5480   25.3100   30.3770 H   0  0  0  0  0  0  0  0  0  0  0  0
   39.8930   26.1060   31.2240 H   0  0  0  0  0  0  0  0  0  0  0  0
   39.5580   27.7600   29.7430 H   0  0  0  0  0  0  0  0  0  0  0  0
   38.0150   27.1160   29.1380 H   0  0  0  0  0  0  0  0  0  0  0  0
   37.7090   29.3170   30.0500 H   0  0  0  0  0  0  0  0  0  0  0  0
   38.5660   28.8290   31.6070 H   0  0  0  0  0  0  0  0  0  0  0  0
   38.8940   25.8570   35.0080 Cl  0  0  0  0  0  0  0  0  0  0  0  0
   38.2430   24.5510   34.0310 C   0  0  0  0  0  0  0  0  0  0  0  0
   37.8310   24.8600   32.7450 C   0  0  0  0  0  0  0  0  0  0  0  0
   37.3100   23.7820   32.0770 C   0  0  0  0  0  0  0  0  0  0  0  0
   37.2090   22.5220   32.6260 C   0  0  0  0  0  0  0  0  0  0  0  0
   37.6470   22.2950   33.9250 C   0  0  0  0  0  0  0  0  0  0  0  0
   38.1830   23.3500   34.6490 C   0  0  0  0  0  0  0  0  0  0  0  0
   36.9580   23.9330   31.0640 H   0  0  0  0  0  0  0  0  0  0  0  0
   36.7800   21.7330   32.0090 H   0  0  0  0  0  0  0  0  0  0  0  0
   37.5410   21.2960   34.2900 H   0  0  0  0  0  0  0  0  0  0  0  0
   38.6180   23.0980   35.9590 N   0  0  0  0  0  0  0  0  0  0  0  0
   37.6230   23.0160   36.9830 C   0  0  0  0  0  3  0  0  0  0  0  0
   36.6750   23.5280   36.7080 H   0  0  0  0  0  0  0  0  0  0  0  0
   38.0710   23.6430   38.2830 C   0  0  0  0  0  3  0  0  0  0  0  0
   37.4160   23.1810   39.0760 H   0  0  0  0  0  0  0  0  0  0  0  0
   39.4280   23.3390   38.6260 N   0  0  0  0  0  0  0  0  0  0  0  0
   39.5120   22.8970   39.5890 H   0  0  0  0  0  0  0  0  0  0  0  0
   40.0750   22.4220   37.7080 C   0  0  0  0  0  2  0  0  0  0  0  0
   40.0190   22.9240   36.2970 C   0  0  0  0  0  2  0  0  0  0  0  0
   36.1640   29.1770   32.3300 C   0  0  0  0  0  0  0  0  0  0  0  0
   35.9450   28.7620   33.6460 C   0  0  0  0  0  0  0  0  0  0  0  0
   35.5770   29.7420   34.5760 C   0  0  0  0  0  0  0  0  0  0  0  0
   35.4470   31.0630   34.1560 N   0  0  0  0  0  0  0  0  0  0  0  0
   35.6700   31.4070   32.8740 C   0  0  0  0  0  0  0  0  0  0  0  0
   36.0200   30.4610   32.0020 N   0  0  0  0  0  0  0  0  0  0  0  0
   35.9560   27.8710   34.2450 H   0  0  0  0  0  0  0  0  0  0  0  0
   35.3560   29.7050   35.6210 H   0  0  0  0  0  0  0  0  0  0  0  0
   35.5710   32.4290   32.5370 H   0  0  0  0  0  0  0  0  0  0  0  0
  1  7  1  6  0  0  0
  1  2  1  0  0  0  0
  1 36  1  0  0  0  0
  2  3  1  0  0  0  0
  2  9  1  0  0  0  0
  3 19  1  0  0  0  0
  3 10  1  1  0  0  0
  4 12  1  0  0  0  0
  4  3  1  0  0  0  0
  5  6  1  0  0  0  0
  5  4  1  0  0  0  0
  6  1  1  0  0  0  0
  6 16  1  0  0  0  0
  8  2  1  0  0  0  0
 11  4  1  0  0  0  0
 13  5  1  0  0  0  0
 14  5  1  0  0  0  0
 15  6  1  0  0  0  0
 18 23  1  0  0  0  0
 18 17  1  0  0  0  0
 19 18  2  0  0  0  0
 20 21  2  0  0  0  0
 20 19  1  0  0  0  0
 21 22  1  0  0  0  0
 22 26  1  0  0  0  0
 22 23  2  0  0  0  0
 23 27  1  0  0  0  0
 24 20  1  0  0  0  0
 25 21  1  0  0  0  0
 27 35  1  0  0  0  0
 27 28  1  0  0  0  0
 28 30  1  0  0  0  0
 29 28  1  0  0  0  0
 30 32  1  0  0  0  0
 30 31  1  0  0  0  0
 32 33  1  0  0  0  0
 34 32  1  0  0  0  0
 35 34  1  0  0  0  0
 36 37  1  0  0  0  0
 37 42  1  0  0  0  0
 37 38  2  0  0  0  0
 38 43  1  0  0  0  0
 39 38  1  0  0  0  0
 40 39  2  0  0  0  0
 41 36  2  0  0  0  0
 41 40  1  0  0  0  0
 44 40  1  0  0  0  0
M  END
>  <minimizedAffinity>
-5.83329916

$$$$

 OpenBabel03272506003D

 44 47  0  0  1  0  0  0  0  0999 V2000
   34.7920   30.2080   32.8060 C   0  0  2  0  0  0  0  0  0  0  0  0
   35.0760   28.7530   32.7480 C   0  0  0  0  0  0  0  0  0  0  0  0
   36.5070   28.4520   32.2820 C   0  0  2  0  0  0  0  0  0  0  0  0
   36.8610   29.0500   30.9950 C   0  0  0  0  0  0  0  0  0  0  0  0
   36.2800   30.4470   30.7930 C   0  0  0  0  0  0  0  0  0  0  0  0
   35.8330   31.0480   32.0990 C   0  0  0  0  0  0  0  0  0  0  0  0
   33.8230   30.4780   32.2890 H   0  0  0  0  0  0  0  0  0  0  0  0
   34.4500   28.3340   31.8900 H   0  0  0  0  0  0  0  0  0  0  0  0
   34.9580   28.1210   33.5930 H   0  0  0  0  0  0  0  0  0  0  0  0
   37.1920   28.7510   33.0930 H   0  0  0  0  0  0  0  0  0  0  0  0
   36.4490   28.4500   30.1620 H   0  0  0  0  0  0  0  0  0  0  0  0
   37.9640   29.0510   30.8710 H   0  0  0  0  0  0  0  0  0  0  0  0
   37.1120   31.0800   30.4210 H   0  0  0  0  0  0  0  0  0  0  0  0
   35.4830   30.4830   30.0380 H   0  0  0  0  0  0  0  0  0  0  0  0
   35.4020   32.0360   31.8690 H   0  0  0  0  0  0  0  0  0  0  0  0
   36.7290   31.1130   32.7550 H   0  0  0  0  0  0  0  0  0  0  0  0
   38.4520   27.1390   34.0750 Cl  0  0  0  0  0  0  0  0  0  0  0  0
   37.4470   26.2410   32.9480 C   0  0  0  0  0  0  0  0  0  0  0  0
   36.5410   26.9630   32.1870 C   0  0  0  0  0  0  0  0  0  0  0  0
   35.7850   26.1690   31.3640 C   0  0  0  0  0  0  0  0  0  0  0  0
   35.9140   24.7980   31.2980 C   0  0  0  0  0  0  0  0  0  0  0  0
   36.8500   24.1510   32.0950 C   0  0  0  0  0  0  0  0  0  0  0  0
   37.6430   24.9030   32.9490 C   0  0  0  0  0  0  0  0  0  0  0  0
   35.0460   26.6480   30.7350 H   0  0  0  0  0  0  0  0  0  0  0  0
   35.2640   24.2610   30.6080 H   0  0  0  0  0  0  0  0  0  0  0  0
   36.8980   23.0880   31.9960 H   0  0  0  0  0  0  0  0  0  0  0  0
   38.5800   24.2290   33.7460 N   0  0  0  0  0  0  0  0  0  0  0  0
   38.1410   23.7430   35.0170 C   0  0  0  0  0  3  0  0  0  0  0  0
   37.2380   24.2720   35.3940 H   0  0  0  0  0  0  0  0  0  0  0  0
   39.1910   23.8940   36.0940 C   0  0  0  0  0  3  0  0  0  0  0  0
   38.9050   23.1520   36.8930 H   0  0  0  0  0  0  0  0  0  0  0  0
   40.5110   23.5570   35.6560 N   0  0  0  0  0  0  0  0  0  0  0  0
   40.9600   22.8090   36.2640 H   0  0  0  0  0  0  0  0  0  0  0  0
   40.5700   23.0550   34.2970 C   0  0  0  0  0  2  0  0  0  0  0  0
   39.9530   24.0170   33.3260 C   0  0  0  0  0  2  0  0  0  0  0  0
   34.6720   30.7200   34.1800 C   0  0  0  0  0  0  0  0  0  0  0  0
   35.8650   31.1670   34.7490 C   0  0  0  0  0  0  0  0  0  0  0  0
   35.8040   31.6780   36.0520 C   0  0  0  0  0  0  0  0  0  0  0  0
   34.5780   31.7160   36.7090 N   0  0  0  0  0  0  0  0  0  0  0  0
   33.4580   31.2700   36.1120 C   0  0  0  0  0  0  0  0  0  0  0  0
   33.5340   30.7880   34.8720 N   0  0  0  0  0  0  0  0  0  0  0  0
   36.9100   31.2580   34.5170 H   0  0  0  0  0  0  0  0  0  0  0  0
   36.5440   32.0800   36.7100 H   0  0  0  0  0  0  0  0  0  0  0  0
   32.5010   31.2950   36.6140 H   0  0  0  0  0  0  0  0  0  0  0  0
  1  7  1  6  0  0  0
  1 36  1  0  0  0  0
  2  1  1  0  0  0  0
  2  9  1  0  0  0  0
  3  2  1  0  0  0  0
  3 10  1  1  0  0  0
  4  3  1  0  0  0  0
  5  4  1  0  0  0  0
  5  6  1  0  0  0  0
  6 16  1  0  0  0  0
  6  1  1  0  0  0  0
  8  2  1  0  0  0  0
 11  4  1  0  0  0  0
 12  4  1  0  0  0  0
 13  5  1  0  0  0  0
 14  5  1  0  0  0  0
 15  6  1  0  0  0  0
 18 23  1  0  0  0  0
 18 17  1  0  0  0  0
 19  3  1  0  0  0  0
 19 18  2  0  0  0  0
 20 19  1  0  0  0  0
 21 20  2  0  0  0  0
 21 22  1  0  0  0  0
 22 23  2  0  0  0  0
 23 27  1  0  0  0  0
 24 20  1  0  0  0  0
 25 21  1  0  0  0  0
 26 22  1  0  0  0  0
 27 28  1  0  0  0  0
 28 29  1  0  0  0  0
 28 30  1  0  0  0  0
 30 31  1  0  0  0  0
 32 30  1  0  0  0  0
 32 33  1  0  0  0  0
 34 32  1  0  0  0  0
 35 27  1  0  0  0  0
 35 34  1  0  0  0  0
 36 37  2  0  0  0  0
 36 41  1  0  0  0  0
 37 38  1  0  0  0  0
 38 39  2  0  0  0  0
 38 43  1  0  0  0  0
 40 44  1  0  0  0  0
 40 39  1  0  0  0  0
 41 40  2  0  0  0  0
 42 37  1  0  0  0  0
M  END
>  <minimizedAffinity>
-5.71090412

$$$$

 OpenBabel03272506003D

 44 47  0  0  1  0  0  0  0  0999 V2000
   37.2430   27.9500   31.2740 C   0  0  2  0  0  0  0  0  0  0  0  0
   36.6500   28.6420   32.4430 C   0  0  0  0  0  0  0  0  0  0  0  0
   35.6370   29.7210   32.0370 C   0  0  2  0  0  0  0  0  0  0  0  0
   36.1660   30.7280   31.1160 C   0  0  0  0  0  0  0  0  0  0  0  0
   37.1180   30.1560   30.0700 C   0  0  0  0  0  0  0  0  0  0  0  0
   36.9790   28.6590   29.9630 C   0  0  0  0  0  0  0  0  0  0  0  0
   38.3710   27.8940   31.3330 H   0  0  0  0  0  0  0  0  0  0  0  0
   37.4860   29.2610   32.9130 H   0  0  0  0  0  0  0  0  0  0  0  0
   36.1450   28.1150   33.2140 H   0  0  0  0  0  0  0  0  0  0  0  0
   34.7450   29.2090   31.6410 H   0  0  0  0  0  0  0  0  0  0  0  0
   36.7660   31.4780   31.6640 H   0  0  0  0  0  0  0  0  0  0  0  0
   35.3280   31.2770   30.6380 H   0  0  0  0  0  0  0  0  0  0  0  0
   36.7980   30.5740   29.0930 H   0  0  0  0  0  0  0  0  0  0  0  0
   38.1650   30.4530   30.2240 H   0  0  0  0  0  0  0  0  0  0  0  0
   37.7140   28.3200   29.2160 H   0  0  0  0  0  0  0  0  0  0  0  0
   35.9300   28.4480   29.6600 H   0  0  0  0  0  0  0  0  0  0  0  0
   32.9800   28.9450   33.0670 Cl  0  0  0  0  0  0  0  0  0  0  0  0
   34.0140   30.1020   33.8900 C   0  0  0  0  0  0  0  0  0  0  0  0
   35.2570   30.3560   33.3330 C   0  0  0  0  0  0  0  0  0  0  0  0
   35.9980   31.2470   34.0660 C   0  0  0  0  0  0  0  0  0  0  0  0
   35.5520   31.8300   35.2330 C   0  0  0  0  0  0  0  0  0  0  0  0
   34.2900   31.5220   35.7240 C   0  0  0  0  0  0  0  0  0  0  0  0
   33.4960   30.6250   35.0240 C   0  0  0  0  0  0  0  0  0  0  0  0
   36.9880   31.5010   33.7070 H   0  0  0  0  0  0  0  0  0  0  0  0
   36.2210   32.5270   35.7380 H   0  0  0  0  0  0  0  0  0  0  0  0
   34.0060   32.0090   36.6320 H   0  0  0  0  0  0  0  0  0  0  0  0
   32.2250   30.3270   35.5380 N   0  0  0  0  0  0  0  0  0  0  0  0
   31.1590   31.2310   35.2330 C   0  0  0  0  0  3  0  0  0  0  0  0
   31.5190   32.2460   34.9550 H   0  0  0  0  0  0  0  0  0  0  0  0
   30.2130   31.4300   36.3950 C   0  0  0  0  0  3  0  0  0  0  0  0
   29.2550   31.8080   35.9360 H   0  0  0  0  0  0  0  0  0  0  0  0
   29.9000   30.2190   37.0910 N   0  0  0  0  0  0  0  0  0  0  0  0
   28.8530   30.0400   37.1390 H   0  0  0  0  0  0  0  0  0  0  0  0
   30.4790   29.0310   36.4930 C   0  0  0  0  0  2  0  0  0  0  0  0
   31.9660   29.1540   36.3520 C   0  0  0  0  0  2  0  0  0  0  0  0
   36.7780   26.5630   31.1240 C   0  0  0  0  0  0  0  0  0  0  0  0
   37.7890   25.6190   30.9350 C   0  0  0  0  0  0  0  0  0  0  0  0
   37.4010   24.2790   30.8020 C   0  0  0  0  0  0  0  0  0  0  0  0
   36.0490   23.9550   30.8610 N   0  0  0  0  0  0  0  0  0  0  0  0
   35.1160   24.9070   31.0440 C   0  0  0  0  0  0  0  0  0  0  0  0
   35.5030   26.1760   31.1710 N   0  0  0  0  0  0  0  0  0  0  0  0
   38.8570   25.5570   30.8430 H   0  0  0  0  0  0  0  0  0  0  0  0
   37.9510   23.3750   30.6530 H   0  0  0  0  0  0  0  0  0  0  0  0
   34.0630   24.6670   31.0910 H   0  0  0  0  0  0  0  0  0  0  0  0
  1  7  1  1  0  0  0
  1  2  1  0  0  0  0
  2  8  1  0  0  0  0
  2  9  1  0  0  0  0
  3 10  1  6  0  0  0
  3  2  1  0  0  0  0
  3 19  1  0  0  0  0
  4 11  1  0  0  0  0
  4  3  1  0  0  0  0
  5 14  1  0  0  0  0
  5  4  1  0  0  0  0
  6  5  1  0  0  0  0
  6  1  1  0  0  0  0
 12  4  1  0  0  0  0
 13  5  1  0  0  0  0
 15  6  1  0  0  0  0
 16  6  1  0  0  0  0
 17 18  1  0  0  0  0
 18 23  1  0  0  0  0
 19 18  2  0  0  0  0
 19 20  1  0  0  0  0
 20 21  2  0  0  0  0
 21 22  1  0  0  0  0
 21 25  1  0  0  0  0
 22 26  1  0  0  0  0
 23 27  1  0  0  0  0
 23 22  2  0  0  0  0
 24 20  1  0  0  0  0
 27 35  1  0  0  0  0
 28 27  1  0  0  0  0
 28 30  1  0  0  0  0
 29 28  1  0  0  0  0
 30 32  1  0  0  0  0
 31 30  1  0  0  0  0
 32 33  1  0  0  0  0
 34 32  1  0  0  0  0
 35 34  1  0  0  0  0
 36 41  1  0  0  0  0
 36  1  1  0  0  0  0
 37 36  2  0  0  0  0
 38 39  2  0  0  0  0
 38 37  1  0  0  0  0
 39 40  1  0  0  0  0
 40 44  1  0  0  0  0
 40 41  2  0  0  0  0
 42 37  1  0  0  0  0
 43 38  1  0  0  0  0
M  END
>  <minimizedAffinity>
-5.65958261

$$$$

 OpenBabel03272506003D

 44 47  0  0  1  0  0  0  0  0999 V2000
   34.5080   31.6490   36.6570 C   0  0  2  0  0  0  0  0  0  0  0  0
   35.3630   30.8840   35.7170 C   0  0  0  0  0  0  0  0  0  0  0  0
   34.5910   30.3970   34.4840 C   0  0  2  0  0  0  0  0  0  0  0  0
   33.4040   29.5990   34.7910 C   0  0  0  0  0  0  0  0  0  0  0  0
   32.6360   30.0970   36.0120 C   0  0  0  0  0  0  0  0  0  0  0  0
   33.0290   31.5060   36.3690 C   0  0  0  0  0  0  0  0  0  0  0  0
   34.6150   31.2920   37.7250 H   0  0  0  0  0  0  0  0  0  0  0  0
   35.6240   29.9040   36.2400 H   0  0  0  0  0  0  0  0  0  0  0  0
   36.2500   31.2940   35.3020 H   0  0  0  0  0  0  0  0  0  0  0  0
   34.3620   31.2800   33.8630 H   0  0  0  0  0  0  0  0  0  0  0  0
   33.6880   28.5600   35.0400 H   0  0  0  0  0  0  0  0  0  0  0  0
   32.7460   29.5450   33.8980 H   0  0  0  0  0  0  0  0  0  0  0  0
   31.5670   30.1310   35.7170 H   0  0  0  0  0  0  0  0  0  0  0  0
   32.7130   29.4250   36.8790 H   0  0  0  0  0  0  0  0  0  0  0  0
   32.4590   31.7810   37.2710 H   0  0  0  0  0  0  0  0  0  0  0  0
   32.7830   32.1480   35.4940 H   0  0  0  0  0  0  0  0  0  0  0  0
   35.2250   31.3580   31.7630 Cl  0  0  0  0  0  0  0  0  0  0  0  0
   35.9330   29.9000   32.4420 C   0  0  0  0  0  0  0  0  0  0  0  0
   35.5910   29.5720   33.7440 C   0  0  0  0  0  0  0  0  0  0  0  0
   36.2180   28.4370   34.1900 C   0  0  0  0  0  0  0  0  0  0  0  0
   37.0950   27.6990   33.4230 C   0  0  0  0  0  0  0  0  0  0  0  0
   37.3830   28.0970   32.1240 C   0  0  0  0  0  0  0  0  0  0  0  0
   36.7780   29.2390   31.6190 C   0  0  0  0  0  0  0  0  0  0  0  0
   36.0140   28.1080   35.2010 H   0  0  0  0  0  0  0  0  0  0  0  0
   37.5390   26.8120   33.8740 H   0  0  0  0  0  0  0  0  0  0  0  0
   38.0690   27.4810   31.5840 H   0  0  0  0  0  0  0  0  0  0  0  0
   37.0830   29.6230   30.3050 N   0  0  0  0  0  0  0  0  0  0  0  0
   37.0760   28.6060   29.2990 C   0  0  0  0  0  3  0  0  0  0  0  0
   37.2050   27.5830   29.7170 H   0  0  0  0  0  0  0  0  0  0  0  0
   38.1810   28.7810   28.2840 C   0  0  0  0  0  3  0  0  0  0  0  0
   37.8440   28.2050   27.3750 H   0  0  0  0  0  0  0  0  0  0  0  0
   38.3710   30.1400   27.8760 N   0  0  0  0  0  0  0  0  0  0  0  0
   38.2990   30.2600   26.8220 H   0  0  0  0  0  0  0  0  0  0  0  0
   37.4120   31.0660   28.4480 C   0  0  0  0  0  2  0  0  0  0  0  0
   37.4010   30.9920   29.9450 C   0  0  0  0  0  2  0  0  0  0  0  0
   34.8150   33.0870   36.6800 C   0  0  0  0  0  0  0  0  0  0  0  0
   34.0370   33.8430   37.5600 C   0  0  0  0  0  0  0  0  0  0  0  0
   34.2990   35.2170   37.6310 C   0  0  0  0  0  0  0  0  0  0  0  0
   35.3030   35.7590   36.8350 N   0  0  0  0  0  0  0  0  0  0  0  0
   36.0220   34.9830   36.0030 C   0  0  0  0  0  0  0  0  0  0  0  0
   35.7610   33.6770   35.9490 N   0  0  0  0  0  0  0  0  0  0  0  0
   33.2310   33.7270   38.2600 H   0  0  0  0  0  0  0  0  0  0  0  0
   33.8680   36.0100   38.2050 H   0  0  0  0  0  0  0  0  0  0  0  0
   36.8050   35.3940   35.3800 H   0  0  0  0  0  0  0  0  0  0  0  0
  1 36  1  0  0  0  0
  1  7  1  1  0  0  0
  2  8  1  0  0  0  0
  2  1  1  0  0  0  0
  3 10  1  6  0  0  0
  3  4  1  0  0  0  0
  3  2  1  0  0  0  0
  4 11  1  0  0  0  0
  4  5  1  0  0  0  0
  5  6  1  0  0  0  0
  5 14  1  0  0  0  0
  6  1  1  0  0  0  0
  6 15  1  0  0  0  0
  9  2  1  0  0  0  0
 12  4  1  0  0  0  0
 13  5  1  0  0  0  0
 16  6  1  0  0  0  0
 17 18  1  0  0  0  0
 18 19  1  0  0  0  0
 19 20  2  0  0  0  0
 19  3  1  0  0  0  0
 20 24  1  0  0  0  0
 21 25  1  0  0  0  0
 21 20  1  0  0  0  0
 22 21  2  0  0  0  0
 23 22  1  0  0  0  0
 23 18  2  0  0  0  0
 26 22  1  0  0  0  0
 27 23  1  0  0  0  0
 28 29  1  0  0  0  0
 28 27  1  0  0  0  0
 30 28  1  0  0  0  0
 31 30  1  0  0  0  0
 32 30  1  0  0  0  0
 32 34  1  0  0  0  0
 33 32  1  0  0  0  0
 34 35  1  0  0  0  0
 35 27  1  0  0  0  0
 36 37  1  0  0  0  0
 37 38  2  0  0  0  0
 37 42  1  0  0  0  0
 38 43  1  0  0  0  0
 39 38  1  0  0  0  0
 40 39  2  0  0  0  0
 41 40  1  0  0  0  0
 41 36  2  0  0  0  0
 44 40  1  0  0  0  0
M  END
>  <minimizedAffinity>
-5.65809965

$$$$

 OpenBabel03272506003D

 44 47  0  0  1  0  0  0  0  0999 V2000
   39.2870   25.0900   35.5440 C   0  0  2  0  0  0  0  0  0  0  0  0
   38.2440   24.5810   34.6210 C   0  0  0  0  0  0  0  0  0  0  0  0
   38.4960   24.9900   33.1640 C   0  0  2  0  0  0  0  0  0  0  0  0
   38.6390   26.4320   32.9580 C   0  0  0  0  0  0  0  0  0  0  0  0
   39.3970   27.1340   34.0810 C   0  0  0  0  0  0  0  0  0  0  0  0
   40.1700   26.1500   34.9190 C   0  0  0  0  0  0  0  0  0  0  0  0
   38.8470   25.6000   36.4520 H   0  0  0  0  0  0  0  0  0  0  0  0
   37.2860   25.1490   34.8690 H   0  0  0  0  0  0  0  0  0  0  0  0
   38.0140   23.5470   34.5460 H   0  0  0  0  0  0  0  0  0  0  0  0
   39.3690   24.4200   32.8040 H   0  0  0  0  0  0  0  0  0  0  0  0
   37.6470   26.9210   32.9380 H   0  0  0  0  0  0  0  0  0  0  0  0
   39.1100   26.6260   31.9720 H   0  0  0  0  0  0  0  0  0  0  0  0
   40.1460   27.7890   33.5900 H   0  0  0  0  0  0  0  0  0  0  0  0
   38.7590   27.7790   34.7010 H   0  0  0  0  0  0  0  0  0  0  0  0
   40.6620   26.7250   35.7200 H   0  0  0  0  0  0  0  0  0  0  0  0
   40.8950   25.6430   34.2460 H   0  0  0  0  0  0  0  0  0  0  0  0
   38.3200   22.0480   32.9620 Cl  0  0  0  0  0  0  0  0  0  0  0  0
   37.1270   23.1200   32.2450 C   0  0  0  0  0  0  0  0  0  0  0  0
   37.2930   24.4820   32.4410 C   0  0  0  0  0  0  0  0  0  0  0  0
   36.2950   25.2280   31.8690 C   0  0  0  0  0  0  0  0  0  0  0  0
   35.2400   24.6820   31.1700 C   0  0  0  0  0  0  0  0  0  0  0  0
   35.1490   23.3040   31.0180 C   0  0  0  0  0  0  0  0  0  0  0  0
   36.1300   22.4980   31.5760 C   0  0  0  0  0  0  0  0  0  0  0  0
   36.3410   26.3050   31.9770 H   0  0  0  0  0  0  0  0  0  0  0  0
   34.5000   25.3660   30.7540 H   0  0  0  0  0  0  0  0  0  0  0  0
   34.3070   22.9470   30.4650 H   0  0  0  0  0  0  0  0  0  0  0  0
   36.0180   21.1100   31.4110 N   0  0  0  0  0  0  0  0  0  0  0  0
   35.0420   20.4250   32.2020 C   0  0  0  0  0  3  0  0  0  0  0  0
   34.7530   20.9900   33.1160 H   0  0  0  0  0  0  0  0  0  0  0  0
   35.5240   19.0760   32.6830 C   0  0  0  0  0  3  0  0  0  0  0  0
   34.5880   18.4970   32.9270 H   0  0  0  0  0  0  0  0  0  0  0  0
   36.2330   18.3340   31.6860 N   0  0  0  0  0  0  0  0  0  0  0  0
   35.8090   17.3730   31.5190 H   0  0  0  0  0  0  0  0  0  0  0  0
   36.2740   18.9820   30.3880 C   0  0  0  0  0  2  0  0  0  0  0  0
   36.8450   20.3640   30.4810 C   0  0  0  0  0  2  0  0  0  0  0  0
   40.1690   24.0330   36.0620 C   0  0  0  0  0  0  0  0  0  0  0  0
   39.5940   23.2060   37.0290 C   0  0  0  0  0  0  0  0  0  0  0  0
   40.3860   22.1740   37.5450 C   0  0  0  0  0  0  0  0  0  0  0  0
   41.6890   22.0200   37.0810 N   0  0  0  0  0  0  0  0  0  0  0  0
   42.1930   22.8480   36.1470 C   0  0  0  0  0  0  0  0  0  0  0  0
   41.4250   23.8250   35.6660 N   0  0  0  0  0  0  0  0  0  0  0  0
   38.6730   23.0790   37.5670 H   0  0  0  0  0  0  0  0  0  0  0  0
   40.2040   21.4130   38.2740 H   0  0  0  0  0  0  0  0  0  0  0  0
   43.2040   22.7390   35.7800 H   0  0  0  0  0  0  0  0  0  0  0  0
  1 36  1  0  0  0  0
  1  7  1  1  0  0  0
  2  8  1  0  0  0  0
  2  1  1  0  0  0  0
  3 10  1  6  0  0  0
  3  2  1  0  0  0  0
  4  3  1  0  0  0  0
  4  5  1  0  0  0  0
  5 14  1  0  0  0  0
  5  6  1  0  0  0  0
  6  1  1  0  0  0  0
  6 15  1  0  0  0  0
  9  2  1  0  0  0  0
 11  4  1  0  0  0  0
 12  4  1  0  0  0  0
 13  5  1  0  0  0  0
 16  6  1  0  0  0  0
 18 19  1  0  0  0  0
 18 17  1  0  0  0  0
 19  3  1  0  0  0  0
 20 24  1  0  0  0  0
 20 19  2  0  0  0  0
 21 20  1  0  0  0  0
 22 21  2  0  0  0  0
 22 23  1  0  0  0  0
 23 18  2  0  0  0  0
 25 21  1  0  0  0  0
 26 22  1  0  0  0  0
 27 23  1  0  0  0  0
 27 28  1  0  0  0  0
 28 30  1  0  0  0  0
 28 29  1  0  0  0  0
 30 31  1  0  0  0  0
 32 30  1  0  0  0  0
 33 32  1  0  0  0  0
 34 35  1  0  0  0  0
 34 32  1  0  0  0  0
 35 27  1  0  0  0  0
 36 37  1  0  0  0  0
 37 38  2  0  0  0  0
 37 42  1  0  0  0  0
 38 43  1  0  0  0  0
 39 38  1  0  0  0  0
 40 39  2  0  0  0  0
 41 36  2  0  0  0  0
 41 40  1  0  0  0  0
 44 40  1  0  0  0  0
M  END
>  <minimizedAffinity>
-5.61760902

$$$$

 OpenBabel03272506003D

 44 47  0  0  1  0  0  0  0  0999 V2000
   35.1370   31.3930   35.8000 C   0  0  2  0  0  0  0  0  0  0  0  0
   35.8040   30.7970   34.6170 C   0  0  0  0  0  0  0  0  0  0  0  0
   34.8150   30.4550   33.4950 C   0  0  2  0  0  0  0  0  0  0  0  0
   33.7170   29.5780   33.9040 C   0  0  0  0  0  0  0  0  0  0  0  0
   33.1940   29.8740   35.3060 C   0  0  0  0  0  0  0  0  0  0  0  0
   33.6320   31.2350   35.7790 C   0  0  0  0  0  0  0  0  0  0  0  0
   35.4520   30.8960   36.7670 H   0  0  0  0  0  0  0  0  0  0  0  0
   36.1710   29.7650   34.9370 H   0  0  0  0  0  0  0  0  0  0  0  0
   36.5910   31.2920   34.1040 H   0  0  0  0  0  0  0  0  0  0  0  0
   34.4620   31.4050   33.0610 H   0  0  0  0  0  0  0  0  0  0  0  0
   34.0550   28.5260   33.9440 H   0  0  0  0  0  0  0  0  0  0  0  0
   32.9010   29.6220   33.1530 H   0  0  0  0  0  0  0  0  0  0  0  0
   32.0870   29.9080   35.2260 H   0  0  0  0  0  0  0  0  0  0  0  0
   33.4420   29.0930   36.0390 H   0  0  0  0  0  0  0  0  0  0  0  0
   33.2430   31.3620   36.8030 H   0  0  0  0  0  0  0  0  0  0  0  0
   33.2160   31.9810   35.0670 H   0  0  0  0  0  0  0  0  0  0  0  0
   36.3120   28.1070   34.4790 Cl  0  0  0  0  0  0  0  0  0  0  0  0
   36.4460   28.6910   32.8280 C   0  0  0  0  0  0  0  0  0  0  0  0
   35.6630   29.7770   32.4700 C   0  0  0  0  0  0  0  0  0  0  0  0
   35.8160   30.1350   31.1560 C   0  0  0  0  0  0  0  0  0  0  0  0
   36.6630   29.4850   30.2820 C   0  0  0  0  0  0  0  0  0  0  0  0
   37.4150   28.4040   30.7230 C   0  0  0  0  0  0  0  0  0  0  0  0
   37.3000   27.9960   32.0430 C   0  0  0  0  0  0  0  0  0  0  0  0
   35.2380   30.9730   30.7860 H   0  0  0  0  0  0  0  0  0  0  0  0
   36.7110   29.8510   29.2570 H   0  0  0  0  0  0  0  0  0  0  0  0
   38.0500   27.9450   29.9960 H   0  0  0  0  0  0  0  0  0  0  0  0
   38.0680   26.9010   32.4660 N   0  0  0  0  0  0  0  0  0  0  0  0
   37.4960   25.5970   32.3270 C   0  0  0  0  0  3  0  0  0  0  0  0
   36.3860   25.6170   32.2610 H   0  0  0  0  0  0  0  0  0  0  0  0
   37.8270   24.6890   33.4890 C   0  0  0  0  0  3  0  0  0  0  0  0
   37.6820   23.6410   33.0970 H   0  0  0  0  0  0  0  0  0  0  0  0
   39.1860   24.7920   33.9260 N   0  0  0  0  0  0  0  0  0  0  0  0
   39.6850   23.8530   33.9210 H   0  0  0  0  0  0  0  0  0  0  0  0
   39.9990   25.6800   33.1170 C   0  0  0  0  0  2  0  0  0  0  0  0
   39.3980   27.0500   33.0290 C   0  0  0  0  0  2  0  0  0  0  0  0
   35.4280   32.8240   35.9690 C   0  0  0  0  0  0  0  0  0  0  0  0
   36.6150   33.2590   35.3780 C   0  0  0  0  0  0  0  0  0  0  0  0
   36.9320   34.6180   35.4960 C   0  0  0  0  0  0  0  0  0  0  0  0
   36.0650   35.4600   36.1870 N   0  0  0  0  0  0  0  0  0  0  0  0
   34.9330   34.9860   36.7390 C   0  0  0  0  0  0  0  0  0  0  0  0
   34.6460   33.6900   36.6150 N   0  0  0  0  0  0  0  0  0  0  0  0
   37.4490   32.8780   34.8170 H   0  0  0  0  0  0  0  0  0  0  0  0
   37.7550   35.2060   35.1490 H   0  0  0  0  0  0  0  0  0  0  0  0
   34.2530   35.6300   37.2780 H   0  0  0  0  0  0  0  0  0  0  0  0
  1 36  1  0  0  0  0
  1  7  1  1  0  0  0
  2  8  1  0  0  0  0
  2  1  1  0  0  0  0
  3 10  1  6  0  0  0
  3  4  1  0  0  0  0
  3  2  1  0  0  0  0
  4 11  1  0  0  0  0
  4  5  1  0  0  0  0
  5  6  1  0  0  0  0
  5 14  1  0  0  0  0
  6  1  1  0  0  0  0
  6 15  1  0  0  0  0
  9  2  1  0  0  0  0
 12  4  1  0  0  0  0
 13  5  1  0  0  0  0
 16  6  1  0  0  0  0
 18 17  1  0  0  0  0
 19 18  1  0  0  0  0
 19  3  1  0  0  0  0
 20 19  2  0  0  0  0
 21 22  2  0  0  0  0
 21 20  1  0  0  0  0
 22 23  1  0  0  0  0
 23 27  1  0  0  0  0
 23 18  2  0  0  0  0
 24 20  1  0  0  0  0
 25 21  1  0  0  0  0
 26 22  1  0  0  0  0
 27 35  1  0  0  0  0
 28 27  1  0  0  0  0
 28 30  1  0  0  0  0
 29 28  1  0  0  0  0
 30 32  1  0  0  0  0
 31 30  1  0  0  0  0
 33 32  1  0  0  0  0
 34 32  1  0  0  0  0
 35 34  1  0  0  0  0
 36 41  1  0  0  0  0
 37 38  1  0  0  0  0
 37 36  2  0  0  0  0
 38 39  2  0  0  0  0
 39 40  1  0  0  0  0
 40 44  1  0  0  0  0
 41 40  2  0  0  0  0
 42 37  1  0  0  0  0
 43 38  1  0  0  0  0
M  END
>  <minimizedAffinity>
-5.59993458

$$$$

 OpenBabel03272506003D

 44 47  0  0  1  0  0  0  0  0999 V2000
   38.5020   26.6090   34.5920 C   0  0  2  0  0  0  0  0  0  0  0  0
   37.6010   27.7310   34.9510 C   0  0  0  0  0  0  0  0  0  0  0  0
   36.5670   28.0290   33.8580 C   0  0  2  0  0  0  0  0  0  0  0  0
   37.1430   28.2960   32.5400 C   0  0  0  0  0  0  0  0  0  0  0  0
   38.3520   27.4240   32.2160 C   0  0  0  0  0  0  0  0  0  0  0  0
   38.4240   26.2280   33.1290 C   0  0  0  0  0  0  0  0  0  0  0  0
   39.5930   26.8640   34.7510 H   0  0  0  0  0  0  0  0  0  0  0  0
   38.2410   28.6760   34.9430 H   0  0  0  0  0  0  0  0  0  0  0  0
   37.0200   27.7240   35.8400 H   0  0  0  0  0  0  0  0  0  0  0  0
   35.8440   27.1960   33.8460 H   0  0  0  0  0  0  0  0  0  0  0  0
   37.5200   29.3340   32.4840 H   0  0  0  0  0  0  0  0  0  0  0  0
   36.3580   28.2000   31.7600 H   0  0  0  0  0  0  0  0  0  0  0  0
   38.1880   27.0300   31.1910 H   0  0  0  0  0  0  0  0  0  0  0  0
   39.3000   27.9790   32.2030 H   0  0  0  0  0  0  0  0  0  0  0  0
   39.3330   25.6670   32.8550 H   0  0  0  0  0  0  0  0  0  0  0  0
   37.4940   25.6390   32.9740 H   0  0  0  0  0  0  0  0  0  0  0  0
   33.9650   28.5690   32.5690 Cl  0  0  0  0  0  0  0  0  0  0  0  0
   34.6460   29.6170   33.8030 C   0  0  0  0  0  0  0  0  0  0  0  0
   35.8550   29.2390   34.3650 C   0  0  0  0  0  0  0  0  0  0  0  0
   36.2840   30.1040   35.3380 C   0  0  0  0  0  0  0  0  0  0  0  0
   35.5890   31.2340   35.7150 C   0  0  0  0  0  0  0  0  0  0  0  0
   34.3830   31.5420   35.0990 C   0  0  0  0  0  0  0  0  0  0  0  0
   33.8980   30.7010   34.1080 C   0  0  0  0  0  0  0  0  0  0  0  0
   37.2200   29.8840   35.8370 H   0  0  0  0  0  0  0  0  0  0  0  0
   36.0200   31.8550   36.4990 H   0  0  0  0  0  0  0  0  0  0  0  0
   33.8950   32.4310   35.4380 H   0  0  0  0  0  0  0  0  0  0  0  0
   32.6770   31.0320   33.5000 N   0  0  0  0  0  0  0  0  0  0  0  0
   31.4780   30.5870   34.1380 C   0  0  0  0  0  3  0  0  0  0  0  0
   31.6450   29.7220   34.8180 H   0  0  0  0  0  0  0  0  0  0  0  0
   30.4230   30.1420   33.1520 C   0  0  0  0  0  3  0  0  0  0  0  0
   29.4470   30.2020   33.7130 H   0  0  0  0  0  0  0  0  0  0  0  0
   30.3090   30.9990   32.0120 N   0  0  0  0  0  0  0  0  0  0  0  0
   29.3190   31.3650   31.8790 H   0  0  0  0  0  0  0  0  0  0  0  0
   31.1620   32.1710   32.0690 C   0  0  0  0  0  2  0  0  0  0  0  0
   32.6000   31.7950   32.2680 C   0  0  0  0  0  2  0  0  0  0  0  0
   38.2530   25.3920   35.3780 C   0  0  0  0  0  0  0  0  0  0  0  0
   38.2430   24.2050   34.6410 C   0  0  0  0  0  0  0  0  0  0  0  0
   38.0250   23.0140   35.3450 C   0  0  0  0  0  0  0  0  0  0  0  0
   37.8300   23.0640   36.7220 N   0  0  0  0  0  0  0  0  0  0  0  0
   37.8490   24.2380   37.3810 C   0  0  0  0  0  0  0  0  0  0  0  0
   38.0590   25.3610   36.6970 N   0  0  0  0  0  0  0  0  0  0  0  0
   38.3490   23.8580   33.6310 H   0  0  0  0  0  0  0  0  0  0  0  0
   37.9700   21.9900   35.0410 H   0  0  0  0  0  0  0  0  0  0  0  0
   37.6990   24.2880   38.4510 H   0  0  0  0  0  0  0  0  0  0  0  0
  1  7  1  1  0  0  0
  1  2  1  0  0  0  0
  1 36  1  0  0  0  0
  2  9  1  0  0  0  0
  3 10  1  6  0  0  0
  3 19  1  0  0  0  0
  3  2  1  0  0  0  0
  4  3  1  0  0  0  0
  5  4  1  0  0  0  0
  5  6  1  0  0  0  0
  6  1  1  0  0  0  0
  8  2  1  0  0  0  0
 11  4  1  0  0  0  0
 12  4  1  0  0  0  0
 13  5  1  0  0  0  0
 14  5  1  0  0  0  0
 15  6  1  0  0  0  0
 16  6  1  0  0  0  0
 17 18  1  0  0  0  0
 18 23  2  0  0  0  0
 18 19  1  0  0  0  0
 19 20  2  0  0  0  0
 20 21  1  0  0  0  0
 20 24  1  0  0  0  0
 21 25  1  0  0  0  0
 22 26  1  0  0  0  0
 22 21  2  0  0  0  0
 23 22  1  0  0  0  0
 27 23  1  0  0  0  0
 27 28  1  0  0  0  0
 28 29  1  0  0  0  0
 30 31  1  0  0  0  0
 30 28  1  0  0  0  0
 32 34  1  0  0  0  0
 32 30  1  0  0  0  0
 33 32  1  0  0  0  0
 34 35  1  0  0  0  0
 35 27  1  0  0  0  0
 36 41  1  0  0  0  0
 37 38  1  0  0  0  0
 37 36  2  0  0  0  0
 38 39  2  0  0  0  0
 39 40  1  0  0  0  0
 40 44  1  0  0  0  0
 41 40  2  0  0  0  0
 42 37  1  0  0  0  0
 43 38  1  0  0  0  0
M  END
>  <minimizedAffinity>
-5.58102083

$$$$
