
 OpenBabel03272501233D

 40 43  0  0  0  0  0  0  0  0999 V2000
   36.6480   28.2900   33.3850 C   0  0  0  0  0  0  0  0  0  0  0  0
   35.6690   29.2350   33.1140 C   0  0  0  0  0  0  0  0  0  0  0  0
   35.5320   29.5550   31.7610 C   0  0  0  0  0  0  0  0  0  0  0  0
   36.3340   28.9530   30.7840 C   0  0  0  0  0  0  0  0  0  0  0  0
   37.2810   28.0240   31.1420 C   0  0  0  0  0  0  0  0  0  0  0  0
   37.4480   27.6820   32.4590 C   0  0  0  0  0  0  0  0  0  0  0  0
   34.7640   30.2980   31.5490 H   0  0  0  0  0  0  0  0  0  0  0  0
   36.1380   29.2790   29.7760 H   0  0  0  0  0  0  0  0  0  0  0  0
   37.8630   27.6020   30.3330 H   0  0  0  0  0  0  0  0  0  0  0  0
   33.5620   29.3920   34.3630 C   0  0  0  0  0  0  0  0  0  0  0  0
   34.8610   29.8400   34.1200 C   0  0  0  0  0  0  0  0  0  0  0  0
   35.3270   30.9050   34.9090 C   0  0  0  0  0  0  0  0  0  0  0  0
   34.5030   31.4340   35.8520 N   0  0  0  0  0  0  0  0  0  0  0  0
   33.2490   30.9590   36.0450 C   0  0  0  0  0  0  0  0  0  0  0  0
   32.7730   29.9320   35.2980 N   0  0  0  0  0  0  0  0  0  0  0  0
   33.2230   28.5710   33.7460 H   0  0  0  0  0  0  0  0  0  0  0  0
   36.3370   31.2630   34.7300 H   0  0  0  0  0  0  0  0  0  0  0  0
   32.5880   31.3680   36.7860 H   0  0  0  0  0  0  0  0  0  0  0  0
   36.8640   27.8980   34.7240 O   0  0  0  0  0  0  0  0  0  0  0  0
   37.5790   28.4330   35.2000 H   0  0  0  0  0  0  0  0  0  0  0  0
   38.4150   26.7390   32.7970 O   0  0  0  0  0  0  0  0  0  0  0  0
   39.2350   25.8110   35.5650 Cl  0  0  0  0  0  0  0  0  0  0  0  0
   38.4520   24.8120   34.3610 C   0  0  0  0  0  0  0  0  0  0  0  0
   38.1620   25.4400   33.1550 C   0  0  0  0  0  0  0  0  0  0  0  0
   37.5460   24.6620   32.1990 C   0  0  0  0  0  0  0  0  0  0  0  0
   37.2090   23.3480   32.3560 C   0  0  0  0  0  0  0  0  0  0  0  0
   37.5040   22.7310   33.5650 C   0  0  0  0  0  0  0  0  0  0  0  0
   38.1260   23.4810   34.5580 C   0  0  0  0  0  0  0  0  0  0  0  0
   37.2770   25.0680   31.2140 H   0  0  0  0  0  0  0  0  0  0  0  0
   36.7220   22.7610   31.5800 H   0  0  0  0  0  0  0  0  0  0  0  0
   37.2770   21.7060   33.7760 H   0  0  0  0  0  0  0  0  0  0  0  0
   38.4500   22.8920   35.8210 N   0  0  0  0  0  0  0  0  0  0  0  0
   39.6000   22.0350   36.1130 C   0  0  0  0  0  3  0  0  0  0  0  0
   39.2040   21.1360   36.6200 H   0  0  0  0  0  0  0  0  0  0  0  0
   40.3960   22.8200   37.1620 C   0  0  0  0  0  3  0  0  0  0  0  0
   41.4100   22.4370   37.3070 H   0  0  0  0  0  0  0  0  0  0  0  0
   39.6130   22.7130   38.3860 N   0  0  0  0  0  0  0  0  0  0  0  0
   39.5580   21.7220   38.6850 H   0  0  0  0  0  0  0  0  0  0  0  0
   38.3500   23.3810   38.2490 C   0  0  0  0  0  2  0  0  0  0  0  0
   37.6210   23.1070   36.9840 C   0  0  0  0  0  2  0  0  0  0  0  0
  1 19  1  0  0  0  0
  2  1  1  0  0  0  0
  2 11  1  0  0  0  0
  3  2  2  0  0  0  0
  4  5  2  0  0  0  0
  4  3  1  0  0  0  0
  5  6  1  0  0  0  0
  6 21  1  0  0  0  0
  6  1  2  0  0  0  0
  7  3  1  0  0  0  0
  8  4  1  0  0  0  0
  9  5  1  0  0  0  0
 10 15  1  0  0  0  0
 11 10  2  0  0  0  0
 11 12  1  0  0  0  0
 12 13  2  0  0  0  0
 13 14  1  0  0  0  0
 14 18  1  0  0  0  0
 15 14  2  0  0  0  0
 16 10  1  0  0  0  0
 17 12  1  0  0  0  0
 19 20  1  0  0  0  0
 21 24  1  0  0  0  0
 23 28  1  0  0  0  0
 23 22  1  0  0  0  0
 24 23  2  0  0  0  0
 25 26  2  0  0  0  0
 25 24  1  0  0  0  0
 26 27  1  0  0  0  0
 27 31  1  0  0  0  0
 27 28  2  0  0  0  0
 28 32  1  0  0  0  0
 29 25  1  0  0  0  0
 30 26  1  0  0  0  0
 32 33  1  0  0  0  0
 32 40  1  0  0  0  0
 33 34  1  0  0  0  0
 33 35  1  0  0  0  0
 35 36  1  0  0  0  0
 35 37  1  0  0  0  0
 37 38  1  0  0  0  0
 39 37  1  0  0  0  0
 40 39  1  0  0  0  0
M  END
>  <minimizedAffinity>
-6.37215614

$$$$

 OpenBabel03272501233D

 40 43  0  0  0  0  0  0  0  0999 V2000
   36.2790   28.8790   33.4600 C   0  0  0  0  0  0  0  0  0  0  0  0
   35.6920   30.1360   33.5210 C   0  0  0  0  0  0  0  0  0  0  0  0
   35.7680   30.8680   32.3340 C   0  0  0  0  0  0  0  0  0  0  0  0
   36.3910   30.3470   31.1930 C   0  0  0  0  0  0  0  0  0  0  0  0
   36.9470   29.0910   31.2210 C   0  0  0  0  0  0  0  0  0  0  0  0
   36.8940   28.3390   32.3660 C   0  0  0  0  0  0  0  0  0  0  0  0
   35.3070   31.8540   32.3820 H   0  0  0  0  0  0  0  0  0  0  0  0
   36.3890   31.0030   30.3380 H   0  0  0  0  0  0  0  0  0  0  0  0
   37.4120   28.7550   30.3040 H   0  0  0  0  0  0  0  0  0  0  0  0
   33.7010   30.4460   34.9210 C   0  0  0  0  0  0  0  0  0  0  0  0
   35.0610   30.6520   34.6900 C   0  0  0  0  0  0  0  0  0  0  0  0
   35.7690   31.3850   35.6570 C   0  0  0  0  0  0  0  0  0  0  0  0
   35.1050   31.8480   36.7480 N   0  0  0  0  0  0  0  0  0  0  0  0
   33.7800   31.6180   36.9230 C   0  0  0  0  0  0  0  0  0  0  0  0
   33.0720   30.9130   36.0060 N   0  0  0  0  0  0  0  0  0  0  0  0
   33.1740   29.8790   34.1660 H   0  0  0  0  0  0  0  0  0  0  0  0
   36.8300   31.5520   35.4880 H   0  0  0  0  0  0  0  0  0  0  0  0
   33.2440   31.9780   37.7800 H   0  0  0  0  0  0  0  0  0  0  0  0
   36.2540   28.0600   34.6090 O   0  0  0  0  0  0  0  0  0  0  0  0
   37.0700   28.1550   35.2000 H   0  0  0  0  0  0  0  0  0  0  0  0
   37.4650   27.0690   32.3700 O   0  0  0  0  0  0  0  0  0  0  0  0
   38.7370   24.4170   33.1080 Cl  0  0  0  0  0  0  0  0  0  0  0  0
   37.2260   24.6020   32.2470 C   0  0  0  0  0  0  0  0  0  0  0  0
   36.8240   25.9120   32.0110 C   0  0  0  0  0  0  0  0  0  0  0  0
   35.6340   26.0690   31.3340 C   0  0  0  0  0  0  0  0  0  0  0  0
   34.8440   25.0480   30.8900 C   0  0  0  0  0  0  0  0  0  0  0  0
   35.2560   23.7430   31.1300 C   0  0  0  0  0  0  0  0  0  0  0  0
   36.4510   23.5390   31.8120 C   0  0  0  0  0  0  0  0  0  0  0  0
   35.2340   27.0650   31.1010 H   0  0  0  0  0  0  0  0  0  0  0  0
   33.9090   25.2060   30.3570 H   0  0  0  0  0  0  0  0  0  0  0  0
   34.7010   22.8820   30.8190 H   0  0  0  0  0  0  0  0  0  0  0  0
   36.9190   22.2140   32.0850 N   0  0  0  0  0  0  0  0  0  0  0  0
   36.6800   21.4400   33.3030 C   0  0  0  0  0  3  0  0  0  0  0  0
   37.6650   21.0710   33.6410 H   0  0  0  0  0  0  0  0  0  0  0  0
   35.8920   20.2160   32.8200 C   0  0  0  0  0  3  0  0  0  0  0  0
   35.4200   19.6610   33.6360 H   0  0  0  0  0  0  0  0  0  0  0  0
   36.8670   19.3940   32.1180 N   0  0  0  0  0  0  0  0  0  0  0  0
   37.6020   19.0760   32.7770 H   0  0  0  0  0  0  0  0  0  0  0  0
   37.3490   20.0580   30.9400 C   0  0  0  0  0  2  0  0  0  0  0  0
   37.7140   21.4870   31.1220 C   0  0  0  0  0  2  0  0  0  0  0  0
  1  2  1  0  0  0  0
  1 19  1  0  0  0  0
  2 11  1  0  0  0  0
  3  7  1  0  0  0  0
  3  2  2  0  0  0  0
  4  5  2  0  0  0  0
  4  3  1  0  0  0  0
  5  6  1  0  0  0  0
  6 21  1  0  0  0  0
  6  1  2  0  0  0  0
  8  4  1  0  0  0  0
  9  5  1  0  0  0  0
 10 15  1  0  0  0  0
 11 10  2  0  0  0  0
 11 12  1  0  0  0  0
 12 13  2  0  0  0  0
 13 14  1  0  0  0  0
 14 18  1  0  0  0  0
 15 14  2  0  0  0  0
 16 10  1  0  0  0  0
 17 12  1  0  0  0  0
 19 20  1  0  0  0  0
 23 22  1  0  0  0  0
 24 23  1  0  0  0  0
 24 21  1  0  0  0  0
 25 24  2  0  0  0  0
 26 27  2  0  0  0  0
 26 25  1  0  0  0  0
 27 28  1  0  0  0  0
 28 32  1  0  0  0  0
 28 23  2  0  0  0  0
 29 25  1  0  0  0  0
 30 26  1  0  0  0  0
 31 27  1  0  0  0  0
 32 33  1  0  0  0  0
 33 34  1  0  0  0  0
 35 33  1  0  0  0  0
 35 36  1  0  0  0  0
 37 38  1  0  0  0  0
 37 35  1  0  0  0  0
 39 40  1  0  0  0  0
 39 37  1  0  0  0  0
 40 32  1  0  0  0  0
M  END
>  <minimizedAffinity>
-6.05831337

$$$$

 OpenBabel03272501233D

 40 43  0  0  0  0  0  0  0  0999 V2000
   36.8100   28.0070   32.5190 C   0  0  0  0  0  0  0  0  0  0  0  0
   36.1190   29.2040   32.3910 C   0  0  0  0  0  0  0  0  0  0  0  0
   36.4680   29.9550   31.2650 C   0  0  0  0  0  0  0  0  0  0  0  0
   37.4380   29.5070   30.3610 C   0  0  0  0  0  0  0  0  0  0  0  0
   38.0730   28.3060   30.5650 C   0  0  0  0  0  0  0  0  0  0  0  0
   37.7610   27.5380   31.6570 C   0  0  0  0  0  0  0  0  0  0  0  0
   35.9260   30.8950   31.1650 H   0  0  0  0  0  0  0  0  0  0  0  0
   37.6230   30.1700   29.5320 H   0  0  0  0  0  0  0  0  0  0  0  0
   38.8110   28.0250   29.8250 H   0  0  0  0  0  0  0  0  0  0  0  0
   33.7830   29.3620   33.1240 C   0  0  0  0  0  0  0  0  0  0  0  0
   35.1340   29.6460   33.3210 C   0  0  0  0  0  0  0  0  0  0  0  0
   35.4720   30.3820   34.4690 C   0  0  0  0  0  0  0  0  0  0  0  0
   34.4820   30.7720   35.3150 N   0  0  0  0  0  0  0  0  0  0  0  0
   33.1830   30.4670   35.0740 C   0  0  0  0  0  0  0  0  0  0  0  0
   32.8290   29.7580   33.9740 N   0  0  0  0  0  0  0  0  0  0  0  0
   33.5450   28.7940   32.2360 H   0  0  0  0  0  0  0  0  0  0  0  0
   36.5220   30.6100   34.6340 H   0  0  0  0  0  0  0  0  0  0  0  0
   32.3910   30.7690   35.7330 H   0  0  0  0  0  0  0  0  0  0  0  0
   36.5300   27.1740   33.6240 O   0  0  0  0  0  0  0  0  0  0  0  0
   37.1280   27.3350   34.4240 H   0  0  0  0  0  0  0  0  0  0  0  0
   38.4180   26.3250   31.8440 O   0  0  0  0  0  0  0  0  0  0  0  0
   37.8780   23.7720   33.3880 Cl  0  0  0  0  0  0  0  0  0  0  0  0
   39.1580   24.9100   33.7440 C   0  0  0  0  0  0  0  0  0  0  0  0
   39.2270   26.0190   32.9080 C   0  0  0  0  0  0  0  0  0  0  0  0
   40.2310   26.9220   33.1790 C   0  0  0  0  0  0  0  0  0  0  0  0
   41.1400   26.8030   34.1910 C   0  0  0  0  0  0  0  0  0  0  0  0
   41.0610   25.6910   35.0210 C   0  0  0  0  0  0  0  0  0  0  0  0
   40.0620   24.7540   34.7810 C   0  0  0  0  0  0  0  0  0  0  0  0
   40.3660   27.8290   32.5740 H   0  0  0  0  0  0  0  0  0  0  0  0
   41.9220   27.5350   34.3790 H   0  0  0  0  0  0  0  0  0  0  0  0
   41.7310   25.5160   35.8380 H   0  0  0  0  0  0  0  0  0  0  0  0
   39.9390   23.5910   35.6080 N   0  0  0  0  0  0  0  0  0  0  0  0
   40.6730   22.3350   35.4580 C   0  0  0  0  0  3  0  0  0  0  0  0
   39.9210   21.5260   35.4680 H   0  0  0  0  0  0  0  0  0  0  0  0
   41.4730   22.2120   36.7610 C   0  0  0  0  0  3  0  0  0  0  0  0
   42.2630   21.4570   36.7100 H   0  0  0  0  0  0  0  0  0  0  0  0
   40.4860   21.8730   37.7770 N   0  0  0  0  0  0  0  0  0  0  0  0
   40.0580   20.9530   37.5620 H   0  0  0  0  0  0  0  0  0  0  0  0
   39.5560   22.9490   37.9710 C   0  0  0  0  0  2  0  0  0  0  0  0
   39.0240   23.5600   36.7250 C   0  0  0  0  0  2  0  0  0  0  0  0
  1 19  1  0  0  0  0
  2  1  1  0  0  0  0
  2 11  1  0  0  0  0
  3  2  2  0  0  0  0
  4  5  2  0  0  0  0
  4  3  1  0  0  0  0
  5  6  1  0  0  0  0
  6 21  1  0  0  0  0
  6  1  2  0  0  0  0
  7  3  1  0  0  0  0
  8  4  1  0  0  0  0
  9  5  1  0  0  0  0
 10 11  2  0  0  0  0
 10 15  1  0  0  0  0
 11 12  1  0  0  0  0
 12 17  1  0  0  0  0
 12 13  2  0  0  0  0
 14 13  1  0  0  0  0
 14 18  1  0  0  0  0
 15 14  2  0  0  0  0
 16 10  1  0  0  0  0
 19 20  1  0  0  0  0
 21 24  1  0  0  0  0
 22 23  1  0  0  0  0
 23 28  1  0  0  0  0
 24 25  1  0  0  0  0
 24 23  2  0  0  0  0
 25 26  2  0  0  0  0
 26 30  1  0  0  0  0
 26 27  1  0  0  0  0
 27 31  1  0  0  0  0
 28 27  2  0  0  0  0
 28 32  1  0  0  0  0
 29 25  1  0  0  0  0
 32 40  1  0  0  0  0
 33 34  1  0  0  0  0
 33 32  1  0  0  0  0
 33 35  1  0  0  0  0
 35 37  1  0  0  0  0
 36 35  1  0  0  0  0
 37 39  1  0  0  0  0
 38 37  1  0  0  0  0
 40 39  1  0  0  0  0
M  END
>  <minimizedAffinity>
-6.04079199

$$$$

 OpenBabel03272501233D

 40 43  0  0  0  0  0  0  0  0999 V2000
   36.3560   27.6550   32.3160 C   0  0  0  0  0  0  0  0  0  0  0  0
   35.7030   28.6200   33.0710 C   0  0  0  0  0  0  0  0  0  0  0  0
   36.1120   28.6830   34.4060 C   0  0  0  0  0  0  0  0  0  0  0  0
   37.1020   27.8290   34.9080 C   0  0  0  0  0  0  0  0  0  0  0  0
   37.6970   26.9020   34.0870 C   0  0  0  0  0  0  0  0  0  0  0  0
   37.3260   26.8070   32.7700 C   0  0  0  0  0  0  0  0  0  0  0  0
   35.5990   29.4390   34.9990 H   0  0  0  0  0  0  0  0  0  0  0  0
   37.3330   27.9700   35.9500 H   0  0  0  0  0  0  0  0  0  0  0  0
   38.4530   26.2770   34.5440 H   0  0  0  0  0  0  0  0  0  0  0  0
   33.3560   29.3100   32.8880 C   0  0  0  0  0  0  0  0  0  0  0  0
   34.6970   29.4810   32.5460 C   0  0  0  0  0  0  0  0  0  0  0  0
   35.0030   30.5340   31.6680 C   0  0  0  0  0  0  0  0  0  0  0  0
   33.9940   31.3180   31.2040 N   0  0  0  0  0  0  0  0  0  0  0  0
   32.7060   31.1060   31.5700 C   0  0  0  0  0  0  0  0  0  0  0  0
   32.3820   30.0970   32.4170 N   0  0  0  0  0  0  0  0  0  0  0  0
   33.1420   28.4950   33.5650 H   0  0  0  0  0  0  0  0  0  0  0  0
   36.0450   30.6780   31.3940 H   0  0  0  0  0  0  0  0  0  0  0  0
   31.9000   31.7170   31.2120 H   0  0  0  0  0  0  0  0  0  0  0  0
   36.0150   27.5120   30.9540 O   0  0  0  0  0  0  0  0  0  0  0  0
   35.2930   26.8250   30.7800 H   0  0  0  0  0  0  0  0  0  0  0  0
   37.9430   25.8590   31.9590 O   0  0  0  0  0  0  0  0  0  0  0  0
   35.5710   24.0830   31.3140 Cl  0  0  0  0  0  0  0  0  0  0  0  0
   37.0730   23.5350   32.0210 C   0  0  0  0  0  0  0  0  0  0  0  0
   38.0320   24.5190   32.2340 C   0  0  0  0  0  0  0  0  0  0  0  0
   39.2200   24.0980   32.7910 C   0  0  0  0  0  0  0  0  0  0  0  0
   39.5100   22.8100   33.1380 C   0  0  0  0  0  0  0  0  0  0  0  0
   38.5440   21.8350   32.9210 C   0  0  0  0  0  0  0  0  0  0  0  0
   37.3300   22.2170   32.3600 C   0  0  0  0  0  0  0  0  0  0  0  0
   40.0380   24.8020   32.9970 H   0  0  0  0  0  0  0  0  0  0  0  0
   40.4600   22.5100   33.5760 H   0  0  0  0  0  0  0  0  0  0  0  0
   38.6840   20.8010   33.1620 H   0  0  0  0  0  0  0  0  0  0  0  0
   36.3030   21.2510   32.1160 N   0  0  0  0  0  0  0  0  0  0  0  0
   35.8620   20.7590   30.8100 C   0  0  0  0  0  3  0  0  0  0  0  0
   34.7620   20.8560   30.7920 H   0  0  0  0  0  0  0  0  0  0  0  0
   36.1730   19.2580   30.8510 C   0  0  0  0  0  3  0  0  0  0  0  0
   36.1340   18.7850   29.8650 H   0  0  0  0  0  0  0  0  0  0  0  0
   35.1750   18.6910   31.7470 N   0  0  0  0  0  0  0  0  0  0  0  0
   34.2270   18.8230   31.3490 H   0  0  0  0  0  0  0  0  0  0  0  0
   35.3490   19.1790   33.0860 C   0  0  0  0  0  2  0  0  0  0  0  0
   35.5720   20.6430   33.2040 C   0  0  0  0  0  2  0  0  0  0  0  0
  1  6  2  0  0  0  0
  1  2  1  0  0  0  0
  2  3  2  0  0  0  0
  3  4  1  0  0  0  0
  3  7  1  0  0  0  0
  4  8  1  0  0  0  0
  5  9  1  0  0  0  0
  5  4  2  0  0  0  0
  6  5  1  0  0  0  0
 10 16  1  0  0  0  0
 11 10  1  0  0  0  0
 11  2  1  0  0  0  0
 12 11  2  0  0  0  0
 13 14  2  0  0  0  0
 13 12  1  0  0  0  0
 14 15  1  0  0  0  0
 15 10  2  0  0  0  0
 17 12  1  0  0  0  0
 18 14  1  0  0  0  0
 19  1  1  0  0  0  0
 20 19  1  0  0  0  0
 21 24  1  0  0  0  0
 21  6  1  0  0  0  0
 22 23  1  0  0  0  0
 23 24  2  0  0  0  0
 23 28  1  0  0  0  0
 24 25  1  0  0  0  0
 25 29  1  0  0  0  0
 25 26  2  0  0  0  0
 26 30  1  0  0  0  0
 27 26  1  0  0  0  0
 27 31  1  0  0  0  0
 28 27  2  0  0  0  0
 32 28  1  0  0  0  0
 32 40  1  0  0  0  0
 33 35  1  0  0  0  0
 33 32  1  0  0  0  0
 34 33  1  0  0  0  0
 35 37  1  0  0  0  0
 36 35  1  0  0  0  0
 37 39  1  0  0  0  0
 38 37  1  0  0  0  0
 39 40  1  0  0  0  0
M  END
>  <minimizedAffinity>
-5.84493065

$$$$

 OpenBabel03272501233D

 40 43  0  0  0  0  0  0  0  0999 V2000
   37.7590   28.2550   30.7260 C   0  0  0  0  0  0  0  0  0  0  0  0
   38.5090   28.6930   29.6430 C   0  0  0  0  0  0  0  0  0  0  0  0
   39.3460   27.7210   29.0880 C   0  0  0  0  0  0  0  0  0  0  0  0
   39.3990   26.4210   29.6060 C   0  0  0  0  0  0  0  0  0  0  0  0
   38.6200   26.0730   30.6830 C   0  0  0  0  0  0  0  0  0  0  0  0
   37.7850   26.9960   31.2570 C   0  0  0  0  0  0  0  0  0  0  0  0
   39.9350   28.0650   28.2380 H   0  0  0  0  0  0  0  0  0  0  0  0
   40.0800   25.7600   29.0970 H   0  0  0  0  0  0  0  0  0  0  0  0
   38.7140   25.0520   31.0290 H   0  0  0  0  0  0  0  0  0  0  0  0
   37.2210   30.5980   28.7870 C   0  0  0  0  0  0  0  0  0  0  0  0
   38.4440   30.0190   29.1270 C   0  0  0  0  0  0  0  0  0  0  0  0
   39.5950   30.8020   28.9380 C   0  0  0  0  0  0  0  0  0  0  0  0
   39.4600   32.0600   28.4420 N   0  0  0  0  0  0  0  0  0  0  0  0
   38.2450   32.5730   28.1280 C   0  0  0  0  0  0  0  0  0  0  0  0
   37.1180   31.8400   28.3010 N   0  0  0  0  0  0  0  0  0  0  0  0
   36.3480   29.9790   28.9410 H   0  0  0  0  0  0  0  0  0  0  0  0
   40.5550   30.3630   29.1990 H   0  0  0  0  0  0  0  0  0  0  0  0
   38.1250   33.5650   27.7360 H   0  0  0  0  0  0  0  0  0  0  0  0
   36.8820   29.1620   31.3570 O   0  0  0  0  0  0  0  0  0  0  0  0
   37.2920   29.6560   32.1390 H   0  0  0  0  0  0  0  0  0  0  0  0
   37.0060   26.6200   32.3480 O   0  0  0  0  0  0  0  0  0  0  0  0
   37.6370   23.8300   33.3550 Cl  0  0  0  0  0  0  0  0  0  0  0  0
   37.8070   25.2980   34.2900 C   0  0  0  0  0  0  0  0  0  0  0  0
   37.4610   26.4740   33.6330 C   0  0  0  0  0  0  0  0  0  0  0  0
   37.5920   27.6360   34.3600 C   0  0  0  0  0  0  0  0  0  0  0  0
   38.0270   27.7080   35.6530 C   0  0  0  0  0  0  0  0  0  0  0  0
   38.3700   26.5270   36.3000 C   0  0  0  0  0  0  0  0  0  0  0  0
   38.2530   25.3300   35.6010 C   0  0  0  0  0  0  0  0  0  0  0  0
   37.3430   28.6150   33.9280 H   0  0  0  0  0  0  0  0  0  0  0  0
   38.1190   28.6440   36.2000 H   0  0  0  0  0  0  0  0  0  0  0  0
   38.7190   26.4880   37.3110 H   0  0  0  0  0  0  0  0  0  0  0  0
   38.5930   24.0870   36.2230 N   0  0  0  0  0  0  0  0  0  0  0  0
   39.6290   23.1500   35.7860 C   0  0  0  0  0  3  0  0  0  0  0  0
   39.1520   22.1540   35.7320 H   0  0  0  0  0  0  0  0  0  0  0  0
   40.6120   23.1050   36.9620 C   0  0  0  0  0  3  0  0  0  0  0  0
   41.5700   22.6440   36.7030 H   0  0  0  0  0  0  0  0  0  0  0  0
   39.9260   22.3450   37.9980 N   0  0  0  0  0  0  0  0  0  0  0  0
   39.7550   21.3760   37.6720 H   0  0  0  0  0  0  0  0  0  0  0  0
   38.7640   23.0470   38.4660 C   0  0  0  0  0  2  0  0  0  0  0  0
   37.9010   23.6250   37.4040 C   0  0  0  0  0  2  0  0  0  0  0  0
  1  6  1  0  0  0  0
  1 19  1  0  0  0  0
  2  1  2  0  0  0  0
  3  4  2  0  0  0  0
  3  2  1  0  0  0  0
  4  5  1  0  0  0  0
  5  9  1  0  0  0  0
  5  6  2  0  0  0  0
  6 21  1  0  0  0  0
  7  3  1  0  0  0  0
  8  4  1  0  0  0  0
 10 16  1  0  0  0  0
 10 11  1  0  0  0  0
 11  2  1  0  0  0  0
 12 11  2  0  0  0  0
 12 17  1  0  0  0  0
 13 12  1  0  0  0  0
 14 15  1  0  0  0  0
 14 13  2  0  0  0  0
 15 10  2  0  0  0  0
 18 14  1  0  0  0  0
 19 20  1  0  0  0  0
 21 24  1  0  0  0  0
 22 23  1  0  0  0  0
 23 28  1  0  0  0  0
 24 23  2  0  0  0  0
 24 25  1  0  0  0  0
 25 26  2  0  0  0  0
 26 30  1  0  0  0  0
 26 27  1  0  0  0  0
 27 31  1  0  0  0  0
 28 32  1  0  0  0  0
 28 27  2  0  0  0  0
 29 25  1  0  0  0  0
 32 40  1  0  0  0  0
 33 32  1  0  0  0  0
 33 35  1  0  0  0  0
 34 33  1  0  0  0  0
 35 37  1  0  0  0  0
 36 35  1  0  0  0  0
 37 39  1  0  0  0  0
 38 37  1  0  0  0  0
 40 39  1  0  0  0  0
M  END
>  <minimizedAffinity>
-5.67921209

$$$$

 OpenBabel03272501233D

 40 43  0  0  0  0  0  0  0  0999 V2000
   37.9750   28.6360   30.7150 C   0  0  0  0  0  0  0  0  0  0  0  0
   37.1190   29.7050   30.4920 C   0  0  0  0  0  0  0  0  0  0  0  0
   35.9290   29.6550   31.2210 C   0  0  0  0  0  0  0  0  0  0  0  0
   35.6530   28.5980   32.0980 C   0  0  0  0  0  0  0  0  0  0  0  0
   36.5610   27.5790   32.2590 C   0  0  0  0  0  0  0  0  0  0  0  0
   37.7410   27.5900   31.5620 C   0  0  0  0  0  0  0  0  0  0  0  0
   35.2560   30.4940   31.0450 H   0  0  0  0  0  0  0  0  0  0  0  0
   34.7050   28.6670   32.6040 H   0  0  0  0  0  0  0  0  0  0  0  0
   36.2800   26.7970   32.9520 H   0  0  0  0  0  0  0  0  0  0  0  0
   37.7070   32.0500   30.0730 C   0  0  0  0  0  0  0  0  0  0  0  0
   37.4130   30.7740   29.5960 C   0  0  0  0  0  0  0  0  0  0  0  0
   37.4220   30.5950   28.2020 C   0  0  0  0  0  0  0  0  0  0  0  0
   37.7110   31.6580   27.4050 N   0  0  0  0  0  0  0  0  0  0  0  0
   37.9910   32.8780   27.9240 C   0  0  0  0  0  0  0  0  0  0  0  0
   37.9890   33.0780   29.2660 N   0  0  0  0  0  0  0  0  0  0  0  0
   37.6960   32.1660   31.1480 H   0  0  0  0  0  0  0  0  0  0  0  0
   37.1940   29.6040   27.8170 H   0  0  0  0  0  0  0  0  0  0  0  0
   38.2200   33.7250   27.3060 H   0  0  0  0  0  0  0  0  0  0  0  0
   39.2060   28.5940   30.0260 O   0  0  0  0  0  0  0  0  0  0  0  0
   39.1730   28.0830   29.1530 H   0  0  0  0  0  0  0  0  0  0  0  0
   38.6440   26.5460   31.7410 O   0  0  0  0  0  0  0  0  0  0  0  0
   39.5580   26.7060   34.6280 Cl  0  0  0  0  0  0  0  0  0  0  0  0
   38.7850   25.3190   33.8950 C   0  0  0  0  0  0  0  0  0  0  0  0
   38.4460   25.4590   32.5530 C   0  0  0  0  0  0  0  0  0  0  0  0
   37.8360   24.3720   31.9660 C   0  0  0  0  0  0  0  0  0  0  0  0
   37.5490   23.1970   32.5980 C   0  0  0  0  0  0  0  0  0  0  0  0
   37.8920   23.0680   33.9390 C   0  0  0  0  0  0  0  0  0  0  0  0
   38.5100   24.1420   34.5710 C   0  0  0  0  0  0  0  0  0  0  0  0
   37.5310   24.3870   30.9100 H   0  0  0  0  0  0  0  0  0  0  0  0
   37.0650   22.3560   32.1040 H   0  0  0  0  0  0  0  0  0  0  0  0
   37.7060   22.1840   34.5130 H   0  0  0  0  0  0  0  0  0  0  0  0
   38.8830   24.0600   35.9500 N   0  0  0  0  0  0  0  0  0  0  0  0
   38.1060   24.5410   37.0930 C   0  0  0  0  0  3  0  0  0  0  0  0
   38.7890   25.1620   37.7000 H   0  0  0  0  0  0  0  0  0  0  0  0
   37.8160   23.2750   37.9080 C   0  0  0  0  0  3  0  0  0  0  0  0
   37.0370   23.4190   38.6630 H   0  0  0  0  0  0  0  0  0  0  0  0
   39.0880   22.9260   38.5260 N   0  0  0  0  0  0  0  0  0  0  0  0
   39.3840   23.6780   39.1750 H   0  0  0  0  0  0  0  0  0  0  0  0
   40.0580   22.5580   37.5330 C   0  0  0  0  0  2  0  0  0  0  0  0
   40.1330   23.4580   36.3540 C   0  0  0  0  0  2  0  0  0  0  0  0
  1  6  1  0  0  0  0
  2  1  2  0  0  0  0
  2  3  1  0  0  0  0
  3  4  2  0  0  0  0
  4  5  1  0  0  0  0
  4  8  1  0  0  0  0
  5  9  1  0  0  0  0
  6 21  1  0  0  0  0
  6  5  2  0  0  0  0
  7  3  1  0  0  0  0
 10 16  1  0  0  0  0
 11 10  1  0  0  0  0
 11  2  1  0  0  0  0
 12 11  2  0  0  0  0
 13 14  2  0  0  0  0
 13 12  1  0  0  0  0
 14 15  1  0  0  0  0
 15 10  2  0  0  0  0
 17 12  1  0  0  0  0
 18 14  1  0  0  0  0
 19  1  1  0  0  0  0
 20 19  1  0  0  0  0
 21 24  1  0  0  0  0
 23 28  1  0  0  0  0
 23 22  1  0  0  0  0
 24 23  2  0  0  0  0
 25 24  1  0  0  0  0
 25 26  2  0  0  0  0
 26 27  1  0  0  0  0
 27 31  1  0  0  0  0
 27 28  2  0  0  0  0
 28 32  1  0  0  0  0
 29 25  1  0  0  0  0
 30 26  1  0  0  0  0
 32 40  1  0  0  0  0
 32 33  1  0  0  0  0
 33 34  1  0  0  0  0
 33 35  1  0  0  0  0
 35 37  1  0  0  0  0
 35 36  1  0  0  0  0
 37 38  1  0  0  0  0
 39 37  1  0  0  0  0
 40 39  1  0  0  0  0
M  END
>  <minimizedAffinity>
-5.63018274

$$$$

 OpenBabel03272501233D

 40 43  0  0  0  0  0  0  0  0999 V2000
   36.2290   25.7040   31.6630 C   0  0  0  0  0  0  0  0  0  0  0  0
   36.9230   24.6200   32.1840 C   0  0  0  0  0  0  0  0  0  0  0  0
   37.7670   24.9330   33.2520 C   0  0  0  0  0  0  0  0  0  0  0  0
   37.8810   26.2430   33.7340 C   0  0  0  0  0  0  0  0  0  0  0  0
   37.1550   27.2580   33.1580 C   0  0  0  0  0  0  0  0  0  0  0  0
   36.3140   26.9940   32.1070 C   0  0  0  0  0  0  0  0  0  0  0  0
   38.3120   24.0820   33.6600 H   0  0  0  0  0  0  0  0  0  0  0  0
   38.5620   26.3630   34.5600 H   0  0  0  0  0  0  0  0  0  0  0  0
   37.2940   28.2430   33.5820 H   0  0  0  0  0  0  0  0  0  0  0  0
   37.8470   22.6810   30.9980 C   0  0  0  0  0  0  0  0  0  0  0  0
   36.7970   23.2930   31.6820 C   0  0  0  0  0  0  0  0  0  0  0  0
   35.6210   22.5420   31.8500 C   0  0  0  0  0  0  0  0  0  0  0  0
   35.5690   21.2810   31.3460 N   0  0  0  0  0  0  0  0  0  0  0  0
   36.6220   20.7350   30.6890 C   0  0  0  0  0  0  0  0  0  0  0  0
   37.7690   21.4370   30.5130 N   0  0  0  0  0  0  0  0  0  0  0  0
   38.7430   23.2750   30.8810 H   0  0  0  0  0  0  0  0  0  0  0  0
   34.7950   23.0070   32.3810 H   0  0  0  0  0  0  0  0  0  0  0  0
   36.5930   19.7410   30.2860 H   0  0  0  0  0  0  0  0  0  0  0  0
   35.3490   25.4930   30.5810 O   0  0  0  0  0  0  0  0  0  0  0  0
   35.7730   25.6260   29.6720 H   0  0  0  0  0  0  0  0  0  0  0  0
   35.5900   28.0380   31.5400 O   0  0  0  0  0  0  0  0  0  0  0  0
   34.4940   29.3200   34.0600 Cl  0  0  0  0  0  0  0  0  0  0  0  0
   35.4190   30.1520   32.8310 C   0  0  0  0  0  0  0  0  0  0  0  0
   35.8250   29.3720   31.7530 C   0  0  0  0  0  0  0  0  0  0  0  0
   36.5540   30.0170   30.7790 C   0  0  0  0  0  0  0  0  0  0  0  0
   36.8960   31.3390   30.8000 C   0  0  0  0  0  0  0  0  0  0  0  0
   36.4840   32.1090   31.8820 C   0  0  0  0  0  0  0  0  0  0  0  0
   35.7460   31.4960   32.8890 C   0  0  0  0  0  0  0  0  0  0  0  0
   36.9200   29.4860   29.8890 H   0  0  0  0  0  0  0  0  0  0  0  0
   37.4730   31.8190   30.0130 H   0  0  0  0  0  0  0  0  0  0  0  0
   36.7050   33.1510   31.9820 H   0  0  0  0  0  0  0  0  0  0  0  0
   35.2980   32.2450   34.0240 N   0  0  0  0  0  0  0  0  0  0  0  0
   34.1020   33.0850   34.0950 C   0  0  0  0  0  3  0  0  0  0  0  0
   34.4270   34.0630   34.4960 H   0  0  0  0  0  0  0  0  0  0  0  0
   33.2450   32.4240   35.1820 C   0  0  0  0  0  3  0  0  0  0  0  0
   32.2110   32.7810   35.1880 H   0  0  0  0  0  0  0  0  0  0  0  0
   33.9180   32.7380   36.4350 N   0  0  0  0  0  0  0  0  0  0  0  0
   33.9180   33.7630   36.5900 H   0  0  0  0  0  0  0  0  0  0  0  0
   35.2080   32.1110   36.4970 C   0  0  0  0  0  2  0  0  0  0  0  0
   36.0330   32.2330   35.2670 C   0  0  0  0  0  2  0  0  0  0  0  0
  1  6  2  0  0  0  0
  1  2  1  0  0  0  0
  2  3  2  0  0  0  0
  3  7  1  0  0  0  0
  3  4  1  0  0  0  0
  4  8  1  0  0  0  0
  5  9  1  0  0  0  0
  5  4  2  0  0  0  0
  6  5  1  0  0  0  0
 10 11  1  0  0  0  0
 11 12  2  0  0  0  0
 11  2  1  0  0  0  0
 12 17  1  0  0  0  0
 13 12  1  0  0  0  0
 14 13  2  0  0  0  0
 15 14  1  0  0  0  0
 15 10  2  0  0  0  0
 16 10  1  0  0  0  0
 18 14  1  0  0  0  0
 19  1  1  0  0  0  0
 20 19  1  0  0  0  0
 21 24  1  0  0  0  0
 21  6  1  0  0  0  0
 23 28  1  0  0  0  0
 23 22  1  0  0  0  0
 24 23  2  0  0  0  0
 25 26  2  0  0  0  0
 25 24  1  0  0  0  0
 26 27  1  0  0  0  0
 27 31  1  0  0  0  0
 27 28  2  0  0  0  0
 28 32  1  0  0  0  0
 29 25  1  0  0  0  0
 30 26  1  0  0  0  0
 32 33  1  0  0  0  0
 32 40  1  0  0  0  0
 33 34  1  0  0  0  0
 33 35  1  0  0  0  0
 35 36  1  0  0  0  0
 35 37  1  0  0  0  0
 37 39  1  0  0  0  0
 37 38  1  0  0  0  0
 40 39  1  0  0  0  0
M  END
>  <minimizedAffinity>
-5.62154484

$$$$

 OpenBabel03272501233D

 40 43  0  0  0  0  0  0  0  0999 V2000
   38.7200   25.8100   33.6270 C   0  0  0  0  0  0  0  0  0  0  0  0
   39.5130   25.6520   34.7550 C   0  0  0  0  0  0  0  0  0  0  0  0
   40.7120   26.3680   34.7240 C   0  0  0  0  0  0  0  0  0  0  0  0
   41.0550   27.1700   33.6300 C   0  0  0  0  0  0  0  0  0  0  0  0
   40.2090   27.2700   32.5520 C   0  0  0  0  0  0  0  0  0  0  0  0
   39.0220   26.5840   32.5420 C   0  0  0  0  0  0  0  0  0  0  0  0
   41.3350   26.2430   35.6100 H   0  0  0  0  0  0  0  0  0  0  0  0
   42.0040   27.6740   33.7180 H   0  0  0  0  0  0  0  0  0  0  0  0
   40.5400   27.9080   31.7430 H   0  0  0  0  0  0  0  0  0  0  0  0
   39.7430   23.5840   36.0550 C   0  0  0  0  0  0  0  0  0  0  0  0
   39.1490   24.8310   35.8620 C   0  0  0  0  0  0  0  0  0  0  0  0
   38.1860   25.2330   36.8030 C   0  0  0  0  0  0  0  0  0  0  0  0
   37.8880   24.4000   37.8340 N   0  0  0  0  0  0  0  0  0  0  0  0
   38.4960   23.1970   37.9740 C   0  0  0  0  0  0  0  0  0  0  0  0
   39.4290   22.7840   37.0810 N   0  0  0  0  0  0  0  0  0  0  0  0
   40.4810   23.2940   35.3210 H   0  0  0  0  0  0  0  0  0  0  0  0
   37.7160   26.2030   36.6630 H   0  0  0  0  0  0  0  0  0  0  0  0
   38.2700   22.5300   38.7840 H   0  0  0  0  0  0  0  0  0  0  0  0
   37.4860   25.1280   33.5610 O   0  0  0  0  0  0  0  0  0  0  0  0
   37.5390   24.2240   33.1110 H   0  0  0  0  0  0  0  0  0  0  0  0
   38.1810   26.7000   31.4390 O   0  0  0  0  0  0  0  0  0  0  0  0
   36.3510   28.4630   33.0940 Cl  0  0  0  0  0  0  0  0  0  0  0  0
   36.9070   28.8310   31.4770 C   0  0  0  0  0  0  0  0  0  0  0  0
   37.7430   27.8820   30.8980 C   0  0  0  0  0  0  0  0  0  0  0  0
   38.1870   28.1610   29.6250 C   0  0  0  0  0  0  0  0  0  0  0  0
   37.8680   29.2810   28.9110 C   0  0  0  0  0  0  0  0  0  0  0  0
   37.0320   30.2220   29.4990 C   0  0  0  0  0  0  0  0  0  0  0  0
   36.5610   29.9790   30.7850 C   0  0  0  0  0  0  0  0  0  0  0  0
   38.8510   27.4730   29.0840 H   0  0  0  0  0  0  0  0  0  0  0  0
   38.2360   29.4720   27.9050 H   0  0  0  0  0  0  0  0  0  0  0  0
   36.7290   31.1280   29.0150 H   0  0  0  0  0  0  0  0  0  0  0  0
   35.6970   30.9170   31.4350 N   0  0  0  0  0  0  0  0  0  0  0  0
   34.2400   30.9830   31.3200 C   0  0  0  0  0  3  0  0  0  0  0  0
   33.9900   32.0320   31.0770 H   0  0  0  0  0  0  0  0  0  0  0  0
   33.7400   30.7300   32.7480 C   0  0  0  0  0  3  0  0  0  0  0  0
   32.6720   30.5000   32.7940 H   0  0  0  0  0  0  0  0  0  0  0  0
   34.0480   31.9520   33.4770 N   0  0  0  0  0  0  0  0  0  0  0  0
   33.5160   32.7470   33.0760 H   0  0  0  0  0  0  0  0  0  0  0  0
   35.4670   32.1520   33.5720 C   0  0  0  0  0  2  0  0  0  0  0  0
   36.2230   31.9380   32.3110 C   0  0  0  0  0  2  0  0  0  0  0  0
  1  2  1  0  0  0  0
  2 11  1  0  0  0  0
  3  2  2  0  0  0  0
  3  7  1  0  0  0  0
  4  8  1  0  0  0  0
  4  3  1  0  0  0  0
  5  4  2  0  0  0  0
  6  5  1  0  0  0  0
  6  1  2  0  0  0  0
  9  5  1  0  0  0  0
 10 15  1  0  0  0  0
 11 10  2  0  0  0  0
 11 12  1  0  0  0  0
 12 13  2  0  0  0  0
 13 14  1  0  0  0  0
 14 18  1  0  0  0  0
 15 14  2  0  0  0  0
 16 10  1  0  0  0  0
 17 12  1  0  0  0  0
 19  1  1  0  0  0  0
 20 19  1  0  0  0  0
 21  6  1  0  0  0  0
 23 22  1  0  0  0  0
 24 21  1  0  0  0  0
 24 23  1  0  0  0  0
 25 24  2  0  0  0  0
 26 27  2  0  0  0  0
 26 25  1  0  0  0  0
 27 28  1  0  0  0  0
 28 32  1  0  0  0  0
 28 23  2  0  0  0  0
 29 25  1  0  0  0  0
 30 26  1  0  0  0  0
 31 27  1  0  0  0  0
 32 40  1  0  0  0  0
 33 32  1  0  0  0  0
 33 35  1  0  0  0  0
 34 33  1  0  0  0  0
 35 36  1  0  0  0  0
 35 37  1  0  0  0  0
 37 39  1  0  0  0  0
 38 37  1  0  0  0  0
 40 39  1  0  0  0  0
M  END
>  <minimizedAffinity>
-5.5854826

$$$$

 OpenBabel03272501233D

 40 43  0  0  0  0  0  0  0  0999 V2000
   39.4510   25.0800   33.9990 C   0  0  0  0  0  0  0  0  0  0  0  0
   40.5790   24.8810   34.7830 C   0  0  0  0  0  0  0  0  0  0  0  0
   41.5270   25.9040   34.7030 C   0  0  0  0  0  0  0  0  0  0  0  0
   41.3240   27.0260   33.8890 C   0  0  0  0  0  0  0  0  0  0  0  0
   40.1750   27.1420   33.1450 C   0  0  0  0  0  0  0  0  0  0  0  0
   39.2190   26.1600   33.1950 C   0  0  0  0  0  0  0  0  0  0  0  0
   42.4130   25.7480   35.3180 H   0  0  0  0  0  0  0  0  0  0  0  0
   42.1230   27.7480   33.9080 H   0  0  0  0  0  0  0  0  0  0  0  0
   40.0870   28.0350   32.5400 H   0  0  0  0  0  0  0  0  0  0  0  0
   41.7510   22.7890   35.3020 C   0  0  0  0  0  0  0  0  0  0  0  0
   40.7710   23.7340   35.6060 C   0  0  0  0  0  0  0  0  0  0  0  0
   39.9920   23.5010   36.7520 C   0  0  0  0  0  0  0  0  0  0  0  0
   40.2290   22.3860   37.4920 N   0  0  0  0  0  0  0  0  0  0  0  0
   41.1960   21.5000   37.1500 C   0  0  0  0  0  0  0  0  0  0  0  0
   41.9630   21.7000   36.0500 N   0  0  0  0  0  0  0  0  0  0  0  0
   42.3400   22.9870   34.4180 H   0  0  0  0  0  0  0  0  0  0  0  0
   39.2250   24.2300   36.9990 H   0  0  0  0  0  0  0  0  0  0  0  0
   41.3930   20.6150   37.7260 H   0  0  0  0  0  0  0  0  0  0  0  0
   38.4330   24.1030   34.0100 O   0  0  0  0  0  0  0  0  0  0  0  0
   38.5270   23.4020   33.2860 H   0  0  0  0  0  0  0  0  0  0  0  0
   38.0640   26.3000   32.4310 O   0  0  0  0  0  0  0  0  0  0  0  0
   36.7220   27.3220   34.9510 Cl  0  0  0  0  0  0  0  0  0  0  0  0
   36.6030   28.0710   33.3750 C   0  0  0  0  0  0  0  0  0  0  0  0
   37.2990   27.4350   32.3530 C   0  0  0  0  0  0  0  0  0  0  0  0
   37.2120   28.0170   31.1070 C   0  0  0  0  0  0  0  0  0  0  0  0
   36.5040   29.1480   30.8170 C   0  0  0  0  0  0  0  0  0  0  0  0
   35.8110   29.7740   31.8460 C   0  0  0  0  0  0  0  0  0  0  0  0
   35.8730   29.2200   33.1210 C   0  0  0  0  0  0  0  0  0  0  0  0
   37.7270   27.5880   30.2360 H   0  0  0  0  0  0  0  0  0  0  0  0
   36.4550   29.5820   29.8210 H   0  0  0  0  0  0  0  0  0  0  0  0
   35.2310   30.6630   31.7110 H   0  0  0  0  0  0  0  0  0  0  0  0
   35.1780   29.8280   34.2140 N   0  0  0  0  0  0  0  0  0  0  0  0
   35.7100   30.8340   35.1330 C   0  0  0  0  0  3  0  0  0  0  0  0
   35.5020   30.4700   36.1560 H   0  0  0  0  0  0  0  0  0  0  0  0
   34.8130   32.0570   34.9090 C   0  0  0  0  0  3  0  0  0  0  0  0
   35.2250   32.9760   35.3360 H   0  0  0  0  0  0  0  0  0  0  0  0
   33.5430   31.7120   35.5320 N   0  0  0  0  0  0  0  0  0  0  0  0
   33.6730   31.5790   36.5520 H   0  0  0  0  0  0  0  0  0  0  0  0
   32.9150   30.6160   34.8480 C   0  0  0  0  0  2  0  0  0  0  0  0
   33.8100   29.4770   34.5200 C   0  0  0  0  0  2  0  0  0  0  0  0
  1 19  1  0  0  0  0
  1  2  1  0  0  0  0
  2 11  1  0  0  0  0
  3  2  2  0  0  0  0
  3  7  1  0  0  0  0
  4  8  1  0  0  0  0
  4  3  1  0  0  0  0
  5  6  1  0  0  0  0
  5  4  2  0  0  0  0
  6  1  2  0  0  0  0
  9  5  1  0  0  0  0
 10 11  2  0  0  0  0
 10 15  1  0  0  0  0
 11 12  1  0  0  0  0
 12 17  1  0  0  0  0
 12 13  2  0  0  0  0
 14 13  1  0  0  0  0
 14 18  1  0  0  0  0
 15 14  2  0  0  0  0
 16 10  1  0  0  0  0
 20 19  1  0  0  0  0
 21  6  1  0  0  0  0
 23 22  1  0  0  0  0
 24 21  1  0  0  0  0
 24 23  2  0  0  0  0
 25 24  1  0  0  0  0
 26 25  2  0  0  0  0
 26 27  1  0  0  0  0
 27 28  2  0  0  0  0
 28 23  1  0  0  0  0
 28 32  1  0  0  0  0
 29 25  1  0  0  0  0
 30 26  1  0  0  0  0
 31 27  1  0  0  0  0
 32 40  1  0  0  0  0
 32 33  1  0  0  0  0
 33 34  1  0  0  0  0
 35 33  1  0  0  0  0
 35 36  1  0  0  0  0
 35 37  1  0  0  0  0
 37 38  1  0  0  0  0
 39 37  1  0  0  0  0
 40 39  1  0  0  0  0
M  END
>  <minimizedAffinity>
-5.54363918

$$$$
