
 OpenBabel03272502093D

 26 28  0  0  0  0  0  0  0  0999 V2000
   38.0760   32.0190   49.0780 C   0  0  0  0  0  0  0  0  0  0  0  0
   38.5690   33.1540   49.6850 C   0  0  0  0  0  0  0  0  0  0  0  0
   39.4070   34.0760   49.0520 C   0  0  0  0  0  0  0  0  0  0  0  0
   39.7420   33.8140   47.7570 N   0  0  0  0  0  0  0  0  0  0  0  0
   39.2630   32.7070   47.1630 C   0  0  0  0  0  0  0  0  0  0  0  0
   38.4560   31.8390   47.8040 N   0  0  0  0  0  0  0  0  0  0  0  0
   38.3100   33.3750   50.7170 H   0  0  0  0  0  0  0  0  0  0  0  0
   39.7760   34.9550   49.5560 H   0  0  0  0  0  0  0  0  0  0  0  0
   39.6070   32.4160   45.8000 N   0  0  0  0  0  0  0  0  0  0  0  0
   39.8830   33.4480   44.8480 C   0  0  0  0  0  0  0  0  0  0  0  0
   40.8960   33.8890   44.9570 H   0  0  0  0  0  0  0  0  0  0  0  0
   39.6010   33.0500   43.4280 C   0  0  0  0  0  0  0  0  0  0  0  0
   40.0870   33.8090   42.7670 H   0  0  0  0  0  0  0  0  0  0  0  0
   40.1230   31.7640   43.0690 N   0  0  0  0  0  0  0  0  0  0  0  0
   39.4400   31.2120   42.4790 H   0  0  0  0  0  0  0  0  0  0  0  0
   40.6060   30.9910   44.1800 C   0  0  0  0  0  0  0  0  0  0  0  0
   39.6790   31.0240   45.3670 C   0  0  0  0  0  0  0  0  0  0  0  0
   37.5250   30.4320   50.9470 C   0  0  0  0  0  0  0  0  0  0  0  0
   37.2120   31.0860   49.7590 C   0  0  0  0  0  0  0  0  0  0  0  0
   35.9630   30.8090   49.1940 C   0  0  0  0  0  0  0  0  0  0  0  0
   35.1360   29.9370   49.8170 N   0  0  0  0  0  0  0  0  0  0  0  0
   35.4850   29.3220   50.9770 C   0  0  0  0  0  0  0  0  0  0  0  0
   36.6820   29.5750   51.5360 N   0  0  0  0  0  0  0  0  0  0  0  0
   38.4870   30.6390   51.3940 H   0  0  0  0  0  0  0  0  0  0  0  0
   35.6810   31.3000   48.2630 H   0  0  0  0  0  0  0  0  0  0  0  0
   34.6920   28.6650   51.3140 H   0  0  0  0  0  0  0  0  0  0  0  0
  1  2  1  0  0  0  0
  1 19  1  0  0  0  0
  2  7  1  0  0  0  0
  3  8  1  0  0  0  0
  3  2  2  0  0  0  0
  4  3  1  0  0  0  0
  5  4  2  0  0  0  0
  5  6  1  0  0  0  0
  6  1  2  0  0  0  0
  9  5  1  0  0  0  0
 10 11  1  0  0  0  0
 10  9  1  0  0  0  0
 12 10  1  0  0  0  0
 13 12  1  0  0  0  0
 14 12  1  0  0  0  0
 14 16  1  0  0  0  0
 15 14  1  0  0  0  0
 16 17  1  0  0  0  0
 17  9  1  0  0  0  0
 18 24  1  0  0  0  0
 18 23  1  0  0  0  0
 19 18  2  0  0  0  0
 20 19  1  0  0  0  0
 20 21  2  0  0  0  0
 21 22  1  0  0  0  0
 22 26  1  0  0  0  0
 22 23  2  0  0  0  0
 25 20  1  0  0  0  0
M  END
>  <minimizedAffinity>
-6.29086542

>  <minimizedRMSD>
0.351240844

$$$$
