
 OpenBabel03272510003D

 21 22  0  0  0  0  0  0  0  0999 V2000
   37.7490   32.9800   49.6740 C   0  0  0  0  0  0  0  0  0  0  0  0
   38.5250   32.9140   48.5130 C   0  0  0  0  0  0  0  0  0  0  0  0
   38.2830   31.8700   47.6230 C   0  0  0  0  0  0  0  0  0  0  0  0
   37.3080   30.9810   47.9400 N   0  0  0  0  0  0  0  0  0  0  0  0
   36.5770   31.0610   49.0550 C   0  0  0  0  0  0  0  0  0  0  0  0
   36.8030   32.0680   49.9230 N   0  0  0  0  0  0  0  0  0  0  0  0
   37.9550   33.8120   50.3660 H   0  0  0  0  0  0  0  0  0  0  0  0
   39.3070   33.6180   48.2480 H   0  0  0  0  0  0  0  0  0  0  0  0
   38.9930   31.6840   46.4120 N   0  0  0  0  0  0  0  0  0  0  0  0
   39.8490   32.7040   45.8160 C   0  0  0  0  0  3  0  0  0  0  0  0
   40.1970   33.4340   46.5770 H   0  0  0  0  0  0  0  0  0  0  0  0
   41.0590   32.1110   45.1660 C   0  0  0  0  0  3  0  0  0  0  0  0
   41.4520   32.8650   44.4550 H   0  0  0  0  0  0  0  0  0  0  0  0
   40.8430   30.8850   44.4640 N   0  0  0  0  0  0  0  0  0  0  0  0
   41.3360   30.1190   44.9980 H   0  0  0  0  0  0  0  0  0  0  0  0
   39.4630   30.4980   44.3780 C   0  0  0  0  0  2  0  0  0  0  0  0
   38.8330   30.4010   45.7670 C   0  0  0  0  0  2  0  0  0  0  0  0
   35.5360   30.0300   49.2980 C   0  0  0  0  0  0  0  0  0  0  0  0
   34.3900   30.5700   49.8650 F   0  0  0  0  0  0  0  0  0  0  0  0
   35.1380   29.4390   48.1080 F   0  0  0  0  0  0  0  0  0  0  0  0
   35.9690   29.0190   50.1160 F   0  0  0  0  0  0  0  0  0  0  0  0
  1  6  1  0  0  0  0
  1  7  1  0  0  0  0
  2  1  2  0  0  0  0
  3  4  2  0  0  0  0
  3  2  1  0  0  0  0
  4  5  1  0  0  0  0
  5 18  1  0  0  0  0
  5  6  2  0  0  0  0
  8  2  1  0  0  0  0
  9  3  1  0  0  0  0
 10  9  1  0  0  0  0
 10 11  1  0  0  0  0
 12 10  1  0  0  0  0
 13 12  1  0  0  0  0
 14 15  1  0  0  0  0
 14 12  1  0  0  0  0
 16 14  1  0  0  0  0
 16 17  1  0  0  0  0
 17  9  1  0  0  0  0
 18 19  1  0  0  0  0
 18 21  1  0  0  0  0
 20 18  1  0  0  0  0
M  END
>  <minimizedAffinity>
-5.52549267

>  <minimizedRMSD>
2.23044419

$$$$
