
 OpenBabel03272504303D

 32 34  0  0  0  0  0  0  0  0999 V2000
   35.3470   29.5010   48.1730 C   0  0  0  0  0  0  0  0  0  0  0  0
   35.0890   30.4240   47.1490 C   0  0  0  0  0  0  0  0  0  0  0  0
   33.9080   30.2950   46.4130 C   0  0  0  0  0  0  0  0  0  0  0  0
   33.0600   29.2790   46.7250 N   0  0  0  0  0  0  0  0  0  0  0  0
   33.3480   28.3980   47.7330 C   0  0  0  0  0  0  0  0  0  0  0  0
   34.4720   28.5150   48.4370 N   0  0  0  0  0  0  0  0  0  0  0  0
   35.7980   31.2070   46.9490 H   0  0  0  0  0  0  0  0  0  0  0  0
   33.7150   31.0000   45.6340 H   0  0  0  0  0  0  0  0  0  0  0  0
   32.4730   27.3370   48.0660 N   0  0  0  0  0  0  0  0  0  0  0  0
   32.7280   25.9640   47.7170 C   0  0  0  0  0  0  0  0  0  0  0  0
   33.1030   25.4660   48.6480 H   0  0  0  0  0  0  0  0  0  0  0  0
   31.5390   25.2220   47.2200 C   0  0  0  0  0  0  0  0  0  0  0  0
   31.3410   24.3070   47.8280 H   0  0  0  0  0  0  0  0  0  0  0  0
   30.3690   26.0220   47.0060 N   0  0  0  0  0  0  0  0  0  0  0  0
   29.5720   25.3300   46.9740 H   0  0  0  0  0  0  0  0  0  0  0  0
   30.0570   26.9960   47.9970 C   0  0  0  0  0  0  0  0  0  0  0  0
   31.2310   27.4920   48.7870 C   0  0  0  0  0  0  0  0  0  0  0  0
   36.5280   29.5640   48.9680 N   0  0  0  0  0  0  0  0  0  0  0  0
   36.6150   28.9260   50.2720 C   0  0  0  0  0  0  0  0  0  0  0  0
   37.2550   29.7620   51.3250 C   0  0  0  0  0  0  0  0  0  0  0  0
   38.2820   30.6500   50.8910 N   0  0  0  0  0  0  0  0  0  0  0  0
   37.9240   31.3400   49.6400 C   0  0  0  0  0  0  0  0  0  0  0  0
   37.7410   30.2240   48.6350 C   0  0  0  0  0  0  0  0  0  0  0  0
   35.5520   28.7250   50.5850 H   0  0  0  0  0  0  0  0  0  0  0  0
   37.0900   27.9140   50.2150 H   0  0  0  0  0  0  0  0  0  0  0  0
   37.6950   29.0770   52.0800 H   0  0  0  0  0  0  0  0  0  0  0  0
   36.4890   30.3650   51.8860 H   0  0  0  0  0  0  0  0  0  0  0  0
   38.3650   31.4210   51.6080 H   0  0  0  0  0  0  0  0  0  0  0  0
   38.7950   31.9600   49.3510 H   0  0  0  0  0  0  0  0  0  0  0  0
   37.0370   31.9590   49.7910 H   0  0  0  0  0  0  0  0  0  0  0  0
   37.7230   30.5880   47.5850 H   0  0  0  0  0  0  0  0  0  0  0  0
   38.6030   29.5290   48.7780 H   0  0  0  0  0  0  0  0  0  0  0  0
  1  6  1  0  0  0  0
  1 18  1  0  0  0  0
  2  1  2  0  0  0  0
  3  4  2  0  0  0  0
  3  2  1  0  0  0  0
  4  5  1  0  0  0  0
  5  9  1  0  0  0  0
  5  6  2  0  0  0  0
  7  2  1  0  0  0  0
  8  3  1  0  0  0  0
  9 17  1  0  0  0  0
 10  9  1  0  0  0  0
 10 11  1  0  0  0  0
 12 10  1  0  0  0  0
 12 13  1  0  0  0  0
 14 12  1  0  0  0  0
 14 16  1  0  0  0  0
 15 14  1  0  0  0  0
 16 17  1  0  0  0  0
 18 19  1  0  0  0  0
 19 24  1  0  0  0  0
 19 20  1  0  0  0  0
 20 27  1  0  0  0  0
 20 26  1  0  0  0  0
 21 20  1  0  0  0  0
 21 28  1  0  0  0  0
 22 30  1  0  0  0  0
 22 21  1  0  0  0  0
 23 32  1  0  0  0  0
 23 18  1  0  0  0  0
 23 22  1  0  0  0  0
 25 19  1  0  0  0  0
 29 22  1  0  0  0  0
 31 23  1  0  0  0  0
M  END
>  <minimizedAffinity>
-4.89890909

>  <minimizedRMSD>
1.16583586

$$$$
