
 OpenBabel03272504313D

 32 34  0  0  0  0  0  0  0  0999 V2000
   39.1130   24.0270   34.7140 C   0  0  0  0  0  0  0  0  0  0  0  0
   40.3750   24.1860   34.1230 C   0  0  0  0  0  0  0  0  0  0  0  0
   40.4730   24.9370   32.9470 C   0  0  0  0  0  0  0  0  0  0  0  0
   39.3390   25.4800   32.4310 N   0  0  0  0  0  0  0  0  0  0  0  0
   38.1250   25.3020   33.0410 C   0  0  0  0  0  0  0  0  0  0  0  0
   38.0250   24.5870   34.1590 N   0  0  0  0  0  0  0  0  0  0  0  0
   41.2360   23.7320   34.5780 H   0  0  0  0  0  0  0  0  0  0  0  0
   41.4350   25.0550   32.4990 H   0  0  0  0  0  0  0  0  0  0  0  0
   36.9390   25.8630   32.5120 N   0  0  0  0  0  0  0  0  0  0  0  0
   35.9390   25.0900   31.8220 C   0  0  0  0  0  3  0  0  0  0  0  0
   35.1050   24.9270   32.5530 H   0  0  0  0  0  0  0  0  0  0  0  0
   35.3880   25.7400   30.6030 C   0  0  0  0  0  3  0  0  0  0  0  0
   34.2780   25.8430   30.6570 H   0  0  0  0  0  0  0  0  0  0  0  0
   36.0480   26.9500   30.2080 N   0  0  0  0  0  0  0  0  0  0  0  0
   35.3660   27.4300   29.5610 H   0  0  0  0  0  0  0  0  0  0  0  0
   36.3880   27.8720   31.2390 C   0  0  0  0  0  2  0  0  0  0  0  0
   36.5830   27.2610   32.5940 C   0  0  0  0  0  2  0  0  0  0  0  0
   38.9290   23.2760   35.9120 N   0  0  0  0  0  0  0  0  0  0  0  0
   37.8470   23.5600   36.8420 C   0  0  0  0  0  0  0  0  0  0  0  0
   38.2500   23.5560   38.2750 C   0  0  0  0  0  0  0  0  0  0  0  0
   39.2880   22.6490   38.6390 N   0  0  0  0  0  0  0  0  0  0  0  0
   40.3840   22.6420   37.6540 C   0  0  0  0  0  0  0  0  0  0  0  0
   39.7290   22.1930   36.3660 C   0  0  0  0  0  0  0  0  0  0  0  0
   37.4880   24.5960   36.5840 H   0  0  0  0  0  0  0  0  0  0  0  0
   36.9600   22.8990   36.6690 H   0  0  0  0  0  0  0  0  0  0  0  0
   37.3530   23.3030   38.8780 H   0  0  0  0  0  0  0  0  0  0  0  0
   38.5520   24.5850   38.6140 H   0  0  0  0  0  0  0  0  0  0  0  0
   39.7310   23.0070   39.5290 H   0  0  0  0  0  0  0  0  0  0  0  0
   41.1120   21.8750   37.9850 H   0  0  0  0  0  0  0  0  0  0  0  0
   40.8520   23.6260   37.6010 H   0  0  0  0  0  0  0  0  0  0  0  0
   40.4640   21.8870   35.5920 H   0  0  0  0  0  0  0  0  0  0  0  0
   39.0770   21.3260   36.6310 H   0  0  0  0  0  0  0  0  0  0  0  0
  1 18  1  0  0  0  0
  2  7  1  0  0  0  0
  2  1  2  0  0  0  0
  3  2  1  0  0  0  0
  4  3  2  0  0  0  0
  4  5  1  0  0  0  0
  5  6  2  0  0  0  0
  6  1  1  0  0  0  0
  8  3  1  0  0  0  0
  9 17  1  0  0  0  0
  9  5  1  0  0  0  0
 10  9  1  0  0  0  0
 10 11  1  0  0  0  0
 12 13  1  0  0  0  0
 12 10  1  0  0  0  0
 14 12  1  0  0  0  0
 14 16  1  0  0  0  0
 15 14  1  0  0  0  0
 16 17  1  0  0  0  0
 18 23  1  0  0  0  0
 18 19  1  0  0  0  0
 19 20  1  0  0  0  0
 20 27  1  0  0  0  0
 20 21  1  0  0  0  0
 20 26  1  0  0  0  0
 21 28  1  0  0  0  0
 22 29  1  0  0  0  0
 22 21  1  0  0  0  0
 23 32  1  0  0  0  0
 23 22  1  0  0  0  0
 24 19  1  0  0  0  0
 25 19  1  0  0  0  0
 30 22  1  0  0  0  0
 31 23  1  0  0  0  0
M  END
>  <minimizedAffinity>
-5.38457537

$$$$

 OpenBabel03272504313D

 32 34  0  0  0  0  0  0  0  0999 V2000
   38.7790   25.9640   33.0610 C   0  0  0  0  0  0  0  0  0  0  0  0
   39.7910   26.8990   33.3250 C   0  0  0  0  0  0  0  0  0  0  0  0
   40.5290   26.7730   34.5060 C   0  0  0  0  0  0  0  0  0  0  0  0
   40.2310   25.7470   35.3460 N   0  0  0  0  0  0  0  0  0  0  0  0
   39.2350   24.8540   35.0520 C   0  0  0  0  0  0  0  0  0  0  0  0
   38.5290   24.9690   33.9290 N   0  0  0  0  0  0  0  0  0  0  0  0
   39.9790   27.6900   32.6210 H   0  0  0  0  0  0  0  0  0  0  0  0
   41.2980   27.4870   34.7030 H   0  0  0  0  0  0  0  0  0  0  0  0
   38.9180   23.7820   35.9200 N   0  0  0  0  0  0  0  0  0  0  0  0
   37.7490   23.7650   36.7600 C   0  0  0  0  0  3  0  0  0  0  0  0
   37.0050   23.0990   36.2530 H   0  0  0  0  0  0  0  0  0  0  0  0
   37.9860   23.2600   38.1380 C   0  0  0  0  0  3  0  0  0  0  0  0
   37.3220   22.3960   38.3800 H   0  0  0  0  0  0  0  0  0  0  0  0
   39.3610   23.0260   38.4720 N   0  0  0  0  0  0  0  0  0  0  0  0
   39.3290   22.3930   39.3170 H   0  0  0  0  0  0  0  0  0  0  0  0
   40.1700   22.3900   37.4870 C   0  0  0  0  0  2  0  0  0  0  0  0
   39.7130   22.5850   36.0730 C   0  0  0  0  0  2  0  0  0  0  0  0
   37.9830   26.0240   31.8800 N   0  0  0  0  0  0  0  0  0  0  0  0
   37.6870   27.2810   31.2130 C   0  0  0  0  0  0  0  0  0  0  0  0
   36.2700   27.4300   30.7820 C   0  0  0  0  0  0  0  0  0  0  0  0
   35.5970   26.2350   30.3920 N   0  0  0  0  0  0  0  0  0  0  0  0
   35.8860   25.1160   31.3050 C   0  0  0  0  0  0  0  0  0  0  0  0
   37.3840   24.9270   31.2060 C   0  0  0  0  0  0  0  0  0  0  0  0
   37.9090   28.0860   31.9670 H   0  0  0  0  0  0  0  0  0  0  0  0
   38.3910   27.4830   30.3650 H   0  0  0  0  0  0  0  0  0  0  0  0
   36.2500   28.1270   29.9180 H   0  0  0  0  0  0  0  0  0  0  0  0
   35.6540   27.9310   31.5780 H   0  0  0  0  0  0  0  0  0  0  0  0
   34.5590   26.4020   30.4930 H   0  0  0  0  0  0  0  0  0  0  0  0
   35.3710   24.2240   30.8980 H   0  0  0  0  0  0  0  0  0  0  0  0
   35.5280   25.3470   32.3100 H   0  0  0  0  0  0  0  0  0  0  0  0
   37.7250   23.9590   31.6320 H   0  0  0  0  0  0  0  0  0  0  0  0
   37.6330   24.9680   30.1180 H   0  0  0  0  0  0  0  0  0  0  0  0
  1  2  2  0  0  0  0
  1  6  1  0  0  0  0
  2  3  1  0  0  0  0
  3  8  1  0  0  0  0
  3  4  2  0  0  0  0
  5  4  1  0  0  0  0
  5  9  1  0  0  0  0
  6  5  2  0  0  0  0
  7  2  1  0  0  0  0
  9 17  1  0  0  0  0
  9 10  1  0  0  0  0
 10 12  1  0  0  0  0
 11 10  1  0  0  0  0
 12 13  1  0  0  0  0
 12 14  1  0  0  0  0
 14 15  1  0  0  0  0
 16 14  1  0  0  0  0
 17 16  1  0  0  0  0
 18  1  1  0  0  0  0
 19 18  1  0  0  0  0
 19 24  1  0  0  0  0
 20 19  1  0  0  0  0
 20 27  1  0  0  0  0
 21 28  1  0  0  0  0
 21 20  1  0  0  0  0
 21 22  1  0  0  0  0
 22 30  1  0  0  0  0
 23 22  1  0  0  0  0
 23 31  1  0  0  0  0
 23 18  1  0  0  0  0
 25 19  1  0  0  0  0
 26 20  1  0  0  0  0
 29 22  1  0  0  0  0
 32 23  1  0  0  0  0
M  END
>  <minimizedAffinity>
-5.34840679

$$$$

 OpenBabel03272504313D

 32 34  0  0  0  0  0  0  0  0999 V2000
   38.1670   25.3330   35.7960 C   0  0  0  0  0  0  0  0  0  0  0  0
   38.1880   26.6030   36.3920 C   0  0  0  0  0  0  0  0  0  0  0  0
   38.0050   27.7270   35.5800 C   0  0  0  0  0  0  0  0  0  0  0  0
   37.8140   27.5370   34.2480 N   0  0  0  0  0  0  0  0  0  0  0  0
   37.7990   26.2790   33.7050 C   0  0  0  0  0  0  0  0  0  0  0  0
   37.9730   25.2060   34.4720 N   0  0  0  0  0  0  0  0  0  0  0  0
   38.3430   26.6890   37.4520 H   0  0  0  0  0  0  0  0  0  0  0  0
   38.0220   28.6920   36.0370 H   0  0  0  0  0  0  0  0  0  0  0  0
   37.6010   26.0710   32.3190 N   0  0  0  0  0  0  0  0  0  0  0  0
   38.6610   25.7080   31.4150 C   0  0  0  0  0  3  0  0  0  0  0  0
   38.5550   24.6090   31.2270 H   0  0  0  0  0  0  0  0  0  0  0  0
   38.6330   26.4230   30.1110 C   0  0  0  0  0  3  0  0  0  0  0  0
   38.5940   25.7120   29.2530 H   0  0  0  0  0  0  0  0  0  0  0  0
   37.6640   27.4760   30.0160 N   0  0  0  0  0  0  0  0  0  0  0  0
   37.5550   27.6480   28.9800 H   0  0  0  0  0  0  0  0  0  0  0  0
   36.3700   27.2190   30.5510 C   0  0  0  0  0  2  0  0  0  0  0  0
   36.3300   26.1920   31.6430 C   0  0  0  0  0  2  0  0  0  0  0  0
   38.3450   24.1390   36.5530 N   0  0  0  0  0  0  0  0  0  0  0  0
   37.9260   24.0370   37.9420 C   0  0  0  0  0  0  0  0  0  0  0  0
   38.9150   23.3740   38.8360 C   0  0  0  0  0  0  0  0  0  0  0  0
   39.7100   22.3460   38.2490 N   0  0  0  0  0  0  0  0  0  0  0  0
   40.1920   22.7190   36.9080 C   0  0  0  0  0  0  0  0  0  0  0  0
   38.9300   22.9270   36.1000 C   0  0  0  0  0  0  0  0  0  0  0  0
   37.7900   25.0960   38.2980 H   0  0  0  0  0  0  0  0  0  0  0  0
   36.9130   23.5710   38.0430 H   0  0  0  0  0  0  0  0  0  0  0  0
   38.3570   22.9270   39.6850 H   0  0  0  0  0  0  0  0  0  0  0  0
   39.6090   24.1260   39.3020 H   0  0  0  0  0  0  0  0  0  0  0  0
   40.5870   22.2460   38.8300 H   0  0  0  0  0  0  0  0  0  0  0  0
   40.7480   21.8480   36.5090 H   0  0  0  0  0  0  0  0  0  0  0  0
   40.8370   23.5980   36.9690 H   0  0  0  0  0  0  0  0  0  0  0  0
   39.1190   22.9580   35.0060 H   0  0  0  0  0  0  0  0  0  0  0  0
   38.2580   22.0680   36.3410 H   0  0  0  0  0  0  0  0  0  0  0  0
  1  2  1  0  0  0  0
  1 18  1  0  0  0  0
  2  7  1  0  0  0  0
  3  8  1  0  0  0  0
  3  2  2  0  0  0  0
  4  3  1  0  0  0  0
  5  4  2  0  0  0  0
  5  6  1  0  0  0  0
  6  1  2  0  0  0  0
  9  5  1  0  0  0  0
 10  9  1  0  0  0  0
 11 10  1  0  0  0  0
 12 10  1  0  0  0  0
 13 12  1  0  0  0  0
 14 12  1  0  0  0  0
 14 16  1  0  0  0  0
 15 14  1  0  0  0  0
 16 17  1  0  0  0  0
 17  9  1  0  0  0  0
 18 19  1  0  0  0  0
 19 25  1  0  0  0  0
 19 24  1  0  0  0  0
 19 20  1  0  0  0  0
 20 27  1  0  0  0  0
 20 26  1  0  0  0  0
 21 28  1  0  0  0  0
 21 20  1  0  0  0  0
 22 30  1  0  0  0  0
 22 21  1  0  0  0  0
 23 32  1  0  0  0  0
 23 18  1  0  0  0  0
 23 22  1  0  0  0  0
 29 22  1  0  0  0  0
 31 23  1  0  0  0  0
M  END
>  <minimizedAffinity>
-5.25486374

$$$$

 OpenBabel03272504313D

 32 34  0  0  0  0  0  0  0  0999 V2000
   38.2460   24.1580   34.7090 C   0  0  0  0  0  0  0  0  0  0  0  0
   37.9110   23.0160   33.9660 C   0  0  0  0  0  0  0  0  0  0  0  0
   37.4200   23.1810   32.6680 C   0  0  0  0  0  0  0  0  0  0  0  0
   37.2910   24.4450   32.1830 N   0  0  0  0  0  0  0  0  0  0  0  0
   37.6300   25.5340   32.9400 C   0  0  0  0  0  0  0  0  0  0  0  0
   38.0970   25.3830   34.1770 N   0  0  0  0  0  0  0  0  0  0  0  0
   38.0350   22.0420   34.4050 H   0  0  0  0  0  0  0  0  0  0  0  0
   37.1660   22.3100   32.1050 H   0  0  0  0  0  0  0  0  0  0  0  0
   37.4990   26.8530   32.4450 N   0  0  0  0  0  0  0  0  0  0  0  0
   36.4500   27.7500   32.8530 C   0  0  0  0  0  3  0  0  0  0  0  0
   36.9090   28.4600   33.5900 H   0  0  0  0  0  0  0  0  0  0  0  0
   35.8410   28.5350   31.7460 C   0  0  0  0  0  3  0  0  0  0  0  0
   35.9070   29.6330   31.9350 H   0  0  0  0  0  0  0  0  0  0  0  0
   36.2700   28.1620   30.4300 N   0  0  0  0  0  0  0  0  0  0  0  0
   36.0130   28.9850   29.8200 H   0  0  0  0  0  0  0  0  0  0  0  0
   37.6590   27.9050   30.2470 C   0  0  0  0  0  2  0  0  0  0  0  0
   38.3870   27.4610   31.4800 C   0  0  0  0  0  2  0  0  0  0  0  0
   38.7520   24.0730   36.0390 N   0  0  0  0  0  0  0  0  0  0  0  0
   40.0370   23.4620   36.3380 C   0  0  0  0  0  0  0  0  0  0  0  0
   40.0280   22.5590   37.5210 C   0  0  0  0  0  0  0  0  0  0  0  0
   39.1370   22.9080   38.5780 N   0  0  0  0  0  0  0  0  0  0  0  0
   37.8200   23.3320   38.0720 C   0  0  0  0  0  0  0  0  0  0  0  0
   38.1170   24.5450   37.2190 C   0  0  0  0  0  0  0  0  0  0  0  0
   40.3000   22.8470   35.4320 H   0  0  0  0  0  0  0  0  0  0  0  0
   40.8560   24.2210   36.4140 H   0  0  0  0  0  0  0  0  0  0  0  0
   41.0560   22.5380   37.9390 H   0  0  0  0  0  0  0  0  0  0  0  0
   39.8110   21.4980   37.2210 H   0  0  0  0  0  0  0  0  0  0  0  0
   38.9400   22.0330   39.1360 H   0  0  0  0  0  0  0  0  0  0  0  0
   37.2170   23.6350   38.9500 H   0  0  0  0  0  0  0  0  0  0  0  0
   37.3400   22.5110   37.5350 H   0  0  0  0  0  0  0  0  0  0  0  0
   37.2070   25.1350   36.9760 H   0  0  0  0  0  0  0  0  0  0  0  0
   38.8280   25.1750   37.8070 H   0  0  0  0  0  0  0  0  0  0  0  0
  1 18  1  0  0  0  0
  2  7  1  0  0  0  0
  2  1  2  0  0  0  0
  3  2  1  0  0  0  0
  4  3  2  0  0  0  0
  4  5  1  0  0  0  0
  5  6  2  0  0  0  0
  6  1  1  0  0  0  0
  8  3  1  0  0  0  0
  9 10  1  0  0  0  0
  9  5  1  0  0  0  0
 10 11  1  0  0  0  0
 12 13  1  0  0  0  0
 12 10  1  0  0  0  0
 14 12  1  0  0  0  0
 15 14  1  0  0  0  0
 16 14  1  0  0  0  0
 16 17  1  0  0  0  0
 17  9  1  0  0  0  0
 18 19  1  0  0  0  0
 18 23  1  0  0  0  0
 19 25  1  0  0  0  0
 19 20  1  0  0  0  0
 20 26  1  0  0  0  0
 20 21  1  0  0  0  0
 21 28  1  0  0  0  0
 22 21  1  0  0  0  0
 22 29  1  0  0  0  0
 23 32  1  0  0  0  0
 23 22  1  0  0  0  0
 24 19  1  0  0  0  0
 27 20  1  0  0  0  0
 30 22  1  0  0  0  0
 31 23  1  0  0  0  0
M  END
>  <minimizedAffinity>
-5.24647713

$$$$

 OpenBabel03272504313D

 32 34  0  0  0  0  0  0  0  0999 V2000
   38.2220   23.7780   34.7340 C   0  0  0  0  0  0  0  0  0  0  0  0
   37.8950   24.9170   33.9830 C   0  0  0  0  0  0  0  0  0  0  0  0
   37.3960   24.7460   32.6880 C   0  0  0  0  0  0  0  0  0  0  0  0
   37.2500   23.4800   32.2150 N   0  0  0  0  0  0  0  0  0  0  0  0
   37.5810   22.3930   32.9800 C   0  0  0  0  0  0  0  0  0  0  0  0
   38.0560   22.5500   34.2140 N   0  0  0  0  0  0  0  0  0  0  0  0
   38.0330   25.8930   34.4130 H   0  0  0  0  0  0  0  0  0  0  0  0
   37.1490   25.6150   32.1200 H   0  0  0  0  0  0  0  0  0  0  0  0
   37.4320   21.0710   32.4970 N   0  0  0  0  0  0  0  0  0  0  0  0
   38.5410   20.2550   32.0760 C   0  0  0  0  0  3  0  0  0  0  0  0
   38.7430   19.5390   32.9150 H   0  0  0  0  0  0  0  0  0  0  0  0
   38.2990   19.4800   30.8300 C   0  0  0  0  0  3  0  0  0  0  0  0
   38.4510   18.3860   30.9910 H   0  0  0  0  0  0  0  0  0  0  0  0
   37.0740   19.7860   30.1510 N   0  0  0  0  0  0  0  0  0  0  0  0
   36.9090   18.9640   29.5090 H   0  0  0  0  0  0  0  0  0  0  0  0
   35.9090   19.9490   30.9530 C   0  0  0  0  0  2  0  0  0  0  0  0
   36.1700   20.3810   32.3650 C   0  0  0  0  0  2  0  0  0  0  0  0
   38.7350   23.8680   36.0600 N   0  0  0  0  0  0  0  0  0  0  0  0
   40.0570   23.3730   36.4110 C   0  0  0  0  0  0  0  0  0  0  0  0
   40.1090   22.6030   37.6840 C   0  0  0  0  0  0  0  0  0  0  0  0
   39.1990   23.0060   38.7050 N   0  0  0  0  0  0  0  0  0  0  0  0
   37.8570   23.2890   38.1690 C   0  0  0  0  0  0  0  0  0  0  0  0
   38.0740   24.4220   37.1890 C   0  0  0  0  0  0  0  0  0  0  0  0
   40.3560   22.6830   35.5730 H   0  0  0  0  0  0  0  0  0  0  0  0
   40.8270   24.1870   36.3990 H   0  0  0  0  0  0  0  0  0  0  0  0
   41.1370   22.6920   38.0920 H   0  0  0  0  0  0  0  0  0  0  0  0
   39.9590   21.5040   37.4990 H   0  0  0  0  0  0  0  0  0  0  0  0
   39.0600   22.1850   39.3550 H   0  0  0  0  0  0  0  0  0  0  0  0
   37.2380   23.6460   39.0160 H   0  0  0  0  0  0  0  0  0  0  0  0
   37.4290   22.3880   37.7260 H   0  0  0  0  0  0  0  0  0  0  0  0
   37.1290   24.9230   36.8940 H   0  0  0  0  0  0  0  0  0  0  0  0
   38.7460   25.1530   37.7010 H   0  0  0  0  0  0  0  0  0  0  0  0
  1 18  1  0  0  0  0
  2  7  1  0  0  0  0
  2  1  2  0  0  0  0
  3  2  1  0  0  0  0
  4  3  2  0  0  0  0
  4  5  1  0  0  0  0
  5  6  2  0  0  0  0
  6  1  1  0  0  0  0
  8  3  1  0  0  0  0
  9  5  1  0  0  0  0
 10  9  1  0  0  0  0
 10 11  1  0  0  0  0
 12 13  1  0  0  0  0
 12 10  1  0  0  0  0
 14 12  1  0  0  0  0
 14 16  1  0  0  0  0
 15 14  1  0  0  0  0
 16 17  1  0  0  0  0
 17  9  1  0  0  0  0
 18 19  1  0  0  0  0
 18 23  1  0  0  0  0
 19 20  1  0  0  0  0
 20 26  1  0  0  0  0
 20 21  1  0  0  0  0
 21 28  1  0  0  0  0
 22 21  1  0  0  0  0
 22 29  1  0  0  0  0
 23 32  1  0  0  0  0
 23 22  1  0  0  0  0
 24 19  1  0  0  0  0
 25 19  1  0  0  0  0
 27 20  1  0  0  0  0
 30 22  1  0  0  0  0
 31 23  1  0  0  0  0
M  END
>  <minimizedAffinity>
-4.90288639

$$$$

 OpenBabel03272504313D

 32 34  0  0  0  0  0  0  0  0999 V2000
   33.8140   30.4120   34.8730 C   0  0  0  0  0  0  0  0  0  0  0  0
   32.4970   30.1270   34.4860 C   0  0  0  0  0  0  0  0  0  0  0  0
   32.2890   29.3740   33.3260 C   0  0  0  0  0  0  0  0  0  0  0  0
   33.3750   28.9510   32.6270 N   0  0  0  0  0  0  0  0  0  0  0  0
   34.6460   29.2510   33.0400 C   0  0  0  0  0  0  0  0  0  0  0  0
   34.8510   29.9680   34.1420 N   0  0  0  0  0  0  0  0  0  0  0  0
   31.6780   30.4890   35.0800 H   0  0  0  0  0  0  0  0  0  0  0  0
   31.2840   29.1590   33.0330 H   0  0  0  0  0  0  0  0  0  0  0  0
   35.7830   28.8160   32.3190 N   0  0  0  0  0  0  0  0  0  0  0  0
   36.5780   29.6890   31.4950 C   0  0  0  0  0  3  0  0  0  0  0  0
   37.4970   29.9340   32.0880 H   0  0  0  0  0  0  0  0  0  0  0  0
   36.9900   29.1030   30.1920 C   0  0  0  0  0  3  0  0  0  0  0  0
   38.0990   29.1140   30.0680 H   0  0  0  0  0  0  0  0  0  0  0  0
   36.4000   27.8330   29.8830 N   0  0  0  0  0  0  0  0  0  0  0  0
   37.0150   27.4270   29.1260 H   0  0  0  0  0  0  0  0  0  0  0  0
   36.3240   26.8770   30.9360 C   0  0  0  0  0  2  0  0  0  0  0  0
   36.2870   27.4610   32.3160 C   0  0  0  0  0  2  0  0  0  0  0  0
   34.1110   31.1740   36.0410 N   0  0  0  0  0  0  0  0  0  0  0  0
   33.0970   31.4850   37.0370 C   0  0  0  0  0  0  0  0  0  0  0  0
   33.1230   32.8920   37.5220 C   0  0  0  0  0  0  0  0  0  0  0  0
   34.4030   33.5180   37.5810 N   0  0  0  0  0  0  0  0  0  0  0  0
   35.2160   33.2260   36.3880 C   0  0  0  0  0  0  0  0  0  0  0  0
   35.3720   31.7200   36.4000 C   0  0  0  0  0  0  0  0  0  0  0  0
   32.1080   31.3100   36.5290 H   0  0  0  0  0  0  0  0  0  0  0  0
   33.1110   30.7620   37.8920 H   0  0  0  0  0  0  0  0  0  0  0  0
   32.6930   32.9060   38.5450 H   0  0  0  0  0  0  0  0  0  0  0  0
   32.4450   33.5460   36.9080 H   0  0  0  0  0  0  0  0  0  0  0  0
   34.2520   34.5640   37.5520 H   0  0  0  0  0  0  0  0  0  0  0  0
   36.2050   33.7010   36.5450 H   0  0  0  0  0  0  0  0  0  0  0  0
   34.7310   33.6210   35.4940 H   0  0  0  0  0  0  0  0  0  0  0  0
   36.1720   31.3650   35.7160 H   0  0  0  0  0  0  0  0  0  0  0  0
   35.6230   31.4390   37.4510 H   0  0  0  0  0  0  0  0  0  0  0  0
  1 18  1  0  0  0  0
  2  1  1  0  0  0  0
  2  7  1  0  0  0  0
  3  2  2  0  0  0  0
  4  5  2  0  0  0  0
  4  3  1  0  0  0  0
  5  6  1  0  0  0  0
  6  1  2  0  0  0  0
  8  3  1  0  0  0  0
  9  5  1  0  0  0  0
 10 11  1  0  0  0  0
 10  9  1  0  0  0  0
 12 10  1  0  0  0  0
 13 12  1  0  0  0  0
 14 12  1  0  0  0  0
 14 16  1  0  0  0  0
 15 14  1  0  0  0  0
 16 17  1  0  0  0  0
 17  9  1  0  0  0  0
 18 23  1  0  0  0  0
 18 19  1  0  0  0  0
 19 20  1  0  0  0  0
 19 25  1  0  0  0  0
 20 21  1  0  0  0  0
 20 26  1  0  0  0  0
 22 23  1  0  0  0  0
 22 29  1  0  0  0  0
 22 21  1  0  0  0  0
 23 32  1  0  0  0  0
 24 19  1  0  0  0  0
 27 20  1  0  0  0  0
 28 21  1  0  0  0  0
 30 22  1  0  0  0  0
 31 23  1  0  0  0  0
M  END
>  <minimizedAffinity>
-4.89401007

$$$$

 OpenBabel03272504313D

 32 34  0  0  0  0  0  0  0  0999 V2000
   36.5760   22.6600   32.0820 C   0  0  0  0  0  0  0  0  0  0  0  0
   35.8330   23.4780   31.2180 C   0  0  0  0  0  0  0  0  0  0  0  0
   35.9460   24.8650   31.3460 C   0  0  0  0  0  0  0  0  0  0  0  0
   36.7730   25.3600   32.3050 N   0  0  0  0  0  0  0  0  0  0  0  0
   37.4830   24.5270   33.1300 C   0  0  0  0  0  0  0  0  0  0  0  0
   37.3790   23.2050   33.0120 N   0  0  0  0  0  0  0  0  0  0  0  0
   35.1950   23.0280   30.4790 H   0  0  0  0  0  0  0  0  0  0  0  0
   35.3790   25.4850   30.6870 H   0  0  0  0  0  0  0  0  0  0  0  0
   38.3460   25.0310   34.1310 N   0  0  0  0  0  0  0  0  0  0  0  0
   38.0200   25.0230   35.5320 C   0  0  0  0  0  3  0  0  0  0  0  0
   38.5870   24.1680   35.9840 H   0  0  0  0  0  0  0  0  0  0  0  0
   38.3760   26.2720   36.2570 C   0  0  0  0  0  3  0  0  0  0  0  0
   39.0520   26.0680   37.1220 H   0  0  0  0  0  0  0  0  0  0  0  0
   38.8320   27.3480   35.4260 N   0  0  0  0  0  0  0  0  0  0  0  0
   39.3290   28.0060   36.0860 H   0  0  0  0  0  0  0  0  0  0  0  0
   39.7390   27.0210   34.3780 C   0  0  0  0  0  2  0  0  0  0  0  0
   39.6460   25.6100   33.8800 C   0  0  0  0  0  2  0  0  0  0  0  0
   36.5160   21.2380   32.0160 N   0  0  0  0  0  0  0  0  0  0  0  0
   37.2210   20.4830   30.9920 C   0  0  0  0  0  0  0  0  0  0  0  0
   36.4230   19.3890   30.3740 C   0  0  0  0  0  0  0  0  0  0  0  0
   35.4770   18.7390   31.2200 N   0  0  0  0  0  0  0  0  0  0  0  0
   34.7320   19.6980   32.0540 C   0  0  0  0  0  0  0  0  0  0  0  0
   35.7970   20.3780   32.8880 C   0  0  0  0  0  0  0  0  0  0  0  0
   37.4750   21.2270   30.1860 H   0  0  0  0  0  0  0  0  0  0  0  0
   38.2120   20.1070   31.3540 H   0  0  0  0  0  0  0  0  0  0  0  0
   37.1320   18.6190   30.0050 H   0  0  0  0  0  0  0  0  0  0  0  0
   35.8790   19.7500   29.4590 H   0  0  0  0  0  0  0  0  0  0  0  0
   34.7440   18.2950   30.6030 H   0  0  0  0  0  0  0  0  0  0  0  0
   34.0670   19.1060   32.7130 H   0  0  0  0  0  0  0  0  0  0  0  0
   34.1530   20.3760   31.4240 H   0  0  0  0  0  0  0  0  0  0  0  0
   35.3760   20.9400   33.7480 H   0  0  0  0  0  0  0  0  0  0  0  0
   36.4680   19.5660   33.2600 H   0  0  0  0  0  0  0  0  0  0  0  0
  1  6  1  0  0  0  0
  2  3  1  0  0  0  0
  2  1  2  0  0  0  0
  3  4  2  0  0  0  0
  4  5  1  0  0  0  0
  5  9  1  0  0  0  0
  6  5  2  0  0  0  0
  7  2  1  0  0  0  0
  8  3  1  0  0  0  0
  9 10  1  0  0  0  0
 10 11  1  0  0  0  0
 10 12  1  0  0  0  0
 12 13  1  0  0  0  0
 14 15  1  0  0  0  0
 14 12  1  0  0  0  0
 16 14  1  0  0  0  0
 17  9  1  0  0  0  0
 17 16  1  0  0  0  0
 18  1  1  0  0  0  0
 18 23  1  0  0  0  0
 19 25  1  0  0  0  0
 19 18  1  0  0  0  0
 20 19  1  0  0  0  0
 20 21  1  0  0  0  0
 21 22  1  0  0  0  0
 22 29  1  0  0  0  0
 22 23  1  0  0  0  0
 23 32  1  0  0  0  0
 23 31  1  0  0  0  0
 24 19  1  0  0  0  0
 26 20  1  0  0  0  0
 27 20  1  0  0  0  0
 28 21  1  0  0  0  0
 30 22  1  0  0  0  0
M  END
>  <minimizedAffinity>
-4.89220333

$$$$

 OpenBabel03272504313D

 32 34  0  0  0  0  0  0  0  0999 V2000
   37.0660   24.9860   32.8210 C   0  0  0  0  0  0  0  0  0  0  0  0
   36.3160   25.5940   31.8040 C   0  0  0  0  0  0  0  0  0  0  0  0
   35.5780   24.7810   30.9380 C   0  0  0  0  0  0  0  0  0  0  0  0
   35.6200   23.4350   31.1240 N   0  0  0  0  0  0  0  0  0  0  0  0
   36.3650   22.8800   32.1310 C   0  0  0  0  0  0  0  0  0  0  0  0
   37.0700   23.6490   32.9580 N   0  0  0  0  0  0  0  0  0  0  0  0
   36.3220   26.6650   31.7070 H   0  0  0  0  0  0  0  0  0  0  0  0
   35.0090   25.2470   30.1640 H   0  0  0  0  0  0  0  0  0  0  0  0
   36.4160   21.4800   32.3320 N   0  0  0  0  0  0  0  0  0  0  0  0
   37.5500   20.6710   31.9720 C   0  0  0  0  0  3  0  0  0  0  0  0
   38.1060   20.4630   32.9240 H   0  0  0  0  0  0  0  0  0  0  0  0
   37.2060   19.3770   31.3250 C   0  0  0  0  0  3  0  0  0  0  0  0
   37.6400   18.5110   31.8790 H   0  0  0  0  0  0  0  0  0  0  0  0
   35.8180   19.2060   31.0080 N   0  0  0  0  0  0  0  0  0  0  0  0
   35.7000   18.1660   30.8670 H   0  0  0  0  0  0  0  0  0  0  0  0
   34.8720   19.6210   31.9870 C   0  0  0  0  0  2  0  0  0  0  0  0
   35.3530   20.6950   32.9160 C   0  0  0  0  0  2  0  0  0  0  0  0
   37.8440   25.7440   33.7430 N   0  0  0  0  0  0  0  0  0  0  0  0
   38.5160   25.1270   34.8760 C   0  0  0  0  0  0  0  0  0  0  0  0
   38.3830   25.8790   36.1540 C   0  0  0  0  0  0  0  0  0  0  0  0
   38.3120   27.3000   36.0490 N   0  0  0  0  0  0  0  0  0  0  0  0
   37.4330   27.7280   34.9470 C   0  0  0  0  0  0  0  0  0  0  0  0
   38.0740   27.1460   33.7070 C   0  0  0  0  0  0  0  0  0  0  0  0
   38.0260   24.1230   35.0110 H   0  0  0  0  0  0  0  0  0  0  0  0
   39.5880   24.8940   34.6530 H   0  0  0  0  0  0  0  0  0  0  0  0
   39.2610   25.6310   36.7860 H   0  0  0  0  0  0  0  0  0  0  0  0
   37.4900   25.5290   36.7400 H   0  0  0  0  0  0  0  0  0  0  0  0
   37.8420   27.6640   36.9230 H   0  0  0  0  0  0  0  0  0  0  0  0
   37.4810   28.8340   34.9050 H   0  0  0  0  0  0  0  0  0  0  0  0
   36.4110   27.3890   35.1260 H   0  0  0  0  0  0  0  0  0  0  0  0
   37.6820   27.5920   32.7690 H   0  0  0  0  0  0  0  0  0  0  0  0
   39.1690   27.3530   33.7930 H   0  0  0  0  0  0  0  0  0  0  0  0
  1  6  1  0  0  0  0
  1 18  1  0  0  0  0
  2  1  2  0  0  0  0
  3  4  2  0  0  0  0
  3  2  1  0  0  0  0
  4  5  1  0  0  0  0
  5  9  1  0  0  0  0
  5  6  2  0  0  0  0
  7  2  1  0  0  0  0
  8  3  1  0  0  0  0
  9 17  1  0  0  0  0
 10  9  1  0  0  0  0
 10 11  1  0  0  0  0
 12 13  1  0  0  0  0
 12 10  1  0  0  0  0
 14 12  1  0  0  0  0
 14 16  1  0  0  0  0
 15 14  1  0  0  0  0
 16 17  1  0  0  0  0
 18 19  1  0  0  0  0
 19 24  1  0  0  0  0
 19 20  1  0  0  0  0
 20 27  1  0  0  0  0
 20 26  1  0  0  0  0
 21 20  1  0  0  0  0
 21 28  1  0  0  0  0
 22 30  1  0  0  0  0
 22 21  1  0  0  0  0
 23 18  1  0  0  0  0
 23 32  1  0  0  0  0
 23 22  1  0  0  0  0
 25 19  1  0  0  0  0
 29 22  1  0  0  0  0
 31 23  1  0  0  0  0
M  END
>  <minimizedAffinity>
-4.79447985

$$$$

 OpenBabel03272504313D

 32 34  0  0  0  0  0  0  0  0999 V2000
   37.5260   26.7590   32.5950 C   0  0  0  0  0  0  0  0  0  0  0  0
   37.0660   27.7150   33.5130 C   0  0  0  0  0  0  0  0  0  0  0  0
   37.1360   27.4200   34.8780 C   0  0  0  0  0  0  0  0  0  0  0  0
   37.6490   26.2180   35.2530 N   0  0  0  0  0  0  0  0  0  0  0  0
   38.0880   25.3120   34.3240 C   0  0  0  0  0  0  0  0  0  0  0  0
   38.0230   25.5870   33.0230 N   0  0  0  0  0  0  0  0  0  0  0  0
   36.6710   28.6480   33.1550 H   0  0  0  0  0  0  0  0  0  0  0  0
   36.7850   28.1490   35.5740 H   0  0  0  0  0  0  0  0  0  0  0  0
   38.6230   24.0590   34.7040 N   0  0  0  0  0  0  0  0  0  0  0  0
   37.9030   22.8190   34.5700 C   0  0  0  0  0  3  0  0  0  0  0  0
   38.3140   22.3110   33.6600 H   0  0  0  0  0  0  0  0  0  0  0  0
   38.0330   21.9000   35.7330 C   0  0  0  0  0  3  0  0  0  0  0  0
   38.4280   20.9030   35.4270 H   0  0  0  0  0  0  0  0  0  0  0  0
   38.7100   22.4510   36.8710 N   0  0  0  0  0  0  0  0  0  0  0  0
   38.9930   21.6130   37.4470 H   0  0  0  0  0  0  0  0  0  0  0  0
   39.8830   23.2190   36.6200 C   0  0  0  0  0  2  0  0  0  0  0  0
   39.9390   23.8630   35.2670 C   0  0  0  0  0  2  0  0  0  0  0  0
   37.4880   26.9840   31.1870 N   0  0  0  0  0  0  0  0  0  0  0  0
   38.5900   26.6060   30.3170 C   0  0  0  0  0  0  0  0  0  0  0  0
   38.9520   27.6320   29.3010 C   0  0  0  0  0  0  0  0  0  0  0  0
   37.8830   28.4320   28.7990 N   0  0  0  0  0  0  0  0  0  0  0  0
   36.9710   28.8680   29.8710 C   0  0  0  0  0  0  0  0  0  0  0  0
   36.4290   27.5800   30.4520 C   0  0  0  0  0  0  0  0  0  0  0  0
   39.4770   26.4580   30.9940 H   0  0  0  0  0  0  0  0  0  0  0  0
   38.4250   25.6060   29.8400 H   0  0  0  0  0  0  0  0  0  0  0  0
   39.4150   27.1080   28.4390 H   0  0  0  0  0  0  0  0  0  0  0  0
   39.7490   28.3230   29.6890 H   0  0  0  0  0  0  0  0  0  0  0  0
   38.2990   29.3260   28.4220 H   0  0  0  0  0  0  0  0  0  0  0  0
   36.1480   29.4310   29.3870 H   0  0  0  0  0  0  0  0  0  0  0  0
   37.5030   29.4960   30.5880 H   0  0  0  0  0  0  0  0  0  0  0  0
   35.5360   27.7390   31.0920 H   0  0  0  0  0  0  0  0  0  0  0  0
   36.1600   26.9330   29.5820 H   0  0  0  0  0  0  0  0  0  0  0  0
  1  6  2  0  0  0  0
  1  2  1  0  0  0  0
  2  3  2  0  0  0  0
  3  4  1  0  0  0  0
  3  8  1  0  0  0  0
  5  9  1  0  0  0  0
  5  4  2  0  0  0  0
  6  5  1  0  0  0  0
  7  2  1  0  0  0  0
  9 17  1  0  0  0  0
 10  9  1  0  0  0  0
 10 12  1  0  0  0  0
 11 10  1  0  0  0  0
 12 14  1  0  0  0  0
 13 12  1  0  0  0  0
 14 15  1  0  0  0  0
 16 14  1  0  0  0  0
 17 16  1  0  0  0  0
 18  1  1  0  0  0  0
 19 24  1  0  0  0  0
 19 18  1  0  0  0  0
 20 27  1  0  0  0  0
 20 19  1  0  0  0  0
 21 20  1  0  0  0  0
 21 22  1  0  0  0  0
 22 23  1  0  0  0  0
 22 30  1  0  0  0  0
 23 31  1  0  0  0  0
 23 18  1  0  0  0  0
 25 19  1  0  0  0  0
 26 20  1  0  0  0  0
 28 21  1  0  0  0  0
 29 22  1  0  0  0  0
 32 23  1  0  0  0  0
M  END
>  <minimizedAffinity>
-4.6047163

$$$$
