
 OpenBabel03272510003D

 21 22  0  0  0  0  0  0  0  0999 V2000
   38.3310   31.2220   50.3630 C   0  0  0  0  0  0  0  0  0  0  0  0
   38.5060   31.5450   49.0150 C   0  0  0  0  0  0  0  0  0  0  0  0
   37.5410   31.1090   48.1080 C   0  0  0  0  0  0  0  0  0  0  0  0
   36.4920   30.3980   48.5930 N   0  0  0  0  0  0  0  0  0  0  0  0
   36.3430   30.0990   49.8860 C   0  0  0  0  0  0  0  0  0  0  0  0
   37.2710   30.5170   50.7720 N   0  0  0  0  0  0  0  0  0  0  0  0
   39.1040   31.5750   51.0650 H   0  0  0  0  0  0  0  0  0  0  0  0
   39.3400   32.1120   48.6150 H   0  0  0  0  0  0  0  0  0  0  0  0
   37.5930   31.3640   46.7160 N   0  0  0  0  0  0  0  0  0  0  0  0
   36.8760   30.5710   45.7240 C   0  0  0  0  0  3  0  0  0  0  0  0
   36.0070   30.0480   46.1780 H   0  0  0  0  0  0  0  0  0  0  0  0
   36.3630   31.4120   44.5980 C   0  0  0  0  0  3  0  0  0  0  0  0
   36.1600   30.7310   43.7480 H   0  0  0  0  0  0  0  0  0  0  0  0
   37.2380   32.4510   44.1560 N   0  0  0  0  0  0  0  0  0  0  0  0
   36.7980   33.3740   44.4200 H   0  0  0  0  0  0  0  0  0  0  0  0
   38.5320   32.4250   44.7780 C   0  0  0  0  0  2  0  0  0  0  0  0
   38.4110   32.4790   46.2990 C   0  0  0  0  0  2  0  0  0  0  0  0
   35.1540   29.3140   50.3020 C   0  0  0  0  0  0  0  0  0  0  0  0
   35.1580   29.0420   51.6630 F   0  0  0  0  0  0  0  0  0  0  0  0
   33.9840   30.0160   50.0510 F   0  0  0  0  0  0  0  0  0  0  0  0
   35.0460   28.1190   49.6380 F   0  0  0  0  0  0  0  0  0  0  0  0
  1  6  1  0  0  0  0
  1  7  1  0  0  0  0
  2  1  2  0  0  0  0
  3  4  2  0  0  0  0
  3  2  1  0  0  0  0
  4  5  1  0  0  0  0
  5 18  1  0  0  0  0
  5  6  2  0  0  0  0
  8  2  1  0  0  0  0
  9  3  1  0  0  0  0
 10 11  1  0  0  0  0
 10  9  1  0  0  0  0
 12 10  1  0  0  0  0
 13 12  1  0  0  0  0
 14 15  1  0  0  0  0
 14 12  1  0  0  0  0
 14 16  1  0  0  0  0
 16 17  1  0  0  0  0
 17  9  1  0  0  0  0
 18 19  1  0  0  0  0
 20 18  1  0  0  0  0
 21 18  1  0  0  0  0
M  END
>  <minimizedAffinity>
-5.1802187

>  <minimizedRMSD>
0.508880913

$$$$
