
     RDKit          3D

 39 41  0  0  0  0  0  0  0  0999 V2000
   38.0026   31.3944   47.6236 C   0  0  0  0  0  0  0  0  0  0  0  0
   37.0757   31.3355   48.6701 C   0  0  0  0  0  0  0  0  0  0  0  0
   37.1887   32.3532   49.6178 C   0  0  0  0  0  0  0  0  0  0  0  0
   38.1726   33.3480   49.4987 C   0  0  0  0  0  0  0  0  0  0  0  0
   39.0509   33.3175   48.4150 C   0  0  0  0  0  0  0  0  0  0  0  0
   38.9614   32.3307   47.4724 C   0  0  0  0  0  0  0  0  0  0  0  0
   34.9403   30.3547   47.9895 C   0  0  0  0  0  0  0  0  0  0  0  0
   36.0749   30.3190   48.7866 C   0  0  0  0  0  0  0  0  0  0  0  0
   36.1902   29.2553   49.6985 C   0  0  0  0  0  0  0  0  0  0  0  0
   35.1938   28.3320   49.7470 N   0  0  0  0  0  0  0  0  0  0  0  0
   34.1078   28.4051   48.9537 C   0  0  0  0  0  0  0  0  0  0  0  0
   33.9823   29.4056   48.0843 N   0  0  0  0  0  0  0  0  0  0  0  0
   37.3799   29.1532   50.5846 C   0  0  0  0  0  0  0  0  0  0  0  0
   37.9501   30.4049   46.6336 O   0  0  0  0  0  0  0  0  0  0  0  0
   39.8447   32.3350   46.4215 O   0  0  0  0  0  0  0  0  0  0  0  0
   36.5086   32.3807   50.4611 H   0  0  0  0  0  0  0  0  0  0  0  0
   38.1841   34.0957   50.2804 H   0  0  0  0  0  0  0  0  0  0  0  0
   39.7431   34.1387   48.4600 H   0  0  0  0  0  0  0  0  0  0  0  0
   34.8428   31.1706   47.2837 H   0  0  0  0  0  0  0  0  0  0  0  0
   33.4273   27.5831   49.1370 H   0  0  0  0  0  0  0  0  0  0  0  0
   37.5358   28.1025   50.8935 H   0  0  0  0  0  0  0  0  0  0  0  0
   37.1737   29.7580   51.4915 H   0  0  0  0  0  0  0  0  0  0  0  0
   38.2483   29.5928   50.0592 H   0  0  0  0  0  0  0  0  0  0  0  0
   38.4829   29.5708   46.8501 H   0  0  0  0  0  0  0  0  0  0  0  0
   41.1814   32.6901   44.1738 H   0  0  0  0  0  0  0  0  0  0  0  0
   40.9331   33.5478   44.6991 N   0  0  0  0  0  0  0  0  0  0  0  0
   40.8675   33.1988   46.1182 C   0  0  1  0  0  0  0  0  0  0  0  0
   40.8352   34.4996   46.8878 C   0  0  1  0  0  0  0  0  0  0  0  0
   40.3889   34.4003   47.8938 H   0  0  0  0  0  0  0  0  0  0  0  0
   40.1031   35.4546   46.0801 N   0  0  0  0  0  0  0  0  0  0  0  0
   40.7293   35.8983   45.3714 H   0  0  0  0  0  0  0  0  0  0  0  0
   39.0221   34.8183   45.3376 C   0  0  0  0  0  0  0  0  0  0  0  0
   39.6133   33.9837   44.2333 C   0  0  0  0  0  0  0  0  0  0  0  0
   41.8449   32.7421   46.3404 H   0  0  0  0  0  0  0  0  0  0  0  0
   41.8604   34.9055   46.9789 H   0  0  0  0  0  0  0  0  0  0  0  0
   38.4008   35.6193   44.8974 H   0  0  0  0  0  0  0  0  0  0  0  0
   38.3633   34.2255   46.0217 H   0  0  0  0  0  0  0  0  0  0  0  0
   39.7491   34.5336   43.2970 H   0  0  0  0  0  0  0  0  0  0  0  0
   39.0153   33.0534   44.0718 H   0  0  0  0  0  0  0  0  0  0  0  0
  1  2  2  0
  2  8  1  0
  2  3  1  0
  4  3  2  0
  5  4  1  0
  6  1  1  0
  6  5  2  0
  7 12  2  0
  7  8  1  0
  8  9  2  0
  9 10  1  0
  9 13  1  0
 11 10  2  0
 12 11  1  0
 14  1  1  0
 15  6  1  0
  3 16  1  0
  4 17  1  0
  5 18  1  0
  7 19  1  0
 11 20  1  0
 13 21  1  0
 13 22  1  0
 13 23  1  0
 14 24  1  0
 25 26  1  0
 26 27  1  0
 27 28  1  0
 28 29  1  1
 28 30  1  0
 30 31  1  0
 30 32  1  0
 32 33  1  0
 33 26  1  0
 27 34  1  1
 28 35  1  0
 32 36  1  0
 32 37  1  0
 33 38  1  0
 33 39  1  0
 15 27  1  0
M  ISO  8  16  14  17  14  18  14  19  14  20  14  21   8  22   8  23   8
M  ISO  4  24   3  25   5  29   8  31   5
M  END
>  <DihAtoms>  (1) 
5,14,26,25

>  <DihDeg>  (1) 
117.54126289465438

$$$$
