
     RDKit          3D

 27 28  0  0  0  0  0  0  0  0999 V2000
   38.3084   31.2393   50.1188 C   0  0  0  0  0  0  0  0  0  0  0  0
   38.2944   31.6115   48.7717 C   0  0  0  0  0  0  0  0  0  0  0  0
   37.2020   31.2231   47.9978 C   0  0  0  0  0  0  0  0  0  0  0  0
   36.2197   30.5073   48.6015 N   0  0  0  0  0  0  0  0  0  0  0  0
   36.2519   30.1612   49.8918 C   0  0  0  0  0  0  0  0  0  0  0  0
   37.3037   30.5315   50.6499 N   0  0  0  0  0  0  0  0  0  0  0  0
   35.1195   29.3764   50.4447 C   0  0  0  0  0  0  0  0  0  0  0  0
   35.2684   29.1335   51.8041 F   0  0  0  0  0  0  0  0  0  0  0  0
   33.9238   30.0633   50.3020 F   0  0  0  0  0  0  0  0  0  0  0  0
   34.9573   28.1650   49.8216 F   0  0  0  0  0  0  0  0  0  0  0  0
   39.1787   31.5547   50.7146 H   0  0  0  0  0  0  0  0  0  0  0  0
   39.0721   32.1830   48.2767 H   0  0  0  0  0  0  0  0  0  0  0  0
   37.0589   31.5314   46.6228 N   0  0  0  0  0  0  0  0  0  0  0  0
   37.8074   30.8612   45.5652 C   0  0  2  0  0  0  0  0  0  0  0  0
   38.1618   29.8609   45.8931 H   0  0  0  0  0  0  0  0  0  0  0  0
   36.9844   30.6696   44.3313 C   0  0  1  0  0  0  0  0  0  0  0  0
   37.6882   30.4974   43.4922 H   0  0  0  0  0  0  0  0  0  0  0  0
   36.1211   31.7563   43.9907 N   0  0  0  0  0  0  0  0  0  0  0  0
   35.1268   31.4322   44.1342 H   0  0  0  0  0  0  0  0  0  0  0  0
   36.2930   32.9174   44.8183 C   0  0  0  0  0  0  0  0  0  0  0  0
   36.1111   32.5705   46.2945 C   0  0  0  0  0  0  0  0  0  0  0  0
   38.7429   31.4422   45.3387 H   0  0  0  0  0  0  0  0  0  0  0  0
   36.4266   29.7011   44.4542 H   0  0  0  0  0  0  0  0  0  0  0  0
   35.5735   33.6910   44.4973 H   0  0  0  0  0  0  0  0  0  0  0  0
   37.3448   33.3088   44.7094 H   0  0  0  0  0  0  0  0  0  0  0  0
   36.2924   33.4881   46.8904 H   0  0  0  0  0  0  0  0  0  0  0  0
   35.0546   32.2682   46.3998 H   0  0  0  0  0  0  0  0  0  0  0  0
  1  6  2  0
  2  1  1  0
  3  4  1  0
  3  2  2  0
  4  5  2  0
  5  7  1  0
  5  6  1  0
  7  8  1  0
  9  7  1  0
 10  7  1  0
  1 11  1  0
  2 12  1  0
 13 14  1  0
 14 15  1  1
 14 16  1  0
 16 17  1  6
 16 18  1  0
 18 19  1  0
 18 20  1  0
 20 21  1  0
 21 13  1  0
 14 22  1  0
 16 23  1  0
 20 24  1  0
 20 25  1  0
 21 26  1  0
 21 27  1  0
  3 13  1  0
M  ISO  5  11  14  12  14  15   8  17   8  19   5
M  END
>  <DihAtoms>  (1) 
3,2,12,13

>  <DihDeg>  (1) 
-0.007330846336743445

$$$$
