
     RDKit          3D

 27 28  0  0  0  0  0  0  0  0999 V2000
   38.3084   31.2393   50.1188 C   0  0  0  0  0  0  0  0  0  0  0  0
   38.2944   31.6115   48.7717 C   0  0  0  0  0  0  0  0  0  0  0  0
   37.2020   31.2231   47.9978 C   0  0  0  0  0  0  0  0  0  0  0  0
   36.2197   30.5073   48.6015 N   0  0  0  0  0  0  0  0  0  0  0  0
   36.2519   30.1612   49.8918 C   0  0  0  0  0  0  0  0  0  0  0  0
   37.3037   30.5315   50.6499 N   0  0  0  0  0  0  0  0  0  0  0  0
   35.1195   29.3764   50.4447 C   0  0  0  0  0  0  0  0  0  0  0  0
   35.2684   29.1335   51.8041 F   0  0  0  0  0  0  0  0  0  0  0  0
   33.9238   30.0633   50.3020 F   0  0  0  0  0  0  0  0  0  0  0  0
   34.9573   28.1650   49.8216 F   0  0  0  0  0  0  0  0  0  0  0  0
   39.1787   31.5547   50.7146 H   0  0  0  0  0  0  0  0  0  0  0  0
   39.0721   32.1830   48.2767 H   0  0  0  0  0  0  0  0  0  0  0  0
   37.0589   31.5314   46.6228 N   0  0  0  0  0  0  0  0  0  0  0  0
   35.9480   32.3077   46.0830 C   0  0  2  0  0  0  0  0  0  0  0  0
   35.4864   32.9486   46.8639 H   0  0  0  0  0  0  0  0  0  0  0  0
   36.3791   33.1975   44.9611 C   0  0  1  0  0  0  0  0  0  0  0  0
   35.4685   33.4672   44.3891 H   0  0  0  0  0  0  0  0  0  0  0  0
   37.3369   32.6359   44.0614 N   0  0  0  0  0  0  0  0  0  0  0  0
   38.2457   33.1557   44.1960 H   0  0  0  0  0  0  0  0  0  0  0  0
   37.6221   31.2497   44.3060 C   0  0  0  0  0  0  0  0  0  0  0  0
   38.0898   31.0314   45.7434 C   0  0  0  0  0  0  0  0  0  0  0  0
   35.1276   31.6132   45.7533 H   0  0  0  0  0  0  0  0  0  0  0  0
   36.7360   34.1592   45.4216 H   0  0  0  0  0  0  0  0  0  0  0  0
   38.3836   30.9113   43.5816 H   0  0  0  0  0  0  0  0  0  0  0  0
   36.6815   30.6407   44.1801 H   0  0  0  0  0  0  0  0  0  0  0  0
   38.2576   29.9452   45.8915 H   0  0  0  0  0  0  0  0  0  0  0  0
   39.0524   31.5654   45.8261 H   0  0  0  0  0  0  0  0  0  0  0  0
  1  6  2  0
  2  1  1  0
  3  4  1  0
  3  2  2  0
  4  5  2  0
  5  7  1  0
  5  6  1  0
  7  8  1  0
  9  7  1  0
 10  7  1  0
  1 11  1  0
  2 12  1  0
 13 14  1  0
 14 15  1  1
 14 16  1  0
 16 17  1  6
 16 18  1  0
 18 19  1  0
 18 20  1  0
 20 21  1  0
 21 13  1  0
 14 22  1  0
 16 23  1  0
 20 24  1  0
 20 25  1  0
 21 26  1  0
 21 27  1  0
  3 13  1  0
M  ISO  5  11  14  12  14  15   8  17   8  19   5
M  END
>  <DihAtoms>  (1) 
3,2,12,13

>  <DihDeg>  (1) 
-0.007330846336743445

$$$$
