
 OpenBabel03272505293D

 40 43  0  0  0  0  0  0  0  0999 V2000
   37.3320   31.1380   47.1130 N   0  0  0  0  0  0  0  0  0  0  0  0
   36.6880   30.9080   45.9460 C   0  0  0  0  0  0  0  0  0  0  0  0
   37.1380   31.4410   44.7370 C   0  0  0  0  0  0  0  0  0  0  0  0
   38.2950   32.2340   44.7660 C   0  0  0  0  0  0  0  0  0  0  0  0
   38.7310   32.7300   43.7100 O   0  0  0  0  0  0  0  0  0  0  0  0
   38.9380   32.4590   45.9620 N   0  0  0  0  0  0  0  0  0  0  0  0
   38.4130   31.8980   47.0390 C   0  0  0  0  0  0  0  0  0  0  0  0
   39.0320   32.1310   48.1030 O   0  0  0  0  0  0  0  0  0  0  0  0
   35.7950   30.3000   45.8970 H   0  0  0  0  0  0  0  0  0  0  0  0
   36.4800   31.2220   43.4560 C   0  0  0  0  0  0  0  0  0  0  0  0
   36.7140   30.1120   42.6750 C   0  0  0  0  0  0  0  0  0  0  0  0
   36.0970   29.8880   41.4550 C   0  0  0  0  0  0  0  0  0  0  0  0
   35.1930   30.8320   40.9880 C   0  0  0  0  0  0  0  0  0  0  0  0
   34.9940   31.9280   41.8070 C   0  0  0  0  0  0  0  0  0  0  0  0
   35.6110   32.0920   42.9670 N   0  0  0  0  0  0  0  0  0  0  0  0
   37.4110   29.3530   43.0030 H   0  0  0  0  0  0  0  0  0  0  0  0
   36.3240   28.9830   40.8790 H   0  0  0  0  0  0  0  0  0  0  0  0
   34.7170   30.6640   40.0500 H   0  0  0  0  0  0  0  0  0  0  0  0
   34.0800   32.9350   41.3910 N   0  0  0  0  0  0  0  0  0  0  0  0
   32.7570   33.1840   41.8850 C   0  0  0  0  0  0  0  0  0  0  0  0
   32.3950   32.4980   42.6470 H   0  0  0  0  0  0  0  0  0  0  0  0
   32.7520   34.6110   42.4490 C   0  0  0  0  0  0  0  0  0  0  0  0
   33.4590   34.6290   43.2880 H   0  0  0  0  0  0  0  0  0  0  0  0
   33.1370   35.5620   41.4490 N   0  0  0  0  0  0  0  0  0  0  0  0
   32.4860   35.5800   40.6510 H   0  0  0  0  0  0  0  0  0  0  0  0
   34.4620   35.2860   40.9130 C   0  0  0  0  0  0  0  0  0  0  0  0
   34.4010   33.8920   40.3520 C   0  0  0  0  0  0  0  0  0  0  0  0
   37.2630   29.4120   50.4040 C   0  0  0  0  0  0  0  0  0  0  0  0
   37.7310   29.9530   49.1900 C   0  0  0  0  0  0  0  0  0  0  0  0
   36.8740   30.6020   48.3150 C   0  0  0  0  0  0  0  0  0  0  0  0
   35.5740   30.6920   48.6750 N   0  0  0  0  0  0  0  0  0  0  0  0
   35.1030   30.1780   49.8400 C   0  0  0  0  0  0  0  0  0  0  0  0
   35.9680   29.5390   50.6930 N   0  0  0  0  0  0  0  0  0  0  0  0
   37.9730   28.9110   51.0580 H   0  0  0  0  0  0  0  0  0  0  0  0
   38.7790   29.8820   48.8950 H   0  0  0  0  0  0  0  0  0  0  0  0
   34.0620   30.2490   50.1320 H   0  0  0  0  0  0  0  0  0  0  0  0
   40.1280   33.2780   45.9770 C   0  0  0  0  0  0  0  0  0  0  0  0
   40.0560   34.2560   45.0500 F   0  0  0  0  0  0  0  0  0  0  0  0
   41.2920   32.5570   45.7080 F   0  0  0  0  0  0  0  0  0  0  0  0
   40.2280   33.8830   47.2330 F   0  0  0  0  0  0  0  0  0  0  0  0
  1 30  1  0  0  0  0
  2  1  1  0  0  0  0
  3  4  1  0  0  0  0
  3  2  2  0  0  0  0
  4  6  1  0  0  0  0
  5  4  2  0  0  0  0
  6 37  1  0  0  0  0
  6  7  1  0  0  0  0
  7  1  1  0  0  0  0
  7  8  2  0  0  0  0
  9  2  1  0  0  0  0
 10  3  1  0  0  0  0
 11 16  1  0  0  0  0
 11 10  2  0  0  0  0
 12 11  1  0  0  0  0
 13 12  2  0  0  0  0
 13 14  1  0  0  0  0
 14 15  2  0  0  0  0
 15 10  1  0  0  0  0
 17 12  1  0  0  0  0
 18 13  1  0  0  0  0
 19 14  1  0  0  0  0
 19 20  1  0  0  0  0
 20 22  1  0  0  0  0
 20 21  1  0  0  0  0
 22 23  1  0  0  0  0
 24 22  1  0  0  0  0
 25 24  1  0  0  0  0
 26 24  1  0  0  0  0
 27 26  1  0  0  0  0
 27 19  1  0  0  0  0
 28 33  1  0  0  0  0
 28 34  1  0  0  0  0
 29 28  2  0  0  0  0
 30 31  2  0  0  0  0
 30 29  1  0  0  0  0
 31 32  1  0  0  0  0
 32 36  1  0  0  0  0
 32 33  2  0  0  0  0
 35 29  1  0  0  0  0
 37 40  1  0  0  0  0
 38 37  1  0  0  0  0
 39 37  1  0  0  0  0
M  END
>  <minimizedAffinity>
-6.90453482

>  <minimizedRMSD>
0.435905784

$$$$
