
 OpenBabel03272505333D

 40 43  0  0  0  0  0  0  0  0999 V2000
   37.9790   23.8580   34.2970 N   0  0  0  0  0  0  0  0  0  0  0  0
   37.9030   25.1310   33.8450 C   0  0  0  0  0  0  0  0  0  0  0  0
   37.2860   25.4490   32.6350 C   0  0  0  0  0  0  0  0  0  0  0  0
   36.7390   24.3960   31.8870 C   0  0  0  0  0  0  0  0  0  0  0  0
   36.1800   24.6350   30.8000 O   0  0  0  0  0  0  0  0  0  0  0  0
   36.8240   23.1060   32.3600 N   0  0  0  0  0  0  0  0  0  0  0  0
   37.4340   22.9340   33.5210 C   0  0  0  0  0  0  0  0  0  0  0  0
   37.4880   21.7440   33.9110 O   0  0  0  0  0  0  0  0  0  0  0  0
   38.3170   25.9590   34.4030 H   0  0  0  0  0  0  0  0  0  0  0  0
   37.1790   26.8020   32.1060 C   0  0  0  0  0  0  0  0  0  0  0  0
   37.9750   27.2720   31.0870 C   0  0  0  0  0  0  0  0  0  0  0  0
   37.8860   28.5560   30.5720 C   0  0  0  0  0  0  0  0  0  0  0  0
   36.9440   29.4200   31.1110 C   0  0  0  0  0  0  0  0  0  0  0  0
   36.1700   28.9010   32.1330 C   0  0  0  0  0  0  0  0  0  0  0  0
   36.2970   27.6640   32.5870 N   0  0  0  0  0  0  0  0  0  0  0  0
   38.7220   26.6300   30.6390 H   0  0  0  0  0  0  0  0  0  0  0  0
   38.5490   28.8720   29.7580 H   0  0  0  0  0  0  0  0  0  0  0  0
   36.8720   30.4080   30.7190 H   0  0  0  0  0  0  0  0  0  0  0  0
   35.1830   29.7320   32.7320 N   0  0  0  0  0  0  0  0  0  0  0  0
   33.7610   29.6840   32.5510 C   0  0  0  0  0  3  0  0  0  0  0  0
   33.3950   28.9440   31.8430 H   0  0  0  0  0  0  0  0  0  0  0  0
   33.1450   29.4110   33.9290 C   0  0  0  0  0  3  0  0  0  0  0  0
   33.5000   28.4250   34.2520 H   0  0  0  0  0  0  0  0  0  0  0  0
   33.5290   30.4160   34.8750 N   0  0  0  0  0  0  0  0  0  0  0  0
   33.2000   31.3550   34.6070 H   0  0  0  0  0  0  0  0  0  0  0  0
   34.9750   30.4980   35.0270 C   0  0  0  0  0  2  0  0  0  0  0  0
   35.5220   30.7930   33.6580 C   0  0  0  0  0  2  0  0  0  0  0  0
   38.5630   23.3760   37.9360 C   0  0  0  0  0  0  0  0  0  0  0  0
   37.9320   23.6880   36.7150 C   0  0  0  0  0  0  0  0  0  0  0  0
   38.5980   23.5500   35.5070 C   0  0  0  0  0  0  0  0  0  0  0  0
   39.8740   23.1070   35.5510 N   0  0  0  0  0  0  0  0  0  0  0  0
   40.4990   22.8000   36.7160 C   0  0  0  0  0  0  0  0  0  0  0  0
   39.8230   22.9430   37.9030 N   0  0  0  0  0  0  0  0  0  0  0  0
   38.0000   23.5010   38.8580 H   0  0  0  0  0  0  0  0  0  0  0  0
   36.9030   24.0470   36.6740 H   0  0  0  0  0  0  0  0  0  0  0  0
   41.5220   22.4440   36.7550 H   0  0  0  0  0  0  0  0  0  0  0  0
   36.2570   22.0310   31.5790 C   0  0  0  0  0  0  0  0  0  0  0  0
   35.2850   22.4860   30.7600 F   0  0  0  0  0  0  0  0  0  0  0  0
   35.6820   21.0300   32.3640 F   0  0  0  0  0  0  0  0  0  0  0  0
   37.2680   21.4850   30.7850 F   0  0  0  0  0  0  0  0  0  0  0  0
  1 30  1  0  0  0  0
  2  1  1  0  0  0  0
  2  9  1  0  0  0  0
  3  2  2  0  0  0  0
  4  6  1  0  0  0  0
  4  3  1  0  0  0  0
  5  4  2  0  0  0  0
  6  7  1  0  0  0  0
  7  8  2  0  0  0  0
  7  1  1  0  0  0  0
 10 15  1  0  0  0  0
 10  3  1  0  0  0  0
 11 10  2  0  0  0  0
 12 11  1  0  0  0  0
 12 13  2  0  0  0  0
 13 14  1  0  0  0  0
 14 15  2  0  0  0  0
 14 19  1  0  0  0  0
 16 11  1  0  0  0  0
 17 12  1  0  0  0  0
 18 13  1  0  0  0  0
 19 27  1  0  0  0  0
 20 19  1  0  0  0  0
 20 22  1  0  0  0  0
 21 20  1  0  0  0  0
 22 23  1  0  0  0  0
 22 24  1  0  0  0  0
 24 26  1  0  0  0  0
 25 24  1  0  0  0  0
 27 26  1  0  0  0  0
 28 34  1  0  0  0  0
 29 28  2  0  0  0  0
 30 31  2  0  0  0  0
 30 29  1  0  0  0  0
 31 32  1  0  0  0  0
 32 36  1  0  0  0  0
 32 33  2  0  0  0  0
 33 28  1  0  0  0  0
 35 29  1  0  0  0  0
 37  6  1  0  0  0  0
 37 39  1  0  0  0  0
 38 37  1  0  0  0  0
 40 37  1  0  0  0  0
M  END
>  <minimizedAffinity>
-6.6945982

$$$$

 OpenBabel03272505333D

 40 43  0  0  0  0  0  0  0  0999 V2000
   38.0460   23.5630   34.2630 N   0  0  0  0  0  0  0  0  0  0  0  0
   38.0540   24.8130   33.7450 C   0  0  0  0  0  0  0  0  0  0  0  0
   37.3960   25.1230   32.5540 C   0  0  0  0  0  0  0  0  0  0  0  0
   36.7150   24.0870   31.8980 C   0  0  0  0  0  0  0  0  0  0  0  0
   36.1150   24.3200   30.8320 O   0  0  0  0  0  0  0  0  0  0  0  0
   36.7160   22.8210   32.4370 N   0  0  0  0  0  0  0  0  0  0  0  0
   37.3770   22.6540   33.5710 C   0  0  0  0  0  0  0  0  0  0  0  0
   37.3500   21.4860   34.0230 O   0  0  0  0  0  0  0  0  0  0  0  0
   38.5710   25.6280   34.2320 H   0  0  0  0  0  0  0  0  0  0  0  0
   37.3760   26.4520   31.9580 C   0  0  0  0  0  0  0  0  0  0  0  0
   36.4490   27.4110   32.2990 C   0  0  0  0  0  0  0  0  0  0  0  0
   36.4150   28.6800   31.7430 C   0  0  0  0  0  0  0  0  0  0  0  0
   37.3660   29.0070   30.7860 C   0  0  0  0  0  0  0  0  0  0  0  0
   38.2730   28.0100   30.4770 C   0  0  0  0  0  0  0  0  0  0  0  0
   38.2600   26.8130   31.0420 N   0  0  0  0  0  0  0  0  0  0  0  0
   35.6910   27.1960   33.0410 H   0  0  0  0  0  0  0  0  0  0  0  0
   35.6520   29.4010   32.0570 H   0  0  0  0  0  0  0  0  0  0  0  0
   37.3440   29.9810   30.3550 H   0  0  0  0  0  0  0  0  0  0  0  0
   39.2770   28.2760   29.5050 N   0  0  0  0  0  0  0  0  0  0  0  0
   40.6700   28.5340   29.7230 C   0  0  0  0  0  3  0  0  0  0  0  0
   40.9940   28.5620   30.7610 H   0  0  0  0  0  0  0  0  0  0  0  0
   41.4480   27.4380   28.9830 C   0  0  0  0  0  3  0  0  0  0  0  0
   41.1800   26.4810   29.4500 H   0  0  0  0  0  0  0  0  0  0  0  0
   41.1190   27.4230   27.5890 N   0  0  0  0  0  0  0  0  0  0  0  0
   41.3690   28.3040   27.1160 H   0  0  0  0  0  0  0  0  0  0  0  0
   39.6970   27.2070   27.3650 C   0  0  0  0  0  2  0  0  0  0  0  0
   38.9880   28.3210   28.0860 C   0  0  0  0  0  2  0  0  0  0  0  0
   38.8280   23.2700   37.8840 C   0  0  0  0  0  0  0  0  0  0  0  0
   38.1550   23.5760   36.6840 C   0  0  0  0  0  0  0  0  0  0  0  0
   38.7070   23.2630   35.4520 C   0  0  0  0  0  0  0  0  0  0  0  0
   39.9140   22.6550   35.4510 N   0  0  0  0  0  0  0  0  0  0  0  0
   40.5790   22.3520   36.5950 C   0  0  0  0  0  0  0  0  0  0  0  0
   40.0160   22.6700   37.8060 N   0  0  0  0  0  0  0  0  0  0  0  0
   38.3550   23.5360   38.8270 H   0  0  0  0  0  0  0  0  0  0  0  0
   37.1810   24.0660   36.6800 H   0  0  0  0  0  0  0  0  0  0  0  0
   41.5470   21.8650   36.5980 H   0  0  0  0  0  0  0  0  0  0  0  0
   36.0110   21.7630   31.7500 C   0  0  0  0  0  0  0  0  0  0  0  0
   35.3030   22.2480   30.7090 F   0  0  0  0  0  0  0  0  0  0  0  0
   35.1050   21.0880   32.5700 F   0  0  0  0  0  0  0  0  0  0  0  0
   36.9530   20.8620   31.2480 F   0  0  0  0  0  0  0  0  0  0  0  0
  1 30  1  0  0  0  0
  2  9  1  0  0  0  0
  2  1  1  0  0  0  0
  3  2  2  0  0  0  0
  4  6  1  0  0  0  0
  4  3  1  0  0  0  0
  5  4  2  0  0  0  0
  6  7  1  0  0  0  0
  7  8  2  0  0  0  0
  7  1  1  0  0  0  0
 10 11  1  0  0  0  0
 10  3  1  0  0  0  0
 11 16  1  0  0  0  0
 12 17  1  0  0  0  0
 12 11  2  0  0  0  0
 13 12  1  0  0  0  0
 14 13  2  0  0  0  0
 14 15  1  0  0  0  0
 15 10  2  0  0  0  0
 18 13  1  0  0  0  0
 19 20  1  0  0  0  0
 19 14  1  0  0  0  0
 20 21  1  0  0  0  0
 22 23  1  0  0  0  0
 22 20  1  0  0  0  0
 24 22  1  0  0  0  0
 25 24  1  0  0  0  0
 26 24  1  0  0  0  0
 26 27  1  0  0  0  0
 27 19  1  0  0  0  0
 28 34  1  0  0  0  0
 29 28  2  0  0  0  0
 30 29  1  0  0  0  0
 31 30  2  0  0  0  0
 31 32  1  0  0  0  0
 32 36  1  0  0  0  0
 32 33  2  0  0  0  0
 33 28  1  0  0  0  0
 35 29  1  0  0  0  0
 37  6  1  0  0  0  0
 37 39  1  0  0  0  0
 38 37  1  0  0  0  0
 40 37  1  0  0  0  0
M  END
>  <minimizedAffinity>
-6.50374031

$$$$

 OpenBabel03272505333D

 40 43  0  0  0  0  0  0  0  0999 V2000
   37.0810   23.2930   32.6740 N   0  0  0  0  0  0  0  0  0  0  0  0
   36.7900   24.4820   32.0970 C   0  0  0  0  0  0  0  0  0  0  0  0
   37.2160   25.6920   32.6460 C   0  0  0  0  0  0  0  0  0  0  0  0
   37.9660   25.6420   33.8310 C   0  0  0  0  0  0  0  0  0  0  0  0
   38.3650   26.6990   34.3550 O   0  0  0  0  0  0  0  0  0  0  0  0
   38.2530   24.4250   34.4060 N   0  0  0  0  0  0  0  0  0  0  0  0
   37.7930   23.3490   33.7890 C   0  0  0  0  0  0  0  0  0  0  0  0
   38.0780   22.2650   34.3480 O   0  0  0  0  0  0  0  0  0  0  0  0
   36.2150   24.5480   31.1850 H   0  0  0  0  0  0  0  0  0  0  0  0
   36.9290   26.9970   32.0630 C   0  0  0  0  0  0  0  0  0  0  0  0
   37.5210   27.4440   30.9040 C   0  0  0  0  0  0  0  0  0  0  0  0
   37.2600   28.6810   30.3360 C   0  0  0  0  0  0  0  0  0  0  0  0
   36.3520   29.5190   30.9670 C   0  0  0  0  0  0  0  0  0  0  0  0
   35.7860   29.0250   32.1270 C   0  0  0  0  0  0  0  0  0  0  0  0
   36.0720   27.8320   32.6270 N   0  0  0  0  0  0  0  0  0  0  0  0
   38.2340   26.8210   30.3810 H   0  0  0  0  0  0  0  0  0  0  0  0
   37.7630   28.9800   29.4090 H   0  0  0  0  0  0  0  0  0  0  0  0
   36.1480   30.4710   30.5340 H   0  0  0  0  0  0  0  0  0  0  0  0
   34.8460   29.8310   32.8270 N   0  0  0  0  0  0  0  0  0  0  0  0
   33.4210   29.6810   32.8790 C   0  0  0  0  0  3  0  0  0  0  0  0
   33.0040   28.8720   32.2830 H   0  0  0  0  0  0  0  0  0  0  0  0
   33.0470   29.4660   34.3510 C   0  0  0  0  0  3  0  0  0  0  0  0
   33.5200   28.5290   34.6710 H   0  0  0  0  0  0  0  0  0  0  0  0
   33.4990   30.5570   35.1630 N   0  0  0  0  0  0  0  0  0  0  0  0
   33.0650   31.4520   34.8960 H   0  0  0  0  0  0  0  0  0  0  0  0
   34.9410   30.7400   35.0770 C   0  0  0  0  0  2  0  0  0  0  0  0
   35.2460   30.9730   33.6230 C   0  0  0  0  0  2  0  0  0  0  0  0
   35.0030   20.3100   31.9030 C   0  0  0  0  0  0  0  0  0  0  0  0
   35.4330   21.5270   32.4670 C   0  0  0  0  0  0  0  0  0  0  0  0
   36.6510   22.0900   32.1190 C   0  0  0  0  0  0  0  0  0  0  0  0
   37.4060   21.4220   31.2180 N   0  0  0  0  0  0  0  0  0  0  0  0
   37.0090   20.2490   30.6620 C   0  0  0  0  0  0  0  0  0  0  0  0
   35.8000   19.7080   31.0200 N   0  0  0  0  0  0  0  0  0  0  0  0
   34.0400   19.9070   32.2080 H   0  0  0  0  0  0  0  0  0  0  0  0
   34.8280   22.0690   33.1950 H   0  0  0  0  0  0  0  0  0  0  0  0
   37.6120   19.7110   29.9390 H   0  0  0  0  0  0  0  0  0  0  0  0
   39.0250   24.3880   35.6260 C   0  0  0  0  0  0  0  0  0  0  0  0
   38.9700   23.1660   36.1980 F   0  0  0  0  0  0  0  0  0  0  0  0
   38.5770   25.2990   36.5840 F   0  0  0  0  0  0  0  0  0  0  0  0
   40.3590   24.6550   35.3100 F   0  0  0  0  0  0  0  0  0  0  0  0
  1  7  1  0  0  0  0
  2  3  2  0  0  0  0
  2  1  1  0  0  0  0
  3  4  1  0  0  0  0
  4  5  2  0  0  0  0
  4  6  1  0  0  0  0
  6 37  1  0  0  0  0
  7  8  2  0  0  0  0
  7  6  1  0  0  0  0
  9  2  1  0  0  0  0
 10 15  1  0  0  0  0
 10  3  1  0  0  0  0
 11 10  2  0  0  0  0
 12 11  1  0  0  0  0
 12 13  2  0  0  0  0
 13 14  1  0  0  0  0
 14 15  2  0  0  0  0
 14 19  1  0  0  0  0
 16 11  1  0  0  0  0
 17 12  1  0  0  0  0
 18 13  1  0  0  0  0
 19 20  1  0  0  0  0
 19 27  1  0  0  0  0
 20 22  1  0  0  0  0
 21 20  1  0  0  0  0
 22 23  1  0  0  0  0
 22 24  1  0  0  0  0
 25 24  1  0  0  0  0
 26 24  1  0  0  0  0
 27 26  1  0  0  0  0
 28 34  1  0  0  0  0
 28 29  1  0  0  0  0
 29 35  1  0  0  0  0
 30 29  2  0  0  0  0
 30  1  1  0  0  0  0
 31 30  1  0  0  0  0
 32 33  1  0  0  0  0
 32 31  2  0  0  0  0
 33 28  2  0  0  0  0
 36 32  1  0  0  0  0
 37 38  1  0  0  0  0
 37 39  1  0  0  0  0
 40 37  1  0  0  0  0
M  END
>  <minimizedAffinity>
-6.44440651

$$$$

 OpenBabel03272505333D

 40 43  0  0  0  0  0  0  0  0999 V2000
   35.4970   30.1070   33.2010 N   0  0  0  0  0  0  0  0  0  0  0  0
   35.5710   28.7570   33.1430 C   0  0  0  0  0  0  0  0  0  0  0  0
   36.0730   28.0920   32.0240 C   0  0  0  0  0  0  0  0  0  0  0  0
   36.5060   28.8740   30.9420 C   0  0  0  0  0  0  0  0  0  0  0  0
   36.9600   28.3210   29.9230 O   0  0  0  0  0  0  0  0  0  0  0  0
   36.4240   30.2460   31.0160 N   0  0  0  0  0  0  0  0  0  0  0  0
   35.9290   30.7560   32.1310 C   0  0  0  0  0  0  0  0  0  0  0  0
   35.8730   32.0080   32.1520 O   0  0  0  0  0  0  0  0  0  0  0  0
   35.2440   28.1330   33.9630 H   0  0  0  0  0  0  0  0  0  0  0  0
   36.1730   26.6430   31.9140 C   0  0  0  0  0  0  0  0  0  0  0  0
   35.2920   25.8860   31.1760 C   0  0  0  0  0  0  0  0  0  0  0  0
   35.3720   24.5070   31.0600 C   0  0  0  0  0  0  0  0  0  0  0  0
   36.3960   23.8480   31.7250 C   0  0  0  0  0  0  0  0  0  0  0  0
   37.2540   24.6510   32.4530 C   0  0  0  0  0  0  0  0  0  0  0  0
   37.1310   25.9680   32.5290 N   0  0  0  0  0  0  0  0  0  0  0  0
   34.4800   26.3620   30.6420 H   0  0  0  0  0  0  0  0  0  0  0  0
   34.6400   23.9600   30.4560 H   0  0  0  0  0  0  0  0  0  0  0  0
   36.4620   22.7880   31.6390 H   0  0  0  0  0  0  0  0  0  0  0  0
   38.3270   24.0420   33.1600 N   0  0  0  0  0  0  0  0  0  0  0  0
   39.7200   24.0370   32.8170 C   0  0  0  0  0  3  0  0  0  0  0  0
   39.9830   24.5320   31.8840 H   0  0  0  0  0  0  0  0  0  0  0  0
   40.4670   24.7130   33.9730 C   0  0  0  0  0  3  0  0  0  0  0  0
   40.1120   25.7500   34.0250 H   0  0  0  0  0  0  0  0  0  0  0  0
   40.2200   24.0370   35.2120 N   0  0  0  0  0  0  0  0  0  0  0  0
   40.5530   23.0620   35.2020 H   0  0  0  0  0  0  0  0  0  0  0  0
   38.8020   24.0000   35.5410 C   0  0  0  0  0  2  0  0  0  0  0  0
   38.1260   23.3060   34.3910 C   0  0  0  0  0  2  0  0  0  0  0  0
   35.3040   31.8000   36.5030 C   0  0  0  0  0  0  0  0  0  0  0  0
   35.8190   31.1390   35.3700 C   0  0  0  0  0  0  0  0  0  0  0  0
   34.9930   30.7610   34.3230 C   0  0  0  0  0  0  0  0  0  0  0  0
   33.6780   31.0520   34.4360 N   0  0  0  0  0  0  0  0  0  0  0  0
   33.1620   31.6880   35.5180 C   0  0  0  0  0  0  0  0  0  0  0  0
   33.9960   32.0550   36.5450 N   0  0  0  0  0  0  0  0  0  0  0  0
   35.9910   32.0770   37.3000 H   0  0  0  0  0  0  0  0  0  0  0  0
   36.8790   30.9020   35.2750 H   0  0  0  0  0  0  0  0  0  0  0  0
   32.1080   31.9230   35.6110 H   0  0  0  0  0  0  0  0  0  0  0  0
   36.8720   31.0380   29.8950 C   0  0  0  0  0  0  0  0  0  0  0  0
   37.0320   30.2750   28.7930 F   0  0  0  0  0  0  0  0  0  0  0  0
   38.0960   31.6690   30.1260 F   0  0  0  0  0  0  0  0  0  0  0  0
   35.8940   31.9970   29.6160 F   0  0  0  0  0  0  0  0  0  0  0  0
  1 30  1  0  0  0  0
  2  1  1  0  0  0  0
  2  9  1  0  0  0  0
  3  2  2  0  0  0  0
  4  6  1  0  0  0  0
  4  3  1  0  0  0  0
  5  4  2  0  0  0  0
  6  7  1  0  0  0  0
  7  8  2  0  0  0  0
  7  1  1  0  0  0  0
 10  3  1  0  0  0  0
 10 15  1  0  0  0  0
 11 10  2  0  0  0  0
 12 11  1  0  0  0  0
 12 13  2  0  0  0  0
 13 14  1  0  0  0  0
 14 15  2  0  0  0  0
 14 19  1  0  0  0  0
 16 11  1  0  0  0  0
 17 12  1  0  0  0  0
 18 13  1  0  0  0  0
 19 27  1  0  0  0  0
 20 19  1  0  0  0  0
 20 22  1  0  0  0  0
 21 20  1  0  0  0  0
 22 23  1  0  0  0  0
 22 24  1  0  0  0  0
 24 26  1  0  0  0  0
 25 24  1  0  0  0  0
 27 26  1  0  0  0  0
 28 33  1  0  0  0  0
 28 34  1  0  0  0  0
 29 28  2  0  0  0  0
 30 31  2  0  0  0  0
 30 29  1  0  0  0  0
 31 32  1  0  0  0  0
 32 36  1  0  0  0  0
 32 33  2  0  0  0  0
 35 29  1  0  0  0  0
 37 39  1  0  0  0  0
 37  6  1  0  0  0  0
 38 37  1  0  0  0  0
 40 37  1  0  0  0  0
M  END
>  <minimizedAffinity>
-6.30797005

$$$$

 OpenBabel03272505333D

 40 43  0  0  0  0  0  0  0  0999 V2000
   37.1230   25.1380   32.4180 N   0  0  0  0  0  0  0  0  0  0  0  0
   37.7740   24.9450   33.5880 C   0  0  0  0  0  0  0  0  0  0  0  0
   37.8490   23.6900   34.1930 C   0  0  0  0  0  0  0  0  0  0  0  0
   37.2200   22.6170   33.5450 C   0  0  0  0  0  0  0  0  0  0  0  0
   37.2620   21.4790   34.0510 O   0  0  0  0  0  0  0  0  0  0  0  0
   36.5610   22.8290   32.3560 N   0  0  0  0  0  0  0  0  0  0  0  0
   36.5610   24.0650   31.8850 C   0  0  0  0  0  0  0  0  0  0  0  0
   35.9480   24.2100   30.8010 O   0  0  0  0  0  0  0  0  0  0  0  0
   38.2680   25.7560   34.1060 H   0  0  0  0  0  0  0  0  0  0  0  0
   38.5390   23.4320   35.4500 C   0  0  0  0  0  0  0  0  0  0  0  0
   37.9640   23.6610   36.6800 C   0  0  0  0  0  0  0  0  0  0  0  0
   38.6040   23.4210   37.8850 C   0  0  0  0  0  0  0  0  0  0  0  0
   39.8990   22.9220   37.8560 C   0  0  0  0  0  0  0  0  0  0  0  0
   40.4320   22.7100   36.5990 C   0  0  0  0  0  0  0  0  0  0  0  0
   39.7740   22.9560   35.4770 N   0  0  0  0  0  0  0  0  0  0  0  0
   36.9560   24.0500   36.7450 H   0  0  0  0  0  0  0  0  0  0  0  0
   38.0920   23.6240   38.8330 H   0  0  0  0  0  0  0  0  0  0  0  0
   40.3950   22.7360   38.7810 H   0  0  0  0  0  0  0  0  0  0  0  0
   41.7550   22.1990   36.4950 N   0  0  0  0  0  0  0  0  0  0  0  0
   42.1630   20.8690   36.1440 C   0  0  0  0  0  3  0  0  0  0  0  0
   41.3620   20.1550   35.9690 H   0  0  0  0  0  0  0  0  0  0  0  0
   43.0200   20.9840   34.8770 C   0  0  0  0  0  3  0  0  0  0  0  0
   42.3740   21.3840   34.0850 H   0  0  0  0  0  0  0  0  0  0  0  0
   44.1430   21.8480   35.0910 N   0  0  0  0  0  0  0  0  0  0  0  0
   44.7780   21.4950   35.8220 H   0  0  0  0  0  0  0  0  0  0  0  0
   43.7340   23.1870   35.4910 C   0  0  0  0  0  2  0  0  0  0  0  0
   42.9240   23.0170   36.7460 C   0  0  0  0  0  2  0  0  0  0  0  0
   37.9490   28.1020   30.3340 C   0  0  0  0  0  0  0  0  0  0  0  0
   38.0240   26.8290   30.9330 C   0  0  0  0  0  0  0  0  0  0  0  0
   37.0530   26.3950   31.8230 C   0  0  0  0  0  0  0  0  0  0  0  0
   36.0360   27.2450   32.0900 N   0  0  0  0  0  0  0  0  0  0  0  0
   35.9440   28.4740   31.5230 C   0  0  0  0  0  0  0  0  0  0  0  0
   36.9160   28.8860   30.6440 N   0  0  0  0  0  0  0  0  0  0  0  0
   38.7350   28.3980   29.6430 H   0  0  0  0  0  0  0  0  0  0  0  0
   38.8430   26.1410   30.7210 H   0  0  0  0  0  0  0  0  0  0  0  0
   35.1300   29.1580   31.7340 H   0  0  0  0  0  0  0  0  0  0  0  0
   35.9160   21.7150   31.7000 C   0  0  0  0  0  0  0  0  0  0  0  0
   35.1550   22.1340   30.6670 F   0  0  0  0  0  0  0  0  0  0  0  0
   35.0750   20.9930   32.5490 F   0  0  0  0  0  0  0  0  0  0  0  0
   36.9070   20.8720   31.1910 F   0  0  0  0  0  0  0  0  0  0  0  0
  1  2  1  0  0  0  0
  2  9  1  0  0  0  0
  2  3  2  0  0  0  0
  3 10  1  0  0  0  0
  4  5  2  0  0  0  0
  4  3  1  0  0  0  0
  6  4  1  0  0  0  0
  7  6  1  0  0  0  0
  7  1  1  0  0  0  0
  8  7  2  0  0  0  0
 10 15  2  0  0  0  0
 10 11  1  0  0  0  0
 11 16  1  0  0  0  0
 11 12  2  0  0  0  0
 12 17  1  0  0  0  0
 13 12  1  0  0  0  0
 13 18  1  0  0  0  0
 14 13  2  0  0  0  0
 15 14  1  0  0  0  0
 19 14  1  0  0  0  0
 19 27  1  0  0  0  0
 20 19  1  0  0  0  0
 21 20  1  0  0  0  0
 22 24  1  0  0  0  0
 22 20  1  0  0  0  0
 23 22  1  0  0  0  0
 24 26  1  0  0  0  0
 24 25  1  0  0  0  0
 26 27  1  0  0  0  0
 28 33  2  0  0  0  0
 28 29  1  0  0  0  0
 29 30  2  0  0  0  0
 30 31  1  0  0  0  0
 30  1  1  0  0  0  0
 32 36  1  0  0  0  0
 32 31  2  0  0  0  0
 33 32  1  0  0  0  0
 34 28  1  0  0  0  0
 35 29  1  0  0  0  0
 37  6  1  0  0  0  0
 37 39  1  0  0  0  0
 38 37  1  0  0  0  0
 40 37  1  0  0  0  0
M  END
>  <minimizedAffinity>
-6.26748228

$$$$

 OpenBabel03272505333D

 40 43  0  0  0  0  0  0  0  0999 V2000
   36.2030   28.7280   33.8090 N   0  0  0  0  0  0  0  0  0  0  0  0
   36.6950   27.5860   34.3450 C   0  0  0  0  0  0  0  0  0  0  0  0
   37.5210   26.7270   33.6200 C   0  0  0  0  0  0  0  0  0  0  0  0
   37.8340   27.0840   32.3000 C   0  0  0  0  0  0  0  0  0  0  0  0
   38.5680   26.3450   31.6170 O   0  0  0  0  0  0  0  0  0  0  0  0
   37.3260   28.2480   31.7690 N   0  0  0  0  0  0  0  0  0  0  0  0
   36.5540   28.9780   32.5570 C   0  0  0  0  0  0  0  0  0  0  0  0
   36.1140   30.0270   32.0310 O   0  0  0  0  0  0  0  0  0  0  0  0
   36.4690   27.2890   35.3590 H   0  0  0  0  0  0  0  0  0  0  0  0
   38.0750   25.4890   34.1520 C   0  0  0  0  0  0  0  0  0  0  0  0
   39.0200   25.4610   35.1520 C   0  0  0  0  0  0  0  0  0  0  0  0
   39.5580   24.2940   35.6700 C   0  0  0  0  0  0  0  0  0  0  0  0
   39.1220   23.0810   35.1550 C   0  0  0  0  0  0  0  0  0  0  0  0
   38.1730   23.1620   34.1530 C   0  0  0  0  0  0  0  0  0  0  0  0
   37.6920   24.3070   33.6950 N   0  0  0  0  0  0  0  0  0  0  0  0
   39.3870   26.3850   35.5800 H   0  0  0  0  0  0  0  0  0  0  0  0
   40.3080   24.3370   36.4670 H   0  0  0  0  0  0  0  0  0  0  0  0
   39.5320   22.1800   35.5500 H   0  0  0  0  0  0  0  0  0  0  0  0
   37.6800   21.9570   33.5790 N   0  0  0  0  0  0  0  0  0  0  0  0
   36.4070   21.3330   33.7950 C   0  0  0  0  0  3  0  0  0  0  0  0
   35.7510   21.8220   34.5110 H   0  0  0  0  0  0  0  0  0  0  0  0
   35.7050   21.2670   32.4330 C   0  0  0  0  0  3  0  0  0  0  0  0
   35.5480   22.3000   32.1000 H   0  0  0  0  0  0  0  0  0  0  0  0
   36.4970   20.5490   31.4780 N   0  0  0  0  0  0  0  0  0  0  0  0
   36.6540   19.5690   31.7550 H   0  0  0  0  0  0  0  0  0  0  0  0
   37.8070   21.1540   31.2900 C   0  0  0  0  0  2  0  0  0  0  0  0
   38.4580   21.1680   32.6460 C   0  0  0  0  0  2  0  0  0  0  0  0
   35.0590   31.4760   36.0330 C   0  0  0  0  0  0  0  0  0  0  0  0
   35.8990   30.6190   35.2950 C   0  0  0  0  0  0  0  0  0  0  0  0
   35.3780   29.5790   34.5410 C   0  0  0  0  0  0  0  0  0  0  0  0
   34.0350   29.4230   34.5460 N   0  0  0  0  0  0  0  0  0  0  0  0
   33.2090   30.2380   35.2500 C   0  0  0  0  0  0  0  0  0  0  0  0
   33.7440   31.2630   35.9910 N   0  0  0  0  0  0  0  0  0  0  0  0
   35.5140   32.2790   36.6100 H   0  0  0  0  0  0  0  0  0  0  0  0
   36.9820   30.7400   35.2880 H   0  0  0  0  0  0  0  0  0  0  0  0
   32.1320   30.1170   35.2560 H   0  0  0  0  0  0  0  0  0  0  0  0
   37.6550   28.6030   30.4080 C   0  0  0  0  0  0  0  0  0  0  0  0
   38.8210   28.0400   30.0280 F   0  0  0  0  0  0  0  0  0  0  0  0
   37.7950   29.9790   30.2210 F   0  0  0  0  0  0  0  0  0  0  0  0
   36.6490   28.1140   29.5710 F   0  0  0  0  0  0  0  0  0  0  0  0
  1  2  1  0  0  0  0
  1 30  1  0  0  0  0
  2  9  1  0  0  0  0
  3 10  1  0  0  0  0
  3  2  2  0  0  0  0
  4  3  1  0  0  0  0
  5  4  2  0  0  0  0
  6  4  1  0  0  0  0
  6  7  1  0  0  0  0
  7  1  1  0  0  0  0
  8  7  2  0  0  0  0
 10 11  1  0  0  0  0
 11 16  1  0  0  0  0
 11 12  2  0  0  0  0
 12 17  1  0  0  0  0
 13 18  1  0  0  0  0
 13 12  1  0  0  0  0
 14 13  2  0  0  0  0
 15 10  2  0  0  0  0
 15 14  1  0  0  0  0
 19 20  1  0  0  0  0
 19 14  1  0  0  0  0
 20 21  1  0  0  0  0
 22 20  1  0  0  0  0
 23 22  1  0  0  0  0
 24 25  1  0  0  0  0
 24 22  1  0  0  0  0
 26 24  1  0  0  0  0
 26 27  1  0  0  0  0
 27 19  1  0  0  0  0
 28 34  1  0  0  0  0
 29 28  2  0  0  0  0
 30 31  2  0  0  0  0
 30 29  1  0  0  0  0
 31 32  1  0  0  0  0
 32 36  1  0  0  0  0
 32 33  2  0  0  0  0
 33 28  1  0  0  0  0
 35 29  1  0  0  0  0
 37  6  1  0  0  0  0
 38 37  1  0  0  0  0
 39 37  1  0  0  0  0
 40 37  1  0  0  0  0
M  END
>  <minimizedAffinity>
-6.14420652

$$$$

 OpenBabel03272505333D

 40 43  0  0  0  0  0  0  0  0999 V2000
   35.9170   29.1340   33.9180 N   0  0  0  0  0  0  0  0  0  0  0  0
   36.8440   28.3090   34.4580 C   0  0  0  0  0  0  0  0  0  0  0  0
   37.8010   27.6620   33.6760 C   0  0  0  0  0  0  0  0  0  0  0  0
   37.7750   27.8930   32.2920 C   0  0  0  0  0  0  0  0  0  0  0  0
   38.6110   27.3340   31.5570 O   0  0  0  0  0  0  0  0  0  0  0  0
   36.8270   28.7340   31.7580 N   0  0  0  0  0  0  0  0  0  0  0  0
   35.9740   29.2880   32.6050 C   0  0  0  0  0  0  0  0  0  0  0  0
   35.1290   30.0450   32.0730 O   0  0  0  0  0  0  0  0  0  0  0  0
   36.8850   28.1150   35.5210 H   0  0  0  0  0  0  0  0  0  0  0  0
   38.8180   26.7650   34.2090 C   0  0  0  0  0  0  0  0  0  0  0  0
   40.1660   27.0350   34.1340 C   0  0  0  0  0  0  0  0  0  0  0  0
   41.1470   26.1950   34.6370 C   0  0  0  0  0  0  0  0  0  0  0  0
   40.7540   25.0140   35.2500 C   0  0  0  0  0  0  0  0  0  0  0  0
   39.3910   24.7890   35.3000 C   0  0  0  0  0  0  0  0  0  0  0  0
   38.4950   25.6280   34.8030 N   0  0  0  0  0  0  0  0  0  0  0  0
   40.5140   27.9450   33.6640 H   0  0  0  0  0  0  0  0  0  0  0  0
   42.2050   26.4650   34.5470 H   0  0  0  0  0  0  0  0  0  0  0  0
   41.5040   24.3640   35.6380 H   0  0  0  0  0  0  0  0  0  0  0  0
   38.9160   23.5970   35.9150 N   0  0  0  0  0  0  0  0  0  0  0  0
   38.2970   23.4540   37.2000 C   0  0  0  0  0  3  0  0  0  0  0  0
   38.2090   24.3630   37.7910 H   0  0  0  0  0  0  0  0  0  0  0  0
   36.8970   22.8740   36.9590 C   0  0  0  0  0  3  0  0  0  0  0  0
   36.3390   23.6110   36.3700 H   0  0  0  0  0  0  0  0  0  0  0  0
   36.9700   21.6250   36.2600 N   0  0  0  0  0  0  0  0  0  0  0  0
   37.4790   20.9050   36.7920 H   0  0  0  0  0  0  0  0  0  0  0  0
   37.6400   21.7580   34.9740 C   0  0  0  0  0  2  0  0  0  0  0  0
   39.0090   22.3030   35.2720 C   0  0  0  0  0  2  0  0  0  0  0  0
   32.7060   29.9600   35.5960 C   0  0  0  0  0  0  0  0  0  0  0  0
   33.6640   29.3070   34.7970 C   0  0  0  0  0  0  0  0  0  0  0  0
   34.9660   29.7760   34.7080 C   0  0  0  0  0  0  0  0  0  0  0  0
   35.2730   30.8840   35.4180 N   0  0  0  0  0  0  0  0  0  0  0  0
   34.3650   31.5280   36.1950 C   0  0  0  0  0  0  0  0  0  0  0  0
   33.0810   31.0470   36.2700 N   0  0  0  0  0  0  0  0  0  0  0  0
   31.6970   29.5540   35.6340 H   0  0  0  0  0  0  0  0  0  0  0  0
   33.4210   28.4130   34.2220 H   0  0  0  0  0  0  0  0  0  0  0  0
   34.6090   32.4160   36.7660 H   0  0  0  0  0  0  0  0  0  0  0  0
   36.8110   28.9620   30.3320 C   0  0  0  0  0  0  0  0  0  0  0  0
   35.9560   29.9560   30.0080 F   0  0  0  0  0  0  0  0  0  0  0  0
   36.4140   27.8400   29.6030 F   0  0  0  0  0  0  0  0  0  0  0  0
   38.0930   29.3520   29.9360 F   0  0  0  0  0  0  0  0  0  0  0  0
  1  2  1  0  0  0  0
  1 30  1  0  0  0  0
  2  9  1  0  0  0  0
  3 10  1  0  0  0  0
  3  2  2  0  0  0  0
  4  3  1  0  0  0  0
  5  4  2  0  0  0  0
  6  4  1  0  0  0  0
  6  7  1  0  0  0  0
  7  1  1  0  0  0  0
  8  7  2  0  0  0  0
 10 15  1  0  0  0  0
 11 10  2  0  0  0  0
 11 12  1  0  0  0  0
 12 13  2  0  0  0  0
 13 14  1  0  0  0  0
 13 18  1  0  0  0  0
 14 19  1  0  0  0  0
 15 14  2  0  0  0  0
 16 11  1  0  0  0  0
 17 12  1  0  0  0  0
 19 20  1  0  0  0  0
 20 21  1  0  0  0  0
 22 20  1  0  0  0  0
 23 22  1  0  0  0  0
 24 25  1  0  0  0  0
 24 22  1  0  0  0  0
 26 27  1  0  0  0  0
 26 24  1  0  0  0  0
 27 19  1  0  0  0  0
 28 34  1  0  0  0  0
 28 33  1  0  0  0  0
 29 28  2  0  0  0  0
 30 29  1  0  0  0  0
 30 31  2  0  0  0  0
 31 32  1  0  0  0  0
 32 33  2  0  0  0  0
 32 36  1  0  0  0  0
 35 29  1  0  0  0  0
 37  6  1  0  0  0  0
 38 37  1  0  0  0  0
 39 37  1  0  0  0  0
 40 37  1  0  0  0  0
M  END
>  <minimizedAffinity>
-6.12752056

$$$$

 OpenBabel03272505333D

 40 43  0  0  0  0  0  0  0  0999 V2000
   38.3250   24.8390   33.4200 N   0  0  0  0  0  0  0  0  0  0  0  0
   38.1370   26.1520   33.1520 C   0  0  0  0  0  0  0  0  0  0  0  0
   37.1360   26.5910   32.2850 C   0  0  0  0  0  0  0  0  0  0  0  0
   36.3170   25.6200   31.6900 C   0  0  0  0  0  0  0  0  0  0  0  0
   35.4120   25.9690   30.9090 O   0  0  0  0  0  0  0  0  0  0  0  0
   36.5210   24.2890   31.9730 N   0  0  0  0  0  0  0  0  0  0  0  0
   37.5030   24.0000   32.8110 C   0  0  0  0  0  0  0  0  0  0  0  0
   37.6520   22.7760   33.0380 O   0  0  0  0  0  0  0  0  0  0  0  0
   38.7540   26.9190   33.5970 H   0  0  0  0  0  0  0  0  0  0  0  0
   36.8930   27.9920   31.9640 C   0  0  0  0  0  0  0  0  0  0  0  0
   37.3810   28.5940   30.8260 C   0  0  0  0  0  0  0  0  0  0  0  0
   37.1600   29.9240   30.5060 C   0  0  0  0  0  0  0  0  0  0  0  0
   36.4060   30.6970   31.3770 C   0  0  0  0  0  0  0  0  0  0  0  0
   35.9390   30.0470   32.5040 C   0  0  0  0  0  0  0  0  0  0  0  0
   36.1800   28.7700   32.7620 N   0  0  0  0  0  0  0  0  0  0  0  0
   37.9740   28.0260   30.1210 H   0  0  0  0  0  0  0  0  0  0  0  0
   37.5760   30.3460   29.5830 H   0  0  0  0  0  0  0  0  0  0  0  0
   36.2330   31.7200   31.1340 H   0  0  0  0  0  0  0  0  0  0  0  0
   35.1580   30.7780   33.4410 N   0  0  0  0  0  0  0  0  0  0  0  0
   33.7410   30.7120   33.6510 C   0  0  0  0  0  3  0  0  0  0  0  0
   33.1910   30.0460   32.9900 H   0  0  0  0  0  0  0  0  0  0  0  0
   33.5250   30.2710   35.1040 C   0  0  0  0  0  3  0  0  0  0  0  0
   33.9510   29.2650   35.2030 H   0  0  0  0  0  0  0  0  0  0  0  0
   34.1580   31.1750   36.0180 N   0  0  0  0  0  0  0  0  0  0  0  0
   33.7720   32.1280   35.9590 H   0  0  0  0  0  0  0  0  0  0  0  0
   35.5900   31.2790   35.7780 C   0  0  0  0  0  2  0  0  0  0  0  0
   35.7420   31.7390   34.3550 C   0  0  0  0  0  2  0  0  0  0  0  0
   40.0580   23.5640   36.4510 C   0  0  0  0  0  0  0  0  0  0  0  0
   39.0400   23.9970   35.5780 C   0  0  0  0  0  0  0  0  0  0  0  0
   39.3280   24.4100   34.2870 C   0  0  0  0  0  0  0  0  0  0  0  0
   40.6240   24.3820   33.9040 N   0  0  0  0  0  0  0  0  0  0  0  0
   41.6200   23.9690   34.7280 C   0  0  0  0  0  0  0  0  0  0  0  0
   41.3140   23.5630   36.0040 N   0  0  0  0  0  0  0  0  0  0  0  0
   39.7830   23.2490   37.4550 H   0  0  0  0  0  0  0  0  0  0  0  0
   37.9930   24.0210   35.8830 H   0  0  0  0  0  0  0  0  0  0  0  0
   42.6600   23.9450   34.4240 H   0  0  0  0  0  0  0  0  0  0  0  0
   35.6720   23.2990   31.3520 C   0  0  0  0  0  0  0  0  0  0  0  0
   34.8440   23.8660   30.4500 F   0  0  0  0  0  0  0  0  0  0  0  0
   34.8630   22.6220   32.2670 F   0  0  0  0  0  0  0  0  0  0  0  0
   36.4840   22.3850   30.6760 F   0  0  0  0  0  0  0  0  0  0  0  0
  1 30  1  0  0  0  0
  2  1  1  0  0  0  0
  2  9  1  0  0  0  0
  3  2  2  0  0  0  0
  4  6  1  0  0  0  0
  4  3  1  0  0  0  0
  5  4  2  0  0  0  0
  6  7  1  0  0  0  0
  7  8  2  0  0  0  0
  7  1  1  0  0  0  0
 10  3  1  0  0  0  0
 10 15  1  0  0  0  0
 11 10  2  0  0  0  0
 12 11  1  0  0  0  0
 12 13  2  0  0  0  0
 13 14  1  0  0  0  0
 14 15  2  0  0  0  0
 14 19  1  0  0  0  0
 16 11  1  0  0  0  0
 17 12  1  0  0  0  0
 18 13  1  0  0  0  0
 19 20  1  0  0  0  0
 19 27  1  0  0  0  0
 20 22  1  0  0  0  0
 21 20  1  0  0  0  0
 22 23  1  0  0  0  0
 22 24  1  0  0  0  0
 25 24  1  0  0  0  0
 26 24  1  0  0  0  0
 27 26  1  0  0  0  0
 28 34  1  0  0  0  0
 29 35  1  0  0  0  0
 29 28  2  0  0  0  0
 30 29  1  0  0  0  0
 31 30  2  0  0  0  0
 31 32  1  0  0  0  0
 32 33  2  0  0  0  0
 33 28  1  0  0  0  0
 36 32  1  0  0  0  0
 37  6  1  0  0  0  0
 37 39  1  0  0  0  0
 38 37  1  0  0  0  0
 40 37  1  0  0  0  0
M  END
>  <minimizedAffinity>
-6.10642099

$$$$

 OpenBabel03272505333D

 40 43  0  0  0  0  0  0  0  0999 V2000
   37.1770   22.8920   32.9170 N   0  0  0  0  0  0  0  0  0  0  0  0
   37.0620   24.0630   32.2490 C   0  0  0  0  0  0  0  0  0  0  0  0
   37.5670   25.2580   32.7630 C   0  0  0  0  0  0  0  0  0  0  0  0
   38.2050   25.2120   34.0110 C   0  0  0  0  0  0  0  0  0  0  0  0
   38.6690   26.2560   34.5070 O   0  0  0  0  0  0  0  0  0  0  0  0
   38.3140   24.0130   34.6780 N   0  0  0  0  0  0  0  0  0  0  0  0
   37.7950   22.9500   34.0860 C   0  0  0  0  0  0  0  0  0  0  0  0
   37.9170   21.8830   34.7310 O   0  0  0  0  0  0  0  0  0  0  0  0
   36.5750   24.1250   31.2860 H   0  0  0  0  0  0  0  0  0  0  0  0
   37.4680   26.5430   32.0830 C   0  0  0  0  0  0  0  0  0  0  0  0
   36.4870   27.4660   32.3650 C   0  0  0  0  0  0  0  0  0  0  0  0
   36.3790   28.6920   31.7290 C   0  0  0  0  0  0  0  0  0  0  0  0
   37.3090   29.0120   30.7500 C   0  0  0  0  0  0  0  0  0  0  0  0
   38.2730   28.0530   30.5020 C   0  0  0  0  0  0  0  0  0  0  0  0
   38.3310   26.8950   31.1420 N   0  0  0  0  0  0  0  0  0  0  0  0
   35.7430   27.2550   33.1220 H   0  0  0  0  0  0  0  0  0  0  0  0
   35.5750   29.3860   31.9990 H   0  0  0  0  0  0  0  0  0  0  0  0
   37.2300   29.9540   30.2570 H   0  0  0  0  0  0  0  0  0  0  0  0
   39.2590   28.3140   29.5110 N   0  0  0  0  0  0  0  0  0  0  0  0
   40.6360   28.6660   29.7070 C   0  0  0  0  0  3  0  0  0  0  0  0
   40.9570   28.7800   30.7400 H   0  0  0  0  0  0  0  0  0  0  0  0
   41.4760   27.5720   29.0370 C   0  0  0  0  0  3  0  0  0  0  0  0
   41.2650   26.6330   29.5640 H   0  0  0  0  0  0  0  0  0  0  0  0
   41.1490   27.4490   27.6470 N   0  0  0  0  0  0  0  0  0  0  0  0
   41.3470   28.3110   27.1180 H   0  0  0  0  0  0  0  0  0  0  0  0
   39.7420   27.1360   27.4430 C   0  0  0  0  0  2  0  0  0  0  0  0
   38.9690   28.2500   28.0930 C   0  0  0  0  0  2  0  0  0  0  0  0
   34.8380   20.1370   32.0520 C   0  0  0  0  0  0  0  0  0  0  0  0
   35.3450   21.3400   32.5810 C   0  0  0  0  0  0  0  0  0  0  0  0
   36.6700   21.7040   32.3960 C   0  0  0  0  0  0  0  0  0  0  0  0
   37.4510   20.8560   31.6890 N   0  0  0  0  0  0  0  0  0  0  0  0
   36.9810   19.6930   31.1710 C   0  0  0  0  0  0  0  0  0  0  0  0
   35.6660   19.3500   31.3650 N   0  0  0  0  0  0  0  0  0  0  0  0
   33.7910   19.8940   32.2230 H   0  0  0  0  0  0  0  0  0  0  0  0
   34.7190   22.0270   33.1510 H   0  0  0  0  0  0  0  0  0  0  0  0
   37.6050   19.0110   30.6040 H   0  0  0  0  0  0  0  0  0  0  0  0
   38.9730   23.9800   35.9630 C   0  0  0  0  0  0  0  0  0  0  0  0
   38.7160   22.8250   36.6110 F   0  0  0  0  0  0  0  0  0  0  0  0
   38.5700   25.0130   36.8110 F   0  0  0  0  0  0  0  0  0  0  0  0
   40.3520   24.0570   35.7510 F   0  0  0  0  0  0  0  0  0  0  0  0
  1  7  1  0  0  0  0
  2  3  2  0  0  0  0
  2  1  1  0  0  0  0
  3  4  1  0  0  0  0
  4  5  2  0  0  0  0
  4  6  1  0  0  0  0
  6 37  1  0  0  0  0
  7  6  1  0  0  0  0
  7  8  2  0  0  0  0
  9  2  1  0  0  0  0
 10 11  1  0  0  0  0
 10  3  1  0  0  0  0
 11 16  1  0  0  0  0
 12 17  1  0  0  0  0
 12 11  2  0  0  0  0
 13 12  1  0  0  0  0
 14 13  2  0  0  0  0
 14 15  1  0  0  0  0
 15 10  2  0  0  0  0
 18 13  1  0  0  0  0
 19 20  1  0  0  0  0
 19 14  1  0  0  0  0
 20 21  1  0  0  0  0
 22 23  1  0  0  0  0
 22 20  1  0  0  0  0
 24 22  1  0  0  0  0
 25 24  1  0  0  0  0
 26 24  1  0  0  0  0
 26 27  1  0  0  0  0
 27 19  1  0  0  0  0
 28 34  1  0  0  0  0
 28 29  1  0  0  0  0
 29 35  1  0  0  0  0
 30 29  2  0  0  0  0
 30  1  1  0  0  0  0
 31 30  1  0  0  0  0
 32 33  1  0  0  0  0
 32 31  2  0  0  0  0
 33 28  2  0  0  0  0
 36 32  1  0  0  0  0
 37 38  1  0  0  0  0
 37 39  1  0  0  0  0
 40 37  1  0  0  0  0
M  END
>  <minimizedAffinity>
-6.10246515

$$$$
