REMARK  Name = 
REMARK  6 active torsions:
REMARK  status: ('A' for Active; 'I' for Inactive)
REMARK    1  A    between atoms: C_1  and  O_14
REMARK    2  A    between atoms: C_2  and  C_8
REMARK    3  A    between atoms: C_6  and  O_15
REMARK    4  A    between atoms: C_9  and  C_13
REMARK    5  A    between atoms: O_15  and  C_17
REMARK    6  A    between atoms: C_24  and  N_38
REMARK                            x       y       z     vdW  Elec       q    Type
REMARK                         _______ _______ _______ _____ _____    ______ ____
ROOT
ATOM      1  C   UNL     1      38.088  31.297  47.771  0.00  0.00    +0.000 A 
ATOM      2  C   UNL     1      37.086  31.303  48.733  0.00  0.00    +0.000 A 
ATOM      3  C   UNL     1      37.124  32.419  49.594  0.00  0.00    +0.000 A 
ATOM      4  C   UNL     1      38.101  33.418  49.466  0.00  0.00    +0.000 A 
ATOM      5  C   UNL     1      39.071  33.313  48.455  0.00  0.00    +0.000 A 
ATOM      6  C   UNL     1      39.047  32.221  47.599  0.00  0.00    +0.000 A 
ATOM      7  H   UNL     1      36.380  32.510  50.377  0.00  0.00    +0.000 HD
ATOM      8  H   UNL     1      38.090  34.258  50.151  0.00  0.00    +0.000 HD
ATOM      9  H   UNL     1      39.784  34.107  48.413  0.00  0.00    +0.000 HD
ENDROOT
BRANCH   2  11
ATOM     10  C   UNL     1      34.965  30.307  48.045  0.00  0.00    +0.000 A 
ATOM     11  C   UNL     1      36.094  30.285  48.860  0.00  0.00    +0.000 A 
ATOM     12  C   UNL     1      36.211  29.242  49.789  0.00  0.00    +0.000 A 
ATOM     13  N   UNL     1      35.223  28.314  49.844  0.00  0.00    +0.000 NA
ATOM     14  C   UNL     1      34.136  28.375  49.028  0.00  0.00    +0.000 A 
ATOM     15  N   UNL     1      34.014  29.361  48.140  0.00  0.00    +0.000 NA
ATOM     16  H   UNL     1      34.880  31.103  47.338  0.00  0.00    +0.000 HD
ATOM     17  H   UNL     1      33.363  27.615  49.099  0.00  0.00    +0.000 HD
BRANCH  12  18
ATOM     18  C   UNL     1      37.395  29.174  50.680  0.00  0.00    +0.000 C 
ATOM     19  H   UNL     1      37.468  28.176  51.124  0.00  0.00    +0.000 HD
ATOM     20  H   UNL     1      37.206  29.893  51.512  0.00  0.00    +0.000 HD
ATOM     21  H   UNL     1      38.325  29.526  50.191  0.00  0.00    +0.000 HD
ENDBRANCH  12  18
ENDBRANCH   2  11
BRANCH   1  22
ATOM     22  O   UNL     1      38.138  30.232  46.868  0.00  0.00    +0.000 OA
ATOM     23  H   UNL     1      37.411  29.992  46.227  0.00  0.00    +0.000 HD
ENDBRANCH   1  22
BRANCH   6  24
ATOM     24  O   UNL     1      40.032  32.189  46.634  0.00  0.00    +0.000 OA
BRANCH  24  26
ATOM     25  C   UNL     1      40.566  31.175  44.413  0.00  0.00    +0.000 A 
ATOM     26  C   UNL     1      39.862  31.979  45.289  0.00  0.00    +0.000 A 
ATOM     27  C   UNL     1      38.790  32.730  44.802  0.00  0.00    +0.000 A 
ATOM     28  C   UNL     1      38.439  32.663  43.443  0.00  0.00    +0.000 A 
ATOM     29  N   UNL     1      37.485  33.246  42.681  0.00  0.00    +0.000 N 
ATOM     30  C   UNL     1      37.586  32.833  41.410  0.00  0.00    +0.000 A 
ATOM     31  N   UNL     1      38.638  31.962  41.370  0.00  0.00    +0.000 NA
ATOM     32  C   UNL     1      39.166  31.852  42.611  0.00  0.00    +0.000 A 
ATOM     33  C   UNL     1      40.219  31.115  43.088  0.00  0.00    +0.000 A 
ATOM     34  H   UNL     1      41.370  30.642  44.890  0.00  0.00    +0.000 HD
ATOM     35  H   UNL     1      38.147  33.400  45.359  0.00  0.00    +0.000 HD
ATOM     36  H   UNL     1      36.769  33.925  43.039  0.00  0.00    +0.000 HD
ATOM     37  H   UNL     1      36.942  33.150  40.604  0.00  0.00    +0.000 HD
BRANCH  33  38
ATOM     38  N   UNL     1      40.983  30.268  42.236  0.00  0.00    +0.000 N 
ATOM     39  C   UNL     1      42.316  30.630  41.791  0.00  0.00    +0.000 C 
ATOM     40  H   UNL     1      43.060  30.656  42.610  0.00  0.00    +0.000 HD
ATOM     41  C   UNL     1      42.734  29.710  40.667  0.00  0.00    +0.000 C 
ATOM     42  H   UNL     1      42.959  28.682  41.043  0.00  0.00    +0.000 HD
ATOM     43  N   UNL     1      41.594  29.652  39.751  0.00  0.00    +0.000 NA
ATOM     44  H   UNL     1      41.089  30.588  39.789  0.00  0.00    +0.000 HD
ATOM     45  C   UNL     1      40.661  28.720  40.355  0.00  0.00    +0.000 C 
ATOM     46  C   UNL     1      40.410  29.011  41.805  0.00  0.00    +0.000 C 
ENDBRANCH  33  38
ENDBRANCH  24  26
ENDBRANCH   6  24
TORSDOF 6
