
 OpenBabel03272509483D

 25 26  0  0  0  0  0  0  0  0999 V2000
   37.6490   22.2180   34.0740 C   0  0  0  0  0  0  0  0  0  0  0  0
   36.5250   22.3770   34.1900 H   0  0  0  0  0  0  0  0  0  0  0  0
   37.7210   21.3190   33.4510 H   0  0  0  0  0  0  0  0  0  0  0  0
   38.2690   22.0870   35.4470 C   0  0  0  0  0  0  0  0  0  0  0  0
   37.6460   21.5510   36.1700 H   0  0  0  0  0  0  0  0  0  0  0  0
   39.2200   21.5260   35.3340 H   0  0  0  0  0  0  0  0  0  0  0  0
   38.6310   23.4190   35.9000 N   0  0  0  0  0  0  0  0  0  0  0  0
   37.7370   23.8800   36.9490 C   0  0  0  0  0  3  0  0  0  0  0  0
   37.5010   24.9690   36.7470 H   0  0  0  0  0  0  0  0  0  0  0  0
   38.2790   23.8210   38.3250 C   0  0  0  0  0  3  0  0  0  0  0  0
   38.9420   24.7050   38.5210 H   0  0  0  0  0  0  0  0  0  0  0  0
   39.0490   22.6450   38.5380 N   0  0  0  0  0  0  0  0  0  0  0  0
   38.5660   21.7480   38.5460 H   0  0  0  0  0  0  0  0  0  0  0  0
   40.1790   22.6280   37.6640 C   0  0  0  0  0  2  0  0  0  0  0  0
   40.0050   23.4350   36.4000 C   0  0  0  0  0  2  0  0  0  0  0  0
   38.1180   23.3970   33.4510 O   0  0  0  0  0  0  0  0  0  0  0  0
   36.2910   26.0190   31.7670 C   0  0  0  0  0  0  0  0  0  0  0  0
   35.3960   25.2560   31.0300 C   0  0  0  0  0  0  0  0  0  0  0  0
   35.4570   23.8560   31.1440 C   0  0  0  0  0  0  0  0  0  0  0  0
   36.4050   23.3420   31.9820 N   0  0  0  0  0  0  0  0  0  0  0  0
   37.2530   24.1230   32.6770 C   0  0  0  0  0  0  0  0  0  0  0  0
   37.1940   25.4770   32.5670 N   0  0  0  0  0  0  0  0  0  0  0  0
   36.3540   27.1070   31.7710 H   0  0  0  0  0  0  0  0  0  0  0  0
   34.6930   25.7770   30.4030 H   0  0  0  0  0  0  0  0  0  0  0  0
   34.7650   23.2560   30.5740 H   0  0  0  0  0  0  0  0  0  0  0  0
  1  2  1  0  0  0  0
  1  4  1  0  0  0  0
  3  1  1  0  0  0  0
  4  7  1  0  0  0  0
  4  5  1  0  0  0  0
  6  4  1  0  0  0  0
  7 15  1  0  0  0  0
  7  8  1  0  0  0  0
  8 10  1  0  0  0  0
  9  8  1  0  0  0  0
 10 11  1  0  0  0  0
 10 12  1  0  0  0  0
 12 13  1  0  0  0  0
 14 12  1  0  0  0  0
 15 14  1  0  0  0  0
 16  1  1  0  0  0  0
 17 23  1  0  0  0  0
 17 22  1  0  0  0  0
 18 19  1  0  0  0  0
 18 17  2  0  0  0  0
 19 20  2  0  0  0  0
 20 21  1  0  0  0  0
 21 16  1  0  0  0  0
 22 21  2  0  0  0  0
 24 18  1  0  0  0  0
 25 19  1  0  0  0  0
M  END
>  <minimizedAffinity>
-4.27631474

$$$$

 OpenBabel03272509483D

 25 26  0  0  0  0  0  0  0  0999 V2000
   38.6780   21.9730   34.1070 C   0  0  0  0  0  0  0  0  0  0  0  0
   38.9690   20.8780   33.9700 H   0  0  0  0  0  0  0  0  0  0  0  0
   39.6220   22.5110   33.9690 H   0  0  0  0  0  0  0  0  0  0  0  0
   38.0460   22.1450   35.4700 C   0  0  0  0  0  0  0  0  0  0  0  0
   36.9700   21.9450   35.4940 H   0  0  0  0  0  0  0  0  0  0  0  0
   38.5420   21.4320   36.1620 H   0  0  0  0  0  0  0  0  0  0  0  0
   38.3770   23.4760   35.9490 N   0  0  0  0  0  0  0  0  0  0  0  0
   37.5730   23.8360   37.1040 C   0  0  0  0  0  3  0  0  0  0  0  0
   37.2560   24.9160   36.9810 H   0  0  0  0  0  0  0  0  0  0  0  0
   38.2580   23.7520   38.4130 C   0  0  0  0  0  3  0  0  0  0  0  0
   38.8880   24.6660   38.5830 H   0  0  0  0  0  0  0  0  0  0  0  0
   39.1120   22.6180   38.4890 N   0  0  0  0  0  0  0  0  0  0  0  0
   38.6840   21.6930   38.5020 H   0  0  0  0  0  0  0  0  0  0  0  0
   40.1440   22.7070   37.5050 C   0  0  0  0  0  2  0  0  0  0  0  0
   39.7930   23.5550   36.3060 C   0  0  0  0  0  2  0  0  0  0  0  0
   37.7160   22.2190   33.1010 O   0  0  0  0  0  0  0  0  0  0  0  0
   36.4750   19.0500   31.8920 C   0  0  0  0  0  0  0  0  0  0  0  0
   35.1170   19.3290   31.8300 C   0  0  0  0  0  0  0  0  0  0  0  0
   34.6790   20.6100   32.2100 C   0  0  0  0  0  0  0  0  0  0  0  0
   35.6330   21.4970   32.6180 N   0  0  0  0  0  0  0  0  0  0  0  0
   36.9410   21.1800   32.6610 C   0  0  0  0  0  0  0  0  0  0  0  0
   37.3650   19.9420   32.2940 N   0  0  0  0  0  0  0  0  0  0  0  0
   36.9480   18.1030   31.6310 H   0  0  0  0  0  0  0  0  0  0  0  0
   34.4610   18.5460   31.4910 H   0  0  0  0  0  0  0  0  0  0  0  0
   33.6240   20.8340   32.1640 H   0  0  0  0  0  0  0  0  0  0  0  0
  1  4  1  0  0  0  0
  2  1  1  0  0  0  0
  3  1  1  0  0  0  0
  4  5  1  0  0  0  0
  4  7  1  0  0  0  0
  4  6  1  0  0  0  0
  7 15  1  0  0  0  0
  7  8  1  0  0  0  0
  8 10  1  0  0  0  0
  9  8  1  0  0  0  0
 10 12  1  0  0  0  0
 10 11  1  0  0  0  0
 12 13  1  0  0  0  0
 14 12  1  0  0  0  0
 15 14  1  0  0  0  0
 16  1  1  0  0  0  0
 17 22  1  0  0  0  0
 18 17  2  0  0  0  0
 18 19  1  0  0  0  0
 19 20  2  0  0  0  0
 20 21  1  0  0  0  0
 21 16  1  0  0  0  0
 22 21  2  0  0  0  0
 23 17  1  0  0  0  0
 24 18  1  0  0  0  0
 25 19  1  0  0  0  0
M  END
>  <minimizedAffinity>
-4.15385771

$$$$

 OpenBabel03272509483D

 25 26  0  0  0  0  0  0  0  0999 V2000
   37.7440   25.8340   34.9780 C   0  0  0  0  0  0  0  0  0  0  0  0
   38.1440   26.8800   34.7640 H   0  0  0  0  0  0  0  0  0  0  0  0
   36.6730   25.9970   35.1470 H   0  0  0  0  0  0  0  0  0  0  0  0
   38.4900   25.2570   36.1610 C   0  0  0  0  0  0  0  0  0  0  0  0
   39.4760   25.7020   36.3290 H   0  0  0  0  0  0  0  0  0  0  0  0
   37.8740   25.4380   37.0670 H   0  0  0  0  0  0  0  0  0  0  0  0
   38.5500   23.8160   35.9870 N   0  0  0  0  0  0  0  0  0  0  0  0
   39.8730   23.3020   36.3010 C   0  0  0  0  0  3  0  0  0  0  0  0
   40.1340   22.5230   35.5220 H   0  0  0  0  0  0  0  0  0  0  0  0
   40.0060   22.6350   37.6160 C   0  0  0  0  0  3  0  0  0  0  0  0
   39.6250   21.5810   37.5580 H   0  0  0  0  0  0  0  0  0  0  0  0
   39.2670   23.3100   38.6250 N   0  0  0  0  0  0  0  0  0  0  0  0
   39.5780   24.2360   38.9130 H   0  0  0  0  0  0  0  0  0  0  0  0
   37.8730   23.2960   38.3130 C   0  0  0  0  0  2  0  0  0  0  0  0
   37.5640   23.1550   36.8410 C   0  0  0  0  0  2  0  0  0  0  0  0
   38.0420   25.0870   33.8160 O   0  0  0  0  0  0  0  0  0  0  0  0
   35.7330   24.0320   31.2470 C   0  0  0  0  0  0  0  0  0  0  0  0
   35.2430   25.2650   30.8400 C   0  0  0  0  0  0  0  0  0  0  0  0
   35.7320   26.4210   31.4730 C   0  0  0  0  0  0  0  0  0  0  0  0
   36.6660   26.2450   32.4530 N   0  0  0  0  0  0  0  0  0  0  0  0
   37.1120   25.0280   32.8140 C   0  0  0  0  0  0  0  0  0  0  0  0
   36.6390   23.9090   32.2030 N   0  0  0  0  0  0  0  0  0  0  0  0
   35.4400   23.0620   30.8470 H   0  0  0  0  0  0  0  0  0  0  0  0
   34.5070   25.2760   30.0550 H   0  0  0  0  0  0  0  0  0  0  0  0
   35.3560   27.3840   31.1620 H   0  0  0  0  0  0  0  0  0  0  0  0
  1  3  1  0  0  0  0
  1  4  1  0  0  0  0
  2  1  1  0  0  0  0
  4  5  1  0  0  0  0
  4  6  1  0  0  0  0
  7  4  1  0  0  0  0
  7  8  1  0  0  0  0
  7 15  1  0  0  0  0
  8 10  1  0  0  0  0
  9  8  1  0  0  0  0
 10 12  1  0  0  0  0
 11 10  1  0  0  0  0
 12 13  1  0  0  0  0
 14 12  1  0  0  0  0
 15 14  1  0  0  0  0
 16  1  1  0  0  0  0
 17 22  1  0  0  0  0
 18 17  2  0  0  0  0
 18 19  1  0  0  0  0
 19 20  2  0  0  0  0
 20 21  1  0  0  0  0
 21 16  1  0  0  0  0
 22 21  2  0  0  0  0
 23 17  1  0  0  0  0
 24 18  1  0  0  0  0
 25 19  1  0  0  0  0
M  END
>  <minimizedAffinity>
-4.14693356

$$$$

 OpenBabel03272509483D

 25 26  0  0  0  0  0  0  0  0999 V2000
   37.7850   25.7640   34.9420 C   0  0  0  0  0  0  0  0  0  0  0  0
   37.0070   25.0470   34.5170 H   0  0  0  0  0  0  0  0  0  0  0  0
   38.5270   25.8490   34.1400 H   0  0  0  0  0  0  0  0  0  0  0  0
   38.3180   25.1960   36.2390 C   0  0  0  0  0  0  0  0  0  0  0  0
   39.2460   25.6610   36.5840 H   0  0  0  0  0  0  0  0  0  0  0  0
   37.5440   25.3570   37.0190 H   0  0  0  0  0  0  0  0  0  0  0  0
   38.4400   23.7570   36.0760 N   0  0  0  0  0  0  0  0  0  0  0  0
   39.7910   23.3080   36.3650 C   0  0  0  0  0  3  0  0  0  0  0  0
   40.0720   22.5350   35.5880 H   0  0  0  0  0  0  0  0  0  0  0  0
   39.9820   22.6590   37.6820 C   0  0  0  0  0  3  0  0  0  0  0  0
   39.6490   21.5880   37.6420 H   0  0  0  0  0  0  0  0  0  0  0  0
   39.2340   23.3080   38.7020 N   0  0  0  0  0  0  0  0  0  0  0  0
   39.5080   24.2500   38.9760 H   0  0  0  0  0  0  0  0  0  0  0  0
   37.8360   23.2270   38.4190 C   0  0  0  0  0  2  0  0  0  0  0  0
   37.5030   23.0590   36.9550 C   0  0  0  0  0  2  0  0  0  0  0  0
   37.0720   26.9570   35.2020 O   0  0  0  0  0  0  0  0  0  0  0  0
   35.7260   29.5360   33.0620 C   0  0  0  0  0  0  0  0  0  0  0  0
   36.3820   29.2340   31.8760 C   0  0  0  0  0  0  0  0  0  0  0  0
   37.2690   28.1440   31.8620 C   0  0  0  0  0  0  0  0  0  0  0  0
   37.4230   27.4530   33.0290 N   0  0  0  0  0  0  0  0  0  0  0  0
   36.7640   27.7830   34.1550 C   0  0  0  0  0  0  0  0  0  0  0  0
   35.9060   28.8370   34.1700 N   0  0  0  0  0  0  0  0  0  0  0  0
   35.0180   30.3500   33.2130 H   0  0  0  0  0  0  0  0  0  0  0  0
   36.1770   29.8530   31.0200 H   0  0  0  0  0  0  0  0  0  0  0  0
   37.7830   27.9030   30.9440 H   0  0  0  0  0  0  0  0  0  0  0  0
  1 16  1  0  0  0  0
  1  4  1  0  0  0  0
  2  1  1  0  0  0  0
  3  1  1  0  0  0  0
  4  5  1  0  0  0  0
  4  6  1  0  0  0  0
  7  4  1  0  0  0  0
  7  8  1  0  0  0  0
  7 15  1  0  0  0  0
  8 10  1  0  0  0  0
  9  8  1  0  0  0  0
 10 12  1  0  0  0  0
 11 10  1  0  0  0  0
 12 13  1  0  0  0  0
 14 12  1  0  0  0  0
 15 14  1  0  0  0  0
 17 23  1  0  0  0  0
 17 22  1  0  0  0  0
 18 17  2  0  0  0  0
 19 18  1  0  0  0  0
 19 20  2  0  0  0  0
 20 21  1  0  0  0  0
 21 22  2  0  0  0  0
 21 16  1  0  0  0  0
 24 18  1  0  0  0  0
 25 19  1  0  0  0  0
M  END
>  <minimizedAffinity>
-4.03256226

$$$$

 OpenBabel03272509483D

 25 26  0  0  0  0  0  0  0  0999 V2000
   38.4310   25.8440   34.2900 C   0  0  0  0  0  0  0  0  0  0  0  0
   38.7730   26.3190   35.2690 H   0  0  0  0  0  0  0  0  0  0  0  0
   39.2920   25.9730   33.6240 H   0  0  0  0  0  0  0  0  0  0  0  0
   37.1650   26.5320   33.8280 C   0  0  0  0  0  0  0  0  0  0  0  0
   36.4010   25.8510   33.4410 H   0  0  0  0  0  0  0  0  0  0  0  0
   36.7360   27.0660   34.7020 H   0  0  0  0  0  0  0  0  0  0  0  0
   37.5410   27.5550   32.8670 N   0  0  0  0  0  0  0  0  0  0  0  0
   38.6500   27.1150   32.0370 C   0  0  0  0  0  3  0  0  0  0  0  0
   39.3600   27.9890   31.9200 H   0  0  0  0  0  0  0  0  0  0  0  0
   38.2930   26.6840   30.6670 C   0  0  0  0  0  3  0  0  0  0  0  0
   38.1640   27.5770   29.9980 H   0  0  0  0  0  0  0  0  0  0  0  0
   37.0770   25.9470   30.6470 N   0  0  0  0  0  0  0  0  0  0  0  0
   37.0640   25.0280   31.0840 H   0  0  0  0  0  0  0  0  0  0  0  0
   35.9950   26.7630   31.1010 C   0  0  0  0  0  2  0  0  0  0  0  0
   36.4060   27.8960   32.0100 C   0  0  0  0  0  2  0  0  0  0  0  0
   38.1490   24.4990   34.6210 O   0  0  0  0  0  0  0  0  0  0  0  0
   39.7690   22.8550   37.3990 C   0  0  0  0  0  0  0  0  0  0  0  0
   38.9660   23.2940   38.4420 C   0  0  0  0  0  0  0  0  0  0  0  0
   37.8890   24.1470   38.1440 C   0  0  0  0  0  0  0  0  0  0  0  0
   37.7080   24.4850   36.8340 N   0  0  0  0  0  0  0  0  0  0  0  0
   38.5130   24.0330   35.8550 C   0  0  0  0  0  0  0  0  0  0  0  0
   39.5550   23.2080   36.1420 N   0  0  0  0  0  0  0  0  0  0  0  0
   40.6330   22.1970   37.4880 H   0  0  0  0  0  0  0  0  0  0  0  0
   39.2100   22.9590   39.4350 H   0  0  0  0  0  0  0  0  0  0  0  0
   37.2610   24.4930   38.9510 H   0  0  0  0  0  0  0  0  0  0  0  0
  1 16  1  0  0  0  0
  1  2  1  0  0  0  0
  3  1  1  0  0  0  0
  4  1  1  0  0  0  0
  4  6  1  0  0  0  0
  5  4  1  0  0  0  0
  7  4  1  0  0  0  0
  8  7  1  0  0  0  0
  9  8  1  0  0  0  0
 10  8  1  0  0  0  0
 11 10  1  0  0  0  0
 12 10  1  0  0  0  0
 12 13  1  0  0  0  0
 12 14  1  0  0  0  0
 14 15  1  0  0  0  0
 15  7  1  0  0  0  0
 16 21  1  0  0  0  0
 17 23  1  0  0  0  0
 17 18  1  0  0  0  0
 18 24  1  0  0  0  0
 19 18  2  0  0  0  0
 19 25  1  0  0  0  0
 20 19  1  0  0  0  0
 21 22  1  0  0  0  0
 21 20  2  0  0  0  0
 22 17  2  0  0  0  0
M  END
>  <minimizedAffinity>
-3.8287971

$$$$

 OpenBabel03272509483D

 25 26  0  0  0  0  0  0  0  0999 V2000
   38.0050   23.5410   33.6760 C   0  0  0  0  0  0  0  0  0  0  0  0
   37.8400   22.9940   32.6890 H   0  0  0  0  0  0  0  0  0  0  0  0
   37.0360   24.0110   33.8770 H   0  0  0  0  0  0  0  0  0  0  0  0
   39.1550   24.5110   33.5120 C   0  0  0  0  0  0  0  0  0  0  0  0
   39.8360   24.5460   34.3670 H   0  0  0  0  0  0  0  0  0  0  0  0
   39.7390   24.1920   32.6220 H   0  0  0  0  0  0  0  0  0  0  0  0
   38.5960   25.8120   33.1890 N   0  0  0  0  0  0  0  0  0  0  0  0
   37.2630   25.9660   33.7470 C   0  0  0  0  0  3  0  0  0  0  0  0
   36.6190   26.4740   32.9680 H   0  0  0  0  0  0  0  0  0  0  0  0
   37.1730   26.8000   34.9670 C   0  0  0  0  0  3  0  0  0  0  0  0
   37.1700   27.8890   34.6960 H   0  0  0  0  0  0  0  0  0  0  0  0
   38.2700   26.5730   35.8430 N   0  0  0  0  0  0  0  0  0  0  0  0
   38.3390   25.6680   36.3040 H   0  0  0  0  0  0  0  0  0  0  0  0
   39.4960   26.9350   35.2050 C   0  0  0  0  0  2  0  0  0  0  0  0
   39.4560   26.8810   33.6960 C   0  0  0  0  0  2  0  0  0  0  0  0
   38.3630   22.5290   34.5950 O   0  0  0  0  0  0  0  0  0  0  0  0
   37.8850   23.7450   37.9620 C   0  0  0  0  0  0  0  0  0  0  0  0
   39.0850   23.3480   38.5360 C   0  0  0  0  0  0  0  0  0  0  0  0
   40.0190   22.6710   37.7320 C   0  0  0  0  0  0  0  0  0  0  0  0
   39.6740   22.4510   36.4300 N   0  0  0  0  0  0  0  0  0  0  0  0
   38.4980   22.8560   35.9170 C   0  0  0  0  0  0  0  0  0  0  0  0
   37.5940   23.5110   36.6930 N   0  0  0  0  0  0  0  0  0  0  0  0
   37.0770   24.2730   38.4680 H   0  0  0  0  0  0  0  0  0  0  0  0
   39.2430   23.5790   39.5750 H   0  0  0  0  0  0  0  0  0  0  0  0
   40.9540   22.3590   38.1720 H   0  0  0  0  0  0  0  0  0  0  0  0
  1  3  1  0  0  0  0
  1 16  1  0  0  0  0
  2  1  1  0  0  0  0
  4  1  1  0  0  0  0
  4  5  1  0  0  0  0
  6  4  1  0  0  0  0
  7  4  1  0  0  0  0
  7 15  1  0  0  0  0
  7  8  1  0  0  0  0
  8 10  1  0  0  0  0
  9  8  1  0  0  0  0
 10 12  1  0  0  0  0
 11 10  1  0  0  0  0
 12 13  1  0  0  0  0
 14 12  1  0  0  0  0
 15 14  1  0  0  0  0
 16 21  1  0  0  0  0
 17 23  1  0  0  0  0
 17 18  1  0  0  0  0
 18 24  1  0  0  0  0
 19 25  1  0  0  0  0
 19 18  2  0  0  0  0
 20 19  1  0  0  0  0
 21 20  2  0  0  0  0
 21 22  1  0  0  0  0
 22 17  2  0  0  0  0
M  END
>  <minimizedAffinity>
-3.7817657

$$$$

 OpenBabel03272509483D

 25 26  0  0  0  0  0  0  0  0999 V2000
   38.3750   22.4740   33.7940 C   0  0  0  0  0  0  0  0  0  0  0  0
   38.6100   22.8400   32.7400 H   0  0  0  0  0  0  0  0  0  0  0  0
   39.2740   21.9180   34.0830 H   0  0  0  0  0  0  0  0  0  0  0  0
   37.1070   21.6490   33.7530 C   0  0  0  0  0  0  0  0  0  0  0  0
   37.2690   20.5730   33.8650 H   0  0  0  0  0  0  0  0  0  0  0  0
   36.4600   21.9870   34.5910 H   0  0  0  0  0  0  0  0  0  0  0  0
   36.3990   21.9830   32.5290 N   0  0  0  0  0  0  0  0  0  0  0  0
   37.1750   21.6220   31.3560 C   0  0  0  0  0  3  0  0  0  0  0  0
   37.0740   22.4610   30.6030 H   0  0  0  0  0  0  0  0  0  0  0  0
   36.7480   20.3870   30.6600 C   0  0  0  0  0  3  0  0  0  0  0  0
   35.8680   20.5980   29.9960 H   0  0  0  0  0  0  0  0  0  0  0  0
   36.3650   19.3710   31.5780 N   0  0  0  0  0  0  0  0  0  0  0  0
   37.0860   18.9530   32.1620 H   0  0  0  0  0  0  0  0  0  0  0  0
   35.2430   19.8000   32.3520 C   0  0  0  0  0  2  0  0  0  0  0  0
   35.1070   21.2980   32.4800 C   0  0  0  0  0  2  0  0  0  0  0  0
   38.1530   23.6510   34.5440 O   0  0  0  0  0  0  0  0  0  0  0  0
   37.8680   24.0340   38.1250 C   0  0  0  0  0  0  0  0  0  0  0  0
   39.0030   23.3460   38.5330 C   0  0  0  0  0  0  0  0  0  0  0  0
   39.8280   22.7730   37.5490 C   0  0  0  0  0  0  0  0  0  0  0  0
   39.4490   22.9370   36.2480 N   0  0  0  0  0  0  0  0  0  0  0  0
   38.3390   23.6140   35.9000 C   0  0  0  0  0  0  0  0  0  0  0  0
   37.5410   24.1680   36.8500 N   0  0  0  0  0  0  0  0  0  0  0  0
   37.1450   24.5220   38.7770 H   0  0  0  0  0  0  0  0  0  0  0  0
   39.1970   23.2850   39.5890 H   0  0  0  0  0  0  0  0  0  0  0  0
   40.7110   22.2360   37.8590 H   0  0  0  0  0  0  0  0  0  0  0  0
  1  3  1  0  0  0  0
  1 16  1  0  0  0  0
  2  1  1  0  0  0  0
  4  1  1  0  0  0  0
  4  5  1  0  0  0  0
  4  6  1  0  0  0  0
  7  4  1  0  0  0  0
  8  7  1  0  0  0  0
  9  8  1  0  0  0  0
 10  8  1  0  0  0  0
 10 12  1  0  0  0  0
 11 10  1  0  0  0  0
 12 13  1  0  0  0  0
 12 14  1  0  0  0  0
 14 15  1  0  0  0  0
 15  7  1  0  0  0  0
 16 21  1  0  0  0  0
 17 18  1  0  0  0  0
 17 23  1  0  0  0  0
 18 24  1  0  0  0  0
 19 25  1  0  0  0  0
 19 18  2  0  0  0  0
 20 19  1  0  0  0  0
 21 20  2  0  0  0  0
 21 22  1  0  0  0  0
 22 17  2  0  0  0  0
M  END
>  <minimizedAffinity>
-3.75534034

$$$$

 OpenBabel03272509483D

 25 26  0  0  0  0  0  0  0  0999 V2000
   37.3970   21.9110   34.2380 C   0  0  0  0  0  0  0  0  0  0  0  0
   37.4880   21.1630   35.0940 H   0  0  0  0  0  0  0  0  0  0  0  0
   36.3150   22.0110   34.0950 H   0  0  0  0  0  0  0  0  0  0  0  0
   38.1470   21.3740   33.0380 C   0  0  0  0  0  0  0  0  0  0  0  0
   38.9740   22.0080   32.7060 H   0  0  0  0  0  0  0  0  0  0  0  0
   38.5650   20.3840   33.3190 H   0  0  0  0  0  0  0  0  0  0  0  0
   37.1770   21.1250   31.9840 N   0  0  0  0  0  0  0  0  0  0  0  0
   36.0130   21.9830   32.1260 C   0  0  0  0  0  3  0  0  0  0  0  0
   35.0950   21.3570   31.9100 H   0  0  0  0  0  0  0  0  0  0  0  0
   35.9540   23.1390   31.2030 C   0  0  0  0  0  3  0  0  0  0  0  0
   35.5760   22.8160   30.1960 H   0  0  0  0  0  0  0  0  0  0  0  0
   37.2330   23.7310   31.0170 N   0  0  0  0  0  0  0  0  0  0  0  0
   37.6610   24.2110   31.8060 H   0  0  0  0  0  0  0  0  0  0  0  0
   38.1310   22.7930   30.4210 C   0  0  0  0  0  2  0  0  0  0  0  0
   37.7800   21.3450   30.6700 C   0  0  0  0  0  2  0  0  0  0  0  0
   38.0320   23.0810   34.7110 O   0  0  0  0  0  0  0  0  0  0  0  0
   39.8630   22.7570   37.8080 C   0  0  0  0  0  0  0  0  0  0  0  0
   38.9810   23.3840   38.6770 C   0  0  0  0  0  0  0  0  0  0  0  0
   37.7800   23.8990   38.1570 C   0  0  0  0  0  0  0  0  0  0  0  0
   37.5660   23.7410   36.8180 N   0  0  0  0  0  0  0  0  0  0  0  0
   38.4510   23.1240   36.0140 C   0  0  0  0  0  0  0  0  0  0  0  0
   39.6120   22.6260   36.5160 N   0  0  0  0  0  0  0  0  0  0  0  0
   40.8230   22.3180   38.0760 H   0  0  0  0  0  0  0  0  0  0  0  0
   39.2620   23.4470   39.7140 H   0  0  0  0  0  0  0  0  0  0  0  0
   37.0910   24.3880   38.8270 H   0  0  0  0  0  0  0  0  0  0  0  0
  1 16  1  0  0  0  0
  1  2  1  0  0  0  0
  3  1  1  0  0  0  0
  4  6  1  0  0  0  0
  4  1  1  0  0  0  0
  5  4  1  0  0  0  0
  7  8  1  0  0  0  0
  7  4  1  0  0  0  0
  9  8  1  0  0  0  0
 10  8  1  0  0  0  0
 11 10  1  0  0  0  0
 12 10  1  0  0  0  0
 12 13  1  0  0  0  0
 14 15  1  0  0  0  0
 14 12  1  0  0  0  0
 15  7  1  0  0  0  0
 16 21  1  0  0  0  0
 17 23  1  0  0  0  0
 17 18  1  0  0  0  0
 18 24  1  0  0  0  0
 19 18  2  0  0  0  0
 19 25  1  0  0  0  0
 20 19  1  0  0  0  0
 21 22  1  0  0  0  0
 21 20  2  0  0  0  0
 22 17  2  0  0  0  0
M  END
>  <minimizedAffinity>
-3.62756538

$$$$

 OpenBabel03272509483D

 25 26  0  0  0  0  0  0  0  0999 V2000
   37.6230   26.1680   34.6230 C   0  0  0  0  0  0  0  0  0  0  0  0
   36.5750   25.7290   34.7240 H   0  0  0  0  0  0  0  0  0  0  0  0
   37.7210   26.8140   35.5030 H   0  0  0  0  0  0  0  0  0  0  0  0
   37.7270   26.8870   33.2960 C   0  0  0  0  0  0  0  0  0  0  0  0
   38.4170   27.7350   33.2990 H   0  0  0  0  0  0  0  0  0  0  0  0
   38.0880   26.1540   32.5440 H   0  0  0  0  0  0  0  0  0  0  0  0
   36.3830   27.2620   32.8890 N   0  0  0  0  0  0  0  0  0  0  0  0
   36.1600   28.6870   33.0590 C   0  0  0  0  0  3  0  0  0  0  0  0
   35.1200   28.8250   33.4860 H   0  0  0  0  0  0  0  0  0  0  0  0
   36.2100   29.4970   31.8200 C   0  0  0  0  0  3  0  0  0  0  0  0
   35.2360   29.4240   31.2680 H   0  0  0  0  0  0  0  0  0  0  0  0
   37.2400   29.0560   30.9450 N   0  0  0  0  0  0  0  0  0  0  0  0
   38.2070   29.1920   31.2330 H   0  0  0  0  0  0  0  0  0  0  0  0
   36.9970   27.7110   30.5310 C   0  0  0  0  0  2  0  0  0  0  0  0
   36.1530   26.9040   31.4890 C   0  0  0  0  0  2  0  0  0  0  0  0
   38.4850   25.0480   34.6260 O   0  0  0  0  0  0  0  0  0  0  0  0
   39.7140   22.8880   37.2480 C   0  0  0  0  0  0  0  0  0  0  0  0
   38.8880   23.2810   38.2920 C   0  0  0  0  0  0  0  0  0  0  0  0
   37.9330   24.2830   38.0490 C   0  0  0  0  0  0  0  0  0  0  0  0
   37.8850   24.8030   36.7880 N   0  0  0  0  0  0  0  0  0  0  0  0
   38.7070   24.3890   35.8060 C   0  0  0  0  0  0  0  0  0  0  0  0
   39.6310   23.4200   36.0400 N   0  0  0  0  0  0  0  0  0  0  0  0
   40.4940   22.1290   37.2980 H   0  0  0  0  0  0  0  0  0  0  0  0
   39.0210   22.7960   39.2440 H   0  0  0  0  0  0  0  0  0  0  0  0
   37.2880   24.5950   38.8570 H   0  0  0  0  0  0  0  0  0  0  0  0
  1 16  1  0  0  0  0
  1  2  1  0  0  0  0
  1  3  1  0  0  0  0
  4  5  1  0  0  0  0
  4  1  1  0  0  0  0
  6  4  1  0  0  0  0
  7  8  1  0  0  0  0
  7  4  1  0  0  0  0
  8  9  1  0  0  0  0
 10  8  1  0  0  0  0
 11 10  1  0  0  0  0
 12 13  1  0  0  0  0
 12 10  1  0  0  0  0
 14 12  1  0  0  0  0
 14 15  1  0  0  0  0
 15  7  1  0  0  0  0
 16 21  1  0  0  0  0
 17 23  1  0  0  0  0
 17 18  1  0  0  0  0
 18 24  1  0  0  0  0
 19 18  2  0  0  0  0
 19 25  1  0  0  0  0
 20 19  1  0  0  0  0
 21 22  1  0  0  0  0
 21 20  2  0  0  0  0
 22 17  2  0  0  0  0
M  END
>  <minimizedAffinity>
-3.62310338

$$$$
