
 OpenBabel03272505533D

 34 36  0  0  1  0  0  0  0  0999 V2000
   34.8280   30.0720   49.8950 C   0  0  2  0  0  0  0  0  0  0  0  0
   35.7770   31.1360   49.3710 C   0  0  0  0  0  0  0  0  0  0  0  0
   37.2160   30.7400   49.5320 C   0  0  2  0  0  0  0  0  0  0  0  0
   37.5470   30.4440   50.9810 C   0  0  0  0  0  0  0  0  0  0  0  0
   36.5710   29.4980   51.5970 C   0  0  0  0  0  0  0  0  0  0  0  0
   35.5180   28.9850   50.6410 C   0  0  0  0  0  0  0  0  0  0  0  0
   34.0240   30.5400   50.5000 H   0  0  0  0  0  0  0  0  0  0  0  0
   35.5490   32.0820   49.8810 H   0  0  0  0  0  0  0  0  0  0  0  0
   35.6220   31.3470   48.2780 H   0  0  0  0  0  0  0  0  0  0  0  0
   37.3200   29.7500   49.0140 H   0  0  0  0  0  0  0  0  0  0  0  0
   38.5890   30.0720   51.0180 H   0  0  0  0  0  0  0  0  0  0  0  0
   37.4920   31.4080   51.5470 H   0  0  0  0  0  0  0  0  0  0  0  0
   37.1430   28.6020   51.9520 H   0  0  0  0  0  0  0  0  0  0  0  0
   36.0650   29.8860   52.4910 H   0  0  0  0  0  0  0  0  0  0  0  0
   34.7520   28.4830   51.2880 H   0  0  0  0  0  0  0  0  0  0  0  0
   35.9100   28.1670   49.9940 H   0  0  0  0  0  0  0  0  0  0  0  0
   34.1120   29.4390   48.7430 C   0  0  0  0  0  0  0  0  0  0  0  0
   34.1830   30.1450   47.5190 C   0  0  0  0  0  0  0  0  0  0  0  0
   33.5130   29.5740   46.4330 C   0  0  0  0  0  0  0  0  0  0  0  0
   32.8310   28.3840   46.5920 N   0  0  0  0  0  0  0  0  0  0  0  0
   32.8000   27.7490   47.8030 C   0  0  0  0  0  0  0  0  0  0  0  0
   33.4310   28.2720   48.8540 N   0  0  0  0  0  0  0  0  0  0  0  0
   34.7030   31.0610   47.3790 H   0  0  0  0  0  0  0  0  0  0  0  0
   33.4880   30.0040   45.4540 H   0  0  0  0  0  0  0  0  0  0  0  0
   32.2460   26.8230   47.8470 H   0  0  0  0  0  0  0  0  0  0  0  0
   38.0580   31.6450   48.9000 N   0  0  1  0  0  0  0  0  0  0  0  0
   39.0180   32.3600   49.6370 C   0  0  0  0  0  0  0  0  0  0  0  0
   38.8550   32.2710   50.7080 H   0  0  0  0  0  0  0  0  0  0  0  0
   38.9590   33.8070   49.1310 C   0  0  0  0  0  0  0  0  0  0  0  0
   37.8760   34.0650   49.0970 H   0  0  0  0  0  0  0  0  0  0  0  0
   39.4300   33.8070   47.7630 N   0  0  0  0  0  0  0  0  0  0  0  0
   40.4600   34.0540   47.7870 H   0  0  0  0  0  0  0  0  0  0  0  0
   39.3490   32.5190   47.1170 C   0  0  0  0  0  0  0  0  0  0  0  0
   38.0610   31.7830   47.5010 C   0  0  0  0  0  0  0  0  0  0  0  0
  1  7  1  1  0  0  0
  1  6  1  0  0  0  0
  2  3  1  0  0  0  0
  2  8  1  0  0  0  0
  2  1  1  0  0  0  0
  3 10  1  6  0  0  0
  3  4  1  0  0  0  0
  4 11  1  0  0  0  0
  4 12  1  0  0  0  0
  4  5  1  0  0  0  0
  5 13  1  0  0  0  0
  5 14  1  0  0  0  0
  6 15  1  0  0  0  0
  6  5  1  0  0  0  0
  9  2  1  0  0  0  0
 16  6  1  0  0  0  0
 17 22  1  0  0  0  0
 17  1  1  0  0  0  0
 18 17  2  0  0  0  0
 19 20  2  0  0  0  0
 19 18  1  0  0  0  0
 20 21  1  0  0  0  0
 21 25  1  0  0  0  0
 21 22  2  0  0  0  0
 23 18  1  0  0  0  0
 24 19  1  0  0  0  0
 26 34  1  6  0  0  0
 26  3  1  0  0  0  0
 26 27  1  0  0  0  0
 27 28  1  0  0  0  0
 29 27  1  0  0  0  0
 30 29  1  0  0  0  0
 31 32  1  0  0  0  0
 31 29  1  0  0  0  0
 33 34  1  0  0  0  0
 33 31  1  0  0  0  0
M  END
>  <minimizedAffinity>
-5.86197233

>  <minimizedRMSD>
1.03051412

$$$$
