
 OpenBabel03272510333D

 28 30  0  0  0  0  0  0  0  0999 V2000
   36.6990   30.4830   45.5120 C   0  0  0  0  0  0  0  0  0  0  0  0
   36.1750   30.1820   44.2770 C   0  0  0  0  0  0  0  0  0  0  0  0
   34.9240   29.6070   44.1370 C   0  0  0  0  0  0  0  0  0  0  0  0
   34.2100   29.3440   45.2860 C   0  0  0  0  0  0  0  0  0  0  0  0
   34.7150   29.6390   46.5420 C   0  0  0  0  0  0  0  0  0  0  0  0
   35.9790   30.2170   46.6640 C   0  0  0  0  0  0  0  0  0  0  0  0
   36.6660   30.3550   43.3110 H   0  0  0  0  0  0  0  0  0  0  0  0
   34.4850   29.3580   43.1800 H   0  0  0  0  0  0  0  0  0  0  0  0
   33.2360   28.9030   45.3090 H   0  0  0  0  0  0  0  0  0  0  0  0
   34.2190   29.4620   47.4840 H   0  0  0  0  0  0  0  0  0  0  0  0
   39.2930   33.0380   45.5490 C   0  0  0  0  0  0  0  0  0  0  0  0
   40.4910   32.3230   45.5760 C   0  0  0  0  0  0  0  0  0  0  0  0
   40.3920   30.9110   45.5810 C   0  0  0  0  0  0  0  0  0  0  0  0
   39.1550   30.3740   45.5600 N   0  0  0  0  0  0  0  0  0  0  0  0
   38.0200   31.0840   45.5350 C   0  0  0  0  0  0  0  0  0  0  0  0
   38.0890   32.4430   45.5290 N   0  0  0  0  0  0  0  0  0  0  0  0
   39.3630   34.1190   45.5450 H   0  0  0  0  0  0  0  0  0  0  0  0
   41.4230   32.8640   45.5910 H   0  0  0  0  0  0  0  0  0  0  0  0
   41.3070   30.3470   45.6020 H   0  0  0  0  0  0  0  0  0  0  0  0
   36.5300   30.5340   47.9370 N   0  0  0  0  0  0  0  0  0  0  0  0
   37.8890   30.5200   48.4320 C   0  0  0  0  0  3  0  0  0  0  0  0
   38.3510   31.5150   48.4570 H   0  0  0  0  0  0  0  0  0  0  0  0
   37.9820   29.9680   49.8360 C   0  0  0  0  0  3  0  0  0  0  0  0
   38.8620   29.3310   49.9970 H   0  0  0  0  0  0  0  0  0  0  0  0
   36.7870   29.1540   50.0580 N   0  0  0  0  0  0  0  0  0  0  0  0
   36.8680   28.5950   50.9180 H   0  0  0  0  0  0  0  0  0  0  0  0
   35.7100   30.1410   50.2340 C   0  0  0  0  0  2  0  0  0  0  0  0
   35.5880   30.9620   48.9750 C   0  0  0  0  0  2  0  0  0  0  0  0
  1 15  1  0  0  0  0
  1  6  1  0  0  0  0
  2  1  2  0  0  0  0
  3  2  1  0  0  0  0
  3  4  2  0  0  0  0
  4  9  1  0  0  0  0
  4  5  1  0  0  0  0
  5  6  2  0  0  0  0
  5 10  1  0  0  0  0
  6 20  1  0  0  0  0
  7  2  1  0  0  0  0
  8  3  1  0  0  0  0
 11 12  1  0  0  0  0
 12 13  2  0  0  0  0
 12 18  1  0  0  0  0
 13 19  1  0  0  0  0
 14 13  1  0  0  0  0
 15 14  2  0  0  0  0
 16 15  1  0  0  0  0
 16 11  2  0  0  0  0
 17 11  1  0  0  0  0
 20 21  1  0  0  0  0
 20 28  1  0  0  0  0
 21 22  1  0  0  0  0
 21 23  1  0  0  0  0
 23 24  1  0  0  0  0
 23 25  1  0  0  0  0
 25 27  1  0  0  0  0
 25 26  1  0  0  0  0
 28 27  1  0  0  0  0
M  END
>  <minimizedAffinity>
-4.58899117

>  <minimizedRMSD>
3.35105777

$$$$
