
 OpenBabel03272509463D

 25 26  0  0  0  0  0  0  0  0999 V2000
   34.1980   28.5960   48.5330 C   0  0  0  0  0  0  0  0  0  0  0  0
   34.2230   29.7360   48.5290 H   0  0  0  0  0  0  0  0  0  0  0  0
   34.5210   28.3260   47.5210 H   0  0  0  0  0  0  0  0  0  0  0  0
   32.8020   28.1390   48.8930 C   0  0  0  0  0  0  0  0  0  0  0  0
   32.6970   27.7900   49.9240 H   0  0  0  0  0  0  0  0  0  0  0  0
   32.1190   29.0030   48.7530 H   0  0  0  0  0  0  0  0  0  0  0  0
   32.3980   27.1370   47.9210 N   0  0  0  0  0  0  0  0  0  0  0  0
   31.2050   26.4310   48.3570 C   0  0  0  0  0  0  0  0  0  0  0  0
   31.3470   25.3340   48.1180 H   0  0  0  0  0  0  0  0  0  0  0  0
   29.9430   26.8380   47.6980 C   0  0  0  0  0  0  0  0  0  0  0  0
   29.8510   26.3460   46.6930 H   0  0  0  0  0  0  0  0  0  0  0  0
   29.8830   28.2440   47.4990 N   0  0  0  0  0  0  0  0  0  0  0  0
   29.8060   28.8440   48.3190 H   0  0  0  0  0  0  0  0  0  0  0  0
   30.9380   28.6690   46.6340 C   0  0  0  0  0  0  0  0  0  0  0  0
   32.1410   27.7570   46.6210 C   0  0  0  0  0  0  0  0  0  0  0  0
   35.1010   28.2170   49.5520 O   0  0  0  0  0  0  0  0  0  0  0  0
   37.4190   30.3170   51.3600 C   0  0  0  0  0  0  0  0  0  0  0  0
   38.1180   30.8750   50.2990 C   0  0  0  0  0  0  0  0  0  0  0  0
   37.7590   30.5030   48.9920 C   0  0  0  0  0  0  0  0  0  0  0  0
   36.7370   29.6090   48.8590 N   0  0  0  0  0  0  0  0  0  0  0  0
   36.0870   29.0940   49.9190 C   0  0  0  0  0  0  0  0  0  0  0  0
   36.4330   29.4530   51.1830 N   0  0  0  0  0  0  0  0  0  0  0  0
   37.5930   30.5140   52.4180 H   0  0  0  0  0  0  0  0  0  0  0  0
   38.9050   31.5710   50.5310 H   0  0  0  0  0  0  0  0  0  0  0  0
   38.2990   30.9330   48.1620 H   0  0  0  0  0  0  0  0  0  0  0  0
  1  4  1  0  0  0  0
  1 16  1  0  0  0  0
  2  1  1  0  0  0  0
  3  1  1  0  0  0  0
  4  5  1  0  0  0  0
  6  4  1  0  0  0  0
  7  8  1  0  0  0  0
  7  4  1  0  0  0  0
  9  8  1  0  0  0  0
 10  8  1  0  0  0  0
 11 10  1  0  0  0  0
 12 10  1  0  0  0  0
 12 13  1  0  0  0  0
 14 12  1  0  0  0  0
 15 14  1  0  0  0  0
 15  7  1  0  0  0  0
 16 21  1  0  0  0  0
 17 23  1  0  0  0  0
 18 24  1  0  0  0  0
 18 17  2  0  0  0  0
 19 18  1  0  0  0  0
 20 19  2  0  0  0  0
 20 21  1  0  0  0  0
 21 22  2  0  0  0  0
 22 17  1  0  0  0  0
 25 19  1  0  0  0  0
M  END
>  <minimizedAffinity>
-3.98857832

>  <minimizedRMSD>
3.11372948

$$$$
