REMARK  Name = 
REMARK  4 active torsions:
REMARK  status: ('A' for Active; 'I' for Inactive)
REMARK    1  A    between atoms: C_5  and  O_7
REMARK    2  A    between atoms: O_7  and  C_8
REMARK    3  A    between atoms: C_8  and  C_9
REMARK    4  A    between atoms: C_9  and  N_17
REMARK                            x       y       z     vdW  Elec       q    Type
REMARK                         _______ _______ _______ _____ _____    ______ ____
ROOT
ATOM      1  C   UNL     1      34.188  28.408  48.449  0.00  0.00    +0.000 C 
ATOM      2  H   UNL     1      33.221  28.995  48.593  0.00  0.00    +0.000 HD
ATOM      3  H   UNL     1      34.766  29.027  47.753  0.00  0.00    +0.000 HD
ENDROOT
BRANCH   1   4
ATOM      4  C   UNL     1      33.850  27.026  47.935  0.00  0.00    +0.000 C 
ATOM      5  H   UNL     1      33.070  26.514  48.506  0.00  0.00    +0.000 HD
ATOM      6  H   UNL     1      33.493  27.135  46.889  0.00  0.00    +0.000 HD
BRANCH   4   7
ATOM      7  N   UNL     1      35.085  26.263  47.868  0.00  0.00    +0.000 NA
ATOM      8  C   UNL     1      35.014  25.073  48.698  0.00  0.00    +0.000 C 
ATOM      9  H   UNL     1      36.008  24.963  49.230  0.00  0.00    +0.000 HD
ATOM     10  C   UNL     1      34.790  23.800  47.975  0.00  0.00    +0.000 C 
ATOM     11  H   UNL     1      35.753  23.423  47.541  0.00  0.00    +0.000 HD
ATOM     12  N   UNL     1      33.864  23.958  46.909  0.00  0.00    +0.000 NA
ATOM     13  H   UNL     1      32.891  24.154  47.139  0.00  0.00    +0.000 HD
ATOM     14  C   UNL     1      34.372  24.878  45.941  0.00  0.00    +0.000 C 
ATOM     15  C   UNL     1      35.371  25.870  46.488  0.00  0.00    +0.000 C 
ENDBRANCH   4   7
ENDBRANCH   1   4
BRANCH   1  16
ATOM     16  O   UNL     1      34.748  28.311  49.743  0.00  0.00    +0.000 OA
BRANCH  16  21
ATOM     17  C   UNL     1      37.327  30.208  51.416  0.00  0.00    +0.000 A 
ATOM     18  C   UNL     1      38.048  30.657  50.318  0.00  0.00    +0.000 A 
ATOM     19  C   UNL     1      37.613  30.285  49.034  0.00  0.00    +0.000 A 
ATOM     20  N   UNL     1      36.499  29.500  48.959  0.00  0.00    +0.000 NA
ATOM     21  C   UNL     1      35.831  29.089  50.053  0.00  0.00    +0.000 A 
ATOM     22  N   UNL     1      36.251  29.448  51.295  0.00  0.00    +0.000 NA
ATOM     23  H   UNL     1      37.553  30.418  52.461  0.00  0.00    +0.000 HD
ATOM     24  H   UNL     1      38.911  31.272  50.505  0.00  0.00    +0.000 HD
ATOM     25  H   UNL     1      38.169  30.630  48.176  0.00  0.00    +0.000 HD
ENDBRANCH  16  21
ENDBRANCH   1  16
TORSDOF 4
