
 OpenBabel03262521593D

 36 38  0  0  1  0  0  0  0  0999 V2000
   36.3330   30.1550   48.4040 N   0  0  0  0  0  0  0  0  0  0  0  0
   36.9510   29.1560   49.2070 C   0  0  0  0  0  0  0  0  0  0  0  0
   36.9760   29.3640   50.6660 C   0  0  0  0  0  0  0  0  0  0  0  0
   36.8800   30.7510   51.1870 C   0  0  0  0  0  0  0  0  0  0  0  0
   36.3510   31.7720   50.2130 C   0  0  0  0  0  0  0  0  0  0  0  0
   36.8280   31.4320   48.7960 C   0  0  1  0  0  0  0  0  0  0  0  0
   36.3520   28.2220   48.9880 H   0  0  0  0  0  0  0  0  0  0  0  0
   37.9620   28.8250   48.8200 H   0  0  0  0  0  0  0  0  0  0  0  0
   36.2530   28.6660   51.1860 H   0  0  0  0  0  0  0  0  0  0  0  0
   37.9620   28.9760   51.0660 H   0  0  0  0  0  0  0  0  0  0  0  0
   36.0770   30.7600   51.9840 H   0  0  0  0  0  0  0  0  0  0  0  0
   37.7540   31.0990   51.7890 H   0  0  0  0  0  0  0  0  0  0  0  0
   36.7530   32.7640   50.5070 H   0  0  0  0  0  0  0  0  0  0  0  0
   35.2530   31.7880   50.1550 H   0  0  0  0  0  0  0  0  0  0  0  0
   36.2570   32.1620   48.1710 H   0  0  0  0  0  0  0  0  0  0  0  0
   35.3690   29.9080   47.3680 C   0  0  0  0  0  0  0  0  0  0  0  0
   35.5490   30.2000   46.0180 C   0  0  0  0  0  0  0  0  0  0  0  0
   34.5380   29.9090   45.1330 C   0  0  0  0  0  0  0  0  0  0  0  0
   33.4050   29.3460   45.6370 N   0  0  0  0  0  0  0  0  0  0  0  0
   33.2360   29.0680   46.9420 C   0  0  0  0  0  0  0  0  0  0  0  0
   34.2360   29.3640   47.7590 N   0  0  0  0  0  0  0  0  0  0  0  0
   36.4950   30.6460   45.7460 H   0  0  0  0  0  0  0  0  0  0  0  0
   34.6710   30.1340   44.0830 H   0  0  0  0  0  0  0  0  0  0  0  0
   32.0140   28.4720   47.4120 N   0  0  0  0  0  0  0  0  0  0  0  0
   30.7790   29.0180   46.9140 C   0  0  0  0  0  0  0  0  0  0  0  0
   30.6320   30.0710   47.2700 H   0  0  0  0  0  0  0  0  0  0  0  0
   29.5650   28.2510   47.2950 C   0  0  0  0  0  0  0  0  0  0  0  0
   28.6510   28.8720   47.3820 H   0  0  0  0  0  0  0  0  0  0  0  0
   29.7000   27.4450   48.4880 N   0  0  0  0  0  0  0  0  0  0  0  0
   29.7700   28.0340   49.3520 H   0  0  0  0  0  0  0  0  0  0  0  0
   30.8440   26.5800   48.4500 C   0  0  0  0  0  0  0  0  0  0  0  0
   32.1230   27.3550   48.3630 C   0  0  0  0  0  0  0  0  0  0  0  0
   38.3060   31.6280   48.7410 C   0  0  0  0  0  0  0  0  0  0  0  0
   38.5080   32.9210   48.2330 F   0  0  0  0  0  0  0  0  0  0  0  0
   38.8560   30.8160   47.7790 F   0  0  0  0  0  0  0  0  0  0  0  0
   38.9620   31.5810   49.9250 F   0  0  0  0  0  0  0  0  0  0  0  0
  1  6  1  0  0  0  0
  1  2  1  0  0  0  0
  2  3  1  0  0  0  0
  3 10  1  0  0  0  0
  3  9  1  0  0  0  0
  3  4  1  0  0  0  0
  4 12  1  0  0  0  0
  4 11  1  0  0  0  0
  5 13  1  0  0  0  0
  5  4  1  0  0  0  0
  6 15  1  6  0  0  0
  6  5  1  0  0  0  0
  7  2  1  0  0  0  0
  8  2  1  0  0  0  0
 14  5  1  0  0  0  0
 16 21  1  0  0  0  0
 16  1  1  0  0  0  0
 17 16  2  0  0  0  0
 18 19  2  0  0  0  0
 18 17  1  0  0  0  0
 19 20  1  0  0  0  0
 20 24  1  0  0  0  0
 20 21  2  0  0  0  0
 22 17  1  0  0  0  0
 23 18  1  0  0  0  0
 24 32  1  0  0  0  0
 25 26  1  0  0  0  0
 25 27  1  0  0  0  0
 25 24  1  0  0  0  0
 27 28  1  0  0  0  0
 27 29  1  0  0  0  0
 29 30  1  0  0  0  0
 31 29  1  0  0  0  0
 32 31  1  0  0  0  0
 33  6  1  0  0  0  0
 33 36  1  0  0  0  0
 34 33  1  0  0  0  0
 35 33  1  0  0  0  0
M  END
>  <minimizedAffinity>
-5.62402821

>  <minimizedRMSD>
1.93233144

$$$$
