
     RDKit          3D

 36 38  0  0  0  0  0  0  0  0999 V2000
   38.0961   33.1435   49.4886 C   0  0  0  0  0  0  0  0  0  0  0  0
   38.9364   33.0657   48.3716 C   0  0  0  0  0  0  0  0  0  0  0  0
   38.7037   32.0496   47.4427 C   0  0  0  0  0  0  0  0  0  0  0  0
   37.6807   31.1964   47.6712 N   0  0  0  0  0  0  0  0  0  0  0  0
   36.8849   31.2809   48.7417 C   0  0  0  0  0  0  0  0  0  0  0  0
   37.1001   32.2503   49.6364 N   0  0  0  0  0  0  0  0  0  0  0  0
   35.8178   30.3468   48.9247 N   0  0  0  0  0  0  0  0  0  0  0  0
   34.7270   30.2030   47.9584 C   0  0  0  0  0  0  0  0  0  0  0  0
   34.0364   28.9486   48.3388 C   0  0  0  0  0  0  0  0  0  0  0  0
   34.8700   28.3158   49.4323 C   0  0  0  0  0  0  0  0  0  0  0  0
   35.6479   29.4395   50.0326 C   0  0  0  0  0  0  0  0  0  0  0  0
   38.3206   33.9365   50.1614 H   0  0  0  0  0  0  0  0  0  0  0  0
   39.2305   31.8288   46.5374 H   0  0  0  0  0  0  0  0  0  0  0  0
   35.1441   30.2286   46.9320 H   0  0  0  0  0  0  0  0  0  0  0  0
   34.0466   31.0647   48.0715 H   0  0  0  0  0  0  0  0  0  0  0  0
   34.0161   28.2749   47.4548 H   0  0  0  0  0  0  0  0  0  0  0  0
   32.9911   29.1336   48.6686 H   0  0  0  0  0  0  0  0  0  0  0  0
   35.4810   27.4609   49.0848 H   0  0  0  0  0  0  0  0  0  0  0  0
   34.1534   27.9237   50.1969 H   0  0  0  0  0  0  0  0  0  0  0  0
   36.6698   29.0782   50.3491 H   0  0  0  0  0  0  0  0  0  0  0  0
   35.1451   29.9160   50.9027 H   0  0  0  0  0  0  0  0  0  0  0  0
   40.0296   33.9208   48.0600 N   0  0  0  0  0  0  0  0  0  0  0  0
   39.9326   35.1375   47.2793 C   0  0  1  0  0  0  0  0  0  0  0  0
   39.8879   34.8374   46.2132 H   0  0  0  0  0  0  0  0  0  0  0  0
   41.0556   36.0764   47.5784 C   0  0  2  0  0  0  0  0  0  0  0  0
   40.8027   37.1185   47.2785 H   0  0  0  0  0  0  0  0  0  0  0  0
   41.2619   36.1096   49.0246 N   0  0  0  0  0  0  0  0  0  0  0  0
   40.3750   36.2032   49.5396 H   0  0  0  0  0  0  0  0  0  0  0  0
   41.9065   34.8483   49.3552 C   0  0  0  0  0  0  0  0  0  0  0  0
   41.3994   33.7290   48.4593 C   0  0  0  0  0  0  0  0  0  0  0  0
   38.9792   35.6977   47.4977 H   0  0  0  0  0  0  0  0  0  0  0  0
   42.0107   35.7454   47.1438 H   0  0  0  0  0  0  0  0  0  0  0  0
   42.9997   35.0073   49.2427 H   0  0  0  0  0  0  0  0  0  0  0  0
   41.7251   34.6546   50.4238 H   0  0  0  0  0  0  0  0  0  0  0  0
   41.5524   32.7581   48.9729 H   0  0  0  0  0  0  0  0  0  0  0  0
   42.0915   33.7283   47.5669 H   0  0  0  0  0  0  0  0  0  0  0  0
  1  6  2  0
  2  1  1  0
  3  4  1  0
  3  2  2  0
  4  5  2  0
  5  7  1  0
  5  6  1  0
  7 11  1  0
  8  9  1  0
  8  7  1  0
  9 10  1  0
 10 11  1  0
  1 12  1  0
  3 13  1  0
  8 14  1  0
  8 15  1  0
  9 16  1  0
  9 17  1  0
 10 18  1  0
 10 19  1  0
 11 20  1  0
 11 21  1  0
 22 23  1  0
 23 24  1  6
 23 25  1  0
 25 26  1  6
 25 27  1  0
 27 28  1  0
 27 29  1  0
 29 30  1  0
 30 22  1  0
 23 31  1  0
 25 32  1  0
 29 33  1  0
 29 34  1  0
 30 35  1  0
 30 36  1  0
  2 22  1  0
M  ISO  8  12  14  13  14  14  13  15  13  16  13  17  13  18  13  19  13
M  ISO  5  20  13  21  13  24   8  26   8  28   5
M  END
>  <DihAtoms>  (1) 
0,1,21,22

>  <DihDeg>  (1) 
-179.8879179938074

$$$$
