
 OpenBabel03272509233D

 46 50  0  0  0  0  0  0  0  0999 V2000
   35.7010   29.4220   33.5420 C   0  0  0  0  0  0  0  0  0  0  0  0
   34.6400   30.3030   33.7050 C   0  0  0  0  0  0  0  0  0  0  0  0
   34.2180   30.9210   32.5090 C   0  0  0  0  0  0  0  0  0  0  0  0
   34.8370   30.6490   31.2800 C   0  0  0  0  0  0  0  0  0  0  0  0
   35.9060   29.7390   31.2280 C   0  0  0  0  0  0  0  0  0  0  0  0
   36.3320   29.1220   32.3960 C   0  0  0  0  0  0  0  0  0  0  0  0
   33.3940   31.6240   32.5380 H   0  0  0  0  0  0  0  0  0  0  0  0
   34.4780   31.1470   30.3870 H   0  0  0  0  0  0  0  0  0  0  0  0
   36.3310   29.5780   30.2620 H   0  0  0  0  0  0  0  0  0  0  0  0
   32.8420   29.9100   35.3110 C   0  0  0  0  0  0  0  0  0  0  0  0
   34.0130   30.5770   34.9570 C   0  0  0  0  0  0  0  0  0  0  0  0
   34.5370   31.5060   35.8660 C   0  0  0  0  0  0  0  0  0  0  0  0
   33.8790   31.7060   37.0360 N   0  0  0  0  0  0  0  0  0  0  0  0
   32.7370   31.0320   37.3390 C   0  0  0  0  0  0  0  0  0  0  0  0
   32.2290   30.1450   36.4840 N   0  0  0  0  0  0  0  0  0  0  0  0
   32.4470   29.2020   34.6160 H   0  0  0  0  0  0  0  0  0  0  0  0
   32.2350   31.2170   38.2850 H   0  0  0  0  0  0  0  0  0  0  0  0
   35.7820   32.2430   35.5370 C   0  0  0  0  0  0  0  0  0  0  0  0
   36.1960   32.6960   36.4430 H   0  0  0  0  0  0  0  0  0  0  0  0
   35.4850   33.0760   34.8560 H   0  0  0  0  0  0  0  0  0  0  0  0
   36.5050   31.6330   34.9590 H   0  0  0  0  0  0  0  0  0  0  0  0
   36.1950   28.7590   34.6690 O   0  0  0  0  0  0  0  0  0  0  0  0
   35.6650   28.1390   35.2440 H   0  0  0  0  0  0  0  0  0  0  0  0
   37.3870   28.2430   32.2640 O   0  0  0  0  0  0  0  0  0  0  0  0
   37.9880   26.1700   33.5240 C   0  0  0  0  0  0  0  0  0  0  0  0
   37.3730   26.8950   32.5210 C   0  0  0  0  0  0  0  0  0  0  0  0
   36.5960   26.2180   31.5790 C   0  0  0  0  0  0  0  0  0  0  0  0
   36.4450   24.8230   31.6580 C   0  0  0  0  0  0  0  0  0  0  0  0
   35.7810   23.9000   30.9250 N   0  0  0  0  0  0  0  0  0  0  0  0
   35.9690   22.6750   31.4370 C   0  0  0  0  0  0  0  0  0  0  0  0
   36.7770   22.8330   32.5270 N   0  0  0  0  0  0  0  0  0  0  0  0
   37.0730   24.1460   32.6700 C   0  0  0  0  0  0  0  0  0  0  0  0
   37.8380   24.8090   33.5940 C   0  0  0  0  0  0  0  0  0  0  0  0
   38.5620   26.7870   34.1940 H   0  0  0  0  0  0  0  0  0  0  0  0
   36.0550   26.6430   30.7430 H   0  0  0  0  0  0  0  0  0  0  0  0
   35.2020   24.1160   30.0760 H   0  0  0  0  0  0  0  0  0  0  0  0
   35.5460   21.7660   31.0370 H   0  0  0  0  0  0  0  0  0  0  0  0
   38.4960   24.1190   34.6510 N   0  0  0  0  0  0  0  0  0  0  0  0
   39.5780   23.1860   34.4010 C   0  0  0  0  0  3  0  0  0  0  0  0
   40.4930   23.6720   34.0060 H   0  0  0  0  0  0  0  0  0  0  0  0
   39.8500   22.3880   35.6550 C   0  0  0  0  0  3  0  0  0  0  0  0
   40.3470   23.0130   36.4380 H   0  0  0  0  0  0  0  0  0  0  0  0
   38.5420   21.9510   36.1430 N   0  0  0  0  0  0  0  0  0  0  0  0
   37.9030   21.8110   35.3030 H   0  0  0  0  0  0  0  0  0  0  0  0
   37.9820   23.1000   36.8280 C   0  0  0  0  0  2  0  0  0  0  0  0
   38.0680   24.3570   36.0140 C   0  0  0  0  0  2  0  0  0  0  0  0
  1  2  1  0  0  0  0
  1 22  1  0  0  0  0
  2 11  1  0  0  0  0
  3  7  1  0  0  0  0
  3  2  2  0  0  0  0
  4  3  1  0  0  0  0
  5  4  2  0  0  0  0
  5  6  1  0  0  0  0
  6  1  2  0  0  0  0
  8  4  1  0  0  0  0
  9  5  1  0  0  0  0
 10 15  1  0  0  0  0
 11 10  2  0  0  0  0
 11 12  1  0  0  0  0
 12 13  2  0  0  0  0
 13 14  1  0  0  0  0
 14 17  1  0  0  0  0
 15 14  2  0  0  0  0
 16 10  1  0  0  0  0
 18 12  1  0  0  0  0
 18 19  1  0  0  0  0
 20 18  1  0  0  0  0
 21 18  1  0  0  0  0
 22 23  1  0  0  0  0
 24  6  1  0  0  0  0
 24 26  1  0  0  0  0
 25 33  1  0  0  0  0
 25 34  1  0  0  0  0
 26 25  2  0  0  0  0
 27 28  2  0  0  0  0
 27 26  1  0  0  0  0
 28 32  1  0  0  0  0
 29 30  1  0  0  0  0
 29 28  1  0  0  0  0
 30 31  2  0  0  0  0
 31 32  1  0  0  0  0
 32 33  2  0  0  0  0
 33 38  1  0  0  0  0
 35 27  1  0  0  0  0
 36 29  1  0  0  0  0
 37 30  1  0  0  0  0
 38 46  1  0  0  0  0
 39 38  1  0  0  0  0
 39 41  1  0  0  0  0
 40 39  1  0  0  0  0
 41 43  1  0  0  0  0
 41 42  1  0  0  0  0
 43 45  1  0  0  0  0
 44 43  1  0  0  0  0
 46 45  1  0  0  0  0
M  END
>  <minimizedAffinity>
-6.67557573

$$$$

 OpenBabel03272509233D

 46 50  0  0  0  0  0  0  0  0999 V2000
   36.0190   28.8920   33.6090 C   0  0  0  0  0  0  0  0  0  0  0  0
   35.5670   30.2030   33.6800 C   0  0  0  0  0  0  0  0  0  0  0  0
   35.7640   30.9420   32.4950 C   0  0  0  0  0  0  0  0  0  0  0  0
   36.3680   30.3750   31.3620 C   0  0  0  0  0  0  0  0  0  0  0  0
   36.7890   29.0350   31.3990 C   0  0  0  0  0  0  0  0  0  0  0  0
   36.6020   28.2940   32.5580 C   0  0  0  0  0  0  0  0  0  0  0  0
   35.4420   31.9760   32.4560 H   0  0  0  0  0  0  0  0  0  0  0  0
   36.4980   30.9820   30.4740 H   0  0  0  0  0  0  0  0  0  0  0  0
   37.2400   28.6670   30.5040 H   0  0  0  0  0  0  0  0  0  0  0  0
   35.7230   31.4890   35.7500 C   0  0  0  0  0  0  0  0  0  0  0  0
   34.9540   30.7760   34.8340 C   0  0  0  0  0  0  0  0  0  0  0  0
   33.5810   30.6510   35.0880 C   0  0  0  0  0  0  0  0  0  0  0  0
   33.0780   31.2270   36.2080 N   0  0  0  0  0  0  0  0  0  0  0  0
   33.8680   31.9140   37.0780 C   0  0  0  0  0  0  0  0  0  0  0  0
   35.1740   32.0420   36.8460 N   0  0  0  0  0  0  0  0  0  0  0  0
   36.7680   31.5830   35.5520 H   0  0  0  0  0  0  0  0  0  0  0  0
   33.4310   32.3630   37.9660 H   0  0  0  0  0  0  0  0  0  0  0  0
   32.7190   29.9020   34.1420 C   0  0  0  0  0  0  0  0  0  0  0  0
   31.6670   30.1390   34.3320 H   0  0  0  0  0  0  0  0  0  0  0  0
   32.8600   28.8200   34.3750 H   0  0  0  0  0  0  0  0  0  0  0  0
   33.0310   30.0200   33.0860 H   0  0  0  0  0  0  0  0  0  0  0  0
   35.8700   28.0750   34.7330 O   0  0  0  0  0  0  0  0  0  0  0  0
   34.9970   27.8360   35.1540 H   0  0  0  0  0  0  0  0  0  0  0  0
   37.0420   26.9880   32.5160 O   0  0  0  0  0  0  0  0  0  0  0  0
   37.9700   25.4480   34.2530 C   0  0  0  0  0  0  0  0  0  0  0  0
   38.0350   26.4280   33.2800 C   0  0  0  0  0  0  0  0  0  0  0  0
   39.2760   26.9870   32.9680 C   0  0  0  0  0  0  0  0  0  0  0  0
   40.4340   26.5540   33.6350 C   0  0  0  0  0  0  0  0  0  0  0  0
   41.7450   26.8840   33.5680 N   0  0  0  0  0  0  0  0  0  0  0  0
   42.4540   26.1560   34.4430 C   0  0  0  0  0  0  0  0  0  0  0  0
   41.5610   25.3430   35.0820 N   0  0  0  0  0  0  0  0  0  0  0  0
   40.3220   25.5800   34.5930 C   0  0  0  0  0  0  0  0  0  0  0  0
   39.1040   25.0310   34.9010 C   0  0  0  0  0  0  0  0  0  0  0  0
   36.9690   25.0870   34.4150 H   0  0  0  0  0  0  0  0  0  0  0  0
   39.4870   27.7560   32.2350 H   0  0  0  0  0  0  0  0  0  0  0  0
   42.1450   27.6070   32.9210 H   0  0  0  0  0  0  0  0  0  0  0  0
   43.5210   26.2290   34.5840 H   0  0  0  0  0  0  0  0  0  0  0  0
   38.9710   24.0190   35.8930 N   0  0  0  0  0  0  0  0  0  0  0  0
   38.3640   24.2840   37.1830 C   0  0  0  0  0  3  0  0  0  0  0  0
   37.2810   24.5110   37.1190 H   0  0  0  0  0  0  0  0  0  0  0  0
   38.6520   23.1310   38.1170 C   0  0  0  0  0  3  0  0  0  0  0  0
   38.0630   22.2230   37.8400 H   0  0  0  0  0  0  0  0  0  0  0  0
   40.0800   22.8460   37.9720 N   0  0  0  0  0  0  0  0  0  0  0  0
   40.5810   23.7580   37.7480 H   0  0  0  0  0  0  0  0  0  0  0  0
   40.1960   22.0690   36.7520 C   0  0  0  0  0  2  0  0  0  0  0  0
   39.4600   22.6880   35.6000 C   0  0  0  0  0  2  0  0  0  0  0  0
  1  2  1  0  0  0  0
  1 22  1  0  0  0  0
  2 11  1  0  0  0  0
  3  2  2  0  0  0  0
  4  5  2  0  0  0  0
  4  3  1  0  0  0  0
  5  6  1  0  0  0  0
  6  1  2  0  0  0  0
  7  3  1  0  0  0  0
  8  4  1  0  0  0  0
  9  5  1  0  0  0  0
 10 15  1  0  0  0  0
 11 12  1  0  0  0  0
 11 10  2  0  0  0  0
 12 13  2  0  0  0  0
 13 14  1  0  0  0  0
 14 17  1  0  0  0  0
 15 14  2  0  0  0  0
 16 10  1  0  0  0  0
 18 19  1  0  0  0  0
 18 20  1  0  0  0  0
 18 12  1  0  0  0  0
 21 18  1  0  0  0  0
 22 23  1  0  0  0  0
 24  6  1  0  0  0  0
 24 26  1  0  0  0  0
 25 34  1  0  0  0  0
 25 33  1  0  0  0  0
 26 25  2  0  0  0  0
 27 26  1  0  0  0  0
 27 28  2  0  0  0  0
 28 32  1  0  0  0  0
 29 28  1  0  0  0  0
 29 30  1  0  0  0  0
 30 37  1  0  0  0  0
 30 31  2  0  0  0  0
 32 33  2  0  0  0  0
 32 31  1  0  0  0  0
 33 38  1  0  0  0  0
 35 27  1  0  0  0  0
 36 29  1  0  0  0  0
 38 39  1  0  0  0  0
 39 41  1  0  0  0  0
 40 39  1  0  0  0  0
 42 41  1  0  0  0  0
 43 41  1  0  0  0  0
 44 43  1  0  0  0  0
 45 43  1  0  0  0  0
 46 38  1  0  0  0  0
 46 45  1  0  0  0  0
M  END
>  <minimizedAffinity>
-6.65682602

$$$$

 OpenBabel03272509233D

 46 50  0  0  0  0  0  0  0  0999 V2000
   36.0230   29.0000   33.5830 C   0  0  0  0  0  0  0  0  0  0  0  0
   35.4990   30.2830   33.6720 C   0  0  0  0  0  0  0  0  0  0  0  0
   35.5680   31.0160   32.4700 C   0  0  0  0  0  0  0  0  0  0  0  0
   36.1240   30.4700   31.3030 C   0  0  0  0  0  0  0  0  0  0  0  0
   36.6270   29.1590   31.3220 C   0  0  0  0  0  0  0  0  0  0  0  0
   36.5660   28.4240   32.4980 C   0  0  0  0  0  0  0  0  0  0  0  0
   35.1830   32.0290   32.4430 H   0  0  0  0  0  0  0  0  0  0  0  0
   36.1550   31.0720   30.4010 H   0  0  0  0  0  0  0  0  0  0  0  0
   37.0350   28.8050   30.4010 H   0  0  0  0  0  0  0  0  0  0  0  0
   35.7260   31.5900   35.7230 C   0  0  0  0  0  0  0  0  0  0  0  0
   34.9350   30.8350   34.8610 C   0  0  0  0  0  0  0  0  0  0  0  0
   33.5890   30.6450   35.2050 C   0  0  0  0  0  0  0  0  0  0  0  0
   33.1320   31.2050   36.3530 N   0  0  0  0  0  0  0  0  0  0  0  0
   33.9420   31.9360   37.1660 C   0  0  0  0  0  0  0  0  0  0  0  0
   35.2230   32.1240   36.8490 N   0  0  0  0  0  0  0  0  0  0  0  0
   36.7510   31.7330   35.4570 H   0  0  0  0  0  0  0  0  0  0  0  0
   33.5430   32.3700   38.0790 H   0  0  0  0  0  0  0  0  0  0  0  0
   32.7050   29.8480   34.3200 C   0  0  0  0  0  0  0  0  0  0  0  0
   31.6570   30.0360   34.5770 H   0  0  0  0  0  0  0  0  0  0  0  0
   32.9130   28.7760   34.5480 H   0  0  0  0  0  0  0  0  0  0  0  0
   32.9420   29.9740   33.2450 H   0  0  0  0  0  0  0  0  0  0  0  0
   36.0030   28.1910   34.7220 O   0  0  0  0  0  0  0  0  0  0  0  0
   35.1780   27.9060   35.2060 H   0  0  0  0  0  0  0  0  0  0  0  0
   37.0810   27.1460   32.4380 O   0  0  0  0  0  0  0  0  0  0  0  0
   38.2670   25.6350   34.0370 C   0  0  0  0  0  0  0  0  0  0  0  0
   38.1700   26.6620   33.1180 C   0  0  0  0  0  0  0  0  0  0  0  0
   39.3230   27.3710   32.7740 C   0  0  0  0  0  0  0  0  0  0  0  0
   40.5580   27.0380   33.3560 C   0  0  0  0  0  0  0  0  0  0  0  0
   41.8190   27.5140   33.2410 N   0  0  0  0  0  0  0  0  0  0  0  0
   42.6520   26.8280   34.0360 C   0  0  0  0  0  0  0  0  0  0  0  0
   41.8900   25.8900   34.6740 N   0  0  0  0  0  0  0  0  0  0  0  0
   40.6070   26.0110   34.2630 C   0  0  0  0  0  0  0  0  0  0  0  0
   39.4750   25.3160   34.6020 C   0  0  0  0  0  0  0  0  0  0  0  0
   37.3230   25.1570   34.2300 H   0  0  0  0  0  0  0  0  0  0  0  0
   39.4080   28.1940   32.0750 H   0  0  0  0  0  0  0  0  0  0  0  0
   42.1010   28.3080   32.6150 H   0  0  0  0  0  0  0  0  0  0  0  0
   43.7110   27.0120   34.1270 H   0  0  0  0  0  0  0  0  0  0  0  0
   39.5100   24.2470   35.5420 N   0  0  0  0  0  0  0  0  0  0  0  0
   40.2950   23.0490   35.3120 C   0  0  0  0  0  3  0  0  0  0  0  0
   41.3870   23.2330   35.3200 H   0  0  0  0  0  0  0  0  0  0  0  0
   39.8860   21.9860   36.3050 C   0  0  0  0  0  3  0  0  0  0  0  0
   40.2490   22.2270   37.3350 H   0  0  0  0  0  0  0  0  0  0  0  0
   38.4230   21.9720   36.2980 N   0  0  0  0  0  0  0  0  0  0  0  0
   38.0920   22.2360   35.3210 H   0  0  0  0  0  0  0  0  0  0  0  0
   38.0220   23.0950   37.1240 C   0  0  0  0  0  2  0  0  0  0  0  0
   38.7360   24.3640   36.7600 C   0  0  0  0  0  2  0  0  0  0  0  0
  1  2  1  0  0  0  0
  1 22  1  0  0  0  0
  2 11  1  0  0  0  0
  3  2  2  0  0  0  0
  4  5  2  0  0  0  0
  4  3  1  0  0  0  0
  5  6  1  0  0  0  0
  6  1  2  0  0  0  0
  7  3  1  0  0  0  0
  8  4  1  0  0  0  0
  9  5  1  0  0  0  0
 10 15  1  0  0  0  0
 11 12  1  0  0  0  0
 11 10  2  0  0  0  0
 12 13  2  0  0  0  0
 13 14  1  0  0  0  0
 14 17  1  0  0  0  0
 15 14  2  0  0  0  0
 16 10  1  0  0  0  0
 18 20  1  0  0  0  0
 18 19  1  0  0  0  0
 18 12  1  0  0  0  0
 21 18  1  0  0  0  0
 22 23  1  0  0  0  0
 24  6  1  0  0  0  0
 24 26  1  0  0  0  0
 25 34  1  0  0  0  0
 25 33  1  0  0  0  0
 26 25  2  0  0  0  0
 27 26  1  0  0  0  0
 27 28  2  0  0  0  0
 28 32  1  0  0  0  0
 29 28  1  0  0  0  0
 29 30  1  0  0  0  0
 30 37  1  0  0  0  0
 30 31  2  0  0  0  0
 32 33  2  0  0  0  0
 32 31  1  0  0  0  0
 33 38  1  0  0  0  0
 35 27  1  0  0  0  0
 36 29  1  0  0  0  0
 38 46  1  0  0  0  0
 39 40  1  0  0  0  0
 39 38  1  0  0  0  0
 39 41  1  0  0  0  0
 41 42  1  0  0  0  0
 43 41  1  0  0  0  0
 43 45  1  0  0  0  0
 44 43  1  0  0  0  0
 46 45  1  0  0  0  0
M  END
>  <minimizedAffinity>
-6.45647717

$$$$

 OpenBabel03272509233D

 46 50  0  0  0  0  0  0  0  0999 V2000
   38.6770   27.2010   33.2300 C   0  0  0  0  0  0  0  0  0  0  0  0
   39.8900   26.8720   33.8220 C   0  0  0  0  0  0  0  0  0  0  0  0
   39.8460   26.8180   35.2300 C   0  0  0  0  0  0  0  0  0  0  0  0
   38.6660   27.0790   35.9430 C   0  0  0  0  0  0  0  0  0  0  0  0
   37.4910   27.4030   35.2430 C   0  0  0  0  0  0  0  0  0  0  0  0
   37.5180   27.4600   33.8570 C   0  0  0  0  0  0  0  0  0  0  0  0
   40.7460   26.5680   35.7800 H   0  0  0  0  0  0  0  0  0  0  0  0
   38.6790   27.0250   37.0250 H   0  0  0  0  0  0  0  0  0  0  0  0
   36.6290   27.5900   35.8460 H   0  0  0  0  0  0  0  0  0  0  0  0
   41.9810   27.6400   32.8200 C   0  0  0  0  0  0  0  0  0  0  0  0
   41.0890   26.6070   33.0940 C   0  0  0  0  0  0  0  0  0  0  0  0
   41.4120   25.3230   32.6340 C   0  0  0  0  0  0  0  0  0  0  0  0
   42.5720   25.1570   31.9500 N   0  0  0  0  0  0  0  0  0  0  0  0
   43.4150   26.1960   31.7050 C   0  0  0  0  0  0  0  0  0  0  0  0
   43.1190   27.4210   32.1380 N   0  0  0  0  0  0  0  0  0  0  0  0
   41.7310   28.6170   33.1730 H   0  0  0  0  0  0  0  0  0  0  0  0
   44.3360   26.0280   31.1540 H   0  0  0  0  0  0  0  0  0  0  0  0
   40.4950   24.1880   32.9000 C   0  0  0  0  0  0  0  0  0  0  0  0
   41.0180   23.2410   32.7330 H   0  0  0  0  0  0  0  0  0  0  0  0
   39.6810   24.2550   32.1390 H   0  0  0  0  0  0  0  0  0  0  0  0
   39.9880   24.2630   33.8820 H   0  0  0  0  0  0  0  0  0  0  0  0
   38.6160   27.2810   31.8370 O   0  0  0  0  0  0  0  0  0  0  0  0
   38.8070   26.5260   31.2120 H   0  0  0  0  0  0  0  0  0  0  0  0
   36.3270   27.7860   33.2430 O   0  0  0  0  0  0  0  0  0  0  0  0
   35.3900   29.8850   34.2230 C   0  0  0  0  0  0  0  0  0  0  0  0
   35.7320   29.0210   33.2000 C   0  0  0  0  0  0  0  0  0  0  0  0
   35.4600   29.3950   31.8820 C   0  0  0  0  0  0  0  0  0  0  0  0
   34.8500   30.6310   31.6090 C   0  0  0  0  0  0  0  0  0  0  0  0
   34.4650   31.2680   30.4790 N   0  0  0  0  0  0  0  0  0  0  0  0
   33.9180   32.4550   30.7760 C   0  0  0  0  0  0  0  0  0  0  0  0
   33.9580   32.5680   32.1370 N   0  0  0  0  0  0  0  0  0  0  0  0
   34.5280   31.4560   32.6550 C   0  0  0  0  0  0  0  0  0  0  0  0
   34.7930   31.0890   33.9490 C   0  0  0  0  0  0  0  0  0  0  0  0
   35.6410   29.5000   35.1960 H   0  0  0  0  0  0  0  0  0  0  0  0
   35.6680   28.8320   30.9810 H   0  0  0  0  0  0  0  0  0  0  0  0
   34.5810   30.8840   29.5090 H   0  0  0  0  0  0  0  0  0  0  0  0
   33.5320   33.1560   30.0530 H   0  0  0  0  0  0  0  0  0  0  0  0
   34.4650   31.9350   35.0460 N   0  0  0  0  0  0  0  0  0  0  0  0
   35.3160   33.0410   35.4430 C   0  0  0  0  0  3  0  0  0  0  0  0
   35.3570   33.8540   34.6910 H   0  0  0  0  0  0  0  0  0  0  0  0
   34.8840   33.5410   36.8030 C   0  0  0  0  0  3  0  0  0  0  0  0
   33.9130   34.0900   36.7470 H   0  0  0  0  0  0  0  0  0  0  0  0
   34.7190   32.3480   37.6340 N   0  0  0  0  0  0  0  0  0  0  0  0
   35.4150   31.6130   37.3040 H   0  0  0  0  0  0  0  0  0  0  0  0
   33.4260   31.8000   37.2690 C   0  0  0  0  0  2  0  0  0  0  0  0
   33.2460   31.6790   35.7850 C   0  0  0  0  0  2  0  0  0  0  0  0
  1  2  2  0  0  0  0
  1  6  1  0  0  0  0
  2  3  1  0  0  0  0
  3  7  1  0  0  0  0
  3  4  2  0  0  0  0
  4  8  1  0  0  0  0
  5  9  1  0  0  0  0
  5  4  1  0  0  0  0
  6  5  2  0  0  0  0
 10 11  1  0  0  0  0
 10 16  1  0  0  0  0
 11  2  1  0  0  0  0
 12 18  1  0  0  0  0
 12 11  2  0  0  0  0
 13 12  1  0  0  0  0
 14 13  2  0  0  0  0
 14 15  1  0  0  0  0
 15 10  2  0  0  0  0
 17 14  1  0  0  0  0
 18 21  1  0  0  0  0
 19 18  1  0  0  0  0
 20 18  1  0  0  0  0
 22  1  1  0  0  0  0
 23 22  1  0  0  0  0
 24  6  1  0  0  0  0
 25 34  1  0  0  0  0
 26 24  1  0  0  0  0
 26 25  2  0  0  0  0
 27 26  1  0  0  0  0
 28 27  2  0  0  0  0
 28 32  1  0  0  0  0
 29 30  1  0  0  0  0
 29 28  1  0  0  0  0
 30 31  2  0  0  0  0
 31 32  1  0  0  0  0
 32 33  2  0  0  0  0
 33 25  1  0  0  0  0
 33 38  1  0  0  0  0
 35 27  1  0  0  0  0
 36 29  1  0  0  0  0
 37 30  1  0  0  0  0
 38 39  1  0  0  0  0
 38 46  1  0  0  0  0
 39 41  1  0  0  0  0
 40 39  1  0  0  0  0
 41 43  1  0  0  0  0
 42 41  1  0  0  0  0
 44 43  1  0  0  0  0
 45 43  1  0  0  0  0
 46 45  1  0  0  0  0
M  END
>  <minimizedAffinity>
-6.25508785

$$$$

 OpenBabel03272509233D

 46 50  0  0  0  0  0  0  0  0999 V2000
   37.5120   25.7570   31.9090 C   0  0  0  0  0  0  0  0  0  0  0  0
   36.4460   26.5180   31.4450 C   0  0  0  0  0  0  0  0  0  0  0  0
   35.3020   25.7620   31.1150 C   0  0  0  0  0  0  0  0  0  0  0  0
   35.2740   24.3660   31.2540 C   0  0  0  0  0  0  0  0  0  0  0  0
   36.4110   23.6940   31.7340 C   0  0  0  0  0  0  0  0  0  0  0  0
   37.5450   24.4240   32.0640 C   0  0  0  0  0  0  0  0  0  0  0  0
   34.4200   26.2700   30.7440 H   0  0  0  0  0  0  0  0  0  0  0  0
   34.3720   23.8270   30.9880 H   0  0  0  0  0  0  0  0  0  0  0  0
   36.3220   22.6330   31.8160 H   0  0  0  0  0  0  0  0  0  0  0  0
   36.7740   28.5100   30.0710 C   0  0  0  0  0  0  0  0  0  0  0  0
   36.4780   27.9370   31.3060 C   0  0  0  0  0  0  0  0  0  0  0  0
   36.2190   28.7980   32.3810 C   0  0  0  0  0  0  0  0  0  0  0  0
   36.2690   30.1360   32.1620 N   0  0  0  0  0  0  0  0  0  0  0  0
   36.5630   30.6520   30.9380 C   0  0  0  0  0  0  0  0  0  0  0  0
   36.8100   29.8440   29.9080 N   0  0  0  0  0  0  0  0  0  0  0  0
   36.9700   27.8500   29.2540 H   0  0  0  0  0  0  0  0  0  0  0  0
   36.5950   31.7290   30.7980 H   0  0  0  0  0  0  0  0  0  0  0  0
   35.8990   28.2380   33.7170 C   0  0  0  0  0  0  0  0  0  0  0  0
   35.4550   29.0140   34.3480 H   0  0  0  0  0  0  0  0  0  0  0  0
   36.8730   27.9520   34.1810 H   0  0  0  0  0  0  0  0  0  0  0  0
   35.3120   27.3000   33.6630 H   0  0  0  0  0  0  0  0  0  0  0  0
   38.6940   26.4130   32.2630 O   0  0  0  0  0  0  0  0  0  0  0  0
   38.7710   27.1040   32.9790 H   0  0  0  0  0  0  0  0  0  0  0  0
   38.6190   23.6930   32.5270 O   0  0  0  0  0  0  0  0  0  0  0  0
   40.2670   23.2980   34.3640 C   0  0  0  0  0  0  0  0  0  0  0  0
   39.0160   23.5480   33.8320 C   0  0  0  0  0  0  0  0  0  0  0  0
   37.9300   23.6890   34.6990 C   0  0  0  0  0  0  0  0  0  0  0  0
   38.1150   23.5780   36.0870 C   0  0  0  0  0  0  0  0  0  0  0  0
   37.2960   23.6600   37.1610 N   0  0  0  0  0  0  0  0  0  0  0  0
   37.9900   23.4730   38.2930 C   0  0  0  0  0  0  0  0  0  0  0  0
   39.2880   23.2660   37.9190 N   0  0  0  0  0  0  0  0  0  0  0  0
   39.3730   23.3290   36.5700 C   0  0  0  0  0  0  0  0  0  0  0  0
   40.4400   23.1900   35.7200 C   0  0  0  0  0  0  0  0  0  0  0  0
   41.0300   23.2060   33.6110 H   0  0  0  0  0  0  0  0  0  0  0  0
   36.8980   23.8860   34.4370 H   0  0  0  0  0  0  0  0  0  0  0  0
   36.2640   23.8440   37.1110 H   0  0  0  0  0  0  0  0  0  0  0  0
   37.5690   23.4910   39.2860 H   0  0  0  0  0  0  0  0  0  0  0  0
   41.7520   22.9310   36.2060 N   0  0  0  0  0  0  0  0  0  0  0  0
   42.8160   23.9120   36.1030 C   0  0  0  0  0  3  0  0  0  0  0  0
   42.6460   24.8100   36.7290 H   0  0  0  0  0  0  0  0  0  0  0  0
   44.1400   23.2480   36.4030 C   0  0  0  0  0  3  0  0  0  0  0  0
   44.2400   23.0090   37.4890 H   0  0  0  0  0  0  0  0  0  0  0  0
   44.1480   22.0050   35.6300 N   0  0  0  0  0  0  0  0  0  0  0  0
   43.5860   22.1620   34.7400 H   0  0  0  0  0  0  0  0  0  0  0  0
   43.3460   21.0700   36.3960 C   0  0  0  0  0  2  0  0  0  0  0  0
   42.0290   21.6500   36.8200 C   0  0  0  0  0  2  0  0  0  0  0  0
  1  6  1  0  0  0  0
  1 22  1  0  0  0  0
  2  1  2  0  0  0  0
  3  4  2  0  0  0  0
  3  2  1  0  0  0  0
  4  5  1  0  0  0  0
  5  9  1  0  0  0  0
  5  6  2  0  0  0  0
  6 24  1  0  0  0  0
  7  3  1  0  0  0  0
  8  4  1  0  0  0  0
 10 11  1  0  0  0  0
 11  2  1  0  0  0  0
 11 12  2  0  0  0  0
 12 18  1  0  0  0  0
 13 12  1  0  0  0  0
 14 13  2  0  0  0  0
 15 10  2  0  0  0  0
 15 14  1  0  0  0  0
 16 10  1  0  0  0  0
 17 14  1  0  0  0  0
 18 20  1  0  0  0  0
 18 19  1  0  0  0  0
 21 18  1  0  0  0  0
 22 23  1  0  0  0  0
 24 26  1  0  0  0  0
 25 33  1  0  0  0  0
 26 25  2  0  0  0  0
 26 27  1  0  0  0  0
 27 28  2  0  0  0  0
 28 32  1  0  0  0  0
 28 29  1  0  0  0  0
 29 30  1  0  0  0  0
 30 37  1  0  0  0  0
 31 30  2  0  0  0  0
 32 31  1  0  0  0  0
 33 38  1  0  0  0  0
 33 32  2  0  0  0  0
 34 25  1  0  0  0  0
 35 27  1  0  0  0  0
 36 29  1  0  0  0  0
 38 46  1  0  0  0  0
 39 38  1  0  0  0  0
 39 41  1  0  0  0  0
 39 40  1  0  0  0  0
 41 42  1  0  0  0  0
 43 45  1  0  0  0  0
 43 41  1  0  0  0  0
 44 43  1  0  0  0  0
 45 46  1  0  0  0  0
M  END
>  <minimizedAffinity>
-6.1717968

$$$$

 OpenBabel03272509233D

 46 50  0  0  0  0  0  0  0  0999 V2000
   35.1870   30.1590   32.9440 C   0  0  0  0  0  0  0  0  0  0  0  0
   35.3470   31.4260   33.4900 C   0  0  0  0  0  0  0  0  0  0  0  0
   36.1470   32.2880   32.7120 C   0  0  0  0  0  0  0  0  0  0  0  0
   36.7180   31.8730   31.5000 C   0  0  0  0  0  0  0  0  0  0  0  0
   36.4910   30.5660   31.0390 C   0  0  0  0  0  0  0  0  0  0  0  0
   35.7060   29.7050   31.7920 C   0  0  0  0  0  0  0  0  0  0  0  0
   36.3280   33.2990   33.0580 H   0  0  0  0  0  0  0  0  0  0  0  0
   37.3260   32.5720   30.9360 H   0  0  0  0  0  0  0  0  0  0  0  0
   36.9540   30.3150   30.1090 H   0  0  0  0  0  0  0  0  0  0  0  0
   35.4870   31.7310   35.9090 C   0  0  0  0  0  0  0  0  0  0  0  0
   34.7640   31.8440   34.7230 C   0  0  0  0  0  0  0  0  0  0  0  0
   33.4690   32.3760   34.7940 C   0  0  0  0  0  0  0  0  0  0  0  0
   32.9910   32.7500   36.0070 N   0  0  0  0  0  0  0  0  0  0  0  0
   33.7330   32.6210   37.1410 C   0  0  0  0  0  0  0  0  0  0  0  0
   34.9660   32.1180   37.0860 N   0  0  0  0  0  0  0  0  0  0  0  0
   36.4730   31.3260   35.8500 H   0  0  0  0  0  0  0  0  0  0  0  0
   33.3190   32.9310   38.0960 H   0  0  0  0  0  0  0  0  0  0  0  0
   32.6590   32.5170   33.5590 C   0  0  0  0  0  0  0  0  0  0  0  0
   31.8180   33.1920   33.7440 H   0  0  0  0  0  0  0  0  0  0  0  0
   32.2330   31.5080   33.3440 H   0  0  0  0  0  0  0  0  0  0  0  0
   33.2670   32.7760   32.6700 H   0  0  0  0  0  0  0  0  0  0  0  0
   34.4110   29.2270   33.6390 O   0  0  0  0  0  0  0  0  0  0  0  0
   33.4440   29.3410   33.8600 H   0  0  0  0  0  0  0  0  0  0  0  0
   35.5310   28.4380   31.2740 O   0  0  0  0  0  0  0  0  0  0  0  0
   37.0710   27.0670   32.6860 C   0  0  0  0  0  0  0  0  0  0  0  0
   36.0870   27.2730   31.7380 C   0  0  0  0  0  0  0  0  0  0  0  0
   35.5160   26.1660   31.1070 C   0  0  0  0  0  0  0  0  0  0  0  0
   35.9410   24.8680   31.4360 C   0  0  0  0  0  0  0  0  0  0  0  0
   35.6010   23.6260   31.0200 N   0  0  0  0  0  0  0  0  0  0  0  0
   36.3260   22.7020   31.6670 C   0  0  0  0  0  0  0  0  0  0  0  0
   37.1490   23.3850   32.5170 N   0  0  0  0  0  0  0  0  0  0  0  0
   36.9200   24.7110   32.3820 C   0  0  0  0  0  0  0  0  0  0  0  0
   37.4810   25.7980   33.0020 C   0  0  0  0  0  0  0  0  0  0  0  0
   37.4410   27.9850   33.1090 H   0  0  0  0  0  0  0  0  0  0  0  0
   34.7410   26.1650   30.3500 H   0  0  0  0  0  0  0  0  0  0  0  0
   34.8710   23.4190   30.2940 H   0  0  0  0  0  0  0  0  0  0  0  0
   36.2450   21.6370   31.5170 H   0  0  0  0  0  0  0  0  0  0  0  0
   38.4990   25.6510   33.9870 N   0  0  0  0  0  0  0  0  0  0  0  0
   39.9080   25.7070   33.6480 C   0  0  0  0  0  3  0  0  0  0  0  0
   40.2370   26.7070   33.3040 H   0  0  0  0  0  0  0  0  0  0  0  0
   40.7230   25.2070   34.8180 C   0  0  0  0  0  3  0  0  0  0  0  0
   40.7260   25.9430   35.6590 H   0  0  0  0  0  0  0  0  0  0  0  0
   40.0760   23.9710   35.2580 N   0  0  0  0  0  0  0  0  0  0  0  0
   39.6410   23.5010   34.4080 H   0  0  0  0  0  0  0  0  0  0  0  0
   38.9380   24.3930   36.0520 C   0  0  0  0  0  2  0  0  0  0  0  0
   38.1100   25.4390   35.3650 C   0  0  0  0  0  2  0  0  0  0  0  0
  1  2  1  0  0  0  0
  1 22  1  0  0  0  0
  2 11  1  0  0  0  0
  3  7  1  0  0  0  0
  3  2  2  0  0  0  0
  4  3  1  0  0  0  0
  5  4  2  0  0  0  0
  5  6  1  0  0  0  0
  6  1  2  0  0  0  0
  8  4  1  0  0  0  0
  9  5  1  0  0  0  0
 10 15  1  0  0  0  0
 11 12  1  0  0  0  0
 11 10  2  0  0  0  0
 12 13  2  0  0  0  0
 13 14  1  0  0  0  0
 14 17  1  0  0  0  0
 15 14  2  0  0  0  0
 16 10  1  0  0  0  0
 18 19  1  0  0  0  0
 18 12  1  0  0  0  0
 20 18  1  0  0  0  0
 21 18  1  0  0  0  0
 22 23  1  0  0  0  0
 24 26  1  0  0  0  0
 24  6  1  0  0  0  0
 25 33  1  0  0  0  0
 25 34  1  0  0  0  0
 26 25  2  0  0  0  0
 27 28  2  0  0  0  0
 27 26  1  0  0  0  0
 28 32  1  0  0  0  0
 29 28  1  0  0  0  0
 29 30  1  0  0  0  0
 30 31  2  0  0  0  0
 32 31  1  0  0  0  0
 32 33  2  0  0  0  0
 33 38  1  0  0  0  0
 35 27  1  0  0  0  0
 36 29  1  0  0  0  0
 37 30  1  0  0  0  0
 38 46  1  0  0  0  0
 39 38  1  0  0  0  0
 39 41  1  0  0  0  0
 40 39  1  0  0  0  0
 41 43  1  0  0  0  0
 41 42  1  0  0  0  0
 43 45  1  0  0  0  0
 44 43  1  0  0  0  0
 46 45  1  0  0  0  0
M  END
>  <minimizedAffinity>
-6.07205439

$$$$

 OpenBabel03272509233D

 46 50  0  0  0  0  0  0  0  0999 V2000
   37.8570   26.1660   34.2250 C   0  0  0  0  0  0  0  0  0  0  0  0
   38.0300   24.7910   34.3230 C   0  0  0  0  0  0  0  0  0  0  0  0
   37.5200   24.0690   33.2240 C   0  0  0  0  0  0  0  0  0  0  0  0
   36.8960   24.7110   32.1440 C   0  0  0  0  0  0  0  0  0  0  0  0
   36.7730   26.1110   32.1470 C   0  0  0  0  0  0  0  0  0  0  0  0
   37.2700   26.8360   33.2200 C   0  0  0  0  0  0  0  0  0  0  0  0
   37.6110   22.9890   33.2120 H   0  0  0  0  0  0  0  0  0  0  0  0
   36.5200   24.1140   31.3210 H   0  0  0  0  0  0  0  0  0  0  0  0
   36.2890   26.5350   31.2950 H   0  0  0  0  0  0  0  0  0  0  0  0
   37.9230   23.7900   36.5480 C   0  0  0  0  0  0  0  0  0  0  0  0
   38.6660   24.1420   35.4230 C   0  0  0  0  0  0  0  0  0  0  0  0
   40.0340   23.8370   35.4200 C   0  0  0  0  0  0  0  0  0  0  0  0
   40.5580   23.2170   36.5070 N   0  0  0  0  0  0  0  0  0  0  0  0
   39.7940   22.8920   37.5850 C   0  0  0  0  0  0  0  0  0  0  0  0
   38.4930   23.1760   37.6000 N   0  0  0  0  0  0  0  0  0  0  0  0
   36.8810   24.0240   36.5460 H   0  0  0  0  0  0  0  0  0  0  0  0
   40.2470   22.3960   38.4390 H   0  0  0  0  0  0  0  0  0  0  0  0
   40.8680   24.1910   34.2460 C   0  0  0  0  0  0  0  0  0  0  0  0
   41.8140   23.6410   34.2840 H   0  0  0  0  0  0  0  0  0  0  0  0
   41.1110   25.2750   34.3470 H   0  0  0  0  0  0  0  0  0  0  0  0
   40.3240   24.0980   33.2850 H   0  0  0  0  0  0  0  0  0  0  0  0
   38.3280   26.9720   35.2650 O   0  0  0  0  0  0  0  0  0  0  0  0
   39.2820   27.0330   35.5530 H   0  0  0  0  0  0  0  0  0  0  0  0
   37.1100   28.2040   33.1500 O   0  0  0  0  0  0  0  0  0  0  0  0
   34.8780   28.9340   34.0050 C   0  0  0  0  0  0  0  0  0  0  0  0
   35.9260   28.8950   33.1050 C   0  0  0  0  0  0  0  0  0  0  0  0
   35.8390   29.6530   31.9350 C   0  0  0  0  0  0  0  0  0  0  0  0
   34.7030   30.4410   31.6860 C   0  0  0  0  0  0  0  0  0  0  0  0
   34.3220   31.2640   30.6820 N   0  0  0  0  0  0  0  0  0  0  0  0
   33.1140   31.7850   30.9380 C   0  0  0  0  0  0  0  0  0  0  0  0
   32.7210   31.2730   32.1420 N   0  0  0  0  0  0  0  0  0  0  0  0
   33.6880   30.4500   32.6080 C   0  0  0  0  0  0  0  0  0  0  0  0
   33.7720   29.7050   33.7560 C   0  0  0  0  0  0  0  0  0  0  0  0
   35.0470   28.3150   34.8690 H   0  0  0  0  0  0  0  0  0  0  0  0
   36.5710   29.7260   31.1410 H   0  0  0  0  0  0  0  0  0  0  0  0
   34.8950   31.4630   29.8250 H   0  0  0  0  0  0  0  0  0  0  0  0
   32.5880   32.4720   30.2930 H   0  0  0  0  0  0  0  0  0  0  0  0
   32.7270   29.7040   34.7220 N   0  0  0  0  0  0  0  0  0  0  0  0
   32.7870   30.5230   35.9180 C   0  0  0  0  0  3  0  0  0  0  0  0
   32.7350   31.6090   35.7080 H   0  0  0  0  0  0  0  0  0  0  0  0
   31.7140   30.0750   36.8840 C   0  0  0  0  0  3  0  0  0  0  0  0
   30.6960   30.3720   36.5310 H   0  0  0  0  0  0  0  0  0  0  0  0
   31.8030   28.6150   36.9340 N   0  0  0  0  0  0  0  0  0  0  0  0
   32.8190   28.3380   36.7790 H   0  0  0  0  0  0  0  0  0  0  0  0
   31.1220   28.1470   35.7420 C   0  0  0  0  0  2  0  0  0  0  0  0
   31.5730   28.8580   34.5000 C   0  0  0  0  0  2  0  0  0  0  0  0
  1  2  1  0  0  0  0
  1 22  1  0  0  0  0
  2 11  1  0  0  0  0
  3  2  2  0  0  0  0
  4  5  2  0  0  0  0
  4  3  1  0  0  0  0
  5  6  1  0  0  0  0
  6  1  2  0  0  0  0
  7  3  1  0  0  0  0
  8  4  1  0  0  0  0
  9  5  1  0  0  0  0
 10 15  1  0  0  0  0
 11 10  2  0  0  0  0
 12 11  1  0  0  0  0
 12 13  2  0  0  0  0
 13 14  1  0  0  0  0
 14 15  2  0  0  0  0
 14 17  1  0  0  0  0
 16 10  1  0  0  0  0
 18 19  1  0  0  0  0
 18 20  1  0  0  0  0
 18 12  1  0  0  0  0
 21 18  1  0  0  0  0
 22 23  1  0  0  0  0
 24  6  1  0  0  0  0
 25 34  1  0  0  0  0
 26 24  1  0  0  0  0
 26 25  2  0  0  0  0
 27 26  1  0  0  0  0
 28 27  2  0  0  0  0
 28 32  1  0  0  0  0
 29 30  1  0  0  0  0
 29 28  1  0  0  0  0
 30 31  2  0  0  0  0
 31 32  1  0  0  0  0
 32 33  2  0  0  0  0
 33 25  1  0  0  0  0
 33 38  1  0  0  0  0
 35 27  1  0  0  0  0
 36 29  1  0  0  0  0
 37 30  1  0  0  0  0
 38 39  1  0  0  0  0
 39 41  1  0  0  0  0
 40 39  1  0  0  0  0
 41 43  1  0  0  0  0
 42 41  1  0  0  0  0
 44 43  1  0  0  0  0
 45 43  1  0  0  0  0
 46 38  1  0  0  0  0
 46 45  1  0  0  0  0
M  END
>  <minimizedAffinity>
-6.0623703

$$$$

 OpenBabel03272509233D

 46 50  0  0  0  0  0  0  0  0999 V2000
   37.1860   27.5310   32.5650 C   0  0  0  0  0  0  0  0  0  0  0  0
   37.9870   26.4000   32.6580 C   0  0  0  0  0  0  0  0  0  0  0  0
   38.3750   26.0790   33.9750 C   0  0  0  0  0  0  0  0  0  0  0  0
   37.9730   26.8540   35.0740 C   0  0  0  0  0  0  0  0  0  0  0  0
   37.1600   27.9810   34.8660 C   0  0  0  0  0  0  0  0  0  0  0  0
   36.7690   28.3110   33.5760 C   0  0  0  0  0  0  0  0  0  0  0  0
   39.0010   25.2110   34.1470 H   0  0  0  0  0  0  0  0  0  0  0  0
   38.2960   26.5680   36.0680 H   0  0  0  0  0  0  0  0  0  0  0  0
   36.8900   28.5260   35.7440 H   0  0  0  0  0  0  0  0  0  0  0  0
   39.5810   25.9120   30.8740 C   0  0  0  0  0  0  0  0  0  0  0  0
   38.3940   25.6150   31.5390 C   0  0  0  0  0  0  0  0  0  0  0  0
   37.6340   24.5340   31.0710 C   0  0  0  0  0  0  0  0  0  0  0  0
   38.0940   23.8380   30.0010 N   0  0  0  0  0  0  0  0  0  0  0  0
   39.2600   24.1640   29.3810 C   0  0  0  0  0  0  0  0  0  0  0  0
   39.9920   25.1890   29.8170 N   0  0  0  0  0  0  0  0  0  0  0  0
   40.1580   26.7350   31.2350 H   0  0  0  0  0  0  0  0  0  0  0  0
   39.5990   23.5860   28.5260 H   0  0  0  0  0  0  0  0  0  0  0  0
   36.3610   24.1780   31.7440 C   0  0  0  0  0  0  0  0  0  0  0  0
   36.0540   23.1700   31.4460 H   0  0  0  0  0  0  0  0  0  0  0  0
   35.5900   24.8860   31.3590 H   0  0  0  0  0  0  0  0  0  0  0  0
   36.3910   24.3410   32.8400 H   0  0  0  0  0  0  0  0  0  0  0  0
   36.7480   27.9350   31.3010 O   0  0  0  0  0  0  0  0  0  0  0  0
   36.1800   27.3850   30.6910 H   0  0  0  0  0  0  0  0  0  0  0  0
   35.9740   29.4310   33.4540 O   0  0  0  0  0  0  0  0  0  0  0  0
   33.8440   29.1860   34.7390 C   0  0  0  0  0  0  0  0  0  0  0  0
   34.9860   29.8380   34.3140 C   0  0  0  0  0  0  0  0  0  0  0  0
   35.2470   31.1230   34.7950 C   0  0  0  0  0  0  0  0  0  0  0  0
   34.3580   31.7360   35.6950 C   0  0  0  0  0  0  0  0  0  0  0  0
   34.3230   32.9320   36.3260 N   0  0  0  0  0  0  0  0  0  0  0  0
   33.2300   33.0220   37.0960 C   0  0  0  0  0  0  0  0  0  0  0  0
   32.5540   31.8450   36.9440 N   0  0  0  0  0  0  0  0  0  0  0  0
   33.2380   31.0510   36.0880 C   0  0  0  0  0  0  0  0  0  0  0  0
   32.9810   29.7900   35.6160 C   0  0  0  0  0  0  0  0  0  0  0  0
   33.7390   28.2050   34.3090 H   0  0  0  0  0  0  0  0  0  0  0  0
   36.0920   31.7570   34.5580 H   0  0  0  0  0  0  0  0  0  0  0  0
   35.0520   33.6810   36.2240 H   0  0  0  0  0  0  0  0  0  0  0  0
   32.9700   33.8760   37.7020 H   0  0  0  0  0  0  0  0  0  0  0  0
   31.8220   29.0660   36.0160 N   0  0  0  0  0  0  0  0  0  0  0  0
   31.5790   28.7100   37.4010 C   0  0  0  0  0  3  0  0  0  0  0  0
   31.3860   29.5860   38.0510 H   0  0  0  0  0  0  0  0  0  0  0  0
   30.4640   27.6910   37.4670 C   0  0  0  0  0  3  0  0  0  0  0  0
   29.4730   28.1550   37.2390 H   0  0  0  0  0  0  0  0  0  0  0  0
   30.7770   26.6890   36.4490 N   0  0  0  0  0  0  0  0  0  0  0  0
   31.8360   26.6200   36.3620 H   0  0  0  0  0  0  0  0  0  0  0  0
   30.3560   27.2740   35.1900 C   0  0  0  0  0  2  0  0  0  0  0  0
   30.8610   28.6750   35.0060 C   0  0  0  0  0  2  0  0  0  0  0  0
  1  2  2  0  0  0  0
  1  6  1  0  0  0  0
  2  3  1  0  0  0  0
  3  7  1  0  0  0  0
  3  4  2  0  0  0  0
  4  8  1  0  0  0  0
  5  4  1  0  0  0  0
  5  9  1  0  0  0  0
  6  5  2  0  0  0  0
 10 16  1  0  0  0  0
 10 11  1  0  0  0  0
 11  2  1  0  0  0  0
 12 11  2  0  0  0  0
 12 18  1  0  0  0  0
 13 12  1  0  0  0  0
 14 15  1  0  0  0  0
 14 13  2  0  0  0  0
 15 10  2  0  0  0  0
 17 14  1  0  0  0  0
 18 21  1  0  0  0  0
 19 18  1  0  0  0  0
 20 18  1  0  0  0  0
 22  1  1  0  0  0  0
 23 22  1  0  0  0  0
 24  6  1  0  0  0  0
 24 26  1  0  0  0  0
 25 33  1  0  0  0  0
 26 25  2  0  0  0  0
 26 27  1  0  0  0  0
 27 28  2  0  0  0  0
 28 32  1  0  0  0  0
 28 29  1  0  0  0  0
 29 30  1  0  0  0  0
 30 37  1  0  0  0  0
 31 30  2  0  0  0  0
 32 31  1  0  0  0  0
 33 38  1  0  0  0  0
 33 32  2  0  0  0  0
 34 25  1  0  0  0  0
 35 27  1  0  0  0  0
 36 29  1  0  0  0  0
 38 39  1  0  0  0  0
 39 41  1  0  0  0  0
 39 40  1  0  0  0  0
 42 41  1  0  0  0  0
 43 41  1  0  0  0  0
 44 43  1  0  0  0  0
 45 43  1  0  0  0  0
 46 45  1  0  0  0  0
 46 38  1  0  0  0  0
M  END
>  <minimizedAffinity>
-5.97827005

$$$$

 OpenBabel03272509233D

 46 50  0  0  0  0  0  0  0  0999 V2000
   37.6240   27.1100   34.8880 C   0  0  0  0  0  0  0  0  0  0  0  0
   37.8270   25.7710   34.5780 C   0  0  0  0  0  0  0  0  0  0  0  0
   37.3230   25.3910   33.3170 C   0  0  0  0  0  0  0  0  0  0  0  0
   36.6770   26.3070   32.4730 C   0  0  0  0  0  0  0  0  0  0  0  0
   36.5250   27.6420   32.8870 C   0  0  0  0  0  0  0  0  0  0  0  0
   37.0160   28.0310   34.1250 C   0  0  0  0  0  0  0  0  0  0  0  0
   37.4360   24.3640   32.9890 H   0  0  0  0  0  0  0  0  0  0  0  0
   36.3060   25.9690   31.5130 H   0  0  0  0  0  0  0  0  0  0  0  0
   36.0250   28.2860   32.1970 H   0  0  0  0  0  0  0  0  0  0  0  0
   37.7620   24.1730   36.4240 C   0  0  0  0  0  0  0  0  0  0  0  0
   38.4850   24.8420   35.4390 C   0  0  0  0  0  0  0  0  0  0  0  0
   39.8550   24.5680   35.3330 C   0  0  0  0  0  0  0  0  0  0  0  0
   40.4020   23.6710   36.1910 N   0  0  0  0  0  0  0  0  0  0  0  0
   39.6570   23.0400   37.1390 C   0  0  0  0  0  0  0  0  0  0  0  0
   38.3530   23.2910   37.2490 N   0  0  0  0  0  0  0  0  0  0  0  0
   36.7180   24.3840   36.5010 H   0  0  0  0  0  0  0  0  0  0  0  0
   40.1270   22.3270   37.8100 H   0  0  0  0  0  0  0  0  0  0  0  0
   40.6690   25.2550   34.3000 C   0  0  0  0  0  0  0  0  0  0  0  0
   41.6210   24.7300   34.1690 H   0  0  0  0  0  0  0  0  0  0  0  0
   40.9030   26.2680   34.7050 H   0  0  0  0  0  0  0  0  0  0  0  0
   40.1120   25.4340   33.3590 H   0  0  0  0  0  0  0  0  0  0  0  0
   38.0870   27.5860   36.1180 O   0  0  0  0  0  0  0  0  0  0  0  0
   39.0420   27.5810   36.4090 H   0  0  0  0  0  0  0  0  0  0  0  0
   36.8270   29.3560   34.4590 O   0  0  0  0  0  0  0  0  0  0  0  0
   34.3720   29.5210   34.8960 C   0  0  0  0  0  0  0  0  0  0  0  0
   35.6920   29.9200   34.9840 C   0  0  0  0  0  0  0  0  0  0  0  0
   36.0010   31.0750   35.7050 C   0  0  0  0  0  0  0  0  0  0  0  0
   34.9810   31.8130   36.3310 C   0  0  0  0  0  0  0  0  0  0  0  0
   34.9490   32.9390   37.0790 N   0  0  0  0  0  0  0  0  0  0  0  0
   33.6900   33.2260   37.4380 C   0  0  0  0  0  0  0  0  0  0  0  0
   32.9030   32.2480   36.8960 N   0  0  0  0  0  0  0  0  0  0  0  0
   33.6860   31.3790   36.2170 C   0  0  0  0  0  0  0  0  0  0  0  0
   33.3810   30.2460   35.5080 C   0  0  0  0  0  0  0  0  0  0  0  0
   34.2450   28.6220   34.3180 H   0  0  0  0  0  0  0  0  0  0  0  0
   36.9790   31.5120   35.8640 H   0  0  0  0  0  0  0  0  0  0  0  0
   35.7930   33.5050   37.3410 H   0  0  0  0  0  0  0  0  0  0  0  0
   33.3950   34.0730   38.0380 H   0  0  0  0  0  0  0  0  0  0  0  0
   32.0410   29.7830   35.3810 N   0  0  0  0  0  0  0  0  0  0  0  0
   31.2650   29.3560   36.5310 C   0  0  0  0  0  3  0  0  0  0  0  0
   31.0260   30.1820   37.2290 H   0  0  0  0  0  0  0  0  0  0  0  0
   30.0270   28.6310   36.0560 C   0  0  0  0  0  3  0  0  0  0  0  0
   29.2860   29.3380   35.6090 H   0  0  0  0  0  0  0  0  0  0  0  0
   30.4800   27.6920   35.0310 N   0  0  0  0  0  0  0  0  0  0  0  0
   31.4690   27.3810   35.2770 H   0  0  0  0  0  0  0  0  0  0  0  0
   30.6470   28.4850   33.8270 C   0  0  0  0  0  2  0  0  0  0  0  0
   31.4400   29.7360   34.0650 C   0  0  0  0  0  2  0  0  0  0  0  0
  1 22  1  0  0  0  0
  2  1  1  0  0  0  0
  2 11  1  0  0  0  0
  3  2  2  0  0  0  0
  4  5  2  0  0  0  0
  4  3  1  0  0  0  0
  5  6  1  0  0  0  0
  6 24  1  0  0  0  0
  6  1  2  0  0  0  0
  7  3  1  0  0  0  0
  8  4  1  0  0  0  0
  9  5  1  0  0  0  0
 10 16  1  0  0  0  0
 10 15  1  0  0  0  0
 11 10  2  0  0  0  0
 12 11  1  0  0  0  0
 12 13  2  0  0  0  0
 13 14  1  0  0  0  0
 14 15  2  0  0  0  0
 14 17  1  0  0  0  0
 18 20  1  0  0  0  0
 18 12  1  0  0  0  0
 19 18  1  0  0  0  0
 21 18  1  0  0  0  0
 22 23  1  0  0  0  0
 24 26  1  0  0  0  0
 25 26  2  0  0  0  0
 25 33  1  0  0  0  0
 26 27  1  0  0  0  0
 27 35  1  0  0  0  0
 27 28  2  0  0  0  0
 28 29  1  0  0  0  0
 29 36  1  0  0  0  0
 29 30  1  0  0  0  0
 30 37  1  0  0  0  0
 31 30  2  0  0  0  0
 32 28  1  0  0  0  0
 32 31  1  0  0  0  0
 33 32  2  0  0  0  0
 34 25  1  0  0  0  0
 38 33  1  0  0  0  0
 38 39  1  0  0  0  0
 39 40  1  0  0  0  0
 41 39  1  0  0  0  0
 42 41  1  0  0  0  0
 43 44  1  0  0  0  0
 43 41  1  0  0  0  0
 45 46  1  0  0  0  0
 45 43  1  0  0  0  0
 46 38  1  0  0  0  0
M  END
>  <minimizedAffinity>
-5.96103191

$$$$
