
 OpenBabel03272505223D

 28 30  0  0  0  0  0  0  0  0999 V2000
   38.4540   26.7410   34.8850 Br  0  0  0  0  0  0  0  0  0  0  0  0
   37.9840   25.1120   33.9870 C   0  0  0  0  0  0  0  0  0  0  0  0
   37.4960   25.1450   32.7040 C   0  0  0  0  0  0  0  0  0  0  0  0
   37.1720   23.9490   32.1030 C   0  0  0  0  0  0  0  0  0  0  0  0
   37.3390   22.7610   32.7810 C   0  0  0  0  0  0  0  0  0  0  0  0
   37.8320   22.7190   34.0780 C   0  0  0  0  0  0  0  0  0  0  0  0
   38.1530   23.9220   34.6710 C   0  0  0  0  0  0  0  0  0  0  0  0
   36.7870   23.9810   31.0890 H   0  0  0  0  0  0  0  0  0  0  0  0
   37.0650   21.8540   32.2480 H   0  0  0  0  0  0  0  0  0  0  0  0
   37.9510   21.7830   34.5780 H   0  0  0  0  0  0  0  0  0  0  0  0
   38.2030   28.2800   30.6820 C   0  0  0  0  0  0  0  0  0  0  0  0
   38.3440   27.0210   31.2840 C   0  0  0  0  0  0  0  0  0  0  0  0
   37.3560   26.4510   32.0770 C   0  0  0  0  0  0  0  0  0  0  0  0
   36.2350   27.2100   32.2270 N   0  0  0  0  0  0  0  0  0  0  0  0
   36.0970   28.4190   31.6500 C   0  0  0  0  0  0  0  0  0  0  0  0
   37.0580   28.9500   30.8920 N   0  0  0  0  0  0  0  0  0  0  0  0
   39.0740   28.5660   30.0980 H   0  0  0  0  0  0  0  0  0  0  0  0
   39.2440   26.4060   31.1650 H   0  0  0  0  0  0  0  0  0  0  0  0
   35.2060   29.0250   31.7690 H   0  0  0  0  0  0  0  0  0  0  0  0
   38.6540   23.8290   35.9980 N   0  0  0  0  0  0  0  0  0  0  0  0
   37.8110   24.1010   37.1360 C   0  0  0  0  0  3  0  0  0  0  0  0
   36.7320   24.0170   36.8910 H   0  0  0  0  0  0  0  0  0  0  0  0
   38.0890   23.2620   38.3370 C   0  0  0  0  0  3  0  0  0  0  0  0
   37.4050   22.3730   38.3930 H   0  0  0  0  0  0  0  0  0  0  0  0
   39.4460   22.9130   38.5660 N   0  0  0  0  0  0  0  0  0  0  0  0
   39.9760   23.5200   39.2230 H   0  0  0  0  0  0  0  0  0  0  0  0
   40.1760   22.4990   37.4010 C   0  0  0  0  0  2  0  0  0  0  0  0
   40.0280   23.4580   36.2440 C   0  0  0  0  0  2  0  0  0  0  0  0
  2  7  1  0  0  0  0
  2  1  1  0  0  0  0
  3  2  2  0  0  0  0
  4  3  1  0  0  0  0
  4  5  2  0  0  0  0
  5  6  1  0  0  0  0
  6 10  1  0  0  0  0
  6  7  2  0  0  0  0
  7 20  1  0  0  0  0
  8  4  1  0  0  0  0
  9  5  1  0  0  0  0
 11 16  2  0  0  0  0
 11 12  1  0  0  0  0
 12 13  2  0  0  0  0
 13 14  1  0  0  0  0
 13  3  1  0  0  0  0
 15 19  1  0  0  0  0
 15 14  2  0  0  0  0
 16 15  1  0  0  0  0
 17 11  1  0  0  0  0
 18 12  1  0  0  0  0
 20 28  1  0  0  0  0
 20 21  1  0  0  0  0
 21 23  1  0  0  0  0
 22 21  1  0  0  0  0
 23 24  1  0  0  0  0
 23 25  1  0  0  0  0
 25 26  1  0  0  0  0
 27 25  1  0  0  0  0
 28 27  1  0  0  0  0
M  END
>  <minimizedAffinity>
-5.15537405

$$$$

 OpenBabel03272505223D

 28 30  0  0  0  0  0  0  0  0999 V2000
   38.6120   25.6750   35.1160 Br  0  0  0  0  0  0  0  0  0  0  0  0
   37.9970   24.2140   34.0340 C   0  0  0  0  0  0  0  0  0  0  0  0
   37.5980   24.4340   32.7380 C   0  0  0  0  0  0  0  0  0  0  0  0
   37.1640   23.3540   32.0020 C   0  0  0  0  0  0  0  0  0  0  0  0
   37.1370   22.0940   32.5620 C   0  0  0  0  0  0  0  0  0  0  0  0
   37.5380   21.8640   33.8710 C   0  0  0  0  0  0  0  0  0  0  0  0
   37.9710   22.9530   34.6000 C   0  0  0  0  0  0  0  0  0  0  0  0
   36.8500   23.5320   30.9800 H   0  0  0  0  0  0  0  0  0  0  0  0
   36.7840   21.2870   31.9270 H   0  0  0  0  0  0  0  0  0  0  0  0
   37.5070   20.8780   34.2780 H   0  0  0  0  0  0  0  0  0  0  0  0
   38.8170   27.6230   31.0770 C   0  0  0  0  0  0  0  0  0  0  0  0
   38.7590   26.3050   31.5530 C   0  0  0  0  0  0  0  0  0  0  0  0
   37.6640   25.8000   32.2420 C   0  0  0  0  0  0  0  0  0  0  0  0
   36.6450   26.6850   32.4220 N   0  0  0  0  0  0  0  0  0  0  0  0
   36.6960   27.9520   31.9670 C   0  0  0  0  0  0  0  0  0  0  0  0
   37.7580   28.4180   31.3060 N   0  0  0  0  0  0  0  0  0  0  0  0
   39.7480   27.8430   30.5610 H   0  0  0  0  0  0  0  0  0  0  0  0
   39.5770   25.5890   31.4090 H   0  0  0  0  0  0  0  0  0  0  0  0
   35.8870   28.6580   32.1100 H   0  0  0  0  0  0  0  0  0  0  0  0
   38.3730   22.6690   35.9330 N   0  0  0  0  0  0  0  0  0  0  0  0
   39.6980   22.1820   36.2280 C   0  0  0  0  0  3  0  0  0  0  0  0
   40.4190   22.4050   35.4140 H   0  0  0  0  0  0  0  0  0  0  0  0
   40.2730   22.6670   37.5150 C   0  0  0  0  0  3  0  0  0  0  0  0
   40.9360   23.5620   37.3660 H   0  0  0  0  0  0  0  0  0  0  0  0
   39.3620   22.8450   38.5890 N   0  0  0  0  0  0  0  0  0  0  0  0
   39.2750   22.0530   39.2580 H   0  0  0  0  0  0  0  0  0  0  0  0
   38.1240   23.4840   38.2410 C   0  0  0  0  0  2  0  0  0  0  0  0
   37.4600   22.8630   37.0360 C   0  0  0  0  0  2  0  0  0  0  0  0
  2  7  1  0  0  0  0
  2  1  1  0  0  0  0
  3  2  2  0  0  0  0
  4  5  2  0  0  0  0
  4  3  1  0  0  0  0
  5  6  1  0  0  0  0
  6 10  1  0  0  0  0
  6  7  2  0  0  0  0
  7 20  1  0  0  0  0
  8  4  1  0  0  0  0
  9  5  1  0  0  0  0
 11 16  2  0  0  0  0
 11 12  1  0  0  0  0
 12 13  2  0  0  0  0
 13 14  1  0  0  0  0
 13  3  1  0  0  0  0
 15 19  1  0  0  0  0
 15 14  2  0  0  0  0
 16 15  1  0  0  0  0
 17 11  1  0  0  0  0
 18 12  1  0  0  0  0
 20 21  1  0  0  0  0
 20 28  1  0  0  0  0
 21 23  1  0  0  0  0
 22 21  1  0  0  0  0
 23 25  1  0  0  0  0
 24 23  1  0  0  0  0
 25 26  1  0  0  0  0
 27 25  1  0  0  0  0
 28 27  1  0  0  0  0
M  END
>  <minimizedAffinity>
-5.11883116

$$$$

 OpenBabel03272505223D

 28 30  0  0  0  0  0  0  0  0999 V2000
   38.0110   22.4230   33.6850 Br  0  0  0  0  0  0  0  0  0  0  0  0
   37.0060   23.6680   32.6260 C   0  0  0  0  0  0  0  0  0  0  0  0
   36.1100   23.2120   31.6890 C   0  0  0  0  0  0  0  0  0  0  0  0
   35.4130   24.1450   30.9530 C   0  0  0  0  0  0  0  0  0  0  0  0
   35.6170   25.4920   31.1620 C   0  0  0  0  0  0  0  0  0  0  0  0
   36.5210   25.9600   32.1060 C   0  0  0  0  0  0  0  0  0  0  0  0
   37.2140   25.0180   32.8380 C   0  0  0  0  0  0  0  0  0  0  0  0
   34.7070   23.7800   30.2150 H   0  0  0  0  0  0  0  0  0  0  0  0
   35.0340   26.1730   30.5480 H   0  0  0  0  0  0  0  0  0  0  0  0
   36.6580   27.0090   32.2460 H   0  0  0  0  0  0  0  0  0  0  0  0
   34.8580   19.6470   32.0590 C   0  0  0  0  0  0  0  0  0  0  0  0
   34.9900   21.0370   32.2010 C   0  0  0  0  0  0  0  0  0  0  0  0
   35.9690   21.7710   31.5460 C   0  0  0  0  0  0  0  0  0  0  0  0
   36.7970   21.0390   30.7510 N   0  0  0  0  0  0  0  0  0  0  0  0
   36.6740   19.7040   30.6120 C   0  0  0  0  0  0  0  0  0  0  0  0
   35.7260   19.0160   31.2500 N   0  0  0  0  0  0  0  0  0  0  0  0
   34.0380   19.2410   32.6450 H   0  0  0  0  0  0  0  0  0  0  0  0
   34.3240   21.6300   32.8400 H   0  0  0  0  0  0  0  0  0  0  0  0
   37.3330   19.1190   29.9800 H   0  0  0  0  0  0  0  0  0  0  0  0
   38.1270   25.5440   33.7930 N   0  0  0  0  0  0  0  0  0  0  0  0
   39.5040   25.7980   33.4500 C   0  0  0  0  0  3  0  0  0  0  0  0
   39.6550   25.8930   32.3540 H   0  0  0  0  0  0  0  0  0  0  0  0
   40.1070   26.9890   34.1150 C   0  0  0  0  0  3  0  0  0  0  0  0
   40.0650   27.8990   33.4580 H   0  0  0  0  0  0  0  0  0  0  0  0
   39.6770   27.2590   35.4410 N   0  0  0  0  0  0  0  0  0  0  0  0
   40.2750   26.8880   36.2060 H   0  0  0  0  0  0  0  0  0  0  0  0
   38.2630   27.1380   35.6610 C   0  0  0  0  0  2  0  0  0  0  0  0
   37.6960   25.8400   35.1390 C   0  0  0  0  0  2  0  0  0  0  0  0
  2  7  1  0  0  0  0
  2  1  1  0  0  0  0
  3  2  2  0  0  0  0
  4  5  2  0  0  0  0
  4  3  1  0  0  0  0
  5  6  1  0  0  0  0
  6 10  1  0  0  0  0
  6  7  2  0  0  0  0
  7 20  1  0  0  0  0
  8  4  1  0  0  0  0
  9  5  1  0  0  0  0
 11 12  1  0  0  0  0
 11 17  1  0  0  0  0
 12 18  1  0  0  0  0
 13  3  1  0  0  0  0
 13 12  2  0  0  0  0
 14 13  1  0  0  0  0
 15 14  2  0  0  0  0
 15 16  1  0  0  0  0
 16 11  2  0  0  0  0
 19 15  1  0  0  0  0
 20 28  1  0  0  0  0
 21 20  1  0  0  0  0
 21 23  1  0  0  0  0
 22 21  1  0  0  0  0
 23 25  1  0  0  0  0
 24 23  1  0  0  0  0
 25 27  1  0  0  0  0
 25 26  1  0  0  0  0
 28 27  1  0  0  0  0
M  END
>  <minimizedAffinity>
-5.09098339

$$$$

 OpenBabel03272505223D

 28 30  0  0  0  0  0  0  0  0999 V2000
   38.7750   25.1890   34.0400 Br  0  0  0  0  0  0  0  0  0  0  0  0
   37.8170   23.6040   33.5410 C   0  0  0  0  0  0  0  0  0  0  0  0
   37.7280   22.5460   34.4140 C   0  0  0  0  0  0  0  0  0  0  0  0
   37.0300   21.4300   34.0090 C   0  0  0  0  0  0  0  0  0  0  0  0
   36.4410   21.3890   32.7640 C   0  0  0  0  0  0  0  0  0  0  0  0
   36.5270   22.4530   31.8770 C   0  0  0  0  0  0  0  0  0  0  0  0
   37.2280   23.5660   32.2900 C   0  0  0  0  0  0  0  0  0  0  0  0
   36.9620   20.5980   34.7020 H   0  0  0  0  0  0  0  0  0  0  0  0
   35.9060   20.4790   32.5090 H   0  0  0  0  0  0  0  0  0  0  0  0
   36.0600   22.3930   30.9180 H   0  0  0  0  0  0  0  0  0  0  0  0
   40.3080   22.3940   37.1950 C   0  0  0  0  0  0  0  0  0  0  0  0
   39.6800   22.2530   35.9490 C   0  0  0  0  0  0  0  0  0  0  0  0
   38.3850   22.6890   35.7040 C   0  0  0  0  0  0  0  0  0  0  0  0
   37.7660   23.2680   36.7710 N   0  0  0  0  0  0  0  0  0  0  0  0
   38.3650   23.4050   37.9690 C   0  0  0  0  0  0  0  0  0  0  0  0
   39.6120   22.9790   38.1840 N   0  0  0  0  0  0  0  0  0  0  0  0
   41.3200   21.9960   37.2030 H   0  0  0  0  0  0  0  0  0  0  0  0
   40.1750   21.7880   35.0870 H   0  0  0  0  0  0  0  0  0  0  0  0
   37.8740   23.8640   38.8190 H   0  0  0  0  0  0  0  0  0  0  0  0
   37.2880   24.6300   31.3500 N   0  0  0  0  0  0  0  0  0  0  0  0
   36.2540   25.6340   31.2900 C   0  0  0  0  0  3  0  0  0  0  0  0
   35.6680   25.6920   32.2320 H   0  0  0  0  0  0  0  0  0  0  0  0
   36.7300   27.0050   30.9470 C   0  0  0  0  0  3  0  0  0  0  0  0
   36.9000   27.6310   31.8640 H   0  0  0  0  0  0  0  0  0  0  0  0
   37.8110   27.0890   30.0290 N   0  0  0  0  0  0  0  0  0  0  0  0
   37.5610   27.2370   29.0310 H   0  0  0  0  0  0  0  0  0  0  0  0
   38.8780   26.1550   30.2550 C   0  0  0  0  0  2  0  0  0  0  0  0
   38.3910   24.7360   30.4240 C   0  0  0  0  0  2  0  0  0  0  0  0
  2  1  1  0  0  0  0
  2  3  1  0  0  0  0
  3 13  1  0  0  0  0
  4  3  2  0  0  0  0
  4  8  1  0  0  0  0
  5  4  1  0  0  0  0
  6  7  1  0  0  0  0
  6  5  2  0  0  0  0
  7  2  2  0  0  0  0
  9  5  1  0  0  0  0
 10  6  1  0  0  0  0
 11 17  1  0  0  0  0
 11 16  1  0  0  0  0
 12 11  2  0  0  0  0
 13 12  1  0  0  0  0
 13 14  2  0  0  0  0
 14 15  1  0  0  0  0
 15 16  2  0  0  0  0
 15 19  1  0  0  0  0
 18 12  1  0  0  0  0
 20  7  1  0  0  0  0
 21 20  1  0  0  0  0
 21 22  1  0  0  0  0
 23 21  1  0  0  0  0
 23 24  1  0  0  0  0
 25 27  1  0  0  0  0
 25 23  1  0  0  0  0
 26 25  1  0  0  0  0
 27 28  1  0  0  0  0
 28 20  1  0  0  0  0
M  END
>  <minimizedAffinity>
-4.76804352

$$$$

 OpenBabel03272505223D

 28 30  0  0  0  0  0  0  0  0999 V2000
   38.5610   27.1160   35.0400 Br  0  0  0  0  0  0  0  0  0  0  0  0
   37.9670   25.6190   33.9970 C   0  0  0  0  0  0  0  0  0  0  0  0
   37.2460   25.8210   32.8460 C   0  0  0  0  0  0  0  0  0  0  0  0
   36.8410   24.7140   32.1330 C   0  0  0  0  0  0  0  0  0  0  0  0
   37.1590   23.4470   32.5730 C   0  0  0  0  0  0  0  0  0  0  0  0
   37.8870   23.2350   33.7350 C   0  0  0  0  0  0  0  0  0  0  0  0
   38.2870   24.3490   34.4430 C   0  0  0  0  0  0  0  0  0  0  0  0
   36.2730   24.8790   31.2240 H   0  0  0  0  0  0  0  0  0  0  0  0
   36.8090   22.6180   31.9620 H   0  0  0  0  0  0  0  0  0  0  0  0
   38.1190   22.2420   34.0510 H   0  0  0  0  0  0  0  0  0  0  0  0
   35.8390   29.3470   32.8200 C   0  0  0  0  0  0  0  0  0  0  0  0
   36.1080   28.0210   33.1890 C   0  0  0  0  0  0  0  0  0  0  0  0
   36.9620   27.1970   32.4690 C   0  0  0  0  0  0  0  0  0  0  0  0
   37.5240   27.7770   31.3710 N   0  0  0  0  0  0  0  0  0  0  0  0
   37.2680   29.0500   31.0140 C   0  0  0  0  0  0  0  0  0  0  0  0
   36.4430   29.8260   31.7200 N   0  0  0  0  0  0  0  0  0  0  0  0
   35.1480   29.8400   33.4990 H   0  0  0  0  0  0  0  0  0  0  0  0
   35.6580   27.5500   34.0720 H   0  0  0  0  0  0  0  0  0  0  0  0
   37.7140   29.5130   30.1410 H   0  0  0  0  0  0  0  0  0  0  0  0
   39.0310   24.0840   35.6240 N   0  0  0  0  0  0  0  0  0  0  0  0
   38.4180   24.1640   36.9270 C   0  0  0  0  0  3  0  0  0  0  0  0
   37.3120   24.0840   36.8780 H   0  0  0  0  0  0  0  0  0  0  0  0
   38.9200   23.1710   37.9200 C   0  0  0  0  0  3  0  0  0  0  0  0
   38.2610   22.2630   37.9720 H   0  0  0  0  0  0  0  0  0  0  0  0
   40.2970   22.8340   37.8370 N   0  0  0  0  0  0  0  0  0  0  0  0
   40.9400   23.3560   38.4660 H   0  0  0  0  0  0  0  0  0  0  0  0
   40.7940   22.6130   36.5080 C   0  0  0  0  0  2  0  0  0  0  0  0
   40.4270   23.7220   35.5520 C   0  0  0  0  0  2  0  0  0  0  0  0
  2  7  1  0  0  0  0
  2  1  1  0  0  0  0
  3  2  2  0  0  0  0
  4  5  2  0  0  0  0
  4  3  1  0  0  0  0
  5  6  1  0  0  0  0
  6 10  1  0  0  0  0
  6  7  2  0  0  0  0
  7 20  1  0  0  0  0
  8  4  1  0  0  0  0
  9  5  1  0  0  0  0
 11 12  1  0  0  0  0
 11 17  1  0  0  0  0
 12 18  1  0  0  0  0
 13  3  1  0  0  0  0
 13 12  2  0  0  0  0
 14 13  1  0  0  0  0
 15 14  2  0  0  0  0
 15 16  1  0  0  0  0
 16 11  2  0  0  0  0
 19 15  1  0  0  0  0
 20 21  1  0  0  0  0
 21 23  1  0  0  0  0
 22 21  1  0  0  0  0
 23 24  1  0  0  0  0
 25 23  1  0  0  0  0
 25 26  1  0  0  0  0
 27 25  1  0  0  0  0
 28 20  1  0  0  0  0
 28 27  1  0  0  0  0
M  END
>  <minimizedAffinity>
-4.69254351

$$$$

 OpenBabel03272505223D

 28 30  0  0  0  0  0  0  0  0999 V2000
   38.6670   26.5410   35.2360 Br  0  0  0  0  0  0  0  0  0  0  0  0
   38.0500   25.1810   34.0320 C   0  0  0  0  0  0  0  0  0  0  0  0
   38.0800   23.8590   34.4080 C   0  0  0  0  0  0  0  0  0  0  0  0
   37.6260   22.9200   33.5090 C   0  0  0  0  0  0  0  0  0  0  0  0
   37.1580   23.3080   32.2720 C   0  0  0  0  0  0  0  0  0  0  0  0
   37.1250   24.6410   31.8850 C   0  0  0  0  0  0  0  0  0  0  0  0
   37.5810   25.5740   32.7920 C   0  0  0  0  0  0  0  0  0  0  0  0
   37.6520   21.8780   33.8100 H   0  0  0  0  0  0  0  0  0  0  0  0
   36.8150   22.5160   31.6110 H   0  0  0  0  0  0  0  0  0  0  0  0
   36.7560   24.9110   30.9200 H   0  0  0  0  0  0  0  0  0  0  0  0
   40.3690   22.7930   37.2430 C   0  0  0  0  0  0  0  0  0  0  0  0
   39.8800   23.0850   35.9610 C   0  0  0  0  0  0  0  0  0  0  0  0
   38.5930   23.5550   35.7350 C   0  0  0  0  0  0  0  0  0  0  0  0
   37.8370   23.7120   36.8570 N   0  0  0  0  0  0  0  0  0  0  0  0
   38.3030   23.4340   38.0900 C   0  0  0  0  0  0  0  0  0  0  0  0
   39.5440   22.9830   38.2860 N   0  0  0  0  0  0  0  0  0  0  0  0
   41.3960   22.4370   37.2300 H   0  0  0  0  0  0  0  0  0  0  0  0
   40.4860   22.9600   35.0550 H   0  0  0  0  0  0  0  0  0  0  0  0
   37.7030   23.5580   38.9840 H   0  0  0  0  0  0  0  0  0  0  0  0
   37.5270   26.9240   32.3530 N   0  0  0  0  0  0  0  0  0  0  0  0
   38.5840   27.4940   31.5540 C   0  0  0  0  0  3  0  0  0  0  0  0
   39.1930   26.7170   31.0450 H   0  0  0  0  0  0  0  0  0  0  0  0
   38.1350   28.4840   30.5330 C   0  0  0  0  0  3  0  0  0  0  0  0
   38.0020   28.0120   29.5220 H   0  0  0  0  0  0  0  0  0  0  0  0
   37.0360   29.3090   30.8910 N   0  0  0  0  0  0  0  0  0  0  0  0
   37.2670   30.2450   31.2790 H   0  0  0  0  0  0  0  0  0  0  0  0
   35.9510   28.6320   31.5440 C   0  0  0  0  0  2  0  0  0  0  0  0
   36.4060   27.7670   32.6950 C   0  0  0  0  0  2  0  0  0  0  0  0
  2  3  1  0  0  0  0
  2  1  1  0  0  0  0
  3 13  1  0  0  0  0
  4  8  1  0  0  0  0
  4  3  2  0  0  0  0
  5  4  1  0  0  0  0
  6  5  2  0  0  0  0
  6  7  1  0  0  0  0
  7  2  2  0  0  0  0
  9  5  1  0  0  0  0
 10  6  1  0  0  0  0
 11 16  1  0  0  0  0
 12 11  2  0  0  0  0
 13 12  1  0  0  0  0
 13 14  2  0  0  0  0
 14 15  1  0  0  0  0
 15 16  2  0  0  0  0
 15 19  1  0  0  0  0
 17 11  1  0  0  0  0
 18 12  1  0  0  0  0
 20 28  1  0  0  0  0
 20  7  1  0  0  0  0
 21 20  1  0  0  0  0
 22 21  1  0  0  0  0
 23 25  1  0  0  0  0
 23 21  1  0  0  0  0
 24 23  1  0  0  0  0
 25 26  1  0  0  0  0
 25 27  1  0  0  0  0
 27 28  1  0  0  0  0
M  END
>  <minimizedAffinity>
-4.66416883

$$$$

 OpenBabel03272505223D

 28 30  0  0  0  0  0  0  0  0999 V2000
   38.2610   27.0060   33.3790 Br  0  0  0  0  0  0  0  0  0  0  0  0
   37.1670   25.7170   32.4720 C   0  0  0  0  0  0  0  0  0  0  0  0
   36.1720   26.1310   31.6200 C   0  0  0  0  0  0  0  0  0  0  0  0
   35.4130   25.1680   30.9930 C   0  0  0  0  0  0  0  0  0  0  0  0
   35.6560   23.8310   31.2230 C   0  0  0  0  0  0  0  0  0  0  0  0
   36.6580   23.4040   32.0830 C   0  0  0  0  0  0  0  0  0  0  0  0
   37.4130   24.3760   32.7060 C   0  0  0  0  0  0  0  0  0  0  0  0
   34.6290   25.5010   30.3210 H   0  0  0  0  0  0  0  0  0  0  0  0
   35.0200   23.1240   30.6960 H   0  0  0  0  0  0  0  0  0  0  0  0
   36.8230   22.3610   32.2410 H   0  0  0  0  0  0  0  0  0  0  0  0
   36.4790   29.6790   30.3030 C   0  0  0  0  0  0  0  0  0  0  0  0
   36.6520   28.2970   30.4650 C   0  0  0  0  0  0  0  0  0  0  0  0
   35.9970   27.5650   31.4470 C   0  0  0  0  0  0  0  0  0  0  0  0
   35.1680   28.2940   32.2440 N   0  0  0  0  0  0  0  0  0  0  0  0
   34.9990   29.6220   32.0920 C   0  0  0  0  0  0  0  0  0  0  0  0
   35.6390   30.3070   31.1420 N   0  0  0  0  0  0  0  0  0  0  0  0
   37.0700   30.0840   29.4860 H   0  0  0  0  0  0  0  0  0  0  0  0
   37.3180   27.7060   29.8240 H   0  0  0  0  0  0  0  0  0  0  0  0
   34.3400   30.2050   32.7260 H   0  0  0  0  0  0  0  0  0  0  0  0
   38.4270   23.8920   33.5750 N   0  0  0  0  0  0  0  0  0  0  0  0
   39.7680   23.6540   33.1000 C   0  0  0  0  0  3  0  0  0  0  0  0
   39.9880   24.2100   32.1650 H   0  0  0  0  0  0  0  0  0  0  0  0
   40.8450   23.9480   34.0890 C   0  0  0  0  0  3  0  0  0  0  0  0
   41.2740   24.9770   33.9460 H   0  0  0  0  0  0  0  0  0  0  0  0
   40.5490   23.6720   35.4500 N   0  0  0  0  0  0  0  0  0  0  0  0
   40.8620   22.7500   35.8150 H   0  0  0  0  0  0  0  0  0  0  0  0
   39.2450   24.0860   35.8870 C   0  0  0  0  0  2  0  0  0  0  0  0
   38.1420   23.6250   34.9660 C   0  0  0  0  0  2  0  0  0  0  0  0
  2  7  1  0  0  0  0
  2  1  1  0  0  0  0
  3  2  2  0  0  0  0
  4  5  2  0  0  0  0
  4  3  1  0  0  0  0
  5  6  1  0  0  0  0
  6 10  1  0  0  0  0
  6  7  2  0  0  0  0
  7 20  1  0  0  0  0
  8  4  1  0  0  0  0
  9  5  1  0  0  0  0
 11 12  2  0  0  0  0
 11 16  1  0  0  0  0
 12 13  1  0  0  0  0
 13  3  1  0  0  0  0
 13 14  2  0  0  0  0
 15 14  1  0  0  0  0
 15 19  1  0  0  0  0
 16 15  2  0  0  0  0
 17 11  1  0  0  0  0
 18 12  1  0  0  0  0
 20 28  1  0  0  0  0
 21 20  1  0  0  0  0
 21 23  1  0  0  0  0
 22 21  1  0  0  0  0
 23 25  1  0  0  0  0
 24 23  1  0  0  0  0
 25 26  1  0  0  0  0
 25 27  1  0  0  0  0
 28 27  1  0  0  0  0
M  END
>  <minimizedAffinity>
-4.62872362

$$$$

 OpenBabel03272505223D

 28 30  0  0  0  0  0  0  0  0999 V2000
   37.0450   25.5360   32.5780 Br  0  0  0  0  0  0  0  0  0  0  0  0
   38.7740   26.1060   33.1840 C   0  0  0  0  0  0  0  0  0  0  0  0
   39.4690   27.0660   32.4890 C   0  0  0  0  0  0  0  0  0  0  0  0
   40.7060   27.4410   32.9640 C   0  0  0  0  0  0  0  0  0  0  0  0
   41.2200   26.8620   34.1050 C   0  0  0  0  0  0  0  0  0  0  0  0
   40.5240   25.8910   34.8120 C   0  0  0  0  0  0  0  0  0  0  0  0
   39.2860   25.5220   34.3280 C   0  0  0  0  0  0  0  0  0  0  0  0
   41.2510   28.2000   32.4120 H   0  0  0  0  0  0  0  0  0  0  0  0
   42.2010   27.2040   34.4240 H   0  0  0  0  0  0  0  0  0  0  0  0
   40.9470   25.4610   35.6930 H   0  0  0  0  0  0  0  0  0  0  0  0
   38.6940   27.9010   28.8670 C   0  0  0  0  0  0  0  0  0  0  0  0
   39.3060   27.3700   30.0130 C   0  0  0  0  0  0  0  0  0  0  0  0
   38.8390   27.6140   31.2970 C   0  0  0  0  0  0  0  0  0  0  0  0
   37.7360   28.4110   31.3630 N   0  0  0  0  0  0  0  0  0  0  0  0
   37.1460   28.9220   30.2660 C   0  0  0  0  0  0  0  0  0  0  0  0
   37.6100   28.6760   29.0390 N   0  0  0  0  0  0  0  0  0  0  0  0
   39.1940   27.6060   27.9490 H   0  0  0  0  0  0  0  0  0  0  0  0
   40.1930   26.7270   29.9640 H   0  0  0  0  0  0  0  0  0  0  0  0
   36.2690   29.5570   30.3160 H   0  0  0  0  0  0  0  0  0  0  0  0
   38.6110   24.5270   35.0850 N   0  0  0  0  0  0  0  0  0  0  0  0
   38.6910   23.1320   34.7260 C   0  0  0  0  0  3  0  0  0  0  0  0
   39.5710   22.9120   34.0860 H   0  0  0  0  0  0  0  0  0  0  0  0
   38.6970   22.1870   35.8790 C   0  0  0  0  0  3  0  0  0  0  0  0
   39.7400   21.8860   36.1680 H   0  0  0  0  0  0  0  0  0  0  0  0
   37.9110   22.5540   37.0040 N   0  0  0  0  0  0  0  0  0  0  0  0
   36.9530   22.1520   37.0500 H   0  0  0  0  0  0  0  0  0  0  0  0
   38.0120   23.9310   37.3960 C   0  0  0  0  0  2  0  0  0  0  0  0
   37.8240   24.8860   36.2420 C   0  0  0  0  0  2  0  0  0  0  0  0
  1  2  1  0  0  0  0
  2  7  1  0  0  0  0
  3  4  1  0  0  0  0
  3  2  2  0  0  0  0
  4  5  2  0  0  0  0
  5  9  1  0  0  0  0
  5  6  1  0  0  0  0
  6 10  1  0  0  0  0
  7  6  2  0  0  0  0
  7 20  1  0  0  0  0
  8  4  1  0  0  0  0
 11 16  2  0  0  0  0
 11 12  1  0  0  0  0
 12 13  2  0  0  0  0
 13 14  1  0  0  0  0
 13  3  1  0  0  0  0
 15 19  1  0  0  0  0
 15 14  2  0  0  0  0
 16 15  1  0  0  0  0
 17 11  1  0  0  0  0
 18 12  1  0  0  0  0
 20 28  1  0  0  0  0
 21 20  1  0  0  0  0
 21 23  1  0  0  0  0
 22 21  1  0  0  0  0
 23 24  1  0  0  0  0
 23 25  1  0  0  0  0
 25 26  1  0  0  0  0
 25 27  1  0  0  0  0
 28 27  1  0  0  0  0
M  END
>  <minimizedAffinity>
-4.62804699

$$$$

 OpenBabel03272505223D

 28 30  0  0  0  0  0  0  0  0999 V2000
   37.4670   25.0560   32.8410 Br  0  0  0  0  0  0  0  0  0  0  0  0
   39.1340   25.9270   33.2210 C   0  0  0  0  0  0  0  0  0  0  0  0
   39.7750   25.7020   34.4150 C   0  0  0  0  0  0  0  0  0  0  0  0
   40.9690   26.3510   34.6410 C   0  0  0  0  0  0  0  0  0  0  0  0
   41.4940   27.1980   33.6880 C   0  0  0  0  0  0  0  0  0  0  0  0
   40.8520   27.4300   32.4800 C   0  0  0  0  0  0  0  0  0  0  0  0
   39.6570   26.7760   32.2620 C   0  0  0  0  0  0  0  0  0  0  0  0
   41.4710   26.1700   35.5850 H   0  0  0  0  0  0  0  0  0  0  0  0
   42.4380   27.6770   33.9310 H   0  0  0  0  0  0  0  0  0  0  0  0
   41.2820   28.0910   31.7600 H   0  0  0  0  0  0  0  0  0  0  0  0
   37.6520   24.3310   37.2480 C   0  0  0  0  0  0  0  0  0  0  0  0
   38.2640   25.2140   36.3460 C   0  0  0  0  0  0  0  0  0  0  0  0
   39.1370   24.7920   35.3530 C   0  0  0  0  0  0  0  0  0  0  0  0
   39.3570   23.4480   35.3200 N   0  0  0  0  0  0  0  0  0  0  0  0
   38.7710   22.5960   36.1840 C   0  0  0  0  0  0  0  0  0  0  0  0
   37.9340   23.0230   37.1320 N   0  0  0  0  0  0  0  0  0  0  0  0
   36.9990   24.8370   37.9550 H   0  0  0  0  0  0  0  0  0  0  0  0
   38.0880   26.2970   36.3690 H   0  0  0  0  0  0  0  0  0  0  0  0
   38.9460   21.5260   36.1600 H   0  0  0  0  0  0  0  0  0  0  0  0
   39.0370   27.0440   31.0120 N   0  0  0  0  0  0  0  0  0  0  0  0
   38.0630   28.0970   30.8700 C   0  0  0  0  0  3  0  0  0  0  0  0
   38.1370   28.8520   31.6820 H   0  0  0  0  0  0  0  0  0  0  0  0
   38.0930   28.8090   29.5600 C   0  0  0  0  0  3  0  0  0  0  0  0
   38.6990   29.7530   29.6110 H   0  0  0  0  0  0  0  0  0  0  0  0
   38.4140   28.0240   28.4210 N   0  0  0  0  0  0  0  0  0  0  0  0
   37.6120   27.6520   27.8740 H   0  0  0  0  0  0  0  0  0  0  0  0
   39.5060   27.1080   28.5970 C   0  0  0  0  0  2  0  0  0  0  0  0
   39.3690   26.2640   29.8420 C   0  0  0  0  0  2  0  0  0  0  0  0
  1  2  1  0  0  0  0
  2  3  1  0  0  0  0
  3  4  2  0  0  0  0
  3 13  1  0  0  0  0
  4  8  1  0  0  0  0
  5  9  1  0  0  0  0
  5  4  1  0  0  0  0
  6  5  2  0  0  0  0
  7  6  1  0  0  0  0
  7  2  2  0  0  0  0
 10  6  1  0  0  0  0
 11 17  1  0  0  0  0
 12 18  1  0  0  0  0
 12 11  2  0  0  0  0
 13 12  1  0  0  0  0
 14 13  2  0  0  0  0
 14 15  1  0  0  0  0
 15 16  2  0  0  0  0
 16 11  1  0  0  0  0
 19 15  1  0  0  0  0
 20  7  1  0  0  0  0
 21 20  1  0  0  0  0
 21 22  1  0  0  0  0
 23 24  1  0  0  0  0
 23 21  1  0  0  0  0
 25 27  1  0  0  0  0
 25 23  1  0  0  0  0
 26 25  1  0  0  0  0
 27 28  1  0  0  0  0
 28 20  1  0  0  0  0
M  END
>  <minimizedAffinity>
-4.5513196

$$$$
