
 OpenBabel03272510323D

 28 30  0  0  0  0  0  0  0  0999 V2000
   36.6620   30.5170   45.5780 C   0  0  0  0  0  0  0  0  0  0  0  0
   36.1250   30.2330   44.3440 C   0  0  0  0  0  0  0  0  0  0  0  0
   34.8770   29.6480   44.2110 C   0  0  0  0  0  0  0  0  0  0  0  0
   34.1810   29.3570   45.3630 C   0  0  0  0  0  0  0  0  0  0  0  0
   34.6990   29.6350   46.6180 C   0  0  0  0  0  0  0  0  0  0  0  0
   35.9590   30.2230   46.7350 C   0  0  0  0  0  0  0  0  0  0  0  0
   36.6020   30.4270   43.3760 H   0  0  0  0  0  0  0  0  0  0  0  0
   34.4290   29.4120   43.2550 H   0  0  0  0  0  0  0  0  0  0  0  0
   33.2120   28.9070   45.3910 H   0  0  0  0  0  0  0  0  0  0  0  0
   34.2170   29.4370   47.5620 H   0  0  0  0  0  0  0  0  0  0  0  0
   40.2870   30.8330   45.4730 C   0  0  0  0  0  0  0  0  0  0  0  0
   40.5260   32.2020   45.6150 C   0  0  0  0  0  0  0  0  0  0  0  0
   39.3900   33.0370   45.7520 C   0  0  0  0  0  0  0  0  0  0  0  0
   38.1780   32.4460   45.7330 N   0  0  0  0  0  0  0  0  0  0  0  0
   37.9770   31.1300   45.5950 C   0  0  0  0  0  0  0  0  0  0  0  0
   39.0520   30.3060   45.4620 N   0  0  0  0  0  0  0  0  0  0  0  0
   41.1530   30.1900   45.3680 H   0  0  0  0  0  0  0  0  0  0  0  0
   41.5430   32.5580   45.6150 H   0  0  0  0  0  0  0  0  0  0  0  0
   39.5590   34.0930   45.8620 H   0  0  0  0  0  0  0  0  0  0  0  0
   36.5240   30.5230   48.0060 N   0  0  0  0  0  0  0  0  0  0  0  0
   37.8850   30.4760   48.4940 C   0  0  0  0  0  3  0  0  0  0  0  0
   38.3680   31.4600   48.5200 H   0  0  0  0  0  0  0  0  0  0  0  0
   37.9730   29.9160   49.8940 C   0  0  0  0  0  3  0  0  0  0  0  0
   38.8380   29.2580   50.0480 H   0  0  0  0  0  0  0  0  0  0  0  0
   36.7610   29.1270   50.1190 N   0  0  0  0  0  0  0  0  0  0  0  0
   36.8340   28.5620   50.9770 H   0  0  0  0  0  0  0  0  0  0  0  0
   35.7080   30.1370   50.3060 C   0  0  0  0  0  2  0  0  0  0  0  0
   35.5970   30.9670   49.0510 C   0  0  0  0  0  2  0  0  0  0  0  0
  1 15  1  0  0  0  0
  1  6  1  0  0  0  0
  2  1  2  0  0  0  0
  3  2  1  0  0  0  0
  3  4  2  0  0  0  0
  4  9  1  0  0  0  0
  4  5  1  0  0  0  0
  5  6  2  0  0  0  0
  5 10  1  0  0  0  0
  6 20  1  0  0  0  0
  7  2  1  0  0  0  0
  8  3  1  0  0  0  0
 11 12  1  0  0  0  0
 12 13  2  0  0  0  0
 13 19  1  0  0  0  0
 14 13  1  0  0  0  0
 15 14  2  0  0  0  0
 16 11  2  0  0  0  0
 16 15  1  0  0  0  0
 17 11  1  0  0  0  0
 18 12  1  0  0  0  0
 20 21  1  0  0  0  0
 20 28  1  0  0  0  0
 21 22  1  0  0  0  0
 21 23  1  0  0  0  0
 23 24  1  0  0  0  0
 23 25  1  0  0  0  0
 25 27  1  0  0  0  0
 25 26  1  0  0  0  0
 28 27  1  0  0  0  0
M  END
>  <minimizedAffinity>
-4.55476332

>  <minimizedRMSD>
3.33342433

$$$$
