
 OpenBabel03272501433D

 34 37  0  0  0  0  0  0  0  0999 V2000
   34.1910   29.1360   49.4360 C   0  0  0  0  0  0  0  0  0  0  0  0
   34.5830   29.5940   48.1620 C   0  0  0  0  0  0  0  0  0  0  0  0
   33.7990   29.2210   47.0710 C   0  0  0  0  0  0  0  0  0  0  0  0
   32.7100   28.4400   47.3070 N   0  0  0  0  0  0  0  0  0  0  0  0
   32.3530   28.0150   48.5270 C   0  0  0  0  0  0  0  0  0  0  0  0
   33.1040   28.3700   49.5870 N   0  0  0  0  0  0  0  0  0  0  0  0
   34.6640   29.3150   50.3890 H   0  0  0  0  0  0  0  0  0  0  0  0
   34.1220   29.5840   46.1070 H   0  0  0  0  0  0  0  0  0  0  0  0
   36.1640   31.0150   49.3260 C   0  0  0  0  0  0  0  0  0  0  0  0
   35.7690   30.4160   48.1350 C   0  0  0  0  0  0  0  0  0  0  0  0
   36.5500   30.6640   47.0160 C   0  0  0  0  0  0  0  0  0  0  0  0
   37.6720   31.4840   47.1260 C   0  0  0  0  0  0  0  0  0  0  0  0
   38.5880   31.8890   46.2250 N   0  0  0  0  0  0  0  0  0  0  0  0
   39.4720   32.6730   46.8200 C   0  0  0  0  0  0  0  0  0  0  0  0
   39.1430   32.7910   48.1230 N   0  0  0  0  0  0  0  0  0  0  0  0
   38.0390   32.0600   48.3070 C   0  0  0  0  0  0  0  0  0  0  0  0
   37.2770   31.8240   49.4260 C   0  0  0  0  0  0  0  0  0  0  0  0
   35.6530   30.9200   50.2960 H   0  0  0  0  0  0  0  0  0  0  0  0
   36.2510   30.2040   46.0860 H   0  0  0  0  0  0  0  0  0  0  0  0
   38.5970   31.6250   45.2190 H   0  0  0  0  0  0  0  0  0  0  0  0
   40.3290   33.1560   46.3580 H   0  0  0  0  0  0  0  0  0  0  0  0
   37.6010   32.3020   50.3510 H   0  0  0  0  0  0  0  0  0  0  0  0
   31.1370   27.1650   48.6640 C   0  0  0  0  0  0  0  0  0  0  0  0
   31.4170   26.2760   49.2820 H   0  0  0  0  0  0  0  0  0  0  0  0
   30.8150   26.7920   47.6770 H   0  0  0  0  0  0  0  0  0  0  0  0
   30.0890   27.8510   49.3740 N   0  0  0  0  0  0  0  0  0  0  0  0
   29.2100   28.5470   48.4870 C   0  0  0  0  0  0  0  0  0  0  0  0
   29.7660   29.3390   47.9770 H   0  0  0  0  0  0  0  0  0  0  0  0
   28.0360   29.1620   49.2160 C   0  0  0  0  0  0  0  0  0  0  0  0
   27.0580   28.7520   48.8610 H   0  0  0  0  0  0  0  0  0  0  0  0
   28.0820   28.9460   50.6340 N   0  0  0  0  0  0  0  0  0  0  0  0
   28.7410   29.5710   51.1080 H   0  0  0  0  0  0  0  0  0  0  0  0
   28.2750   27.5550   50.9970 C   0  0  0  0  0  0  0  0  0  0  0  0
   29.3940   26.9020   50.2110 C   0  0  0  0  0  0  0  0  0  0  0  0
  1  6  1  0  0  0  0
  1  7  1  0  0  0  0
  2  1  2  0  0  0  0
  3  4  2  0  0  0  0
  3  2  1  0  0  0  0
  4  5  1  0  0  0  0
  5 23  1  0  0  0  0
  5  6  2  0  0  0  0
  8  3  1  0  0  0  0
  9 17  1  0  0  0  0
  9 18  1  0  0  0  0
 10  2  1  0  0  0  0
 10  9  2  0  0  0  0
 11 12  2  0  0  0  0
 11 10  1  0  0  0  0
 12 16  1  0  0  0  0
 13 14  1  0  0  0  0
 13 12  1  0  0  0  0
 14 15  2  0  0  0  0
 15 16  1  0  0  0  0
 16 17  2  0  0  0  0
 17 22  1  0  0  0  0
 19 11  1  0  0  0  0
 20 13  1  0  0  0  0
 21 14  1  0  0  0  0
 23 24  1  0  0  0  0
 23 26  1  0  0  0  0
 25 23  1  0  0  0  0
 26 34  1  0  0  0  0
 27 29  1  0  0  0  0
 27 26  1  0  0  0  0
 28 27  1  0  0  0  0
 29 31  1  0  0  0  0
 30 29  1  0  0  0  0
 31 33  1  0  0  0  0
 31 32  1  0  0  0  0
 34 33  1  0  0  0  0
M  END
>  <minimizedAffinity>
-6.48682499

>  <minimizedRMSD>
3.30483079

$$$$
