
     RDKit          3D

 31 32  0  0  0  0  0  0  0  0999 V2000
   37.3268   30.2083   51.4155 C   0  0  0  0  0  0  0  0  0  0  0  0
   38.0484   30.6565   50.3176 C   0  0  0  0  0  0  0  0  0  0  0  0
   37.6133   30.2853   49.0343 C   0  0  0  0  0  0  0  0  0  0  0  0
   36.4988   29.5004   48.9595 N   0  0  0  0  0  0  0  0  0  0  0  0
   35.8310   29.0888   50.0526 C   0  0  0  0  0  0  0  0  0  0  0  0
   36.2507   29.4479   51.2946 N   0  0  0  0  0  0  0  0  0  0  0  0
   34.7477   28.3105   49.7434 O   0  0  0  0  0  0  0  0  0  0  0  0
   34.1885   28.4076   48.4493 C   0  0  0  0  0  0  0  0  0  0  0  0
   33.8499   27.0258   47.9352 C   0  0  0  0  0  0  0  0  0  0  0  0
   37.5530   30.4181   52.4605 H   0  0  0  0  0  0  0  0  0  0  0  0
   38.9114   31.2718   50.5049 H   0  0  0  0  0  0  0  0  0  0  0  0
   38.1690   30.6303   48.1759 H   0  0  0  0  0  0  0  0  0  0  0  0
   33.2210   28.9946   48.5928 H   0  0  0  0  0  0  0  0  0  0  0  0
   34.7661   29.0268   47.7529 H   0  0  0  0  0  0  0  0  0  0  0  0
   33.0703   26.5136   48.5057 H   0  0  0  0  0  0  0  0  0  0  0  0
   33.4927   27.1351   46.8887 H   0  0  0  0  0  0  0  0  0  0  0  0
   35.0849   26.2633   47.8679 N   0  0  0  0  0  0  0  0  0  0  0  0
   35.0139   25.0728   48.6979 C   0  0  1  0  0  0  0  0  0  0  0  0
   36.0079   24.9634   49.2297 H   0  0  0  0  0  0  0  0  0  0  0  0
   34.7896   23.7996   47.9752 C   0  0  1  0  0  0  0  0  0  0  0  0
   35.7528   23.4229   47.5406 H   0  0  0  0  0  0  0  0  0  0  0  0
   33.8635   23.9576   46.9086 N   0  0  0  0  0  0  0  0  0  0  0  0
   32.8911   24.1543   47.1393 H   0  0  0  0  0  0  0  0  0  0  0  0
   34.3718   24.8784   45.9412 C   0  0  0  0  0  0  0  0  0  0  0  0
   35.3709   25.8704   46.4881 C   0  0  0  0  0  0  0  0  0  0  0  0
   34.2658   25.2450   49.4758 H   0  0  0  0  0  0  0  0  0  0  0  0
   34.4698   23.0141   48.7120 H   0  0  0  0  0  0  0  0  0  0  0  0
   33.5241   25.3781   45.4445 H   0  0  0  0  0  0  0  0  0  0  0  0
   34.9095   24.2621   45.1592 H   0  0  0  0  0  0  0  0  0  0  0  0
   36.4189   25.4972   46.4125 H   0  0  0  0  0  0  0  0  0  0  0  0
   35.3197   26.7752   45.8714 H   0  0  0  0  0  0  0  0  0  0  0  0
  2  1  2  0
  3  2  1  0
  4  3  2  0
  4  5  1  0
  5  6  2  0
  6  1  1  0
  7  5  1  0
  8  7  1  0
  9  8  1  0
  1 10  1  0
  2 11  1  0
  3 12  1  0
  8 13  1  0
  8 14  1  0
  9 15  1  0
  9 16  1  0
 17 18  1  0
 18 19  1  1
 18 20  1  0
 20 21  1  6
 20 22  1  0
 22 23  1  0
 22 24  1  0
 24 25  1  0
 25 17  1  0
 18 26  1  0
 20 27  1  0
 24 28  1  0
 24 29  1  0
 25 30  1  0
 25 31  1  0
  9 17  1  0
M  ISO  8  10  14  11  14  12  14  13   8  14   8  15   8  16   8  19   8
M  ISO  2  21   8  23   5
M  END
>  <DihAtoms>  (1) 
7,8,16,17

>  <DihDeg>  (1) 
165.82116575558123

$$$$
