
 OpenBabel03272501453D

 34 37  0  0  0  0  0  0  0  0999 V2000
   36.7680   26.5490   32.9980 C   0  0  0  0  0  0  0  0  0  0  0  0
   36.8330   27.6390   33.8880 C   0  0  0  0  0  0  0  0  0  0  0  0
   37.5540   27.4680   35.0680 C   0  0  0  0  0  0  0  0  0  0  0  0
   38.1470   26.2620   35.2840 N   0  0  0  0  0  0  0  0  0  0  0  0
   38.0730   25.2370   34.4240 C   0  0  0  0  0  0  0  0  0  0  0  0
   37.3780   25.3920   33.2810 N   0  0  0  0  0  0  0  0  0  0  0  0
   36.2620   26.4880   32.0460 H   0  0  0  0  0  0  0  0  0  0  0  0
   37.5880   28.3180   35.7330 H   0  0  0  0  0  0  0  0  0  0  0  0
   35.6830   29.6970   34.4540 C   0  0  0  0  0  0  0  0  0  0  0  0
   36.1370   28.8310   33.4640 C   0  0  0  0  0  0  0  0  0  0  0  0
   35.8770   29.1850   32.1500 C   0  0  0  0  0  0  0  0  0  0  0  0
   35.1890   30.3670   31.8760 C   0  0  0  0  0  0  0  0  0  0  0  0
   34.8050   30.9440   30.7220 N   0  0  0  0  0  0  0  0  0  0  0  0
   34.1680   32.0730   30.9850 C   0  0  0  0  0  0  0  0  0  0  0  0
   34.1260   32.2480   32.3220 N   0  0  0  0  0  0  0  0  0  0  0  0
   34.7530   31.2000   32.8650 C   0  0  0  0  0  0  0  0  0  0  0  0
   35.0020   30.8640   34.1750 C   0  0  0  0  0  0  0  0  0  0  0  0
   35.8060   29.5570   35.5380 H   0  0  0  0  0  0  0  0  0  0  0  0
   36.2250   28.5190   31.3740 H   0  0  0  0  0  0  0  0  0  0  0  0
   34.9840   30.5600   29.7710 H   0  0  0  0  0  0  0  0  0  0  0  0
   33.7390   32.7620   30.2620 H   0  0  0  0  0  0  0  0  0  0  0  0
   34.6400   31.5540   34.9370 H   0  0  0  0  0  0  0  0  0  0  0  0
   38.7650   23.9620   34.7650 C   0  0  0  0  0  0  0  0  0  0  0  0
   39.8000   24.0170   34.3420 H   0  0  0  0  0  0  0  0  0  0  0  0
   38.2580   23.1080   34.2830 H   0  0  0  0  0  0  0  0  0  0  0  0
   38.9070   23.8000   36.1880 N   0  0  0  0  0  0  0  0  0  0  0  0
   37.6740   23.4300   36.8090 C   0  0  0  0  0  3  0  0  0  0  0  0
   36.9520   24.2440   36.6910 H   0  0  0  0  0  0  0  0  0  0  0  0
   37.8440   23.1350   38.2830 C   0  0  0  0  0  3  0  0  0  0  0  0
   37.5680   22.0820   38.5360 H   0  0  0  0  0  0  0  0  0  0  0  0
   39.1910   23.3270   38.7400 N   0  0  0  0  0  0  0  0  0  0  0  0
   39.4240   24.3150   38.8810 H   0  0  0  0  0  0  0  0  0  0  0  0
   40.1760   22.6350   37.9320 C   0  0  0  0  0  2  0  0  0  0  0  0
   39.9640   22.8530   36.4480 C   0  0  0  0  0  2  0  0  0  0  0  0
  1  6  2  0  0  0  0
  1  2  1  0  0  0  0
  2  3  2  0  0  0  0
  3  4  1  0  0  0  0
  3  8  1  0  0  0  0
  5 23  1  0  0  0  0
  5  4  2  0  0  0  0
  6  5  1  0  0  0  0
  7  1  1  0  0  0  0
  9 18  1  0  0  0  0
 10  2  1  0  0  0  0
 10  9  2  0  0  0  0
 11 10  1  0  0  0  0
 12 11  2  0  0  0  0
 12 16  1  0  0  0  0
 13 14  1  0  0  0  0
 13 12  1  0  0  0  0
 14 15  2  0  0  0  0
 15 16  1  0  0  0  0
 16 17  2  0  0  0  0
 17  9  1  0  0  0  0
 17 22  1  0  0  0  0
 19 11  1  0  0  0  0
 20 13  1  0  0  0  0
 21 14  1  0  0  0  0
 23 26  1  0  0  0  0
 24 23  1  0  0  0  0
 25 23  1  0  0  0  0
 26 34  1  0  0  0  0
 26 27  1  0  0  0  0
 27 29  1  0  0  0  0
 28 27  1  0  0  0  0
 29 30  1  0  0  0  0
 29 31  1  0  0  0  0
 31 32  1  0  0  0  0
 33 31  1  0  0  0  0
 34 33  1  0  0  0  0
M  END
>  <minimizedAffinity>
-5.66315651

$$$$

 OpenBabel03272501453D

 34 37  0  0  0  0  0  0  0  0999 V2000
   35.3190   28.9330   32.4210 C   0  0  0  0  0  0  0  0  0  0  0  0
   35.7120   28.8880   33.7730 C   0  0  0  0  0  0  0  0  0  0  0  0
   36.6910   27.9630   34.1320 C   0  0  0  0  0  0  0  0  0  0  0  0
   37.2020   27.1640   33.1550 N   0  0  0  0  0  0  0  0  0  0  0  0
   36.8150   27.2230   31.8740 C   0  0  0  0  0  0  0  0  0  0  0  0
   35.8700   28.1130   31.5170 N   0  0  0  0  0  0  0  0  0  0  0  0
   34.5850   29.5710   31.9550 H   0  0  0  0  0  0  0  0  0  0  0  0
   36.9730   27.9480   35.1740 H   0  0  0  0  0  0  0  0  0  0  0  0
   33.6670   29.7140   34.7790 C   0  0  0  0  0  0  0  0  0  0  0  0
   35.0470   29.8270   34.6460 C   0  0  0  0  0  0  0  0  0  0  0  0
   35.6690   30.8380   35.3610 C   0  0  0  0  0  0  0  0  0  0  0  0
   34.9060   31.6820   36.1670 C   0  0  0  0  0  0  0  0  0  0  0  0
   35.2360   32.7250   36.9520 N   0  0  0  0  0  0  0  0  0  0  0  0
   34.1450   33.2110   37.5210 C   0  0  0  0  0  0  0  0  0  0  0  0
   33.0810   32.4880   37.1110 N   0  0  0  0  0  0  0  0  0  0  0  0
   33.5530   31.5510   36.2810 C   0  0  0  0  0  0  0  0  0  0  0  0
   32.9200   30.5530   35.5790 C   0  0  0  0  0  0  0  0  0  0  0  0
   33.0300   28.9700   34.2780 H   0  0  0  0  0  0  0  0  0  0  0  0
   36.7400   30.9340   35.2640 H   0  0  0  0  0  0  0  0  0  0  0  0
   36.2010   33.0900   37.0900 H   0  0  0  0  0  0  0  0  0  0  0  0
   34.0870   34.0520   38.2060 H   0  0  0  0  0  0  0  0  0  0  0  0
   31.8390   30.4800   35.6960 H   0  0  0  0  0  0  0  0  0  0  0  0
   37.4470   26.2990   30.8900 C   0  0  0  0  0  0  0  0  0  0  0  0
   38.5520   26.4770   30.9230 H   0  0  0  0  0  0  0  0  0  0  0  0
   37.1070   26.5350   29.8670 H   0  0  0  0  0  0  0  0  0  0  0  0
   37.2390   24.9200   31.2480 N   0  0  0  0  0  0  0  0  0  0  0  0
   35.8670   24.5380   31.1200 C   0  0  0  0  0  3  0  0  0  0  0  0
   35.2660   25.1060   31.8360 H   0  0  0  0  0  0  0  0  0  0  0  0
   35.6630   23.0600   31.3710 C   0  0  0  0  0  3  0  0  0  0  0  0
   35.2450   22.5340   30.4770 H   0  0  0  0  0  0  0  0  0  0  0  0
   36.8770   22.3780   31.7180 N   0  0  0  0  0  0  0  0  0  0  0  0
   37.1550   22.5340   32.6920 H   0  0  0  0  0  0  0  0  0  0  0  0
   37.9600   22.6230   30.7850 C   0  0  0  0  0  2  0  0  0  0  0  0
   38.1200   24.0940   30.4580 C   0  0  0  0  0  2  0  0  0  0  0  0
  1  2  1  0  0  0  0
  2  3  2  0  0  0  0
  2 10  1  0  0  0  0
  3  8  1  0  0  0  0
  4  3  1  0  0  0  0
  5  4  2  0  0  0  0
  6  5  1  0  0  0  0
  6  1  2  0  0  0  0
  7  1  1  0  0  0  0
  9 17  1  0  0  0  0
 10  9  2  0  0  0  0
 10 11  1  0  0  0  0
 11 12  2  0  0  0  0
 12 16  1  0  0  0  0
 12 13  1  0  0  0  0
 13 20  1  0  0  0  0
 13 14  1  0  0  0  0
 14 21  1  0  0  0  0
 15 14  2  0  0  0  0
 16 15  1  0  0  0  0
 17 22  1  0  0  0  0
 17 16  2  0  0  0  0
 18  9  1  0  0  0  0
 19 11  1  0  0  0  0
 23 24  1  0  0  0  0
 23 26  1  0  0  0  0
 23  5  1  0  0  0  0
 25 23  1  0  0  0  0
 27 26  1  0  0  0  0
 27 29  1  0  0  0  0
 27 28  1  0  0  0  0
 29 31  1  0  0  0  0
 30 29  1  0  0  0  0
 31 32  1  0  0  0  0
 33 31  1  0  0  0  0
 34 33  1  0  0  0  0
 34 26  1  0  0  0  0
M  END
>  <minimizedAffinity>
-5.30333996

$$$$

 OpenBabel03272501453D

 34 37  0  0  0  0  0  0  0  0999 V2000
   37.8770   26.9480   35.6410 C   0  0  0  0  0  0  0  0  0  0  0  0
   38.0640   25.7410   34.9390 C   0  0  0  0  0  0  0  0  0  0  0  0
   37.5390   25.6540   33.6510 C   0  0  0  0  0  0  0  0  0  0  0  0
   36.8790   26.7370   33.1560 N   0  0  0  0  0  0  0  0  0  0  0  0
   36.7120   27.8770   33.8400 C   0  0  0  0  0  0  0  0  0  0  0  0
   37.2160   27.9720   35.0850 N   0  0  0  0  0  0  0  0  0  0  0  0
   38.2040   27.2050   36.6370 H   0  0  0  0  0  0  0  0  0  0  0  0
   37.6950   24.7180   33.1350 H   0  0  0  0  0  0  0  0  0  0  0  0
   38.3110   24.3200   36.8860 C   0  0  0  0  0  0  0  0  0  0  0  0
   38.7970   24.7180   35.6460 C   0  0  0  0  0  0  0  0  0  0  0  0
   39.9520   24.0990   35.1930 C   0  0  0  0  0  0  0  0  0  0  0  0
   40.5660   23.1250   35.9800 C   0  0  0  0  0  0  0  0  0  0  0  0
   41.6720   22.3790   35.7960 N   0  0  0  0  0  0  0  0  0  0  0  0
   41.8470   21.5880   36.8420 C   0  0  0  0  0  0  0  0  0  0  0  0
   40.8530   21.8080   37.7270 N   0  0  0  0  0  0  0  0  0  0  0  0
   40.0690   22.7520   37.1940 C   0  0  0  0  0  0  0  0  0  0  0  0
   38.9250   23.3550   37.6580 C   0  0  0  0  0  0  0  0  0  0  0  0
   37.4120   24.7150   37.3840 H   0  0  0  0  0  0  0  0  0  0  0  0
   40.3380   24.4020   34.2310 H   0  0  0  0  0  0  0  0  0  0  0  0
   42.2910   22.4200   34.9600 H   0  0  0  0  0  0  0  0  0  0  0  0
   42.6510   20.8710   36.9880 H   0  0  0  0  0  0  0  0  0  0  0  0
   38.5580   23.0310   38.6320 H   0  0  0  0  0  0  0  0  0  0  0  0
   35.9740   29.0000   33.1950 C   0  0  0  0  0  0  0  0  0  0  0  0
   35.7060   28.6750   32.1590 H   0  0  0  0  0  0  0  0  0  0  0  0
   36.6260   29.8860   33.1040 H   0  0  0  0  0  0  0  0  0  0  0  0
   34.7360   29.2800   33.8750 N   0  0  0  0  0  0  0  0  0  0  0  0
   34.7720   30.5400   34.5500 C   0  0  0  0  0  3  0  0  0  0  0  0
   35.5240   30.5030   35.3450 H   0  0  0  0  0  0  0  0  0  0  0  0
   33.4330   30.8970   35.1590 C   0  0  0  0  0  3  0  0  0  0  0  0
   33.0150   31.8420   34.7320 H   0  0  0  0  0  0  0  0  0  0  0  0
   32.4390   29.8820   34.9580 N   0  0  0  0  0  0  0  0  0  0  0  0
   32.5490   29.0880   35.5960 H   0  0  0  0  0  0  0  0  0  0  0  0
   32.3110   29.4690   33.5740 C   0  0  0  0  0  2  0  0  0  0  0  0
   33.6520   29.1900   32.9270 C   0  0  0  0  0  2  0  0  0  0  0  0
  1  7  1  0  0  0  0
  2  1  2  0  0  0  0
  2 10  1  0  0  0  0
  3  2  1  0  0  0  0
  4  3  2  0  0  0  0
  4  5  1  0  0  0  0
  5  6  2  0  0  0  0
  6  1  1  0  0  0  0
  8  3  1  0  0  0  0
  9 18  1  0  0  0  0
  9 17  1  0  0  0  0
 10  9  2  0  0  0  0
 11 10  1  0  0  0  0
 11 12  2  0  0  0  0
 12 16  1  0  0  0  0
 13 12  1  0  0  0  0
 13 14  1  0  0  0  0
 14 21  1  0  0  0  0
 14 15  2  0  0  0  0
 16 17  2  0  0  0  0
 16 15  1  0  0  0  0
 17 22  1  0  0  0  0
 19 11  1  0  0  0  0
 20 13  1  0  0  0  0
 23  5  1  0  0  0  0
 23 26  1  0  0  0  0
 24 23  1  0  0  0  0
 25 23  1  0  0  0  0
 26 27  1  0  0  0  0
 27 29  1  0  0  0  0
 27 28  1  0  0  0  0
 30 29  1  0  0  0  0
 31 29  1  0  0  0  0
 31 32  1  0  0  0  0
 33 31  1  0  0  0  0
 34 33  1  0  0  0  0
 34 26  1  0  0  0  0
M  END
>  <minimizedAffinity>
-5.28652906

$$$$

 OpenBabel03272501453D

 34 37  0  0  0  0  0  0  0  0999 V2000
   35.6660   27.8570   31.7590 C   0  0  0  0  0  0  0  0  0  0  0  0
   36.2330   28.1200   33.0210 C   0  0  0  0  0  0  0  0  0  0  0  0
   36.9910   27.1110   33.6140 C   0  0  0  0  0  0  0  0  0  0  0  0
   37.1320   25.9390   32.9360 N   0  0  0  0  0  0  0  0  0  0  0  0
   36.5840   25.7080   31.7350 C   0  0  0  0  0  0  0  0  0  0  0  0
   35.8500   26.6770   31.1550 N   0  0  0  0  0  0  0  0  0  0  0  0
   35.0540   28.5030   31.1490 H   0  0  0  0  0  0  0  0  0  0  0  0
   37.4130   27.3380   34.5810 H   0  0  0  0  0  0  0  0  0  0  0  0
   35.7410   30.4660   32.6600 C   0  0  0  0  0  0  0  0  0  0  0  0
   35.9640   29.4320   33.5620 C   0  0  0  0  0  0  0  0  0  0  0  0
   35.9140   29.7500   34.9110 C   0  0  0  0  0  0  0  0  0  0  0  0
   35.6470   31.0620   35.3010 C   0  0  0  0  0  0  0  0  0  0  0  0
   35.5440   31.6420   36.5110 N   0  0  0  0  0  0  0  0  0  0  0  0
   35.2780   32.9290   36.3600 C   0  0  0  0  0  0  0  0  0  0  0  0
   35.2040   33.2080   35.0420 N   0  0  0  0  0  0  0  0  0  0  0  0
   35.4320   32.0590   34.3950 C   0  0  0  0  0  0  0  0  0  0  0  0
   35.4780   31.7610   33.0550 C   0  0  0  0  0  0  0  0  0  0  0  0
   35.7500   30.3780   31.5630 H   0  0  0  0  0  0  0  0  0  0  0  0
   36.0860   28.9530   35.6190 H   0  0  0  0  0  0  0  0  0  0  0  0
   35.6550   31.1520   37.4230 H   0  0  0  0  0  0  0  0  0  0  0  0
   35.1380   33.6620   37.1500 H   0  0  0  0  0  0  0  0  0  0  0  0
   35.3000   32.5840   32.3610 H   0  0  0  0  0  0  0  0  0  0  0  0
   36.8080   24.3850   31.0860 C   0  0  0  0  0  0  0  0  0  0  0  0
   37.8680   24.3620   30.7270 H   0  0  0  0  0  0  0  0  0  0  0  0
   36.1590   24.2770   30.2000 H   0  0  0  0  0  0  0  0  0  0  0  0
   36.6650   23.3030   32.0240 N   0  0  0  0  0  0  0  0  0  0  0  0
   35.5130   22.5040   31.7450 C   0  0  0  0  0  3  0  0  0  0  0  0
   34.6120   23.1110   31.8790 H   0  0  0  0  0  0  0  0  0  0  0  0
   35.4270   21.2930   32.6480 C   0  0  0  0  0  3  0  0  0  0  0  0
   35.4600   20.3360   32.0730 H   0  0  0  0  0  0  0  0  0  0  0  0
   36.4940   21.2330   33.6060 N   0  0  0  0  0  0  0  0  0  0  0  0
   36.3520   21.8690   34.3970 H   0  0  0  0  0  0  0  0  0  0  0  0
   37.8090   21.3720   33.0110 C   0  0  0  0  0  2  0  0  0  0  0  0
   37.8840   22.5320   32.0380 C   0  0  0  0  0  2  0  0  0  0  0  0
  1  2  1  0  0  0  0
  2 10  1  0  0  0  0
  2  3  2  0  0  0  0
  3  8  1  0  0  0  0
  4  3  1  0  0  0  0
  5  4  2  0  0  0  0
  6  5  1  0  0  0  0
  6  1  2  0  0  0  0
  7  1  1  0  0  0  0
  9 17  2  0  0  0  0
  9 10  1  0  0  0  0
 10 11  2  0  0  0  0
 11 12  1  0  0  0  0
 11 19  1  0  0  0  0
 12 13  1  0  0  0  0
 13 20  1  0  0  0  0
 14 13  1  0  0  0  0
 14 21  1  0  0  0  0
 15 14  2  0  0  0  0
 16 15  1  0  0  0  0
 16 12  2  0  0  0  0
 17 16  1  0  0  0  0
 18  9  1  0  0  0  0
 22 17  1  0  0  0  0
 23  5  1  0  0  0  0
 23 26  1  0  0  0  0
 24 23  1  0  0  0  0
 25 23  1  0  0  0  0
 26 34  1  0  0  0  0
 27 28  1  0  0  0  0
 27 26  1  0  0  0  0
 27 29  1  0  0  0  0
 29 31  1  0  0  0  0
 30 29  1  0  0  0  0
 31 32  1  0  0  0  0
 33 31  1  0  0  0  0
 34 33  1  0  0  0  0
M  END
>  <minimizedAffinity>
-5.22066021

$$$$

 OpenBabel03272501453D

 34 37  0  0  0  0  0  0  0  0999 V2000
   37.4020   26.9950   35.0420 C   0  0  0  0  0  0  0  0  0  0  0  0
   37.7440   25.7610   34.4540 C   0  0  0  0  0  0  0  0  0  0  0  0
   37.3860   25.5570   33.1230 C   0  0  0  0  0  0  0  0  0  0  0  0
   36.7300   26.5610   32.4780 N   0  0  0  0  0  0  0  0  0  0  0  0
   36.4140   27.7280   33.0550 C   0  0  0  0  0  0  0  0  0  0  0  0
   36.7550   27.9350   34.3410 N   0  0  0  0  0  0  0  0  0  0  0  0
   37.5900   27.3350   36.0480 H   0  0  0  0  0  0  0  0  0  0  0  0
   37.6590   24.6030   32.6970 H   0  0  0  0  0  0  0  0  0  0  0  0
   37.9040   24.5940   36.5730 C   0  0  0  0  0  0  0  0  0  0  0  0
   38.4440   24.8360   35.3140 C   0  0  0  0  0  0  0  0  0  0  0  0
   39.6150   24.1690   34.9910 C   0  0  0  0  0  0  0  0  0  0  0  0
   40.1940   23.3020   35.9180 C   0  0  0  0  0  0  0  0  0  0  0  0
   41.3040   22.5420   35.8760 N   0  0  0  0  0  0  0  0  0  0  0  0
   41.4330   21.8880   37.0180 C   0  0  0  0  0  0  0  0  0  0  0  0
   40.4030   22.2140   37.8260 N   0  0  0  0  0  0  0  0  0  0  0  0
   39.6450   23.0810   37.1480 C   0  0  0  0  0  0  0  0  0  0  0  0
   38.4830   23.7350   37.4830 C   0  0  0  0  0  0  0  0  0  0  0  0
   36.9870   25.0450   36.9780 H   0  0  0  0  0  0  0  0  0  0  0  0
   40.0420   24.3500   34.0160 H   0  0  0  0  0  0  0  0  0  0  0  0
   41.9580   22.4800   35.0690 H   0  0  0  0  0  0  0  0  0  0  0  0
   42.2280   21.1970   37.2870 H   0  0  0  0  0  0  0  0  0  0  0  0
   38.0740   23.5330   38.4740 H   0  0  0  0  0  0  0  0  0  0  0  0
   35.6950   28.7560   32.2500 C   0  0  0  0  0  0  0  0  0  0  0  0
   35.2740   29.5080   32.9630 H   0  0  0  0  0  0  0  0  0  0  0  0
   34.8460   28.2990   31.7130 H   0  0  0  0  0  0  0  0  0  0  0  0
   36.5930   29.4690   31.3780 N   0  0  0  0  0  0  0  0  0  0  0  0
   36.6540   28.8780   30.0780 C   0  0  0  0  0  3  0  0  0  0  0  0
   37.0810   27.8740   30.1570 H   0  0  0  0  0  0  0  0  0  0  0  0
   37.4960   29.6950   29.1210 C   0  0  0  0  0  3  0  0  0  0  0  0
   36.9040   30.0590   28.2450 H   0  0  0  0  0  0  0  0  0  0  0  0
   38.0750   30.8550   29.7360 N   0  0  0  0  0  0  0  0  0  0  0  0
   38.8930   30.6320   30.3110 H   0  0  0  0  0  0  0  0  0  0  0  0
   37.1080   31.6740   30.4410 C   0  0  0  0  0  2  0  0  0  0  0  0
   36.2010   30.8570   31.3390 C   0  0  0  0  0  2  0  0  0  0  0  0
  1  7  1  0  0  0  0
  2  1  1  0  0  0  0
  2 10  1  0  0  0  0
  3  2  2  0  0  0  0
  4  5  2  0  0  0  0
  4  3  1  0  0  0  0
  5  6  1  0  0  0  0
  6  1  2  0  0  0  0
  8  3  1  0  0  0  0
  9 18  1  0  0  0  0
  9 17  1  0  0  0  0
 10  9  2  0  0  0  0
 11 10  1  0  0  0  0
 11 12  2  0  0  0  0
 12 16  1  0  0  0  0
 13 12  1  0  0  0  0
 13 14  1  0  0  0  0
 14 21  1  0  0  0  0
 14 15  2  0  0  0  0
 16 17  2  0  0  0  0
 16 15  1  0  0  0  0
 17 22  1  0  0  0  0
 19 11  1  0  0  0  0
 20 13  1  0  0  0  0
 23 24  1  0  0  0  0
 23  5  1  0  0  0  0
 25 23  1  0  0  0  0
 26 23  1  0  0  0  0
 27 28  1  0  0  0  0
 27 26  1  0  0  0  0
 29 31  1  0  0  0  0
 29 27  1  0  0  0  0
 30 29  1  0  0  0  0
 31 32  1  0  0  0  0
 31 33  1  0  0  0  0
 33 34  1  0  0  0  0
 34 26  1  0  0  0  0
M  END
>  <minimizedAffinity>
-5.18387556

$$$$

 OpenBabel03272501453D

 34 37  0  0  0  0  0  0  0  0999 V2000
   37.5410   27.3180   35.0860 C   0  0  0  0  0  0  0  0  0  0  0  0
   37.8820   26.2100   34.2850 C   0  0  0  0  0  0  0  0  0  0  0  0
   37.3280   26.1400   33.0080 C   0  0  0  0  0  0  0  0  0  0  0  0
   36.4940   27.1440   32.6200 N   0  0  0  0  0  0  0  0  0  0  0  0
   36.1820   28.1900   33.3970 C   0  0  0  0  0  0  0  0  0  0  0  0
   36.7120   28.2660   34.6320 N   0  0  0  0  0  0  0  0  0  0  0  0
   37.8630   27.5460   36.0910 H   0  0  0  0  0  0  0  0  0  0  0  0
   37.6040   25.2820   32.4160 H   0  0  0  0  0  0  0  0  0  0  0  0
   40.0700   25.1700   34.3590 C   0  0  0  0  0  0  0  0  0  0  0  0
   38.7870   25.2620   34.8890 C   0  0  0  0  0  0  0  0  0  0  0  0
   38.4850   24.4280   35.9540 C   0  0  0  0  0  0  0  0  0  0  0  0
   39.4540   23.5510   36.4410 C   0  0  0  0  0  0  0  0  0  0  0  0
   39.4360   22.6470   37.4390 N   0  0  0  0  0  0  0  0  0  0  0  0
   40.6150   22.0500   37.5120 C   0  0  0  0  0  0  0  0  0  0  0  0
   41.4220   22.5600   36.5580 N   0  0  0  0  0  0  0  0  0  0  0  0
   40.7050   23.4800   35.9030 C   0  0  0  0  0  0  0  0  0  0  0  0
   41.0230   24.3000   34.8470 C   0  0  0  0  0  0  0  0  0  0  0  0
   40.4630   25.7580   33.5160 H   0  0  0  0  0  0  0  0  0  0  0  0
   37.4910   24.4910   36.3730 H   0  0  0  0  0  0  0  0  0  0  0  0
   38.6210   22.4500   38.0550 H   0  0  0  0  0  0  0  0  0  0  0  0
   40.9090   21.2750   38.2150 H   0  0  0  0  0  0  0  0  0  0  0  0
   42.0320   24.2150   34.4440 H   0  0  0  0  0  0  0  0  0  0  0  0
   35.2590   29.2310   32.8630 C   0  0  0  0  0  0  0  0  0  0  0  0
   34.9230   28.8950   31.8500 H   0  0  0  0  0  0  0  0  0  0  0  0
   35.7930   30.1880   32.7330 H   0  0  0  0  0  0  0  0  0  0  0  0
   34.0750   29.3550   33.6730 N   0  0  0  0  0  0  0  0  0  0  0  0
   34.0500   30.5870   34.3970 C   0  0  0  0  0  3  0  0  0  0  0  0
   34.8790   30.6020   35.1120 H   0  0  0  0  0  0  0  0  0  0  0  0
   32.7510   30.7790   35.1490 C   0  0  0  0  0  3  0  0  0  0  0  0
   32.1980   31.6890   34.8080 H   0  0  0  0  0  0  0  0  0  0  0  0
   31.8500   29.6720   35.0020 N   0  0  0  0  0  0  0  0  0  0  0  0
   32.1060   28.8720   35.5890 H   0  0  0  0  0  0  0  0  0  0  0  0
   31.6250   29.2950   33.6200 C   0  0  0  0  0  2  0  0  0  0  0  0
   32.9150   29.1830   32.8320 C   0  0  0  0  0  2  0  0  0  0  0  0
  1  7  1  0  0  0  0
  2 10  1  0  0  0  0
  2  1  2  0  0  0  0
  3  2  1  0  0  0  0
  4  3  2  0  0  0  0
  4  5  1  0  0  0  0
  5  6  2  0  0  0  0
  6  1  1  0  0  0  0
  8  3  1  0  0  0  0
  9 17  2  0  0  0  0
  9 10  1  0  0  0  0
 10 11  2  0  0  0  0
 11 19  1  0  0  0  0
 11 12  1  0  0  0  0
 12 13  1  0  0  0  0
 13 14  1  0  0  0  0
 13 20  1  0  0  0  0
 14 21  1  0  0  0  0
 15 14  2  0  0  0  0
 16 12  2  0  0  0  0
 16 15  1  0  0  0  0
 17 16  1  0  0  0  0
 18  9  1  0  0  0  0
 22 17  1  0  0  0  0
 23  5  1  0  0  0  0
 23 26  1  0  0  0  0
 24 23  1  0  0  0  0
 25 23  1  0  0  0  0
 26 27  1  0  0  0  0
 27 28  1  0  0  0  0
 27 29  1  0  0  0  0
 30 29  1  0  0  0  0
 31 29  1  0  0  0  0
 31 32  1  0  0  0  0
 33 31  1  0  0  0  0
 34 33  1  0  0  0  0
 34 26  1  0  0  0  0
M  END
>  <minimizedAffinity>
-5.12611246

$$$$

 OpenBabel03272501453D

 34 37  0  0  0  0  0  0  0  0999 V2000
   37.3890   24.6340   32.1400 C   0  0  0  0  0  0  0  0  0  0  0  0
   36.2360   23.9470   31.7110 C   0  0  0  0  0  0  0  0  0  0  0  0
   35.1890   24.7030   31.1860 C   0  0  0  0  0  0  0  0  0  0  0  0
   35.3490   26.0540   31.1240 N   0  0  0  0  0  0  0  0  0  0  0  0
   36.4540   26.6890   31.5380 C   0  0  0  0  0  0  0  0  0  0  0  0
   37.4700   25.9660   32.0460 N   0  0  0  0  0  0  0  0  0  0  0  0
   38.2920   24.2280   32.5700 H   0  0  0  0  0  0  0  0  0  0  0  0
   34.3180   24.1530   30.8660 H   0  0  0  0  0  0  0  0  0  0  0  0
   37.5220   21.9160   32.0230 C   0  0  0  0  0  0  0  0  0  0  0  0
   36.2760   22.5110   31.8610 C   0  0  0  0  0  0  0  0  0  0  0  0
   35.1730   21.6720   31.8540 C   0  0  0  0  0  0  0  0  0  0  0  0
   35.3500   20.2970   32.0050 C   0  0  0  0  0  0  0  0  0  0  0  0
   34.4800   19.2700   32.0330 N   0  0  0  0  0  0  0  0  0  0  0  0
   35.1430   18.1370   32.1990 C   0  0  0  0  0  0  0  0  0  0  0  0
   36.4610   18.4100   32.2820 N   0  0  0  0  0  0  0  0  0  0  0  0
   36.5850   19.7370   32.1620 C   0  0  0  0  0  0  0  0  0  0  0  0
   37.6890   20.5550   32.1730 C   0  0  0  0  0  0  0  0  0  0  0  0
   38.4890   22.4400   32.0480 H   0  0  0  0  0  0  0  0  0  0  0  0
   34.2000   22.1240   31.7280 H   0  0  0  0  0  0  0  0  0  0  0  0
   33.4480   19.3560   31.9380 H   0  0  0  0  0  0  0  0  0  0  0  0
   34.7190   17.1380   32.2610 H   0  0  0  0  0  0  0  0  0  0  0  0
   38.6580   20.0710   32.3010 H   0  0  0  0  0  0  0  0  0  0  0  0
   36.5160   28.1730   31.4190 C   0  0  0  0  0  0  0  0  0  0  0  0
   36.4590   28.4250   30.3300 H   0  0  0  0  0  0  0  0  0  0  0  0
   37.4840   28.5480   31.7930 H   0  0  0  0  0  0  0  0  0  0  0  0
   35.3870   28.8030   32.0510 N   0  0  0  0  0  0  0  0  0  0  0  0
   35.5590   28.9100   33.4660 C   0  0  0  0  0  3  0  0  0  0  0  0
   35.5980   27.9070   33.9010 H   0  0  0  0  0  0  0  0  0  0  0  0
   34.4350   29.6840   34.1190 C   0  0  0  0  0  3  0  0  0  0  0  0
   34.8020   30.6070   34.6320 H   0  0  0  0  0  0  0  0  0  0  0  0
   33.4300   30.1070   33.1850 N   0  0  0  0  0  0  0  0  0  0  0  0
   32.7930   29.3490   32.9200 H   0  0  0  0  0  0  0  0  0  0  0  0
   33.9710   30.8050   32.0350 C   0  0  0  0  0  2  0  0  0  0  0  0
   35.1540   30.0810   31.4230 C   0  0  0  0  0  2  0  0  0  0  0  0
  1  7  1  0  0  0  0
  2 10  1  0  0  0  0
  2  1  2  0  0  0  0
  3  2  1  0  0  0  0
  4  3  2  0  0  0  0
  4  5  1  0  0  0  0
  5  6  2  0  0  0  0
  6  1  1  0  0  0  0
  8  3  1  0  0  0  0
  9 18  1  0  0  0  0
  9 17  1  0  0  0  0
 10  9  2  0  0  0  0
 11 10  1  0  0  0  0
 11 12  2  0  0  0  0
 12 13  1  0  0  0  0
 12 16  1  0  0  0  0
 13 14  1  0  0  0  0
 14 21  1  0  0  0  0
 14 15  2  0  0  0  0
 16 17  2  0  0  0  0
 16 15  1  0  0  0  0
 17 22  1  0  0  0  0
 19 11  1  0  0  0  0
 20 13  1  0  0  0  0
 23  5  1  0  0  0  0
 23 25  1  0  0  0  0
 23 26  1  0  0  0  0
 24 23  1  0  0  0  0
 26 27  1  0  0  0  0
 27 28  1  0  0  0  0
 27 29  1  0  0  0  0
 29 30  1  0  0  0  0
 31 29  1  0  0  0  0
 32 31  1  0  0  0  0
 33 31  1  0  0  0  0
 34 33  1  0  0  0  0
 34 26  1  0  0  0  0
M  END
>  <minimizedAffinity>
-5.09929609

$$$$

 OpenBabel03272501453D

 34 37  0  0  0  0  0  0  0  0999 V2000
   37.1300   27.2850   33.8850 C   0  0  0  0  0  0  0  0  0  0  0  0
   37.7690   26.0780   33.5360 C   0  0  0  0  0  0  0  0  0  0  0  0
   37.9190   25.7950   32.1790 C   0  0  0  0  0  0  0  0  0  0  0  0
   37.4380   26.7000   31.2830 N   0  0  0  0  0  0  0  0  0  0  0  0
   36.8340   27.8420   31.6350 C   0  0  0  0  0  0  0  0  0  0  0  0
   36.6840   28.1250   32.9430 N   0  0  0  0  0  0  0  0  0  0  0  0
   36.9220   27.6740   34.8700 H   0  0  0  0  0  0  0  0  0  0  0  0
   38.4100   24.8650   31.9390 H   0  0  0  0  0  0  0  0  0  0  0  0
   39.1890   24.3100   34.3920 C   0  0  0  0  0  0  0  0  0  0  0  0
   38.2080   25.2630   34.6440 C   0  0  0  0  0  0  0  0  0  0  0  0
   37.7290   25.3470   35.9420 C   0  0  0  0  0  0  0  0  0  0  0  0
   38.2370   24.4940   36.9210 C   0  0  0  0  0  0  0  0  0  0  0  0
   37.9620   24.3560   38.2320 N   0  0  0  0  0  0  0  0  0  0  0  0
   38.7150   23.3950   38.7410 C   0  0  0  0  0  0  0  0  0  0  0  0
   39.4970   22.8900   37.7630 N   0  0  0  0  0  0  0  0  0  0  0  0
   39.2000   23.5670   36.6490 C   0  0  0  0  0  0  0  0  0  0  0  0
   39.6860   23.4710   35.3670 C   0  0  0  0  0  0  0  0  0  0  0  0
   39.6660   24.1180   33.4190 H   0  0  0  0  0  0  0  0  0  0  0  0
   36.9670   26.0840   36.1480 H   0  0  0  0  0  0  0  0  0  0  0  0
   37.2650   24.9200   38.7610 H   0  0  0  0  0  0  0  0  0  0  0  0
   38.7230   23.0500   39.7710 H   0  0  0  0  0  0  0  0  0  0  0  0
   40.4550   22.7180   35.1880 H   0  0  0  0  0  0  0  0  0  0  0  0
   36.3490   28.7590   30.5650 C   0  0  0  0  0  0  0  0  0  0  0  0
   35.6690   29.5060   31.0450 H   0  0  0  0  0  0  0  0  0  0  0  0
   35.7540   28.2010   29.8210 H   0  0  0  0  0  0  0  0  0  0  0  0
   37.4320   29.5030   29.9750 N   0  0  0  0  0  0  0  0  0  0  0  0
   37.6860   29.0970   28.6280 C   0  0  0  0  0  3  0  0  0  0  0  0
   38.0270   28.0570   28.6230 H   0  0  0  0  0  0  0  0  0  0  0  0
   38.7350   29.9600   27.9610 C   0  0  0  0  0  3  0  0  0  0  0  0
   38.3330   30.4940   27.0650 H   0  0  0  0  0  0  0  0  0  0  0  0
   39.2680   30.9670   28.8340 N   0  0  0  0  0  0  0  0  0  0  0  0
   39.9550   30.5930   29.4970 H   0  0  0  0  0  0  0  0  0  0  0  0
   38.2450   31.7630   29.4850 C   0  0  0  0  0  2  0  0  0  0  0  0
   37.1430   30.9120   30.0830 C   0  0  0  0  0  2  0  0  0  0  0  0
  1  7  1  0  0  0  0
  2  1  1  0  0  0  0
  2 10  1  0  0  0  0
  3  2  2  0  0  0  0
  4  5  2  0  0  0  0
  4  3  1  0  0  0  0
  5  6  1  0  0  0  0
  6  1  2  0  0  0  0
  8  3  1  0  0  0  0
  9 10  2  0  0  0  0
  9 17  1  0  0  0  0
 10 11  1  0  0  0  0
 11 19  1  0  0  0  0
 11 12  2  0  0  0  0
 12 13  1  0  0  0  0
 13 14  1  0  0  0  0
 13 20  1  0  0  0  0
 14 21  1  0  0  0  0
 15 14  2  0  0  0  0
 16 12  1  0  0  0  0
 16 15  1  0  0  0  0
 17 16  2  0  0  0  0
 18  9  1  0  0  0  0
 22 17  1  0  0  0  0
 23 24  1  0  0  0  0
 23  5  1  0  0  0  0
 25 23  1  0  0  0  0
 26 34  1  0  0  0  0
 26 23  1  0  0  0  0
 27 26  1  0  0  0  0
 28 27  1  0  0  0  0
 29 27  1  0  0  0  0
 29 31  1  0  0  0  0
 30 29  1  0  0  0  0
 31 33  1  0  0  0  0
 31 32  1  0  0  0  0
 33 34  1  0  0  0  0
M  END
>  <minimizedAffinity>
-5.03061533

$$$$

 OpenBabel03272501453D

 34 37  0  0  0  0  0  0  0  0999 V2000
   36.6320   28.6100   34.6330 C   0  0  0  0  0  0  0  0  0  0  0  0
   36.1720   28.2910   33.3400 C   0  0  0  0  0  0  0  0  0  0  0  0
   36.7160   27.1690   32.7180 C   0  0  0  0  0  0  0  0  0  0  0  0
   37.6550   26.4560   33.3990 N   0  0  0  0  0  0  0  0  0  0  0  0
   38.0800   26.7760   34.6290 C   0  0  0  0  0  0  0  0  0  0  0  0
   37.5600   27.8590   35.2380 N   0  0  0  0  0  0  0  0  0  0  0  0
   36.3360   29.4310   35.2680 H   0  0  0  0  0  0  0  0  0  0  0  0
   36.3480   26.9470   31.7280 H   0  0  0  0  0  0  0  0  0  0  0  0
   33.8700   29.0500   33.2870 C   0  0  0  0  0  0  0  0  0  0  0  0
   35.1670   29.1770   32.8010 C   0  0  0  0  0  0  0  0  0  0  0  0
   35.3850   30.1450   31.8320 C   0  0  0  0  0  0  0  0  0  0  0  0
   34.3220   30.9340   31.3940 C   0  0  0  0  0  0  0  0  0  0  0  0
   34.2450   31.9240   30.4850 N   0  0  0  0  0  0  0  0  0  0  0  0
   33.0000   32.3670   30.4210 C   0  0  0  0  0  0  0  0  0  0  0  0
   32.2440   31.6680   31.2920 N   0  0  0  0  0  0  0  0  0  0  0  0
   33.0580   30.7900   31.8870 C   0  0  0  0  0  0  0  0  0  0  0  0
   32.8250   29.8350   32.8480 C   0  0  0  0  0  0  0  0  0  0  0  0
   33.5360   28.3320   34.0510 H   0  0  0  0  0  0  0  0  0  0  0  0
   36.3890   30.2510   31.4480 H   0  0  0  0  0  0  0  0  0  0  0  0
   35.0430   32.2840   29.9220 H   0  0  0  0  0  0  0  0  0  0  0  0
   32.6240   33.1610   29.7810 H   0  0  0  0  0  0  0  0  0  0  0  0
   31.8030   29.7500   33.2180 H   0  0  0  0  0  0  0  0  0  0  0  0
   39.1120   25.9190   35.2780 C   0  0  0  0  0  0  0  0  0  0  0  0
   39.3560   26.3790   36.2690 H   0  0  0  0  0  0  0  0  0  0  0  0
   40.0390   25.9140   34.6800 H   0  0  0  0  0  0  0  0  0  0  0  0
   38.6100   24.5970   35.5480 N   0  0  0  0  0  0  0  0  0  0  0  0
   39.6340   23.6060   35.4400 C   0  0  0  0  0  3  0  0  0  0  0  0
   39.9890   23.5640   34.4060 H   0  0  0  0  0  0  0  0  0  0  0  0
   39.1430   22.2330   35.8460 C   0  0  0  0  0  3  0  0  0  0  0  0
   39.7070   21.8260   36.7210 H   0  0  0  0  0  0  0  0  0  0  0  0
   37.7550   22.2210   36.2110 N   0  0  0  0  0  0  0  0  0  0  0  0
   37.1320   22.2360   35.3980 H   0  0  0  0  0  0  0  0  0  0  0  0
   37.4110   23.2310   37.1930 C   0  0  0  0  0  2  0  0  0  0  0  0
   37.9700   24.5950   36.8410 C   0  0  0  0  0  2  0  0  0  0  0  0
  1  6  1  0  0  0  0
  1  7  1  0  0  0  0
  2  1  2  0  0  0  0
  3  2  1  0  0  0  0
  3  4  2  0  0  0  0
  4  5  1  0  0  0  0
  5  6  2  0  0  0  0
  5 23  1  0  0  0  0
  8  3  1  0  0  0  0
  9 18  1  0  0  0  0
 10  9  2  0  0  0  0
 10  2  1  0  0  0  0
 11 10  1  0  0  0  0
 12 11  2  0  0  0  0
 12 16  1  0  0  0  0
 13 12  1  0  0  0  0
 14 13  1  0  0  0  0
 14 15  2  0  0  0  0
 15 16  1  0  0  0  0
 16 17  2  0  0  0  0
 17 22  1  0  0  0  0
 17  9  1  0  0  0  0
 19 11  1  0  0  0  0
 20 13  1  0  0  0  0
 21 14  1  0  0  0  0
 23 26  1  0  0  0  0
 23 24  1  0  0  0  0
 25 23  1  0  0  0  0
 26 34  1  0  0  0  0
 27 26  1  0  0  0  0
 27 29  1  0  0  0  0
 28 27  1  0  0  0  0
 29 31  1  0  0  0  0
 29 30  1  0  0  0  0
 31 33  1  0  0  0  0
 32 31  1  0  0  0  0
 34 33  1  0  0  0  0
M  END
>  <minimizedAffinity>
-4.96618271

$$$$
