REMARK  Name = 
REMARK  2 active torsions:
REMARK  status: ('A' for Active; 'I' for Inactive)
REMARK    1  A    between atoms: C_2  and  C_7
REMARK    2  A    between atoms: C_12  and  N_20
REMARK                            x       y       z     vdW  Elec       q    Type
REMARK                         _______ _______ _______ _____ _____    ______ ____
ROOT
ATOM      1  C   UNL     1      38.130  32.169  49.061  0.00  0.00    +0.000 A 
ATOM      2  C   UNL     1      38.532  31.858  47.770  0.00  0.00    +0.000 A 
ATOM      3  C   UNL     1      39.389  32.632  47.017  0.00  0.00    +0.000 A 
ATOM      4  C   UNL     1      39.889  33.816  47.594  0.00  0.00    +0.000 A 
ATOM      5  C   UNL     1      39.480  34.108  48.875  0.00  0.00    +0.000 A 
ATOM      6  C   UNL     1      38.628  33.326  49.605  0.00  0.00    +0.000 A 
ATOM      7  H   UNL     1      38.189  30.961  47.255  0.00  0.00    +0.000 HD
ATOM      8  H   UNL     1      39.693  32.382  46.020  0.00  0.00    +0.000 HD
ATOM      9  H   UNL     1      40.554  34.429  47.026  0.00  0.00    +0.000 HD
ATOM     10  H   UNL     1      39.856  35.017  49.333  0.00  0.00    +0.000 HD
ENDROOT
BRANCH   1  12
ATOM     11  C   UNL     1      37.694  30.597  50.881  0.00  0.00    +0.000 A 
ATOM     12  C   UNL     1      37.217  31.213  49.681  0.00  0.00    +0.000 A 
ATOM     13  C   UNL     1      35.955  30.846  49.231  0.00  0.00    +0.000 A 
ATOM     14  N   UNL     1      35.248  29.937  49.938  0.00  0.00    +0.000 NA
ATOM     15  C   UNL     1      35.706  29.367  51.062  0.00  0.00    +0.000 A 
ATOM     16  N   UNL     1      36.932  29.702  51.529  0.00  0.00    +0.000 NA
ATOM     17  H   UNL     1      38.660  30.854  51.258  0.00  0.00    +0.000 HD
ATOM     18  H   UNL     1      35.642  31.334  48.327  0.00  0.00    +0.000 HD
ATOM     19  H   UNL     1      35.096  28.640  51.594  0.00  0.00    +0.000 HD
ENDBRANCH   1  12
BRANCH   6  20
ATOM     20  N   UNL     1      38.194  33.615  50.932  0.00  0.00    +0.000 N 
ATOM     21  C   UNL     1      36.939  33.589  51.628  0.00  0.00    +0.000 C 
ATOM     22  H   UNL     1      36.101  33.453  50.900  0.00  0.00    +0.000 HD
ATOM     23  C   UNL     1      36.626  34.850  52.378  0.00  0.00    +0.000 C 
ATOM     24  H   UNL     1      36.316  35.674  51.703  0.00  0.00    +0.000 HD
ATOM     25  N   UNL     1      37.715  35.328  53.186  0.00  0.00    +0.000 NA
ATOM     26  H   UNL     1      38.012  34.603  53.891  0.00  0.00    +0.000 HD
ATOM     27  C   UNL     1      38.870  35.482  52.305  0.00  0.00    +0.000 C 
ATOM     28  C   UNL     1      39.214  34.051  51.878  0.00  0.00    +0.000 C 
ENDBRANCH   6  20
TORSDOF 2
