
     RDKit          3D

 34 36  0  0  0  0  0  0  0  0999 V2000
   37.6939   30.5969   50.8808 C   0  0  0  0  0  0  0  0  0  0  0  0
   37.2172   31.2126   49.6807 C   0  0  0  0  0  0  0  0  0  0  0  0
   35.9553   30.8455   49.2308 C   0  0  0  0  0  0  0  0  0  0  0  0
   35.2478   29.9367   49.9383 N   0  0  0  0  0  0  0  0  0  0  0  0
   35.7055   29.3666   51.0618 C   0  0  0  0  0  0  0  0  0  0  0  0
   36.9324   29.7017   51.5291 N   0  0  0  0  0  0  0  0  0  0  0  0
   38.1299   32.1695   49.0609 C   0  0  0  0  0  0  0  0  0  0  0  0
   38.5319   31.8576   47.7696 C   0  0  0  0  0  0  0  0  0  0  0  0
   39.3888   32.6318   47.0165 C   0  0  0  0  0  0  0  0  0  0  0  0
   39.8891   33.8161   47.5944 C   0  0  0  0  0  0  0  0  0  0  0  0
   39.4795   34.1084   48.8747 C   0  0  0  0  0  0  0  0  0  0  0  0
   38.6276   33.3257   49.6054 C   0  0  0  0  0  0  0  0  0  0  0  0
   38.6602   30.8544   51.2576 H   0  0  0  0  0  0  0  0  0  0  0  0
   35.6425   31.3345   48.3273 H   0  0  0  0  0  0  0  0  0  0  0  0
   35.0957   28.6398   51.5944 H   0  0  0  0  0  0  0  0  0  0  0  0
   38.1894   30.9611   47.2547 H   0  0  0  0  0  0  0  0  0  0  0  0
   39.6932   32.3821   46.0199 H   0  0  0  0  0  0  0  0  0  0  0  0
   40.5542   34.4287   47.0260 H   0  0  0  0  0  0  0  0  0  0  0  0
   39.8564   35.0168   49.3326 H   0  0  0  0  0  0  0  0  0  0  0  0
   38.1944   33.6151   50.9319 N   0  0  0  0  0  0  0  0  0  0  0  0
   36.9391   33.5892   51.6284 C   0  0  1  0  0  0  0  0  0  0  0  0
   36.1014   33.4528   50.8996 H   0  0  0  0  0  0  0  0  0  0  0  0
   36.6264   34.8501   52.3776 C   0  0  1  0  0  0  0  0  0  0  0  0
   36.3158   35.6744   51.7026 H   0  0  0  0  0  0  0  0  0  0  0  0
   37.7147   35.3281   53.1860 N   0  0  0  0  0  0  0  0  0  0  0  0
   38.0123   34.6032   53.8914 H   0  0  0  0  0  0  0  0  0  0  0  0
   38.8699   35.4817   52.3051 C   0  0  0  0  0  0  0  0  0  0  0  0
   39.2135   34.0512   51.8779 C   0  0  0  0  0  0  0  0  0  0  0  0
   36.8729   32.7107   52.3035 H   0  0  0  0  0  0  0  0  0  0  0  0
   35.7743   34.6471   53.0568 H   0  0  0  0  0  0  0  0  0  0  0  0
   38.5541   36.1066   51.4361 H   0  0  0  0  0  0  0  0  0  0  0  0
   39.7058   35.9269   52.8509 H   0  0  0  0  0  0  0  0  0  0  0  0
   39.2363   33.4539   52.8054 H   0  0  0  0  0  0  0  0  0  0  0  0
   40.2317   34.0660   51.4490 H   0  0  0  0  0  0  0  0  0  0  0  0
  1  6  2  0
  2  1  1  0
  3  2  2  0
  3  4  1  0
  4  5  2  0
  5  6  1  0
  7 12  1  0
  7  2  1  0
  8  7  2  0
  9 10  2  0
  9  8  1  0
 10 11  1  0
 11 12  2  0
  1 13  1  0
  3 14  1  0
  5 15  1  0
  8 16  1  0
  9 17  1  0
 10 18  1  0
 11 19  1  0
 20 21  1  0
 21 22  1  6
 21 23  1  0
 23 24  1  6
 23 25  1  0
 25 26  1  0
 25 27  1  0
 27 28  1  0
 28 20  1  0
 21 29  1  0
 23 30  1  0
 27 31  1  0
 27 32  1  0
 28 33  1  0
 28 34  1  0
 12 20  1  0
M  ISO  8  13  14  14  14  15  14  16  14  17  14  18  14  19  14  22   8
M  ISO  2  24   8  26   5
M  END
>  <DihAtoms>  (1) 
6,11,19,20

>  <DihDeg>  (1) 
-60.01145296538488

$$$$
