
 OpenBabel03272501073D

 40 43  0  0  1  0  0  0  0  0999 V2000
   38.9250   32.3630   47.3940 C   0  0  2  0  0  0  0  0  0  0  0  0
   38.0370   32.5960   48.6620 C   0  0  2  0  0  0  0  0  0  0  0  0
   38.9910   33.2580   49.5380 C   0  0  0  0  0  0  0  0  0  0  0  0
   39.7700   34.0960   48.7570 O   0  0  0  0  0  0  0  0  0  0  0  0
   39.6130   33.7540   47.4530 C   0  0  0  0  0  0  0  0  0  0  0  0
   39.6970   31.6230   47.5890 H   0  0  0  0  0  0  0  0  0  0  0  0
   37.2520   33.3160   48.3080 H   0  0  0  0  0  0  0  0  0  0  0  0
   39.6910   32.5330   49.9990 H   0  0  0  0  0  0  0  0  0  0  0  0
   38.5380   33.8070   50.4090 H   0  0  0  0  0  0  0  0  0  0  0  0
   40.5250   33.7610   46.8440 H   0  0  0  0  0  0  0  0  0  0  0  0
   38.8740   34.4470   46.9880 H   0  0  0  0  0  0  0  0  0  0  0  0
   37.3730   29.3670   50.4760 C   0  0  0  0  0  0  0  0  0  0  0  0
   38.0340   30.5560   50.0700 C   0  0  0  0  0  0  0  0  0  0  0  0
   37.4030   31.3830   49.1140 C   0  0  0  0  0  0  0  0  0  0  0  0
   36.1780   31.0040   48.6160 N   0  0  0  0  0  0  0  0  0  0  0  0
   35.5870   29.8750   49.0240 C   0  0  0  0  0  0  0  0  0  0  0  0
   36.1620   29.0530   49.9420 N   0  0  0  0  0  0  0  0  0  0  0  0
   37.8770   28.7510   51.2080 H   0  0  0  0  0  0  0  0  0  0  0  0
   38.9900   30.7630   50.5180 H   0  0  0  0  0  0  0  0  0  0  0  0
   34.6280   29.6520   48.5830 H   0  0  0  0  0  0  0  0  0  0  0  0
   38.1830   32.2910   46.2590 O   0  0  0  0  0  0  0  0  0  0  0  0
   40.3890   31.9610   44.1320 Cl  0  0  0  0  0  0  0  0  0  0  0  0
   38.8670   31.1070   44.1530 C   0  0  0  0  0  0  0  0  0  0  0  0
   38.0460   31.4420   45.2210 C   0  0  0  0  0  0  0  0  0  0  0  0
   36.8300   30.7810   45.2490 C   0  0  0  0  0  0  0  0  0  0  0  0
   36.4480   29.8560   44.2920 C   0  0  0  0  0  0  0  0  0  0  0  0
   37.3250   29.5760   43.2560 C   0  0  0  0  0  0  0  0  0  0  0  0
   38.5530   30.2060   43.1800 C   0  0  0  0  0  0  0  0  0  0  0  0
   36.0760   30.9450   46.0370 H   0  0  0  0  0  0  0  0  0  0  0  0
   35.4730   29.3620   44.3600 H   0  0  0  0  0  0  0  0  0  0  0  0
   36.9290   28.8390   42.5720 H   0  0  0  0  0  0  0  0  0  0  0  0
   39.4130   29.8600   42.1060 N   0  0  0  0  0  0  0  0  0  0  0  0
   40.1760   28.6370   42.0190 C   0  0  0  0  0  3  0  0  0  0  0  0
   39.9090   27.8810   42.7860 H   0  0  0  0  0  0  0  0  0  0  0  0
   41.6280   29.0430   42.1400 C   0  0  0  0  0  3  0  0  0  0  0  0
   42.2810   28.1710   42.3370 H   0  0  0  0  0  0  0  0  0  0  0  0
   42.0030   29.7490   40.9540 N   0  0  0  0  0  0  0  0  0  0  0  0
   42.6790   29.2270   40.3880 H   0  0  0  0  0  0  0  0  0  0  0  0
   40.9070   30.2060   40.1750 C   0  0  0  0  0  2  0  0  0  0  0  0
   39.6920   30.6530   40.9540 C   0  0  0  0  0  2  0  0  0  0  0  0
  1  5  1  0  0  0  0
  1  6  1  1  0  0  0
  1  2  1  0  0  0  0
  2  7  1  6  0  0  0
  2 14  1  0  0  0  0
  2  3  1  0  0  0  0
  3  8  1  0  0  0  0
  3  9  1  0  0  0  0
  4  3  1  0  0  0  0
  5  4  1  0  0  0  0
 10  5  1  0  0  0  0
 11  5  1  0  0  0  0
 12 18  1  0  0  0  0
 13 12  1  0  0  0  0
 13 19  1  0  0  0  0
 14 13  2  0  0  0  0
 15 16  2  0  0  0  0
 15 14  1  0  0  0  0
 16 17  1  0  0  0  0
 17 12  2  0  0  0  0
 20 16  1  0  0  0  0
 21  1  1  0  0  0  0
 22 23  1  0  0  0  0
 23 24  1  0  0  0  0
 24 25  2  0  0  0  0
 24 21  1  0  0  0  0
 25 29  1  0  0  0  0
 26 30  1  0  0  0  0
 26 25  1  0  0  0  0
 27 26  2  0  0  0  0
 28 27  1  0  0  0  0
 28 23  2  0  0  0  0
 31 27  1  0  0  0  0
 32 28  1  0  0  0  0
 33 32  1  0  0  0  0
 33 35  1  0  0  0  0
 33 34  1  0  0  0  0
 35 36  1  0  0  0  0
 37 35  1  0  0  0  0
 38 37  1  0  0  0  0
 39 40  1  0  0  0  0
 39 37  1  0  0  0  0
 40 32  1  0  0  0  0
M  END
>  <minimizedAffinity>
-6.08688116

>  <minimizedRMSD>
1.12079799

$$$$
