REMARK  Name = 
REMARK  6 active torsions:
REMARK  status: ('A' for Active; 'I' for Inactive)
REMARK    1  A    between atoms: C_1  and  C_4
REMARK    2  A    between atoms: C_3  and  C_11
REMARK    3  A    between atoms: C_4  and  C_7
REMARK    4  A    between atoms: C_11  and  C_12
REMARK    5  A    between atoms: C_12  and  C_14
REMARK    6  A    between atoms: C_21  and  N_40
REMARK                            x       y       z     vdW  Elec       q    Type
REMARK                         _______ _______ _______ _____ _____    ______ ____
ROOT
ATOM      1  C   UNL     1      40.381  30.973  43.779  0.00  0.00    +0.000 C 
ATOM      2  H   UNL     1      41.411  31.298  43.965  0.00  0.00    +0.000 HD
ATOM      3  H   UNL     1      39.792  31.777  43.265  0.00  0.00    +0.000 HD
ENDROOT
BRANCH   1   5
ATOM      4  C   UNL     1      39.432  28.769  43.162  0.00  0.00    +0.000 A 
ATOM      5  C   UNL     1      40.308  29.795  42.859  0.00  0.00    +0.000 A 
ATOM      6  C   UNL     1      41.084  29.690  41.711  0.00  0.00    +0.000 A 
ATOM      7  C   UNL     1      40.993  28.589  40.879  0.00  0.00    +0.000 A 
ATOM      8  N   UNL     1      41.635  28.288  39.737  0.00  0.00    +0.000 N 
ATOM      9  C   UNL     1      41.159  27.091  39.343  0.00  0.00    +0.000 A 
ATOM     10  C   UNL     1      40.213  26.599  40.209  0.00  0.00    +0.000 A 
ATOM     11  C   UNL     1      40.116  27.577  41.197  0.00  0.00    +0.000 A 
ATOM     12  C   UNL     1      39.351  27.680  42.329  0.00  0.00    +0.000 A 
ATOM     13  H   UNL     1      38.764  28.706  44.006  0.00  0.00    +0.000 HD
ATOM     14  H   UNL     1      41.765  30.489  41.476  0.00  0.00    +0.000 HD
ATOM     15  H   UNL     1      42.354  28.890  39.278  0.00  0.00    +0.000 HD
ATOM     16  H   UNL     1      41.526  26.626  38.435  0.00  0.00    +0.000 HD
ATOM     17  H   UNL     1      39.687  25.674  40.122  0.00  0.00    +0.000 HD
BRANCH  12  18
ATOM     18  N   UNL     1      38.458  26.576  42.589  0.00  0.00    +0.000 N 
ATOM     19  C   UNL     1      38.038  25.526  41.701  0.00  0.00    +0.000 C 
ATOM     20  H   UNL     1      38.145  25.776  40.625  0.00  0.00    +0.000 HD
ATOM     21  C   UNL     1      36.579  25.273  41.968  0.00  0.00    +0.000 C 
ATOM     22  H   UNL     1      36.270  24.448  41.286  0.00  0.00    +0.000 HD
ATOM     23  N   UNL     1      36.307  24.883  43.317  0.00  0.00    +0.000 NA
ATOM     24  H   UNL     1      36.289  23.838  43.444  0.00  0.00    +0.000 HD
ATOM     25  C   UNL     1      37.056  25.519  44.337  0.00  0.00    +0.000 C 
ATOM     26  C   UNL     1      37.973  26.614  43.944  0.00  0.00    +0.000 C 
ENDBRANCH  12  18
ENDBRANCH   1   5
BRANCH   1  27
ATOM     27  C   UNL     1      39.667  30.580  45.068  0.00  0.00    +0.000 C 
ATOM     28  H   UNL     1      39.993  29.544  45.320  0.00  0.00    +0.000 HD
ATOM     29  H   UNL     1      38.581  30.560  44.812  0.00  0.00    +0.000 HD
BRANCH  27  32
ATOM     30  C   UNL     1      38.794  32.117  46.872  0.00  0.00    +0.000 C 
ATOM     31  C   UNL     1      39.851  32.936  46.164  0.00  0.00    +0.000 C 
ATOM     32  C   UNL     1      39.946  31.464  46.225  0.00  0.00    +0.000 C 
ATOM     33  H   UNL     1      37.783  32.144  46.392  0.00  0.00    +0.000 HD
ATOM     34  H   UNL     1      39.592  33.381  45.170  0.00  0.00    +0.000 HD
ATOM     35  H   UNL     1      40.548  33.571  46.738  0.00  0.00    +0.000 HD
ATOM     36  H   UNL     1      40.738  31.082  46.924  0.00  0.00    +0.000 HD
BRANCH  30  37
ATOM     37  C   UNL     1      38.714  32.315  48.357  0.00  0.00    +0.000 C 
ATOM     38  H   UNL     1      39.725  32.444  48.814  0.00  0.00    +0.000 HD
ATOM     39  H   UNL     1      38.160  33.272  48.583  0.00  0.00    +0.000 HD
BRANCH  37  42
ATOM     40  C   UNL     1      37.408  30.021  51.009  0.00  0.00    +0.000 A 
ATOM     41  C   UNL     1      38.137  31.058  50.349  0.00  0.00    +0.000 A 
ATOM     42  C   UNL     1      37.949  31.239  49.010  0.00  0.00    +0.000 A 
ATOM     43  N   UNL     1      37.086  30.429  48.380  0.00  0.00    +0.000 NA
ATOM     44  C   UNL     1      36.402  29.457  48.996  0.00  0.00    +0.000 A 
ATOM     45  N   UNL     1      36.575  29.268  50.305  0.00  0.00    +0.000 NA
ATOM     46  H   UNL     1      37.551  29.869  52.078  0.00  0.00    +0.000 HD
ATOM     47  H   UNL     1      38.783  31.616  50.982  0.00  0.00    +0.000 HD
ATOM     48  H   UNL     1      35.761  28.919  48.315  0.00  0.00    +0.000 HD
ENDBRANCH  37  42
ENDBRANCH  30  37
ENDBRANCH  27  32
ENDBRANCH   1  27
TORSDOF 6
