
 OpenBabel03272501073D

 40 43  0  0  1  0  0  0  0  0999 V2000
   38.8580   32.4870   47.7820 C   0  0  2  0  0  0  0  0  0  0  0  0
   38.0390   32.8220   49.0740 C   0  0  2  0  0  0  0  0  0  0  0  0
   39.0550   33.4950   49.8670 C   0  0  0  0  0  0  0  0  0  0  0  0
   39.8250   34.2610   49.0040 O   0  0  0  0  0  0  0  0  0  0  0  0
   39.5950   33.8530   47.7310 C   0  0  0  0  0  0  0  0  0  0  0  0
   39.6120   31.7310   47.9830 H   0  0  0  0  0  0  0  0  0  0  0  0
   37.2630   33.5490   48.7150 H   0  0  0  0  0  0  0  0  0  0  0  0
   39.7510   32.7720   50.3360 H   0  0  0  0  0  0  0  0  0  0  0  0
   38.6630   34.1080   50.7240 H   0  0  0  0  0  0  0  0  0  0  0  0
   40.4770   33.7920   47.0810 H   0  0  0  0  0  0  0  0  0  0  0  0
   38.8580   34.5460   47.2610 H   0  0  0  0  0  0  0  0  0  0  0  0
   37.3800   29.6810   51.0380 C   0  0  0  0  0  0  0  0  0  0  0  0
   38.0630   30.8180   50.5330 C   0  0  0  0  0  0  0  0  0  0  0  0
   37.3860   31.6600   49.6220 C   0  0  0  0  0  0  0  0  0  0  0  0
   36.0970   31.3450   49.2620 N   0  0  0  0  0  0  0  0  0  0  0  0
   35.4860   30.2620   49.7590 C   0  0  0  0  0  0  0  0  0  0  0  0
   36.1050   29.4280   50.6380 N   0  0  0  0  0  0  0  0  0  0  0  0
   37.9200   29.0520   51.7330 H   0  0  0  0  0  0  0  0  0  0  0  0
   39.0700   30.9780   50.8760 H   0  0  0  0  0  0  0  0  0  0  0  0
   34.4760   30.0870   49.4240 H   0  0  0  0  0  0  0  0  0  0  0  0
   38.0610   32.3790   46.6880 O   0  0  0  0  0  0  0  0  0  0  0  0
   40.2790   31.9820   44.5850 Cl  0  0  0  0  0  0  0  0  0  0  0  0
   38.7360   31.1660   44.5960 C   0  0  0  0  0  0  0  0  0  0  0  0
   37.9130   31.5280   45.6540 C   0  0  0  0  0  0  0  0  0  0  0  0
   36.6800   30.8980   45.6720 C   0  0  0  0  0  0  0  0  0  0  0  0
   36.2850   29.9770   44.7170 C   0  0  0  0  0  0  0  0  0  0  0  0
   37.1650   29.6690   43.6920 C   0  0  0  0  0  0  0  0  0  0  0  0
   38.4090   30.2680   43.6240 C   0  0  0  0  0  0  0  0  0  0  0  0
   35.9230   31.0850   46.4520 H   0  0  0  0  0  0  0  0  0  0  0  0
   35.2970   29.5070   44.7790 H   0  0  0  0  0  0  0  0  0  0  0  0
   36.7580   28.9380   43.0080 H   0  0  0  0  0  0  0  0  0  0  0  0
   39.2710   29.8950   42.5620 N   0  0  0  0  0  0  0  0  0  0  0  0
   39.1600   28.6730   41.7970 C   0  0  0  0  0  3  0  0  0  0  0  0
   38.2240   28.1070   41.9840 H   0  0  0  0  0  0  0  0  0  0  0  0
   40.3770   27.8490   42.1530 C   0  0  0  0  0  3  0  0  0  0  0  0
   40.2680   26.7970   41.8220 H   0  0  0  0  0  0  0  0  0  0  0  0
   41.5310   28.4800   41.5970 N   0  0  0  0  0  0  0  0  0  0  0  0
   41.9530   27.9270   40.8440 H   0  0  0  0  0  0  0  0  0  0  0  0
   41.3300   29.8300   41.2060 C   0  0  0  0  0  2  0  0  0  0  0  0
   40.3950   30.6310   42.0810 C   0  0  0  0  0  2  0  0  0  0  0  0
  1  6  1  1  0  0  0
  1  2  1  0  0  0  0
  2  7  1  6  0  0  0
  2 14  1  0  0  0  0
  2  3  1  0  0  0  0
  3  8  1  0  0  0  0
  3  9  1  0  0  0  0
  4  3  1  0  0  0  0
  5  1  1  0  0  0  0
  5  4  1  0  0  0  0
 10  5  1  0  0  0  0
 11  5  1  0  0  0  0
 12 18  1  0  0  0  0
 13 19  1  0  0  0  0
 13 12  2  0  0  0  0
 14 13  1  0  0  0  0
 15 14  2  0  0  0  0
 15 16  1  0  0  0  0
 16 17  2  0  0  0  0
 17 12  1  0  0  0  0
 20 16  1  0  0  0  0
 21  1  1  0  0  0  0
 22 23  1  0  0  0  0
 23 24  1  0  0  0  0
 24 25  2  0  0  0  0
 24 21  1  0  0  0  0
 25 29  1  0  0  0  0
 26 30  1  0  0  0  0
 26 25  1  0  0  0  0
 27 26  2  0  0  0  0
 28 27  1  0  0  0  0
 28 23  2  0  0  0  0
 31 27  1  0  0  0  0
 32 28  1  0  0  0  0
 33 34  1  0  0  0  0
 33 35  1  0  0  0  0
 33 32  1  0  0  0  0
 36 35  1  0  0  0  0
 37 35  1  0  0  0  0
 38 37  1  0  0  0  0
 39 37  1  0  0  0  0
 39 40  1  0  0  0  0
 40 32  1  0  0  0  0
M  END
>  <minimizedAffinity>
-6.05030775

>  <minimizedRMSD>
0.976461768

$$$$
