
 OpenBabel03262520483D

 48 52  0  0  1  0  0  0  0  0999 V2000
   40.3790   30.9950   43.8180 C   0  0  0  0  0  0  0  0  0  0  0  0
   41.4090   31.2950   44.0450 H   0  0  0  0  0  0  0  0  0  0  0  0
   39.8260   31.8190   43.2960 H   0  0  0  0  0  0  0  0  0  0  0  0
   39.4270   28.8080   43.1510 C   0  0  0  0  0  0  0  0  0  0  0  0
   40.3140   29.8320   42.8790 C   0  0  0  0  0  0  0  0  0  0  0  0
   41.1080   29.7400   41.7420 C   0  0  0  0  0  0  0  0  0  0  0  0
   41.0230   28.6530   40.8910 C   0  0  0  0  0  0  0  0  0  0  0  0
   41.6820   28.3660   39.7550 N   0  0  0  0  0  0  0  0  0  0  0  0
   41.2050   27.1780   39.3350 C   0  0  0  0  0  0  0  0  0  0  0  0
   40.2420   26.6790   40.1780 C   0  0  0  0  0  0  0  0  0  0  0  0
   40.1350   27.6420   41.1790 C   0  0  0  0  0  0  0  0  0  0  0  0
   39.3520   27.7320   42.3000 C   0  0  0  0  0  0  0  0  0  0  0  0
   38.7450   28.7360   43.9840 H   0  0  0  0  0  0  0  0  0  0  0  0
   41.7970   30.5380   41.5300 H   0  0  0  0  0  0  0  0  0  0  0  0
   42.4120   28.9700   39.3170 H   0  0  0  0  0  0  0  0  0  0  0  0
   41.5830   26.7250   38.4260 H   0  0  0  0  0  0  0  0  0  0  0  0
   39.7110   25.7590   40.0680 H   0  0  0  0  0  0  0  0  0  0  0  0
   38.4480   26.6300   42.5290 N   0  0  0  0  0  0  0  0  0  0  0  0
   37.1290   26.4200   41.9990 C   0  0  0  0  0  3  0  0  0  0  0  0
   36.6290   27.3480   41.6520 H   0  0  0  0  0  0  0  0  0  0  0  0
   36.2910   25.8370   43.1050 C   0  0  0  0  0  3  0  0  0  0  0  0
   35.2770   25.6650   42.6770 H   0  0  0  0  0  0  0  0  0  0  0  0
   36.7970   24.5970   43.6070 N   0  0  0  0  0  0  0  0  0  0  0  0
   36.3680   23.7590   43.1350 H   0  0  0  0  0  0  0  0  0  0  0  0
   38.2040   24.4710   43.7180 C   0  0  0  0  0  2  0  0  0  0  0  0
   39.0330   25.6610   43.4180 C   0  0  0  0  0  2  0  0  0  0  0  0
   39.6120   30.6000   45.0750 C   0  0  0  0  0  0  0  0  0  0  0  0
   39.8900   29.5460   45.3110 H   0  0  0  0  0  0  0  0  0  0  0  0
   38.5340   30.6280   44.7870 H   0  0  0  0  0  0  0  0  0  0  0  0
   38.7370   32.0810   46.9250 C   0  0  1  0  0  0  0  0  0  0  0  0
   39.8000   32.9180   46.2480 C   0  0  0  0  0  0  0  0  0  0  0  0
   39.8890   31.4450   46.2620 C   0  0  2  0  0  0  0  0  0  0  0  0
   37.7280   32.1280   46.4410 H   0  0  0  0  0  0  0  0  0  0  0  0
   39.5480   33.3960   45.2680 H   0  0  0  0  0  0  0  0  0  0  0  0
   40.4970   33.5310   46.8460 H   0  0  0  0  0  0  0  0  0  0  0  0
   40.6760   31.0370   46.9520 H   0  0  0  0  0  0  0  0  0  0  0  0
   38.6500   32.2310   48.4150 C   0  0  0  0  0  0  0  0  0  0  0  0
   39.6600   32.3390   48.8800 H   0  0  0  0  0  0  0  0  0  0  0  0
   38.1000   33.1830   48.6690 H   0  0  0  0  0  0  0  0  0  0  0  0
   37.3340   29.8460   50.9800 C   0  0  0  0  0  0  0  0  0  0  0  0
   38.0710   30.9010   50.3580 C   0  0  0  0  0  0  0  0  0  0  0  0
   37.8770   31.1380   49.0290 C   0  0  0  0  0  0  0  0  0  0  0  0
   37.0000   30.3650   48.3720 N   0  0  0  0  0  0  0  0  0  0  0  0
   36.3090   29.3760   48.9530 C   0  0  0  0  0  0  0  0  0  0  0  0
   36.4870   29.1320   50.2520 N   0  0  0  0  0  0  0  0  0  0  0  0
   37.4820   29.6490   52.0410 H   0  0  0  0  0  0  0  0  0  0  0  0
   38.7280   31.4250   51.0090 H   0  0  0  0  0  0  0  0  0  0  0  0
   35.6570   28.8740   48.2550 H   0  0  0  0  0  0  0  0  0  0  0  0
  1  2  1  0  0  0  0
  1 27  1  0  0  0  0
  3  1  1  0  0  0  0
  4 13  1  0  0  0  0
  5  4  1  0  0  0  0
  5  1  1  0  0  0  0
  6  5  2  0  0  0  0
  7 11  2  0  0  0  0
  7  6  1  0  0  0  0
  8  7  1  0  0  0  0
  9  8  1  0  0  0  0
  9 10  2  0  0  0  0
 10 11  1  0  0  0  0
 11 12  1  0  0  0  0
 12 18  1  0  0  0  0
 12  4  2  0  0  0  0
 14  6  1  0  0  0  0
 15  8  1  0  0  0  0
 16  9  1  0  0  0  0
 17 10  1  0  0  0  0
 18 26  1  0  0  0  0
 19 18  1  0  0  0  0
 19 21  1  0  0  0  0
 20 19  1  0  0  0  0
 21 23  1  0  0  0  0
 22 21  1  0  0  0  0
 23 25  1  0  0  0  0
 24 23  1  0  0  0  0
 26 25  1  0  0  0  0
 27 28  1  0  0  0  0
 27 32  1  0  0  0  0
 29 27  1  0  0  0  0
 30 33  1  6  0  0  0
 30 37  1  0  0  0  0
 31 32  1  0  0  0  0
 31 35  1  0  0  0  0
 31 30  1  0  0  0  0
 32 30  1  0  0  0  0
 32 36  1  1  0  0  0
 34 31  1  0  0  0  0
 37 39  1  0  0  0  0
 37 38  1  0  0  0  0
 37 42  1  0  0  0  0
 40 46  1  0  0  0  0
 41 40  1  0  0  0  0
 41 47  1  0  0  0  0
 42 41  2  0  0  0  0
 43 44  2  0  0  0  0
 43 42  1  0  0  0  0
 44 45  1  0  0  0  0
 45 40  2  0  0  0  0
 48 44  1  0  0  0  0
M  END
>  <minimizedAffinity>
-5.98364115

>  <minimizedRMSD>
0.117476836

$$$$
