REMARK  Name = 
REMARK  3 active torsions:
REMARK  status: ('A' for Active; 'I' for Inactive)
REMARK    1  A    between atoms: C_1  and  C_9
REMARK    2  A    between atoms: C_6  and  C_13
REMARK    3  A    between atoms: C_18  and  N_36
REMARK                            x       y       z     vdW  Elec       q    Type
REMARK                         _______ _______ _______ _____ _____    ______ ____
ROOT
ATOM      1  C   UNL     1      38.539  31.247  46.482  0.00  0.00    +0.000 C 
ATOM      2  C   UNL     1      37.420  31.687  45.511  0.00  0.00    +0.000 C 
ATOM      3  C   UNL     1      36.980  30.378  44.840  0.00  0.00    +0.000 C 
ATOM      4  C   UNL     1      38.081  29.954  43.934  0.00  0.00    +0.000 C 
ATOM      5  C   UNL     1      39.364  29.757  44.709  0.00  0.00    +0.000 C 
ATOM      6  C   UNL     1      39.698  30.933  45.582  0.00  0.00    +0.000 C 
ATOM      7  H   UNL     1      38.064  30.400  46.995  0.00  0.00    +0.000 HD
ATOM      8  H   UNL     1      37.895  32.292  44.713  0.00  0.00    +0.000 HD
ATOM      9  H   UNL     1      36.619  32.190  46.048  0.00  0.00    +0.000 HD
ATOM     10  H   UNL     1      36.866  29.638  45.671  0.00  0.00    +0.000 HD
ATOM     11  H   UNL     1      36.050  30.595  44.318  0.00  0.00    +0.000 HD
ATOM     12  H   UNL     1      37.892  29.021  43.390  0.00  0.00    +0.000 HD
ATOM     13  H   UNL     1      38.248  30.802  43.217  0.00  0.00    +0.000 HD
ATOM     14  H   UNL     1      39.322  28.791  45.204  0.00  0.00    +0.000 HD
ATOM     15  H   UNL     1      40.164  29.691  43.921  0.00  0.00    +0.000 HD
ATOM     16  H   UNL     1      39.850  31.800  44.903  0.00  0.00    +0.000 HD
ENDROOT
BRANCH   1  22
ATOM     17  C   UNL     1      38.418  32.272  48.770  0.00  0.00    +0.000 A 
ATOM     18  C   UNL     1      38.796  33.272  49.660  0.00  0.00    +0.000 A 
ATOM     19  C   UNL     1      39.628  34.317  49.227  0.00  0.00    +0.000 A 
ATOM     20  C   UNL     1      40.041  34.305  47.916  0.00  0.00    +0.000 A 
ATOM     21  C   UNL     1      39.675  33.327  47.029  0.00  0.00    +0.000 A 
ATOM     22  C   UNL     1      38.839  32.279  47.473  0.00  0.00    +0.000 A 
ATOM     23  H   UNL     1      38.467  33.275  50.694  0.00  0.00    +0.000 HD
ATOM     24  H   UNL     1      39.916  35.085  49.922  0.00  0.00    +0.000 HD
ATOM     25  H   UNL     1      40.687  35.142  47.630  0.00  0.00    +0.000 HD
ATOM     26  H   UNL     1      40.071  33.445  46.036  0.00  0.00    +0.000 HD
BRANCH  17  29
ATOM     27  C   UNL     1      37.017  29.283  50.602  0.00  0.00    +0.000 A 
ATOM     28  C   UNL     1      37.969  30.201  50.121  0.00  0.00    +0.000 A 
ATOM     29  C   UNL     1      37.541  31.259  49.320  0.00  0.00    +0.000 A 
ATOM     30  N   UNL     1      36.220  31.321  49.064  0.00  0.00    +0.000 NA
ATOM     31  C   UNL     1      35.315  30.441  49.527  0.00  0.00    +0.000 A 
ATOM     32  N   UNL     1      35.714  29.434  50.288  0.00  0.00    +0.000 NA
ATOM     33  H   UNL     1      37.499  28.510  51.215  0.00  0.00    +0.000 HD
ATOM     34  H   UNL     1      39.028  30.157  50.322  0.00  0.00    +0.000 HD
ATOM     35  H   UNL     1      34.277  30.533  49.296  0.00  0.00    +0.000 HD
ENDBRANCH  17  29
ENDBRANCH   1  22
BRANCH   6  36
ATOM     36  N   UNL     1      40.885  30.713  46.306  0.00  0.00    +0.000 NA
ATOM     37  C   UNL     1      41.846  31.768  46.283  0.00  0.00    +0.000 C 
ATOM     38  H   UNL     1      41.355  32.706  45.973  0.00  0.00    +0.000 HD
ATOM     39  C   UNL     1      43.040  31.525  45.448  0.00  0.00    +0.000 C 
ATOM     40  H   UNL     1      42.879  31.917  44.422  0.00  0.00    +0.000 HD
ATOM     41  N   UNL     1      43.536  30.205  45.478  0.00  0.00    +0.000 NA
ATOM     42  H   UNL     1      44.053  29.893  44.660  0.00  0.00    +0.000 HD
ATOM     43  C   UNL     1      42.867  29.248  46.272  0.00  0.00    +0.000 C 
ATOM     44  C   UNL     1      41.395  29.413  46.436  0.00  0.00    +0.000 C 
ENDBRANCH   6  36
TORSDOF 3
