REMARK  Name = 
REMARK  4 active torsions:
REMARK  status: ('A' for Active; 'I' for Inactive)
REMARK    1  A    between atoms: C_1  and  O_12
REMARK    2  A    between atoms: C_2  and  C_8
REMARK    3  A    between atoms: O_12  and  C_15
REMARK    4  A    between atoms: C_19  and  N_32
REMARK                            x       y       z     vdW  Elec       q    Type
REMARK                         _______ _______ _______ _____ _____    ______ ____
ROOT
ATOM      1  C   UNL     1      38.962  32.368  47.793  0.00  0.00    +0.000 C 
ATOM      2  C   UNL     1      38.008  32.744  48.976  0.00  0.00    +0.000 C 
ATOM      3  C   UNL     1      38.906  33.537  49.801  0.00  0.00    +0.000 C 
ATOM      4  O   UNL     1      39.709  34.284  48.953  0.00  0.00    +0.000 OA
ATOM      5  C   UNL     1      39.623  33.770  47.700  0.00  0.00    +0.000 C 
ATOM      6  H   UNL     1      39.735  31.678  48.120  0.00  0.00    +0.000 HD
ATOM      7  H   UNL     1      37.230  33.393  48.493  0.00  0.00    +0.000 HD
ATOM      8  H   UNL     1      39.594  32.896  50.386  0.00  0.00    +0.000 HD
ATOM      9  H   UNL     1      38.401  34.185  50.569  0.00  0.00    +0.000 HD
ATOM     10  H   UNL     1      40.564  33.718  47.139  0.00  0.00    +0.000 HD
ATOM     11  H   UNL     1      38.896  34.379  47.113  0.00  0.00    +0.000 HD
ENDROOT
BRANCH   2  14
ATOM     12  C   UNL     1      37.362  29.697  51.087  0.00  0.00    +0.000 A 
ATOM     13  C   UNL     1      38.026  30.834  50.556  0.00  0.00    +0.000 A 
ATOM     14  C   UNL     1      37.373  31.587  49.554  0.00  0.00    +0.000 A 
ATOM     15  N   UNL     1      36.125  31.189  49.134  0.00  0.00    +0.000 NA
ATOM     16  C   UNL     1      35.532  30.110  49.659  0.00  0.00    +0.000 A 
ATOM     17  N   UNL     1      36.128  29.360  50.625  0.00  0.00    +0.000 NA
ATOM     18  H   UNL     1      37.883  29.138  51.852  0.00  0.00    +0.000 HD
ATOM     19  H   UNL     1      39.000  31.062  50.950  0.00  0.00    +0.000 HD
ATOM     20  H   UNL     1      34.554  29.867  49.273  0.00  0.00    +0.000 HD
ENDBRANCH   2  14
BRANCH   1  21
ATOM     21  O   UNL     1      38.279  32.130  46.644  0.00  0.00    +0.000 OA
BRANCH  21  24
ATOM     22 CL   UNL     1      40.949  31.259  45.374  0.00  0.00    +0.000 Cl
ATOM     23  C   UNL     1      39.369  30.686  44.903  0.00  0.00    +0.000 A 
ATOM     24  C   UNL     1      38.326  31.240  45.633  0.00  0.00    +0.000 A 
ATOM     25  C   UNL     1      37.064  30.804  45.266  0.00  0.00    +0.000 A 
ATOM     26  C   UNL     1      36.844  29.888  44.252  0.00  0.00    +0.000 A 
ATOM     27  C   UNL     1      37.938  29.381  43.570  0.00  0.00    +0.000 A 
ATOM     28  C   UNL     1      39.221  29.781  43.895  0.00  0.00    +0.000 A 
ATOM     29  H   UNL     1      36.142  31.157  45.757  0.00  0.00    +0.000 HD
ATOM     30  H   UNL     1      35.824  29.577  44.001  0.00  0.00    +0.000 HD
ATOM     31  H   UNL     1      37.653  28.673  42.805  0.00  0.00    +0.000 HD
BRANCH  28  32
ATOM     32  N   UNL     1      40.300  29.209  43.173  0.00  0.00    +0.000 N 
ATOM     33  C   UNL     1      41.623  29.781  43.073  0.00  0.00    +0.000 C 
ATOM     34  H   UNL     1      41.801  30.635  43.759  0.00  0.00    +0.000 HD
ATOM     35  C   UNL     1      41.785  30.200  41.629  0.00  0.00    +0.000 C 
ATOM     36  H   UNL     1      42.655  30.873  41.494  0.00  0.00    +0.000 HD
ATOM     37  N   UNL     1      41.874  29.025  40.821  0.00  0.00    +0.000 NA
ATOM     38  H   UNL     1      42.804  28.907  40.406  0.00  0.00    +0.000 HD
ATOM     39  C   UNL     1      41.432  27.838  41.465  0.00  0.00    +0.000 C 
ATOM     40  C   UNL     1      40.267  28.003  42.412  0.00  0.00    +0.000 C 
ENDBRANCH  28  32
ENDBRANCH  21  24
ENDBRANCH   1  21
TORSDOF 4
