
 OpenBabel03262520493D

 48 52  0  0  1  0  0  0  0  0999 V2000
   40.4290   31.0060   43.8360 C   0  0  0  0  0  0  0  0  0  0  0  0
   41.4610   31.2700   44.0910 H   0  0  0  0  0  0  0  0  0  0  0  0
   39.9190   31.8500   43.3000 H   0  0  0  0  0  0  0  0  0  0  0  0
   39.4490   28.8330   43.1600 C   0  0  0  0  0  0  0  0  0  0  0  0
   40.3490   29.8480   42.8920 C   0  0  0  0  0  0  0  0  0  0  0  0
   41.1420   29.7500   41.7550 C   0  0  0  0  0  0  0  0  0  0  0  0
   41.0450   28.6670   40.9010 C   0  0  0  0  0  0  0  0  0  0  0  0
   41.7000   28.3750   39.7640 N   0  0  0  0  0  0  0  0  0  0  0  0
   41.2080   27.1950   39.3390 C   0  0  0  0  0  0  0  0  0  0  0  0
   40.2390   26.7050   40.1790 C   0  0  0  0  0  0  0  0  0  0  0  0
   40.1440   27.6660   41.1840 C   0  0  0  0  0  0  0  0  0  0  0  0
   39.3620   27.7620   42.3050 C   0  0  0  0  0  0  0  0  0  0  0  0
   38.7660   28.7670   43.9920 H   0  0  0  0  0  0  0  0  0  0  0  0
   41.8420   30.5400   41.5470 H   0  0  0  0  0  0  0  0  0  0  0  0
   42.4380   28.9720   39.3280 H   0  0  0  0  0  0  0  0  0  0  0  0
   41.5820   26.7410   38.4280 H   0  0  0  0  0  0  0  0  0  0  0  0
   39.6970   25.7920   40.0660 H   0  0  0  0  0  0  0  0  0  0  0  0
   38.4440   26.6710   42.5290 N   0  0  0  0  0  0  0  0  0  0  0  0
   37.1200   26.4810   42.0000 C   0  0  0  0  0  3  0  0  0  0  0  0
   36.6330   27.4170   41.6580 H   0  0  0  0  0  0  0  0  0  0  0  0
   36.2770   25.9030   43.1040 C   0  0  0  0  0  3  0  0  0  0  0  0
   35.2590   25.7470   42.6760 H   0  0  0  0  0  0  0  0  0  0  0  0
   36.7660   24.6550   43.5990 N   0  0  0  0  0  0  0  0  0  0  0  0
   36.3270   23.8250   43.1240 H   0  0  0  0  0  0  0  0  0  0  0  0
   38.1720   24.5090   43.7080 C   0  0  0  0  0  2  0  0  0  0  0  0
   39.0160   25.6890   43.4130 C   0  0  0  0  0  2  0  0  0  0  0  0
   39.6140   30.6360   45.0700 C   0  0  0  0  0  0  0  0  0  0  0  0
   39.8620   29.5780   45.3210 H   0  0  0  0  0  0  0  0  0  0  0  0
   38.5470   30.6850   44.7480 H   0  0  0  0  0  0  0  0  0  0  0  0
   38.7230   32.1920   46.8480 C   0  0  1  0  0  0  0  0  0  0  0  0
   39.8680   32.9580   46.2230 C   0  0  0  0  0  0  0  0  0  0  0  0
   39.8720   31.4820   46.2600 C   0  0  2  0  0  0  0  0  0  0  0  0
   37.7470   32.2880   46.3080 H   0  0  0  0  0  0  0  0  0  0  0  0
   39.6990   33.4340   45.2240 H   0  0  0  0  0  0  0  0  0  0  0  0
   40.5640   33.5400   46.8510 H   0  0  0  0  0  0  0  0  0  0  0  0
   40.5950   31.0410   46.9980 H   0  0  0  0  0  0  0  0  0  0  0  0
   38.5620   32.3700   48.3290 C   0  0  0  0  0  0  0  0  0  0  0  0
   39.5400   32.5610   48.8330 H   0  0  0  0  0  0  0  0  0  0  0  0
   37.9370   33.2870   48.5360 H   0  0  0  0  0  0  0  0  0  0  0  0
   37.4410   29.8490   50.8560 C   0  0  0  0  0  0  0  0  0  0  0  0
   38.1260   30.9410   50.2390 C   0  0  0  0  0  0  0  0  0  0  0  0
   37.8400   31.2400   48.9390 C   0  0  0  0  0  0  0  0  0  0  0  0
   36.9280   30.4900   48.3050 N   0  0  0  0  0  0  0  0  0  0  0  0
   36.2850   29.4670   48.8810 C   0  0  0  0  0  0  0  0  0  0  0  0
   36.5530   29.1620   50.1520 N   0  0  0  0  0  0  0  0  0  0  0  0
   37.6610   29.6020   51.8940 H   0  0  0  0  0  0  0  0  0  0  0  0
   38.8200   31.4400   50.8690 H   0  0  0  0  0  0  0  0  0  0  0  0
   35.5920   28.9920   48.2050 H   0  0  0  0  0  0  0  0  0  0  0  0
  1  2  1  0  0  0  0
  1 27  1  0  0  0  0
  3  1  1  0  0  0  0
  4 13  1  0  0  0  0
  5  4  1  0  0  0  0
  5  1  1  0  0  0  0
  6  5  2  0  0  0  0
  7 11  2  0  0  0  0
  7  6  1  0  0  0  0
  8  7  1  0  0  0  0
  9  8  1  0  0  0  0
  9 10  2  0  0  0  0
 10 11  1  0  0  0  0
 11 12  1  0  0  0  0
 12 18  1  0  0  0  0
 12  4  2  0  0  0  0
 14  6  1  0  0  0  0
 15  8  1  0  0  0  0
 16  9  1  0  0  0  0
 17 10  1  0  0  0  0
 18 26  1  0  0  0  0
 19 18  1  0  0  0  0
 19 21  1  0  0  0  0
 20 19  1  0  0  0  0
 21 23  1  0  0  0  0
 22 21  1  0  0  0  0
 23 25  1  0  0  0  0
 24 23  1  0  0  0  0
 26 25  1  0  0  0  0
 27 28  1  0  0  0  0
 27 32  1  0  0  0  0
 29 27  1  0  0  0  0
 30 33  1  6  0  0  0
 30 37  1  0  0  0  0
 31 32  1  0  0  0  0
 31 30  1  0  0  0  0
 31 35  1  0  0  0  0
 32 30  1  0  0  0  0
 32 36  1  1  0  0  0
 34 31  1  0  0  0  0
 37 39  1  0  0  0  0
 37 38  1  0  0  0  0
 37 42  1  0  0  0  0
 40 46  1  0  0  0  0
 41 40  1  0  0  0  0
 41 47  1  0  0  0  0
 42 41  2  0  0  0  0
 43 44  2  0  0  0  0
 43 42  1  0  0  0  0
 44 45  1  0  0  0  0
 45 40  2  0  0  0  0
 48 44  1  0  0  0  0
M  END
>  <minimizedAffinity>
-5.9681735

>  <minimizedRMSD>
0.473572493

$$$$
