
     RDKit          3D

 36 38  0  0  0  0  0  0  0  0999 V2000
   37.2570   30.1185   51.4762 C   0  0  0  0  0  0  0  0  0  0  0  0
   38.0135   30.8125   50.5013 C   0  0  0  0  0  0  0  0  0  0  0  0
   37.6677   30.6132   49.1613 C   0  0  0  0  0  0  0  0  0  0  0  0
   36.6287   29.7684   48.8598 N   0  0  0  0  0  0  0  0  0  0  0  0
   35.9374   29.1283   49.8401 C   0  0  0  0  0  0  0  0  0  0  0  0
   36.2541   29.3056   51.1467 N   0  0  0  0  0  0  0  0  0  0  0  0
   34.8968   28.2953   49.3906 N   0  0  0  0  0  0  0  0  0  0  0  0
   38.3388   31.2461   48.0490 C   0  0  0  0  0  0  0  0  0  0  0  0
   38.8182   32.5120   48.2357 C   0  0  0  0  0  0  0  0  0  0  0  0
   39.4794   33.1987   47.2085 C   0  0  0  0  0  0  0  0  0  0  0  0
   39.6421   32.5517   45.9662 C   0  0  0  0  0  0  0  0  0  0  0  0
   39.1564   31.2458   45.7486 C   0  0  0  0  0  0  0  0  0  0  0  0
   38.5299   30.6800   46.8250 C   0  0  0  0  0  0  0  0  0  0  0  0
   37.5439   30.2892   52.5066 H   0  0  0  0  0  0  0  0  0  0  0  0
   38.8342   31.4809   50.7237 H   0  0  0  0  0  0  0  0  0  0  0  0
   34.8905   27.4681   48.7507 H   0  0  0  0  0  0  0  0  0  0  0  0
   33.9559   28.5554   49.7694 H   0  0  0  0  0  0  0  0  0  0  0  0
   38.7246   33.0485   49.1496 H   0  0  0  0  0  0  0  0  0  0  0  0
   39.8726   34.2009   47.3182 H   0  0  0  0  0  0  0  0  0  0  0  0
   40.1605   33.1118   45.1870 H   0  0  0  0  0  0  0  0  0  0  0  0
   39.3022   30.7996   44.7971 H   0  0  0  0  0  0  0  0  0  0  0  0
   38.0440   29.3580   46.5933 N   0  0  0  0  0  0  0  0  0  0  0  0
   37.3014   28.7643   45.4775 C   0  0  1  0  0  0  0  0  0  0  0  0
   37.3379   29.3970   44.5887 H   0  0  0  0  0  0  0  0  0  0  0  0
   35.8678   28.6281   46.0074 C   0  0  2  0  0  0  0  0  0  0  0  0
   35.4140   27.7886   45.4443 H   0  0  0  0  0  0  0  0  0  0  0  0
   35.8726   28.4192   47.4344 N   0  0  0  0  0  0  0  0  0  0  0  0
   35.0103   27.8890   47.7183 H   0  0  0  0  0  0  0  0  0  0  0  0
   37.0187   27.6317   47.8693 C   0  0  0  0  0  0  0  0  0  0  0  0
   38.3111   28.3607   47.6413 C   0  0  0  0  0  0  0  0  0  0  0  0
   37.7237   27.7801   45.2243 H   0  0  0  0  0  0  0  0  0  0  0  0
   35.3538   29.5989   45.7878 H   0  0  0  0  0  0  0  0  0  0  0  0
   37.0242   26.6183   47.3762 H   0  0  0  0  0  0  0  0  0  0  0  0
   36.8604   27.4244   48.9550 H   0  0  0  0  0  0  0  0  0  0  0  0
   38.7691   28.7937   48.5394 H   0  0  0  0  0  0  0  0  0  0  0  0
   39.0444   27.6129   47.2377 H   0  0  0  0  0  0  0  0  0  0  0  0
  2  1  2  0
  3  2  1  0
  4  3  2  0
  4  5  1  0
  5  6  2  0
  6  1  1  0
  7  5  1  0
  8  9  2  0
  8  3  1  0
 10  9  1  0
 11 10  2  0
 12 11  1  0
 12 13  2  0
 13  8  1  0
  1 14  1  0
  2 15  1  0
  7 16  1  0
  7 17  1  0
  9 18  1  0
 10 19  1  0
 11 20  1  0
 12 21  1  0
 22 23  1  0
 23 24  1  6
 23 25  1  0
 25 26  1  6
 25 27  1  0
 27 28  1  0
 27 29  1  0
 29 30  1  0
 30 22  1  0
 23 31  1  0
 25 32  1  0
 29 33  1  0
 29 34  1  0
 30 35  1  0
 30 36  1  0
 13 22  1  0
M  ISO  8  14  14  15  14  18  14  19  14  20  14  21  14  24   8  26   8
M  ISO  1  28   5
M  END
>  <DihAtoms>  (1) 
11,12,21,22

>  <DihDeg>  (1) 
119.70619629449543

$$$$
