REMARK  Name = 
REMARK  2 active torsions:
REMARK  status: ('A' for Active; 'I' for Inactive)
REMARK    1  A    between atoms: C_3  and  C_8
REMARK    2  A    between atoms: C_13  and  N_22
REMARK                            x       y       z     vdW  Elec       q    Type
REMARK                         _______ _______ _______ _____ _____    ______ ____
ROOT
ATOM      1  C   UNL     1      38.339  31.246  48.049  0.00  0.00    +0.000 A 
ATOM      2  C   UNL     1      38.818  32.512  48.236  0.00  0.00    +0.000 A 
ATOM      3  C   UNL     1      39.479  33.199  47.209  0.00  0.00    +0.000 A 
ATOM      4  C   UNL     1      39.642  32.552  45.966  0.00  0.00    +0.000 A 
ATOM      5  C   UNL     1      39.156  31.246  45.749  0.00  0.00    +0.000 A 
ATOM      6  C   UNL     1      38.530  30.680  46.825  0.00  0.00    +0.000 A 
ATOM      7  H   UNL     1      38.725  33.048  49.150  0.00  0.00    +0.000 HD
ATOM      8  H   UNL     1      39.873  34.201  47.318  0.00  0.00    +0.000 HD
ATOM      9  H   UNL     1      40.160  33.112  45.187  0.00  0.00    +0.000 HD
ATOM     10  H   UNL     1      39.302  30.800  44.797  0.00  0.00    +0.000 HD
ENDROOT
BRANCH   1  13
ATOM     11  C   UNL     1      37.257  30.119  51.476  0.00  0.00    +0.000 A 
ATOM     12  C   UNL     1      38.014  30.812  50.501  0.00  0.00    +0.000 A 
ATOM     13  C   UNL     1      37.668  30.613  49.161  0.00  0.00    +0.000 A 
ATOM     14  N   UNL     1      36.629  29.768  48.860  0.00  0.00    +0.000 NA
ATOM     15  C   UNL     1      35.937  29.128  49.840  0.00  0.00    +0.000 A 
ATOM     16  N   UNL     1      36.254  29.306  51.147  0.00  0.00    +0.000 NA
ATOM     17  N   UNL     1      34.897  28.295  49.391  0.00  0.00    +0.000 N 
ATOM     18  H   UNL     1      37.544  30.289  52.507  0.00  0.00    +0.000 HD
ATOM     19  H   UNL     1      38.834  31.481  50.724  0.00  0.00    +0.000 HD
ATOM     20  H   UNL     1      34.891  27.468  48.751  0.00  0.00    +0.000 HD
ATOM     21  H   UNL     1      33.956  28.555  49.769  0.00  0.00    +0.000 HD
ENDBRANCH   1  13
BRANCH   6  22
ATOM     22  N   UNL     1      38.044  29.358  46.593  0.00  0.00    +0.000 N 
ATOM     23  C   UNL     1      37.825  28.592  45.363  0.00  0.00    +0.000 C 
ATOM     24  H   UNL     1      38.340  29.042  44.512  0.00  0.00    +0.000 HD
ATOM     25  C   UNL     1      36.303  28.615  45.169  0.00  0.00    +0.000 C 
ATOM     26  H   UNL     1      36.055  27.702  44.592  0.00  0.00    +0.000 HD
ATOM     27  N   UNL     1      35.631  28.682  46.444  0.00  0.00    +0.000 NA
ATOM     28  H   UNL     1      34.676  28.249  46.365  0.00  0.00    +0.000 HD
ATOM     29  C   UNL     1      36.346  27.947  47.480  0.00  0.00    +0.000 C 
ATOM     30  C   UNL     1      37.679  28.569  47.780  0.00  0.00    +0.000 C 
ENDBRANCH   6  22
TORSDOF 2
