
     RDKit          3D

 50 53  0  0  0  0  0  0  0  0999 V2000
   38.4178   32.2724   48.7696 C   0  0  0  0  0  0  0  0  0  0  0  0
   38.7964   33.2724   49.6596 C   0  0  0  0  0  0  0  0  0  0  0  0
   39.6282   34.3168   49.2272 C   0  0  0  0  0  0  0  0  0  0  0  0
   40.0406   34.3053   47.9160 C   0  0  0  0  0  0  0  0  0  0  0  0
   39.6755   33.3267   47.0294 C   0  0  0  0  0  0  0  0  0  0  0  0
   38.8389   32.2795   47.4727 C   0  0  0  0  0  0  0  0  0  0  0  0
   37.0168   29.2833   50.6021 C   0  0  0  0  0  0  0  0  0  0  0  0
   37.9689   30.2009   50.1207 C   0  0  0  0  0  0  0  0  0  0  0  0
   37.5413   31.2592   49.3199 C   0  0  0  0  0  0  0  0  0  0  0  0
   36.2198   31.3207   49.0640 N   0  0  0  0  0  0  0  0  0  0  0  0
   35.3145   30.4408   49.5269 C   0  0  0  0  0  0  0  0  0  0  0  0
   35.7143   29.4343   50.2877 N   0  0  0  0  0  0  0  0  0  0  0  0
   38.5391   31.2468   46.4821 C   0  0  1  0  0  0  0  0  0  0  0  0
   37.4202   31.6872   45.5108 C   0  0  0  0  0  0  0  0  0  0  0  0
   36.9803   30.3784   44.8402 C   0  0  0  0  0  0  0  0  0  0  0  0
   38.0809   29.9543   43.9335 C   0  0  0  0  0  0  0  0  0  0  0  0
   39.3635   29.7567   44.7089 C   0  0  0  0  0  0  0  0  0  0  0  0
   39.6981   30.9335   45.5818 C   0  0  2  0  0  0  0  0  0  0  0  0
   38.4666   33.2750   50.6944 H   0  0  0  0  0  0  0  0  0  0  0  0
   39.9155   35.0847   49.9215 H   0  0  0  0  0  0  0  0  0  0  0  0
   40.6873   35.1421   47.6301 H   0  0  0  0  0  0  0  0  0  0  0  0
   40.0706   33.4448   46.0360 H   0  0  0  0  0  0  0  0  0  0  0  0
   37.4987   28.5096   51.2150 H   0  0  0  0  0  0  0  0  0  0  0  0
   39.0282   30.1568   50.3219 H   0  0  0  0  0  0  0  0  0  0  0  0
   34.2771   30.5327   49.2960 H   0  0  0  0  0  0  0  0  0  0  0  0
   38.0642   30.4002   46.9955 H   0  0  0  0  0  0  0  0  0  0  0  0
   37.8952   32.2924   44.7132 H   0  0  0  0  0  0  0  0  0  0  0  0
   36.6191   32.1898   46.0480 H   0  0  0  0  0  0  0  0  0  0  0  0
   36.8659   29.6383   45.6709 H   0  0  0  0  0  0  0  0  0  0  0  0
   36.0501   30.5946   44.3181 H   0  0  0  0  0  0  0  0  0  0  0  0
   37.8915   29.0207   43.3899 H   0  0  0  0  0  0  0  0  0  0  0  0
   38.2484   30.8023   43.2168 H   0  0  0  0  0  0  0  0  0  0  0  0
   39.3224   28.7906   45.2039 H   0  0  0  0  0  0  0  0  0  0  0  0
   40.1639   29.6914   43.9210 H   0  0  0  0  0  0  0  0  0  0  0  0
   39.8496   31.7999   44.9030 H   0  0  0  0  0  0  0  0  0  0  0  0
   40.8850   30.7129   46.3062 N   0  0  0  0  0  0  0  0  0  0  0  0
   41.6920   31.8619   46.5644 C   0  0  1  0  0  0  0  0  0  0  0  0
   41.0848   32.7742   46.4364 H   0  0  0  0  0  0  0  0  0  0  0  0
   42.9291   31.9648   45.7633 C   0  0  1  0  0  0  0  0  0  0  0  0
   42.7417   32.5495   44.8389 H   0  0  0  0  0  0  0  0  0  0  0  0
   43.6010   30.7458   45.5356 N   0  0  0  0  0  0  0  0  0  0  0  0
   44.1774   30.6913   44.6996 H   0  0  0  0  0  0  0  0  0  0  0  0
   43.0500   29.5590   46.0666 C   0  0  0  0  0  0  0  0  0  0  0  0
   41.5656   29.4930   46.1812 C   0  0  0  0  0  0  0  0  0  0  0  0
   41.9730   31.8228   47.6479 H   0  0  0  0  0  0  0  0  0  0  0  0
   43.6338   32.6256   46.3507 H   0  0  0  0  0  0  0  0  0  0  0  0
   43.3958   28.7181   45.4246 H   0  0  0  0  0  0  0  0  0  0  0  0
   43.5259   29.3942   47.0573 H   0  0  0  0  0  0  0  0  0  0  0  0
   41.3220   28.9008   47.1083 H   0  0  0  0  0  0  0  0  0  0  0  0
   41.1469   28.8940   45.3481 H   0  0  0  0  0  0  0  0  0  0  0  0
  1  9  1  0
  1  2  2  0
  3  2  1  0
  4  3  2  0
  5  6  2  0
  5  4  1  0
  6  1  1  0
  8  7  2  0
  9  8  1  0
 10  9  2  0
 10 11  1  0
 11 12  2  0
 12  7  1  0
 13  6  1  0
 14 13  1  0
 15 14  1  0
 16 17  1  0
 16 15  1  0
 17 18  1  0
 18 13  1  0
  2 19  1  0
  3 20  1  0
  4 21  1  0
  5 22  1  0
  7 23  1  0
  8 24  1  0
 11 25  1  0
 13 26  1  1
 14 27  1  0
 14 28  1  0
 15 29  1  0
 15 30  1  0
 16 31  1  0
 16 32  1  0
 17 33  1  0
 17 34  1  0
 18 35  1  6
 36 37  1  0
 37 38  1  1
 37 39  1  0
 39 40  1  6
 39 41  1  0
 41 42  1  0
 41 43  1  0
 43 44  1  0
 44 36  1  0
 37 45  1  0
 39 46  1  0
 43 47  1  0
 43 48  1  0
 44 49  1  0
 44 50  1  0
 18 36  1  0
M  ISO  8  19  14  20  14  21  14  22  14  23  14  24  14  25  14  26  13
M  ISO  8  27  13  28  13  29  13  30  13  31  13  32  13  33  13  34  13
M  ISO  4  35  13  38   8  40   8  42   5
M  END
>  <DihAtoms>  (1) 
16,17,35,36

>  <DihDeg>  (1) 
56.94539013333218

$$$$
