
     RDKit          3D

 46 49  0  0  0  0  0  0  0  0999 V2000
   38.9619   32.3677   47.7928 C   0  0  2  0  0  0  0  0  0  0  0  0
   38.0082   32.7444   48.9756 C   0  0  2  0  0  0  0  0  0  0  0  0
   38.9056   33.5374   49.8013 C   0  0  0  0  0  0  0  0  0  0  0  0
   39.7090   34.2840   48.9535 O   0  0  0  0  0  0  0  0  0  0  0  0
   39.6230   33.7704   47.6997 C   0  0  0  0  0  0  0  0  0  0  0  0
   37.3621   29.6965   51.0868 C   0  0  0  0  0  0  0  0  0  0  0  0
   38.0256   30.8345   50.5561 C   0  0  0  0  0  0  0  0  0  0  0  0
   37.3730   31.5872   49.5542 C   0  0  0  0  0  0  0  0  0  0  0  0
   36.1247   31.1885   49.1342 N   0  0  0  0  0  0  0  0  0  0  0  0
   35.5323   30.1098   49.6589 C   0  0  0  0  0  0  0  0  0  0  0  0
   36.1282   29.3596   50.6249 N   0  0  0  0  0  0  0  0  0  0  0  0
   38.2795   32.1303   46.6440 O   0  0  0  0  0  0  0  0  0  0  0  0
   40.9487   31.2591   45.3739 Cl  0  0  0  0  0  0  0  0  0  0  0  0
   39.3689   30.6861   44.9034 C   0  0  0  0  0  0  0  0  0  0  0  0
   38.3259   31.2396   45.6327 C   0  0  0  0  0  0  0  0  0  0  0  0
   37.0637   30.8043   45.2659 C   0  0  0  0  0  0  0  0  0  0  0  0
   36.8441   29.8880   44.2517 C   0  0  0  0  0  0  0  0  0  0  0  0
   37.9382   29.3806   43.5700 C   0  0  0  0  0  0  0  0  0  0  0  0
   39.2214   29.7810   43.8954 C   0  0  0  0  0  0  0  0  0  0  0  0
   39.7349   31.6785   48.1205 H   0  0  0  0  0  0  0  0  0  0  0  0
   37.2305   33.3928   48.4926 H   0  0  0  0  0  0  0  0  0  0  0  0
   39.5941   32.8961   50.3862 H   0  0  0  0  0  0  0  0  0  0  0  0
   38.4013   34.1852   50.5689 H   0  0  0  0  0  0  0  0  0  0  0  0
   40.5643   33.7179   47.1387 H   0  0  0  0  0  0  0  0  0  0  0  0
   38.8959   34.3793   47.1126 H   0  0  0  0  0  0  0  0  0  0  0  0
   37.8830   29.1383   51.8520 H   0  0  0  0  0  0  0  0  0  0  0  0
   38.9996   31.0624   50.9498 H   0  0  0  0  0  0  0  0  0  0  0  0
   34.5544   29.8672   49.2730 H   0  0  0  0  0  0  0  0  0  0  0  0
   36.1415   31.1573   45.7571 H   0  0  0  0  0  0  0  0  0  0  0  0
   35.8237   29.5767   44.0006 H   0  0  0  0  0  0  0  0  0  0  0  0
   37.6526   28.6728   42.8048 H   0  0  0  0  0  0  0  0  0  0  0  0
   40.3004   29.2091   43.1729 N   0  0  0  0  0  0  0  0  0  0  0  0
   41.5135   29.9048   42.8111 C   0  0  1  0  0  0  0  0  0  0  0  0
   41.6296   30.8956   43.2972 H   0  0  0  0  0  0  0  0  0  0  0  0
   41.4825   30.0374   41.3052 C   0  0  2  0  0  0  0  0  0  0  0  0
   42.2317   30.7690   40.9441 H   0  0  0  0  0  0  0  0  0  0  0  0
   41.6629   28.7415   40.7308 N   0  0  0  0  0  0  0  0  0  0  0  0
   42.5586   28.6548   40.2387 H   0  0  0  0  0  0  0  0  0  0  0  0
   41.4551   27.6666   41.6350 C   0  0  0  0  0  0  0  0  0  0  0  0
   40.3700   27.8786   42.6639 C   0  0  0  0  0  0  0  0  0  0  0  0
   42.4030   29.2521   43.0550 H   0  0  0  0  0  0  0  0  0  0  0  0
   40.4389   30.3825   41.0612 H   0  0  0  0  0  0  0  0  0  0  0  0
   41.2491   26.7062   41.0697 H   0  0  0  0  0  0  0  0  0  0  0  0
   42.3992   27.4494   42.1735 H   0  0  0  0  0  0  0  0  0  0  0  0
   40.4418   27.0939   43.4337 H   0  0  0  0  0  0  0  0  0  0  0  0
   39.4048   27.6856   42.1061 H   0  0  0  0  0  0  0  0  0  0  0  0
  1  2  1  0
  2  8  1  0
  2  3  1  0
  4  3  1  0
  5  1  1  0
  5  4  1  0
  7  6  2  0
  8  7  1  0
  9  8  2  0
  9 10  1  0
 10 11  2  0
 11  6  1  0
 12  1  1  0
 14 13  1  0
 14 15  2  0
 15 12  1  0
 16 15  1  0
 17 16  2  0
 18 19  2  0
 18 17  1  0
 19 14  1  0
  1 20  1  1
  2 21  1  6
  3 22  1  0
  3 23  1  0
  5 24  1  0
  5 25  1  0
  6 26  1  0
  7 27  1  0
 10 28  1  0
 16 29  1  0
 17 30  1  0
 18 31  1  0
 32 33  1  0
 33 34  1  1
 33 35  1  0
 35 36  1  6
 35 37  1  0
 37 38  1  0
 37 39  1  0
 39 40  1  0
 40 32  1  0
 33 41  1  0
 35 42  1  0
 39 43  1  0
 39 44  1  0
 40 45  1  0
 40 46  1  0
 19 32  1  0
M  ISO  8  20  13  21  13  22  13  23  13  24  13  25  13  26  14  27  14
M  ISO  7  28  14  29  14  30  14  31  14  34   8  36   8  38   5
M  END
>  <DihAtoms>  (1) 
17,18,31,32

>  <DihDeg>  (1) 
9.723299500320945

$$$$
