
     RDKit          3D

 54 58  0  0  0  0  0  0  0  0999 V2000
   38.7938   32.1175   46.8716 C   0  0  1  0  0  0  0  0  0  0  0  0
   39.8506   32.9360   46.1636 C   0  0  0  0  0  0  0  0  0  0  0  0
   39.9455   31.4638   46.2252 C   0  0  2  0  0  0  0  0  0  0  0  0
   38.7141   32.3153   48.3573 C   0  0  0  0  0  0  0  0  0  0  0  0
   37.4085   30.0215   51.0093 C   0  0  0  0  0  0  0  0  0  0  0  0
   38.1370   31.0582   50.3492 C   0  0  0  0  0  0  0  0  0  0  0  0
   37.9493   31.2388   49.0104 C   0  0  0  0  0  0  0  0  0  0  0  0
   37.0858   30.4292   48.3796 N   0  0  0  0  0  0  0  0  0  0  0  0
   36.4016   29.4566   48.9961 C   0  0  0  0  0  0  0  0  0  0  0  0
   36.5748   29.2681   50.3051 N   0  0  0  0  0  0  0  0  0  0  0  0
   39.6667   30.5802   45.0681 C   0  0  0  0  0  0  0  0  0  0  0  0
   40.3814   30.9732   43.7790 C   0  0  0  0  0  0  0  0  0  0  0  0
   39.4323   28.7687   43.1620 C   0  0  0  0  0  0  0  0  0  0  0  0
   40.3083   29.7952   42.8592 C   0  0  0  0  0  0  0  0  0  0  0  0
   41.0842   29.6903   41.7108 C   0  0  0  0  0  0  0  0  0  0  0  0
   40.9931   28.5889   40.8790 C   0  0  0  0  0  0  0  0  0  0  0  0
   41.6346   28.2880   39.7374 N   0  0  0  0  0  0  0  0  0  0  0  0
   41.1593   27.0908   39.3429 C   0  0  0  0  0  0  0  0  0  0  0  0
   40.2130   26.5986   40.2095 C   0  0  0  0  0  0  0  0  0  0  0  0
   40.1162   27.5773   41.1965 C   0  0  0  0  0  0  0  0  0  0  0  0
   39.3507   27.6799   42.3291 C   0  0  0  0  0  0  0  0  0  0  0  0
   37.7826   32.1441   46.3920 H   0  0  0  0  0  0  0  0  0  0  0  0
   39.5916   33.3810   45.1705 H   0  0  0  0  0  0  0  0  0  0  0  0
   40.5485   33.5714   46.7382 H   0  0  0  0  0  0  0  0  0  0  0  0
   40.7380   31.0824   46.9236 H   0  0  0  0  0  0  0  0  0  0  0  0
   39.7247   32.4442   48.8143 H   0  0  0  0  0  0  0  0  0  0  0  0
   38.1603   33.2722   48.5831 H   0  0  0  0  0  0  0  0  0  0  0  0
   37.5514   29.8693   52.0783 H   0  0  0  0  0  0  0  0  0  0  0  0
   38.7827   31.6158   50.9819 H   0  0  0  0  0  0  0  0  0  0  0  0
   35.7609   28.9191   48.3151 H   0  0  0  0  0  0  0  0  0  0  0  0
   39.9929   29.5440   45.3201 H   0  0  0  0  0  0  0  0  0  0  0  0
   38.5807   30.5598   44.8125 H   0  0  0  0  0  0  0  0  0  0  0  0
   41.4113   31.2980   43.9650 H   0  0  0  0  0  0  0  0  0  0  0  0
   39.7925   31.7772   43.2652 H   0  0  0  0  0  0  0  0  0  0  0  0
   38.7642   28.7059   44.0062 H   0  0  0  0  0  0  0  0  0  0  0  0
   41.7654   30.4895   41.4764 H   0  0  0  0  0  0  0  0  0  0  0  0
   42.3537   28.8900   39.2779 H   0  0  0  0  0  0  0  0  0  0  0  0
   41.5258   26.6259   38.4349 H   0  0  0  0  0  0  0  0  0  0  0  0
   39.6872   25.6735   40.1221 H   0  0  0  0  0  0  0  0  0  0  0  0
   38.4577   26.5758   42.5889 N   0  0  0  0  0  0  0  0  0  0  0  0
   37.8084   25.7002   41.6523 C   0  0  1  0  0  0  0  0  0  0  0  0
   37.7199   26.1203   40.6290 H   0  0  0  0  0  0  0  0  0  0  0  0
   36.4162   25.4513   42.1656 C   0  0  2  0  0  0  0  0  0  0  0  0
   35.9296   24.7593   41.4394 H   0  0  0  0  0  0  0  0  0  0  0  0
   36.3876   24.8520   43.4634 N   0  0  0  0  0  0  0  0  0  0  0  0
   36.3286   23.8016   43.4280 H   0  0  0  0  0  0  0  0  0  0  0  0
   37.3586   25.2890   44.3982 C   0  0  0  0  0  0  0  0  0  0  0  0
   38.2485   26.4048   44.0031 C   0  0  0  0  0  0  0  0  0  0  0  0
   38.3786   24.7434   41.6602 H   0  0  0  0  0  0  0  0  0  0  0  0
   35.8409   26.3949   42.1997 H   0  0  0  0  0  0  0  0  0  0  0  0
   36.7867   25.6233   45.3135 H   0  0  0  0  0  0  0  0  0  0  0  0
   37.9568   24.4156   44.7906 H   0  0  0  0  0  0  0  0  0  0  0  0
   39.2560   26.2255   44.4438 H   0  0  0  0  0  0  0  0  0  0  0  0
   37.9260   27.3790   44.4745 H   0  0  0  0  0  0  0  0  0  0  0  0
  1  4  1  0
  2  3  1  0
  2  1  1  0
  3  1  1  0
  4  7  1  0
  6  5  2  0
  7  6  1  0
  8  7  2  0
  8  9  1  0
  9 10  2  0
 10  5  1  0
 11  3  1  0
 12 11  1  0
 14 13  2  0
 14 12  1  0
 15 14  1  0
 16 20  1  0
 16 15  2  0
 17 16  1  0
 18 17  1  0
 18 19  2  0
 19 20  1  0
 20 21  2  0
 21 13  1  0
  1 22  1  6
  2 23  1  0
  2 24  1  0
  3 25  1  1
  4 26  1  0
  4 27  1  0
  5 28  1  0
  6 29  1  0
  9 30  1  0
 11 31  1  0
 11 32  1  0
 12 33  1  0
 12 34  1  0
 13 35  1  0
 15 36  1  0
 17 37  1  0
 18 38  1  0
 19 39  1  0
 40 41  1  0
 41 42  1  6
 41 43  1  0
 43 44  1  6
 43 45  1  0
 45 46  1  0
 45 47  1  0
 47 48  1  0
 48 40  1  0
 41 49  1  0
 43 50  1  0
 47 51  1  0
 47 52  1  0
 48 53  1  0
 48 54  1  0
 21 40  1  0
M  ISO  8  22  13  23  13  24  13  25  13  26   8  27   8  28  14  29  14
M  ISO  8  30  14  31   8  32   8  33   8  34   8  35  14  36  14  37   9
M  ISO  5  38  14  39  14  42   8  44   8  46   5
M  END
>  <DihAtoms>  (1) 
19,20,39,40

>  <DihDeg>  (1) 
60.005232589915956

$$$$
