
 OpenBabel03272509363D

 41 45  0  0  1  0  0  0  0  0999 V2000
   39.4440   26.7360   34.7410 C   0  0  1  0  0  0  0  0  0  0  0  0
   38.1650   26.8920   35.4810 C   0  0  0  0  0  0  0  0  0  0  0  0
   38.4480   25.5350   35.0650 C   0  0  2  0  0  0  0  0  0  0  0  0
   40.4050   26.5820   35.2080 H   0  0  0  0  0  0  0  0  0  0  0  0
   38.3440   27.4160   36.4140 H   0  0  0  0  0  0  0  0  0  0  0  0
   37.3470   27.4260   34.8780 H   0  0  0  0  0  0  0  0  0  0  0  0
   38.2570   25.0080   34.1410 H   0  0  0  0  0  0  0  0  0  0  0  0
   38.8080   24.6740   36.2440 C   0  0  0  0  0  0  0  0  0  0  0  0
   37.9450   24.9230   37.3110 C   0  0  0  0  0  0  0  0  0  0  0  0
   38.0310   24.1730   38.4560 C   0  0  0  0  0  0  0  0  0  0  0  0
   38.9770   23.1470   38.5850 C   0  0  0  0  0  0  0  0  0  0  0  0
   39.8200   22.9250   37.5060 C   0  0  0  0  0  0  0  0  0  0  0  0
   40.7940   21.9660   37.5050 C   0  0  0  0  0  0  0  0  0  0  0  0
   41.6430   21.7450   36.4490 C   0  0  0  0  0  0  0  0  0  0  0  0
   41.5150   22.5250   35.3220 C   0  0  0  0  0  0  0  0  0  0  0  0
   40.5340   23.4960   35.3120 C   0  0  0  0  0  0  0  0  0  0  0  0
   39.7030   23.6840   36.3980 C   0  0  0  0  0  0  0  0  0  0  0  0
   37.1360   25.5940   37.5160 H   0  0  0  0  0  0  0  0  0  0  0  0
   37.4580   24.2200   39.3680 H   0  0  0  0  0  0  0  0  0  0  0  0
   39.1500   22.4860   39.4270 H   0  0  0  0  0  0  0  0  0  0  0  0
   40.9340   21.3270   38.3670 H   0  0  0  0  0  0  0  0  0  0  0  0
   42.4000   20.9710   36.4970 H   0  0  0  0  0  0  0  0  0  0  0  0
   42.1420   22.4100   34.4580 H   0  0  0  0  0  0  0  0  0  0  0  0
   40.4430   24.1140   34.4010 H   0  0  0  0  0  0  0  0  0  0  0  0
   40.5480   27.3330   31.1830 C   0  0  0  0  0  0  0  0  0  0  0  0
   40.5870   26.9820   32.5690 C   0  0  0  0  0  0  0  0  0  0  0  0
   39.4360   27.0800   33.2960 C   0  0  0  0  0  0  0  0  0  0  0  0
   38.3130   27.5170   32.6210 N   0  0  0  0  0  0  0  0  0  0  0  0
   38.2910   27.8420   31.3260 C   0  0  0  0  0  0  0  0  0  0  0  0
   39.4150   27.7530   30.5860 N   0  0  0  0  0  0  0  0  0  0  0  0
   41.4950   27.2390   30.6330 H   0  0  0  0  0  0  0  0  0  0  0  0
   41.5380   26.6500   32.9830 H   0  0  0  0  0  0  0  0  0  0  0  0
   36.9880   28.2930   30.7350 C   0  0  0  0  0  0  0  0  0  0  0  0
   36.8110   29.3560   30.8850 H   0  0  0  0  0  0  0  0  0  0  0  0
   36.9920   28.0100   29.6550 H   0  0  0  0  0  0  0  0  0  0  0  0
   35.8790   27.4500   31.3990 C   0  0  0  0  0  0  0  0  0  0  0  0
   34.8930   27.9450   31.2370 H   0  0  0  0  0  0  0  0  0  0  0  0
   36.0590   27.3480   32.4680 H   0  0  0  0  0  0  0  0  0  0  0  0
   35.8470   26.0890   30.7420 C   0  0  0  0  0  3  0  0  0  0  0  0
   34.6930   25.1890   30.9260 C   0  0  0  0  0  2  0  0  0  0  0  0
   35.9570   24.8500   31.6310 C   0  0  0  0  0  2  0  0  0  0  0  0
  1  3  1  0  0  0  0
  1  4  1  1  0  0  0
  1  2  1  0  0  0  0
  2  5  1  0  0  0  0
  3  7  1  6  0  0  0
  3  2  1  0  0  0  0
  3  8  1  0  0  0  0
  6  2  1  0  0  0  0
  8 17  2  0  0  0  0
  8  9  1  0  0  0  0
  9 18  1  0  0  0  0
  9 10  2  0  0  0  0
 10 11  1  0  0  0  0
 10 19  1  0  0  0  0
 11 20  1  0  0  0  0
 12 11  2  0  0  0  0
 13 12  1  0  0  0  0
 13 21  1  0  0  0  0
 14 22  1  0  0  0  0
 14 13  2  0  0  0  0
 15 14  1  0  0  0  0
 16 15  2  0  0  0  0
 16 17  1  0  0  0  0
 17 12  1  0  0  0  0
 23 15  1  0  0  0  0
 24 16  1  0  0  0  0
 25 26  1  0  0  0  0
 26 32  1  0  0  0  0
 26 27  2  0  0  0  0
 27  1  1  0  0  0  0
 28 27  1  0  0  0  0
 29 28  2  0  0  0  0
 30 25  2  0  0  0  0
 30 29  1  0  0  0  0
 31 25  1  0  0  0  0
 33 34  1  0  0  0  0
 33 29  1  0  0  0  0
 33 36  1  0  0  0  0
 35 33  1  0  0  0  0
 36 38  1  0  0  0  0
 37 36  1  0  0  0  0
 39 40  1  0  0  0  0
 39 36  1  0  0  0  0
 39 41  1  0  0  0  0
 40 41  1  0  0  0  0
M  END
>  <minimizedAffinity>
-6.1729064

$$$$

 OpenBabel03272509363D

 41 45  0  0  1  0  0  0  0  0999 V2000
   38.3840   26.2980   34.3770 C   0  0  1  0  0  0  0  0  0  0  0  0
   37.9560   26.9630   35.6350 C   0  0  0  0  0  0  0  0  0  0  0  0
   37.5360   25.5820   35.5200 C   0  0  2  0  0  0  0  0  0  0  0  0
   39.3380   25.8130   34.2360 H   0  0  0  0  0  0  0  0  0  0  0  0
   38.8120   27.4230   36.1150 H   0  0  0  0  0  0  0  0  0  0  0  0
   37.1220   27.7390   35.4840 H   0  0  0  0  0  0  0  0  0  0  0  0
   36.6760   25.1250   35.0550 H   0  0  0  0  0  0  0  0  0  0  0  0
   38.3080   24.7050   36.4670 C   0  0  0  0  0  0  0  0  0  0  0  0
   37.8590   24.8860   37.7750 C   0  0  0  0  0  0  0  0  0  0  0  0
   38.3580   24.1090   38.7900 C   0  0  0  0  0  0  0  0  0  0  0  0
   39.3230   23.1220   38.5420 C   0  0  0  0  0  0  0  0  0  0  0  0
   39.7480   22.9680   37.2310 C   0  0  0  0  0  0  0  0  0  0  0  0
   40.6920   22.0520   36.8560 C   0  0  0  0  0  0  0  0  0  0  0  0
   41.1310   21.8990   35.5650 C   0  0  0  0  0  0  0  0  0  0  0  0
   40.5970   22.7040   34.5840 C   0  0  0  0  0  0  0  0  0  0  0  0
   39.6430   23.6300   34.9520 C   0  0  0  0  0  0  0  0  0  0  0  0
   39.2320   23.7520   36.2630 C   0  0  0  0  0  0  0  0  0  0  0  0
   37.1490   25.5150   38.2740 H   0  0  0  0  0  0  0  0  0  0  0  0
   38.1340   24.1050   39.8440 H   0  0  0  0  0  0  0  0  0  0  0  0
   39.7960   22.4460   39.2460 H   0  0  0  0  0  0  0  0  0  0  0  0
   41.1410   21.3960   37.5900 H   0  0  0  0  0  0  0  0  0  0  0  0
   41.8820   21.1580   35.3170 H   0  0  0  0  0  0  0  0  0  0  0  0
   40.8910   22.6410   33.5520 H   0  0  0  0  0  0  0  0  0  0  0  0
   39.2240   24.2690   34.1540 H   0  0  0  0  0  0  0  0  0  0  0  0
   36.6920   28.0230   31.4790 C   0  0  0  0  0  0  0  0  0  0  0  0
   37.5000   27.8100   32.6390 C   0  0  0  0  0  0  0  0  0  0  0  0
   37.5640   26.5520   33.1640 C   0  0  0  0  0  0  0  0  0  0  0  0
   36.8300   25.5740   32.5200 N   0  0  0  0  0  0  0  0  0  0  0  0
   36.0790   25.7870   31.4370 C   0  0  0  0  0  0  0  0  0  0  0  0
   36.0000   27.0210   30.8990 N   0  0  0  0  0  0  0  0  0  0  0  0
   36.6680   29.0500   31.0860 H   0  0  0  0  0  0  0  0  0  0  0  0
   38.0310   28.6660   33.0530 H   0  0  0  0  0  0  0  0  0  0  0  0
   35.3470   24.6190   30.8480 C   0  0  0  0  0  0  0  0  0  0  0  0
   34.2840   24.8150   30.7210 H   0  0  0  0  0  0  0  0  0  0  0  0
   35.8490   24.3570   29.8850 H   0  0  0  0  0  0  0  0  0  0  0  0
   35.5770   23.4210   31.7940 C   0  0  0  0  0  0  0  0  0  0  0  0
   34.5910   23.0060   32.1110 H   0  0  0  0  0  0  0  0  0  0  0  0
   36.1380   23.7290   32.6760 H   0  0  0  0  0  0  0  0  0  0  0  0
   36.3310   22.3480   31.0430 C   0  0  0  0  0  3  0  0  0  0  0  0
   35.8610   20.9500   31.0500 C   0  0  0  0  0  2  0  0  0  0  0  0
   37.0710   21.2800   31.8480 C   0  0  0  0  0  2  0  0  0  0  0  0
  1  4  1  6  0  0  0
  1  3  1  0  0  0  0
  1  2  1  0  0  0  0
  2  5  1  0  0  0  0
  3  7  1  6  0  0  0
  3  2  1  0  0  0  0
  3  8  1  0  0  0  0
  6  2  1  0  0  0  0
  8  9  1  0  0  0  0
  9 18  1  0  0  0  0
  9 10  2  0  0  0  0
 10 19  1  0  0  0  0
 11 10  1  0  0  0  0
 11 20  1  0  0  0  0
 12 11  2  0  0  0  0
 13 12  1  0  0  0  0
 13 21  1  0  0  0  0
 14 13  2  0  0  0  0
 15 16  2  0  0  0  0
 15 14  1  0  0  0  0
 16 17  1  0  0  0  0
 17  8  2  0  0  0  0
 17 12  1  0  0  0  0
 22 14  1  0  0  0  0
 23 15  1  0  0  0  0
 24 16  1  0  0  0  0
 25 26  1  0  0  0  0
 26 32  1  0  0  0  0
 26 27  2  0  0  0  0
 27  1  1  0  0  0  0
 28 27  1  0  0  0  0
 29 28  2  0  0  0  0
 30 29  1  0  0  0  0
 30 25  2  0  0  0  0
 31 25  1  0  0  0  0
 33 29  1  0  0  0  0
 33 36  1  0  0  0  0
 34 33  1  0  0  0  0
 35 33  1  0  0  0  0
 36 37  1  0  0  0  0
 36 38  1  0  0  0  0
 39 40  1  0  0  0  0
 39 36  1  0  0  0  0
 39 41  1  0  0  0  0
 40 41  1  0  0  0  0
M  END
>  <minimizedAffinity>
-6.03895044

$$$$

 OpenBabel03272509363D

 41 45  0  0  1  0  0  0  0  0999 V2000
   35.6070   30.1440   32.3850 C   0  0  1  0  0  0  0  0  0  0  0  0
   34.1830   29.7340   32.5020 C   0  0  0  0  0  0  0  0  0  0  0  0
   35.0000   29.3780   33.6430 C   0  0  2  0  0  0  0  0  0  0  0  0
   35.9880   31.1140   32.6660 H   0  0  0  0  0  0  0  0  0  0  0  0
   33.5410   30.5860   32.3080 H   0  0  0  0  0  0  0  0  0  0  0  0
   33.8990   28.8590   31.8140 H   0  0  0  0  0  0  0  0  0  0  0  0
   35.6290   28.5230   33.8430 H   0  0  0  0  0  0  0  0  0  0  0  0
   34.6580   30.2280   34.8360 C   0  0  0  0  0  0  0  0  0  0  0  0
   35.7680   30.9700   35.2400 C   0  0  0  0  0  0  0  0  0  0  0  0
   35.6510   31.8900   36.2500 C   0  0  0  0  0  0  0  0  0  0  0  0
   34.4260   32.1080   36.8980 C   0  0  0  0  0  0  0  0  0  0  0  0
   33.3430   31.3540   36.4720 C   0  0  0  0  0  0  0  0  0  0  0  0
   32.0970   31.4590   37.0260 C   0  0  0  0  0  0  0  0  0  0  0  0
   31.0210   30.7100   36.6230 C   0  0  0  0  0  0  0  0  0  0  0  0
   31.1910   29.8000   35.6040 C   0  0  0  0  0  0  0  0  0  0  0  0
   32.4440   29.6870   35.0380 C   0  0  0  0  0  0  0  0  0  0  0  0
   33.5000   30.4600   35.4750 C   0  0  0  0  0  0  0  0  0  0  0  0
   36.7950   31.0510   34.9510 H   0  0  0  0  0  0  0  0  0  0  0  0
   36.3860   32.5440   36.6890 H   0  0  0  0  0  0  0  0  0  0  0  0
   34.2000   32.7980   37.7030 H   0  0  0  0  0  0  0  0  0  0  0  0
   31.9130   32.1600   37.8300 H   0  0  0  0  0  0  0  0  0  0  0  0
   30.0520   30.8290   37.0950 H   0  0  0  0  0  0  0  0  0  0  0  0
   30.3950   29.1800   35.2360 H   0  0  0  0  0  0  0  0  0  0  0  0
   32.5660   28.9530   34.2210 H   0  0  0  0  0  0  0  0  0  0  0  0
   37.4160   28.5350   29.4910 C   0  0  0  0  0  0  0  0  0  0  0  0
   36.5540   29.4040   30.2310 C   0  0  0  0  0  0  0  0  0  0  0  0
   36.5010   29.2660   31.5870 C   0  0  0  0  0  0  0  0  0  0  0  0
   37.2960   28.2810   32.1410 N   0  0  0  0  0  0  0  0  0  0  0  0
   38.0970   27.4760   31.4380 C   0  0  0  0  0  0  0  0  0  0  0  0
   38.1670   27.5930   30.0960 N   0  0  0  0  0  0  0  0  0  0  0  0
   37.4310   28.6800   28.4010 H   0  0  0  0  0  0  0  0  0  0  0  0
   35.9770   30.1420   29.6750 H   0  0  0  0  0  0  0  0  0  0  0  0
   38.9060   26.4590   32.1870 C   0  0  0  0  0  0  0  0  0  0  0  0
   38.3220   25.5820   32.4590 H   0  0  0  0  0  0  0  0  0  0  0  0
   39.7910   26.2020   31.5560 H   0  0  0  0  0  0  0  0  0  0  0  0
   39.4600   27.1640   33.4430 C   0  0  0  0  0  0  0  0  0  0  0  0
   39.0850   28.2140   33.4730 H   0  0  0  0  0  0  0  0  0  0  0  0
   40.5490   27.1720   33.4320 H   0  0  0  0  0  0  0  0  0  0  0  0
   38.9540   26.4380   34.6680 C   0  0  0  0  0  3  0  0  0  0  0  0
   37.5660   26.6180   35.1330 C   0  0  0  0  0  2  0  0  0  0  0  0
   38.6500   27.2560   35.9240 C   0  0  0  0  0  2  0  0  0  0  0  0
  1  2  1  0  0  0  0
  1  4  1  1  0  0  0
  1  3  1  0  0  0  0
  2  3  1  0  0  0  0
  3  7  1  1  0  0  0
  3  8  1  0  0  0  0
  5  2  1  0  0  0  0
  6  2  1  0  0  0  0
  8  9  2  0  0  0  0
  8 17  1  0  0  0  0
  9 10  1  0  0  0  0
 10 19  1  0  0  0  0
 10 11  2  0  0  0  0
 11 20  1  0  0  0  0
 12 11  1  0  0  0  0
 12 13  1  0  0  0  0
 13 21  1  0  0  0  0
 14 13  2  0  0  0  0
 14 22  1  0  0  0  0
 15 14  1  0  0  0  0
 16 17  1  0  0  0  0
 16 15  2  0  0  0  0
 17 12  2  0  0  0  0
 18  9  1  0  0  0  0
 23 15  1  0  0  0  0
 24 16  1  0  0  0  0
 25 30  2  0  0  0  0
 25 26  1  0  0  0  0
 26 27  2  0  0  0  0
 27 28  1  0  0  0  0
 27  1  1  0  0  0  0
 29 28  2  0  0  0  0
 29 33  1  0  0  0  0
 30 29  1  0  0  0  0
 31 25  1  0  0  0  0
 32 26  1  0  0  0  0
 33 34  1  0  0  0  0
 33 36  1  0  0  0  0
 35 33  1  0  0  0  0
 36 37  1  0  0  0  0
 36 39  1  0  0  0  0
 38 36  1  0  0  0  0
 39 40  1  0  0  0  0
 39 41  1  0  0  0  0
 40 41  1  0  0  0  0
M  END
>  <minimizedAffinity>
-6.01916742

$$$$

 OpenBabel03272509363D

 41 45  0  0  1  0  0  0  0  0999 V2000
   36.0760   29.1030   33.2640 C   0  0  1  0  0  0  0  0  0  0  0  0
   34.8390   29.7180   32.7180 C   0  0  0  0  0  0  0  0  0  0  0  0
   34.7050   29.2150   34.0690 C   0  0  2  0  0  0  0  0  0  0  0  0
   36.8640   29.6520   33.7590 H   0  0  0  0  0  0  0  0  0  0  0  0
   35.0620   30.7060   32.3310 H   0  0  0  0  0  0  0  0  0  0  0  0
   34.3280   29.0820   31.9090 H   0  0  0  0  0  0  0  0  0  0  0  0
   34.4690   28.2350   34.4550 H   0  0  0  0  0  0  0  0  0  0  0  0
   34.6060   30.3460   35.0560 C   0  0  0  0  0  0  0  0  0  0  0  0
   35.8630   30.9030   35.2860 C   0  0  0  0  0  0  0  0  0  0  0  0
   35.9890   32.0160   36.0790 C   0  0  0  0  0  0  0  0  0  0  0  0
   34.8700   32.6160   36.6730 C   0  0  0  0  0  0  0  0  0  0  0  0
   33.6340   32.0370   36.4240 C   0  0  0  0  0  0  0  0  0  0  0  0
   32.4660   32.5150   36.9510 C   0  0  0  0  0  0  0  0  0  0  0  0
   31.2400   31.9430   36.7220 C   0  0  0  0  0  0  0  0  0  0  0  0
   31.1680   30.8280   35.9190 C   0  0  0  0  0  0  0  0  0  0  0  0
   32.3410   30.3380   35.3810 C   0  0  0  0  0  0  0  0  0  0  0  0
   33.5540   30.9440   35.6390 C   0  0  0  0  0  0  0  0  0  0  0  0
   36.8700   30.7040   34.9810 H   0  0  0  0  0  0  0  0  0  0  0  0
   36.8640   32.5760   36.3650 H   0  0  0  0  0  0  0  0  0  0  0  0
   34.8300   33.4890   37.3150 H   0  0  0  0  0  0  0  0  0  0  0  0
   32.4710   33.3890   37.5880 H   0  0  0  0  0  0  0  0  0  0  0  0
   30.3410   32.3590   37.1640 H   0  0  0  0  0  0  0  0  0  0  0  0
   30.2450   30.3270   35.6950 H   0  0  0  0  0  0  0  0  0  0  0  0
   32.2680   29.4430   34.7380 H   0  0  0  0  0  0  0  0  0  0  0  0
   36.1700   25.8560   31.3460 C   0  0  0  0  0  0  0  0  0  0  0  0
   35.8830   27.2130   31.6910 C   0  0  0  0  0  0  0  0  0  0  0  0
   36.3670   27.7010   32.8700 C   0  0  0  0  0  0  0  0  0  0  0  0
   37.1060   26.8270   33.6440 N   0  0  0  0  0  0  0  0  0  0  0  0
   37.3670   25.5610   33.3100 C   0  0  0  0  0  0  0  0  0  0  0  0
   36.9000   25.0560   32.1500 N   0  0  0  0  0  0  0  0  0  0  0  0
   35.7630   25.5020   30.3880 H   0  0  0  0  0  0  0  0  0  0  0  0
   35.2870   27.8000   30.9920 H   0  0  0  0  0  0  0  0  0  0  0  0
   38.1920   24.7400   34.2550 C   0  0  0  0  0  0  0  0  0  0  0  0
   37.9580   23.6790   34.1970 H   0  0  0  0  0  0  0  0  0  0  0  0
   39.2670   24.9510   34.0350 H   0  0  0  0  0  0  0  0  0  0  0  0
   37.9270   25.2870   35.6740 C   0  0  0  0  0  0  0  0  0  0  0  0
   36.8280   25.4100   35.8220 H   0  0  0  0  0  0  0  0  0  0  0  0
   38.4190   26.2470   35.8150 H   0  0  0  0  0  0  0  0  0  0  0  0
   38.4370   24.2840   36.6830 C   0  0  0  0  0  3  0  0  0  0  0  0
   37.5410   23.2560   37.2450 C   0  0  0  0  0  2  0  0  0  0  0  0
   37.9400   24.3860   38.1250 C   0  0  0  0  0  2  0  0  0  0  0  0
  1  4  1  1  0  0  0
  1  3  1  0  0  0  0
  2  1  1  0  0  0  0
  2  3  1  0  0  0  0
  3  7  1  1  0  0  0
  3  8  1  0  0  0  0
  5  2  1  0  0  0  0
  6  2  1  0  0  0  0
  8  9  2  0  0  0  0
  8 17  1  0  0  0  0
  9 10  1  0  0  0  0
 10 19  1  0  0  0  0
 10 11  2  0  0  0  0
 11 20  1  0  0  0  0
 12 11  1  0  0  0  0
 12 13  1  0  0  0  0
 13 21  1  0  0  0  0
 14 13  2  0  0  0  0
 14 22  1  0  0  0  0
 15 14  1  0  0  0  0
 16 17  1  0  0  0  0
 16 15  2  0  0  0  0
 17 12  2  0  0  0  0
 18  9  1  0  0  0  0
 23 15  1  0  0  0  0
 24 16  1  0  0  0  0
 25 26  2  0  0  0  0
 25 30  1  0  0  0  0
 26 27  1  0  0  0  0
 27  1  1  0  0  0  0
 27 28  2  0  0  0  0
 29 28  1  0  0  0  0
 29 33  1  0  0  0  0
 30 29  2  0  0  0  0
 31 25  1  0  0  0  0
 32 26  1  0  0  0  0
 33 36  1  0  0  0  0
 34 33  1  0  0  0  0
 35 33  1  0  0  0  0
 36 38  1  0  0  0  0
 36 37  1  0  0  0  0
 36 39  1  0  0  0  0
 39 40  1  0  0  0  0
 39 41  1  0  0  0  0
 40 41  1  0  0  0  0
M  END
>  <minimizedAffinity>
-5.99289894

$$$$

 OpenBabel03272509363D

 41 45  0  0  1  0  0  0  0  0999 V2000
   39.2400   26.7570   34.7630 C   0  0  1  0  0  0  0  0  0  0  0  0
   37.9680   26.8620   35.5250 C   0  0  0  0  0  0  0  0  0  0  0  0
   38.2960   25.5180   35.0990 C   0  0  2  0  0  0  0  0  0  0  0  0
   40.2140   26.6390   35.2140 H   0  0  0  0  0  0  0  0  0  0  0  0
   38.1420   27.3910   36.4560 H   0  0  0  0  0  0  0  0  0  0  0  0
   37.1200   27.3660   34.9360 H   0  0  0  0  0  0  0  0  0  0  0  0
   38.1110   24.9860   34.1780 H   0  0  0  0  0  0  0  0  0  0  0  0
   38.7090   24.6680   36.2700 C   0  0  0  0  0  0  0  0  0  0  0  0
   37.8840   24.9180   37.3670 C   0  0  0  0  0  0  0  0  0  0  0  0
   38.0200   24.1770   38.5140 C   0  0  0  0  0  0  0  0  0  0  0  0
   38.9810   23.1600   38.6130 C   0  0  0  0  0  0  0  0  0  0  0  0
   39.7840   22.9380   37.5040 C   0  0  0  0  0  0  0  0  0  0  0  0
   40.7660   21.9870   37.4730 C   0  0  0  0  0  0  0  0  0  0  0  0
   41.5750   21.7660   36.3870 C   0  0  0  0  0  0  0  0  0  0  0  0
   41.3980   22.5370   35.2610 C   0  0  0  0  0  0  0  0  0  0  0  0
   40.4090   23.4990   35.2820 C   0  0  0  0  0  0  0  0  0  0  0  0
   39.6180   23.6880   36.3970 C   0  0  0  0  0  0  0  0  0  0  0  0
   37.0780   25.5820   37.5980 H   0  0  0  0  0  0  0  0  0  0  0  0
   37.4830   24.2250   39.4460 H   0  0  0  0  0  0  0  0  0  0  0  0
   39.1910   22.5060   39.4530 H   0  0  0  0  0  0  0  0  0  0  0  0
   40.9440   21.3550   38.3340 H   0  0  0  0  0  0  0  0  0  0  0  0
   42.3420   20.9990   36.4110 H   0  0  0  0  0  0  0  0  0  0  0  0
   41.9930   22.4220   34.3740 H   0  0  0  0  0  0  0  0  0  0  0  0
   40.2770   24.1100   34.3710 H   0  0  0  0  0  0  0  0  0  0  0  0
   40.2490   27.3480   31.1770 C   0  0  0  0  0  0  0  0  0  0  0  0
   40.3230   26.9940   32.5600 C   0  0  0  0  0  0  0  0  0  0  0  0
   39.1950   27.1050   33.3200 C   0  0  0  0  0  0  0  0  0  0  0  0
   38.0580   27.5570   32.6780 N   0  0  0  0  0  0  0  0  0  0  0  0
   38.0030   27.8840   31.3840 C   0  0  0  0  0  0  0  0  0  0  0  0
   39.1050   27.7830   30.6120 N   0  0  0  0  0  0  0  0  0  0  0  0
   41.1800   27.2430   30.5990 H   0  0  0  0  0  0  0  0  0  0  0  0
   41.2820   26.6500   32.9460 H   0  0  0  0  0  0  0  0  0  0  0  0
   36.6900   28.3520   30.8320 C   0  0  0  0  0  0  0  0  0  0  0  0
   36.6860   29.4180   30.6170 H   0  0  0  0  0  0  0  0  0  0  0  0
   36.4660   27.7350   29.9280 H   0  0  0  0  0  0  0  0  0  0  0  0
   35.6110   27.9960   31.8770 C   0  0  0  0  0  0  0  0  0  0  0  0
   36.0980   27.5260   32.7640 H   0  0  0  0  0  0  0  0  0  0  0  0
   34.8820   27.3050   31.4580 H   0  0  0  0  0  0  0  0  0  0  0  0
   34.9300   29.2690   32.3220 C   0  0  0  0  0  3  0  0  0  0  0  0
   35.6410   30.2530   33.1590 C   0  0  0  0  0  2  0  0  0  0  0  0
   34.5850   29.4300   33.8030 C   0  0  0  0  0  2  0  0  0  0  0  0
  1  3  1  0  0  0  0
  1  4  1  1  0  0  0
  1  2  1  0  0  0  0
  2  5  1  0  0  0  0
  3  7  1  6  0  0  0
  3  2  1  0  0  0  0
  3  8  1  0  0  0  0
  6  2  1  0  0  0  0
  8 17  2  0  0  0  0
  8  9  1  0  0  0  0
  9 18  1  0  0  0  0
  9 10  2  0  0  0  0
 10 11  1  0  0  0  0
 10 19  1  0  0  0  0
 11 20  1  0  0  0  0
 12 11  2  0  0  0  0
 13 12  1  0  0  0  0
 13 21  1  0  0  0  0
 14 22  1  0  0  0  0
 14 13  2  0  0  0  0
 15 16  2  0  0  0  0
 15 14  1  0  0  0  0
 16 17  1  0  0  0  0
 17 12  1  0  0  0  0
 23 15  1  0  0  0  0
 24 16  1  0  0  0  0
 25 26  1  0  0  0  0
 26 32  1  0  0  0  0
 26 27  2  0  0  0  0
 27  1  1  0  0  0  0
 28 27  1  0  0  0  0
 29 28  2  0  0  0  0
 30 25  2  0  0  0  0
 30 29  1  0  0  0  0
 31 25  1  0  0  0  0
 33 29  1  0  0  0  0
 33 36  1  0  0  0  0
 34 33  1  0  0  0  0
 35 33  1  0  0  0  0
 36 39  1  0  0  0  0
 36 37  1  0  0  0  0
 38 36  1  0  0  0  0
 39 40  1  0  0  0  0
 39 41  1  0  0  0  0
 40 41  1  0  0  0  0
M  END
>  <minimizedAffinity>
-5.96286488

$$$$

 OpenBabel03272509363D

 41 45  0  0  1  0  0  0  0  0999 V2000
   38.4970   26.7630   35.2320 C   0  0  1  0  0  0  0  0  0  0  0  0
   39.0970   26.7470   33.8730 C   0  0  0  0  0  0  0  0  0  0  0  0
   37.6620   26.5590   33.8900 C   0  0  2  0  0  0  0  0  0  0  0  0
   38.1870   27.6570   35.7520 H   0  0  0  0  0  0  0  0  0  0  0  0
   39.7110   27.6300   33.7330 H   0  0  0  0  0  0  0  0  0  0  0  0
   39.7100   25.8000   33.6520 H   0  0  0  0  0  0  0  0  0  0  0  0
   37.0510   25.6770   34.0140 H   0  0  0  0  0  0  0  0  0  0  0  0
   36.9540   27.7740   33.3580 C   0  0  0  0  0  0  0  0  0  0  0  0
   36.2510   28.4140   34.3790 C   0  0  0  0  0  0  0  0  0  0  0  0
   35.6130   29.6040   34.1350 C   0  0  0  0  0  0  0  0  0  0  0  0
   35.6490   30.2020   32.8680 C   0  0  0  0  0  0  0  0  0  0  0  0
   36.3570   29.5400   31.8750 C   0  0  0  0  0  0  0  0  0  0  0  0
   36.4610   30.0070   30.5950 C   0  0  0  0  0  0  0  0  0  0  0  0
   37.1460   29.3550   29.6010 C   0  0  0  0  0  0  0  0  0  0  0  0
   37.7690   28.1650   29.8980 C   0  0  0  0  0  0  0  0  0  0  0  0
   37.6710   27.6840   31.1870 C   0  0  0  0  0  0  0  0  0  0  0  0
   36.9700   28.3730   32.1560 C   0  0  0  0  0  0  0  0  0  0  0  0
   36.0530   28.2370   35.4160 H   0  0  0  0  0  0  0  0  0  0  0  0
   35.0310   30.2330   34.7880 H   0  0  0  0  0  0  0  0  0  0  0  0
   35.1920   31.1310   32.5440 H   0  0  0  0  0  0  0  0  0  0  0  0
   35.9880   30.9400   30.3120 H   0  0  0  0  0  0  0  0  0  0  0  0
   37.2000   29.7670   28.5990 H   0  0  0  0  0  0  0  0  0  0  0  0
   38.3240   27.5980   29.1720 H   0  0  0  0  0  0  0  0  0  0  0  0
   38.1770   26.7280   31.4110 H   0  0  0  0  0  0  0  0  0  0  0  0
   37.9540   24.1630   37.9100 C   0  0  0  0  0  0  0  0  0  0  0  0
   37.8440   25.3780   37.1660 C   0  0  0  0  0  0  0  0  0  0  0  0
   38.5790   25.5090   36.0230 C   0  0  0  0  0  0  0  0  0  0  0  0
   39.3810   24.4380   35.6770 N   0  0  0  0  0  0  0  0  0  0  0  0
   39.4750   23.3080   36.3830 C   0  0  0  0  0  0  0  0  0  0  0  0
   38.7580   23.1550   37.5150 N   0  0  0  0  0  0  0  0  0  0  0  0
   37.3450   24.0970   38.8240 H   0  0  0  0  0  0  0  0  0  0  0  0
   37.1740   26.1480   37.5450 H   0  0  0  0  0  0  0  0  0  0  0  0
   40.3860   22.2330   35.8720 C   0  0  0  0  0  0  0  0  0  0  0  0
   39.9360   21.2440   35.9300 H   0  0  0  0  0  0  0  0  0  0  0  0
   40.6780   22.5070   34.8290 H   0  0  0  0  0  0  0  0  0  0  0  0
   41.6780   22.3010   36.7150 C   0  0  0  0  0  0  0  0  0  0  0  0
   42.0640   21.2680   36.8820 H   0  0  0  0  0  0  0  0  0  0  0  0
   41.4860   22.7720   37.6770 H   0  0  0  0  0  0  0  0  0  0  0  0
   42.7170   23.0830   35.9460 C   0  0  0  0  0  3  0  0  0  0  0  0
   44.1480   22.7430   36.0500 C   0  0  0  0  0  2  0  0  0  0  0  0
   43.6780   23.9790   36.7270 C   0  0  0  0  0  2  0  0  0  0  0  0
  1  4  1  1  0  0  0
  1 27  1  0  0  0  0
  2  3  1  0  0  0  0
  2  1  1  0  0  0  0
  3  7  1  6  0  0  0
  3  1  1  0  0  0  0
  5  2  1  0  0  0  0
  6  2  1  0  0  0  0
  8  3  1  0  0  0  0
  8  9  1  0  0  0  0
  9 18  1  0  0  0  0
 10  9  2  0  0  0  0
 10 19  1  0  0  0  0
 11 10  1  0  0  0  0
 12 17  1  0  0  0  0
 12 11  2  0  0  0  0
 13 12  1  0  0  0  0
 14 15  1  0  0  0  0
 14 13  2  0  0  0  0
 15 16  2  0  0  0  0
 16 24  1  0  0  0  0
 16 17  1  0  0  0  0
 17  8  2  0  0  0  0
 20 11  1  0  0  0  0
 21 13  1  0  0  0  0
 22 14  1  0  0  0  0
 23 15  1  0  0  0  0
 25 31  1  0  0  0  0
 26 32  1  0  0  0  0
 26 25  2  0  0  0  0
 27 26  1  0  0  0  0
 28 27  2  0  0  0  0
 28 29  1  0  0  0  0
 29 30  2  0  0  0  0
 30 25  1  0  0  0  0
 33 34  1  0  0  0  0
 33 29  1  0  0  0  0
 33 36  1  0  0  0  0
 35 33  1  0  0  0  0
 36 37  1  0  0  0  0
 36 38  1  0  0  0  0
 39 40  1  0  0  0  0
 39 36  1  0  0  0  0
 39 41  1  0  0  0  0
 40 41  1  0  0  0  0
M  END
>  <minimizedAffinity>
-5.92399073

$$$$

 OpenBabel03272509363D

 41 45  0  0  1  0  0  0  0  0999 V2000
   37.4030   25.8580   35.3500 C   0  0  1  0  0  0  0  0  0  0  0  0
   38.1730   27.0770   35.7070 C   0  0  0  0  0  0  0  0  0  0  0  0
   38.1040   26.8140   34.2850 C   0  0  2  0  0  0  0  0  0  0  0  0
   36.3330   25.8310   35.2050 H   0  0  0  0  0  0  0  0  0  0  0  0
   37.5780   27.7080   36.3570 H   0  0  0  0  0  0  0  0  0  0  0  0
   39.1890   26.8530   36.1940 H   0  0  0  0  0  0  0  0  0  0  0  0
   38.7060   26.1970   33.6340 H   0  0  0  0  0  0  0  0  0  0  0  0
   37.2100   27.8080   33.5970 C   0  0  0  0  0  0  0  0  0  0  0  0
   36.4080   28.4680   34.5280 C   0  0  0  0  0  0  0  0  0  0  0  0
   35.5860   29.4910   34.1270 C   0  0  0  0  0  0  0  0  0  0  0  0
   35.5300   29.8970   32.7860 C   0  0  0  0  0  0  0  0  0  0  0  0
   36.3410   29.2200   31.8860 C   0  0  0  0  0  0  0  0  0  0  0  0
   36.3730   29.5080   30.5500 C   0  0  0  0  0  0  0  0  0  0  0  0
   37.1600   28.8370   29.6480 C   0  0  0  0  0  0  0  0  0  0  0  0
   37.9670   27.8190   30.1010 C   0  0  0  0  0  0  0  0  0  0  0  0
   37.9420   27.5210   31.4480 C   0  0  0  0  0  0  0  0  0  0  0  0
   37.1340   28.2210   32.3210 C   0  0  0  0  0  0  0  0  0  0  0  0
   36.2360   28.4140   35.5830 H   0  0  0  0  0  0  0  0  0  0  0  0
   34.9070   30.1070   34.6940 H   0  0  0  0  0  0  0  0  0  0  0  0
   34.9300   30.6830   32.3410 H   0  0  0  0  0  0  0  0  0  0  0  0
   35.7570   30.3000   30.1450 H   0  0  0  0  0  0  0  0  0  0  0  0
   37.1500   29.1020   28.5960 H   0  0  0  0  0  0  0  0  0  0  0  0
   38.6100   27.2500   29.4550 H   0  0  0  0  0  0  0  0  0  0  0  0
   38.5950   26.7020   31.7980 H   0  0  0  0  0  0  0  0  0  0  0  0
   39.4350   22.9760   36.6910 C   0  0  0  0  0  0  0  0  0  0  0  0
   38.7570   24.2320   36.6190 C   0  0  0  0  0  0  0  0  0  0  0  0
   38.1070   24.5550   35.4630 C   0  0  0  0  0  0  0  0  0  0  0  0
   38.1610   23.6240   34.4430 N   0  0  0  0  0  0  0  0  0  0  0  0
   38.7980   22.4530   34.5240 C   0  0  0  0  0  0  0  0  0  0  0  0
   39.4470   22.1120   35.6560 N   0  0  0  0  0  0  0  0  0  0  0  0
   39.9450   22.7540   37.6400 H   0  0  0  0  0  0  0  0  0  0  0  0
   38.7890   24.8790   37.4950 H   0  0  0  0  0  0  0  0  0  0  0  0
   38.7580   21.5460   33.3310 C   0  0  0  0  0  0  0  0  0  0  0  0
   39.2080   21.9990   32.4500 H   0  0  0  0  0  0  0  0  0  0  0  0
   39.2560   20.5890   33.6190 H   0  0  0  0  0  0  0  0  0  0  0  0
   37.2740   21.2030   33.0780 C   0  0  0  0  0  0  0  0  0  0  0  0
   36.6390   21.7540   33.8100 H   0  0  0  0  0  0  0  0  0  0  0  0
   37.1030   20.1330   33.1860 H   0  0  0  0  0  0  0  0  0  0  0  0
   36.9040   21.6540   31.6840 C   0  0  0  0  0  3  0  0  0  0  0  0
   35.9540   22.7630   31.4770 C   0  0  0  0  0  2  0  0  0  0  0  0
   35.4840   21.3840   31.1860 C   0  0  0  0  0  2  0  0  0  0  0  0
  1  4  1  1  0  0  0
  1 27  1  0  0  0  0
  1  2  1  0  0  0  0
  2  6  1  0  0  0  0
  2  5  1  0  0  0  0
  3  7  1  6  0  0  0
  3  1  1  0  0  0  0
  3  2  1  0  0  0  0
  8  3  1  0  0  0  0
  8  9  1  0  0  0  0
  9 18  1  0  0  0  0
 10  9  2  0  0  0  0
 10 19  1  0  0  0  0
 11 10  1  0  0  0  0
 12 17  1  0  0  0  0
 12 11  2  0  0  0  0
 13 12  1  0  0  0  0
 14 15  1  0  0  0  0
 14 13  2  0  0  0  0
 15 16  2  0  0  0  0
 16 24  1  0  0  0  0
 16 17  1  0  0  0  0
 17  8  2  0  0  0  0
 20 11  1  0  0  0  0
 21 13  1  0  0  0  0
 22 14  1  0  0  0  0
 23 15  1  0  0  0  0
 25 31  1  0  0  0  0
 26 25  1  0  0  0  0
 26 32  1  0  0  0  0
 27 26  2  0  0  0  0
 28 29  2  0  0  0  0
 28 27  1  0  0  0  0
 29 30  1  0  0  0  0
 30 25  2  0  0  0  0
 33 35  1  0  0  0  0
 33 29  1  0  0  0  0
 34 33  1  0  0  0  0
 36 38  1  0  0  0  0
 36 33  1  0  0  0  0
 36 37  1  0  0  0  0
 39 36  1  0  0  0  0
 40 39  1  0  0  0  0
 41 40  1  0  0  0  0
 41 39  1  0  0  0  0
M  END
>  <minimizedAffinity>
-5.88033772

$$$$

 OpenBabel03272509363D

 41 45  0  0  1  0  0  0  0  0999 V2000
   38.5860   26.0130   32.7490 C   0  0  1  0  0  0  0  0  0  0  0  0
   40.0510   26.1750   32.5580 C   0  0  0  0  0  0  0  0  0  0  0  0
   39.6210   26.2410   33.9390 C   0  0  2  0  0  0  0  0  0  0  0  0
   38.0850   25.0610   32.8450 H   0  0  0  0  0  0  0  0  0  0  0  0
   40.4340   25.3590   31.9560 H   0  0  0  0  0  0  0  0  0  0  0  0
   40.3440   27.1830   32.0910 H   0  0  0  0  0  0  0  0  0  0  0  0
   39.2530   27.0570   34.5430 H   0  0  0  0  0  0  0  0  0  0  0  0
   40.0460   25.0120   34.6940 C   0  0  0  0  0  0  0  0  0  0  0  0
   41.2170   24.4850   34.1480 C   0  0  0  0  0  0  0  0  0  0  0  0
   41.8370   23.4180   34.7470 C   0  0  0  0  0  0  0  0  0  0  0  0
   41.3170   22.8330   35.9100 C   0  0  0  0  0  0  0  0  0  0  0  0
   40.1520   23.3810   36.4270 C   0  0  0  0  0  0  0  0  0  0  0  0
   39.5340   22.8990   37.5480 C   0  0  0  0  0  0  0  0  0  0  0  0
   38.3750   23.4230   38.0610 C   0  0  0  0  0  0  0  0  0  0  0  0
   37.7920   24.4940   37.4230 C   0  0  0  0  0  0  0  0  0  0  0  0
   38.4080   24.9890   36.2920 C   0  0  0  0  0  0  0  0  0  0  0  0
   39.5740   24.4300   35.8090 C   0  0  0  0  0  0  0  0  0  0  0  0
   41.8520   24.7030   33.3140 H   0  0  0  0  0  0  0  0  0  0  0  0
   42.7330   22.8860   34.4740 H   0  0  0  0  0  0  0  0  0  0  0  0
   41.7040   21.9940   36.4780 H   0  0  0  0  0  0  0  0  0  0  0  0
   39.9530   22.0580   38.0850 H   0  0  0  0  0  0  0  0  0  0  0  0
   37.9220   23.0050   38.9530 H   0  0  0  0  0  0  0  0  0  0  0  0
   36.8860   24.9570   37.7660 H   0  0  0  0  0  0  0  0  0  0  0  0
   37.9300   25.8490   35.7900 H   0  0  0  0  0  0  0  0  0  0  0  0
   36.9920   29.0390   31.1580 C   0  0  0  0  0  0  0  0  0  0  0  0
   37.8140   27.8840   31.3390 C   0  0  0  0  0  0  0  0  0  0  0  0
   37.7370   27.2100   32.5230 C   0  0  0  0  0  0  0  0  0  0  0  0
   36.8570   27.7100   33.4630 N   0  0  0  0  0  0  0  0  0  0  0  0
   36.0940   28.7910   33.2820 C   0  0  0  0  0  0  0  0  0  0  0  0
   36.1520   29.4740   32.1200 N   0  0  0  0  0  0  0  0  0  0  0  0
   37.0830   29.5530   30.1900 H   0  0  0  0  0  0  0  0  0  0  0  0
   38.4680   27.5910   30.5180 H   0  0  0  0  0  0  0  0  0  0  0  0
   35.1820   29.2040   34.3970 C   0  0  0  0  0  0  0  0  0  0  0  0
   34.1790   28.7970   34.2860 H   0  0  0  0  0  0  0  0  0  0  0  0
   35.6630   28.8970   35.3570 H   0  0  0  0  0  0  0  0  0  0  0  0
   35.1520   30.7480   34.4040 C   0  0  0  0  0  0  0  0  0  0  0  0
   34.0930   31.0960   34.4520 H   0  0  0  0  0  0  0  0  0  0  0  0
   35.6210   31.1470   33.5070 H   0  0  0  0  0  0  0  0  0  0  0  0
   35.8760   31.2400   35.6360 C   0  0  0  0  0  3  0  0  0  0  0  0
   35.2550   32.2380   36.5280 C   0  0  0  0  0  2  0  0  0  0  0  0
   36.3730   32.6860   35.6580 C   0  0  0  0  0  2  0  0  0  0  0  0
  1  4  1  6  0  0  0
  1  3  1  0  0  0  0
  2  1  1  0  0  0  0
  2  3  1  0  0  0  0
  3  7  1  1  0  0  0
  3  8  1  0  0  0  0
  5  2  1  0  0  0  0
  6  2  1  0  0  0  0
  8 17  1  0  0  0  0
  9  8  2  0  0  0  0
  9 10  1  0  0  0  0
 10 11  2  0  0  0  0
 11 12  1  0  0  0  0
 11 20  1  0  0  0  0
 12 13  1  0  0  0  0
 13 14  2  0  0  0  0
 13 21  1  0  0  0  0
 14 22  1  0  0  0  0
 15 23  1  0  0  0  0
 15 14  1  0  0  0  0
 16 15  2  0  0  0  0
 17 16  1  0  0  0  0
 17 12  2  0  0  0  0
 18  9  1  0  0  0  0
 19 10  1  0  0  0  0
 24 16  1  0  0  0  0
 25 26  2  0  0  0  0
 25 30  1  0  0  0  0
 26 27  1  0  0  0  0
 27  1  1  0  0  0  0
 27 28  2  0  0  0  0
 29 28  1  0  0  0  0
 29 33  1  0  0  0  0
 30 29  2  0  0  0  0
 31 25  1  0  0  0  0
 32 26  1  0  0  0  0
 33 36  1  0  0  0  0
 33 35  1  0  0  0  0
 34 33  1  0  0  0  0
 36 37  1  0  0  0  0
 36 39  1  0  0  0  0
 38 36  1  0  0  0  0
 39 41  1  0  0  0  0
 39 40  1  0  0  0  0
 41 40  1  0  0  0  0
M  END
>  <minimizedAffinity>
-5.87695646

$$$$

 OpenBabel03272509363D

 41 45  0  0  1  0  0  0  0  0999 V2000
   36.9320   24.4520   31.4890 C   0  0  1  0  0  0  0  0  0  0  0  0
   38.1100   24.3000   30.5960 C   0  0  0  0  0  0  0  0  0  0  0  0
   38.0900   23.3820   31.7160 C   0  0  2  0  0  0  0  0  0  0  0  0
   35.9790   23.9680   31.3310 H   0  0  0  0  0  0  0  0  0  0  0  0
   37.7790   24.1970   29.5690 H   0  0  0  0  0  0  0  0  0  0  0  0
   38.8670   25.1590   30.6840 H   0  0  0  0  0  0  0  0  0  0  0  0
   38.4330   23.4790   32.7350 H   0  0  0  0  0  0  0  0  0  0  0  0
   37.7980   21.9800   31.2570 C   0  0  0  0  0  0  0  0  0  0  0  0
   38.5420   21.6750   30.1170 C   0  0  0  0  0  0  0  0  0  0  0  0
   38.5050   20.4100   29.5880 C   0  0  0  0  0  0  0  0  0  0  0  0
   37.7260   19.4000   30.1710 C   0  0  0  0  0  0  0  0  0  0  0  0
   36.9980   19.7370   31.3030 C   0  0  0  0  0  0  0  0  0  0  0  0
   36.1890   18.8510   31.9600 C   0  0  0  0  0  0  0  0  0  0  0  0
   35.4540   19.1750   33.0730 C   0  0  0  0  0  0  0  0  0  0  0  0
   35.5270   20.4590   33.5640 C   0  0  0  0  0  0  0  0  0  0  0  0
   36.3410   21.3600   32.9090 C   0  0  0  0  0  0  0  0  0  0  0  0
   37.0620   20.9910   31.7910 C   0  0  0  0  0  0  0  0  0  0  0  0
   39.2210   22.1920   29.4710 H   0  0  0  0  0  0  0  0  0  0  0  0
   39.0040   19.9960   28.7280 H   0  0  0  0  0  0  0  0  0  0  0  0
   37.6070   18.3690   29.8560 H   0  0  0  0  0  0  0  0  0  0  0  0
   36.0990   17.8300   31.6120 H   0  0  0  0  0  0  0  0  0  0  0  0
   34.8270   18.4370   33.5590 H   0  0  0  0  0  0  0  0  0  0  0  0
   34.9820   20.7850   34.4300 H   0  0  0  0  0  0  0  0  0  0  0  0
   36.3900   22.3860   33.3150 H   0  0  0  0  0  0  0  0  0  0  0  0
   36.6290   27.8190   33.1630 C   0  0  0  0  0  0  0  0  0  0  0  0
   36.5540   26.7930   32.1710 C   0  0  0  0  0  0  0  0  0  0  0  0
   36.9840   25.5390   32.4990 C   0  0  0  0  0  0  0  0  0  0  0  0
   37.4630   25.3660   33.7840 N   0  0  0  0  0  0  0  0  0  0  0  0
   37.5280   26.3350   34.7010 C   0  0  0  0  0  0  0  0  0  0  0  0
   37.1090   27.5810   34.4010 N   0  0  0  0  0  0  0  0  0  0  0  0
   36.2720   28.8140   32.8590 H   0  0  0  0  0  0  0  0  0  0  0  0
   36.1550   27.0580   31.1930 H   0  0  0  0  0  0  0  0  0  0  0  0
   38.0670   25.9860   36.0560 C   0  0  0  0  0  0  0  0  0  0  0  0
   38.9540   26.5620   36.3110 H   0  0  0  0  0  0  0  0  0  0  0  0
   37.2400   26.1270   36.7940 H   0  0  0  0  0  0  0  0  0  0  0  0
   38.3780   24.4740   36.0390 C   0  0  0  0  0  0  0  0  0  0  0  0
   39.4830   24.3250   36.0250 H   0  0  0  0  0  0  0  0  0  0  0  0
   37.9400   24.0000   35.1620 H   0  0  0  0  0  0  0  0  0  0  0  0
   37.8260   23.8520   37.3010 C   0  0  0  0  0  3  0  0  0  0  0  0
   37.9840   24.5240   38.6050 C   0  0  0  0  0  2  0  0  0  0  0  0
   38.8120   23.3180   38.3400 C   0  0  0  0  0  2  0  0  0  0  0  0
  1  4  1  6  0  0  0
  1  3  1  0  0  0  0
  1 27  1  0  0  0  0
  2  6  1  0  0  0  0
  2  1  1  0  0  0  0
  2  3  1  0  0  0  0
  3  7  1  1  0  0  0
  5  2  1  0  0  0  0
  8  3  1  0  0  0  0
  8 17  1  0  0  0  0
  9  8  2  0  0  0  0
 10  9  1  0  0  0  0
 10 11  2  0  0  0  0
 11 12  1  0  0  0  0
 12 17  2  0  0  0  0
 12 13  1  0  0  0  0
 13 14  2  0  0  0  0
 14 22  1  0  0  0  0
 14 15  1  0  0  0  0
 15 23  1  0  0  0  0
 16 24  1  0  0  0  0
 16 15  2  0  0  0  0
 17 16  1  0  0  0  0
 18  9  1  0  0  0  0
 19 10  1  0  0  0  0
 20 11  1  0  0  0  0
 21 13  1  0  0  0  0
 25 30  1  0  0  0  0
 26 27  1  0  0  0  0
 26 25  2  0  0  0  0
 27 28  2  0  0  0  0
 28 29  1  0  0  0  0
 29 33  1  0  0  0  0
 30 29  2  0  0  0  0
 31 25  1  0  0  0  0
 32 26  1  0  0  0  0
 33 34  1  0  0  0  0
 33 35  1  0  0  0  0
 36 33  1  0  0  0  0
 36 39  1  0  0  0  0
 37 36  1  0  0  0  0
 38 36  1  0  0  0  0
 39 41  1  0  0  0  0
 39 40  1  0  0  0  0
 41 40  1  0  0  0  0
M  END
>  <minimizedAffinity>
-5.84913874

$$$$
