
 OpenBabel03272510053D

 31 33  0  0  0  0  0  0  0  0999 V2000
   36.8220   26.2620   32.5450 C   0  0  0  0  0  0  0  0  0  0  0  0
   37.2640   26.6000   33.7850 C   0  0  0  0  0  0  0  0  0  0  0  0
   36.8800   27.8090   34.3570 C   0  0  0  0  0  0  0  0  0  0  0  0
   36.0530   28.7080   33.7090 C   0  0  0  0  0  0  0  0  0  0  0  0
   35.5890   28.4040   32.4540 C   0  0  0  0  0  0  0  0  0  0  0  0
   35.9870   27.2030   31.9200 C   0  0  0  0  0  0  0  0  0  0  0  0
   37.2520   28.0510   35.3610 H   0  0  0  0  0  0  0  0  0  0  0  0
   35.8170   29.6030   34.2300 H   0  0  0  0  0  0  0  0  0  0  0  0
   34.9620   29.1270   32.0050 H   0  0  0  0  0  0  0  0  0  0  0  0
   35.5530   27.0830   30.9180 H   0  0  0  0  0  0  0  0  0  0  0  0
   40.3380   24.8130   34.7260 C   0  0  0  0  0  0  0  0  0  0  0  0
   39.4420   25.6300   34.0570 C   0  0  0  0  0  0  0  0  0  0  0  0
   38.1570   25.7630   34.5070 C   0  0  0  0  0  0  0  0  0  0  0  0
   37.8210   25.0670   35.6270 N   0  0  0  0  0  0  0  0  0  0  0  0
   38.6850   24.2810   36.2780 C   0  0  0  0  0  0  0  0  0  0  0  0
   39.9360   24.1570   35.8220 N   0  0  0  0  0  0  0  0  0  0  0  0
   41.3640   24.5960   34.5120 H   0  0  0  0  0  0  0  0  0  0  0  0
   40.0130   26.0510   33.2660 H   0  0  0  0  0  0  0  0  0  0  0  0
   38.1980   23.6380   37.5280 C   0  0  0  0  0  0  0  0  0  0  0  0
   39.2110   22.9910   38.2070 F   0  0  0  0  0  0  0  0  0  0  0  0
   37.8140   24.6750   38.4610 F   0  0  0  0  0  0  0  0  0  0  0  0
   37.1210   22.8910   37.4380 F   0  0  0  0  0  0  0  0  0  0  0  0
   37.1890   24.7980   31.7520 S   0  0  0  0  0  0  0  0  0  0  0  0
   38.1700   25.0140   30.6450 O   0  0  0  0  0  0  0  0  0  0  0  0
   35.9730   24.6990   30.8630 O   0  0  0  0  0  0  0  0  0  0  0  0
   36.8340   23.2290   32.2740 C   0  0  0  0  0  0  0  0  0  0  0  0
   37.6740   22.5620   32.4860 H   0  0  0  0  0  0  0  0  0  0  0  0
   36.3930   23.3520   33.3220 H   0  0  0  0  0  0  0  0  0  0  0  0
   35.7000   22.5610   31.5460 C   0  0  0  0  0  3  0  0  0  0  0  0
   35.0860   21.4040   32.3620 C   0  0  0  0  0  2  0  0  0  0  0  0
   35.8160   21.1680   31.0580 C   0  0  0  0  0  2  0  0  0  0  0  0
  1  2  1  0  0  0  0
  2  3  2  0  0  0  0
  2 13  1  0  0  0  0
  3  7  1  0  0  0  0
  4  8  1  0  0  0  0
  4  3  1  0  0  0  0
  5  4  2  0  0  0  0
  6  5  1  0  0  0  0
  6  1  2  0  0  0  0
  9  5  1  0  0  0  0
 10  6  1  0  0  0  0
 11 16  1  0  0  0  0
 12 13  1  0  0  0  0
 12 11  2  0  0  0  0
 13 14  2  0  0  0  0
 14 15  1  0  0  0  0
 15 19  1  0  0  0  0
 16 15  2  0  0  0  0
 17 11  1  0  0  0  0
 18 12  1  0  0  0  0
 19 20  1  0  0  0  0
 19 21  1  0  0  0  0
 22 19  1  0  0  0  0
 23 26  1  0  0  0  0
 23  1  1  0  0  0  0
 24 23  2  0  0  0  0
 25 23  2  0  0  0  0
 26 27  1  0  0  0  0
 26 28  1  0  0  0  0
 29 26  1  0  0  0  0
 29 30  1  0  0  0  0
 31 29  1  0  0  0  0
 31 30  1  0  0  0  0
M  END
>  <minimizedAffinity>
-5.84567976

$$$$

 OpenBabel03272510053D

 31 33  0  0  0  0  0  0  0  0999 V2000
   38.3480   24.8120   35.9230 C   0  0  0  0  0  0  0  0  0  0  0  0
   38.3610   24.6540   34.5730 C   0  0  0  0  0  0  0  0  0  0  0  0
   38.3530   25.7700   33.7400 C   0  0  0  0  0  0  0  0  0  0  0  0
   38.3280   27.0620   34.2300 C   0  0  0  0  0  0  0  0  0  0  0  0
   38.3100   27.2610   35.5870 C   0  0  0  0  0  0  0  0  0  0  0  0
   38.3200   26.1400   36.3790 C   0  0  0  0  0  0  0  0  0  0  0  0
   38.3670   25.6090   32.6540 H   0  0  0  0  0  0  0  0  0  0  0  0
   38.3250   27.8460   33.5130 H   0  0  0  0  0  0  0  0  0  0  0  0
   38.2900   28.2700   35.9070 H   0  0  0  0  0  0  0  0  0  0  0  0
   38.3010   26.4350   37.4370 H   0  0  0  0  0  0  0  0  0  0  0  0
   39.5130   21.6080   32.8640 C   0  0  0  0  0  0  0  0  0  0  0  0
   39.4990   22.8560   33.4650 C   0  0  0  0  0  0  0  0  0  0  0  0
   38.3370   23.3640   33.9760 C   0  0  0  0  0  0  0  0  0  0  0  0
   37.2240   22.5890   33.8680 N   0  0  0  0  0  0  0  0  0  0  0  0
   37.2350   21.3820   33.2920 C   0  0  0  0  0  0  0  0  0  0  0  0
   38.3790   20.9010   32.7920 N   0  0  0  0  0  0  0  0  0  0  0  0
   40.3220   21.0680   32.4160 H   0  0  0  0  0  0  0  0  0  0  0  0
   40.5120   23.1770   33.4250 H   0  0  0  0  0  0  0  0  0  0  0  0
   35.9590   20.6190   33.3090 C   0  0  0  0  0  0  0  0  0  0  0  0
   36.1210   19.3290   32.8420 F   0  0  0  0  0  0  0  0  0  0  0  0
   35.5680   20.4020   34.6850 F   0  0  0  0  0  0  0  0  0  0  0  0
   34.9070   21.1970   32.7770 F   0  0  0  0  0  0  0  0  0  0  0  0
   38.3940   23.5300   37.0460 S   0  0  0  0  0  0  0  0  0  0  0  0
   37.0650   22.8540   37.1500 O   0  0  0  0  0  0  0  0  0  0  0  0
   38.2590   24.3290   38.3200 O   0  0  0  0  0  0  0  0  0  0  0  0
   39.7620   22.8150   37.7360 C   0  0  0  0  0  0  0  0  0  0  0  0
   40.3430   23.4090   38.4460 H   0  0  0  0  0  0  0  0  0  0  0  0
   39.3590   21.9980   38.4270 H   0  0  0  0  0  0  0  0  0  0  0  0
   40.6060   22.0150   36.7830 C   0  0  0  0  0  3  0  0  0  0  0  0
   41.7860   21.3180   37.4940 C   0  0  0  0  0  2  0  0  0  0  0  0
   41.9980   22.4120   36.4710 C   0  0  0  0  0  2  0  0  0  0  0  0
  1  6  1  0  0  0  0
  1 23  1  0  0  0  0
  2  1  2  0  0  0  0
  3  4  2  0  0  0  0
  3  2  1  0  0  0  0
  4  5  1  0  0  0  0
  5  9  1  0  0  0  0
  5  6  2  0  0  0  0
  6 10  1  0  0  0  0
  7  3  1  0  0  0  0
  8  4  1  0  0  0  0
 11 12  1  0  0  0  0
 12 13  2  0  0  0  0
 13  2  1  0  0  0  0
 14 13  1  0  0  0  0
 15 19  1  0  0  0  0
 15 14  2  0  0  0  0
 16 11  2  0  0  0  0
 16 15  1  0  0  0  0
 17 11  1  0  0  0  0
 18 12  1  0  0  0  0
 19 21  1  0  0  0  0
 20 19  1  0  0  0  0
 22 19  1  0  0  0  0
 23 24  2  0  0  0  0
 23 26  1  0  0  0  0
 23 25  2  0  0  0  0
 26 28  1  0  0  0  0
 26 27  1  0  0  0  0
 29 30  1  0  0  0  0
 29 26  1  0  0  0  0
 31 29  1  0  0  0  0
 31 30  1  0  0  0  0
M  END
>  <minimizedAffinity>
-5.67441082

$$$$

 OpenBabel03272510053D

 31 33  0  0  0  0  0  0  0  0999 V2000
   37.1930   23.9490   32.5450 C   0  0  0  0  0  0  0  0  0  0  0  0
   37.5530   22.8750   33.2970 C   0  0  0  0  0  0  0  0  0  0  0  0
   37.0200   21.6200   33.0180 C   0  0  0  0  0  0  0  0  0  0  0  0
   36.1180   21.4070   31.9920 C   0  0  0  0  0  0  0  0  0  0  0  0
   35.7290   22.4670   31.2140 C   0  0  0  0  0  0  0  0  0  0  0  0
   36.2740   23.6910   31.5150 C   0  0  0  0  0  0  0  0  0  0  0  0
   37.3320   20.7720   33.6420 H   0  0  0  0  0  0  0  0  0  0  0  0
   35.7700   20.4110   31.8600 H   0  0  0  0  0  0  0  0  0  0  0  0
   35.0370   22.2470   30.4450 H   0  0  0  0  0  0  0  0  0  0  0  0
   35.8810   24.4500   30.8260 H   0  0  0  0  0  0  0  0  0  0  0  0
   40.6640   22.9270   35.2560 C   0  0  0  0  0  0  0  0  0  0  0  0
   39.7750   22.8210   34.2000 C   0  0  0  0  0  0  0  0  0  0  0  0
   38.4350   23.0060   34.4030 C   0  0  0  0  0  0  0  0  0  0  0  0
   38.0370   23.2980   35.6710 N   0  0  0  0  0  0  0  0  0  0  0  0
   38.8940   23.4050   36.6920 C   0  0  0  0  0  0  0  0  0  0  0  0
   40.2010   23.2160   36.4790 N   0  0  0  0  0  0  0  0  0  0  0  0
   41.7290   22.8120   35.2740 H   0  0  0  0  0  0  0  0  0  0  0  0
   40.3920   22.6280   33.3570 H   0  0  0  0  0  0  0  0  0  0  0  0
   38.3250   23.7990   38.0090 C   0  0  0  0  0  0  0  0  0  0  0  0
   37.2880   22.9720   38.3930 F   0  0  0  0  0  0  0  0  0  0  0  0
   39.3150   23.5480   39.0330 F   0  0  0  0  0  0  0  0  0  0  0  0
   38.0210   25.0660   38.1770 F   0  0  0  0  0  0  0  0  0  0  0  0
   37.8020   25.5270   32.7600 S   0  0  0  0  0  0  0  0  0  0  0  0
   36.7720   26.4260   33.3650 O   0  0  0  0  0  0  0  0  0  0  0  0
   37.6410   26.0370   31.3480 O   0  0  0  0  0  0  0  0  0  0  0  0
   39.4150   26.0290   32.6700 C   0  0  0  0  0  0  0  0  0  0  0  0
   40.1730   25.2680   32.4730 H   0  0  0  0  0  0  0  0  0  0  0  0
   39.4850   26.6490   31.7110 H   0  0  0  0  0  0  0  0  0  0  0  0
   39.8230   27.0360   33.7100 C   0  0  0  0  0  3  0  0  0  0  0  0
   41.0640   26.5790   34.5060 C   0  0  0  0  0  2  0  0  0  0  0  0
   39.7070   26.7360   35.1560 C   0  0  0  0  0  2  0  0  0  0  0  0
  1 23  1  0  0  0  0
  1  2  1  0  0  0  0
  2 13  1  0  0  0  0
  3  2  2  0  0  0  0
  3  7  1  0  0  0  0
  4  3  1  0  0  0  0
  5  6  1  0  0  0  0
  5  4  2  0  0  0  0
  6  1  2  0  0  0  0
  8  4  1  0  0  0  0
  9  5  1  0  0  0  0
 10  6  1  0  0  0  0
 11 17  1  0  0  0  0
 11 16  1  0  0  0  0
 12 13  1  0  0  0  0
 12 11  2  0  0  0  0
 13 14  2  0  0  0  0
 14 15  1  0  0  0  0
 15 19  1  0  0  0  0
 16 15  2  0  0  0  0
 18 12  1  0  0  0  0
 19 22  1  0  0  0  0
 19 20  1  0  0  0  0
 19 21  1  0  0  0  0
 23 24  2  0  0  0  0
 25 23  2  0  0  0  0
 26 23  1  0  0  0  0
 26 29  1  0  0  0  0
 27 26  1  0  0  0  0
 28 26  1  0  0  0  0
 29 30  1  0  0  0  0
 29 31  1  0  0  0  0
 30 31  1  0  0  0  0
M  END
>  <minimizedAffinity>
-5.64032888

$$$$

 OpenBabel03272510053D

 31 33  0  0  0  0  0  0  0  0999 V2000
   37.5300   24.0270   32.9530 C   0  0  0  0  0  0  0  0  0  0  0  0
   37.6760   22.8620   33.6380 C   0  0  0  0  0  0  0  0  0  0  0  0
   36.9710   21.7290   33.2450 C   0  0  0  0  0  0  0  0  0  0  0  0
   36.1050   21.7290   32.1680 C   0  0  0  0  0  0  0  0  0  0  0  0
   35.9280   22.8860   31.4540 C   0  0  0  0  0  0  0  0  0  0  0  0
   36.6390   23.9850   31.8680 C   0  0  0  0  0  0  0  0  0  0  0  0
   37.1130   20.8020   33.8180 H   0  0  0  0  0  0  0  0  0  0  0  0
   35.6140   20.8120   31.9480 H   0  0  0  0  0  0  0  0  0  0  0  0
   35.2530   22.8300   30.6420 H   0  0  0  0  0  0  0  0  0  0  0  0
   36.4070   24.8410   31.2190 H   0  0  0  0  0  0  0  0  0  0  0  0
   40.5840   22.1150   35.7630 C   0  0  0  0  0  0  0  0  0  0  0  0
   39.7510   22.2260   34.6610 C   0  0  0  0  0  0  0  0  0  0  0  0
   38.5060   22.7780   34.7890 C   0  0  0  0  0  0  0  0  0  0  0  0
   38.1440   23.2060   36.0290 N   0  0  0  0  0  0  0  0  0  0  0  0
   38.9480   23.1040   37.0930 C   0  0  0  0  0  0  0  0  0  0  0  0
   40.1610   22.5570   36.9540 N   0  0  0  0  0  0  0  0  0  0  0  0
   41.5730   21.7120   35.8400 H   0  0  0  0  0  0  0  0  0  0  0  0
   40.3310   21.8460   33.8560 H   0  0  0  0  0  0  0  0  0  0  0  0
   38.4480   23.6780   38.3710 C   0  0  0  0  0  0  0  0  0  0  0  0
   37.8530   24.9100   38.1870 F   0  0  0  0  0  0  0  0  0  0  0  0
   37.3430   22.8690   38.8380 F   0  0  0  0  0  0  0  0  0  0  0  0
   39.2750   23.6870   39.3900 F   0  0  0  0  0  0  0  0  0  0  0  0
   38.3640   25.4700   33.3100 S   0  0  0  0  0  0  0  0  0  0  0  0
   39.6180   25.1950   34.0740 O   0  0  0  0  0  0  0  0  0  0  0  0
   37.5530   25.9220   34.5010 O   0  0  0  0  0  0  0  0  0  0  0  0
   38.0950   27.0040   32.6490 C   0  0  0  0  0  0  0  0  0  0  0  0
   38.9150   27.7250   32.6910 H   0  0  0  0  0  0  0  0  0  0  0  0
   38.0210   26.8370   31.5200 H   0  0  0  0  0  0  0  0  0  0  0  0
   36.7490   27.5980   32.9560 C   0  0  0  0  0  3  0  0  0  0  0  0
   35.8520   27.6880   31.7020 C   0  0  0  0  0  2  0  0  0  0  0  0
   36.3540   28.9210   32.4210 C   0  0  0  0  0  2  0  0  0  0  0  0
  1 23  1  0  0  0  0
  1  2  1  0  0  0  0
  2 13  1  0  0  0  0
  3  2  2  0  0  0  0
  3  7  1  0  0  0  0
  4  3  1  0  0  0  0
  5  6  1  0  0  0  0
  5  4  2  0  0  0  0
  6  1  2  0  0  0  0
  8  4  1  0  0  0  0
  9  5  1  0  0  0  0
 10  6  1  0  0  0  0
 11 17  1  0  0  0  0
 11 16  1  0  0  0  0
 12 13  1  0  0  0  0
 12 11  2  0  0  0  0
 13 14  2  0  0  0  0
 14 15  1  0  0  0  0
 15 19  1  0  0  0  0
 16 15  2  0  0  0  0
 18 12  1  0  0  0  0
 19 21  1  0  0  0  0
 19 22  1  0  0  0  0
 20 19  1  0  0  0  0
 23 24  2  0  0  0  0
 23 25  2  0  0  0  0
 26 27  1  0  0  0  0
 26 29  1  0  0  0  0
 26 23  1  0  0  0  0
 28 26  1  0  0  0  0
 30 31  1  0  0  0  0
 30 29  1  0  0  0  0
 31 29  1  0  0  0  0
M  END
>  <minimizedAffinity>
-5.54113054

$$$$

 OpenBabel03272510053D

 31 33  0  0  0  0  0  0  0  0999 V2000
   39.0440   26.5370   33.8720 C   0  0  0  0  0  0  0  0  0  0  0  0
   38.8590   26.1830   32.5730 C   0  0  0  0  0  0  0  0  0  0  0  0
   39.8670   26.4060   31.6390 C   0  0  0  0  0  0  0  0  0  0  0  0
   41.0750   26.9880   31.9750 C   0  0  0  0  0  0  0  0  0  0  0  0
   41.2960   27.3630   33.2750 C   0  0  0  0  0  0  0  0  0  0  0  0
   40.2820   27.1280   34.1710 C   0  0  0  0  0  0  0  0  0  0  0  0
   39.6880   26.1060   30.5980 H   0  0  0  0  0  0  0  0  0  0  0  0
   41.7800   27.1150   31.1900 H   0  0  0  0  0  0  0  0  0  0  0  0
   42.2370   27.8050   33.4760 H   0  0  0  0  0  0  0  0  0  0  0  0
   40.5830   27.4750   35.1690 H   0  0  0  0  0  0  0  0  0  0  0  0
   35.4990   25.9410   31.0950 C   0  0  0  0  0  0  0  0  0  0  0  0
   36.7120   26.4470   31.5340 C   0  0  0  0  0  0  0  0  0  0  0  0
   37.6320   25.6240   32.1230 C   0  0  0  0  0  0  0  0  0  0  0  0
   37.2970   24.3100   32.2460 N   0  0  0  0  0  0  0  0  0  0  0  0
   36.1280   23.8190   31.8190 C   0  0  0  0  0  0  0  0  0  0  0  0
   35.2370   24.6380   31.2490 N   0  0  0  0  0  0  0  0  0  0  0  0
   34.6770   26.4380   30.6220 H   0  0  0  0  0  0  0  0  0  0  0  0
   36.6810   27.4740   31.2630 H   0  0  0  0  0  0  0  0  0  0  0  0
   35.9280   22.3510   31.9540 C   0  0  0  0  0  0  0  0  0  0  0  0
   36.3040   21.6700   30.8140 F   0  0  0  0  0  0  0  0  0  0  0  0
   36.8610   21.8470   32.9380 F   0  0  0  0  0  0  0  0  0  0  0  0
   34.7610   21.9430   32.3990 F   0  0  0  0  0  0  0  0  0  0  0  0
   37.9040   26.2840   35.1150 S   0  0  0  0  0  0  0  0  0  0  0  0
   36.7290   27.1950   34.9650 O   0  0  0  0  0  0  0  0  0  0  0  0
   38.5740   27.0740   36.2130 O   0  0  0  0  0  0  0  0  0  0  0  0
   37.8370   24.9880   36.2000 C   0  0  0  0  0  0  0  0  0  0  0  0
   37.5270   25.2010   37.2260 H   0  0  0  0  0  0  0  0  0  0  0  0
   36.9620   24.3430   35.8460 H   0  0  0  0  0  0  0  0  0  0  0  0
   38.9840   24.0210   36.1030 C   0  0  0  0  0  3  0  0  0  0  0  0
   38.5030   22.5610   35.9580 C   0  0  0  0  0  2  0  0  0  0  0  0
   39.2550   23.0420   37.1800 C   0  0  0  0  0  2  0  0  0  0  0  0
  1  6  1  0  0  0  0
  1 23  1  0  0  0  0
  2  1  2  0  0  0  0
  3  4  2  0  0  0  0
  3  2  1  0  0  0  0
  4  5  1  0  0  0  0
  5  9  1  0  0  0  0
  5  6  2  0  0  0  0
  6 10  1  0  0  0  0
  7  3  1  0  0  0  0
  8  4  1  0  0  0  0
 11 16  2  0  0  0  0
 11 12  1  0  0  0  0
 12 13  2  0  0  0  0
 13 14  1  0  0  0  0
 13  2  1  0  0  0  0
 15 19  1  0  0  0  0
 15 14  2  0  0  0  0
 16 15  1  0  0  0  0
 17 11  1  0  0  0  0
 18 12  1  0  0  0  0
 19 22  1  0  0  0  0
 19 21  1  0  0  0  0
 20 19  1  0  0  0  0
 23 26  1  0  0  0  0
 23 25  2  0  0  0  0
 24 23  2  0  0  0  0
 26 27  1  0  0  0  0
 28 26  1  0  0  0  0
 29 26  1  0  0  0  0
 29 31  1  0  0  0  0
 30 29  1  0  0  0  0
 30 31  1  0  0  0  0
M  END
>  <minimizedAffinity>
-5.37126255

$$$$

 OpenBabel03272510053D

 31 33  0  0  0  0  0  0  0  0999 V2000
   37.7080   24.9130   33.3770 C   0  0  0  0  0  0  0  0  0  0  0  0
   37.0520   24.4490   32.2800 C   0  0  0  0  0  0  0  0  0  0  0  0
   36.2780   25.3150   31.5130 C   0  0  0  0  0  0  0  0  0  0  0  0
   36.1360   26.6550   31.8210 C   0  0  0  0  0  0  0  0  0  0  0  0
   36.7780   27.1590   32.9230 C   0  0  0  0  0  0  0  0  0  0  0  0
   37.5350   26.2790   33.6570 C   0  0  0  0  0  0  0  0  0  0  0  0
   35.7640   24.9100   30.6310 H   0  0  0  0  0  0  0  0  0  0  0  0
   35.5230   27.2330   31.1730 H   0  0  0  0  0  0  0  0  0  0  0  0
   36.6330   28.1900   33.1120 H   0  0  0  0  0  0  0  0  0  0  0  0
   37.9900   26.8030   34.5080 H   0  0  0  0  0  0  0  0  0  0  0  0
   38.0490   21.3600   30.5520 C   0  0  0  0  0  0  0  0  0  0  0  0
   37.9840   22.6860   30.9460 C   0  0  0  0  0  0  0  0  0  0  0  0
   37.0990   23.0770   31.9130 C   0  0  0  0  0  0  0  0  0  0  0  0
   36.3100   22.1100   32.4560 N   0  0  0  0  0  0  0  0  0  0  0  0
   36.3750   20.8280   32.0810 C   0  0  0  0  0  0  0  0  0  0  0  0
   37.2410   20.4620   31.1300 N   0  0  0  0  0  0  0  0  0  0  0  0
   38.6720   20.8890   29.8190 H   0  0  0  0  0  0  0  0  0  0  0  0
   38.7390   23.1670   30.3730 H   0  0  0  0  0  0  0  0  0  0  0  0
   35.5020   19.8700   32.8110 C   0  0  0  0  0  0  0  0  0  0  0  0
   34.2880   19.6890   32.1790 F   0  0  0  0  0  0  0  0  0  0  0  0
   36.0930   18.5520   32.7280 F   0  0  0  0  0  0  0  0  0  0  0  0
   35.3520   20.0590   34.1020 F   0  0  0  0  0  0  0  0  0  0  0  0
   38.7140   23.9650   34.3750 S   0  0  0  0  0  0  0  0  0  0  0  0
   39.4490   22.9350   33.5780 O   0  0  0  0  0  0  0  0  0  0  0  0
   37.6750   23.0200   34.9280 O   0  0  0  0  0  0  0  0  0  0  0  0
   39.1650   24.2770   35.9750 C   0  0  0  0  0  0  0  0  0  0  0  0
   40.2320   24.3750   36.1920 H   0  0  0  0  0  0  0  0  0  0  0  0
   38.8100   25.3440   36.1860 H   0  0  0  0  0  0  0  0  0  0  0  0
   38.4050   23.4960   37.0100 C   0  0  0  0  0  3  0  0  0  0  0  0
   37.9540   24.3800   38.1920 C   0  0  0  0  0  2  0  0  0  0  0  0
   38.9640   23.2670   38.3620 C   0  0  0  0  0  2  0  0  0  0  0  0
  1  6  1  0  0  0  0
  1 23  1  0  0  0  0
  2  1  2  0  0  0  0
  3  4  2  0  0  0  0
  3  2  1  0  0  0  0
  4  5  1  0  0  0  0
  5  9  1  0  0  0  0
  5  6  2  0  0  0  0
  6 10  1  0  0  0  0
  7  3  1  0  0  0  0
  8  4  1  0  0  0  0
 11 12  2  0  0  0  0
 11 16  1  0  0  0  0
 12 13  1  0  0  0  0
 13  2  1  0  0  0  0
 13 14  2  0  0  0  0
 15 14  1  0  0  0  0
 15 19  1  0  0  0  0
 16 15  2  0  0  0  0
 17 11  1  0  0  0  0
 18 12  1  0  0  0  0
 19 22  1  0  0  0  0
 20 19  1  0  0  0  0
 21 19  1  0  0  0  0
 23 25  2  0  0  0  0
 23 26  1  0  0  0  0
 24 23  2  0  0  0  0
 26 28  1  0  0  0  0
 26 27  1  0  0  0  0
 26 29  1  0  0  0  0
 29 30  1  0  0  0  0
 29 31  1  0  0  0  0
 30 31  1  0  0  0  0
M  END
>  <minimizedAffinity>
-5.35602427

$$$$

 OpenBabel03272510053D

 31 33  0  0  0  0  0  0  0  0999 V2000
   36.2680   29.6040   31.5870 C   0  0  0  0  0  0  0  0  0  0  0  0
   37.2270   28.6710   31.3490 C   0  0  0  0  0  0  0  0  0  0  0  0
   38.0440   28.7820   30.2280 C   0  0  0  0  0  0  0  0  0  0  0  0
   37.9230   29.8170   29.3190 C   0  0  0  0  0  0  0  0  0  0  0  0
   36.9630   30.7750   29.5230 C   0  0  0  0  0  0  0  0  0  0  0  0
   36.1760   30.6370   30.6400 C   0  0  0  0  0  0  0  0  0  0  0  0
   38.8120   28.0140   30.0650 H   0  0  0  0  0  0  0  0  0  0  0  0
   38.5940   29.8120   28.4960 H   0  0  0  0  0  0  0  0  0  0  0  0
   36.9140   31.5430   28.7970 H   0  0  0  0  0  0  0  0  0  0  0  0
   35.4510   31.4610   30.6840 H   0  0  0  0  0  0  0  0  0  0  0  0
   36.9670   25.2360   32.6360 C   0  0  0  0  0  0  0  0  0  0  0  0
   36.8380   26.3530   31.8270 C   0  0  0  0  0  0  0  0  0  0  0  0
   37.3940   27.5450   32.2000 C   0  0  0  0  0  0  0  0  0  0  0  0
   38.0720   27.5690   33.3800 N   0  0  0  0  0  0  0  0  0  0  0  0
   38.2020   26.4910   34.1610 C   0  0  0  0  0  0  0  0  0  0  0  0
   37.6470   25.3330   33.7850 N   0  0  0  0  0  0  0  0  0  0  0  0
   36.5980   24.2400   32.5000 H   0  0  0  0  0  0  0  0  0  0  0  0
   36.3000   26.0010   30.9800 H   0  0  0  0  0  0  0  0  0  0  0  0
   39.0300   26.6460   35.3870 C   0  0  0  0  0  0  0  0  0  0  0  0
   38.7040   27.7900   36.0900 F   0  0  0  0  0  0  0  0  0  0  0  0
   38.6730   25.5990   36.3200 F   0  0  0  0  0  0  0  0  0  0  0  0
   40.3290   26.5130   35.2560 F   0  0  0  0  0  0  0  0  0  0  0  0
   35.2320   29.6020   32.9410 S   0  0  0  0  0  0  0  0  0  0  0  0
   33.9520   28.8880   32.6420 O   0  0  0  0  0  0  0  0  0  0  0  0
   34.6650   30.9950   32.8070 O   0  0  0  0  0  0  0  0  0  0  0  0
   35.6230   30.0030   34.5370 C   0  0  0  0  0  0  0  0  0  0  0  0
   35.4870   29.2340   35.3010 H   0  0  0  0  0  0  0  0  0  0  0  0
   36.7610   30.1120   34.5500 H   0  0  0  0  0  0  0  0  0  0  0  0
   35.1830   31.3730   34.9710 C   0  0  0  0  0  3  0  0  0  0  0  0
   36.2920   32.1250   35.7390 C   0  0  0  0  0  2  0  0  0  0  0  0
   34.9990   31.7030   36.4030 C   0  0  0  0  0  2  0  0  0  0  0  0
  1 23  1  0  0  0  0
  2  1  1  0  0  0  0
  2 13  1  0  0  0  0
  3  2  2  0  0  0  0
  4  5  2  0  0  0  0
  4  3  1  0  0  0  0
  5  6  1  0  0  0  0
  6 10  1  0  0  0  0
  6  1  2  0  0  0  0
  7  3  1  0  0  0  0
  8  4  1  0  0  0  0
  9  5  1  0  0  0  0
 11 16  1  0  0  0  0
 12 13  1  0  0  0  0
 12 11  2  0  0  0  0
 13 14  2  0  0  0  0
 14 15  1  0  0  0  0
 15 19  1  0  0  0  0
 16 15  2  0  0  0  0
 17 11  1  0  0  0  0
 18 12  1  0  0  0  0
 19 20  1  0  0  0  0
 19 21  1  0  0  0  0
 22 19  1  0  0  0  0
 23 26  1  0  0  0  0
 24 23  2  0  0  0  0
 25 23  2  0  0  0  0
 26 28  1  0  0  0  0
 26 29  1  0  0  0  0
 26 27  1  0  0  0  0
 29 30  1  0  0  0  0
 29 31  1  0  0  0  0
 30 31  1  0  0  0  0
M  END
>  <minimizedAffinity>
-5.20659256

$$$$

 OpenBabel03272510053D

 31 33  0  0  0  0  0  0  0  0999 V2000
   41.2590   25.4670   34.0340 C   0  0  0  0  0  0  0  0  0  0  0  0
   39.9090   25.3140   33.9970 C   0  0  0  0  0  0  0  0  0  0  0  0
   39.1340   26.1490   33.1980 C   0  0  0  0  0  0  0  0  0  0  0  0
   39.6830   27.1540   32.4230 C   0  0  0  0  0  0  0  0  0  0  0  0
   41.0410   27.3420   32.4370 C   0  0  0  0  0  0  0  0  0  0  0  0
   41.7760   26.5000   33.2350 C   0  0  0  0  0  0  0  0  0  0  0  0
   38.0460   25.9980   33.1880 H   0  0  0  0  0  0  0  0  0  0  0  0
   39.0070   27.7370   31.8470 H   0  0  0  0  0  0  0  0  0  0  0  0
   41.4060   28.1250   31.8270 H   0  0  0  0  0  0  0  0  0  0  0  0
   42.8410   26.7560   33.1590 H   0  0  0  0  0  0  0  0  0  0  0  0
   38.1140   22.2450   34.9390 C   0  0  0  0  0  0  0  0  0  0  0  0
   38.7730   23.2100   34.1950 C   0  0  0  0  0  0  0  0  0  0  0  0
   39.2510   24.3410   34.7970 C   0  0  0  0  0  0  0  0  0  0  0  0
   39.0510   24.4580   36.1380 N   0  0  0  0  0  0  0  0  0  0  0  0
   38.4190   23.5260   36.8600 C   0  0  0  0  0  0  0  0  0  0  0  0
   37.9520   22.4270   36.2550 N   0  0  0  0  0  0  0  0  0  0  0  0
   37.6800   21.3160   34.6320 H   0  0  0  0  0  0  0  0  0  0  0  0
   38.7970   22.8100   33.2110 H   0  0  0  0  0  0  0  0  0  0  0  0
   38.3370   23.7540   38.3270 C   0  0  0  0  0  0  0  0  0  0  0  0
   37.8330   25.0040   38.6300 F   0  0  0  0  0  0  0  0  0  0  0  0
   37.3280   22.8740   38.8750 F   0  0  0  0  0  0  0  0  0  0  0  0
   39.4050   23.4780   39.0390 F   0  0  0  0  0  0  0  0  0  0  0  0
   42.3190   24.4870   34.9410 S   0  0  0  0  0  0  0  0  0  0  0  0
   43.2560   25.3160   35.7590 O   0  0  0  0  0  0  0  0  0  0  0  0
   43.3160   24.1520   33.8570 O   0  0  0  0  0  0  0  0  0  0  0  0
   42.1930   22.8240   35.2250 C   0  0  0  0  0  0  0  0  0  0  0  0
   41.4270   22.2720   34.6770 H   0  0  0  0  0  0  0  0  0  0  0  0
   43.1420   22.3690   34.7760 H   0  0  0  0  0  0  0  0  0  0  0  0
   42.3180   22.4180   36.6670 C   0  0  0  0  0  3  0  0  0  0  0  0
   42.6830   20.9260   36.8220 C   0  0  0  0  0  2  0  0  0  0  0  0
   41.3530   21.4800   37.2870 C   0  0  0  0  0  2  0  0  0  0  0  0
  1 23  1  0  0  0  0
  2  1  1  0  0  0  0
  2 13  1  0  0  0  0
  3  2  2  0  0  0  0
  4  5  2  0  0  0  0
  4  3  1  0  0  0  0
  5  6  1  0  0  0  0
  6  1  2  0  0  0  0
  7  3  1  0  0  0  0
  8  4  1  0  0  0  0
  9  5  1  0  0  0  0
 10  6  1  0  0  0  0
 11 16  1  0  0  0  0
 12 13  1  0  0  0  0
 12 11  2  0  0  0  0
 13 14  2  0  0  0  0
 14 15  1  0  0  0  0
 15 19  1  0  0  0  0
 16 15  2  0  0  0  0
 17 11  1  0  0  0  0
 18 12  1  0  0  0  0
 19 20  1  0  0  0  0
 19 21  1  0  0  0  0
 19 22  1  0  0  0  0
 23 26  1  0  0  0  0
 23 24  2  0  0  0  0
 25 23  2  0  0  0  0
 26 29  1  0  0  0  0
 27 26  1  0  0  0  0
 28 26  1  0  0  0  0
 29 30  1  0  0  0  0
 29 31  1  0  0  0  0
 30 31  1  0  0  0  0
M  END
>  <minimizedAffinity>
-5.20204163

$$$$

 OpenBabel03272510053D

 31 33  0  0  0  0  0  0  0  0999 V2000
   37.1880   24.4530   32.7040 C   0  0  0  0  0  0  0  0  0  0  0  0
   37.5740   23.2960   33.3060 C   0  0  0  0  0  0  0  0  0  0  0  0
   37.0510   22.0800   32.8760 C   0  0  0  0  0  0  0  0  0  0  0  0
   36.1350   21.9870   31.8460 C   0  0  0  0  0  0  0  0  0  0  0  0
   35.7190   23.1330   31.2170 C   0  0  0  0  0  0  0  0  0  0  0  0
   36.2540   24.3150   31.6650 C   0  0  0  0  0  0  0  0  0  0  0  0
   37.3850   21.1630   33.3810 H   0  0  0  0  0  0  0  0  0  0  0  0
   35.7960   21.0120   31.5920 H   0  0  0  0  0  0  0  0  0  0  0  0
   35.0160   23.0040   30.4380 H   0  0  0  0  0  0  0  0  0  0  0  0
   35.8400   25.1510   31.0850 H   0  0  0  0  0  0  0  0  0  0  0  0
   40.7180   23.1380   35.2060 C   0  0  0  0  0  0  0  0  0  0  0  0
   39.8120   23.1560   34.1590 C   0  0  0  0  0  0  0  0  0  0  0  0
   38.4740   23.2960   34.4060 C   0  0  0  0  0  0  0  0  0  0  0  0
   38.0950   23.4190   35.7070 N   0  0  0  0  0  0  0  0  0  0  0  0
   38.9690   23.4070   36.7200 C   0  0  0  0  0  0  0  0  0  0  0  0
   40.2740   23.2630   36.4630 N   0  0  0  0  0  0  0  0  0  0  0  0
   41.7840   23.0350   35.1930 H   0  0  0  0  0  0  0  0  0  0  0  0
   40.4160   23.0800   33.2890 H   0  0  0  0  0  0  0  0  0  0  0  0
   38.4180   23.6220   38.0840 C   0  0  0  0  0  0  0  0  0  0  0  0
   39.3930   23.5270   39.0580 F   0  0  0  0  0  0  0  0  0  0  0  0
   38.0000   25.0030   38.2010 F   0  0  0  0  0  0  0  0  0  0  0  0
   37.3410   22.9460   38.4110 F   0  0  0  0  0  0  0  0  0  0  0  0
   37.7820   25.9980   33.1120 S   0  0  0  0  0  0  0  0  0  0  0  0
   37.0890   26.5420   34.3200 O   0  0  0  0  0  0  0  0  0  0  0  0
   37.0080   26.8200   32.1080 O   0  0  0  0  0  0  0  0  0  0  0  0
   39.1790   26.7510   32.5270 C   0  0  0  0  0  0  0  0  0  0  0  0
   39.5760   27.5960   33.0950 H   0  0  0  0  0  0  0  0  0  0  0  0
   40.0170   25.9870   32.6760 H   0  0  0  0  0  0  0  0  0  0  0  0
   39.2140   26.9520   31.0380 C   0  0  0  0  0  3  0  0  0  0  0  0
   40.5090   26.3990   30.4060 C   0  0  0  0  0  2  0  0  0  0  0  0
   40.1850   27.8770   30.4110 C   0  0  0  0  0  2  0  0  0  0  0  0
  1 23  1  0  0  0  0
  1  2  1  0  0  0  0
  2 13  1  0  0  0  0
  3  2  2  0  0  0  0
  3  7  1  0  0  0  0
  4  3  1  0  0  0  0
  5  6  1  0  0  0  0
  5  4  2  0  0  0  0
  6  1  2  0  0  0  0
  8  4  1  0  0  0  0
  9  5  1  0  0  0  0
 10  6  1  0  0  0  0
 11 16  1  0  0  0  0
 12 13  1  0  0  0  0
 12 11  2  0  0  0  0
 13 14  2  0  0  0  0
 14 15  1  0  0  0  0
 15 19  1  0  0  0  0
 16 15  2  0  0  0  0
 17 11  1  0  0  0  0
 18 12  1  0  0  0  0
 19 21  1  0  0  0  0
 19 22  1  0  0  0  0
 19 20  1  0  0  0  0
 23 24  2  0  0  0  0
 25 23  2  0  0  0  0
 26 28  1  0  0  0  0
 26 27  1  0  0  0  0
 26 23  1  0  0  0  0
 29 26  1  0  0  0  0
 30 31  1  0  0  0  0
 30 29  1  0  0  0  0
 31 29  1  0  0  0  0
M  END
>  <minimizedAffinity>
-5.16505527

$$$$
