
 OpenBabel03262521153D

 13 14  0  0  0  0  0  0  0  0999 V2000
   38.3990   24.3330   36.3720 C   0  0  0  0  0  0  0  0  0  0  0  0
   37.9780   24.2110   37.6970 C   0  0  0  0  0  0  0  0  0  0  0  0
   38.7320   23.3990   38.5430 C   0  0  0  0  0  0  0  0  0  0  0  0
   39.8360   22.7710   38.0350 N   0  0  0  0  0  0  0  0  0  0  0  0
   40.2110   22.9130   36.7450 C   0  0  0  0  0  0  0  0  0  0  0  0
   39.4940   23.6930   35.9140 N   0  0  0  0  0  0  0  0  0  0  0  0
   37.1330   24.6800   38.1320 H   0  0  0  0  0  0  0  0  0  0  0  0
   38.5020   23.2320   39.5820 H   0  0  0  0  0  0  0  0  0  0  0  0
   41.0850   22.4120   36.3490 H   0  0  0  0  0  0  0  0  0  0  0  0
   37.5580   25.1680   35.6450 O   0  0  0  0  0  0  0  0  0  0  0  0
   38.1350   26.2560   34.9770 C   0  0  0  0  0  3  0  0  0  0  0  0
   37.2190   27.4880   34.9160 C   0  0  0  0  0  2  0  0  0  0  0  0
   38.5310   27.4950   35.6610 C   0  0  0  0  0  2  0  0  0  0  0  0
  1  2  1  0  0  0  0
  2  7  1  0  0  0  0
  2  3  2  0  0  0  0
  3  8  1  0  0  0  0
  4  3  1  0  0  0  0
  5  4  2  0  0  0  0
  6  1  2  0  0  0  0
  6  5  1  0  0  0  0
  9  5  1  0  0  0  0
 10  1  1  0  0  0  0
 11 10  1  0  0  0  0
 11 13  1  0  0  0  0
 12 11  1  0  0  0  0
 12 13  1  0  0  0  0
M  END
>  <minimizedAffinity>
-3.47546625

$$$$

 OpenBabel03262521153D

 13 14  0  0  0  0  0  0  0  0999 V2000
   38.1690   24.4300   36.6310 C   0  0  0  0  0  0  0  0  0  0  0  0
   39.2330   23.8470   35.9390 C   0  0  0  0  0  0  0  0  0  0  0  0
   40.0800   23.0000   36.6510 C   0  0  0  0  0  0  0  0  0  0  0  0
   39.8280   22.7860   37.9790 N   0  0  0  0  0  0  0  0  0  0  0  0
   38.7880   23.3700   38.6130 C   0  0  0  0  0  0  0  0  0  0  0  0
   37.9590   24.1900   37.9410 N   0  0  0  0  0  0  0  0  0  0  0  0
   39.4630   23.9840   34.9140 H   0  0  0  0  0  0  0  0  0  0  0  0
   40.9300   22.4970   36.2220 H   0  0  0  0  0  0  0  0  0  0  0  0
   38.5940   23.1960   39.6640 H   0  0  0  0  0  0  0  0  0  0  0  0
   37.4080   25.2470   35.8020 O   0  0  0  0  0  0  0  0  0  0  0  0
   38.0740   26.2420   35.0750 C   0  0  0  0  0  3  0  0  0  0  0  0
   37.2340   27.5130   34.8720 C   0  0  0  0  0  2  0  0  0  0  0  0
   38.5120   27.5110   35.6740 C   0  0  0  0  0  2  0  0  0  0  0  0
  1  6  1  0  0  0  0
  2  1  2  0  0  0  0
  2  3  1  0  0  0  0
  3  4  2  0  0  0  0
  4  5  1  0  0  0  0
  5  9  1  0  0  0  0
  6  5  2  0  0  0  0
  7  2  1  0  0  0  0
  8  3  1  0  0  0  0
 10  1  1  0  0  0  0
 11 13  1  0  0  0  0
 11 10  1  0  0  0  0
 12 11  1  0  0  0  0
 12 13  1  0  0  0  0
M  END
>  <minimizedAffinity>
-3.41396999

$$$$

 OpenBabel03262521153D

 13 14  0  0  0  0  0  0  0  0999 V2000
   38.1880   25.4620   35.2400 C   0  0  0  0  0  0  0  0  0  0  0  0
   37.9120   26.7630   35.6660 C   0  0  0  0  0  0  0  0  0  0  0  0
   37.2470   27.6060   34.7780 C   0  0  0  0  0  0  0  0  0  0  0  0
   36.9010   27.1200   33.5470 N   0  0  0  0  0  0  0  0  0  0  0  0
   37.1860   25.8540   33.1710 C   0  0  0  0  0  0  0  0  0  0  0  0
   37.8290   25.0260   34.0160 N   0  0  0  0  0  0  0  0  0  0  0  0
   38.1600   27.1790   36.6090 H   0  0  0  0  0  0  0  0  0  0  0  0
   36.9830   28.6270   34.9990 H   0  0  0  0  0  0  0  0  0  0  0  0
   36.9100   25.4760   32.1950 H   0  0  0  0  0  0  0  0  0  0  0  0
   38.8520   24.7340   36.2210 O   0  0  0  0  0  0  0  0  0  0  0  0
   38.0770   24.0090   37.1350 C   0  0  0  0  0  3  0  0  0  0  0  0
   38.9160   23.2400   38.1680 C   0  0  0  0  0  2  0  0  0  0  0  0
   37.9850   24.3610   38.5590 C   0  0  0  0  0  2  0  0  0  0  0  0
  1  2  1  0  0  0  0
  1 10  1  0  0  0  0
  2  7  1  0  0  0  0
  3  8  1  0  0  0  0
  3  2  2  0  0  0  0
  4  3  1  0  0  0  0
  5  4  2  0  0  0  0
  5  6  1  0  0  0  0
  6  1  2  0  0  0  0
  9  5  1  0  0  0  0
 10 11  1  0  0  0  0
 11 12  1  0  0  0  0
 11 13  1  0  0  0  0
 12 13  1  0  0  0  0
M  END
>  <minimizedAffinity>
-3.28884077

$$$$

 OpenBabel03262521153D

 13 14  0  0  0  0  0  0  0  0999 V2000
   37.1060   25.6640   32.9290 C   0  0  0  0  0  0  0  0  0  0  0  0
   36.7170   26.9540   32.5640 C   0  0  0  0  0  0  0  0  0  0  0  0
   35.8380   27.0850   31.4900 C   0  0  0  0  0  0  0  0  0  0  0  0
   35.4070   25.9520   30.8550 N   0  0  0  0  0  0  0  0  0  0  0  0
   35.8080   24.7200   31.2370 C   0  0  0  0  0  0  0  0  0  0  0  0
   36.6560   24.5760   32.2730 N   0  0  0  0  0  0  0  0  0  0  0  0
   37.0240   27.8560   33.0280 H   0  0  0  0  0  0  0  0  0  0  0  0
   35.4710   28.0290   31.1220 H   0  0  0  0  0  0  0  0  0  0  0  0
   35.4630   23.8290   30.7290 H   0  0  0  0  0  0  0  0  0  0  0  0
   37.9790   25.6810   34.0100 O   0  0  0  0  0  0  0  0  0  0  0  0
   38.6850   26.8640   34.2610 C   0  0  0  0  0  3  0  0  0  0  0  0
   38.7530   27.2270   35.7530 C   0  0  0  0  0  2  0  0  0  0  0  0
   39.9840   26.8880   34.9500 C   0  0  0  0  0  2  0  0  0  0  0  0
  1 10  1  0  0  0  0
  2  1  1  0  0  0  0
  2  7  1  0  0  0  0
  3  2  2  0  0  0  0
  4  5  2  0  0  0  0
  4  3  1  0  0  0  0
  5  6  1  0  0  0  0
  6  1  2  0  0  0  0
  8  3  1  0  0  0  0
  9  5  1  0  0  0  0
 10 11  1  0  0  0  0
 11 13  1  0  0  0  0
 11 12  1  0  0  0  0
 13 12  1  0  0  0  0
M  END
>  <minimizedAffinity>
-3.11775446

$$$$

 OpenBabel03262521153D

 13 14  0  0  0  0  0  0  0  0999 V2000
   35.9100   23.8920   31.4850 C   0  0  0  0  0  0  0  0  0  0  0  0
   35.1870   24.9340   30.9020 C   0  0  0  0  0  0  0  0  0  0  0  0
   35.5430   26.2380   31.2410 C   0  0  0  0  0  0  0  0  0  0  0  0
   36.5740   26.4270   32.1210 N   0  0  0  0  0  0  0  0  0  0  0  0
   37.2500   25.3920   32.6660 C   0  0  0  0  0  0  0  0  0  0  0  0
   36.9190   24.1260   32.3480 N   0  0  0  0  0  0  0  0  0  0  0  0
   34.3850   24.8320   30.2160 H   0  0  0  0  0  0  0  0  0  0  0  0
   35.0560   27.1170   30.8530 H   0  0  0  0  0  0  0  0  0  0  0  0
   38.0640   25.5490   33.3620 H   0  0  0  0  0  0  0  0  0  0  0  0
   35.4510   22.6510   31.0590 O   0  0  0  0  0  0  0  0  0  0  0  0
   35.8760   21.5190   31.7650 C   0  0  0  0  0  3  0  0  0  0  0  0
   34.7450   20.5170   32.0470 C   0  0  0  0  0  2  0  0  0  0  0  0
   35.9230   20.1760   31.1680 C   0  0  0  0  0  2  0  0  0  0  0  0
  1  6  1  0  0  0  0
  2  3  1  0  0  0  0
  2  1  2  0  0  0  0
  3  4  2  0  0  0  0
  4  5  1  0  0  0  0
  5  9  1  0  0  0  0
  6  5  2  0  0  0  0
  7  2  1  0  0  0  0
  8  3  1  0  0  0  0
 10  1  1  0  0  0  0
 10 11  1  0  0  0  0
 11 12  1  0  0  0  0
 13 11  1  0  0  0  0
 13 12  1  0  0  0  0
M  END
>  <minimizedAffinity>
-3.07184672

$$$$

 OpenBabel03262521153D

 13 14  0  0  0  0  0  0  0  0999 V2000
   37.3790   21.8430   35.3500 C   0  0  0  0  0  0  0  0  0  0  0  0
   37.8400   22.2140   34.0850 C   0  0  0  0  0  0  0  0  0  0  0  0
   37.1300   21.7520   32.9780 C   0  0  0  0  0  0  0  0  0  0  0  0
   36.0300   20.9660   33.1860 N   0  0  0  0  0  0  0  0  0  0  0  0
   35.6160   20.6280   34.4270 C   0  0  0  0  0  0  0  0  0  0  0  0
   36.2900   21.0650   35.5070 N   0  0  0  0  0  0  0  0  0  0  0  0
   38.6840   22.8210   33.8790 H   0  0  0  0  0  0  0  0  0  0  0  0
   37.3920   21.9750   31.9570 H   0  0  0  0  0  0  0  0  0  0  0  0
   34.7450   20.0050   34.5850 H   0  0  0  0  0  0  0  0  0  0  0  0
   38.1780   22.3710   36.3580 O   0  0  0  0  0  0  0  0  0  0  0  0
   37.5760   23.2310   37.2860 C   0  0  0  0  0  3  0  0  0  0  0  0
   38.4800   23.5590   38.4850 C   0  0  0  0  0  2  0  0  0  0  0  0
   38.0280   24.6120   37.5040 C   0  0  0  0  0  2  0  0  0  0  0  0
  1  6  1  0  0  0  0
  1 10  1  0  0  0  0
  2  1  2  0  0  0  0
  3  4  2  0  0  0  0
  3  2  1  0  0  0  0
  4  5  1  0  0  0  0
  5  9  1  0  0  0  0
  5  6  2  0  0  0  0
  7  2  1  0  0  0  0
  8  3  1  0  0  0  0
 10 11  1  0  0  0  0
 11 13  1  0  0  0  0
 11 12  1  0  0  0  0
 13 12  1  0  0  0  0
M  END
>  <minimizedAffinity>
-3.03551912

$$$$

 OpenBabel03262521153D

 13 14  0  0  0  0  0  0  0  0999 V2000
   38.1750   23.3150   35.0580 C   0  0  0  0  0  0  0  0  0  0  0  0
   38.1300   24.2820   34.0530 C   0  0  0  0  0  0  0  0  0  0  0  0
   37.6510   23.8930   32.8030 C   0  0  0  0  0  0  0  0  0  0  0  0
   37.2550   22.5950   32.6280 N   0  0  0  0  0  0  0  0  0  0  0  0
   37.3150   21.6880   33.6260 C   0  0  0  0  0  0  0  0  0  0  0  0
   37.7750   22.0460   34.8400 N   0  0  0  0  0  0  0  0  0  0  0  0
   38.4240   25.2960   34.1450 H   0  0  0  0  0  0  0  0  0  0  0  0
   37.5700   24.5530   31.9550 H   0  0  0  0  0  0  0  0  0  0  0  0
   37.0000   20.6620   33.4810 H   0  0  0  0  0  0  0  0  0  0  0  0
   38.6710   23.8380   36.2470 O   0  0  0  0  0  0  0  0  0  0  0  0
   37.9620   23.5720   37.4250 C   0  0  0  0  0  3  0  0  0  0  0  0
   38.8700   23.3430   38.6430 C   0  0  0  0  0  2  0  0  0  0  0  0
   37.9150   24.5080   38.5570 C   0  0  0  0  0  2  0  0  0  0  0  0
  1 10  1  0  0  0  0
  2  7  1  0  0  0  0
  2  1  2  0  0  0  0
  3  2  1  0  0  0  0
  4  3  2  0  0  0  0
  4  5  1  0  0  0  0
  5  6  2  0  0  0  0
  6  1  1  0  0  0  0
  8  3  1  0  0  0  0
  9  5  1  0  0  0  0
 10 11  1  0  0  0  0
 11 13  1  0  0  0  0
 11 12  1  0  0  0  0
 13 12  1  0  0  0  0
M  END
>  <minimizedAffinity>
-2.98978162

$$$$

 OpenBabel03262521153D

 13 14  0  0  0  0  0  0  0  0999 V2000
   35.4230   21.3440   31.8480 C   0  0  0  0  0  0  0  0  0  0  0  0
   36.4060   21.1270   30.8800 C   0  0  0  0  0  0  0  0  0  0  0  0
   36.7140   19.8060   30.5570 C   0  0  0  0  0  0  0  0  0  0  0  0
   36.0440   18.8020   31.2000 N   0  0  0  0  0  0  0  0  0  0  0  0
   35.1000   19.0520   32.1320 C   0  0  0  0  0  0  0  0  0  0  0  0
   34.7890   20.3210   32.4560 N   0  0  0  0  0  0  0  0  0  0  0  0
   36.9460   21.8740   30.3580 H   0  0  0  0  0  0  0  0  0  0  0  0
   37.4530   19.5210   29.8270 H   0  0  0  0  0  0  0  0  0  0  0  0
   34.5740   18.2520   32.6370 H   0  0  0  0  0  0  0  0  0  0  0  0
   35.2170   22.7010   32.0700 O   0  0  0  0  0  0  0  0  0  0  0  0
   35.8610   23.6080   31.2190 C   0  0  0  0  0  3  0  0  0  0  0  0
   35.0670   24.9060   31.0020 C   0  0  0  0  0  2  0  0  0  0  0  0
   36.4120   24.8880   31.6850 C   0  0  0  0  0  2  0  0  0  0  0  0
  1 10  1  0  0  0  0
  1  6  1  0  0  0  0
  2  1  2  0  0  0  0
  3  2  1  0  0  0  0
  3  4  2  0  0  0  0
  4  5  1  0  0  0  0
  5  6  2  0  0  0  0
  5  9  1  0  0  0  0
  7  2  1  0  0  0  0
  8  3  1  0  0  0  0
 11 13  1  0  0  0  0
 11 10  1  0  0  0  0
 12 11  1  0  0  0  0
 12 13  1  0  0  0  0
M  END
>  <minimizedAffinity>
-2.97272682

$$$$

 OpenBabel03262521153D

 13 14  0  0  0  0  0  0  0  0999 V2000
   37.1960   25.5770   32.5480 C   0  0  0  0  0  0  0  0  0  0  0  0
   37.3510   24.1900   32.5840 C   0  0  0  0  0  0  0  0  0  0  0  0
   36.4520   23.4200   31.8490 C   0  0  0  0  0  0  0  0  0  0  0  0
   35.4730   24.0570   31.1370 N   0  0  0  0  0  0  0  0  0  0  0  0
   35.3540   25.4030   31.1280 C   0  0  0  0  0  0  0  0  0  0  0  0
   36.2140   26.1620   31.8320 N   0  0  0  0  0  0  0  0  0  0  0  0
   38.0950   23.6570   33.1190 H   0  0  0  0  0  0  0  0  0  0  0  0
   36.4770   22.3440   31.8030 H   0  0  0  0  0  0  0  0  0  0  0  0
   34.5760   25.9000   30.5630 H   0  0  0  0  0  0  0  0  0  0  0  0
   38.1560   26.2180   33.3220 O   0  0  0  0  0  0  0  0  0  0  0  0
   37.9130   26.3420   34.6960 C   0  0  0  0  0  3  0  0  0  0  0  0
   39.0590   27.0270   35.4570 C   0  0  0  0  0  2  0  0  0  0  0  0
   37.6830   27.6360   35.3530 C   0  0  0  0  0  2  0  0  0  0  0  0
  1  2  1  0  0  0  0
  1 10  1  0  0  0  0
  2  7  1  0  0  0  0
  3  2  2  0  0  0  0
  4  3  1  0  0  0  0
  5  4  2  0  0  0  0
  5  6  1  0  0  0  0
  6  1  2  0  0  0  0
  8  3  1  0  0  0  0
  9  5  1  0  0  0  0
 10 11  1  0  0  0  0
 11 13  1  0  0  0  0
 11 12  1  0  0  0  0
 13 12  1  0  0  0  0
M  END
>  <minimizedAffinity>
-2.95057917

$$$$
