
 OpenBabel03272504243D

 33 35  0  0  1  0  0  0  0  0999 V2000
   39.7800   26.7850   34.0110 O   0  0  0  0  0  0  0  0  0  0  0  0
   38.3100   26.9840   34.2510 P   0  0  2  0  0  0  0  0  0  0  0  0
   38.1350   27.9330   35.6740 O   0  0  0  0  0  0  0  0  0  0  0  0
   38.8460   28.6280   35.6590 H   0  0  0  0  0  0  0  0  0  0  0  0
   37.5290   25.4980   34.4760 O   0  0  0  0  0  0  0  0  0  0  0  0
   38.5070   24.5450   34.6640 C   0  0  0  0  0  0  0  0  0  0  0  0
   39.4670   25.0010   34.3120 H   0  0  0  0  0  0  0  0  0  0  0  0
   38.3470   23.6330   34.0670 H   0  0  0  0  0  0  0  0  0  0  0  0
   38.6540   24.1190   36.0740 C   0  0  0  0  0  0  0  0  0  0  0  0
   39.6650   23.2300   36.3500 C   0  0  0  0  0  0  0  0  0  0  0  0
   39.8580   22.7890   37.6610 C   0  0  0  0  0  0  0  0  0  0  0  0
   39.0070   23.2800   38.6040 N   0  0  0  0  0  0  0  0  0  0  0  0
   38.0220   24.1500   38.3110 C   0  0  0  0  0  0  0  0  0  0  0  0
   37.8410   24.5740   37.0420 N   0  0  0  0  0  0  0  0  0  0  0  0
   40.3810   22.7910   35.6780 H   0  0  0  0  0  0  0  0  0  0  0  0
   40.6250   22.0920   37.9690 H   0  0  0  0  0  0  0  0  0  0  0  0
   37.3740   24.5060   39.1090 H   0  0  0  0  0  0  0  0  0  0  0  0
   37.6330   27.8010   32.9450 O   0  0  0  0  0  0  0  0  0  0  0  0
   35.5930   28.7910   32.4300 C   0  0  2  0  0  0  0  0  0  0  0  0
   36.2940   27.4990   32.7550 C   0  0  1  0  0  0  0  0  0  0  0  0
   36.1260   26.8190   31.3840 C   0  0  0  0  0  0  0  0  0  0  0  0
   36.5720   27.8130   30.5330 O   0  0  0  0  0  0  0  0  0  0  0  0
   36.1110   29.0280   31.0000 C   0  0  0  0  0  0  0  0  0  0  0  0
   34.5060   28.6690   32.3860 H   0  0  0  0  0  0  0  0  0  0  0  0
   35.8400   26.9310   33.5650 H   0  0  0  0  0  0  0  0  0  0  0  0
   35.0700   26.5960   31.2150 H   0  0  0  0  0  0  0  0  0  0  0  0
   36.7900   25.9320   31.3150 H   0  0  0  0  0  0  0  0  0  0  0  0
   35.2740   29.3540   30.3540 H   0  0  0  0  0  0  0  0  0  0  0  0
   36.9710   29.7340   31.0030 H   0  0  0  0  0  0  0  0  0  0  0  0
   36.0460   29.7630   33.3060 O   0  0  0  0  0  0  0  0  0  0  0  0
   35.3350   29.8460   34.4740 C   0  0  0  0  0  3  0  0  0  0  0  0
   35.8880   30.8900   35.4560 C   0  0  0  0  0  2  0  0  0  0  0  0
   34.5510   31.0370   34.8510 C   0  0  0  0  0  2  0  0  0  0  0  0
  2  1  2  6  0  0  0
  2  5  1  0  0  0  0
  2  3  1  0  0  0  0
  4  3  1  0  0  0  0
  5  6  1  0  0  0  0
  6  9  1  0  0  0  0
  7  6  1  0  0  0  0
  8  6  1  0  0  0  0
  9 10  2  0  0  0  0
  9 14  1  0  0  0  0
 10 11  1  0  0  0  0
 11 16  1  0  0  0  0
 11 12  2  0  0  0  0
 13 12  1  0  0  0  0
 13 17  1  0  0  0  0
 14 13  2  0  0  0  0
 15 10  1  0  0  0  0
 18  2  1  0  0  0  0
 19 24  1  1  0  0  0
 19 20  1  0  0  0  0
 19 30  1  0  0  0  0
 20 18  1  0  0  0  0
 20 25  1  1  0  0  0
 21 20  1  0  0  0  0
 22 23  1  0  0  0  0
 22 21  1  0  0  0  0
 23 29  1  0  0  0  0
 23 19  1  0  0  0  0
 26 21  1  0  0  0  0
 27 21  1  0  0  0  0
 28 23  1  0  0  0  0
 30 31  1  0  0  0  0
 31 33  1  0  0  0  0
 31 32  1  0  0  0  0
 33 32  1  0  0  0  0
M  END
>  <minimizedAffinity>
-4.60119486

$$$$

 OpenBabel03272504243D

 33 35  0  0  1  0  0  0  0  0999 V2000
   38.1100   24.4210   38.2260 O   0  0  0  0  0  0  0  0  0  0  0  0
   38.3120   23.8720   36.8410 P   0  0  2  0  0  0  0  0  0  0  0  0
   37.4740   22.3730   36.7450 O   0  0  0  0  0  0  0  0  0  0  0  0
   36.6160   22.4780   37.2350 H   0  0  0  0  0  0  0  0  0  0  0  0
   39.9550   23.6090   36.5300 O   0  0  0  0  0  0  0  0  0  0  0  0
   40.3530   22.5370   37.3020 C   0  0  0  0  0  0  0  0  0  0  0  0
   39.4320   21.9330   37.5050 H   0  0  0  0  0  0  0  0  0  0  0  0
   40.7650   22.8340   38.2800 H   0  0  0  0  0  0  0  0  0  0  0  0
   41.3670   21.6820   36.6470 C   0  0  0  0  0  0  0  0  0  0  0  0
   42.1270   20.8830   37.4680 C   0  0  0  0  0  0  0  0  0  0  0  0
   43.1010   20.0510   36.9140 C   0  0  0  0  0  0  0  0  0  0  0  0
   43.2400   20.0880   35.5590 N   0  0  0  0  0  0  0  0  0  0  0  0
   42.4850   20.8790   34.7730 C   0  0  0  0  0  0  0  0  0  0  0  0
   41.5440   21.6810   35.3160 N   0  0  0  0  0  0  0  0  0  0  0  0
   42.0900   20.7850   38.5400 H   0  0  0  0  0  0  0  0  0  0  0  0
   43.7430   19.3910   37.4810 H   0  0  0  0  0  0  0  0  0  0  0  0
   42.6430   20.8640   33.6970 H   0  0  0  0  0  0  0  0  0  0  0  0
   37.6740   24.9450   35.7130 O   0  0  0  0  0  0  0  0  0  0  0  0
   38.0260   26.1060   33.7290 C   0  0  2  0  0  0  0  0  0  0  0  0
   38.6510   25.6400   35.0170 C   0  0  1  0  0  0  0  0  0  0  0  0
   38.8400   27.0200   35.6700 C   0  0  0  0  0  0  0  0  0  0  0  0
   37.5820   27.5700   35.5090 O   0  0  0  0  0  0  0  0  0  0  0  0
   37.1070   27.2200   34.2610 C   0  0  0  0  0  0  0  0  0  0  0  0
   38.7610   26.5580   33.0560 H   0  0  0  0  0  0  0  0  0  0  0  0
   39.5880   25.0990   34.8940 H   0  0  0  0  0  0  0  0  0  0  0  0
   39.5930   27.5850   35.1150 H   0  0  0  0  0  0  0  0  0  0  0  0
   39.0700   26.9030   36.7490 H   0  0  0  0  0  0  0  0  0  0  0  0
   37.1800   28.1050   33.6010 H   0  0  0  0  0  0  0  0  0  0  0  0
   36.0670   26.8460   34.3910 H   0  0  0  0  0  0  0  0  0  0  0  0
   37.3000   25.0560   33.1940 O   0  0  0  0  0  0  0  0  0  0  0  0
   36.9700   25.2130   31.8730 C   0  0  0  0  0  3  0  0  0  0  0  0
   36.4550   23.9240   31.2130 C   0  0  0  0  0  2  0  0  0  0  0  0
   35.5850   25.1050   31.3760 C   0  0  0  0  0  2  0  0  0  0  0  0
  2  1  2  1  0  0  0
  3  2  1  0  0  0  0
  3  4  1  0  0  0  0
  5  2  1  0  0  0  0
  5  6  1  0  0  0  0
  6  7  1  0  0  0  0
  6  8  1  0  0  0  0
  9  6  1  0  0  0  0
  9 10  1  0  0  0  0
 10 15  1  0  0  0  0
 11 10  2  0  0  0  0
 11 16  1  0  0  0  0
 12 11  1  0  0  0  0
 13 14  1  0  0  0  0
 13 12  2  0  0  0  0
 14  9  2  0  0  0  0
 17 13  1  0  0  0  0
 18  2  1  0  0  0  0
 19 24  1  6  0  0  0
 19 23  1  0  0  0  0
 19 20  1  0  0  0  0
 20 25  1  6  0  0  0
 20 21  1  0  0  0  0
 20 18  1  0  0  0  0
 21 27  1  0  0  0  0
 22 21  1  0  0  0  0
 23 29  1  0  0  0  0
 23 22  1  0  0  0  0
 26 21  1  0  0  0  0
 28 23  1  0  0  0  0
 30 19  1  0  0  0  0
 31 30  1  0  0  0  0
 32 33  1  0  0  0  0
 32 31  1  0  0  0  0
 33 31  1  0  0  0  0
M  END
>  <minimizedAffinity>
-4.48251963

$$$$

 OpenBabel03272504243D

 33 35  0  0  1  0  0  0  0  0999 V2000
   40.1340   23.4820   36.2440 O   0  0  0  0  0  0  0  0  0  0  0  0
   38.6860   23.2470   35.9160 P   0  0  2  0  0  0  0  0  0  0  0  0
   37.9190   22.6460   37.3330 O   0  0  0  0  0  0  0  0  0  0  0  0
   38.2910   23.1440   38.1080 H   0  0  0  0  0  0  0  0  0  0  0  0
   38.5260   22.1080   34.6740 O   0  0  0  0  0  0  0  0  0  0  0  0
   37.1970   21.7420   34.6210 C   0  0  0  0  0  0  0  0  0  0  0  0
   36.6070   22.6530   34.8950 H   0  0  0  0  0  0  0  0  0  0  0  0
   36.9320   20.9560   35.3460 H   0  0  0  0  0  0  0  0  0  0  0  0
   36.7690   21.2630   33.2880 C   0  0  0  0  0  0  0  0  0  0  0  0
   35.4950   20.7570   33.1910 C   0  0  0  0  0  0  0  0  0  0  0  0
   35.0290   20.2890   31.9610 C   0  0  0  0  0  0  0  0  0  0  0  0
   35.8920   20.3650   30.9090 N   0  0  0  0  0  0  0  0  0  0  0  0
   37.1370   20.8640   31.0260 C   0  0  0  0  0  0  0  0  0  0  0  0
   37.5820   21.3160   32.2190 N   0  0  0  0  0  0  0  0  0  0  0  0
   34.7470   20.6580   33.9590 H   0  0  0  0  0  0  0  0  0  0  0  0
   34.0440   19.8760   31.7930 H   0  0  0  0  0  0  0  0  0  0  0  0
   37.7800   20.8980   30.1490 H   0  0  0  0  0  0  0  0  0  0  0  0
   37.9700   24.7010   35.4630 O   0  0  0  0  0  0  0  0  0  0  0  0
   37.8700   26.0290   33.5570 C   0  0  2  0  0  0  0  0  0  0  0  0
   38.7690   25.4570   34.6210 C   0  0  1  0  0  0  0  0  0  0  0  0
   39.1260   26.7780   35.3260 C   0  0  0  0  0  0  0  0  0  0  0  0
   37.8740   27.3330   35.5090 O   0  0  0  0  0  0  0  0  0  0  0  0
   37.1170   27.0900   34.3800 C   0  0  0  0  0  0  0  0  0  0  0  0
   38.4370   26.5410   32.7730 H   0  0  0  0  0  0  0  0  0  0  0  0
   39.6440   24.9340   34.2390 H   0  0  0  0  0  0  0  0  0  0  0  0
   39.7380   27.3910   34.6620 H   0  0  0  0  0  0  0  0  0  0  0  0
   39.5980   26.5690   36.3090 H   0  0  0  0  0  0  0  0  0  0  0  0
   37.0490   28.0280   33.7990 H   0  0  0  0  0  0  0  0  0  0  0  0
   36.1300   26.7010   34.7160 H   0  0  0  0  0  0  0  0  0  0  0  0
   37.0230   25.0260   33.1190 O   0  0  0  0  0  0  0  0  0  0  0  0
   36.7590   25.0580   31.7750 C   0  0  0  0  0  3  0  0  0  0  0  0
   35.5320   24.2250   31.3710 C   0  0  0  0  0  2  0  0  0  0  0  0
   35.5510   25.6920   31.2110 C   0  0  0  0  0  2  0  0  0  0  0  0
  2  1  2  1  0  0  0
  2  3  1  0  0  0  0
  3  4  1  0  0  0  0
  5  2  1  0  0  0  0
  6  5  1  0  0  0  0
  6  7  1  0  0  0  0
  6  8  1  0  0  0  0
  9  6  1  0  0  0  0
 10  9  1  0  0  0  0
 10 15  1  0  0  0  0
 11 10  2  0  0  0  0
 12 13  2  0  0  0  0
 12 11  1  0  0  0  0
 13 14  1  0  0  0  0
 14  9  2  0  0  0  0
 16 11  1  0  0  0  0
 17 13  1  0  0  0  0
 18  2  1  0  0  0  0
 19 24  1  6  0  0  0
 19 23  1  0  0  0  0
 19 20  1  0  0  0  0
 20 25  1  6  0  0  0
 20 21  1  0  0  0  0
 20 18  1  0  0  0  0
 21 22  1  0  0  0  0
 21 27  1  0  0  0  0
 23 29  1  0  0  0  0
 23 22  1  0  0  0  0
 26 21  1  0  0  0  0
 28 23  1  0  0  0  0
 30 19  1  0  0  0  0
 31 30  1  0  0  0  0
 32 31  1  0  0  0  0
 33 32  1  0  0  0  0
 33 31  1  0  0  0  0
M  END
>  <minimizedAffinity>
-4.47244167

$$$$

 OpenBabel03272504243D

 33 35  0  0  1  0  0  0  0  0999 V2000
   39.9160   26.6580   35.2160 O   0  0  0  0  0  0  0  0  0  0  0  0
   38.4600   26.5700   35.5770 P   0  0  2  0  0  0  0  0  0  0  0  0
   37.9150   28.1580   35.9480 O   0  0  0  0  0  0  0  0  0  0  0  0
   38.3420   28.7790   35.2990 H   0  0  0  0  0  0  0  0  0  0  0  0
   38.2340   25.5760   36.9290 O   0  0  0  0  0  0  0  0  0  0  0  0
   37.8960   24.3220   36.4660 C   0  0  0  0  0  0  0  0  0  0  0  0
   37.4410   24.4700   35.4540 H   0  0  0  0  0  0  0  0  0  0  0  0
   37.1400   23.8160   37.0880 H   0  0  0  0  0  0  0  0  0  0  0  0
   39.0500   23.4030   36.3550 C   0  0  0  0  0  0  0  0  0  0  0  0
   39.6320   22.9950   37.5320 C   0  0  0  0  0  0  0  0  0  0  0  0
   40.7250   22.1270   37.4970 C   0  0  0  0  0  0  0  0  0  0  0  0
   41.1560   21.7320   36.2660 N   0  0  0  0  0  0  0  0  0  0  0  0
   40.5720   22.1450   35.1260 C   0  0  0  0  0  0  0  0  0  0  0  0
   39.5140   22.9840   35.1660 N   0  0  0  0  0  0  0  0  0  0  0  0
   39.3640   23.2500   38.5420 H   0  0  0  0  0  0  0  0  0  0  0  0
   41.2440   21.7550   38.3700 H   0  0  0  0  0  0  0  0  0  0  0  0
   40.9620   21.7960   34.1720 H   0  0  0  0  0  0  0  0  0  0  0  0
   37.5920   25.9690   34.2670 O   0  0  0  0  0  0  0  0  0  0  0  0
   37.5800   25.1450   32.0920 C   0  0  2  0  0  0  0  0  0  0  0  0
   38.3010   26.0270   33.0770 C   0  0  1  0  0  0  0  0  0  0  0  0
   38.0200   27.3770   32.3950 C   0  0  0  0  0  0  0  0  0  0  0  0
   36.6540   27.3000   32.1950 O   0  0  0  0  0  0  0  0  0  0  0  0
   36.3400   26.0120   31.8090 C   0  0  0  0  0  0  0  0  0  0  0  0
   38.1400   25.0310   31.1580 H   0  0  0  0  0  0  0  0  0  0  0  0
   39.3650   25.8180   33.1750 H   0  0  0  0  0  0  0  0  0  0  0  0
   38.5570   27.4240   31.4450 H   0  0  0  0  0  0  0  0  0  0  0  0
   38.2570   28.2110   33.0880 H   0  0  0  0  0  0  0  0  0  0  0  0
   36.1320   26.0160   30.7230 H   0  0  0  0  0  0  0  0  0  0  0  0
   35.4770   25.6790   32.4270 H   0  0  0  0  0  0  0  0  0  0  0  0
   37.2440   23.9640   32.7310 O   0  0  0  0  0  0  0  0  0  0  0  0
   36.8980   22.9440   31.8850 C   0  0  0  0  0  3  0  0  0  0  0  0
   36.6910   21.5990   32.5990 C   0  0  0  0  0  2  0  0  0  0  0  0
   35.5770   22.2880   31.9200 C   0  0  0  0  0  2  0  0  0  0  0  0
  2  1  2  6  0  0  0
  2  3  1  0  0  0  0
  2  5  1  0  0  0  0
  4  3  1  0  0  0  0
  6  5  1  0  0  0  0
  6  8  1  0  0  0  0
  7  6  1  0  0  0  0
  9  6  1  0  0  0  0
  9 10  1  0  0  0  0
 10 15  1  0  0  0  0
 11 10  2  0  0  0  0
 11 16  1  0  0  0  0
 12 11  1  0  0  0  0
 13 14  1  0  0  0  0
 13 12  2  0  0  0  0
 14  9  2  0  0  0  0
 17 13  1  0  0  0  0
 18  2  1  0  0  0  0
 19 24  1  6  0  0  0
 19 30  1  0  0  0  0
 19 20  1  0  0  0  0
 20 25  1  1  0  0  0
 20 18  1  0  0  0  0
 21 20  1  0  0  0  0
 21 27  1  0  0  0  0
 22 21  1  0  0  0  0
 23 19  1  0  0  0  0
 23 22  1  0  0  0  0
 23 29  1  0  0  0  0
 26 21  1  0  0  0  0
 28 23  1  0  0  0  0
 31 33  1  0  0  0  0
 31 32  1  0  0  0  0
 31 30  1  0  0  0  0
 33 32  1  0  0  0  0
M  END
>  <minimizedAffinity>
-4.43989468

$$$$

 OpenBabel03272504243D

 33 35  0  0  1  0  0  0  0  0999 V2000
   37.8390   25.2760   36.4270 O   0  0  0  0  0  0  0  0  0  0  0  0
   38.2660   26.3310   35.4460 P   0  0  2  0  0  0  0  0  0  0  0  0
   38.8200   27.6880   36.3440 O   0  0  0  0  0  0  0  0  0  0  0  0
   39.3340   27.3420   37.1220 H   0  0  0  0  0  0  0  0  0  0  0  0
   36.9660   26.8070   34.4700 O   0  0  0  0  0  0  0  0  0  0  0  0
   37.3910   26.7380   33.1590 C   0  0  0  0  0  0  0  0  0  0  0  0
   38.4840   26.4990   33.1920 H   0  0  0  0  0  0  0  0  0  0  0  0
   37.2860   27.6900   32.6160 H   0  0  0  0  0  0  0  0  0  0  0  0
   36.6870   25.7070   32.3640 C   0  0  0  0  0  0  0  0  0  0  0  0
   35.6800   26.1430   31.5370 C   0  0  0  0  0  0  0  0  0  0  0  0
   34.9770   25.2210   30.7600 C   0  0  0  0  0  0  0  0  0  0  0  0
   35.3440   23.9140   30.8770 N   0  0  0  0  0  0  0  0  0  0  0  0
   36.3340   23.5080   31.6940 C   0  0  0  0  0  0  0  0  0  0  0  0
   37.0110   24.4050   32.4430 N   0  0  0  0  0  0  0  0  0  0  0  0
   35.3220   27.1450   31.3790 H   0  0  0  0  0  0  0  0  0  0  0  0
   34.1710   25.4730   30.0830 H   0  0  0  0  0  0  0  0  0  0  0  0
   36.5810   22.4500   31.7440 H   0  0  0  0  0  0  0  0  0  0  0  0
   39.5190   25.7380   34.4930 O   0  0  0  0  0  0  0  0  0  0  0  0
   41.6150   24.8170   34.9020 C   0  0  2  0  0  0  0  0  0  0  0  0
   40.7730   26.0630   34.9850 C   0  0  1  0  0  0  0  0  0  0  0  0
   41.5220   26.8940   33.9300 C   0  0  0  0  0  0  0  0  0  0  0  0
   41.5820   26.0020   32.8760 O   0  0  0  0  0  0  0  0  0  0  0  0
   41.8390   24.7440   33.3810 C   0  0  0  0  0  0  0  0  0  0  0  0
   42.5880   24.9470   35.3870 H   0  0  0  0  0  0  0  0  0  0  0  0
   40.7630   26.5360   35.9660 H   0  0  0  0  0  0  0  0  0  0  0  0
   42.5210   27.1380   34.3000 H   0  0  0  0  0  0  0  0  0  0  0  0
   40.9190   27.7810   33.6450 H   0  0  0  0  0  0  0  0  0  0  0  0
   42.8970   24.4960   33.1760 H   0  0  0  0  0  0  0  0  0  0  0  0
   41.1170   24.0400   32.9100 H   0  0  0  0  0  0  0  0  0  0  0  0
   40.8600   23.7520   35.3610 O   0  0  0  0  0  0  0  0  0  0  0  0
   41.3470   23.1640   36.4990 C   0  0  0  0  0  3  0  0  0  0  0  0
   40.2480   22.6810   37.4580 C   0  0  0  0  0  2  0  0  0  0  0  0
   41.1650   21.7310   36.8010 C   0  0  0  0  0  2  0  0  0  0  0  0
  2  3  1  0  0  0  0
  2  1  2  1  0  0  0
  3  4  1  0  0  0  0
  5  2  1  0  0  0  0
  6  7  1  0  0  0  0
  6  5  1  0  0  0  0
  8  6  1  0  0  0  0
  9 14  1  0  0  0  0
  9  6  1  0  0  0  0
 10  9  2  0  0  0  0
 11 12  2  0  0  0  0
 11 10  1  0  0  0  0
 12 13  1  0  0  0  0
 13 17  1  0  0  0  0
 13 14  2  0  0  0  0
 15 10  1  0  0  0  0
 16 11  1  0  0  0  0
 18 20  1  0  0  0  0
 18  2  1  0  0  0  0
 19 20  1  0  0  0  0
 19 30  1  0  0  0  0
 19 24  1  1  0  0  0
 20 25  1  1  0  0  0
 21 26  1  0  0  0  0
 21 20  1  0  0  0  0
 22 23  1  0  0  0  0
 22 21  1  0  0  0  0
 23 19  1  0  0  0  0
 27 21  1  0  0  0  0
 28 23  1  0  0  0  0
 29 23  1  0  0  0  0
 30 31  1  0  0  0  0
 31 33  1  0  0  0  0
 31 32  1  0  0  0  0
 33 32  1  0  0  0  0
M  END
>  <minimizedAffinity>
-4.41853333

$$$$

 OpenBabel03272504243D

 33 35  0  0  1  0  0  0  0  0999 V2000
   35.8330   26.8930   31.7540 O   0  0  0  0  0  0  0  0  0  0  0  0
   36.5170   25.5550   31.7300 P   0  0  2  0  0  0  0  0  0  0  0  0
   37.5190   25.5040   30.3330 O   0  0  0  0  0  0  0  0  0  0  0  0
   37.9380   26.4000   30.2330 H   0  0  0  0  0  0  0  0  0  0  0  0
   35.3850   24.3000   31.6440 O   0  0  0  0  0  0  0  0  0  0  0  0
   36.0390   23.1890   31.1540 C   0  0  0  0  0  0  0  0  0  0  0  0
   37.1270   23.4520   31.1170 H   0  0  0  0  0  0  0  0  0  0  0  0
   35.7380   22.9230   30.1280 H   0  0  0  0  0  0  0  0  0  0  0  0
   35.8550   21.9800   31.9860 C   0  0  0  0  0  0  0  0  0  0  0  0
   35.1540   20.9400   31.4220 C   0  0  0  0  0  0  0  0  0  0  0  0
   34.9450   19.7700   32.1540 C   0  0  0  0  0  0  0  0  0  0  0  0
   35.4630   19.7350   33.4150 N   0  0  0  0  0  0  0  0  0  0  0  0
   36.1460   20.7650   33.9480 C   0  0  0  0  0  0  0  0  0  0  0  0
   36.3450   21.8940   33.2340 N   0  0  0  0  0  0  0  0  0  0  0  0
   34.7120   20.8760   30.4430 H   0  0  0  0  0  0  0  0  0  0  0  0
   34.4070   18.9050   31.7920 H   0  0  0  0  0  0  0  0  0  0  0  0
   36.5350   20.6770   34.9600 H   0  0  0  0  0  0  0  0  0  0  0  0
   37.4660   25.3850   33.1090 O   0  0  0  0  0  0  0  0  0  0  0  0
   38.4450   26.3020   35.0090 C   0  0  2  0  0  0  0  0  0  0  0  0
   37.8300   26.6010   33.6670 C   0  0  1  0  0  0  0  0  0  0  0  0
   39.0990   27.1120   32.9640 C   0  0  0  0  0  0  0  0  0  0  0  0
   39.9970   26.1030   33.2590 O   0  0  0  0  0  0  0  0  0  0  0  0
   39.7890   25.7000   34.5630 C   0  0  0  0  0  0  0  0  0  0  0  0
   38.6490   27.2150   35.5790 H   0  0  0  0  0  0  0  0  0  0  0  0
   37.0330   27.3420   33.6910 H   0  0  0  0  0  0  0  0  0  0  0  0
   39.4070   28.0600   33.4110 H   0  0  0  0  0  0  0  0  0  0  0  0
   38.9320   27.1650   31.8680 H   0  0  0  0  0  0  0  0  0  0  0  0
   40.6030   26.1110   35.1880 H   0  0  0  0  0  0  0  0  0  0  0  0
   39.7440   24.5880   34.5650 H   0  0  0  0  0  0  0  0  0  0  0  0
   37.6530   25.3660   35.6510 O   0  0  0  0  0  0  0  0  0  0  0  0
   38.3540   24.3980   36.3200 C   0  0  0  0  0  3  0  0  0  0  0  0
   37.7160   23.9940   37.6590 C   0  0  0  0  0  2  0  0  0  0  0  0
   37.8280   23.0370   36.5420 C   0  0  0  0  0  2  0  0  0  0  0  0
  2  1  2  1  0  0  0
  2 18  1  0  0  0  0
  3  2  1  0  0  0  0
  4  3  1  0  0  0  0
  5  2  1  0  0  0  0
  6  5  1  0  0  0  0
  6  9  1  0  0  0  0
  7  6  1  0  0  0  0
  8  6  1  0  0  0  0
  9 14  1  0  0  0  0
 10  9  2  0  0  0  0
 10 11  1  0  0  0  0
 11 12  2  0  0  0  0
 12 13  1  0  0  0  0
 13 17  1  0  0  0  0
 14 13  2  0  0  0  0
 15 10  1  0  0  0  0
 16 11  1  0  0  0  0
 18 20  1  0  0  0  0
 19 24  1  1  0  0  0
 19 30  1  0  0  0  0
 20 25  1  1  0  0  0
 20 19  1  0  0  0  0
 21 22  1  0  0  0  0
 21 26  1  0  0  0  0
 21 20  1  0  0  0  0
 22 23  1  0  0  0  0
 23 29  1  0  0  0  0
 23 19  1  0  0  0  0
 23 28  1  0  0  0  0
 27 21  1  0  0  0  0
 30 31  1  0  0  0  0
 31 33  1  0  0  0  0
 31 32  1  0  0  0  0
 33 32  1  0  0  0  0
M  END
>  <minimizedAffinity>
-4.34415388

$$$$

 OpenBabel03272504243D

 33 35  0  0  1  0  0  0  0  0999 V2000
   40.3860   22.4870   37.1150 O   0  0  0  0  0  0  0  0  0  0  0  0
   39.1000   22.9270   36.4740 P   0  0  2  0  0  0  0  0  0  0  0  0
   37.8600   22.8210   37.6610 O   0  0  0  0  0  0  0  0  0  0  0  0
   38.2450   23.1330   38.5230 H   0  0  0  0  0  0  0  0  0  0  0  0
   38.7030   21.9250   35.1680 O   0  0  0  0  0  0  0  0  0  0  0  0
   37.3430   21.7030   35.2190 C   0  0  0  0  0  0  0  0  0  0  0  0
   36.8960   22.5910   35.7360 H   0  0  0  0  0  0  0  0  0  0  0  0
   37.0680   20.8150   35.8110 H   0  0  0  0  0  0  0  0  0  0  0  0
   36.7200   21.5450   33.8870 C   0  0  0  0  0  0  0  0  0  0  0  0
   35.6950   20.6350   33.7860 C   0  0  0  0  0  0  0  0  0  0  0  0
   35.0640   20.4390   32.5560 C   0  0  0  0  0  0  0  0  0  0  0  0
   35.5180   21.1810   31.5080 N   0  0  0  0  0  0  0  0  0  0  0  0
   36.5240   22.0680   31.6290 C   0  0  0  0  0  0  0  0  0  0  0  0
   37.1300   22.2540   32.8220 N   0  0  0  0  0  0  0  0  0  0  0  0
   35.2700   20.0080   34.5510 H   0  0  0  0  0  0  0  0  0  0  0  0
   34.2520   19.7450   32.3850 H   0  0  0  0  0  0  0  0  0  0  0  0
   36.8430   22.6310   30.7550 H   0  0  0  0  0  0  0  0  0  0  0  0
   39.2470   24.5210   35.9560 O   0  0  0  0  0  0  0  0  0  0  0  0
   39.2530   26.0860   34.2360 C   0  0  2  0  0  0  0  0  0  0  0  0
   39.4130   24.6300   34.5840 C   0  0  1  0  0  0  0  0  0  0  0  0
   40.9090   24.4970   34.2510 C   0  0  0  0  0  0  0  0  0  0  0  0
   41.4350   25.5770   34.9360 O   0  0  0  0  0  0  0  0  0  0  0  0
   40.5720   26.6450   34.7980 C   0  0  0  0  0  0  0  0  0  0  0  0
   39.2440   26.2500   33.1540 H   0  0  0  0  0  0  0  0  0  0  0  0
   38.7890   23.9550   34.0000 H   0  0  0  0  0  0  0  0  0  0  0  0
   41.0530   24.6030   33.1730 H   0  0  0  0  0  0  0  0  0  0  0  0
   41.3100   23.5500   34.6670 H   0  0  0  0  0  0  0  0  0  0  0  0
   41.0110   27.3550   34.0730 H   0  0  0  0  0  0  0  0  0  0  0  0
   40.4160   27.0820   35.8100 H   0  0  0  0  0  0  0  0  0  0  0  0
   38.1550   26.5780   34.9210 O   0  0  0  0  0  0  0  0  0  0  0  0
   37.0590   26.8140   34.1340 C   0  0  0  0  0  3  0  0  0  0  0  0
   36.4320   28.2000   34.3540 C   0  0  0  0  0  2  0  0  0  0  0  0
   37.0440   27.8310   33.0640 C   0  0  0  0  0  2  0  0  0  0  0  0
  2  1  2  1  0  0  0
  2  3  1  0  0  0  0
  3  4  1  0  0  0  0
  5  6  1  0  0  0  0
  5  2  1  0  0  0  0
  6  7  1  0  0  0  0
  6  8  1  0  0  0  0
  9  6  1  0  0  0  0
 10  9  1  0  0  0  0
 10 15  1  0  0  0  0
 11 10  2  0  0  0  0
 12 13  2  0  0  0  0
 12 11  1  0  0  0  0
 13 14  1  0  0  0  0
 14  9  2  0  0  0  0
 16 11  1  0  0  0  0
 17 13  1  0  0  0  0
 18  2  1  0  0  0  0
 19 24  1  6  0  0  0
 19 20  1  0  0  0  0
 19 23  1  0  0  0  0
 19 30  1  0  0  0  0
 20 25  1  6  0  0  0
 20 18  1  0  0  0  0
 21 20  1  0  0  0  0
 21 27  1  0  0  0  0
 21 22  1  0  0  0  0
 23 22  1  0  0  0  0
 23 29  1  0  0  0  0
 26 21  1  0  0  0  0
 28 23  1  0  0  0  0
 31 32  1  0  0  0  0
 31 30  1  0  0  0  0
 33 31  1  0  0  0  0
 33 32  1  0  0  0  0
M  END
>  <minimizedAffinity>
-4.33451939

$$$$

 OpenBabel03272504243D

 33 35  0  0  1  0  0  0  0  0999 V2000
   36.1730   22.8940   32.1890 O   0  0  0  0  0  0  0  0  0  0  0  0
   37.5700   23.3650   31.8950 P   0  0  2  0  0  0  0  0  0  0  0  0
   38.1280   22.5160   30.5080 O   0  0  0  0  0  0  0  0  0  0  0  0
   37.3660   22.4470   29.8730 H   0  0  0  0  0  0  0  0  0  0  0  0
   38.6030   23.0390   33.1960 O   0  0  0  0  0  0  0  0  0  0  0  0
   37.8130   22.6710   34.2660 C   0  0  0  0  0  0  0  0  0  0  0  0
   37.4840   21.6190   34.0690 H   0  0  0  0  0  0  0  0  0  0  0  0
   36.9010   23.2810   34.3640 H   0  0  0  0  0  0  0  0  0  0  0  0
   38.5160   22.7300   35.5660 C   0  0  0  0  0  0  0  0  0  0  0  0
   37.8390   23.3140   36.6100 C   0  0  0  0  0  0  0  0  0  0  0  0
   38.4450   23.4010   37.8650 C   0  0  0  0  0  0  0  0  0  0  0  0
   39.7040   22.8890   37.9740 N   0  0  0  0  0  0  0  0  0  0  0  0
   40.3490   22.3220   36.9380 C   0  0  0  0  0  0  0  0  0  0  0  0
   39.7570   22.2400   35.7270 N   0  0  0  0  0  0  0  0  0  0  0  0
   36.8510   23.7410   36.6210 H   0  0  0  0  0  0  0  0  0  0  0  0
   37.9890   23.8420   38.7400 H   0  0  0  0  0  0  0  0  0  0  0  0
   41.3540   21.9320   37.0880 H   0  0  0  0  0  0  0  0  0  0  0  0
   37.5490   25.0160   31.5730 O   0  0  0  0  0  0  0  0  0  0  0  0
   37.1400   26.9880   32.7360 C   0  0  2  0  0  0  0  0  0  0  0  0
   36.5490   25.6880   32.2600 C   0  0  1  0  0  0  0  0  0  0  0  0
   35.5510   26.2700   31.2440 C   0  0  0  0  0  0  0  0  0  0  0  0
   36.3660   27.1240   30.5240 O   0  0  0  0  0  0  0  0  0  0  0  0
   37.2280   27.7500   31.4020 C   0  0  0  0  0  0  0  0  0  0  0  0
   36.4580   27.5310   33.3970 H   0  0  0  0  0  0  0  0  0  0  0  0
   36.0650   25.1010   33.0380 H   0  0  0  0  0  0  0  0  0  0  0  0
   34.7710   26.8200   31.7740 H   0  0  0  0  0  0  0  0  0  0  0  0
   35.1660   25.4650   30.5840 H   0  0  0  0  0  0  0  0  0  0  0  0
   36.8810   28.7900   31.5470 H   0  0  0  0  0  0  0  0  0  0  0  0
   38.2530   27.6780   30.9730 H   0  0  0  0  0  0  0  0  0  0  0  0
   38.3950   26.7290   33.2610 O   0  0  0  0  0  0  0  0  0  0  0  0
   38.3920   26.3950   34.5890 C   0  0  0  0  0  3  0  0  0  0  0  0
   39.7170   26.7070   35.3030 C   0  0  0  0  0  2  0  0  0  0  0  0
   38.4670   27.3990   35.6680 C   0  0  0  0  0  2  0  0  0  0  0  0
  2  1  2  1  0  0  0
  2  5  1  0  0  0  0
  3  2  1  0  0  0  0
  4  3  1  0  0  0  0
  5  6  1  0  0  0  0
  6  8  1  0  0  0  0
  6  9  1  0  0  0  0
  7  6  1  0  0  0  0
  9 14  2  0  0  0  0
  9 10  1  0  0  0  0
 10 15  1  0  0  0  0
 10 11  2  0  0  0  0
 11 12  1  0  0  0  0
 11 16  1  0  0  0  0
 13 17  1  0  0  0  0
 13 12  2  0  0  0  0
 14 13  1  0  0  0  0
 18  2  1  0  0  0  0
 18 20  1  0  0  0  0
 19 30  1  0  0  0  0
 19 24  1  1  0  0  0
 20 19  1  0  0  0  0
 20 25  1  1  0  0  0
 21 26  1  0  0  0  0
 21 20  1  0  0  0  0
 22 21  1  0  0  0  0
 22 23  1  0  0  0  0
 23 28  1  0  0  0  0
 23 19  1  0  0  0  0
 27 21  1  0  0  0  0
 29 23  1  0  0  0  0
 30 31  1  0  0  0  0
 31 32  1  0  0  0  0
 31 33  1  0  0  0  0
 32 33  1  0  0  0  0
M  END
>  <minimizedAffinity>
-4.33084154

$$$$

 OpenBabel03272504243D

 33 35  0  0  1  0  0  0  0  0999 V2000
   36.8580   26.4780   35.1260 O   0  0  0  0  0  0  0  0  0  0  0  0
   38.3550   26.5660   35.2260 P   0  0  2  0  0  0  0  0  0  0  0  0
   38.7320   27.7630   36.4010 O   0  0  0  0  0  0  0  0  0  0  0  0
   38.0800   27.6670   37.1460 H   0  0  0  0  0  0  0  0  0  0  0  0
   39.0340   27.0150   33.7410 O   0  0  0  0  0  0  0  0  0  0  0  0
   38.2070   26.5300   32.7490 C   0  0  0  0  0  0  0  0  0  0  0  0
   37.3570   26.0180   33.2660 H   0  0  0  0  0  0  0  0  0  0  0  0
   38.6920   25.7790   32.1060 H   0  0  0  0  0  0  0  0  0  0  0  0
   37.6760   27.5840   31.8560 C   0  0  0  0  0  0  0  0  0  0  0  0
   38.2360   27.6770   30.6050 C   0  0  0  0  0  0  0  0  0  0  0  0
   37.7790   28.6500   29.7140 C   0  0  0  0  0  0  0  0  0  0  0  0
   36.7820   29.4670   30.1560 N   0  0  0  0  0  0  0  0  0  0  0  0
   36.2470   29.3590   31.3870 C   0  0  0  0  0  0  0  0  0  0  0  0
   36.6930   28.4150   32.2440 N   0  0  0  0  0  0  0  0  0  0  0  0
   39.0200   27.0820   30.1700 H   0  0  0  0  0  0  0  0  0  0  0  0
   38.1610   28.7960   28.7130 H   0  0  0  0  0  0  0  0  0  0  0  0
   35.4530   30.0410   31.6820 H   0  0  0  0  0  0  0  0  0  0  0  0
   38.9730   25.0800   35.7190 O   0  0  0  0  0  0  0  0  0  0  0  0
   38.2980   22.8630   35.5320 C   0  0  2  0  0  0  0  0  0  0  0  0
   37.9900   24.2020   36.1470 C   0  0  1  0  0  0  0  0  0  0  0  0
   38.2620   23.8270   37.6140 C   0  0  0  0  0  0  0  0  0  0  0  0
   39.5030   23.2250   37.5130 O   0  0  0  0  0  0  0  0  0  0  0  0
   39.5250   22.4570   36.3660 C   0  0  0  0  0  0  0  0  0  0  0  0
   37.5010   22.1340   35.7150 H   0  0  0  0  0  0  0  0  0  0  0  0
   36.9720   24.5500   35.9830 H   0  0  0  0  0  0  0  0  0  0  0  0
   37.5050   23.1170   37.9550 H   0  0  0  0  0  0  0  0  0  0  0  0
   38.3330   24.7430   38.2350 H   0  0  0  0  0  0  0  0  0  0  0  0
   39.4380   21.3940   36.6590 H   0  0  0  0  0  0  0  0  0  0  0  0
   40.4680   22.6930   35.8230 H   0  0  0  0  0  0  0  0  0  0  0  0
   38.6260   23.0610   34.2020 O   0  0  0  0  0  0  0  0  0  0  0  0
   37.5980   22.8280   33.3260 C   0  0  0  0  0  3  0  0  0  0  0  0
   38.0240   22.0400   32.0770 C   0  0  0  0  0  2  0  0  0  0  0  0
   37.0710   21.4770   33.0520 C   0  0  0  0  0  2  0  0  0  0  0  0
  2  1  2  6  0  0  0
  2 18  1  0  0  0  0
  2  3  1  0  0  0  0
  3  4  1  0  0  0  0
  5  2  1  0  0  0  0
  6  7  1  0  0  0  0
  6  5  1  0  0  0  0
  8  6  1  0  0  0  0
  9 14  1  0  0  0  0
  9  6  1  0  0  0  0
 10  9  2  0  0  0  0
 11 12  2  0  0  0  0
 11 10  1  0  0  0  0
 12 13  1  0  0  0  0
 13 17  1  0  0  0  0
 13 14  2  0  0  0  0
 15 10  1  0  0  0  0
 16 11  1  0  0  0  0
 18 20  1  0  0  0  0
 19 24  1  1  0  0  0
 19 20  1  0  0  0  0
 19 23  1  0  0  0  0
 20 25  1  6  0  0  0
 20 21  1  0  0  0  0
 21 26  1  0  0  0  0
 21 27  1  0  0  0  0
 22 21  1  0  0  0  0
 23 28  1  0  0  0  0
 23 22  1  0  0  0  0
 29 23  1  0  0  0  0
 30 19  1  0  0  0  0
 31 30  1  0  0  0  0
 32 33  1  0  0  0  0
 32 31  1  0  0  0  0
 33 31  1  0  0  0  0
M  END
>  <minimizedAffinity>
-4.30609131

$$$$
