
 OpenBabel03272510303D

 22 24  0  0  0  0  0  0  0  0999 V2000
   37.2420   31.3580   49.2150 C   0  0  0  0  0  0  0  0  0  0  0  0
   37.4650   32.6210   49.7660 C   0  0  0  0  0  0  0  0  0  0  0  0
   38.3990   33.4030   49.1220 C   0  0  0  0  0  0  0  0  0  0  0  0
   39.0410   32.9230   48.0090 N   0  0  0  0  0  0  0  0  0  0  0  0
   38.7840   31.6750   47.5080 C   0  0  0  0  0  0  0  0  0  0  0  0
   37.8600   30.8740   48.1310 N   0  0  0  0  0  0  0  0  0  0  0  0
   36.9350   32.9580   50.6460 H   0  0  0  0  0  0  0  0  0  0  0  0
   38.6400   34.3980   49.4750 H   0  0  0  0  0  0  0  0  0  0  0  0
   36.2030   30.4890   49.8780 C   0  0  0  0  0  0  0  0  0  0  0  0
   36.1890   29.0530   49.7650 C   0  0  0  0  0  0  0  0  0  0  0  0
   36.7800   29.6510   51.0310 C   0  0  0  0  0  0  0  0  0  0  0  0
   35.2610   31.0530   50.1530 H   0  0  0  0  0  0  0  0  0  0  0  0
   35.2020   28.5450   49.8430 H   0  0  0  0  0  0  0  0  0  0  0  0
   36.9060   28.5070   49.1220 H   0  0  0  0  0  0  0  0  0  0  0  0
   36.1610   29.5660   51.9540 H   0  0  0  0  0  0  0  0  0  0  0  0
   37.8620   29.6520   51.1950 H   0  0  0  0  0  0  0  0  0  0  0  0
   39.4480   31.1410   46.3100 C   0  0  0  0  0  0  0  0  0  0  0  0
   40.3770   31.6940   46.0650 H   0  0  0  0  0  0  0  0  0  0  0  0
   39.7630   30.0950   46.5050 H   0  0  0  0  0  0  0  0  0  0  0  0
   38.4940   31.1170   45.1390 C   0  0  0  0  0  3  0  0  0  0  0  0
   37.8430   32.3440   44.6470 C   0  0  0  0  0  2  0  0  0  0  0  0
   38.9130   31.6070   43.8170 C   0  0  0  0  0  2  0  0  0  0  0  0
  1  2  1  0  0  0  0
  1  9  1  0  0  0  0
  2  7  1  0  0  0  0
  3  8  1  0  0  0  0
  3  2  2  0  0  0  0
  4  3  1  0  0  0  0
  5  4  2  0  0  0  0
  5  6  1  0  0  0  0
  6  1  2  0  0  0  0
  9 12  1  0  0  0  0
  9 11  1  0  0  0  0
 10 13  1  0  0  0  0
 10  9  1  0  0  0  0
 10 11  1  0  0  0  0
 11 16  1  0  0  0  0
 11 15  1  0  0  0  0
 14 10  1  0  0  0  0
 17 19  1  0  0  0  0
 17  5  1  0  0  0  0
 18 17  1  0  0  0  0
 20 17  1  0  0  0  0
 21 20  1  0  0  0  0
 22 21  1  0  0  0  0
 22 20  1  0  0  0  0
M  END
>  <minimizedAffinity>
-4.72963476

>  <minimizedRMSD>
0.307564765

$$$$
