
 OpenBabel03272507533D

 26 28  0  0  0  0  0  0  0  0999 V2000
   35.7130   29.9120   50.0250 C   0  0  0  0  0  0  0  0  0  0  0  0
   35.8340   30.5330   48.7630 C   0  0  0  0  0  0  0  0  0  0  0  0
   34.9160   30.2150   47.7560 C   0  0  0  0  0  0  0  0  0  0  0  0
   33.9460   29.3150   48.0520 N   0  0  0  0  0  0  0  0  0  0  0  0
   33.8330   28.7310   49.2340 C   0  0  0  0  0  0  0  0  0  0  0  0
   34.7100   29.0280   50.2110 N   0  0  0  0  0  0  0  0  0  0  0  0
   35.0240   30.6970   46.8050 H   0  0  0  0  0  0  0  0  0  0  0  0
   33.0660   28.0100   49.4880 H   0  0  0  0  0  0  0  0  0  0  0  0
   36.9090   31.4670   48.5890 N   0  0  0  0  0  0  0  0  0  0  0  0
   37.2640   32.3450   49.5200 C   0  0  0  0  0  0  0  0  0  0  0  0
   38.3250   33.2190   49.2780 C   0  0  0  0  0  0  0  0  0  0  0  0
   38.9160   33.0810   48.0600 C   0  0  0  0  0  0  0  0  0  0  0  0
   39.8800   33.8940   47.8730 O   0  0  0  0  0  0  0  0  0  0  0  0
   38.5970   32.2210   47.1000 N   0  0  0  0  0  0  0  0  0  0  0  0
   37.5630   31.4000   47.3900 C   0  0  0  0  0  0  0  0  0  0  0  0
   37.2370   30.5630   46.4810 O   0  0  0  0  0  0  0  0  0  0  0  0
   36.7320   32.3790   50.4590 H   0  0  0  0  0  0  0  0  0  0  0  0
   38.6110   33.9260   50.0280 H   0  0  0  0  0  0  0  0  0  0  0  0
   39.2840   32.1420   45.8280 C   0  0  0  0  0  0  0  0  0  0  0  0
   40.6480   32.7100   45.6480 C   0  0  0  0  0  0  0  0  0  0  0  0
   40.4650   31.2320   45.6480 C   0  0  0  0  0  0  0  0  0  0  0  0
   37.6240   29.4050   51.7130 C   0  0  0  0  0  0  0  0  0  0  0  0
   37.9960   28.3030   51.2520 O   0  0  0  0  0  0  0  0  0  0  0  0
   36.5750   30.1730   51.1100 N   0  0  0  0  0  0  0  0  0  0  0  0
   38.1690   29.6760   52.5690 H   0  0  0  0  0  0  0  0  0  0  0  0
   36.4850   31.0910   51.6180 H   0  0  0  0  0  0  0  0  0  0  0  0
  1  6  1  0  0  0  0
  1 24  1  0  0  0  0
  2  1  2  0  0  0  0
  3  4  2  0  0  0  0
  3  2  1  0  0  0  0
  4  5  1  0  0  0  0
  5  8  1  0  0  0  0
  5  6  2  0  0  0  0
  7  3  1  0  0  0  0
  9  2  1  0  0  0  0
  9 10  1  0  0  0  0
 10 17  1  0  0  0  0
 11 10  2  0  0  0  0
 11 18  1  0  0  0  0
 12 11  1  0  0  0  0
 13 12  2  0  0  0  0
 14 15  1  0  0  0  0
 14 12  1  0  0  0  0
 15  9  1  0  0  0  0
 16 15  2  0  0  0  0
 19 14  1  0  0  0  0
 20 19  1  0  0  0  0
 21 20  1  0  0  0  0
 21 19  1  0  0  0  0
 22 25  1  0  0  0  0
 23 22  2  0  0  0  0
 24 26  1  0  0  0  0
 24 22  1  0  0  0  0
M  END
>  <minimizedAffinity>
-5.68166351

>  <minimizedRMSD>
1.21670091

$$$$
