
 OpenBabel03272508573D

 34 37  0  0  1  0  0  0  0  0999 V2000
   38.3670   31.8490   44.5310 C   0  0  0  0  0  0  0  0  0  0  0  0
   37.2350   32.3860   44.4090 O   0  0  0  0  0  0  0  0  0  0  0  0
   38.9390   31.6050   45.8290 N   0  0  0  0  0  0  0  0  0  0  0  0
   39.9370   31.3480   45.9880 H   0  0  0  0  0  0  0  0  0  0  0  0
   39.1380   31.4550   43.3450 C   0  0  0  0  0  0  0  0  0  0  0  0
   40.2180   30.6310   43.5070 C   0  0  0  0  0  0  0  0  0  0  0  0
   40.9420   30.2340   42.3960 C   0  0  0  0  0  0  0  0  0  0  0  0
   40.5260   30.7000   41.1860 C   0  0  0  0  0  0  0  0  0  0  0  0
   39.4380   31.5370   40.9920 C   0  0  0  0  0  0  0  0  0  0  0  0
   38.7720   31.8880   42.1200 N   0  0  0  0  0  0  0  0  0  0  0  0
   40.5680   30.2470   44.4740 H   0  0  0  0  0  0  0  0  0  0  0  0
   41.8010   29.5900   42.4300 H   0  0  0  0  0  0  0  0  0  0  0  0
   41.0600   30.4180   40.2770 H   0  0  0  0  0  0  0  0  0  0  0  0
   39.0610   32.0120   39.6570 C   0  0  0  0  0  0  0  0  0  0  0  0
   39.1260   33.2680   39.4470 O   0  0  0  0  0  0  0  0  0  0  0  0
   38.6380   30.9610   38.6780 C   0  0  0  0  0  3  0  0  0  0  0  0
   37.1450   31.0840   38.3090 C   0  0  0  0  0  2  0  0  0  0  0  0
   37.6220   29.9470   39.1090 C   0  0  0  0  0  2  0  0  0  0  0  0
   38.4260   31.1180   48.2140 C   0  0  2  0  0  0  0  0  0  0  0  0
   38.6900   32.5720   48.1220 C   0  0  0  0  0  0  0  0  0  0  0  0
   38.0670   31.7290   46.9750 C   0  0  1  0  0  0  0  0  0  0  0  0
   39.3650   30.5110   48.2960 H   0  0  0  0  0  0  0  0  0  0  0  0
   37.9850   33.2390   48.6700 H   0  0  0  0  0  0  0  0  0  0  0  0
   39.7100   32.9380   47.9880 H   0  0  0  0  0  0  0  0  0  0  0  0
   36.9870   31.9970   46.7720 H   0  0  0  0  0  0  0  0  0  0  0  0
   35.0800   30.2230   49.5180 C   0  0  0  0  0  0  0  0  0  0  0  0
   35.4090   29.5590   50.7340 C   0  0  0  0  0  0  0  0  0  0  0  0
   36.8050   29.4380   51.0970 C   0  0  0  0  0  0  0  0  0  0  0  0
   37.7550   29.9630   50.2590 N   0  0  0  0  0  0  0  0  0  0  0  0
   37.3560   30.5830   49.1130 C   0  0  0  0  0  0  0  0  0  0  0  0
   36.0340   30.7320   48.7110 N   0  0  0  0  0  0  0  0  0  0  0  0
   34.0240   30.2850   49.2960 H   0  0  0  0  0  0  0  0  0  0  0  0
   34.6380   29.1690   51.3490 H   0  0  0  0  0  0  0  0  0  0  0  0
   37.0430   28.9370   52.0130 H   0  0  0  0  0  0  0  0  0  0  0  0
  1  3  1  0  0  0  0
  2  1  2  0  0  0  0
  3  4  1  0  0  0  0
  3 21  1  0  0  0  0
  5  6  1  0  0  0  0
  5  1  1  0  0  0  0
  6 11  1  0  0  0  0
  7 12  1  0  0  0  0
  7  6  2  0  0  0  0
  8  7  1  0  0  0  0
  9  8  2  0  0  0  0
  9 10  1  0  0  0  0
 10  5  2  0  0  0  0
 13  8  1  0  0  0  0
 14  9  1  0  0  0  0
 15 14  2  0  0  0  0
 16 18  1  0  0  0  0
 16 14  1  0  0  0  0
 17 16  1  0  0  0  0
 17 18  1  0  0  0  0
 19 22  1  6  0  0  0
 19 30  1  0  0  0  0
 20 19  1  0  0  0  0
 20 23  1  0  0  0  0
 21 25  1  6  0  0  0
 21 20  1  0  0  0  0
 21 19  1  0  0  0  0
 24 20  1  0  0  0  0
 26 27  1  0  0  0  0
 27 28  2  0  0  0  0
 27 33  1  0  0  0  0
 28 34  1  0  0  0  0
 29 28  1  0  0  0  0
 30 29  2  0  0  0  0
 31 30  1  0  0  0  0
 31 26  2  0  0  0  0
 32 26  1  0  0  0  0
M  END
>  <minimizedAffinity>
-4.82442379

>  <minimizedRMSD>
0.561587989

$$$$
