
 OpenBabel03272509433D

 32 34  0  0  1  0  0  0  0  0999 V2000
   37.0710   30.9340   49.0470 C   0  0  0  0  0  0  0  0  0  0  0  0
   36.7950   31.8360   50.0760 C   0  0  0  0  0  0  0  0  0  0  0  0
   37.3790   33.0940   50.1230 C   0  0  0  0  0  0  0  0  0  0  0  0
   38.2700   33.4730   49.1150 C   0  0  0  0  0  0  0  0  0  0  0  0
   38.5300   32.5810   48.1160 C   0  0  0  0  0  0  0  0  0  0  0  0
   37.9280   31.3310   48.1010 C   0  0  0  0  0  0  0  0  0  0  0  0
   36.0950   31.5090   50.8490 H   0  0  0  0  0  0  0  0  0  0  0  0
   37.0830   33.6920   50.9690 H   0  0  0  0  0  0  0  0  0  0  0  0
   38.6720   34.4600   49.2320 H   0  0  0  0  0  0  0  0  0  0  0  0
   39.2390   33.0180   47.4110 H   0  0  0  0  0  0  0  0  0  0  0  0
   36.4860   29.6100   49.0200 C   0  0  2  0  0  0  0  0  0  0  0  0
   36.9780   29.0840   48.1150 H   0  0  0  0  0  0  0  0  0  0  0  0
   33.6040   29.9700   46.8360 C   0  0  0  0  0  0  0  0  0  0  0  0
   32.8650   28.8260   47.0670 C   0  0  0  0  0  0  0  0  0  0  0  0
   33.3170   27.9400   48.0260 C   0  0  0  0  0  0  0  0  0  0  0  0
   34.4780   28.2240   48.7130 N   0  0  0  0  0  0  0  0  0  0  0  0
   35.1390   29.3310   48.4450 C   0  0  0  0  0  0  0  0  0  0  0  0
   34.7110   30.2100   47.5120 N   0  0  0  0  0  0  0  0  0  0  0  0
   33.2760   30.6910   46.0860 H   0  0  0  0  0  0  0  0  0  0  0  0
   31.9730   28.6910   46.4780 H   0  0  0  0  0  0  0  0  0  0  0  0
   32.7420   27.0430   48.2130 H   0  0  0  0  0  0  0  0  0  0  0  0
   36.9730   28.8360   49.9240 O   0  0  0  0  0  0  0  0  0  0  0  0
   36.6800   28.8010   50.8500 H   0  0  0  0  0  0  0  0  0  0  0  0
   38.3170   30.4760   47.0040 C   0  0  0  0  0  3  0  0  0  0  0  0
   38.9740   30.9060   45.9220 C   0  0  0  0  0  3  0  0  0  0  0  0
   39.4560   30.1170   44.7650 C   0  0  0  0  0  0  0  0  0  0  0  0
   38.9560   29.1190   44.6950 H   0  0  0  0  0  0  0  0  0  0  0  0
   40.5470   29.9320   44.8050 H   0  0  0  0  0  0  0  0  0  0  0  0
   39.1090   31.0030   43.2410 S   0  0  0  0  0  0  0  0  0  0  0  0
   37.3060   31.0120   42.9320 C   0  0  0  0  0  3  0  0  0  0  0  0
   36.5890   29.7680   43.3000 C   0  0  0  0  0  2  0  0  0  0  0  0
   36.7630   30.1290   41.8690 C   0  0  0  0  0  2  0  0  0  0  0  0
  1  2  1  0  0  0  0
  2  3  2  0  0  0  0
  2  7  1  0  0  0  0
  3  8  1  0  0  0  0
  4  9  1  0  0  0  0
  4  3  1  0  0  0  0
  5  4  2  0  0  0  0
  6  5  1  0  0  0  0
  6  1  2  0  0  0  0
 10  5  1  0  0  0  0
 11 12  1  6  0  0  0
 11  1  1  0  0  0  0
 11 22  1  0  0  0  0
 13 14  2  0  0  0  0
 13 18  1  0  0  0  0
 14 15  1  0  0  0  0
 15 21  1  0  0  0  0
 15 16  2  0  0  0  0
 17 16  1  0  0  0  0
 17 11  1  0  0  0  0
 18 17  2  0  0  0  0
 19 13  1  0  0  0  0
 20 14  1  0  0  0  0
 22 23  1  0  0  0  0
 24  6  1  0  0  0  0
 25 24  2  0  0  0  0
 26 28  1  0  0  0  0
 26 25  1  0  0  0  0
 27 26  1  0  0  0  0
 29 26  1  0  0  0  0
 30 29  1  0  0  0  0
 30 31  1  0  0  0  0
 32 30  1  0  0  0  0
 32 31  1  0  0  0  0
M  END
>  <minimizedAffinity>
-5.16873312

>  <minimizedRMSD>
0.261864305

$$$$
