
 OpenBabel03272507353D

 30 33  0  0  1  0  0  0  0  0999 V2000
   37.7990   26.1660   34.1780 C   0  0  0  0  0  0  0  0  0  0  0  0
   37.9690   27.1550   33.2360 C   0  0  0  0  0  0  0  0  0  0  0  0
   37.3200   26.7270   32.0620 C   0  0  0  0  0  0  0  0  0  0  0  0
   36.7940   25.4920   32.3800 C   0  0  0  0  0  0  0  0  0  0  0  0
   37.1000   25.2030   33.6280 O   0  0  0  0  0  0  0  0  0  0  0  0
   38.4700   28.1200   33.2350 H   0  0  0  0  0  0  0  0  0  0  0  0
   37.2180   27.2160   31.0850 H   0  0  0  0  0  0  0  0  0  0  0  0
   38.3460   26.2760   35.5220 C   0  0  0  0  0  0  0  0  0  0  0  0
   38.4440   27.3960   36.0450 O   0  0  0  0  0  0  0  0  0  0  0  0
   38.7450   25.0470   36.1680 C   0  0  0  0  0  0  0  0  0  0  0  0
   38.0420   24.6860   37.3050 C   0  0  0  0  0  0  0  0  0  0  0  0
   38.4040   23.5020   37.9570 C   0  0  0  0  0  0  0  0  0  0  0  0
   39.4370   22.7680   37.4300 N   0  0  0  0  0  0  0  0  0  0  0  0
   40.0880   23.1540   36.3310 C   0  0  0  0  0  0  0  0  0  0  0  0
   39.7490   24.2840   35.7010 N   0  0  0  0  0  0  0  0  0  0  0  0
   37.2310   25.2170   37.7590 H   0  0  0  0  0  0  0  0  0  0  0  0
   37.8980   23.1590   38.8510 H   0  0  0  0  0  0  0  0  0  0  0  0
   40.9030   22.6100   35.8820 H   0  0  0  0  0  0  0  0  0  0  0  0
   36.0180   24.6430   31.4740 C   0  0  0  0  0  0  0  0  0  0  0  0
   34.8040   24.9170   31.2650 O   0  0  0  0  0  0  0  0  0  0  0  0
   36.6430   23.4700   30.8140 C   0  0  1  0  0  0  0  0  0  0  0  0
   37.6770   22.7600   31.7710 C   0  0  0  0  0  0  0  0  0  0  0  0
   36.4400   22.0940   31.2600 C   0  0  1  0  0  0  0  0  0  0  0  0
   37.1830   23.7290   29.8430 H   0  0  0  0  0  0  0  0  0  0  0  0
   38.6410   22.5460   31.3290 H   0  0  0  0  0  0  0  0  0  0  0  0
   37.6850   23.0670   32.8120 H   0  0  0  0  0  0  0  0  0  0  0  0
   36.6720   21.2750   30.5250 H   0  0  0  0  0  0  0  0  0  0  0  0
   35.3590   21.7350   32.2100 C   0  0  0  0  0  3  0  0  0  0  0  0
   35.4820   20.7700   33.3120 C   0  0  0  0  0  2  0  0  0  0  0  0
   34.6810   20.3840   32.0360 C   0  0  0  0  0  2  0  0  0  0  0  0
  1  8  1  0  0  0  0
  2  1  2  0  0  0  0
  3  4  2  0  0  0  0
  3  2  1  0  0  0  0
  4  5  1  0  0  0  0
  5  1  1  0  0  0  0
  6  2  1  0  0  0  0
  7  3  1  0  0  0  0
  8  9  2  0  0  0  0
  8 10  1  0  0  0  0
 10 11  1  0  0  0  0
 11 16  1  0  0  0  0
 11 12  2  0  0  0  0
 12 17  1  0  0  0  0
 13 12  1  0  0  0  0
 14 13  2  0  0  0  0
 15 10  2  0  0  0  0
 15 14  1  0  0  0  0
 18 14  1  0  0  0  0
 19  4  1  0  0  0  0
 20 19  2  0  0  0  0
 21 24  1  6  0  0  0
 21 23  1  0  0  0  0
 21 19  1  0  0  0  0
 21 22  1  0  0  0  0
 22 26  1  0  0  0  0
 23 27  1  6  0  0  0
 23 22  1  0  0  0  0
 23 28  1  0  0  0  0
 25 22  1  0  0  0  0
 28 29  1  0  0  0  0
 30 28  1  0  0  0  0
 30 29  1  0  0  0  0
M  END
>  <minimizedAffinity>
-5.26837587

$$$$

 OpenBabel03272507353D

 30 33  0  0  1  0  0  0  0  0999 V2000
   36.5020   27.7760   32.3380 C   0  0  0  0  0  0  0  0  0  0  0  0
   37.0530   27.2810   33.4990 C   0  0  0  0  0  0  0  0  0  0  0  0
   36.6680   28.1430   34.5430 C   0  0  0  0  0  0  0  0  0  0  0  0
   35.8990   29.1140   33.9330 C   0  0  0  0  0  0  0  0  0  0  0  0
   35.8300   28.8600   32.6440 O   0  0  0  0  0  0  0  0  0  0  0  0
   37.6760   26.4210   33.7320 H   0  0  0  0  0  0  0  0  0  0  0  0
   36.8940   28.1090   35.6160 H   0  0  0  0  0  0  0  0  0  0  0  0
   36.6980   27.1270   31.0510 C   0  0  0  0  0  0  0  0  0  0  0  0
   36.8340   27.8250   30.0350 O   0  0  0  0  0  0  0  0  0  0  0  0
   36.7200   25.6830   31.0440 C   0  0  0  0  0  0  0  0  0  0  0  0
   35.5110   25.0410   31.2490 C   0  0  0  0  0  0  0  0  0  0  0  0
   35.4970   23.6420   31.2500 C   0  0  0  0  0  0  0  0  0  0  0  0
   36.6860   22.9880   31.0480 N   0  0  0  0  0  0  0  0  0  0  0  0
   37.8300   23.6460   30.8560 C   0  0  0  0  0  0  0  0  0  0  0  0
   37.8540   24.9840   30.8530 N   0  0  0  0  0  0  0  0  0  0  0  0
   34.5560   25.4990   31.4100 H   0  0  0  0  0  0  0  0  0  0  0  0
   34.5860   23.0760   31.4040 H   0  0  0  0  0  0  0  0  0  0  0  0
   38.7860   23.1750   30.6940 H   0  0  0  0  0  0  0  0  0  0  0  0
   35.2630   30.2420   34.6160 C   0  0  0  0  0  0  0  0  0  0  0  0
   34.1100   30.6070   34.2530 O   0  0  0  0  0  0  0  0  0  0  0  0
   35.9610   30.9560   35.7130 C   0  0  1  0  0  0  0  0  0  0  0  0
   36.2240   32.4650   35.3360 C   0  0  0  0  0  0  0  0  0  0  0  0
   35.3560   32.0420   36.4780 C   0  0  1  0  0  0  0  0  0  0  0  0
   36.9610   30.4860   35.9960 H   0  0  0  0  0  0  0  0  0  0  0  0
   37.2320   32.8150   35.5100 H   0  0  0  0  0  0  0  0  0  0  0  0
   35.7290   32.8510   34.4500 H   0  0  0  0  0  0  0  0  0  0  0  0
   35.8160   32.2900   37.4740 H   0  0  0  0  0  0  0  0  0  0  0  0
   33.8980   32.3130   36.4270 C   0  0  0  0  0  3  0  0  0  0  0  0
   33.1500   33.1240   37.3990 C   0  0  0  0  0  2  0  0  0  0  0  0
   33.0050   31.5750   37.4140 C   0  0  0  0  0  2  0  0  0  0  0  0
  1  5  1  0  0  0  0
  1  2  2  0  0  0  0
  2  6  1  0  0  0  0
  2  3  1  0  0  0  0
  3  7  1  0  0  0  0
  4  3  2  0  0  0  0
  4 19  1  0  0  0  0
  5  4  1  0  0  0  0
  8  1  1  0  0  0  0
  9  8  2  0  0  0  0
 10  8  1  0  0  0  0
 10 11  1  0  0  0  0
 11 12  2  0  0  0  0
 11 16  1  0  0  0  0
 12 17  1  0  0  0  0
 13 12  1  0  0  0  0
 14 13  2  0  0  0  0
 15 14  1  0  0  0  0
 15 10  2  0  0  0  0
 18 14  1  0  0  0  0
 19 21  1  0  0  0  0
 20 19  2  0  0  0  0
 21 24  1  1  0  0  0
 21 23  1  0  0  0  0
 22 25  1  0  0  0  0
 22 21  1  0  0  0  0
 22 23  1  0  0  0  0
 23 27  1  1  0  0  0
 26 22  1  0  0  0  0
 28 23  1  0  0  0  0
 28 29  1  0  0  0  0
 28 30  1  0  0  0  0
 29 30  1  0  0  0  0
M  END
>  <minimizedAffinity>
-5.23322201

$$$$

 OpenBabel03272507353D

 30 33  0  0  1  0  0  0  0  0999 V2000
   38.1130   25.3050   35.8760 C   0  0  0  0  0  0  0  0  0  0  0  0
   38.4820   26.6110   36.1130 C   0  0  0  0  0  0  0  0  0  0  0  0
   38.1260   27.3580   34.9740 C   0  0  0  0  0  0  0  0  0  0  0  0
   37.5580   26.4400   34.1140 C   0  0  0  0  0  0  0  0  0  0  0  0
   37.5720   25.2520   34.6820 O   0  0  0  0  0  0  0  0  0  0  0  0
   38.9560   27.1220   36.9480 H   0  0  0  0  0  0  0  0  0  0  0  0
   38.2460   28.4260   34.7550 H   0  0  0  0  0  0  0  0  0  0  0  0
   38.3330   24.2500   36.8520 C   0  0  0  0  0  0  0  0  0  0  0  0
   37.5890   24.1740   37.8400 O   0  0  0  0  0  0  0  0  0  0  0  0
   39.4280   23.3430   36.5970 C   0  0  0  0  0  0  0  0  0  0  0  0
   39.9960   22.7290   37.7010 C   0  0  0  0  0  0  0  0  0  0  0  0
   41.0600   21.8450   37.4900 C   0  0  0  0  0  0  0  0  0  0  0  0
   41.4790   21.6390   36.2000 N   0  0  0  0  0  0  0  0  0  0  0  0
   40.9040   22.2530   35.1650 C   0  0  0  0  0  0  0  0  0  0  0  0
   39.8850   23.1000   35.3560 N   0  0  0  0  0  0  0  0  0  0  0  0
   39.7110   22.8510   38.7260 H   0  0  0  0  0  0  0  0  0  0  0  0
   41.5510   21.3300   38.3080 H   0  0  0  0  0  0  0  0  0  0  0  0
   41.1980   22.1220   34.1360 H   0  0  0  0  0  0  0  0  0  0  0  0
   37.0240   26.7420   32.7840 C   0  0  0  0  0  0  0  0  0  0  0  0
   36.3460   25.8650   32.1820 O   0  0  0  0  0  0  0  0  0  0  0  0
   37.2800   28.0570   32.1460 C   0  0  1  0  0  0  0  0  0  0  0  0
   36.2150   28.3640   31.0230 C   0  0  0  0  0  0  0  0  0  0  0  0
   36.3710   29.1940   32.2570 C   0  0  1  0  0  0  0  0  0  0  0  0
   38.3170   28.1410   31.6790 H   0  0  0  0  0  0  0  0  0  0  0  0
   36.6240   28.6970   30.0790 H   0  0  0  0  0  0  0  0  0  0  0  0
   35.3480   27.7120   30.9670 H   0  0  0  0  0  0  0  0  0  0  0  0
   36.7910   30.2130   32.0320 H   0  0  0  0  0  0  0  0  0  0  0  0
   35.2790   29.2240   33.2600 C   0  0  0  0  0  3  0  0  0  0  0  0
   34.4210   30.3830   33.5490 C   0  0  0  0  0  2  0  0  0  0  0  0
   35.5300   29.9740   34.5600 C   0  0  0  0  0  2  0  0  0  0  0  0
  1  2  2  0  0  0  0
  1  8  1  0  0  0  0
  2  6  1  0  0  0  0
  3  2  1  0  0  0  0
  4  5  1  0  0  0  0
  4  3  2  0  0  0  0
  5  1  1  0  0  0  0
  7  3  1  0  0  0  0
  8  9  2  0  0  0  0
 10  8  1  0  0  0  0
 10 11  1  0  0  0  0
 11 16  1  0  0  0  0
 12 11  2  0  0  0  0
 12 17  1  0  0  0  0
 13 12  1  0  0  0  0
 14 15  1  0  0  0  0
 14 13  2  0  0  0  0
 15 10  2  0  0  0  0
 18 14  1  0  0  0  0
 19  4  1  0  0  0  0
 20 19  2  0  0  0  0
 21 24  1  6  0  0  0
 21 23  1  0  0  0  0
 21 19  1  0  0  0  0
 22 21  1  0  0  0  0
 22 23  1  0  0  0  0
 23 27  1  6  0  0  0
 23 28  1  0  0  0  0
 25 22  1  0  0  0  0
 26 22  1  0  0  0  0
 28 29  1  0  0  0  0
 28 30  1  0  0  0  0
 29 30  1  0  0  0  0
M  END
>  <minimizedAffinity>
-5.13971853

$$$$

 OpenBabel03272507353D

 30 33  0  0  1  0  0  0  0  0999 V2000
   37.0310   23.7710   31.6780 C   0  0  0  0  0  0  0  0  0  0  0  0
   36.0010   24.4880   31.1110 C   0  0  0  0  0  0  0  0  0  0  0  0
   35.9580   25.7370   31.7590 C   0  0  0  0  0  0  0  0  0  0  0  0
   36.9800   25.6900   32.6860 C   0  0  0  0  0  0  0  0  0  0  0  0
   37.5800   24.5210   32.6030 O   0  0  0  0  0  0  0  0  0  0  0  0
   35.2800   24.2800   30.3240 H   0  0  0  0  0  0  0  0  0  0  0  0
   35.2900   26.5950   31.6100 H   0  0  0  0  0  0  0  0  0  0  0  0
   37.3650   22.4230   31.2460 C   0  0  0  0  0  0  0  0  0  0  0  0
   38.2350   22.2640   30.3770 O   0  0  0  0  0  0  0  0  0  0  0  0
   36.6440   21.3390   31.8710 C   0  0  0  0  0  0  0  0  0  0  0  0
   36.3440   20.2490   31.0720 C   0  0  0  0  0  0  0  0  0  0  0  0
   35.6440   19.1820   31.6460 C   0  0  0  0  0  0  0  0  0  0  0  0
   35.2960   19.2790   32.9700 N   0  0  0  0  0  0  0  0  0  0  0  0
   35.6050   20.3500   33.7040 C   0  0  0  0  0  0  0  0  0  0  0  0
   36.2730   21.3750   33.1640 N   0  0  0  0  0  0  0  0  0  0  0  0
   36.5900   20.1180   30.0380 H   0  0  0  0  0  0  0  0  0  0  0  0
   35.3770   18.2980   31.0800 H   0  0  0  0  0  0  0  0  0  0  0  0
   35.3530   20.4700   34.7450 H   0  0  0  0  0  0  0  0  0  0  0  0
   37.3370   26.7690   33.6080 C   0  0  0  0  0  0  0  0  0  0  0  0
   36.5370   27.7330   33.7630 O   0  0  0  0  0  0  0  0  0  0  0  0
   38.6230   26.7400   34.3470 C   0  0  1  0  0  0  0  0  0  0  0  0
   38.5040   27.4860   35.7310 C   0  0  0  0  0  0  0  0  0  0  0  0
   38.8100   26.0270   35.6070 C   0  0  1  0  0  0  0  0  0  0  0  0
   39.4890   27.2080   33.7700 H   0  0  0  0  0  0  0  0  0  0  0  0
   39.2900   28.1990   35.9400 H   0  0  0  0  0  0  0  0  0  0  0  0
   37.5070   27.7590   36.0660 H   0  0  0  0  0  0  0  0  0  0  0  0
   39.8670   25.7890   35.9120 H   0  0  0  0  0  0  0  0  0  0  0  0
   37.8250   25.0300   36.0910 C   0  0  0  0  0  3  0  0  0  0  0  0
   37.9190   24.2880   37.3570 C   0  0  0  0  0  2  0  0  0  0  0  0
   38.2080   23.5590   36.0130 C   0  0  0  0  0  2  0  0  0  0  0  0
  1  5  1  0  0  0  0
  2  1  2  0  0  0  0
  2  3  1  0  0  0  0
  3  4  2  0  0  0  0
  4 19  1  0  0  0  0
  5  4  1  0  0  0  0
  6  2  1  0  0  0  0
  7  3  1  0  0  0  0
  8  1  1  0  0  0  0
  8 10  1  0  0  0  0
  9  8  2  0  0  0  0
 10 15  1  0  0  0  0
 11 12  1  0  0  0  0
 11 10  2  0  0  0  0
 12 13  2  0  0  0  0
 13 14  1  0  0  0  0
 14 18  1  0  0  0  0
 15 14  2  0  0  0  0
 16 11  1  0  0  0  0
 17 12  1  0  0  0  0
 19 20  2  0  0  0  0
 19 21  1  0  0  0  0
 21 24  1  6  0  0  0
 21 23  1  0  0  0  0
 21 22  1  0  0  0  0
 22 25  1  0  0  0  0
 22 26  1  0  0  0  0
 23 22  1  0  0  0  0
 23 27  1  1  0  0  0
 23 28  1  0  0  0  0
 28 29  1  0  0  0  0
 30 28  1  0  0  0  0
 30 29  1  0  0  0  0
M  END
>  <minimizedAffinity>
-5.12583542

$$$$

 OpenBabel03272507353D

 30 33  0  0  1  0  0  0  0  0999 V2000
   38.3210   25.2730   35.7100 C   0  0  0  0  0  0  0  0  0  0  0  0
   38.3170   26.5060   36.3230 C   0  0  0  0  0  0  0  0  0  0  0  0
   38.3680   27.4780   35.3050 C   0  0  0  0  0  0  0  0  0  0  0  0
   38.3990   26.7550   34.1300 C   0  0  0  0  0  0  0  0  0  0  0  0
   38.3700   25.4700   34.4140 O   0  0  0  0  0  0  0  0  0  0  0  0
   38.2860   26.8340   37.3600 H   0  0  0  0  0  0  0  0  0  0  0  0
   38.3830   28.5730   35.3650 H   0  0  0  0  0  0  0  0  0  0  0  0
   38.2750   24.0330   36.4670 C   0  0  0  0  0  0  0  0  0  0  0  0
   37.2680   23.7720   37.1430 O   0  0  0  0  0  0  0  0  0  0  0  0
   39.4300   23.1700   36.3790 C   0  0  0  0  0  0  0  0  0  0  0  0
   39.9650   22.7230   37.5760 C   0  0  0  0  0  0  0  0  0  0  0  0
   41.0860   21.8870   37.5270 C   0  0  0  0  0  0  0  0  0  0  0  0
   41.5900   21.5590   36.2930 N   0  0  0  0  0  0  0  0  0  0  0  0
   41.0440   22.0130   35.1640 C   0  0  0  0  0  0  0  0  0  0  0  0
   39.9720   22.8130   35.2010 N   0  0  0  0  0  0  0  0  0  0  0  0
   39.6150   22.9450   38.5630 H   0  0  0  0  0  0  0  0  0  0  0  0
   41.5550   21.5000   38.4230 H   0  0  0  0  0  0  0  0  0  0  0  0
   41.4040   21.7830   34.1750 H   0  0  0  0  0  0  0  0  0  0  0  0
   38.4510   27.3300   32.7840 C   0  0  0  0  0  0  0  0  0  0  0  0
   39.5380   27.2910   32.1430 O   0  0  0  0  0  0  0  0  0  0  0  0
   37.2490   27.9570   32.1800 C   0  0  1  0  0  0  0  0  0  0  0  0
   37.1820   27.6850   30.6280 C   0  0  0  0  0  0  0  0  0  0  0  0
   36.1530   27.1930   31.5940 C   0  0  1  0  0  0  0  0  0  0  0  0
   37.1970   29.0850   32.3420 H   0  0  0  0  0  0  0  0  0  0  0  0
   36.9920   28.5560   30.0160 H   0  0  0  0  0  0  0  0  0  0  0  0
   37.8730   26.9540   30.2190 H   0  0  0  0  0  0  0  0  0  0  0  0
   35.1670   27.7200   31.4690 H   0  0  0  0  0  0  0  0  0  0  0  0
   36.0070   25.7350   31.8270 C   0  0  0  0  0  3  0  0  0  0  0  0
   36.5540   24.6780   30.9640 C   0  0  0  0  0  2  0  0  0  0  0  0
   35.0270   24.9700   30.9500 C   0  0  0  0  0  2  0  0  0  0  0  0
  1  2  2  0  0  0  0
  1  8  1  0  0  0  0
  2  6  1  0  0  0  0
  3  7  1  0  0  0  0
  3  2  1  0  0  0  0
  4  5  1  0  0  0  0
  4  3  2  0  0  0  0
  5  1  1  0  0  0  0
  8  9  2  0  0  0  0
 10  8  1  0  0  0  0
 10 11  1  0  0  0  0
 11 16  1  0  0  0  0
 12 11  2  0  0  0  0
 12 17  1  0  0  0  0
 13 12  1  0  0  0  0
 14 15  1  0  0  0  0
 14 13  2  0  0  0  0
 15 10  2  0  0  0  0
 18 14  1  0  0  0  0
 19  4  1  0  0  0  0
 20 19  2  0  0  0  0
 21 24  1  1  0  0  0
 21 19  1  0  0  0  0
 22 23  1  0  0  0  0
 22 21  1  0  0  0  0
 23 27  1  6  0  0  0
 23 28  1  0  0  0  0
 23 21  1  0  0  0  0
 25 22  1  0  0  0  0
 26 22  1  0  0  0  0
 29 28  1  0  0  0  0
 30 29  1  0  0  0  0
 30 28  1  0  0  0  0
M  END
>  <minimizedAffinity>
-5.12567902

$$$$

 OpenBabel03272507353D

 30 33  0  0  1  0  0  0  0  0999 V2000
   35.3710   29.3310   33.0810 C   0  0  0  0  0  0  0  0  0  0  0  0
   36.1010   29.4750   31.9220 C   0  0  0  0  0  0  0  0  0  0  0  0
   37.0540   28.4380   31.8990 C   0  0  0  0  0  0  0  0  0  0  0  0
   36.8310   27.7280   33.0610 C   0  0  0  0  0  0  0  0  0  0  0  0
   35.8390   28.2870   33.7220 O   0  0  0  0  0  0  0  0  0  0  0  0
   36.0760   30.1810   31.0960 H   0  0  0  0  0  0  0  0  0  0  0  0
   37.8250   28.1950   31.1570 H   0  0  0  0  0  0  0  0  0  0  0  0
   34.2910   30.2390   33.4320 C   0  0  0  0  0  0  0  0  0  0  0  0
   33.3590   30.4090   32.6320 O   0  0  0  0  0  0  0  0  0  0  0  0
   34.3790   30.8950   34.7160 C   0  0  0  0  0  0  0  0  0  0  0  0
   35.5700   31.5400   35.0040 C   0  0  0  0  0  0  0  0  0  0  0  0
   35.6910   32.1840   36.2400 C   0  0  0  0  0  0  0  0  0  0  0  0
   34.6190   32.1380   37.0960 N   0  0  0  0  0  0  0  0  0  0  0  0
   33.4890   31.5030   36.7780 C   0  0  0  0  0  0  0  0  0  0  0  0
   33.3640   30.8850   35.5980 N   0  0  0  0  0  0  0  0  0  0  0  0
   36.4360   31.6090   34.3770 H   0  0  0  0  0  0  0  0  0  0  0  0
   36.5930   32.7080   36.5310 H   0  0  0  0  0  0  0  0  0  0  0  0
   32.6230   31.4410   37.4170 H   0  0  0  0  0  0  0  0  0  0  0  0
   37.5790   26.5440   33.4870 C   0  0  0  0  0  0  0  0  0  0  0  0
   37.1620   25.4020   33.1490 O   0  0  0  0  0  0  0  0  0  0  0  0
   38.8060   26.6780   34.3100 C   0  0  1  0  0  0  0  0  0  0  0  0
   38.5090   27.4450   35.6560 C   0  0  0  0  0  0  0  0  0  0  0  0
   38.9790   26.0260   35.6050 C   0  0  1  0  0  0  0  0  0  0  0  0
   39.6550   27.2210   33.7760 H   0  0  0  0  0  0  0  0  0  0  0  0
   39.1970   28.2460   35.8910 H   0  0  0  0  0  0  0  0  0  0  0  0
   37.4680   27.6160   35.9130 H   0  0  0  0  0  0  0  0  0  0  0  0
   40.0310   25.9140   35.9890 H   0  0  0  0  0  0  0  0  0  0  0  0
   38.0750   24.9410   36.0580 C   0  0  0  0  0  3  0  0  0  0  0  0
   37.9810   24.4320   37.4350 C   0  0  0  0  0  2  0  0  0  0  0  0
   38.6900   23.5790   36.3450 C   0  0  0  0  0  2  0  0  0  0  0  0
  1  8  1  0  0  0  0
  1  5  1  0  0  0  0
  2  1  2  0  0  0  0
  3  2  1  0  0  0  0
  3  4  2  0  0  0  0
  4 19  1  0  0  0  0
  4  5  1  0  0  0  0
  6  2  1  0  0  0  0
  7  3  1  0  0  0  0
  8 10  1  0  0  0  0
  9  8  2  0  0  0  0
 10 11  2  0  0  0  0
 10 15  1  0  0  0  0
 11 12  1  0  0  0  0
 12 17  1  0  0  0  0
 12 13  2  0  0  0  0
 14 13  1  0  0  0  0
 14 18  1  0  0  0  0
 15 14  2  0  0  0  0
 16 11  1  0  0  0  0
 19 21  1  0  0  0  0
 20 19  2  0  0  0  0
 21 24  1  6  0  0  0
 21 23  1  0  0  0  0
 21 22  1  0  0  0  0
 22 25  1  0  0  0  0
 22 26  1  0  0  0  0
 23 22  1  0  0  0  0
 23 27  1  1  0  0  0
 23 28  1  0  0  0  0
 28 30  1  0  0  0  0
 28 29  1  0  0  0  0
 30 29  1  0  0  0  0
M  END
>  <minimizedAffinity>
-5.06647253

$$$$

 OpenBabel03272507353D

 30 33  0  0  1  0  0  0  0  0999 V2000
   37.2080   27.2460   34.7290 C   0  0  0  0  0  0  0  0  0  0  0  0
   38.2450   27.7360   35.4900 C   0  0  0  0  0  0  0  0  0  0  0  0
   38.6670   26.6940   36.3390 C   0  0  0  0  0  0  0  0  0  0  0  0
   37.8450   25.6310   36.0270 C   0  0  0  0  0  0  0  0  0  0  0  0
   37.0060   25.9990   35.0820 O   0  0  0  0  0  0  0  0  0  0  0  0
   38.7510   28.6970   35.5490 H   0  0  0  0  0  0  0  0  0  0  0  0
   39.4610   26.6690   37.0960 H   0  0  0  0  0  0  0  0  0  0  0  0
   36.5260   28.0600   33.7360 C   0  0  0  0  0  0  0  0  0  0  0  0
   35.5670   28.7640   34.0840 O   0  0  0  0  0  0  0  0  0  0  0  0
   37.0250   27.9930   32.3820 C   0  0  0  0  0  0  0  0  0  0  0  0
   36.5800   28.9690   31.5060 C   0  0  0  0  0  0  0  0  0  0  0  0
   37.0420   28.9320   30.1860 C   0  0  0  0  0  0  0  0  0  0  0  0
   37.9090   27.9280   29.8360 N   0  0  0  0  0  0  0  0  0  0  0  0
   38.3110   27.0050   30.7120 C   0  0  0  0  0  0  0  0  0  0  0  0
   37.8760   27.0330   31.9770 N   0  0  0  0  0  0  0  0  0  0  0  0
   35.9070   29.7740   31.7230 H   0  0  0  0  0  0  0  0  0  0  0  0
   36.7360   29.6640   29.4480 H   0  0  0  0  0  0  0  0  0  0  0  0
   38.9900   26.2000   30.4840 H   0  0  0  0  0  0  0  0  0  0  0  0
   37.9010   24.3070   36.6490 C   0  0  0  0  0  0  0  0  0  0  0  0
   37.7290   24.2070   37.8950 O   0  0  0  0  0  0  0  0  0  0  0  0
   38.1640   23.0960   35.8320 C   0  0  1  0  0  0  0  0  0  0  0  0
   39.3330   23.3460   34.8030 C   0  0  0  0  0  0  0  0  0  0  0  0
   39.4080   22.3350   35.9020 C   0  0  1  0  0  0  0  0  0  0  0  0
   37.2530   22.7360   35.2480 H   0  0  0  0  0  0  0  0  0  0  0  0
   39.1250   23.0410   33.7860 H   0  0  0  0  0  0  0  0  0  0  0  0
   39.9160   24.2550   34.9200 H   0  0  0  0  0  0  0  0  0  0  0  0
   39.3890   21.2810   35.5100 H   0  0  0  0  0  0  0  0  0  0  0  0
   40.3790   22.5280   37.0070 C   0  0  0  0  0  3  0  0  0  0  0  0
   41.7850   22.9250   36.8440 C   0  0  0  0  0  2  0  0  0  0  0  0
   41.4380   21.4560   37.2170 C   0  0  0  0  0  2  0  0  0  0  0  0
  1  5  1  0  0  0  0
  1  2  2  0  0  0  0
  2  6  1  0  0  0  0
  2  3  1  0  0  0  0
  3  7  1  0  0  0  0
  4  3  2  0  0  0  0
  4 19  1  0  0  0  0
  5  4  1  0  0  0  0
  8  9  2  0  0  0  0
  8  1  1  0  0  0  0
 10  8  1  0  0  0  0
 11 16  1  0  0  0  0
 11 10  2  0  0  0  0
 12 11  1  0  0  0  0
 13 12  2  0  0  0  0
 13 14  1  0  0  0  0
 14 15  2  0  0  0  0
 15 10  1  0  0  0  0
 17 12  1  0  0  0  0
 18 14  1  0  0  0  0
 19 20  2  0  0  0  0
 21 24  1  6  0  0  0
 21 23  1  0  0  0  0
 21 19  1  0  0  0  0
 22 26  1  0  0  0  0
 22 21  1  0  0  0  0
 22 23  1  0  0  0  0
 23 27  1  6  0  0  0
 23 28  1  0  0  0  0
 25 22  1  0  0  0  0
 28 30  1  0  0  0  0
 29 28  1  0  0  0  0
 29 30  1  0  0  0  0
M  END
>  <minimizedAffinity>
-5.04167747

$$$$

 OpenBabel03272507353D

 30 33  0  0  1  0  0  0  0  0999 V2000
   38.0780   22.4290   32.7250 C   0  0  0  0  0  0  0  0  0  0  0  0
   39.3720   21.9790   32.5910 C   0  0  0  0  0  0  0  0  0  0  0  0
   39.9230   21.9030   33.8850 C   0  0  0  0  0  0  0  0  0  0  0  0
   38.9080   22.3160   34.7250 C   0  0  0  0  0  0  0  0  0  0  0  0
   37.8480   22.6140   34.0030 O   0  0  0  0  0  0  0  0  0  0  0  0
   39.9910   21.6990   31.7410 H   0  0  0  0  0  0  0  0  0  0  0  0
   40.9220   21.5940   34.2180 H   0  0  0  0  0  0  0  0  0  0  0  0
   37.2050   22.6260   31.5790 C   0  0  0  0  0  0  0  0  0  0  0  0
   36.9170   21.6560   30.8620 O   0  0  0  0  0  0  0  0  0  0  0  0
   36.7230   23.9680   31.3480 C   0  0  0  0  0  0  0  0  0  0  0  0
   35.3630   24.1110   31.1320 C   0  0  0  0  0  0  0  0  0  0  0  0
   34.8620   25.3980   30.9030 C   0  0  0  0  0  0  0  0  0  0  0  0
   35.7500   26.4430   30.9070 N   0  0  0  0  0  0  0  0  0  0  0  0
   37.0550   26.2600   31.1180 C   0  0  0  0  0  0  0  0  0  0  0  0
   37.5430   25.0340   31.3380 N   0  0  0  0  0  0  0  0  0  0  0  0
   34.6250   23.3350   31.1190 H   0  0  0  0  0  0  0  0  0  0  0  0
   33.8090   25.5830   30.7280 H   0  0  0  0  0  0  0  0  0  0  0  0
   37.7890   27.0500   31.1300 H   0  0  0  0  0  0  0  0  0  0  0  0
   39.0000   22.4040   36.1830 C   0  0  0  0  0  0  0  0  0  0  0  0
   40.0100   21.9190   36.7640 O   0  0  0  0  0  0  0  0  0  0  0  0
   37.9190   23.0450   36.9730 C   0  0  1  0  0  0  0  0  0  0  0  0
   38.5080   23.8570   38.1900 C   0  0  0  0  0  0  0  0  0  0  0  0
   37.7450   24.4910   37.0700 C   0  0  1  0  0  0  0  0  0  0  0  0
   37.1550   22.3030   37.3820 H   0  0  0  0  0  0  0  0  0  0  0  0
   38.0320   23.6680   39.1430 H   0  0  0  0  0  0  0  0  0  0  0  0
   39.5820   24.0140   38.2130 H   0  0  0  0  0  0  0  0  0  0  0  0
   36.7390   24.8670   37.4020 H   0  0  0  0  0  0  0  0  0  0  0  0
   38.4400   25.4230   36.1490 C   0  0  0  0  0  3  0  0  0  0  0  0
   38.3060   26.8870   36.1600 C   0  0  0  0  0  2  0  0  0  0  0  0
   37.6240   26.0590   35.0340 C   0  0  0  0  0  2  0  0  0  0  0  0
  1  5  1  0  0  0  0
  2  1  2  0  0  0  0
  2  3  1  0  0  0  0
  3  7  1  0  0  0  0
  3  4  2  0  0  0  0
  4 19  1  0  0  0  0
  5  4  1  0  0  0  0
  6  2  1  0  0  0  0
  8  1  1  0  0  0  0
  9  8  2  0  0  0  0
 10  8  1  0  0  0  0
 11 10  2  0  0  0  0
 12 13  2  0  0  0  0
 12 11  1  0  0  0  0
 13 14  1  0  0  0  0
 14 18  1  0  0  0  0
 14 15  2  0  0  0  0
 15 10  1  0  0  0  0
 16 11  1  0  0  0  0
 17 12  1  0  0  0  0
 19 20  2  0  0  0  0
 19 21  1  0  0  0  0
 21 23  1  0  0  0  0
 21 24  1  1  0  0  0
 21 22  1  0  0  0  0
 22 26  1  0  0  0  0
 22 25  1  0  0  0  0
 23 27  1  1  0  0  0
 23 22  1  0  0  0  0
 28 29  1  0  0  0  0
 28 23  1  0  0  0  0
 30 28  1  0  0  0  0
 30 29  1  0  0  0  0
M  END
>  <minimizedAffinity>
-5.00597048

$$$$

 OpenBabel03272507353D

 30 33  0  0  1  0  0  0  0  0999 V2000
   37.7890   25.8400   34.8080 C   0  0  0  0  0  0  0  0  0  0  0  0
   38.3730   26.8110   35.5910 C   0  0  0  0  0  0  0  0  0  0  0  0
   37.7650   28.0360   35.2580 C   0  0  0  0  0  0  0  0  0  0  0  0
   36.8400   27.7180   34.2840 C   0  0  0  0  0  0  0  0  0  0  0  0
   36.8890   26.4230   34.0520 O   0  0  0  0  0  0  0  0  0  0  0  0
   39.1510   26.8010   36.3510 H   0  0  0  0  0  0  0  0  0  0  0  0
   37.9400   29.0480   35.6450 H   0  0  0  0  0  0  0  0  0  0  0  0
   38.1790   24.4420   34.8910 C   0  0  0  0  0  0  0  0  0  0  0  0
   38.2320   23.7650   33.8530 O   0  0  0  0  0  0  0  0  0  0  0  0
   38.4860   23.9250   36.2040 C   0  0  0  0  0  0  0  0  0  0  0  0
   39.7360   23.3530   36.3710 C   0  0  0  0  0  0  0  0  0  0  0  0
   40.0650   22.8410   37.6310 C   0  0  0  0  0  0  0  0  0  0  0  0
   39.1280   22.9360   38.6280 N   0  0  0  0  0  0  0  0  0  0  0  0
   37.9340   23.4940   38.4240 C   0  0  0  0  0  0  0  0  0  0  0  0
   37.6100   23.9870   37.2230 N   0  0  0  0  0  0  0  0  0  0  0  0
   40.5050   23.2530   35.6320 H   0  0  0  0  0  0  0  0  0  0  0  0
   41.0250   22.3800   37.8320 H   0  0  0  0  0  0  0  0  0  0  0  0
   37.1680   23.5910   39.1760 H   0  0  0  0  0  0  0  0  0  0  0  0
   35.9480   28.6700   33.6190 C   0  0  0  0  0  0  0  0  0  0  0  0
   35.5790   29.7020   34.2440 O   0  0  0  0  0  0  0  0  0  0  0  0
   35.4740   28.4250   32.2350 C   0  0  1  0  0  0  0  0  0  0  0  0
   35.6670   29.7040   31.3310 C   0  0  0  0  0  0  0  0  0  0  0  0
   36.3600   28.4030   31.0750 C   0  0  1  0  0  0  0  0  0  0  0  0
   34.3770   28.1180   32.1780 H   0  0  0  0  0  0  0  0  0  0  0  0
   34.8020   29.9920   30.7500 H   0  0  0  0  0  0  0  0  0  0  0  0
   36.2650   30.5150   31.7360 H   0  0  0  0  0  0  0  0  0  0  0  0
   35.9790   27.8960   30.1450 H   0  0  0  0  0  0  0  0  0  0  0  0
   37.8340   28.3190   31.2210 C   0  0  0  0  0  3  0  0  0  0  0  0
   38.7950   28.2350   30.1120 C   0  0  0  0  0  2  0  0  0  0  0  0
   38.4960   26.9730   30.9700 C   0  0  0  0  0  2  0  0  0  0  0  0
  1  8  1  0  0  0  0
  1  2  2  0  0  0  0
  2  6  1  0  0  0  0
  3  2  1  0  0  0  0
  3  7  1  0  0  0  0
  4  3  2  0  0  0  0
  5  4  1  0  0  0  0
  5  1  1  0  0  0  0
  8 10  1  0  0  0  0
  9  8  2  0  0  0  0
 10 11  2  0  0  0  0
 10 15  1  0  0  0  0
 11 12  1  0  0  0  0
 12 17  1  0  0  0  0
 12 13  2  0  0  0  0
 14 13  1  0  0  0  0
 14 18  1  0  0  0  0
 15 14  2  0  0  0  0
 16 11  1  0  0  0  0
 19 20  2  0  0  0  0
 19  4  1  0  0  0  0
 21 24  1  6  0  0  0
 21 19  1  0  0  0  0
 22 26  1  0  0  0  0
 22 21  1  0  0  0  0
 23 27  1  6  0  0  0
 23 28  1  0  0  0  0
 23 22  1  0  0  0  0
 23 21  1  0  0  0  0
 25 22  1  0  0  0  0
 29 30  1  0  0  0  0
 29 28  1  0  0  0  0
 30 28  1  0  0  0  0
M  END
>  <minimizedAffinity>
-4.97574711

$$$$
