
 OpenBabel03272508573D

 34 37  0  0  1  0  0  0  0  0999 V2000
   38.3920   31.8560   44.5380 C   0  0  0  0  0  0  0  0  0  0  0  0
   37.2860   32.4460   44.4200 O   0  0  0  0  0  0  0  0  0  0  0  0
   38.9390   31.5550   45.8350 N   0  0  0  0  0  0  0  0  0  0  0  0
   39.9240   31.2490   45.9960 H   0  0  0  0  0  0  0  0  0  0  0  0
   39.1560   31.4560   43.3490 C   0  0  0  0  0  0  0  0  0  0  0  0
   40.2330   30.6270   43.5080 C   0  0  0  0  0  0  0  0  0  0  0  0
   40.9490   30.2260   42.3940 C   0  0  0  0  0  0  0  0  0  0  0  0
   40.5310   30.6910   41.1860 C   0  0  0  0  0  0  0  0  0  0  0  0
   39.4450   31.5330   40.9950 C   0  0  0  0  0  0  0  0  0  0  0  0
   38.7860   31.8880   42.1260 N   0  0  0  0  0  0  0  0  0  0  0  0
   40.5850   30.2430   44.4740 H   0  0  0  0  0  0  0  0  0  0  0  0
   41.8060   29.5780   42.4260 H   0  0  0  0  0  0  0  0  0  0  0  0
   41.0590   30.4050   40.2750 H   0  0  0  0  0  0  0  0  0  0  0  0
   39.0650   32.0070   39.6610 C   0  0  0  0  0  0  0  0  0  0  0  0
   39.1270   33.2630   39.4510 O   0  0  0  0  0  0  0  0  0  0  0  0
   38.6410   30.9560   38.6820 C   0  0  0  0  0  3  0  0  0  0  0  0
   37.1480   31.0800   38.3130 C   0  0  0  0  0  2  0  0  0  0  0  0
   37.6230   29.9430   39.1150 C   0  0  0  0  0  2  0  0  0  0  0  0
   38.4200   31.0980   48.2240 C   0  0  2  0  0  0  0  0  0  0  0  0
   38.6790   32.5520   48.1140 C   0  0  0  0  0  0  0  0  0  0  0  0
   38.0630   31.6900   46.9760 C   0  0  1  0  0  0  0  0  0  0  0  0
   39.3610   30.4960   48.3180 H   0  0  0  0  0  0  0  0  0  0  0  0
   37.9680   33.2220   48.6500 H   0  0  0  0  0  0  0  0  0  0  0  0
   39.6970   32.9210   47.9780 H   0  0  0  0  0  0  0  0  0  0  0  0
   36.9830   31.9510   46.7650 H   0  0  0  0  0  0  0  0  0  0  0  0
   35.0740   30.2040   49.5270 C   0  0  0  0  0  0  0  0  0  0  0  0
   35.4020   29.5590   50.7550 C   0  0  0  0  0  0  0  0  0  0  0  0
   36.7970   29.4510   51.1250 C   0  0  0  0  0  0  0  0  0  0  0  0
   37.7470   29.9690   50.2830 N   0  0  0  0  0  0  0  0  0  0  0  0
   37.3500   30.5700   49.1270 C   0  0  0  0  0  0  0  0  0  0  0  0
   36.0290   30.7070   48.7170 N   0  0  0  0  0  0  0  0  0  0  0  0
   34.0190   30.2570   49.3000 H   0  0  0  0  0  0  0  0  0  0  0  0
   34.6300   29.1740   51.3720 H   0  0  0  0  0  0  0  0  0  0  0  0
   37.0340   28.9640   52.0490 H   0  0  0  0  0  0  0  0  0  0  0  0
  1  3  1  0  0  0  0
  2  1  2  0  0  0  0
  3  4  1  0  0  0  0
  3 21  1  0  0  0  0
  5  6  1  0  0  0  0
  5  1  1  0  0  0  0
  6 11  1  0  0  0  0
  7 12  1  0  0  0  0
  7  6  2  0  0  0  0
  8  7  1  0  0  0  0
  9  8  2  0  0  0  0
  9 10  1  0  0  0  0
 10  5  2  0  0  0  0
 13  8  1  0  0  0  0
 14  9  1  0  0  0  0
 15 14  2  0  0  0  0
 16 18  1  0  0  0  0
 16 14  1  0  0  0  0
 17 16  1  0  0  0  0
 17 18  1  0  0  0  0
 19 22  1  6  0  0  0
 19 30  1  0  0  0  0
 20 19  1  0  0  0  0
 20 23  1  0  0  0  0
 21 25  1  6  0  0  0
 21 20  1  0  0  0  0
 21 19  1  0  0  0  0
 24 20  1  0  0  0  0
 26 27  1  0  0  0  0
 27 28  2  0  0  0  0
 27 33  1  0  0  0  0
 28 34  1  0  0  0  0
 29 28  1  0  0  0  0
 30 29  2  0  0  0  0
 31 30  1  0  0  0  0
 31 26  2  0  0  0  0
 32 26  1  0  0  0  0
M  END
>  <minimizedAffinity>
-4.8223958

>  <minimizedRMSD>
0.740151167

$$$$
