
 OpenBabel03272509403D

 29 31  0  0  0  0  0  0  0  0999 V2000
   37.0360   30.9540   49.0630 C   0  0  0  0  0  0  0  0  0  0  0  0
   36.7210   31.8520   50.0970 C   0  0  0  0  0  0  0  0  0  0  0  0
   37.3010   33.1140   50.1680 C   0  0  0  0  0  0  0  0  0  0  0  0
   38.2210   33.5220   49.2010 C   0  0  0  0  0  0  0  0  0  0  0  0
   38.5120   32.6260   48.2010 C   0  0  0  0  0  0  0  0  0  0  0  0
   37.9260   31.3740   48.1440 C   0  0  0  0  0  0  0  0  0  0  0  0
   36.0060   31.5300   50.8440 H   0  0  0  0  0  0  0  0  0  0  0  0
   37.0310   33.7800   50.9840 H   0  0  0  0  0  0  0  0  0  0  0  0
   38.6470   34.5130   49.2960 H   0  0  0  0  0  0  0  0  0  0  0  0
   39.2330   33.0080   47.4860 H   0  0  0  0  0  0  0  0  0  0  0  0
   36.3860   29.6580   49.0650 C   0  0  0  0  0  0  0  0  0  0  0  0
   36.9590   28.7740   49.7970 O   0  0  0  0  0  0  0  0  0  0  0  0
   33.6150   30.1620   46.7720 C   0  0  0  0  0  0  0  0  0  0  0  0
   32.9320   28.9470   46.8100 C   0  0  0  0  0  0  0  0  0  0  0  0
   33.4200   27.9470   47.6260 C   0  0  0  0  0  0  0  0  0  0  0  0
   34.5390   28.1650   48.3630 N   0  0  0  0  0  0  0  0  0  0  0  0
   35.1780   29.3260   48.3140 C   0  0  0  0  0  0  0  0  0  0  0  0
   34.6990   30.3120   47.5140 N   0  0  0  0  0  0  0  0  0  0  0  0
   33.2860   30.9850   46.1560 H   0  0  0  0  0  0  0  0  0  0  0  0
   32.0580   28.9000   46.1800 H   0  0  0  0  0  0  0  0  0  0  0  0
   32.8780   27.0280   47.6340 H   0  0  0  0  0  0  0  0  0  0  0  0
   38.3560   30.5730   47.0320 C   0  0  0  0  0  3  0  0  0  0  0  0
   39.1170   30.9150   46.0160 C   0  0  0  0  0  3  0  0  0  0  0  0
   39.6380   30.2170   44.8510 C   0  0  0  0  0  0  0  0  0  0  0  0
   40.2010   30.9230   44.1890 H   0  0  0  0  0  0  0  0  0  0  0  0
   40.3400   29.4070   45.1340 H   0  0  0  0  0  0  0  0  0  0  0  0
   38.5070   29.5990   44.0740 C   0  0  0  0  0  3  0  0  0  0  0  0
   38.8610   28.3520   43.2590 C   0  0  0  0  0  2  0  0  0  0  0  0
   38.4550   29.6150   42.5940 C   0  0  0  0  0  2  0  0  0  0  0  0
  1 11  1  0  0  0  0
  1  2  1  0  0  0  0
  2  3  2  0  0  0  0
  2  7  1  0  0  0  0
  3  8  1  0  0  0  0
  4  9  1  0  0  0  0
  4  3  1  0  0  0  0
  5  4  2  0  0  0  0
  6  5  1  0  0  0  0
  6  1  2  0  0  0  0
 10  5  1  0  0  0  0
 11 12  2  0  0  0  0
 13 14  2  0  0  0  0
 13 18  1  0  0  0  0
 14 15  1  0  0  0  0
 15 21  1  0  0  0  0
 15 16  2  0  0  0  0
 17 16  1  0  0  0  0
 17 11  1  0  0  0  0
 18 17  2  0  0  0  0
 19 13  1  0  0  0  0
 20 14  1  0  0  0  0
 22  6  1  0  0  0  0
 23 22  2  0  0  0  0
 24 26  1  0  0  0  0
 24 23  1  0  0  0  0
 25 24  1  0  0  0  0
 27 24  1  0  0  0  0
 28 27  1  0  0  0  0
 29 28  1  0  0  0  0
 29 27  1  0  0  0  0
M  END
>  <minimizedAffinity>
-5.40055799

>  <minimizedRMSD>
0.87414968

$$$$
