
 OpenBabel03272509573D

 40 43  0  0  0  0  0  0  0  0999 V2000
   34.7140   28.6230   49.6430 O   0  0  0  0  0  0  0  0  0  0  0  0
   37.3520   30.1360   51.6040 C   0  0  0  0  0  0  0  0  0  0  0  0
   38.0790   30.7770   50.5740 C   0  0  0  0  0  0  0  0  0  0  0  0
   37.6190   30.6500   49.2740 C   0  0  0  0  0  0  0  0  0  0  0  0
   36.4810   29.9000   49.1060 N   0  0  0  0  0  0  0  0  0  0  0  0
   35.8110   29.3050   50.0870 C   0  0  0  0  0  0  0  0  0  0  0  0
   36.2610   29.4310   51.3540 N   0  0  0  0  0  0  0  0  0  0  0  0
   37.7320   30.2520   52.6120 H   0  0  0  0  0  0  0  0  0  0  0  0
   38.9720   31.3630   50.7220 H   0  0  0  0  0  0  0  0  0  0  0  0
   38.9890   33.1910   49.0480 F   0  0  0  0  0  0  0  0  0  0  0  0
   38.8730   32.4180   47.9850 C   0  0  0  0  0  0  0  0  0  0  0  0
   38.2300   31.2310   48.1010 C   0  0  0  0  0  0  0  0  0  0  0  0
   38.1600   30.4920   46.9230 C   0  0  0  0  0  0  0  0  0  0  0  0
   38.7080   30.9440   45.7430 C   0  0  0  0  0  0  0  0  0  0  0  0
   39.3490   32.1520   45.6720 C   0  0  0  0  0  0  0  0  0  0  0  0
   39.4270   32.8910   46.8130 C   0  0  0  0  0  0  0  0  0  0  0  0
   37.6780   29.5240   46.8650 H   0  0  0  0  0  0  0  0  0  0  0  0
   38.6460   30.3570   44.8310 H   0  0  0  0  0  0  0  0  0  0  0  0
   39.7910   32.5340   44.7500 H   0  0  0  0  0  0  0  0  0  0  0  0
   39.9310   33.8430   46.7670 H   0  0  0  0  0  0  0  0  0  0  0  0
   34.5620   28.3900   48.2530 C   0  0  0  0  0  0  0  0  0  0  0  0
   34.1520   29.2970   47.7930 H   0  0  0  0  0  0  0  0  0  0  0  0
   35.5580   28.0850   47.8460 H   0  0  0  0  0  0  0  0  0  0  0  0
   33.6140   27.2510   47.9970 C   0  0  0  0  0  0  0  0  0  0  0  0
   33.9110   26.6510   47.1010 H   0  0  0  0  0  0  0  0  0  0  0  0
   33.6470   26.5530   48.8390 H   0  0  0  0  0  0  0  0  0  0  0  0
   32.2110   27.7310   47.8010 C   0  0  0  0  0  0  0  0  0  0  0  0
   31.2480   27.2680   48.6750 C   0  0  0  0  0  0  0  0  0  0  0  0
   29.9340   27.6440   48.5840 C   0  0  0  0  0  0  0  0  0  0  0  0
   29.5690   28.4830   47.6260 N   0  0  0  0  0  0  0  0  0  0  0  0
   30.5170   28.9370   46.7700 C   0  0  0  0  0  0  0  0  0  0  0  0
   31.8150   28.5800   46.8390 N   0  0  0  0  0  0  0  0  0  0  0  0
   31.5360   26.5810   49.4610 H   0  0  0  0  0  0  0  0  0  0  0  0
   29.2250   27.2320   49.3160 H   0  0  0  0  0  0  0  0  0  0  0  0
   30.0900   29.8880   45.6870 C   0  0  0  0  0  0  0  0  0  0  0  0
   29.5120   30.7330   46.1380 H   0  0  0  0  0  0  0  0  0  0  0  0
   29.4300   29.3560   44.9520 H   0  0  0  0  0  0  0  0  0  0  0  0
   31.2560   30.4360   44.9320 C   0  0  0  0  0  3  0  0  0  0  0  0
   30.8870   31.6490   44.0540 C   0  0  0  0  0  2  0  0  0  0  0  0
   31.8480   31.7550   45.1950 C   0  0  0  0  0  2  0  0  0  0  0  0
  1  6  1  0  0  0  0
  2  8  1  0  0  0  0
  3  9  1  0  0  0  0
  3  2  2  0  0  0  0
  4  3  1  0  0  0  0
  5  4  2  0  0  0  0
  5  6  1  0  0  0  0
  6  7  2  0  0  0  0
  7  2  1  0  0  0  0
 11 12  1  0  0  0  0
 11 10  1  0  0  0  0
 12  4  1  0  0  0  0
 13 12  2  0  0  0  0
 14 13  1  0  0  0  0
 15 14  2  0  0  0  0
 15 16  1  0  0  0  0
 16 11  2  0  0  0  0
 17 13  1  0  0  0  0
 18 14  1  0  0  0  0
 19 15  1  0  0  0  0
 20 16  1  0  0  0  0
 21  1  1  0  0  0  0
 22 21  1  0  0  0  0
 23 21  1  0  0  0  0
 24 21  1  0  0  0  0
 24 26  1  0  0  0  0
 25 24  1  0  0  0  0
 27 24  1  0  0  0  0
 27 28  1  0  0  0  0
 28 33  1  0  0  0  0
 29 28  2  0  0  0  0
 29 34  1  0  0  0  0
 30 29  1  0  0  0  0
 31 32  1  0  0  0  0
 31 30  2  0  0  0  0
 32 27  2  0  0  0  0
 35 36  1  0  0  0  0
 35 31  1  0  0  0  0
 37 35  1  0  0  0  0
 38 40  1  0  0  0  0
 38 35  1  0  0  0  0
 39 38  1  0  0  0  0
 39 40  1  0  0  0  0
M  END
>  <minimizedAffinity>
-6.1216836

>  <minimizedRMSD>
0.421864718

$$$$
