
 OpenBabel03272509583D

 40 43  0  0  0  0  0  0  0  0999 V2000
   34.5470   28.7900   49.6480 O   0  0  0  0  0  0  0  0  0  0  0  0
   37.2590   30.0180   51.7050 C   0  0  0  0  0  0  0  0  0  0  0  0
   38.0310   30.6740   50.7180 C   0  0  0  0  0  0  0  0  0  0  0  0
   37.5720   30.6540   49.4120 C   0  0  0  0  0  0  0  0  0  0  0  0
   36.3920   29.9870   49.1950 N   0  0  0  0  0  0  0  0  0  0  0  0
   35.6810   29.3750   50.1360 C   0  0  0  0  0  0  0  0  0  0  0  0
   36.1290   29.3960   51.4090 N   0  0  0  0  0  0  0  0  0  0  0  0
   37.6380   30.0480   52.7190 H   0  0  0  0  0  0  0  0  0  0  0  0
   38.9560   31.1950   50.9040 H   0  0  0  0  0  0  0  0  0  0  0  0
   38.8260   33.2610   49.2680 F   0  0  0  0  0  0  0  0  0  0  0  0
   38.8140   32.4860   48.2010 C   0  0  0  0  0  0  0  0  0  0  0  0
   38.2250   31.2680   48.2780 C   0  0  0  0  0  0  0  0  0  0  0  0
   38.2640   30.5280   47.0990 C   0  0  0  0  0  0  0  0  0  0  0  0
   38.8610   31.0100   45.9540 C   0  0  0  0  0  0  0  0  0  0  0  0
   39.4450   32.2490   45.9210 C   0  0  0  0  0  0  0  0  0  0  0  0
   39.4160   32.9870   47.0640 C   0  0  0  0  0  0  0  0  0  0  0  0
   37.8350   29.5390   47.0110 H   0  0  0  0  0  0  0  0  0  0  0  0
   38.8850   30.4230   45.0410 H   0  0  0  0  0  0  0  0  0  0  0  0
   39.9230   32.6530   45.0280 H   0  0  0  0  0  0  0  0  0  0  0  0
   39.8730   33.9640   47.0490 H   0  0  0  0  0  0  0  0  0  0  0  0
   34.5110   28.3790   48.2920 C   0  0  0  0  0  0  0  0  0  0  0  0
   34.1980   29.2340   47.6790 H   0  0  0  0  0  0  0  0  0  0  0  0
   35.5210   27.9780   48.0280 H   0  0  0  0  0  0  0  0  0  0  0  0
   33.5270   27.2590   48.0920 C   0  0  0  0  0  0  0  0  0  0  0  0
   33.8030   26.6080   47.2270 H   0  0  0  0  0  0  0  0  0  0  0  0
   33.5400   26.6030   48.9670 H   0  0  0  0  0  0  0  0  0  0  0  0
   32.1400   27.7730   47.8740 C   0  0  0  0  0  0  0  0  0  0  0  0
   31.1670   27.3930   48.7760 C   0  0  0  0  0  0  0  0  0  0  0  0
   29.8660   27.8060   48.6680 C   0  0  0  0  0  0  0  0  0  0  0  0
   29.5220   28.6000   47.6650 N   0  0  0  0  0  0  0  0  0  0  0  0
   30.4800   28.9730   46.7810 C   0  0  0  0  0  0  0  0  0  0  0  0
   31.7660   28.5780   46.8660 N   0  0  0  0  0  0  0  0  0  0  0  0
   31.4370   26.7440   49.6000 H   0  0  0  0  0  0  0  0  0  0  0  0
   29.1470   27.4610   49.4260 H   0  0  0  0  0  0  0  0  0  0  0  0
   30.0780   29.8740   45.6460 C   0  0  0  0  0  0  0  0  0  0  0  0
   29.4600   30.7180   46.0410 H   0  0  0  0  0  0  0  0  0  0  0  0
   29.4650   29.2990   44.9040 H   0  0  0  0  0  0  0  0  0  0  0  0
   31.2630   30.4250   44.9240 C   0  0  0  0  0  3  0  0  0  0  0  0
   30.9150   31.6410   44.0420 C   0  0  0  0  0  2  0  0  0  0  0  0
   31.8480   31.7430   45.2070 C   0  0  0  0  0  2  0  0  0  0  0  0
  1  6  1  0  0  0  0
  2  8  1  0  0  0  0
  3  9  1  0  0  0  0
  3  2  2  0  0  0  0
  4  3  1  0  0  0  0
  5  4  2  0  0  0  0
  5  6  1  0  0  0  0
  6  7  2  0  0  0  0
  7  2  1  0  0  0  0
 11 12  1  0  0  0  0
 11 10  1  0  0  0  0
 12  4  1  0  0  0  0
 13 12  2  0  0  0  0
 14 13  1  0  0  0  0
 15 14  2  0  0  0  0
 15 16  1  0  0  0  0
 16 11  2  0  0  0  0
 17 13  1  0  0  0  0
 18 14  1  0  0  0  0
 19 15  1  0  0  0  0
 20 16  1  0  0  0  0
 21  1  1  0  0  0  0
 22 21  1  0  0  0  0
 23 21  1  0  0  0  0
 24 21  1  0  0  0  0
 24 26  1  0  0  0  0
 25 24  1  0  0  0  0
 27 24  1  0  0  0  0
 27 28  1  0  0  0  0
 28 33  1  0  0  0  0
 29 28  2  0  0  0  0
 29 34  1  0  0  0  0
 30 29  1  0  0  0  0
 31 32  1  0  0  0  0
 31 30  2  0  0  0  0
 32 27  2  0  0  0  0
 35 36  1  0  0  0  0
 35 31  1  0  0  0  0
 37 35  1  0  0  0  0
 38 40  1  0  0  0  0
 38 35  1  0  0  0  0
 39 38  1  0  0  0  0
 39 40  1  0  0  0  0
M  END
>  <minimizedAffinity>
-6.14866829

>  <minimizedRMSD>
0.544209123

$$$$
