
 OpenBabel03272500223D

 31 33  0  0  0  0  0  0  0  0999 V2000
   35.4790   29.2290   50.4290 C   0  0  0  0  0  0  0  0  0  0  0  0
   36.3530   30.1480   49.7930 C   0  0  0  0  0  0  0  0  0  0  0  0
   36.2730   30.2930   48.4260 C   0  0  0  0  0  0  0  0  0  0  0  0
   35.3510   29.5420   47.7380 N   0  0  0  0  0  0  0  0  0  0  0  0
   34.5420   28.6870   48.3490 C   0  0  0  0  0  0  0  0  0  0  0  0
   34.5970   28.5230   49.6860 N   0  0  0  0  0  0  0  0  0  0  0  0
   35.5290   29.1010   51.5070 H   0  0  0  0  0  0  0  0  0  0  0  0
   32.7180   30.3100   46.5660 Cl  0  0  0  0  0  0  0  0  0  0  0  0
   32.6880   28.5600   46.7030 C   0  0  0  0  0  0  0  0  0  0  0  0
   33.5730   27.9090   47.5550 C   0  0  0  0  0  0  0  0  0  0  0  0
   33.5910   26.5270   47.7000 C   0  0  0  0  0  0  0  0  0  0  0  0
   32.6650   25.8180   46.9370 C   0  0  0  0  0  0  0  0  0  0  0  0
   31.7770   26.4270   46.0880 C   0  0  0  0  0  0  0  0  0  0  0  0
   30.6650   25.4330   45.1860 Cl  0  0  0  0  0  0  0  0  0  0  0  0
   31.8010   27.8170   45.9790 C   0  0  0  0  0  0  0  0  0  0  0  0
   34.2860   26.0280   48.3680 H   0  0  0  0  0  0  0  0  0  0  0  0
   32.7160   24.7440   47.0830 H   0  0  0  0  0  0  0  0  0  0  0  0
   30.8480   28.4890   45.0650 C   0  0  0  0  0  0  0  0  0  0  0  0
   29.8790   27.5840   44.6150 F   0  0  0  0  0  0  0  0  0  0  0  0
   31.4700   29.0910   44.0130 F   0  0  0  0  0  0  0  0  0  0  0  0
   30.1570   29.4650   45.7610 F   0  0  0  0  0  0  0  0  0  0  0  0
   37.3160   30.9120   50.6430 C   0  0  0  0  0  0  0  0  0  0  0  0
   38.6170   30.7770   50.1700 F   0  0  0  0  0  0  0  0  0  0  0  0
   36.9710   32.2500   50.5730 F   0  0  0  0  0  0  0  0  0  0  0  0
   37.2800   30.5330   51.9740 F   0  0  0  0  0  0  0  0  0  0  0  0
   37.1700   31.2430   47.7470 C   0  0  0  0  0  0  0  0  0  0  0  0
   36.5890   31.9130   47.0900 H   0  0  0  0  0  0  0  0  0  0  0  0
   37.7380   31.7960   48.5430 H   0  0  0  0  0  0  0  0  0  0  0  0
   38.2360   30.5070   46.9640 C   0  0  0  0  0  0  0  0  0  0  0  0
   39.3930   31.3780   46.4260 C   0  0  0  0  0  0  0  0  0  0  0  0
   38.3760   30.8490   45.4870 C   0  0  0  0  0  0  0  0  0  0  0  0
  1  7  1  0  0  0  0
  2  1  1  0  0  0  0
  2 22  1  0  0  0  0
  3  2  2  0  0  0  0
  4  5  2  0  0  0  0
  4  3  1  0  0  0  0
  5  6  1  0  0  0  0
  6  1  2  0  0  0  0
  8  9  1  0  0  0  0
  9 10  1  0  0  0  0
 10 11  2  0  0  0  0
 10  5  1  0  0  0  0
 11 16  1  0  0  0  0
 12 17  1  0  0  0  0
 12 11  1  0  0  0  0
 13 12  2  0  0  0  0
 14 13  1  0  0  0  0
 15 13  1  0  0  0  0
 15  9  2  0  0  0  0
 18 21  1  0  0  0  0
 18 15  1  0  0  0  0
 19 18  1  0  0  0  0
 20 18  1  0  0  0  0
 22 25  1  0  0  0  0
 23 22  1  0  0  0  0
 24 22  1  0  0  0  0
 26  3  1  0  0  0  0
 26 28  1  0  0  0  0
 27 26  1  0  0  0  0
 29 26  1  0  0  0  0
 30 29  1  0  0  0  0
 31 30  1  0  0  0  0
 31 29  1  0  0  0  0
M  END
>  <minimizedAffinity>
-5.93430138

>  <minimizedRMSD>
0.939602673

$$$$
