
 OpenBabel03272510303D

 22 24  0  0  0  0  0  0  0  0999 V2000
   37.2660   31.3430   49.2020 C   0  0  0  0  0  0  0  0  0  0  0  0
   37.5740   32.6100   49.7020 C   0  0  0  0  0  0  0  0  0  0  0  0
   38.5000   33.3330   48.9830 C   0  0  0  0  0  0  0  0  0  0  0  0
   39.0570   32.7950   47.8500 N   0  0  0  0  0  0  0  0  0  0  0  0
   38.7190   31.5460   47.4020 C   0  0  0  0  0  0  0  0  0  0  0  0
   37.8000   30.8040   48.1000 N   0  0  0  0  0  0  0  0  0  0  0  0
   37.1100   32.9930   50.6000 H   0  0  0  0  0  0  0  0  0  0  0  0
   38.8040   34.3250   49.2920 H   0  0  0  0  0  0  0  0  0  0  0  0
   36.2320   30.5390   49.9480 C   0  0  0  0  0  0  0  0  0  0  0  0
   36.1500   29.1030   49.8780 C   0  0  0  0  0  0  0  0  0  0  0  0
   36.8380   29.7060   51.0900 C   0  0  0  0  0  0  0  0  0  0  0  0
   35.3330   31.1510   50.2600 H   0  0  0  0  0  0  0  0  0  0  0  0
   35.1480   28.6410   50.0270 H   0  0  0  0  0  0  0  0  0  0  0  0
   36.8040   28.5080   49.2100 H   0  0  0  0  0  0  0  0  0  0  0  0
   36.2720   29.6720   52.0490 H   0  0  0  0  0  0  0  0  0  0  0  0
   37.9270   29.6630   51.1910 H   0  0  0  0  0  0  0  0  0  0  0  0
   39.2900   30.9510   46.1850 C   0  0  0  0  0  0  0  0  0  0  0  0
   40.2560   31.4170   45.9050 H   0  0  0  0  0  0  0  0  0  0  0  0
   39.5150   29.8810   46.3750 H   0  0  0  0  0  0  0  0  0  0  0  0
   38.2970   31.0110   45.0480 C   0  0  0  0  0  3  0  0  0  0  0  0
   37.8170   32.2950   44.5070 C   0  0  0  0  0  2  0  0  0  0  0  0
   38.7320   31.3620   43.6870 C   0  0  0  0  0  2  0  0  0  0  0  0
  1  2  1  0  0  0  0
  1  9  1  0  0  0  0
  2  7  1  0  0  0  0
  3  8  1  0  0  0  0
  3  2  2  0  0  0  0
  4  3  1  0  0  0  0
  5  4  2  0  0  0  0
  5  6  1  0  0  0  0
  6  1  2  0  0  0  0
  9 12  1  0  0  0  0
  9 11  1  0  0  0  0
 10  9  1  0  0  0  0
 10 13  1  0  0  0  0
 10 11  1  0  0  0  0
 11 16  1  0  0  0  0
 11 15  1  0  0  0  0
 14 10  1  0  0  0  0
 17 19  1  0  0  0  0
 17  5  1  0  0  0  0
 18 17  1  0  0  0  0
 20 17  1  0  0  0  0
 21 20  1  0  0  0  0
 22 21  1  0  0  0  0
 22 20  1  0  0  0  0
M  END
>  <minimizedAffinity>
-4.72037125

>  <minimizedRMSD>
0.241614759

$$$$
