
 OpenBabel03272508423D

 14 15  0  0  0  0  0  0  0  0999 V2000
   37.5570   30.4550   50.8770 C   0  0  0  0  0  0  0  0  0  0  0  0
   38.3720   31.3430   50.1360 C   0  0  0  0  0  0  0  0  0  0  0  0
   37.9660   31.6690   48.8410 C   0  0  0  0  0  0  0  0  0  0  0  0
   36.8240   31.1160   48.3810 N   0  0  0  0  0  0  0  0  0  0  0  0
   36.0680   30.2730   49.1090 C   0  0  0  0  0  0  0  0  0  0  0  0
   36.4270   29.9420   50.3450 N   0  0  0  0  0  0  0  0  0  0  0  0
   37.8780   30.2060   51.8800 H   0  0  0  0  0  0  0  0  0  0  0  0
   39.2840   31.7730   50.5260 H   0  0  0  0  0  0  0  0  0  0  0  0
   38.5590   32.3440   48.2380 H   0  0  0  0  0  0  0  0  0  0  0  0
   34.8400   29.6890   48.5890 C   0  0  0  0  0  0  0  0  0  0  0  0
   34.1220   30.2410   47.7270 O   0  0  0  0  0  0  0  0  0  0  0  0
   34.3160   28.3670   49.0380 C   0  0  0  0  0  3  0  0  0  0  0  0
   34.0300   27.3080   48.0390 C   0  0  0  0  0  2  0  0  0  0  0  0
   32.8890   28.0120   48.8010 C   0  0  0  0  0  2  0  0  0  0  0  0
  1  7  1  0  0  0  0
  2  8  1  0  0  0  0
  2  1  2  0  0  0  0
  3  2  1  0  0  0  0
  4  3  2  0  0  0  0
  4  5  1  0  0  0  0
  5  6  2  0  0  0  0
  6  1  1  0  0  0  0
  9  3  1  0  0  0  0
 10 12  1  0  0  0  0
 10  5  1  0  0  0  0
 11 10  2  0  0  0  0
 13 14  1  0  0  0  0
 13 12  1  0  0  0  0
 14 12  1  0  0  0  0
M  END
>  <minimizedAffinity>
-3.97089124

>  <minimizedRMSD>
1.75233173

$$$$
