
 OpenBabel03272510303D

 22 24  0  0  0  0  0  0  0  0999 V2000
   38.4510   24.9850   36.3380 C   0  0  0  0  0  0  0  0  0  0  0  0
   37.8810   25.1120   37.6070 C   0  0  0  0  0  0  0  0  0  0  0  0
   38.1540   24.0960   38.4960 C   0  0  0  0  0  0  0  0  0  0  0  0
   38.9460   23.0450   38.1080 N   0  0  0  0  0  0  0  0  0  0  0  0
   39.4820   22.9680   36.8510 C   0  0  0  0  0  0  0  0  0  0  0  0
   39.2240   23.9660   35.9450 N   0  0  0  0  0  0  0  0  0  0  0  0
   37.2620   25.9590   37.8680 H   0  0  0  0  0  0  0  0  0  0  0  0
   37.7580   24.1060   39.5030 H   0  0  0  0  0  0  0  0  0  0  0  0
   38.1960   26.0960   35.3520 C   0  0  0  0  0  0  0  0  0  0  0  0
   38.1230   27.4840   35.7300 C   0  0  0  0  0  0  0  0  0  0  0  0
   39.4290   26.9880   35.1330 C   0  0  0  0  0  0  0  0  0  0  0  0
   37.7190   25.7370   34.3910 H   0  0  0  0  0  0  0  0  0  0  0  0
   37.4870   28.1500   35.1060 H   0  0  0  0  0  0  0  0  0  0  0  0
   38.1810   27.8080   36.7880 H   0  0  0  0  0  0  0  0  0  0  0  0
   39.6460   27.3050   34.0860 H   0  0  0  0  0  0  0  0  0  0  0  0
   40.3100   26.8370   35.7650 H   0  0  0  0  0  0  0  0  0  0  0  0
   40.3440   21.8610   36.4140 C   0  0  0  0  0  0  0  0  0  0  0  0
   39.8150   20.8860   36.4330 H   0  0  0  0  0  0  0  0  0  0  0  0
   40.6370   22.0240   35.3570 H   0  0  0  0  0  0  0  0  0  0  0  0
   41.6120   21.8170   37.2350 C   0  0  0  0  0  3  0  0  0  0  0  0
   42.4990   20.6410   37.2240 C   0  0  0  0  0  2  0  0  0  0  0  0
   42.9270   21.9820   36.5950 C   0  0  0  0  0  2  0  0  0  0  0  0
  1  2  1  0  0  0  0
  2  7  1  0  0  0  0
  2  3  2  0  0  0  0
  3  8  1  0  0  0  0
  4  3  1  0  0  0  0
  5  4  2  0  0  0  0
  6  1  2  0  0  0  0
  6  5  1  0  0  0  0
  9 10  1  0  0  0  0
  9  1  1  0  0  0  0
 10 14  1  0  0  0  0
 11  9  1  0  0  0  0
 11 10  1  0  0  0  0
 11 16  1  0  0  0  0
 12  9  1  0  0  0  0
 13 10  1  0  0  0  0
 15 11  1  0  0  0  0
 17 18  1  0  0  0  0
 17  5  1  0  0  0  0
 17 20  1  0  0  0  0
 19 17  1  0  0  0  0
 21 20  1  0  0  0  0
 22 21  1  0  0  0  0
 22 20  1  0  0  0  0
M  END
>  <minimizedAffinity>
-4.21733618

$$$$

 OpenBabel03272510303D

 22 24  0  0  0  0  0  0  0  0999 V2000
   37.0790   27.6670   33.8930 C   0  0  0  0  0  0  0  0  0  0  0  0
   36.7370   27.2340   32.6100 C   0  0  0  0  0  0  0  0  0  0  0  0
   35.6870   27.8950   32.0110 C   0  0  0  0  0  0  0  0  0  0  0  0
   35.0490   28.9100   32.6780 N   0  0  0  0  0  0  0  0  0  0  0  0
   35.4240   29.2960   33.9360 C   0  0  0  0  0  0  0  0  0  0  0  0
   36.4660   28.6540   34.5570 N   0  0  0  0  0  0  0  0  0  0  0  0
   37.2690   26.4290   32.1230 H   0  0  0  0  0  0  0  0  0  0  0  0
   35.3490   27.6310   31.0170 H   0  0  0  0  0  0  0  0  0  0  0  0
   38.2440   26.9860   34.5640 C   0  0  0  0  0  0  0  0  0  0  0  0
   38.5770   27.1780   35.9520 C   0  0  0  0  0  0  0  0  0  0  0  0
   37.8030   25.9230   35.5840 C   0  0  0  0  0  0  0  0  0  0  0  0
   39.0250   26.6160   33.8320 H   0  0  0  0  0  0  0  0  0  0  0  0
   39.6450   27.0620   36.2420 H   0  0  0  0  0  0  0  0  0  0  0  0
   38.0310   27.8980   36.5930 H   0  0  0  0  0  0  0  0  0  0  0  0
   38.3760   24.9660   35.5990 H   0  0  0  0  0  0  0  0  0  0  0  0
   36.7400   25.8320   35.8260 H   0  0  0  0  0  0  0  0  0  0  0  0
   34.7670   30.3880   34.6680 C   0  0  0  0  0  0  0  0  0  0  0  0
   34.3310   31.1460   33.9850 H   0  0  0  0  0  0  0  0  0  0  0  0
   33.9140   29.9770   35.2460 H   0  0  0  0  0  0  0  0  0  0  0  0
   35.7220   31.0180   35.6550 C   0  0  0  0  0  3  0  0  0  0  0  0
   36.2270   32.3900   35.4730 C   0  0  0  0  0  2  0  0  0  0  0  0
   35.2510   32.0320   36.6120 C   0  0  0  0  0  2  0  0  0  0  0  0
  1  6  1  0  0  0  0
  1  9  1  0  0  0  0
  2  1  2  0  0  0  0
  3  2  1  0  0  0  0
  3  4  2  0  0  0  0
  4  5  1  0  0  0  0
  5  6  2  0  0  0  0
  5 17  1  0  0  0  0
  7  2  1  0  0  0  0
  8  3  1  0  0  0  0
  9 11  1  0  0  0  0
  9 10  1  0  0  0  0
 10 13  1  0  0  0  0
 10 14  1  0  0  0  0
 11 15  1  0  0  0  0
 11 16  1  0  0  0  0
 11 10  1  0  0  0  0
 12  9  1  0  0  0  0
 17 19  1  0  0  0  0
 17 20  1  0  0  0  0
 18 17  1  0  0  0  0
 20 22  1  0  0  0  0
 21 20  1  0  0  0  0
 21 22  1  0  0  0  0
M  END
>  <minimizedAffinity>
-4.10400772

$$$$

 OpenBabel03272510303D

 22 24  0  0  0  0  0  0  0  0999 V2000
   38.1410   24.8610   35.3310 C   0  0  0  0  0  0  0  0  0  0  0  0
   38.0860   24.5770   36.6970 C   0  0  0  0  0  0  0  0  0  0  0  0
   37.9700   23.2450   37.0320 C   0  0  0  0  0  0  0  0  0  0  0  0
   37.9170   22.2950   36.0440 N   0  0  0  0  0  0  0  0  0  0  0  0
   37.9760   22.6270   34.7170 C   0  0  0  0  0  0  0  0  0  0  0  0
   38.0890   23.9460   34.3560 N   0  0  0  0  0  0  0  0  0  0  0  0
   38.1310   25.3590   37.4410 H   0  0  0  0  0  0  0  0  0  0  0  0
   37.9200   22.9260   38.0650 H   0  0  0  0  0  0  0  0  0  0  0  0
   38.2990   26.3060   34.9320 C   0  0  0  0  0  0  0  0  0  0  0  0
   38.6280   27.3500   35.8680 C   0  0  0  0  0  0  0  0  0  0  0  0
   39.7560   26.7890   35.0210 C   0  0  0  0  0  0  0  0  0  0  0  0
   37.7970   26.5530   33.9490 H   0  0  0  0  0  0  0  0  0  0  0  0
   38.2660   28.3760   35.6360 H   0  0  0  0  0  0  0  0  0  0  0  0
   38.7140   27.1580   36.9560 H   0  0  0  0  0  0  0  0  0  0  0  0
   40.1260   27.4400   34.1940 H   0  0  0  0  0  0  0  0  0  0  0  0
   40.5070   26.1250   35.4600 H   0  0  0  0  0  0  0  0  0  0  0  0
   37.9350   21.6290   33.6390 C   0  0  0  0  0  0  0  0  0  0  0  0
   38.5940   21.9020   32.7910 H   0  0  0  0  0  0  0  0  0  0  0  0
   38.3230   20.6630   34.0240 H   0  0  0  0  0  0  0  0  0  0  0  0
   36.5130   21.3960   33.1830 C   0  0  0  0  0  3  0  0  0  0  0  0
   36.0920   20.1140   32.5920 C   0  0  0  0  0  2  0  0  0  0  0  0
   35.5950   20.5660   33.9800 C   0  0  0  0  0  2  0  0  0  0  0  0
  1  2  1  0  0  0  0
  2  3  2  0  0  0  0
  2  7  1  0  0  0  0
  3  8  1  0  0  0  0
  4  3  1  0  0  0  0
  5  4  2  0  0  0  0
  6  5  1  0  0  0  0
  6  1  2  0  0  0  0
  9 11  1  0  0  0  0
  9  1  1  0  0  0  0
  9 10  1  0  0  0  0
 10 14  1  0  0  0  0
 11 16  1  0  0  0  0
 11 10  1  0  0  0  0
 12  9  1  0  0  0  0
 13 10  1  0  0  0  0
 15 11  1  0  0  0  0
 17 19  1  0  0  0  0
 17  5  1  0  0  0  0
 18 17  1  0  0  0  0
 20 17  1  0  0  0  0
 20 22  1  0  0  0  0
 21 20  1  0  0  0  0
 21 22  1  0  0  0  0
M  END
>  <minimizedAffinity>
-4.08166409

$$$$

 OpenBabel03272510303D

 22 24  0  0  0  0  0  0  0  0999 V2000
   35.9870   23.8250   31.5420 C   0  0  0  0  0  0  0  0  0  0  0  0
   35.1780   24.7770   30.9170 C   0  0  0  0  0  0  0  0  0  0  0  0
   35.4290   26.0910   31.2450 C   0  0  0  0  0  0  0  0  0  0  0  0
   36.4270   26.3930   32.1360 N   0  0  0  0  0  0  0  0  0  0  0  0
   37.1930   25.4220   32.7210 C   0  0  0  0  0  0  0  0  0  0  0  0
   36.9630   24.1040   32.4140 N   0  0  0  0  0  0  0  0  0  0  0  0
   34.4020   24.4920   30.2200 H   0  0  0  0  0  0  0  0  0  0  0  0
   34.8540   26.9000   30.8120 H   0  0  0  0  0  0  0  0  0  0  0  0
   35.7580   22.3800   31.1800 C   0  0  0  0  0  0  0  0  0  0  0  0
   36.5010   21.2950   31.7670 C   0  0  0  0  0  0  0  0  0  0  0  0
   35.1170   21.5770   32.3250 C   0  0  0  0  0  0  0  0  0  0  0  0
   35.2360   22.2480   30.1850 H   0  0  0  0  0  0  0  0  0  0  0  0
   36.6350   20.3770   31.1520 H   0  0  0  0  0  0  0  0  0  0  0  0
   37.3390   21.4680   32.4700 H   0  0  0  0  0  0  0  0  0  0  0  0
   34.3150   20.8540   32.0490 H   0  0  0  0  0  0  0  0  0  0  0  0
   34.9960   22.0550   33.3020 H   0  0  0  0  0  0  0  0  0  0  0  0
   38.2760   25.7190   33.6690 C   0  0  0  0  0  0  0  0  0  0  0  0
   38.9030   24.8290   33.8810 H   0  0  0  0  0  0  0  0  0  0  0  0
   38.9590   26.4670   33.2170 H   0  0  0  0  0  0  0  0  0  0  0  0
   37.7220   26.3190   34.9400 C   0  0  0  0  0  3  0  0  0  0  0  0
   38.2190   25.9130   36.2670 C   0  0  0  0  0  2  0  0  0  0  0  0
   38.4940   27.3190   35.6960 C   0  0  0  0  0  2  0  0  0  0  0  0
  1  6  1  0  0  0  0
  2  3  1  0  0  0  0
  2  1  2  0  0  0  0
  3  4  2  0  0  0  0
  4  5  1  0  0  0  0
  5 17  1  0  0  0  0
  6  5  2  0  0  0  0
  7  2  1  0  0  0  0
  8  3  1  0  0  0  0
  9  1  1  0  0  0  0
  9 10  1  0  0  0  0
  9 11  1  0  0  0  0
 10 11  1  0  0  0  0
 10 14  1  0  0  0  0
 11 16  1  0  0  0  0
 12  9  1  0  0  0  0
 13 10  1  0  0  0  0
 15 11  1  0  0  0  0
 17 18  1  0  0  0  0
 17 20  1  0  0  0  0
 19 17  1  0  0  0  0
 20 22  1  0  0  0  0
 20 21  1  0  0  0  0
 22 21  1  0  0  0  0
M  END
>  <minimizedAffinity>
-4.07775497

$$$$

 OpenBabel03272510303D

 22 24  0  0  0  0  0  0  0  0999 V2000
   39.7940   22.9530   37.1980 C   0  0  0  0  0  0  0  0  0  0  0  0
   39.0750   23.1850   38.3730 C   0  0  0  0  0  0  0  0  0  0  0  0
   38.0010   24.0410   38.2630 C   0  0  0  0  0  0  0  0  0  0  0  0
   37.6980   24.6040   37.0490 N   0  0  0  0  0  0  0  0  0  0  0  0
   38.4360   24.3430   35.9260 C   0  0  0  0  0  0  0  0  0  0  0  0
   39.5120   23.4950   36.0070 N   0  0  0  0  0  0  0  0  0  0  0  0
   39.3510   22.7190   39.3070 H   0  0  0  0  0  0  0  0  0  0  0  0
   37.3840   24.2830   39.1180 H   0  0  0  0  0  0  0  0  0  0  0  0
   40.9560   21.9960   37.2770 C   0  0  0  0  0  0  0  0  0  0  0  0
   41.6660   21.5210   36.1180 C   0  0  0  0  0  0  0  0  0  0  0  0
   42.2940   22.6570   36.9070 C   0  0  0  0  0  0  0  0  0  0  0  0
   40.9890   21.4160   38.2490 H   0  0  0  0  0  0  0  0  0  0  0  0
   42.1410   20.5170   36.1860 H   0  0  0  0  0  0  0  0  0  0  0  0
   41.3500   21.7800   35.0880 H   0  0  0  0  0  0  0  0  0  0  0  0
   43.1790   22.3950   37.5320 H   0  0  0  0  0  0  0  0  0  0  0  0
   42.2880   23.6790   36.5150 H   0  0  0  0  0  0  0  0  0  0  0  0
   38.1250   24.9220   34.6120 C   0  0  0  0  0  0  0  0  0  0  0  0
   38.6530   24.4000   33.7890 H   0  0  0  0  0  0  0  0  0  0  0  0
   37.0430   24.7940   34.4050 H   0  0  0  0  0  0  0  0  0  0  0  0
   38.4160   26.4050   34.6010 C   0  0  0  0  0  3  0  0  0  0  0  0
   39.6930   26.9450   35.0990 C   0  0  0  0  0  2  0  0  0  0  0  0
   39.3280   26.9840   33.6020 C   0  0  0  0  0  2  0  0  0  0  0  0
  1  9  1  0  0  0  0
  1  2  1  0  0  0  0
  2  7  1  0  0  0  0
  3  2  2  0  0  0  0
  3  8  1  0  0  0  0
  4  3  1  0  0  0  0
  5  6  1  0  0  0  0
  5  4  2  0  0  0  0
  6  1  2  0  0  0  0
  9 12  1  0  0  0  0
 10 13  1  0  0  0  0
 10 11  1  0  0  0  0
 10  9  1  0  0  0  0
 11  9  1  0  0  0  0
 11 15  1  0  0  0  0
 14 10  1  0  0  0  0
 16 11  1  0  0  0  0
 17  5  1  0  0  0  0
 18 17  1  0  0  0  0
 19 17  1  0  0  0  0
 20 17  1  0  0  0  0
 20 21  1  0  0  0  0
 22 20  1  0  0  0  0
 22 21  1  0  0  0  0
M  END
>  <minimizedAffinity>
-4.01815796

$$$$

 OpenBabel03272510303D

 22 24  0  0  0  0  0  0  0  0999 V2000
   35.4290   30.3070   33.9160 C   0  0  0  0  0  0  0  0  0  0  0  0
   35.1290   30.4880   32.5630 C   0  0  0  0  0  0  0  0  0  0  0  0
   35.4900   29.4580   31.7230 C   0  0  0  0  0  0  0  0  0  0  0  0
   36.1040   28.3430   32.2340 N   0  0  0  0  0  0  0  0  0  0  0  0
   36.3760   28.2150   33.5700 C   0  0  0  0  0  0  0  0  0  0  0  0
   36.0280   29.2270   34.4290 N   0  0  0  0  0  0  0  0  0  0  0  0
   34.6440   31.3840   32.2050 H   0  0  0  0  0  0  0  0  0  0  0  0
   35.3000   29.5060   30.6590 H   0  0  0  0  0  0  0  0  0  0  0  0
   35.0180   31.4020   34.8660 C   0  0  0  0  0  0  0  0  0  0  0  0
   35.6200   31.5880   36.1610 C   0  0  0  0  0  0  0  0  0  0  0  0
   36.1010   32.4820   35.0310 C   0  0  0  0  0  0  0  0  0  0  0  0
   33.9900   31.8200   34.6450 H   0  0  0  0  0  0  0  0  0  0  0  0
   34.9910   32.0490   36.9550 H   0  0  0  0  0  0  0  0  0  0  0  0
   36.3770   30.8870   36.5630 H   0  0  0  0  0  0  0  0  0  0  0  0
   35.7590   33.5420   35.0590 H   0  0  0  0  0  0  0  0  0  0  0  0
   37.0810   32.3210   34.5710 H   0  0  0  0  0  0  0  0  0  0  0  0
   37.0200   27.0260   34.1450 C   0  0  0  0  0  0  0  0  0  0  0  0
   36.2860   26.2400   34.4140 H   0  0  0  0  0  0  0  0  0  0  0  0
   37.6860   26.5690   33.3840 H   0  0  0  0  0  0  0  0  0  0  0  0
   37.8800   27.4060   35.3290 C   0  0  0  0  0  3  0  0  0  0  0  0
   38.3360   26.4030   36.3060 C   0  0  0  0  0  2  0  0  0  0  0  0
   39.3190   27.0970   35.3420 C   0  0  0  0  0  2  0  0  0  0  0  0
  1  6  1  0  0  0  0
  1  9  1  0  0  0  0
  2  1  2  0  0  0  0
  3  4  2  0  0  0  0
  3  2  1  0  0  0  0
  4  5  1  0  0  0  0
  5 17  1  0  0  0  0
  5  6  2  0  0  0  0
  7  2  1  0  0  0  0
  8  3  1  0  0  0  0
  9 11  1  0  0  0  0
  9 10  1  0  0  0  0
 10 14  1  0  0  0  0
 10 13  1  0  0  0  0
 11 15  1  0  0  0  0
 11 10  1  0  0  0  0
 12  9  1  0  0  0  0
 16 11  1  0  0  0  0
 17 18  1  0  0  0  0
 17 20  1  0  0  0  0
 19 17  1  0  0  0  0
 20 22  1  0  0  0  0
 20 21  1  0  0  0  0
 22 21  1  0  0  0  0
M  END
>  <minimizedAffinity>
-3.95290279

$$$$

 OpenBabel03272510303D

 22 24  0  0  0  0  0  0  0  0999 V2000
   37.4580   26.3580   33.2230 C   0  0  0  0  0  0  0  0  0  0  0  0
   37.0040   27.6370   32.8920 C   0  0  0  0  0  0  0  0  0  0  0  0
   36.0280   27.6980   31.9220 C   0  0  0  0  0  0  0  0  0  0  0  0
   35.5620   26.5420   31.3480 N   0  0  0  0  0  0  0  0  0  0  0  0
   36.0410   25.3120   31.7090 C   0  0  0  0  0  0  0  0  0  0  0  0
   37.0150   25.2220   32.6720 N   0  0  0  0  0  0  0  0  0  0  0  0
   37.4010   28.5200   33.3710 H   0  0  0  0  0  0  0  0  0  0  0  0
   35.6140   28.6440   31.5990 H   0  0  0  0  0  0  0  0  0  0  0  0
   38.5040   26.2540   34.3030 C   0  0  0  0  0  0  0  0  0  0  0  0
   38.6480   27.2270   35.3560 C   0  0  0  0  0  0  0  0  0  0  0  0
   37.9010   25.9450   35.6840 C   0  0  0  0  0  0  0  0  0  0  0  0
   39.3670   25.5790   34.0230 H   0  0  0  0  0  0  0  0  0  0  0  0
   39.6630   27.3610   35.7910 H   0  0  0  0  0  0  0  0  0  0  0  0
   38.0380   28.1510   35.3900 H   0  0  0  0  0  0  0  0  0  0  0  0
   38.4420   25.2060   36.3190 H   0  0  0  0  0  0  0  0  0  0  0  0
   36.8130   25.9480   35.7980 H   0  0  0  0  0  0  0  0  0  0  0  0
   35.5510   24.0580   31.1200 C   0  0  0  0  0  0  0  0  0  0  0  0
   34.4430   24.0120   31.0950 H   0  0  0  0  0  0  0  0  0  0  0  0
   35.8790   24.0010   30.0610 H   0  0  0  0  0  0  0  0  0  0  0  0
   36.1360   22.8660   31.8410 C   0  0  0  0  0  3  0  0  0  0  0  0
   35.3020   21.7200   32.2420 C   0  0  0  0  0  2  0  0  0  0  0  0
   36.3640   21.5970   31.1310 C   0  0  0  0  0  2  0  0  0  0  0  0
  1  9  1  0  0  0  0
  2  1  1  0  0  0  0
  2  7  1  0  0  0  0
  3  2  2  0  0  0  0
  4  5  2  0  0  0  0
  4  3  1  0  0  0  0
  5  6  1  0  0  0  0
  6  1  2  0  0  0  0
  8  3  1  0  0  0  0
  9 10  1  0  0  0  0
  9 11  1  0  0  0  0
 10 14  1  0  0  0  0
 10 11  1  0  0  0  0
 10 13  1  0  0  0  0
 11 16  1  0  0  0  0
 11 15  1  0  0  0  0
 12  9  1  0  0  0  0
 17  5  1  0  0  0  0
 17 20  1  0  0  0  0
 18 17  1  0  0  0  0
 19 17  1  0  0  0  0
 20 21  1  0  0  0  0
 22 20  1  0  0  0  0
 22 21  1  0  0  0  0
M  END
>  <minimizedAffinity>
-3.93210173

$$$$

 OpenBabel03272510303D

 22 24  0  0  0  0  0  0  0  0999 V2000
   36.9580   26.0920   32.7160 C   0  0  0  0  0  0  0  0  0  0  0  0
   36.5350   27.3860   33.0310 C   0  0  0  0  0  0  0  0  0  0  0  0
   36.8220   27.8200   34.3070 C   0  0  0  0  0  0  0  0  0  0  0  0
   37.4880   26.9940   35.1760 N   0  0  0  0  0  0  0  0  0  0  0  0
   37.8820   25.7330   34.8170 C   0  0  0  0  0  0  0  0  0  0  0  0
   37.6070   25.2740   33.5530 N   0  0  0  0  0  0  0  0  0  0  0  0
   36.0130   28.0020   32.3130 H   0  0  0  0  0  0  0  0  0  0  0  0
   36.5340   28.8080   34.6440 H   0  0  0  0  0  0  0  0  0  0  0  0
   36.6870   25.5980   31.3190 C   0  0  0  0  0  0  0  0  0  0  0  0
   36.6680   24.2020   30.9670 C   0  0  0  0  0  0  0  0  0  0  0  0
   35.3300   24.8850   31.1950 C   0  0  0  0  0  0  0  0  0  0  0  0
   36.8590   26.3880   30.5260 H   0  0  0  0  0  0  0  0  0  0  0  0
   36.9420   23.9350   29.9220 H   0  0  0  0  0  0  0  0  0  0  0  0
   36.9230   23.4080   31.6960 H   0  0  0  0  0  0  0  0  0  0  0  0
   34.7240   25.1030   30.2850 H   0  0  0  0  0  0  0  0  0  0  0  0
   34.7520   24.6900   32.1030 H   0  0  0  0  0  0  0  0  0  0  0  0
   38.6080   24.8320   35.7240 C   0  0  0  0  0  0  0  0  0  0  0  0
   39.0110   23.9440   35.1970 H   0  0  0  0  0  0  0  0  0  0  0  0
   39.4900   25.3650   36.1360 H   0  0  0  0  0  0  0  0  0  0  0  0
   37.7330   24.4330   36.8900 C   0  0  0  0  0  3  0  0  0  0  0  0
   37.3550   23.0290   37.1260 C   0  0  0  0  0  2  0  0  0  0  0  0
   38.3140   23.7780   38.0740 C   0  0  0  0  0  2  0  0  0  0  0  0
  1  2  2  0  0  0  0
  1  6  1  0  0  0  0
  2  3  1  0  0  0  0
  3  8  1  0  0  0  0
  3  4  2  0  0  0  0
  5  4  1  0  0  0  0
  5 17  1  0  0  0  0
  6  5  2  0  0  0  0
  7  2  1  0  0  0  0
  9  1  1  0  0  0  0
 10 11  1  0  0  0  0
 10  9  1  0  0  0  0
 10 14  1  0  0  0  0
 11  9  1  0  0  0  0
 11 16  1  0  0  0  0
 12  9  1  0  0  0  0
 13 10  1  0  0  0  0
 15 11  1  0  0  0  0
 17 19  1  0  0  0  0
 17 20  1  0  0  0  0
 18 17  1  0  0  0  0
 20 21  1  0  0  0  0
 20 22  1  0  0  0  0
 21 22  1  0  0  0  0
M  END
>  <minimizedAffinity>
-3.83558083

$$$$

 OpenBabel03272510303D

 22 24  0  0  0  0  0  0  0  0999 V2000
   38.2550   25.2990   35.7170 C   0  0  0  0  0  0  0  0  0  0  0  0
   38.3270   26.5600   36.3130 C   0  0  0  0  0  0  0  0  0  0  0  0
   37.9430   27.6220   35.5230 C   0  0  0  0  0  0  0  0  0  0  0  0
   37.5230   27.3990   34.2360 N   0  0  0  0  0  0  0  0  0  0  0  0
   37.4710   26.1410   33.7000 C   0  0  0  0  0  0  0  0  0  0  0  0
   37.8490   25.0650   34.4640 N   0  0  0  0  0  0  0  0  0  0  0  0
   38.6640   26.6880   37.3310 H   0  0  0  0  0  0  0  0  0  0  0  0
   37.9640   28.6380   35.8960 H   0  0  0  0  0  0  0  0  0  0  0  0
   38.6380   24.1130   36.5650 C   0  0  0  0  0  0  0  0  0  0  0  0
   38.3070   24.0040   37.9620 C   0  0  0  0  0  0  0  0  0  0  0  0
   37.4240   23.2610   36.9750 C   0  0  0  0  0  0  0  0  0  0  0  0
   39.4890   23.5090   36.1270 H   0  0  0  0  0  0  0  0  0  0  0  0
   38.9900   23.4010   38.6030 H   0  0  0  0  0  0  0  0  0  0  0  0
   37.8110   24.8250   38.5150 H   0  0  0  0  0  0  0  0  0  0  0  0
   37.5470   22.1530   36.9370 H   0  0  0  0  0  0  0  0  0  0  0  0
   36.4200   23.6260   36.7400 H   0  0  0  0  0  0  0  0  0  0  0  0
   37.0130   25.8730   32.3290 C   0  0  0  0  0  0  0  0  0  0  0  0
   36.1350   26.4910   32.0540 H   0  0  0  0  0  0  0  0  0  0  0  0
   37.8160   26.1560   31.6170 H   0  0  0  0  0  0  0  0  0  0  0  0
   36.7350   24.4000   32.1390 C   0  0  0  0  0  3  0  0  0  0  0  0
   35.5560   23.9270   31.3940 C   0  0  0  0  0  2  0  0  0  0  0  0
   36.9850   23.7510   30.8420 C   0  0  0  0  0  2  0  0  0  0  0  0
  1  2  1  0  0  0  0
  1  9  1  0  0  0  0
  2  7  1  0  0  0  0
  3  8  1  0  0  0  0
  3  2  2  0  0  0  0
  4  3  1  0  0  0  0
  5  4  2  0  0  0  0
  5  6  1  0  0  0  0
  6  1  2  0  0  0  0
  9 11  1  0  0  0  0
  9 10  1  0  0  0  0
 10 14  1  0  0  0  0
 10 13  1  0  0  0  0
 11 10  1  0  0  0  0
 12  9  1  0  0  0  0
 15 11  1  0  0  0  0
 16 11  1  0  0  0  0
 17  5  1  0  0  0  0
 18 17  1  0  0  0  0
 19 17  1  0  0  0  0
 20 17  1  0  0  0  0
 21 20  1  0  0  0  0
 22 21  1  0  0  0  0
 22 20  1  0  0  0  0
M  END
>  <minimizedAffinity>
-3.82323122

$$$$
