
 OpenBabel03272509433D

 32 34  0  0  1  0  0  0  0  0999 V2000
   37.0230   30.9200   49.0360 C   0  0  0  0  0  0  0  0  0  0  0  0
   36.7370   31.7970   50.0840 C   0  0  0  0  0  0  0  0  0  0  0  0
   37.3260   33.0500   50.1710 C   0  0  0  0  0  0  0  0  0  0  0  0
   38.2310   33.4510   49.1850 C   0  0  0  0  0  0  0  0  0  0  0  0
   38.5010   32.5840   48.1670 C   0  0  0  0  0  0  0  0  0  0  0  0
   37.8940   31.3370   48.1120 C   0  0  0  0  0  0  0  0  0  0  0  0
   36.0260   31.4530   50.8400 H   0  0  0  0  0  0  0  0  0  0  0  0
   37.0210   33.6280   51.0280 H   0  0  0  0  0  0  0  0  0  0  0  0
   38.6350   34.4330   49.3330 H   0  0  0  0  0  0  0  0  0  0  0  0
   39.2210   33.0350   47.4830 H   0  0  0  0  0  0  0  0  0  0  0  0
   36.4330   29.6000   48.9680 C   0  0  2  0  0  0  0  0  0  0  0  0
   36.9620   29.0810   48.0790 H   0  0  0  0  0  0  0  0  0  0  0  0
   33.5740   30.1070   46.7820 C   0  0  0  0  0  0  0  0  0  0  0  0
   32.8890   28.9080   46.8430 C   0  0  0  0  0  0  0  0  0  0  0  0
   33.3690   27.9260   47.6890 C   0  0  0  0  0  0  0  0  0  0  0  0
   34.5030   28.1720   48.4350 N   0  0  0  0  0  0  0  0  0  0  0  0
   35.1120   29.3360   48.3300 C   0  0  0  0  0  0  0  0  0  0  0  0
   34.6560   30.3090   47.5090 N   0  0  0  0  0  0  0  0  0  0  0  0
   33.2230   30.9050   46.1250 H   0  0  0  0  0  0  0  0  0  0  0  0
   32.0150   28.8100   46.2210 H   0  0  0  0  0  0  0  0  0  0  0  0
   32.8370   26.9870   47.7430 H   0  0  0  0  0  0  0  0  0  0  0  0
   36.8740   28.8130   49.8840 O   0  0  0  0  0  0  0  0  0  0  0  0
   36.5390   28.7700   50.7950 H   0  0  0  0  0  0  0  0  0  0  0  0
   38.2940   30.5090   46.9980 C   0  0  0  0  0  3  0  0  0  0  0  0
   39.0370   30.9450   45.9760 C   0  0  0  0  0  3  0  0  0  0  0  0
   39.5370   30.1790   44.8110 C   0  0  0  0  0  0  0  0  0  0  0  0
   38.8510   29.3420   44.5290 H   0  0  0  0  0  0  0  0  0  0  0  0
   40.5330   29.7350   44.9940 H   0  0  0  0  0  0  0  0  0  0  0  0
   39.6770   31.2650   43.3870 S   0  0  0  0  0  0  0  0  0  0  0  0
   38.0230   31.5330   42.6520 C   0  0  0  0  0  3  0  0  0  0  0  0
   37.7720   32.8940   42.1220 C   0  0  0  0  0  2  0  0  0  0  0  0
   37.0740   32.4360   43.3520 C   0  0  0  0  0  2  0  0  0  0  0  0
  1  2  1  0  0  0  0
  2  3  2  0  0  0  0
  2  7  1  0  0  0  0
  3  8  1  0  0  0  0
  4  9  1  0  0  0  0
  4  3  1  0  0  0  0
  5  4  2  0  0  0  0
  6  5  1  0  0  0  0
  6  1  2  0  0  0  0
 10  5  1  0  0  0  0
 11 12  1  6  0  0  0
 11  1  1  0  0  0  0
 11 22  1  0  0  0  0
 13 14  2  0  0  0  0
 13 18  1  0  0  0  0
 14 15  1  0  0  0  0
 15 21  1  0  0  0  0
 15 16  2  0  0  0  0
 17 16  1  0  0  0  0
 17 11  1  0  0  0  0
 18 17  2  0  0  0  0
 19 13  1  0  0  0  0
 20 14  1  0  0  0  0
 22 23  1  0  0  0  0
 24  6  1  0  0  0  0
 25 24  2  0  0  0  0
 26 28  1  0  0  0  0
 26 25  1  0  0  0  0
 27 26  1  0  0  0  0
 29 26  1  0  0  0  0
 30 32  1  0  0  0  0
 30 29  1  0  0  0  0
 31 30  1  0  0  0  0
 31 32  1  0  0  0  0
M  END
>  <minimizedAffinity>
-5.33375978

>  <minimizedRMSD>
0.353951633

$$$$
