
 OpenBabel03262521163D

 22 23  0  0  0  0  0  0  0  0999 V2000
   38.6720   27.0820   35.5530 C   0  0  0  0  0  0  0  0  0  0  0  0
   39.5450   27.7500   35.7520 H   0  0  0  0  0  0  0  0  0  0  0  0
   38.8860   26.6580   34.5260 H   0  0  0  0  0  0  0  0  0  0  0  0
   38.3470   26.2040   36.4950 C   0  0  0  0  0  0  0  0  0  0  0  0
   39.0930   26.1710   37.3380 H   0  0  0  0  0  0  0  0  0  0  0  0
   37.4130   26.5230   37.0620 H   0  0  0  0  0  0  0  0  0  0  0  0
   38.0590   24.7570   36.2110 C   0  0  0  0  0  0  0  0  0  0  0  0
   38.8760   24.2410   35.6650 H   0  0  0  0  0  0  0  0  0  0  0  0
   37.1760   24.6560   35.5130 H   0  0  0  0  0  0  0  0  0  0  0  0
   37.7210   23.9470   37.4180 C   0  0  0  0  0  3  0  0  0  0  0  0
   38.7840   23.3390   38.2830 C   0  0  0  0  0  2  0  0  0  0  0  0
   37.9980   24.5400   38.7410 C   0  0  0  0  0  2  0  0  0  0  0  0
   37.4500   27.7250   35.4710 O   0  0  0  0  0  0  0  0  0  0  0  0
   36.8410   27.7450   34.2320 C   0  0  0  0  0  0  0  0  0  0  0  0
   35.9600   28.8190   34.0700 C   0  0  0  0  0  0  0  0  0  0  0  0
   35.2710   28.9750   32.8740 C   0  0  0  0  0  0  0  0  0  0  0  0
   35.5040   28.0350   31.8920 N   0  0  0  0  0  0  0  0  0  0  0  0
   36.3690   26.9990   32.0800 C   0  0  0  0  0  0  0  0  0  0  0  0
   37.0210   26.8590   33.2220 N   0  0  0  0  0  0  0  0  0  0  0  0
   35.7420   29.5780   34.8000 H   0  0  0  0  0  0  0  0  0  0  0  0
   34.5810   29.7850   32.7020 H   0  0  0  0  0  0  0  0  0  0  0  0
   36.5260   26.2810   31.2840 H   0  0  0  0  0  0  0  0  0  0  0  0
  1  2  1  0  0  0  0
  1  4  1  0  0  0  0
  3  1  1  0  0  0  0
  4  6  1  0  0  0  0
  4  5  1  0  0  0  0
  7  4  1  0  0  0  0
  7 10  1  0  0  0  0
  8  7  1  0  0  0  0
  9  7  1  0  0  0  0
 10 11  1  0  0  0  0
 10 12  1  0  0  0  0
 11 12  1  0  0  0  0
 13  1  1  0  0  0  0
 14 13  1  0  0  0  0
 15 14  1  0  0  0  0
 15 20  1  0  0  0  0
 16 15  2  0  0  0  0
 17 18  2  0  0  0  0
 17 16  1  0  0  0  0
 18 19  1  0  0  0  0
 19 14  2  0  0  0  0
 21 16  1  0  0  0  0
 22 18  1  0  0  0  0
M  END
>  <minimizedAffinity>
-3.78971863

$$$$

 OpenBabel03262521163D

 22 23  0  0  0  0  0  0  0  0999 V2000
   38.2890   27.0240   36.0220 C   0  0  0  0  0  0  0  0  0  0  0  0
   39.3980   27.0510   35.8930 H   0  0  0  0  0  0  0  0  0  0  0  0
   38.1310   27.3990   37.0780 H   0  0  0  0  0  0  0  0  0  0  0  0
   37.5510   27.5970   35.0780 C   0  0  0  0  0  0  0  0  0  0  0  0
   36.4880   27.7770   35.4040 H   0  0  0  0  0  0  0  0  0  0  0  0
   37.8860   28.6650   34.8730 H   0  0  0  0  0  0  0  0  0  0  0  0
   37.4130   27.0440   33.6880 C   0  0  0  0  0  0  0  0  0  0  0  0
   36.7410   26.1620   33.6260 H   0  0  0  0  0  0  0  0  0  0  0  0
   38.4030   26.6420   33.3190 H   0  0  0  0  0  0  0  0  0  0  0  0
   36.9700   28.0390   32.6680 C   0  0  0  0  0  3  0  0  0  0  0  0
   35.6560   27.9070   31.9570 C   0  0  0  0  0  2  0  0  0  0  0  0
   35.8600   28.9430   33.0310 C   0  0  0  0  0  2  0  0  0  0  0  0
   37.7230   25.7630   35.9590 O   0  0  0  0  0  0  0  0  0  0  0  0
   38.4540   24.7270   36.5040 C   0  0  0  0  0  0  0  0  0  0  0  0
   38.0370   24.3810   37.7940 C   0  0  0  0  0  0  0  0  0  0  0  0
   38.6780   23.3540   38.4760 C   0  0  0  0  0  0  0  0  0  0  0  0
   39.7130   22.7200   37.8210 N   0  0  0  0  0  0  0  0  0  0  0  0
   40.0960   23.0800   36.5640 C   0  0  0  0  0  0  0  0  0  0  0  0
   39.4800   24.0590   35.9220 N   0  0  0  0  0  0  0  0  0  0  0  0
   37.2390   24.8410   38.3490 H   0  0  0  0  0  0  0  0  0  0  0  0
   38.3940   23.0520   39.4710 H   0  0  0  0  0  0  0  0  0  0  0  0
   40.9130   22.5580   36.0830 H   0  0  0  0  0  0  0  0  0  0  0  0
  1  3  1  0  0  0  0
  2  1  1  0  0  0  0
  4  5  1  0  0  0  0
  4  1  1  0  0  0  0
  6  4  1  0  0  0  0
  7  4  1  0  0  0  0
  8  7  1  0  0  0  0
  9  7  1  0  0  0  0
 10 12  1  0  0  0  0
 10  7  1  0  0  0  0
 11 10  1  0  0  0  0
 11 12  1  0  0  0  0
 13  1  1  0  0  0  0
 13 14  1  0  0  0  0
 14 15  1  0  0  0  0
 15 20  1  0  0  0  0
 15 16  2  0  0  0  0
 16 21  1  0  0  0  0
 17 16  1  0  0  0  0
 18 17  2  0  0  0  0
 19 14  2  0  0  0  0
 19 18  1  0  0  0  0
 22 18  1  0  0  0  0
M  END
>  <minimizedAffinity>
-3.70648742

$$$$

 OpenBabel03262521163D

 22 23  0  0  0  0  0  0  0  0999 V2000
   39.0320   23.6930   33.8960 C   0  0  0  0  0  0  0  0  0  0  0  0
   39.2480   22.9580   33.0830 H   0  0  0  0  0  0  0  0  0  0  0  0
   39.9750   23.6870   34.5220 H   0  0  0  0  0  0  0  0  0  0  0  0
   38.5730   24.8860   33.5350 C   0  0  0  0  0  0  0  0  0  0  0  0
   38.2010   24.9080   32.4720 H   0  0  0  0  0  0  0  0  0  0  0  0
   37.6180   25.1540   34.0920 H   0  0  0  0  0  0  0  0  0  0  0  0
   39.3720   26.1510   33.6630 C   0  0  0  0  0  0  0  0  0  0  0  0
   39.6850   26.5800   32.6880 H   0  0  0  0  0  0  0  0  0  0  0  0
   40.3550   25.9510   34.1840 H   0  0  0  0  0  0  0  0  0  0  0  0
   38.7040   27.2270   34.4520 C   0  0  0  0  0  3  0  0  0  0  0  0
   37.3710   27.0130   35.1050 C   0  0  0  0  0  2  0  0  0  0  0  0
   38.6380   27.0610   35.9180 C   0  0  0  0  0  2  0  0  0  0  0  0
   37.9930   23.3430   34.7400 O   0  0  0  0  0  0  0  0  0  0  0  0
   38.2590   23.3700   36.0950 C   0  0  0  0  0  0  0  0  0  0  0  0
   39.5080   22.8320   36.4200 C   0  0  0  0  0  0  0  0  0  0  0  0
   39.9190   22.7890   37.7470 C   0  0  0  0  0  0  0  0  0  0  0  0
   39.0470   23.2940   38.6880 N   0  0  0  0  0  0  0  0  0  0  0  0
   37.8350   23.8120   38.3390 C   0  0  0  0  0  0  0  0  0  0  0  0
   37.4520   23.8490   37.0730 N   0  0  0  0  0  0  0  0  0  0  0  0
   40.2250   22.4260   35.7280 H   0  0  0  0  0  0  0  0  0  0  0  0
   40.8720   22.3830   38.0470 H   0  0  0  0  0  0  0  0  0  0  0  0
   37.1780   24.1990   39.1070 H   0  0  0  0  0  0  0  0  0  0  0  0
  1  3  1  0  0  0  0
  1 13  1  0  0  0  0
  2  1  1  0  0  0  0
  4  7  1  0  0  0  0
  4  1  1  0  0  0  0
  4  6  1  0  0  0  0
  5  4  1  0  0  0  0
  7  9  1  0  0  0  0
  7 10  1  0  0  0  0
  8  7  1  0  0  0  0
 10 11  1  0  0  0  0
 10 12  1  0  0  0  0
 11 12  1  0  0  0  0
 13 14  1  0  0  0  0
 14 15  2  0  0  0  0
 14 19  1  0  0  0  0
 15 16  1  0  0  0  0
 16 21  1  0  0  0  0
 16 17  2  0  0  0  0
 18 17  1  0  0  0  0
 18 22  1  0  0  0  0
 19 18  2  0  0  0  0
 20 15  1  0  0  0  0
M  END
>  <minimizedAffinity>
-3.55253577

$$$$

 OpenBabel03262521163D

 22 23  0  0  0  0  0  0  0  0999 V2000
   38.2970   24.2550   34.3970 C   0  0  0  0  0  0  0  0  0  0  0  0
   39.1070   23.4890   34.4580 H   0  0  0  0  0  0  0  0  0  0  0  0
   37.3480   23.6410   34.3550 H   0  0  0  0  0  0  0  0  0  0  0  0
   38.3210   25.2410   35.2870 C   0  0  0  0  0  0  0  0  0  0  0  0
   39.2570   25.8640   35.2240 H   0  0  0  0  0  0  0  0  0  0  0  0
   37.5340   26.0300   35.0590 H   0  0  0  0  0  0  0  0  0  0  0  0
   38.1290   25.0270   36.7610 C   0  0  0  0  0  0  0  0  0  0  0  0
   37.1650   25.4220   37.1450 H   0  0  0  0  0  0  0  0  0  0  0  0
   38.8990   25.6060   37.3520 H   0  0  0  0  0  0  0  0  0  0  0  0
   38.2590   23.6070   37.2010 C   0  0  0  0  0  3  0  0  0  0  0  0
   39.5750   23.0320   37.6300 C   0  0  0  0  0  2  0  0  0  0  0  0
   38.5010   23.3540   38.6360 C   0  0  0  0  0  2  0  0  0  0  0  0
   38.3150   25.0370   33.2550 O   0  0  0  0  0  0  0  0  0  0  0  0
   37.2010   24.9730   32.4420 C   0  0  0  0  0  0  0  0  0  0  0  0
   36.7320   26.2310   32.0530 C   0  0  0  0  0  0  0  0  0  0  0  0
   35.6160   26.3310   31.2330 C   0  0  0  0  0  0  0  0  0  0  0  0
   35.0220   25.1500   30.8400 N   0  0  0  0  0  0  0  0  0  0  0  0
   35.5030   23.9380   31.2350 C   0  0  0  0  0  0  0  0  0  0  0  0
   36.5670   23.8530   32.0170 N   0  0  0  0  0  0  0  0  0  0  0  0
   37.1560   27.1810   32.3300 H   0  0  0  0  0  0  0  0  0  0  0  0
   35.2170   27.2780   30.9070 H   0  0  0  0  0  0  0  0  0  0  0  0
   35.0090   23.0320   30.9050 H   0  0  0  0  0  0  0  0  0  0  0  0
  1  2  1  0  0  0  0
  1  4  1  0  0  0  0
  3  1  1  0  0  0  0
  4  7  1  0  0  0  0
  5  4  1  0  0  0  0
  6  4  1  0  0  0  0
  7  8  1  0  0  0  0
  7 10  1  0  0  0  0
  7  9  1  0  0  0  0
 10 11  1  0  0  0  0
 10 12  1  0  0  0  0
 11 12  1  0  0  0  0
 13  1  1  0  0  0  0
 14 13  1  0  0  0  0
 15 20  1  0  0  0  0
 15 14  1  0  0  0  0
 16 15  2  0  0  0  0
 17 16  1  0  0  0  0
 17 18  2  0  0  0  0
 18 19  1  0  0  0  0
 19 14  2  0  0  0  0
 21 16  1  0  0  0  0
 22 18  1  0  0  0  0
M  END
>  <minimizedAffinity>
-3.53164721

$$$$

 OpenBabel03262521163D

 22 23  0  0  0  0  0  0  0  0999 V2000
   38.1550   26.6180   35.2080 C   0  0  0  0  0  0  0  0  0  0  0  0
   38.9950   26.8790   34.5210 H   0  0  0  0  0  0  0  0  0  0  0  0
   38.5660   26.8480   36.2370 H   0  0  0  0  0  0  0  0  0  0  0  0
   36.9580   27.1200   34.9270 C   0  0  0  0  0  0  0  0  0  0  0  0
   36.1740   26.3250   34.7790 H   0  0  0  0  0  0  0  0  0  0  0  0
   36.5180   27.6780   35.8150 H   0  0  0  0  0  0  0  0  0  0  0  0
   36.7100   28.0840   33.8010 C   0  0  0  0  0  0  0  0  0  0  0  0
   36.5870   27.5920   32.8140 H   0  0  0  0  0  0  0  0  0  0  0  0
   37.6070   28.7540   33.6470 H   0  0  0  0  0  0  0  0  0  0  0  0
   35.5500   28.9980   34.0140 C   0  0  0  0  0  3  0  0  0  0  0  0
   35.6860   30.2800   34.7780 C   0  0  0  0  0  2  0  0  0  0  0  0
   35.5420   30.2780   33.2790 C   0  0  0  0  0  2  0  0  0  0  0  0
   37.7970   25.2810   35.2130 O   0  0  0  0  0  0  0  0  0  0  0  0
   38.3370   24.4980   36.2140 C   0  0  0  0  0  0  0  0  0  0  0  0
   39.4950   23.8220   35.8180 C   0  0  0  0  0  0  0  0  0  0  0  0
   40.1550   22.9930   36.7170 C   0  0  0  0  0  0  0  0  0  0  0  0
   39.6120   22.8860   37.9800 N   0  0  0  0  0  0  0  0  0  0  0  0
   38.4810   23.5570   38.3370 C   0  0  0  0  0  0  0  0  0  0  0  0
   37.8600   24.3440   37.4740 N   0  0  0  0  0  0  0  0  0  0  0  0
   39.9590   23.8700   34.8480 H   0  0  0  0  0  0  0  0  0  0  0  0
   41.0500   22.4510   36.4580 H   0  0  0  0  0  0  0  0  0  0  0  0
   38.0860   23.4470   39.3390 H   0  0  0  0  0  0  0  0  0  0  0  0
  1 13  1  0  0  0  0
  1  3  1  0  0  0  0
  2  1  1  0  0  0  0
  4  1  1  0  0  0  0
  4  6  1  0  0  0  0
  5  4  1  0  0  0  0
  7 10  1  0  0  0  0
  7  4  1  0  0  0  0
  8  7  1  0  0  0  0
  9  7  1  0  0  0  0
 10 11  1  0  0  0  0
 12 10  1  0  0  0  0
 12 11  1  0  0  0  0
 13 14  1  0  0  0  0
 14 19  1  0  0  0  0
 15 14  2  0  0  0  0
 15 16  1  0  0  0  0
 16 17  2  0  0  0  0
 17 18  1  0  0  0  0
 18 22  1  0  0  0  0
 19 18  2  0  0  0  0
 20 15  1  0  0  0  0
 21 16  1  0  0  0  0
M  END
>  <minimizedAffinity>
-3.51631927

$$$$

 OpenBabel03262521163D

 22 23  0  0  0  0  0  0  0  0999 V2000
   38.3120   23.3830   34.7200 C   0  0  0  0  0  0  0  0  0  0  0  0
   38.7780   22.3690   34.6970 H   0  0  0  0  0  0  0  0  0  0  0  0
   37.2050   23.1690   34.8080 H   0  0  0  0  0  0  0  0  0  0  0  0
   38.8110   24.2650   35.5790 C   0  0  0  0  0  0  0  0  0  0  0  0
   39.4910   23.7950   36.3440 H   0  0  0  0  0  0  0  0  0  0  0  0
   39.5370   24.9800   35.0720 H   0  0  0  0  0  0  0  0  0  0  0  0
   37.9600   25.2060   36.3830 C   0  0  0  0  0  0  0  0  0  0  0  0
   37.8520   24.9070   37.4470 H   0  0  0  0  0  0  0  0  0  0  0  0
   36.8950   25.2030   36.0040 H   0  0  0  0  0  0  0  0  0  0  0  0
   38.4050   26.6300   36.3420 C   0  0  0  0  0  3  0  0  0  0  0  0
   39.2620   27.1550   35.2300 C   0  0  0  0  0  2  0  0  0  0  0  0
   37.8000   27.5060   35.3190 C   0  0  0  0  0  2  0  0  0  0  0  0
   38.4810   24.1310   33.5680 O   0  0  0  0  0  0  0  0  0  0  0  0
   37.4110   24.1800   32.6970 C   0  0  0  0  0  0  0  0  0  0  0  0
   37.0270   25.4850   32.3720 C   0  0  0  0  0  0  0  0  0  0  0  0
   35.9620   25.6970   31.5050 C   0  0  0  0  0  0  0  0  0  0  0  0
   35.3330   24.5770   31.0030 N   0  0  0  0  0  0  0  0  0  0  0  0
   35.7310   23.3180   31.3390 C   0  0  0  0  0  0  0  0  0  0  0  0
   36.7450   23.1260   32.1660 N   0  0  0  0  0  0  0  0  0  0  0  0
   37.4820   26.3900   32.7340 H   0  0  0  0  0  0  0  0  0  0  0  0
   35.6290   26.6830   31.2250 H   0  0  0  0  0  0  0  0  0  0  0  0
   35.2110   22.4640   30.9240 H   0  0  0  0  0  0  0  0  0  0  0  0
  1  3  1  0  0  0  0
  1  4  1  0  0  0  0
  2  1  1  0  0  0  0
  4  5  1  0  0  0  0
  4  7  1  0  0  0  0
  6  4  1  0  0  0  0
  7  8  1  0  0  0  0
  9  7  1  0  0  0  0
 10  7  1  0  0  0  0
 11 12  1  0  0  0  0
 11 10  1  0  0  0  0
 12 10  1  0  0  0  0
 13  1  1  0  0  0  0
 14 13  1  0  0  0  0
 15 14  1  0  0  0  0
 15 20  1  0  0  0  0
 16 15  2  0  0  0  0
 17 18  2  0  0  0  0
 17 16  1  0  0  0  0
 18 19  1  0  0  0  0
 19 14  2  0  0  0  0
 21 16  1  0  0  0  0
 22 18  1  0  0  0  0
M  END
>  <minimizedAffinity>
-3.48770022

$$$$

 OpenBabel03262521163D

 22 23  0  0  0  0  0  0  0  0999 V2000
   37.5310   23.6610   37.0250 C   0  0  0  0  0  0  0  0  0  0  0  0
   37.8340   22.9630   36.2080 H   0  0  0  0  0  0  0  0  0  0  0  0
   36.4030   23.5760   37.0480 H   0  0  0  0  0  0  0  0  0  0  0  0
   38.1530   23.5410   38.1930 C   0  0  0  0  0  0  0  0  0  0  0  0
   38.0950   24.4760   38.8170 H   0  0  0  0  0  0  0  0  0  0  0  0
   37.6210   22.8050   38.8780 H   0  0  0  0  0  0  0  0  0  0  0  0
   39.5850   23.1070   38.3250 C   0  0  0  0  0  0  0  0  0  0  0  0
   39.7830   22.4960   39.2300 H   0  0  0  0  0  0  0  0  0  0  0  0
   40.2610   24.0030   38.4640 H   0  0  0  0  0  0  0  0  0  0  0  0
   40.1190   22.3720   37.1410 C   0  0  0  0  0  3  0  0  0  0  0  0
   41.3300   22.8510   36.3970 C   0  0  0  0  0  2  0  0  0  0  0  0
   41.3970   21.6500   37.3040 C   0  0  0  0  0  2  0  0  0  0  0  0
   37.8240   24.9930   36.7960 O   0  0  0  0  0  0  0  0  0  0  0  0
   38.4490   25.2950   35.6030 C   0  0  0  0  0  0  0  0  0  0  0  0
   39.0110   26.5750   35.5860 C   0  0  0  0  0  0  0  0  0  0  0  0
   39.6750   27.0240   34.4510 C   0  0  0  0  0  0  0  0  0  0  0  0
   39.7420   26.1560   33.3810 N   0  0  0  0  0  0  0  0  0  0  0  0
   39.1840   24.9140   33.4290 C   0  0  0  0  0  0  0  0  0  0  0  0
   38.5530   24.4950   34.5140 N   0  0  0  0  0  0  0  0  0  0  0  0
   38.9880   27.2900   36.3890 H   0  0  0  0  0  0  0  0  0  0  0  0
   40.1240   28.0030   34.3890 H   0  0  0  0  0  0  0  0  0  0  0  0
   39.2570   24.2610   32.5680 H   0  0  0  0  0  0  0  0  0  0  0  0
  1  3  1  0  0  0  0
  1  4  1  0  0  0  0
  2  1  1  0  0  0  0
  4  7  1  0  0  0  0
  4  5  1  0  0  0  0
  4  6  1  0  0  0  0
  7  9  1  0  0  0  0
  7  8  1  0  0  0  0
 10 12  1  0  0  0  0
 10  7  1  0  0  0  0
 11 10  1  0  0  0  0
 11 12  1  0  0  0  0
 13  1  1  0  0  0  0
 14 13  1  0  0  0  0
 15 14  1  0  0  0  0
 15 20  1  0  0  0  0
 16 15  2  0  0  0  0
 17 18  2  0  0  0  0
 17 16  1  0  0  0  0
 18 19  1  0  0  0  0
 19 14  2  0  0  0  0
 21 16  1  0  0  0  0
 22 18  1  0  0  0  0
M  END
>  <minimizedAffinity>
-3.47308779

$$$$

 OpenBabel03262521163D

 22 23  0  0  0  0  0  0  0  0999 V2000
   38.1760   26.9670   35.8710 C   0  0  0  0  0  0  0  0  0  0  0  0
   39.2750   26.9460   35.6740 H   0  0  0  0  0  0  0  0  0  0  0  0
   38.0950   27.4290   36.9010 H   0  0  0  0  0  0  0  0  0  0  0  0
   37.3960   27.4890   34.9300 C   0  0  0  0  0  0  0  0  0  0  0  0
   36.3150   27.1960   35.0460 H   0  0  0  0  0  0  0  0  0  0  0  0
   37.3140   28.6190   35.0320 H   0  0  0  0  0  0  0  0  0  0  0  0
   37.6570   27.3280   33.4590 C   0  0  0  0  0  0  0  0  0  0  0  0
   37.3450   28.2050   32.8540 H   0  0  0  0  0  0  0  0  0  0  0  0
   37.0350   26.4860   33.0340 H   0  0  0  0  0  0  0  0  0  0  0  0
   39.0730   27.0050   33.1150 C   0  0  0  0  0  3  0  0  0  0  0  0
   39.4300   25.7930   32.3080 C   0  0  0  0  0  2  0  0  0  0  0  0
   39.4900   27.1740   31.7090 C   0  0  0  0  0  2  0  0  0  0  0  0
   37.5700   25.7250   35.9440 O   0  0  0  0  0  0  0  0  0  0  0  0
   38.2450   24.7470   36.6470 C   0  0  0  0  0  0  0  0  0  0  0  0
   39.2820   24.1610   35.9130 C   0  0  0  0  0  0  0  0  0  0  0  0
   40.0530   23.1570   36.4860 C   0  0  0  0  0  0  0  0  0  0  0  0
   39.7420   22.7910   37.7790 N   0  0  0  0  0  0  0  0  0  0  0  0
   38.7250   23.3810   38.4680 C   0  0  0  0  0  0  0  0  0  0  0  0
   37.9950   24.3360   37.9140 N   0  0  0  0  0  0  0  0  0  0  0  0
   39.5660   24.4080   34.9060 H   0  0  0  0  0  0  0  0  0  0  0  0
   40.8620   22.6760   35.9610 H   0  0  0  0  0  0  0  0  0  0  0  0
   38.5110   23.0660   39.4810 H   0  0  0  0  0  0  0  0  0  0  0  0
  1 13  1  0  0  0  0
  1  3  1  0  0  0  0
  2  1  1  0  0  0  0
  4  6  1  0  0  0  0
  4  5  1  0  0  0  0
  4  1  1  0  0  0  0
  7  4  1  0  0  0  0
  8  7  1  0  0  0  0
  9  7  1  0  0  0  0
 10  7  1  0  0  0  0
 11 10  1  0  0  0  0
 12 11  1  0  0  0  0
 12 10  1  0  0  0  0
 13 14  1  0  0  0  0
 14 19  1  0  0  0  0
 15 16  1  0  0  0  0
 15 14  2  0  0  0  0
 16 17  2  0  0  0  0
 17 18  1  0  0  0  0
 18 22  1  0  0  0  0
 19 18  2  0  0  0  0
 20 15  1  0  0  0  0
 21 16  1  0  0  0  0
M  END
>  <minimizedAffinity>
-3.46974993

$$$$

 OpenBabel03262521163D

 22 23  0  0  0  0  0  0  0  0999 V2000
   38.0940   24.1370   35.8300 C   0  0  0  0  0  0  0  0  0  0  0  0
   38.5000   23.2950   35.2180 H   0  0  0  0  0  0  0  0  0  0  0  0
   36.9880   24.1350   35.5910 H   0  0  0  0  0  0  0  0  0  0  0  0
   38.4180   24.1660   37.1180 C   0  0  0  0  0  0  0  0  0  0  0  0
   38.9450   25.1160   37.4140 H   0  0  0  0  0  0  0  0  0  0  0  0
   37.4950   24.2290   37.7810 H   0  0  0  0  0  0  0  0  0  0  0  0
   39.2130   23.0860   37.7940 C   0  0  0  0  0  0  0  0  0  0  0  0
   38.5850   22.3130   38.2850 H   0  0  0  0  0  0  0  0  0  0  0  0
   39.8150   23.5120   38.6510 H   0  0  0  0  0  0  0  0  0  0  0  0
   40.1950   22.3950   36.9080 C   0  0  0  0  0  3  0  0  0  0  0  0
   41.6180   22.8570   36.7980 C   0  0  0  0  0  2  0  0  0  0  0  0
   41.2610   21.6040   37.5540 C   0  0  0  0  0  2  0  0  0  0  0  0
   38.5720   25.3910   35.4910 O   0  0  0  0  0  0  0  0  0  0  0  0
   37.8450   26.0990   34.5550 C   0  0  0  0  0  0  0  0  0  0  0  0
   37.2860   27.2740   35.0690 C   0  0  0  0  0  0  0  0  0  0  0  0
   36.5250   28.0950   34.2460 C   0  0  0  0  0  0  0  0  0  0  0  0
   36.3640   27.6910   32.9370 N   0  0  0  0  0  0  0  0  0  0  0  0
   36.9210   26.5410   32.4660 C   0  0  0  0  0  0  0  0  0  0  0  0
   37.6450   25.7650   33.2570 N   0  0  0  0  0  0  0  0  0  0  0  0
   37.3790   27.6340   36.0780 H   0  0  0  0  0  0  0  0  0  0  0  0
   36.0730   29.0090   34.5960 H   0  0  0  0  0  0  0  0  0  0  0  0
   36.7730   26.2580   31.4320 H   0  0  0  0  0  0  0  0  0  0  0  0
  1  4  1  0  0  0  0
  2  1  1  0  0  0  0
  3  1  1  0  0  0  0
  4  5  1  0  0  0  0
  4  6  1  0  0  0  0
  4  7  1  0  0  0  0
  7  8  1  0  0  0  0
  7  9  1  0  0  0  0
 10 12  1  0  0  0  0
 10  7  1  0  0  0  0
 11 10  1  0  0  0  0
 11 12  1  0  0  0  0
 13  1  1  0  0  0  0
 14 15  1  0  0  0  0
 14 13  1  0  0  0  0
 15 20  1  0  0  0  0
 16 21  1  0  0  0  0
 16 15  2  0  0  0  0
 17 16  1  0  0  0  0
 18 17  2  0  0  0  0
 18 19  1  0  0  0  0
 19 14  2  0  0  0  0
 22 18  1  0  0  0  0
M  END
>  <minimizedAffinity>
-3.43186998

$$$$
