
 OpenBabel03272510043D

 31 33  0  0  0  0  0  0  0  0999 V2000
   37.6990   31.3920   44.8520 C   0  0  0  0  0  0  0  0  0  0  0  0
   37.0560   30.9520   45.9650 C   0  0  0  0  0  0  0  0  0  0  0  0
   35.8360   30.2910   45.8490 C   0  0  0  0  0  0  0  0  0  0  0  0
   35.2300   30.0590   44.6280 C   0  0  0  0  0  0  0  0  0  0  0  0
   35.8470   30.4930   43.4830 C   0  0  0  0  0  0  0  0  0  0  0  0
   37.0490   31.1390   43.6330 C   0  0  0  0  0  0  0  0  0  0  0  0
   35.3420   29.9450   46.7670 H   0  0  0  0  0  0  0  0  0  0  0  0
   34.2990   29.5460   44.6460 H   0  0  0  0  0  0  0  0  0  0  0  0
   35.3390   30.2900   42.5780 H   0  0  0  0  0  0  0  0  0  0  0  0
   37.4340   31.4360   42.6480 H   0  0  0  0  0  0  0  0  0  0  0  0
   38.9350   32.5200   48.7090 C   0  0  0  0  0  0  0  0  0  0  0  0
   38.3970   32.2650   47.4590 C   0  0  0  0  0  0  0  0  0  0  0  0
   37.5770   31.1880   47.2660 C   0  0  0  0  0  0  0  0  0  0  0  0
   37.3210   30.4040   48.3490 N   0  0  0  0  0  0  0  0  0  0  0  0
   37.8350   30.6510   49.5580 C   0  0  0  0  0  0  0  0  0  0  0  0
   38.6410   31.7050   49.7300 N   0  0  0  0  0  0  0  0  0  0  0  0
   39.5890   33.3050   49.0310 H   0  0  0  0  0  0  0  0  0  0  0  0
   38.7500   33.0640   46.8540 H   0  0  0  0  0  0  0  0  0  0  0  0
   37.4120   29.7510   50.6640 C   0  0  0  0  0  0  0  0  0  0  0  0
   37.3180   30.4190   51.8690 F   0  0  0  0  0  0  0  0  0  0  0  0
   36.0440   29.3430   50.4290 F   0  0  0  0  0  0  0  0  0  0  0  0
   38.0550   28.6130   50.7910 F   0  0  0  0  0  0  0  0  0  0  0  0
   39.2120   32.1790   44.8570 S   0  0  0  0  0  0  0  0  0  0  0  0
   39.1080   33.5470   45.4510 O   0  0  0  0  0  0  0  0  0  0  0  0
   39.2450   32.6370   43.4190 O   0  0  0  0  0  0  0  0  0  0  0  0
   40.7320   31.4880   44.5870 C   0  0  0  0  0  0  0  0  0  0  0  0
   41.4700   32.0810   44.0420 H   0  0  0  0  0  0  0  0  0  0  0  0
   41.2270   31.4340   45.6170 H   0  0  0  0  0  0  0  0  0  0  0  0
   40.7070   30.0380   44.1890 C   0  0  0  0  0  3  0  0  0  0  0  0
   41.2110   29.8210   42.7460 C   0  0  0  0  0  2  0  0  0  0  0  0
   39.7780   29.5440   43.1470 C   0  0  0  0  0  2  0  0  0  0  0  0
  1 23  1  0  0  0  0
  1  2  1  0  0  0  0
  2 13  1  0  0  0  0
  3  2  2  0  0  0  0
  3  7  1  0  0  0  0
  4  8  1  0  0  0  0
  4  3  1  0  0  0  0
  5  6  1  0  0  0  0
  5  4  2  0  0  0  0
  6  1  2  0  0  0  0
  9  5  1  0  0  0  0
 10  6  1  0  0  0  0
 11 17  1  0  0  0  0
 11 16  1  0  0  0  0
 12 11  2  0  0  0  0
 13 12  1  0  0  0  0
 13 14  2  0  0  0  0
 14 15  1  0  0  0  0
 15 16  2  0  0  0  0
 15 19  1  0  0  0  0
 18 12  1  0  0  0  0
 19 22  1  0  0  0  0
 19 20  1  0  0  0  0
 21 19  1  0  0  0  0
 23 24  2  0  0  0  0
 25 23  2  0  0  0  0
 26 23  1  0  0  0  0
 26 28  1  0  0  0  0
 27 26  1  0  0  0  0
 29 26  1  0  0  0  0
 30 31  1  0  0  0  0
 30 29  1  0  0  0  0
 31 29  1  0  0  0  0
M  END
>  <minimizedAffinity>
-4.72123623

>  <minimizedRMSD>
0.704519033

$$$$
